
     RDKit          3D

 15 16  0  0  0  0  0  0  0  0999 V2000
    3.1705   -0.5806    0.0763 C   0  0  0  0  0  0  0  0  0  0  0  0
    1.9959   -0.2755   -0.0030 C   0  0  0  0  0  0  0  0  0  0  0  0
    0.5789    0.0903   -0.0732 C   0  0  0  0  0  0  0  0  0  0  0  0
   -0.1648   -0.1644   -1.3661 C   0  0  0  0  0  0  0  0  0  0  0  0
   -1.5406    0.3592   -1.0340 C   0  0  0  0  0  0  0  0  0  0  0  0
   -1.6823   -0.0365    0.3934 C   0  0  0  0  0  0  0  0  0  0  0  0
   -2.6687   -0.3312    1.0257 O   0  0  0  0  0  0  0  0  0  0  0  0
   -0.3043   -0.0073    0.9567 C   0  0  0  0  0  0  0  0  0  0  0  0
    0.2671    1.3406    0.5927 O   0  0  0  0  0  0  0  0  0  0  0  0
    4.2019   -0.8300    0.1507 H   0  0  0  0  0  0  0  0  0  0  0  0
    0.3240    0.3990   -2.1779 H   0  0  0  0  0  0  0  0  0  0  0  0
   -0.1541   -1.2586   -1.5299 H   0  0  0  0  0  0  0  0  0  0  0  0
   -1.4876    1.4675   -1.1180 H   0  0  0  0  0  0  0  0  0  0  0  0
   -2.3349   -0.0736   -1.6772 H   0  0  0  0  0  0  0  0  0  0  0  0
   -0.2011   -0.0989    2.0441 H   0  0  0  0  0  0  0  0  0  0  0  0
  1  2  3  0
  2  3  1  0
  3  4  1  0
  4  5  1  0
  5  6  1  0
  6  7  2  0
  6  8  1  0
  8  9  1  0
  8  3  1  0
  9  3  1  0
  1 10  1  0
  4 11  1  0
  4 12  1  0
  5 13  1  0
  5 14  1  0
  8 15  1  0
M  END
