
     RDKit          3D

 13 12  0  0  0  0  0  0  0  0999 V2000
    1.1637    1.8270   -2.3584 C   0  0  0  0  0  0  0  0  0  0  0  0
    1.0462    0.9850   -1.3830 C   0  0  0  0  0  0  0  0  0  0  0  0
    0.8977    0.0492   -0.3230 C   0  0  0  0  0  0  0  0  0  0  0  0
    1.1835   -1.3501   -0.9025 C   0  0  0  0  0  0  0  0  0  0  0  0
    1.4014   -2.4236   -1.3250 C   0  0  0  0  0  0  0  0  0  0  0  0
   -0.2563    0.1598    0.3731 C   0  0  0  0  0  0  0  0  0  0  0  0
   -1.3478    0.2712    1.0572 C   0  0  0  0  0  0  0  0  0  0  0  0
   -2.5774    0.3908    1.8134 C   0  0  0  0  0  0  0  0  0  0  0  0
   -3.4486   -0.4847    1.8613 O   0  0  0  0  0  0  0  0  0  0  0  0
    1.2606    2.5009   -3.1435 H   0  0  0  0  0  0  0  0  0  0  0  0
    1.7989    0.2156    0.4116 H   0  0  0  0  0  0  0  0  0  0  0  0
    1.5975   -3.4499   -1.7235 H   0  0  0  0  0  0  0  0  0  0  0  0
   -2.7195    1.3088    2.3425 H   0  0  0  0  0  0  0  0  0  0  0  0
  1  2  3  0
  2  3  1  0
  3  4  1  0
  4  5  3  0
  3  6  1  0
  6  7  3  0
  7  8  1  0
  8  9  2  0
  1 10  1  0
  3 11  1  0
  5 12  1  0
  8 13  1  0
M  END
