
     RDKit          3D

 19 19  0  0  0  0  0  0  0  0999 V2000
    2.7317    0.0586    1.2328 C   0  0  0  0  0  0  0  0  0  0  0  0
    1.8610    0.1691    0.3970 C   0  0  0  0  0  0  0  0  0  0  0  0
    0.8136    0.2956   -0.5752 C   0  0  0  0  0  0  0  0  0  0  0  0
    0.1479    1.6476   -0.5214 C   0  0  0  0  0  0  0  0  0  0  0  0
   -1.1236    0.9469   -0.8218 C   0  0  0  0  0  0  0  0  0  0  0  0
   -2.1676    1.2337   -1.3516 O   0  0  0  0  0  0  0  0  0  0  0  0
   -0.5381   -0.2550   -0.1828 C   0  0  0  0  0  0  0  0  0  0  0  0
   -0.8063   -0.2836    1.2972 C   0  0  0  0  0  0  0  0  0  0  0  0
   -0.8016   -1.5569   -0.8890 C   0  0  0  0  0  0  0  0  0  0  0  0
    3.5034   -0.0491    1.9528 H   0  0  0  0  0  0  0  0  0  0  0  0
    1.0447    0.0038   -1.6159 H   0  0  0  0  0  0  0  0  0  0  0  0
    0.1254    2.1182    0.4729 H   0  0  0  0  0  0  0  0  0  0  0  0
    0.4909    2.3635   -1.2940 H   0  0  0  0  0  0  0  0  0  0  0  0
   -1.0454   -1.3339    1.5657 H   0  0  0  0  0  0  0  0  0  0  0  0
    0.0437    0.0339    1.9140 H   0  0  0  0  0  0  0  0  0  0  0  0
   -1.6931    0.3635    1.5410 H   0  0  0  0  0  0  0  0  0  0  0  0
   -1.0279   -2.3211   -0.1060 H   0  0  0  0  0  0  0  0  0  0  0  0
   -1.6533   -1.5118   -1.5898 H   0  0  0  0  0  0  0  0  0  0  0  0
    0.0947   -1.9230   -1.4259 H   0  0  0  0  0  0  0  0  0  0  0  0
  1  2  3  0
  2  3  1  0
  3  4  1  0
  4  5  1  0
  5  6  2  0
  5  7  1  0
  7  8  1  0
  7  9  1  0
  7  3  1  0
  1 10  1  0
  3 11  1  0
  4 12  1  0
  4 13  1  0
  8 14  1  0
  8 15  1  0
  8 16  1  0
  9 17  1  0
  9 18  1  0
  9 19  1  0
M  END
