
     RDKit          3D

 15 16  0  0  0  0  0  0  0  0999 V2000
    2.4268    1.7681   -0.2191 C   0  0  0  0  0  0  0  0  0  0  0  0
    1.3991    0.9928   -0.0806 C   0  0  0  0  0  0  0  0  0  0  0  0
    0.4001    0.2243    0.0630 C   0  0  0  0  0  0  0  0  0  0  0  0
   -0.6482    0.5772    1.1253 C   0  0  0  0  0  0  0  0  0  0  0  0
   -1.3613   -0.7121    1.1217 C   0  0  0  0  0  0  0  0  0  0  0  0
   -2.2852   -1.0354    1.7648 O   0  0  0  0  0  0  0  0  0  0  0  0
   -0.5914   -1.4258    0.1024 C   0  0  0  0  0  0  0  0  0  0  0  0
   -0.3643   -0.4909   -1.0213 C   0  0  0  0  0  0  0  0  0  0  0  0
    0.7534   -1.1762    0.4444 O   0  0  0  0  0  0  0  0  0  0  0  0
    3.4337    2.5514   -0.3558 H   0  0  0  0  0  0  0  0  0  0  0  0
   -0.1486    0.7200    2.1022 H   0  0  0  0  0  0  0  0  0  0  0  0
   -1.2534    1.4082    0.8089 H   0  0  0  0  0  0  0  0  0  0  0  0
   -0.8689   -2.4813   -0.0947 H   0  0  0  0  0  0  0  0  0  0  0  0
   -1.2202    0.0335   -1.4228 H   0  0  0  0  0  0  0  0  0  0  0  0
    0.3281   -0.9537   -1.8160 H   0  0  0  0  0  0  0  0  0  0  0  0
  1  2  3  0
  2  3  1  0
  3  4  1  0
  4  5  1  0
  5  6  2  0
  5  7  1  0
  7  8  1  0
  7  9  1  0
  8  3  1  0
  9  3  1  0
  1 10  1  0
  4 11  1  0
  4 12  1  0
  7 13  1  0
  8 14  1  0
  8 15  1  0
M  END
