
     RDKit          3D

 21 21  0  0  0  0  0  0  0  0999 V2000
   -2.4305    2.3977   -0.1983 C   0  0  0  0  0  0  0  0  0  0  0  0
   -1.8553    1.3480   -0.0962 C   0  0  0  0  0  0  0  0  0  0  0  0
   -1.1153    0.0085    0.0382 C   0  0  0  0  0  0  0  0  0  0  0  0
    0.0359    0.0316    0.4350 O   0  0  0  0  0  0  0  0  0  0  0  0
    1.2263    0.0556    0.8453 C   0  0  0  0  0  0  0  0  0  0  0  0
    2.0624    1.2235    0.2303 C   0  0  0  0  0  0  0  0  0  0  0  0
    2.0484   -1.1894    0.3355 C   0  0  0  0  0  0  0  0  0  0  0  0
   -2.1884   -1.0872    0.3778 C   0  0  0  0  0  0  0  0  0  0  0  0
   -1.6129   -1.0420   -0.9649 C   0  0  0  0  0  0  0  0  0  0  0  0
   -2.9609    3.3723   -0.2839 H   0  0  0  0  0  0  0  0  0  0  0  0
    1.4383    0.0819    1.9116 H   0  0  0  0  0  0  0  0  0  0  0  0
    2.2852    0.8958   -0.8414 H   0  0  0  0  0  0  0  0  0  0  0  0
    1.5388    2.1834    0.2855 H   0  0  0  0  0  0  0  0  0  0  0  0
    2.9992    1.2364    0.7591 H   0  0  0  0  0  0  0  0  0  0  0  0
    3.0244   -1.2336    0.8280 H   0  0  0  0  0  0  0  0  0  0  0  0
    2.2598   -0.9957   -0.7338 H   0  0  0  0  0  0  0  0  0  0  0  0
    1.4374   -2.1034    0.4286 H   0  0  0  0  0  0  0  0  0  0  0  0
   -1.9342   -1.8575    1.1396 H   0  0  0  0  0  0  0  0  0  0  0  0
   -3.2472   -0.7156    0.5781 H   0  0  0  0  0  0  0  0  0  0  0  0
   -2.1701   -0.7418   -1.8266 H   0  0  0  0  0  0  0  0  0  0  0  0
   -0.8414   -1.8685   -1.1769 H   0  0  0  0  0  0  0  0  0  0  0  0
  1  2  3  0
  2  3  1  0
  3  4  1  0
  4  5  1  0
  5  6  1  0
  5  7  1  0
  3  8  1  0
  8  9  1  0
  9  3  1  0
  1 10  1  0
  5 11  1  0
  6 12  1  0
  6 13  1  0
  6 14  1  0
  7 15  1  0
  7 16  1  0
  7 17  1  0
  8 18  1  0
  8 19  1  0
  9 20  1  0
  9 21  1  0
M  END
