
     RDKit          3D

 21 22  0  0  0  0  0  0  0  0999 V2000
    3.0703    0.3766    1.1116 C   0  0  0  0  0  0  0  0  0  0  0  0
    1.9152    0.3325    0.7057 C   0  0  0  0  0  0  0  0  0  0  0  0
    0.5315    0.3004    0.2147 C   0  0  0  0  0  0  0  0  0  0  0  0
    0.2973   -0.7025   -0.8480 C   0  0  0  0  0  0  0  0  0  0  0  0
    0.9508   -0.6729   -2.1458 C   0  0  0  0  0  0  0  0  0  0  0  0
   -0.5462   -0.3579   -2.0089 C   0  0  0  0  0  0  0  0  0  0  0  0
   -0.4351    0.0084    1.3784 C   0  0  0  0  0  0  0  0  0  0  0  0
   -1.9136   -0.0691    0.9761 C   0  0  0  0  0  0  0  0  0  0  0  0
   -1.4147    1.0611    1.7750 C   0  0  0  0  0  0  0  0  0  0  0  0
    4.0115    0.3969    1.4503 H   0  0  0  0  0  0  0  0  0  0  0  0
    0.3318    1.3699   -0.0707 H   0  0  0  0  0  0  0  0  0  0  0  0
    0.0763   -1.7576   -0.4437 H   0  0  0  0  0  0  0  0  0  0  0  0
    1.5839    0.1745   -2.4799 H   0  0  0  0  0  0  0  0  0  0  0  0
    1.1552   -1.6645   -2.6517 H   0  0  0  0  0  0  0  0  0  0  0  0
   -1.2346   -1.0671   -2.4829 H   0  0  0  0  0  0  0  0  0  0  0  0
   -0.8177    0.7123   -2.1866 H   0  0  0  0  0  0  0  0  0  0  0  0
   -0.0438   -0.6306    2.1643 H   0  0  0  0  0  0  0  0  0  0  0  0
   -2.0993   -0.0082   -0.1315 H   0  0  0  0  0  0  0  0  0  0  0  0
   -2.4642   -0.9012    1.4739 H   0  0  0  0  0  0  0  0  0  0  0  0
   -1.6863    1.0378    2.8692 H   0  0  0  0  0  0  0  0  0  0  0  0
   -1.2683    2.0612    1.3306 H   0  0  0  0  0  0  0  0  0  0  0  0
  1  2  3  0
  2  3  1  0
  3  4  1  0
  4  5  1  0
  5  6  1  0
  3  7  1  0
  7  8  1  0
  8  9  1  0
  6  4  1  0
  9  7  1  0
  1 10  1  0
  3 11  1  0
  4 12  1  0
  5 13  1  0
  5 14  1  0
  6 15  1  0
  6 16  1  0
  7 17  1  0
  8 18  1  0
  8 19  1  0
  9 20  1  0
  9 21  1  0
M  END
