
     RDKit          3D

 19 20  0  0  0  0  0  0  0  0999 V2000
    1.0647   -1.3131   -2.6306 C   0  0  0  0  0  0  0  0  0  0  0  0
    0.9339   -0.4766   -1.7217 C   0  0  0  0  0  0  0  0  0  0  0  0
    0.8028    0.4226   -0.7731 C   0  0  0  0  0  0  0  0  0  0  0  0
   -0.0372    1.5825   -0.5933 C   0  0  0  0  0  0  0  0  0  0  0  0
    0.7841    1.4498    0.6413 C   0  0  0  0  0  0  0  0  0  0  0  0
    1.8534    1.1853   -0.2544 O   0  0  0  0  0  0  0  0  0  0  0  0
    0.5386    0.0172    0.6858 C   0  0  0  0  0  0  0  0  0  0  0  0
   -0.8386   -0.5412    0.8444 C   0  0  0  0  0  0  0  0  0  0  0  0
   -1.1621   -1.0426    2.2070 C   0  0  0  0  0  0  0  0  0  0  0  0
    1.1842   -2.0347   -3.4420 H   0  0  0  0  0  0  0  0  0  0  0  0
    0.3600    2.4712   -1.2243 H   0  0  0  0  0  0  0  0  0  0  0  0
   -1.1044    1.5925   -0.5155 H   0  0  0  0  0  0  0  0  0  0  0  0
    0.8766    2.0951    1.4084 H   0  0  0  0  0  0  0  0  0  0  0  0
    1.3399   -0.6591    1.0316 H   0  0  0  0  0  0  0  0  0  0  0  0
   -1.0093   -1.3587    0.0664 H   0  0  0  0  0  0  0  0  0  0  0  0
   -1.6336    0.2279    0.5530 H   0  0  0  0  0  0  0  0  0  0  0  0
   -1.3564   -2.1744    2.0846 H   0  0  0  0  0  0  0  0  0  0  0  0
   -0.4353   -0.8459    3.0006 H   0  0  0  0  0  0  0  0  0  0  0  0
   -2.1613   -0.5978    2.5654 H   0  0  0  0  0  0  0  0  0  0  0  0
  1  2  3  0
  2  3  1  0
  3  4  1  0
  4  5  1  0
  5  6  1  0
  5  7  1  0
  7  8  1  0
  8  9  1  0
  6  3  1  0
  7  3  1  0
  1 10  1  0
  4 11  1  0
  4 12  1  0
  5 13  1  0
  7 14  1  0
  8 15  1  0
  8 16  1  0
  9 17  1  0
  9 18  1  0
  9 19  1  0
M  END
