
     RDKit          3D

 17 17  0  0  0  0  0  0  0  0999 V2000
    4.0115   -2.2615   -0.1961 C   0  0  0  0  0  0  0  0  0  0  0  0
    3.2370   -1.9281   -0.2032 C   0  0  0  0  0  0  0  0  0  0  0  0
    1.5511   -1.1794   -0.1941 C   0  0  0  0  0  0  0  0  0  0  0  0
    0.7800   -0.8259   -0.1803 C   0  0  0  0  0  0  0  0  0  0  0  0
   -0.4321   -0.2916   -0.1712 C   0  0  0  0  0  0  0  0  0  0  0  0
   -1.1472   -0.4624   -1.5143 O   0  0  0  0  0  0  0  0  0  0  0  0
   -0.4984    1.4227   -0.2282 C   0  0  0  0  0  0  0  0  0  0  0  0
   -1.9984    1.1592    0.2609 C   0  0  0  0  0  0  0  0  0  0  0  0
   -1.3472    0.0017    0.9457 C   0  0  0  0  0  0  0  0  0  0  0  0
    4.8152   -2.6243   -0.1891 H   0  0  0  0  0  0  0  0  0  0  0  0
   -0.7335    0.4038   -1.9149 H   0  0  0  0  0  0  0  0  0  0  0  0
   -0.0246    1.9465    0.5422 H   0  0  0  0  0  0  0  0  0  0  0  0
   -0.6477    1.9148   -1.2066 H   0  0  0  0  0  0  0  0  0  0  0  0
   -2.3300    1.9727    0.9602 H   0  0  0  0  0  0  0  0  0  0  0  0
   -2.6315    0.9908   -0.6029 H   0  0  0  0  0  0  0  0  0  0  0  0
   -0.6646    0.4789    1.7907 H   0  0  0  0  0  0  0  0  0  0  0  0
   -1.9396   -0.7181    1.3711 H   0  0  0  0  0  0  0  0  0  0  0  0
  1  2  3  0
  2  3  1  0
  3  4  3  0
  4  5  1  0
  5  6  1  0
  5  7  1  0
  7  8  1  0
  8  9  1  0
  9  5  1  0
  1 10  1  0
  6 11  1  0
  7 12  1  0
  7 13  1  0
  8 14  1  0
  8 15  1  0
  9 16  1  0
  9 17  1  0
M  END
