
     RDKit          3D

 19 19  0  0  0  0  0  0  0  0999 V2000
    1.9574   -2.9228   -0.3889 C   0  0  0  0  0  0  0  0  0  0  0  0
    0.9542   -2.2309    0.1236 C   0  0  0  0  0  0  0  0  0  0  0  0
   -0.0999   -1.4739    0.6665 C   0  0  0  0  0  0  0  0  0  0  0  0
    0.0605    0.0024    0.3477 C   0  0  0  0  0  0  0  0  0  0  0  0
    1.2446    0.5418    0.7917 O   0  0  0  0  0  0  0  0  0  0  0  0
   -1.1172    0.7295    1.0676 C   0  0  0  0  0  0  0  0  0  0  0  0
   -1.8447    0.5035   -0.0672 O   0  0  0  0  0  0  0  0  0  0  0  0
   -0.6427    0.5728   -0.7971 C   0  0  0  0  0  0  0  0  0  0  0  0
   -0.3086    2.0185   -1.0162 C   0  0  0  0  0  0  0  0  0  0  0  0
    2.7194   -3.4694   -0.7869 H   0  0  0  0  0  0  0  0  0  0  0  0
   -0.0612   -1.5031    1.8001 H   0  0  0  0  0  0  0  0  0  0  0  0
   -1.1202   -1.8044    0.3760 H   0  0  0  0  0  0  0  0  0  0  0  0
    1.6881   -0.1588    1.3630 H   0  0  0  0  0  0  0  0  0  0  0  0
   -1.4569    0.1930    1.9524 H   0  0  0  0  0  0  0  0  0  0  0  0
   -0.8016    1.7822    1.2591 H   0  0  0  0  0  0  0  0  0  0  0  0
   -0.6460   -0.0105   -1.7534 H   0  0  0  0  0  0  0  0  0  0  0  0
    0.6703    2.2454   -0.5027 H   0  0  0  0  0  0  0  0  0  0  0  0
   -1.0808    2.7349   -0.6931 H   0  0  0  0  0  0  0  0  0  0  0  0
   -0.1145    2.2499   -2.0945 H   0  0  0  0  0  0  0  0  0  0  0  0
  1  2  3  0
  2  3  1  0
  3  4  1  0
  4  5  1  0
  4  6  1  0
  6  7  1  0
  7  8  1  0
  8  9  1  0
  8  4  1  0
  1 10  1  0
  3 11  1  0
  3 12  1  0
  5 13  1  0
  6 14  1  0
  6 15  1  0
  8 16  1  0
  9 17  1  0
  9 18  1  0
  9 19  1  0
M  END
