
     RDKit          3D

 15 17  0  0  0  0  0  0  0  0999 V2000
    2.6103   -0.1514    1.8335 C   0  0  0  0  0  0  0  0  0  0  0  0
    1.7701   -0.6269    1.0785 C   0  0  0  0  0  0  0  0  0  0  0  0
    0.7467   -1.1855    0.1900 C   0  0  0  0  0  0  0  0  0  0  0  0
   -0.2672   -0.1342   -0.0911 C   0  0  0  0  0  0  0  0  0  0  0  0
   -0.9071    0.3356    1.0970 O   0  0  0  0  0  0  0  0  0  0  0  0
   -1.6145   -0.0945   -0.0021 C   0  0  0  0  0  0  0  0  0  0  0  0
   -1.7185    0.9341   -1.1240 C   0  0  0  0  0  0  0  0  0  0  0  0
   -1.0712    0.7001   -2.3162 O   0  0  0  0  0  0  0  0  0  0  0  0
   -0.1916    0.8009   -1.2488 C   0  0  0  0  0  0  0  0  0  0  0  0
    3.3294    0.2757    2.4958 H   0  0  0  0  0  0  0  0  0  0  0  0
    0.2265   -1.9860    0.7868 H   0  0  0  0  0  0  0  0  0  0  0  0
    1.2029   -1.6483   -0.6874 H   0  0  0  0  0  0  0  0  0  0  0  0
   -2.3622   -0.8966    0.0678 H   0  0  0  0  0  0  0  0  0  0  0  0
   -2.1397    1.9310   -0.8730 H   0  0  0  0  0  0  0  0  0  0  0  0
    0.3861    1.7459   -1.2066 H   0  0  0  0  0  0  0  0  0  0  0  0
  1  2  3  0
  2  3  1  0
  3  4  1  0
  4  5  1  0
  5  6  1  0
  6  7  1  0
  7  8  1  0
  8  9  1  0
  6  4  1  0
  9  7  1  0
  9  4  1  0
  1 10  1  0
  3 11  1  0
  3 12  1  0
  6 13  1  0
  7 14  1  0
  9 15  1  0
M  END
