
     RDKit          3D

 16 16  0  0  0  0  0  0  0  0999 V2000
    2.7989    0.5577   -0.8207 C   0  0  0  0  0  0  0  0  0  0  0  0
    1.8929    0.6511   -0.0281 C   0  0  0  0  0  0  0  0  0  0  0  0
    0.7810    0.7419    0.9353 C   0  0  0  0  0  0  0  0  0  0  0  0
    0.8370   -0.2372    1.9195 O   0  0  0  0  0  0  0  0  0  0  0  0
   -0.4783   -0.5599    1.6839 C   0  0  0  0  0  0  0  0  0  0  0  0
   -0.4714    0.1679    0.3355 C   0  0  0  0  0  0  0  0  0  0  0  0
   -0.3180   -0.6638   -0.7383 O   0  0  0  0  0  0  0  0  0  0  0  0
   -1.3026   -0.3643   -1.6733 C   0  0  0  0  0  0  0  0  0  0  0  0
    3.5905    0.4887   -1.5248 H   0  0  0  0  0  0  0  0  0  0  0  0
    0.6470    1.7296    1.4018 H   0  0  0  0  0  0  0  0  0  0  0  0
   -0.6279   -1.6394    1.6217 H   0  0  0  0  0  0  0  0  0  0  0  0
   -1.2045   -0.1120    2.4195 H   0  0  0  0  0  0  0  0  0  0  0  0
   -1.3118    0.8583    0.2130 H   0  0  0  0  0  0  0  0  0  0  0  0
   -1.2183   -1.0190   -2.5705 H   0  0  0  0  0  0  0  0  0  0  0  0
   -2.3157   -0.5755   -1.2203 H   0  0  0  0  0  0  0  0  0  0  0  0
   -1.2989    0.7260   -1.9543 H   0  0  0  0  0  0  0  0  0  0  0  0
  1  2  3  0
  2  3  1  0
  3  4  1  0
  4  5  1  0
  5  6  1  0
  6  7  1  0
  7  8  1  0
  6  3  1  0
  1  9  1  0
  3 10  1  0
  5 11  1  0
  5 12  1  0
  6 13  1  0
  8 14  1  0
  8 15  1  0
  8 16  1  0
M  END
