
     RDKit          3D

 16 17  0  0  0  0  0  0  0  0999 V2000
    1.3718    0.6695    3.1472 C   0  0  0  0  0  0  0  0  0  0  0  0
    0.8659    0.3545    2.0643 C   0  0  0  0  0  0  0  0  0  0  0  0
    0.2618   -0.0131    0.8285 C   0  0  0  0  0  0  0  0  0  0  0  0
    0.2711   -1.2672    0.3715 C   0  0  0  0  0  0  0  0  0  0  0  0
   -0.4221   -1.3613   -0.9243 C   0  0  0  0  0  0  0  0  0  0  0  0
   -1.0318    0.0080   -1.1181 C   0  0  0  0  0  0  0  0  0  0  0  0
   -0.0231    1.0825   -1.4880 C   0  0  0  0  0  0  0  0  0  0  0  0
   -0.4371    0.8835   -0.0920 C   0  0  0  0  0  0  0  0  0  0  0  0
    1.8247    0.9489    4.0756 H   0  0  0  0  0  0  0  0  0  0  0  0
    0.7222   -2.1427    0.8606 H   0  0  0  0  0  0  0  0  0  0  0  0
    0.3800   -1.4667   -1.7067 H   0  0  0  0  0  0  0  0  0  0  0  0
   -1.1345   -2.1732   -1.0206 H   0  0  0  0  0  0  0  0  0  0  0  0
   -2.0652    0.1167   -1.4963 H   0  0  0  0  0  0  0  0  0  0  0  0
   -0.4412    1.9561   -2.0032 H   0  0  0  0  0  0  0  0  0  0  0  0
    0.9683    0.7449   -1.8622 H   0  0  0  0  0  0  0  0  0  0  0  0
   -1.1109    1.6597    0.3639 H   0  0  0  0  0  0  0  0  0  0  0  0
  1  2  3  0
  2  3  1  0
  3  4  2  0
  4  5  1  0
  5  6  1  0
  6  7  1  0
  7  8  1  0
  8  3  1  0
  8  6  1  0
  1  9  1  0
  4 10  1  0
  5 11  1  0
  5 12  1  0
  6 13  1  0
  7 14  1  0
  7 15  1  0
  8 16  1  0
M  END
