
     RDKit          3D

 16 15  0  0  0  0  0  0  0  0999 V2000
   -2.0792    1.1683    0.3544 C   0  0  0  0  0  0  0  0  0  0  0  0
   -1.7617    0.0473    0.2065 C   0  0  0  0  0  0  0  0  0  0  0  0
   -1.4169   -1.2376    0.0362 C   0  0  0  0  0  0  0  0  0  0  0  0
    0.1190   -1.2327   -0.1717 C   0  0  0  0  0  0  0  0  0  0  0  0
    0.3718   -0.3906   -1.1874 O   0  0  0  0  0  0  0  0  0  0  0  0
    1.7619    0.2781   -1.0424 C   0  0  0  0  0  0  0  0  0  0  0  0
    1.4763    1.0131    0.0323 C   0  0  0  0  0  0  0  0  0  0  0  0
    1.1713    1.7760    1.1145 C   0  0  0  0  0  0  0  0  0  0  0  0
   -2.4463    2.4656    0.5217 H   0  0  0  0  0  0  0  0  0  0  0  0
   -1.4057   -1.5698    1.3148 H   0  0  0  0  0  0  0  0  0  0  0  0
   -2.0367   -1.9420   -0.3699 H   0  0  0  0  0  0  0  0  0  0  0  0
    0.4201   -2.2735   -0.5051 H   0  0  0  0  0  0  0  0  0  0  0  0
    0.6477   -1.0155    0.8191 H   0  0  0  0  0  0  0  0  0  0  0  0
    1.7093    0.9518   -1.9988 H   0  0  0  0  0  0  0  0  0  0  0  0
    2.5298   -0.4356   -1.0921 H   0  0  0  0  0  0  0  0  0  0  0  0
    0.9392    2.3972    1.9680 H   0  0  0  0  0  0  0  0  0  0  0  0
  1  2  3  0
  2  3  1  0
  3  4  1  0
  4  5  1  0
  5  6  1  0
  6  7  1  0
  7  8  3  0
  1  9  1  0
  3 10  1  0
  3 11  1  0
  4 12  1  0
  4 13  1  0
  6 14  1  0
  6 15  1  0
  8 16  1  0
M  END
