
     RDKit          3D

 16 18  0  0  0  0  0  0  0  0999 V2000
    2.8184   -0.7647   -1.7416 C   0  0  0  0  0  0  0  0  0  0  0  0
    2.1702   -0.6037   -0.7421 C   0  0  0  0  0  0  0  0  0  0  0  0
    1.3485   -0.4010    0.4779 C   0  0  0  0  0  0  0  0  0  0  0  0
   -0.0443   -0.8308    0.5761 C   0  0  0  0  0  0  0  0  0  0  0  0
   -1.2292    0.0300    1.0600 C   0  0  0  0  0  0  0  0  0  0  0  0
   -2.2268    0.2285    0.0529 C   0  0  0  0  0  0  0  0  0  0  0  0
   -0.9050    0.8429   -0.2152 C   0  0  0  0  0  0  0  0  0  0  0  0
    0.4171    0.6611    0.4324 C   0  0  0  0  0  0  0  0  0  0  0  0
    3.4023   -0.8907   -2.6316 H   0  0  0  0  0  0  0  0  0  0  0  0
    1.9523   -0.6995    1.3797 H   0  0  0  0  0  0  0  0  0  0  0  0
   -0.2811   -1.4194   -0.3233 H   0  0  0  0  0  0  0  0  0  0  0  0
   -1.1001    0.6025    1.9846 H   0  0  0  0  0  0  0  0  0  0  0  0
   -3.1461    0.7567    0.3329 H   0  0  0  0  0  0  0  0  0  0  0  0
   -2.4805   -0.6695   -0.5915 H   0  0  0  0  0  0  0  0  0  0  0  0
   -1.1066    1.9569   -0.2740 H   0  0  0  0  0  0  0  0  0  0  0  0
    0.4110    1.2006    1.4480 H   0  0  0  0  0  0  0  0  0  0  0  0
  1  2  3  0
  2  3  1  0
  3  4  1  0
  4  5  1  0
  5  6  1  0
  6  7  1  0
  7  8  1  0
  8  3  1  0
  8  4  1  0
  7  5  1  0
  1  9  1  0
  3 10  1  0
  4 11  1  0
  5 12  1  0
  6 13  1  0
  6 14  1  0
  7 15  1  0
  8 16  1  0
M  END
