
     RDKit          3D

 16 16  0  0  0  0  0  0  0  0999 V2000
    2.9749    0.4958   -0.7568 C   0  0  0  0  0  0  0  0  0  0  0  0
    2.0414    0.1363   -0.0830 C   0  0  0  0  0  0  0  0  0  0  0  0
    0.8947   -0.2853    0.7573 C   0  0  0  0  0  0  0  0  0  0  0  0
   -0.0691   -1.0660   -0.0980 C   0  0  0  0  0  0  0  0  0  0  0  0
   -1.2193   -0.1431   -0.2785 C   0  0  0  0  0  0  0  0  0  0  0  0
   -2.3667   -0.7715    0.2030 O   0  0  0  0  0  0  0  0  0  0  0  0
   -0.8823    1.0569    0.5356 C   0  0  0  0  0  0  0  0  0  0  0  0
    0.2358    0.7824    1.2885 O   0  0  0  0  0  0  0  0  0  0  0  0
    3.8022    0.8299   -1.3436 H   0  0  0  0  0  0  0  0  0  0  0  0
    1.2539   -0.9202    1.5835 H   0  0  0  0  0  0  0  0  0  0  0  0
   -0.3496   -2.0166    0.3726 H   0  0  0  0  0  0  0  0  0  0  0  0
    0.3743   -1.3027   -1.0919 H   0  0  0  0  0  0  0  0  0  0  0  0
   -1.4000    0.1022   -1.3530 H   0  0  0  0  0  0  0  0  0  0  0  0
   -2.8746   -0.1765    0.8112 H   0  0  0  0  0  0  0  0  0  0  0  0
   -1.7034    1.3146    1.2394 H   0  0  0  0  0  0  0  0  0  0  0  0
   -0.7121    1.9639   -0.1095 H   0  0  0  0  0  0  0  0  0  0  0  0
  1  2  3  0
  2  3  1  0
  3  4  1  0
  4  5  1  0
  5  6  1  0
  5  7  1  0
  7  8  1  0
  8  3  1  0
  1  9  1  0
  3 10  1  0
  4 11  1  0
  4 12  1  0
  5 13  1  0
  6 14  1  0
  7 15  1  0
  7 16  1  0
M  END
