
     RDKit          3D

 15 16  0  0  0  0  0  0  0  0999 V2000
    2.4598   -0.9653   -0.7201 C   0  0  0  0  0  0  0  0  0  0  0  0
    1.3705   -0.9017   -0.4299 C   0  0  0  0  0  0  0  0  0  0  0  0
    0.0923   -0.8350   -0.1114 C   0  0  0  0  0  0  0  0  0  0  0  0
   -0.7051   -1.2651    1.0573 C   0  0  0  0  0  0  0  0  0  0  0  0
   -0.1871    0.1023    1.0476 C   0  0  0  0  0  0  0  0  0  0  0  0
   -0.9329    1.2797    0.9280 C   0  0  0  0  0  0  0  0  0  0  0  0
   -1.5357    2.2405    0.6955 O   0  0  0  0  0  0  0  0  0  0  0  0
   -0.8349    1.1196   -0.9363 C   0  0  0  0  0  0  0  0  0  0  0  0
   -0.6766   -0.0756   -1.1059 O   0  0  0  0  0  0  0  0  0  0  0  0
    4.0124   -1.0520   -1.1628 H   0  0  0  0  0  0  0  0  0  0  0  0
   -1.8232   -1.3815    0.6229 H   0  0  0  0  0  0  0  0  0  0  0  0
   -0.4067   -2.0622    1.7147 H   0  0  0  0  0  0  0  0  0  0  0  0
    0.8484    0.2595    1.6679 H   0  0  0  0  0  0  0  0  0  0  0  0
    0.0272    1.8490   -1.0005 H   0  0  0  0  0  0  0  0  0  0  0  0
   -1.7083    1.6878   -1.2052 H   0  0  0  0  0  0  0  0  0  0  0  0
  1  2  3  0
  2  3  1  0
  3  4  1  0
  4  5  1  0
  5  6  1  0
  6  7  2  0
  6  8  1  0
  8  9  1  0
  5  3  1  0
  9  3  1  0
  1 10  1  0
  4 11  1  0
  4 12  1  0
  5 13  1  0
  8 14  1  0
  8 15  1  0
M  END
