
     RDKit          3D

 21 21  0  0  0  0  0  0  0  0999 V2000
    3.8347    0.6366    1.2078 C   0  0  0  0  0  0  0  0  0  0  0  0
    2.8508    1.0295    0.6161 C   0  0  0  0  0  0  0  0  0  0  0  0
    1.6586    1.4832   -0.0794 C   0  0  0  0  0  0  0  0  0  0  0  0
    0.4323    0.7096    0.3361 C   0  0  0  0  0  0  0  0  0  0  0  0
    0.4688   -0.7516    0.0954 C   0  0  0  0  0  0  0  0  0  0  0  0
   -0.3738    0.1387   -0.7758 C   0  0  0  0  0  0  0  0  0  0  0  0
   -1.8605   -0.0000   -0.6605 C   0  0  0  0  0  0  0  0  0  0  0  0
   -2.2634   -0.8915    0.5001 C   0  0  0  0  0  0  0  0  0  0  0  0
   -2.3145   -0.6306   -1.8195 O   0  0  0  0  0  0  0  0  0  0  0  0
    4.6900    0.2775    1.7360 H   0  0  0  0  0  0  0  0  0  0  0  0
    1.7843    1.4888   -1.1868 H   0  0  0  0  0  0  0  0  0  0  0  0
    1.4854    2.5479    0.2474 H   0  0  0  0  0  0  0  0  0  0  0  0
   -0.0694    1.0178    1.2808 H   0  0  0  0  0  0  0  0  0  0  0  0
    1.3450   -1.2250   -0.4347 H   0  0  0  0  0  0  0  0  0  0  0  0
   -0.0117   -1.4548    0.7984 H   0  0  0  0  0  0  0  0  0  0  0  0
   -0.0206    0.3205   -1.8253 H   0  0  0  0  0  0  0  0  0  0  0  0
   -2.3767    0.9869   -0.5432 H   0  0  0  0  0  0  0  0  0  0  0  0
   -3.3786   -0.7850    0.5864 H   0  0  0  0  0  0  0  0  0  0  0  0
   -1.7603   -0.6235    1.4416 H   0  0  0  0  0  0  0  0  0  0  0  0
   -2.0998   -1.9630    0.2118 H   0  0  0  0  0  0  0  0  0  0  0  0
   -2.0204   -1.5898   -1.7326 H   0  0  0  0  0  0  0  0  0  0  0  0
  1  2  3  0
  2  3  1  0
  3  4  1  0
  4  5  1  0
  5  6  1  0
  6  7  1  0
  7  8  1  0
  7  9  1  0
  6  4  1  0
  1 10  1  0
  3 11  1  0
  3 12  1  0
  4 13  1  0
  5 14  1  0
  5 15  1  0
  6 16  1  0
  7 17  1  0
  8 18  1  0
  8 19  1  0
  8 20  1  0
  9 21  1  0
M  END
