
     RDKit          3D

 21 21  0  0  0  0  0  0  0  0999 V2000
    2.4664    0.5122   -2.8351 C   0  0  0  0  0  0  0  0  0  0  0  0
    2.1473    0.2767   -1.6949 C   0  0  0  0  0  0  0  0  0  0  0  0
    1.7399   -0.0264   -0.3127 C   0  0  0  0  0  0  0  0  0  0  0  0
    0.5629   -0.9756   -0.2416 C   0  0  0  0  0  0  0  0  0  0  0  0
   -0.3308    0.2257   -0.2099 C   0  0  0  0  0  0  0  0  0  0  0  0
   -1.3908    0.2188    0.8664 C   0  0  0  0  0  0  0  0  0  0  0  0
   -2.3283   -0.9498    0.7415 C   0  0  0  0  0  0  0  0  0  0  0  0
   -0.7802    0.2333    2.1383 O   0  0  0  0  0  0  0  0  0  0  0  0
    0.8572    1.0387    0.2649 C   0  0  0  0  0  0  0  0  0  0  0  0
    2.7329    0.7081   -3.8415 H   0  0  0  0  0  0  0  0  0  0  0  0
    2.6148   -0.3160    0.2930 H   0  0  0  0  0  0  0  0  0  0  0  0
    0.5099   -1.5883    0.6781 H   0  0  0  0  0  0  0  0  0  0  0  0
    0.5078   -1.6124   -1.1408 H   0  0  0  0  0  0  0  0  0  0  0  0
   -0.6841    0.5859   -1.1895 H   0  0  0  0  0  0  0  0  0  0  0  0
   -1.9797    1.1530    0.7573 H   0  0  0  0  0  0  0  0  0  0  0  0
   -1.8695   -1.6612    0.0038 H   0  0  0  0  0  0  0  0  0  0  0  0
   -3.3218   -0.6184    0.3737 H   0  0  0  0  0  0  0  0  0  0  0  0
   -2.4578   -1.4833    1.7280 H   0  0  0  0  0  0  0  0  0  0  0  0
   -0.8933    1.1177    2.5716 H   0  0  0  0  0  0  0  0  0  0  0  0
    0.9234    1.1765    1.3487 H   0  0  0  0  0  0  0  0  0  0  0  0
    0.9736    1.9849   -0.2994 H   0  0  0  0  0  0  0  0  0  0  0  0
  1  2  3  0
  2  3  1  0
  3  4  1  0
  4  5  1  0
  5  6  1  0
  6  7  1  0
  6  8  1  0
  5  9  1  0
  9  3  1  0
  1 10  1  0
  3 11  1  0
  4 12  1  0
  4 13  1  0
  5 14  1  0
  6 15  1  0
  7 16  1  0
  7 17  1  0
  7 18  1  0
  8 19  1  0
  9 20  1  0
  9 21  1  0
M  END
