
     RDKit          3D

 21 20  0  0  0  0  0  0  0  0999 V2000
   -0.4056   -1.9896   -2.6469 C   0  0  0  0  0  0  0  0  0  0  0  0
   -0.0032   -1.2812   -1.6565 C   0  0  0  0  0  0  0  0  0  0  0  0
    0.4879   -0.3791   -0.4407 C   0  0  0  0  0  0  0  0  0  0  0  0
   -0.7869    0.1101    0.1205 C   0  0  0  0  0  0  0  0  0  0  0  0
   -0.7280    0.9820    1.3173 C   0  0  0  0  0  0  0  0  0  0  0  0
   -2.1686    1.3737    1.6570 C   0  0  0  0  0  0  0  0  0  0  0  0
    0.0985    2.0565    1.1597 O   0  0  0  0  0  0  0  0  0  0  0  0
    1.2338   -1.2746    0.2678 O   0  0  0  0  0  0  0  0  0  0  0  0
    2.6141   -1.0612    0.0504 C   0  0  0  0  0  0  0  0  0  0  0  0
   -0.6710   -2.4858   -3.3312 H   0  0  0  0  0  0  0  0  0  0  0  0
    1.0762    0.3799   -0.9845 H   0  0  0  0  0  0  0  0  0  0  0  0
   -1.3013    0.6600   -0.7488 H   0  0  0  0  0  0  0  0  0  0  0  0
   -1.4127   -0.7959    0.3695 H   0  0  0  0  0  0  0  0  0  0  0  0
   -0.4131    0.3241    2.1830 H   0  0  0  0  0  0  0  0  0  0  0  0
   -2.2566    2.4836    1.4481 H   0  0  0  0  0  0  0  0  0  0  0  0
   -2.8752    0.8711    0.9820 H   0  0  0  0  0  0  0  0  0  0  0  0
   -2.4147    1.1876    2.7159 H   0  0  0  0  0  0  0  0  0  0  0  0
    1.0347    1.8188    1.2728 H   0  0  0  0  0  0  0  0  0  0  0  0
    2.7971   -1.1826   -1.0223 H   0  0  0  0  0  0  0  0  0  0  0  0
    3.1889   -1.7575    0.6897 H   0  0  0  0  0  0  0  0  0  0  0  0
    2.9057   -0.0399    0.3925 H   0  0  0  0  0  0  0  0  0  0  0  0
  1  2  3  0
  2  3  1  0
  3  4  1  0
  4  5  1  0
  5  6  1  0
  5  7  1  0
  3  8  1  0
  8  9  1  0
  1 10  1  0
  3 11  1  0
  4 12  1  0
  4 13  1  0
  5 14  1  0
  6 15  1  0
  6 16  1  0
  6 17  1  0
  7 18  1  0
  9 19  1  0
  9 20  1  0
  9 21  1  0
M  END
