
     RDKit          3D

 17 16  0  0  0  0  0  0  0  0999 V2000
   -3.5501   -0.1371    1.4610 C   0  0  0  0  0  0  0  0  0  0  0  0
   -2.4550   -0.4810    1.0952 C   0  0  0  0  0  0  0  0  0  0  0  0
   -1.1189   -0.9026    0.6231 C   0  0  0  0  0  0  0  0  0  0  0  0
   -0.6019    0.1278   -0.3423 C   0  0  0  0  0  0  0  0  0  0  0  0
   -0.5437    1.4007    0.4209 C   0  0  0  0  0  0  0  0  0  0  0  0
   -0.5076    2.4356    1.0378 C   0  0  0  0  0  0  0  0  0  0  0  0
    0.7660   -0.2556   -0.7588 C   0  0  0  0  0  0  0  0  0  0  0  0
    1.8856   -0.5517   -1.0860 C   0  0  0  0  0  0  0  0  0  0  0  0
    3.2651   -0.8996   -1.5008 C   0  0  0  0  0  0  0  0  0  0  0  0
   -4.5203    0.1505    1.7766 H   0  0  0  0  0  0  0  0  0  0  0  0
   -1.2613   -1.8572    0.0540 H   0  0  0  0  0  0  0  0  0  0  0  0
   -0.4776   -1.0942    1.4790 H   0  0  0  0  0  0  0  0  0  0  0  0
   -1.2956    0.1805   -1.1947 H   0  0  0  0  0  0  0  0  0  0  0  0
   -0.4573    3.3561    1.5827 H   0  0  0  0  0  0  0  0  0  0  0  0
    3.7001   -0.0881   -2.0964 H   0  0  0  0  0  0  0  0  0  0  0  0
    3.3192   -1.8880   -1.9879 H   0  0  0  0  0  0  0  0  0  0  0  0
    3.8534   -0.9948   -0.5633 H   0  0  0  0  0  0  0  0  0  0  0  0
  1  2  3  0
  2  3  1  0
  3  4  1  0
  4  5  1  0
  5  6  3  0
  4  7  1  0
  7  8  3  0
  8  9  1  0
  1 10  1  0
  3 11  1  0
  3 12  1  0
  4 13  1  0
  6 14  1  0
  9 15  1  0
  9 16  1  0
  9 17  1  0
M  END
