
     RDKit          3D

 15 17  0  0  0  0  0  0  0  0999 V2000
    2.9885    0.1218    1.7179 C   0  0  0  0  0  0  0  0  0  0  0  0
    1.9063    0.1628    1.1657 C   0  0  0  0  0  0  0  0  0  0  0  0
    0.6382    0.2190    0.4918 C   0  0  0  0  0  0  0  0  0  0  0  0
   -0.1880    1.2383    0.3287 C   0  0  0  0  0  0  0  0  0  0  0  0
   -1.3967    0.8361   -0.4395 C   0  0  0  0  0  0  0  0  0  0  0  0
   -1.0914    0.6258   -1.7579 O   0  0  0  0  0  0  0  0  0  0  0  0
   -0.6356   -0.6598   -1.4924 C   0  0  0  0  0  0  0  0  0  0  0  0
    0.0274   -0.9665   -0.1932 C   0  0  0  0  0  0  0  0  0  0  0  0
   -1.3744   -0.6509   -0.2373 C   0  0  0  0  0  0  0  0  0  0  0  0
    3.9465    0.0835    2.1860 H   0  0  0  0  0  0  0  0  0  0  0  0
    0.0491    2.2303    0.7346 H   0  0  0  0  0  0  0  0  0  0  0  0
   -2.3192    1.3652   -0.1960 H   0  0  0  0  0  0  0  0  0  0  0  0
   -0.8170   -1.4325   -2.2288 H   0  0  0  0  0  0  0  0  0  0  0  0
    0.4929   -1.9394   -0.1095 H   0  0  0  0  0  0  0  0  0  0  0  0
   -2.2266   -1.2339    0.0297 H   0  0  0  0  0  0  0  0  0  0  0  0
  1  2  3  0
  2  3  1  0
  3  4  2  0
  4  5  1  0
  5  6  1  0
  6  7  1  0
  7  8  1  0
  8  9  1  0
  8  3  1  0
  9  5  1  0
  9  7  1  0
  1 10  1  0
  4 11  1  0
  5 12  1  0
  7 13  1  0
  8 14  1  0
  9 15  1  0
M  END
