
     RDKit          3D

 17 18  0  0  0  0  0  0  0  0999 V2000
    2.4282    1.5873    0.8110 C   0  0  0  0  0  0  0  0  0  0  0  0
    1.5830    0.7978    0.4915 C   0  0  0  0  0  0  0  0  0  0  0  0
    0.6675   -0.0268    0.1496 C   0  0  0  0  0  0  0  0  0  0  0  0
   -0.6663    1.0335    0.2043 C   0  0  0  0  0  0  0  0  0  0  0  0
   -1.5476    0.5822   -0.5524 C   0  0  0  0  0  0  0  0  0  0  0  0
   -1.2198   -0.8860   -0.8156 C   0  0  0  0  0  0  0  0  0  0  0  0
    0.2570   -0.6021   -1.1600 C   0  0  0  0  0  0  0  0  0  0  0  0
   -1.1384   -1.5563    0.3790 O   0  0  0  0  0  0  0  0  0  0  0  0
   -0.0463   -1.0581    1.0857 C   0  0  0  0  0  0  0  0  0  0  0  0
    3.2578    2.3910    1.1277 H   0  0  0  0  0  0  0  0  0  0  0  0
   -0.5669    1.7760    0.9258 H   0  0  0  0  0  0  0  0  0  0  0  0
   -2.4737    1.0648   -0.9501 H   0  0  0  0  0  0  0  0  0  0  0  0
   -1.7679   -1.2906   -1.6266 H   0  0  0  0  0  0  0  0  0  0  0  0
    0.7565   -1.5591   -1.4563 H   0  0  0  0  0  0  0  0  0  0  0  0
    0.2534    0.1272   -2.0084 H   0  0  0  0  0  0  0  0  0  0  0  0
   -0.4451   -0.5294    1.9710 H   0  0  0  0  0  0  0  0  0  0  0  0
    0.6685   -1.8515    1.4237 H   0  0  0  0  0  0  0  0  0  0  0  0
  1  2  3  0
  2  3  1  0
  3  4  1  0
  4  5  2  0
  5  6  1  0
  6  7  1  0
  6  8  1  0
  8  9  1  0
  7  3  1  0
  9  3  1  0
  1 10  1  0
  4 11  1  0
  5 12  1  0
  6 13  1  0
  7 14  1  0
  7 15  1  0
  9 16  1  0
  9 17  1  0
M  END
