
     RDKit          3D

 19 20  0  0  0  0  0  0  0  0999 V2000
    2.0671    2.0557   -0.2103 C   0  0  0  0  0  0  0  0  0  0  0  0
    1.4093    1.0711    0.0054 C   0  0  0  0  0  0  0  0  0  0  0  0
    0.6199   -0.1099    0.2793 C   0  0  0  0  0  0  0  0  0  0  0  0
    1.2445   -1.4098    0.6296 C   0  0  0  0  0  0  0  0  0  0  0  0
    0.7430   -1.2048   -0.7362 C   0  0  0  0  0  0  0  0  0  0  0  0
   -0.6520   -1.4750   -1.1278 C   0  0  0  0  0  0  0  0  0  0  0  0
   -1.5213   -0.8026   -0.4029 C   0  0  0  0  0  0  0  0  0  0  0  0
   -0.8204    0.0482    0.6178 C   0  0  0  0  0  0  0  0  0  0  0  0
   -1.3092    1.4670    0.6057 C   0  0  0  0  0  0  0  0  0  0  0  0
    2.6434    2.9257   -0.4124 H   0  0  0  0  0  0  0  0  0  0  0  0
    2.3340   -1.3934    0.7630 H   0  0  0  0  0  0  0  0  0  0  0  0
    0.7260   -2.0906    1.3382 H   0  0  0  0  0  0  0  0  0  0  0  0
    1.4960   -1.0845   -1.5687 H   0  0  0  0  0  0  0  0  0  0  0  0
   -0.9455   -2.1509   -1.9236 H   0  0  0  0  0  0  0  0  0  0  0  0
   -2.6051   -0.8470   -0.5163 H   0  0  0  0  0  0  0  0  0  0  0  0
   -1.0033   -0.4466    1.5963 H   0  0  0  0  0  0  0  0  0  0  0  0
   -0.5343    2.2023    0.3187 H   0  0  0  0  0  0  0  0  0  0  0  0
   -1.6720    1.7149    1.6465 H   0  0  0  0  0  0  0  0  0  0  0  0
   -2.2200    1.5302   -0.0297 H   0  0  0  0  0  0  0  0  0  0  0  0
  1  2  3  0
  2  3  1  0
  3  4  1  0
  4  5  1  0
  5  6  1  0
  6  7  2  0
  7  8  1  0
  8  9  1  0
  5  3  1  0
  8  3  1  0
  1 10  1  0
  4 11  1  0
  4 12  1  0
  5 13  1  0
  6 14  1  0
  7 15  1  0
  8 16  1  0
  9 17  1  0
  9 18  1  0
  9 19  1  0
M  END
