
     RDKit          3D

 12 11  0  0  0  0  0  0  0  0999 V2000
    1.8890   -0.7474   -1.5581 C   0  0  0  0  0  0  0  0  0  0  0  0
    1.4125   -0.1533   -0.5928 C   0  0  0  0  0  0  0  0  0  0  0  0
    0.8341    0.5675    0.5374 C   0  0  0  0  0  0  0  0  0  0  0  0
   -0.6362    0.7287    0.3297 C   0  0  0  0  0  0  0  0  0  0  0  0
   -1.5852   -0.3980    0.3657 C   0  0  0  0  0  0  0  0  0  0  0  0
   -1.0672    1.8483    0.1173 O   0  0  0  0  0  0  0  0  0  0  0  0
    2.3058   -1.2512   -2.4125 H   0  0  0  0  0  0  0  0  0  0  0  0
    1.0371   -0.0056    1.4765 H   0  0  0  0  0  0  0  0  0  0  0  0
    1.2929    1.5707    0.5983 H   0  0  0  0  0  0  0  0  0  0  0  0
   -1.5694   -0.8992    1.3710 H   0  0  0  0  0  0  0  0  0  0  0  0
   -1.3178   -1.2113   -0.3427 H   0  0  0  0  0  0  0  0  0  0  0  0
   -2.5955   -0.0490    0.1101 H   0  0  0  0  0  0  0  0  0  0  0  0
  1  2  3  0
  2  3  1  0
  3  4  1  0
  4  5  1  0
  4  6  2  0
  1  7  1  0
  3  8  1  0
  3  9  1  0
  5 10  1  0
  5 11  1  0
  5 12  1  0
M  END
