
     RDKit          3D

 17 17  0  0  0  0  0  0  0  0999 V2000
    3.7575   -0.0901    0.1799 C   0  0  0  0  0  0  0  0  0  0  0  0
    2.5463   -0.1198    0.2051 C   0  0  0  0  0  0  0  0  0  0  0  0
    1.1103   -0.1485    0.2223 C   0  0  0  0  0  0  0  0  0  0  0  0
    0.4958    0.0906   -0.9280 C   0  0  0  0  0  0  0  0  0  0  0  0
   -0.9463    0.1134   -1.1481 C   0  0  0  0  0  0  0  0  0  0  0  0
   -1.9248    0.2148   -0.2905 C   0  0  0  0  0  0  0  0  0  0  0  0
   -1.9292    0.3404    1.1772 C   0  0  0  0  0  0  0  0  0  0  0  0
   -0.7495   -0.2168    1.8489 C   0  0  0  0  0  0  0  0  0  0  0  0
    0.5073   -0.4390    1.5110 C   0  0  0  0  0  0  0  0  0  0  0  0
    4.8289   -0.0563    0.1626 H   0  0  0  0  0  0  0  0  0  0  0  0
    1.1093    0.2888   -1.7914 H   0  0  0  0  0  0  0  0  0  0  0  0
   -1.2297    0.0331   -2.1878 H   0  0  0  0  0  0  0  0  0  0  0  0
   -2.9158    0.2059   -0.7291 H   0  0  0  0  0  0  0  0  0  0  0  0
   -2.8290   -0.2276    1.5554 H   0  0  0  0  0  0  0  0  0  0  0  0
   -2.0726    1.4189    1.4401 H   0  0  0  0  0  0  0  0  0  0  0  0
   -0.9436   -0.5293    2.8849 H   0  0  0  0  0  0  0  0  0  0  0  0
    1.1852   -0.8786    2.2361 H   0  0  0  0  0  0  0  0  0  0  0  0
  1  2  3  0
  2  3  1  0
  3  4  2  0
  4  5  1  0
  5  6  2  0
  6  7  1  0
  7  8  1  0
  8  9  2  0
  9  3  1  0
  1 10  1  0
  4 11  1  0
  5 12  1  0
  6 13  1  0
  7 14  1  0
  7 15  1  0
  8 16  1  0
  9 17  1  0
M  END
