
     RDKit          3D

 21 21  0  0  0  0  0  0  0  0999 V2000
    2.4115   -0.0063    2.1933 C   0  0  0  0  0  0  0  0  0  0  0  0
    1.4266    0.4826    1.8799 C   0  0  0  0  0  0  0  0  0  0  0  0
    0.1131    1.1472    1.4349 C   0  0  0  0  0  0  0  0  0  0  0  0
    0.4368    2.1436    0.3334 C   0  0  0  0  0  0  0  0  0  0  0  0
   -0.7770    1.7096   -0.2728 O   0  0  0  0  0  0  0  0  0  0  0  0
   -0.4549    0.4500    0.2734 C   0  0  0  0  0  0  0  0  0  0  0  0
    0.4146   -0.3961   -0.5766 C   0  0  0  0  0  0  0  0  0  0  0  0
   -0.5065   -0.9492   -1.6805 C   0  0  0  0  0  0  0  0  0  0  0  0
   -1.6271   -1.8038   -1.1051 C   0  0  0  0  0  0  0  0  0  0  0  0
    3.3455   -0.4582    2.4947 H   0  0  0  0  0  0  0  0  0  0  0  0
   -0.4864    1.4948    2.2474 H   0  0  0  0  0  0  0  0  0  0  0  0
    0.3358    3.2010    0.6418 H   0  0  0  0  0  0  0  0  0  0  0  0
    1.3336    1.8681   -0.2106 H   0  0  0  0  0  0  0  0  0  0  0  0
   -1.4096   -0.0678    0.4931 H   0  0  0  0  0  0  0  0  0  0  0  0
    0.6731   -1.2937    0.0374 H   0  0  0  0  0  0  0  0  0  0  0  0
    1.3057    0.0422   -1.0004 H   0  0  0  0  0  0  0  0  0  0  0  0
    0.0968   -1.4749   -2.4171 H   0  0  0  0  0  0  0  0  0  0  0  0
   -1.0029   -0.0551   -2.1738 H   0  0  0  0  0  0  0  0  0  0  0  0
   -1.1508   -2.2929   -0.2029 H   0  0  0  0  0  0  0  0  0  0  0  0
   -1.9536   -2.5490   -1.8354 H   0  0  0  0  0  0  0  0  0  0  0  0
   -2.5242   -1.1920   -0.8079 H   0  0  0  0  0  0  0  0  0  0  0  0
  1  2  3  0
  2  3  1  0
  3  4  1  0
  4  5  1  0
  5  6  1  0
  6  7  1  0
  7  8  1  0
  8  9  1  0
  6  3  1  0
  1 10  1  0
  3 11  1  0
  4 12  1  0
  4 13  1  0
  6 14  1  0
  7 15  1  0
  7 16  1  0
  8 17  1  0
  8 18  1  0
  9 19  1  0
  9 20  1  0
  9 21  1  0
M  END
