
     RDKit          3D

 17 18  0  0  0  0  0  0  0  0999 V2000
    2.3446    2.6002    0.8929 C   0  0  0  0  0  0  0  0  0  0  0  0
    1.6643    1.8698    0.1351 C   0  0  0  0  0  0  0  0  0  0  0  0
    0.8722    0.9820   -0.7755 C   0  0  0  0  0  0  0  0  0  0  0  0
    1.3468   -0.3003   -0.9358 O   0  0  0  0  0  0  0  0  0  0  0  0
    0.0977   -0.0906   -0.2058 C   0  0  0  0  0  0  0  0  0  0  0  0
    0.2532   -0.5705    1.2166 C   0  0  0  0  0  0  0  0  0  0  0  0
   -1.1746   -0.4533   -0.9401 C   0  0  0  0  0  0  0  0  0  0  0  0
   -1.9562   -1.6860   -0.6130 C   0  0  0  0  0  0  0  0  0  0  0  0
   -2.3752   -0.2885   -0.2587 O   0  0  0  0  0  0  0  0  0  0  0  0
    2.8849    3.1637    1.4697 H   0  0  0  0  0  0  0  0  0  0  0  0
    0.5292    1.4821   -1.6768 H   0  0  0  0  0  0  0  0  0  0  0  0
    1.2863   -0.3918    1.6002 H   0  0  0  0  0  0  0  0  0  0  0  0
   -0.4426   -0.0515    1.9237 H   0  0  0  0  0  0  0  0  0  0  0  0
    0.0338   -1.6510    1.2999 H   0  0  0  0  0  0  0  0  0  0  0  0
   -1.1419   -0.2189   -2.0335 H   0  0  0  0  0  0  0  0  0  0  0  0
   -1.5824   -2.2664    0.2427 H   0  0  0  0  0  0  0  0  0  0  0  0
   -2.6399   -2.1287   -1.3416 H   0  0  0  0  0  0  0  0  0  0  0  0
  1  2  3  0
  2  3  1  0
  3  4  1  0
  4  5  1  0
  5  6  1  0
  5  7  1  0
  7  8  1  0
  8  9  1  0
  5  3  1  0
  9  7  1  0
  1 10  1  0
  3 11  1  0
  6 12  1  0
  6 13  1  0
  6 14  1  0
  7 15  1  0
  8 16  1  0
  8 17  1  0
M  END
