
     RDKit          3D

 23 23  0  0  0  0  0  0  0  0999 V2000
    0.0691    2.5563   -0.9353 C   0  0  0  0  0  0  0  0  0  0  0  0
    0.3673    1.4987   -0.5887 C   0  0  0  0  0  0  0  0  0  0  0  0
    0.7368    0.2516   -0.1608 C   0  0  0  0  0  0  0  0  0  0  0  0
    1.2400   -0.5406   -1.3723 C   0  0  0  0  0  0  0  0  0  0  0  0
    1.6709    0.2799    0.9642 C   0  0  0  0  0  0  0  0  0  0  0  0
   -0.5785   -0.4772    0.2128 C   0  0  0  0  0  0  0  0  0  0  0  0
   -1.4487   -0.6529   -1.0453 C   0  0  0  0  0  0  0  0  0  0  0  0
   -1.2944    0.1585    1.4241 C   0  0  0  0  0  0  0  0  0  0  0  0
   -0.8539   -1.2528    1.3837 C   0  0  0  0  0  0  0  0  0  0  0  0
   -0.2993    3.8057   -1.3569 H   0  0  0  0  0  0  0  0  0  0  0  0
    0.7554   -0.0797   -2.2940 H   0  0  0  0  0  0  0  0  0  0  0  0
    1.0068   -1.6064   -1.2302 H   0  0  0  0  0  0  0  0  0  0  0  0
    2.3150   -0.3979   -1.4498 H   0  0  0  0  0  0  0  0  0  0  0  0
    2.7979    0.2072    0.5583 H   0  0  0  0  0  0  0  0  0  0  0  0
    1.5729   -0.5250    1.7377 H   0  0  0  0  0  0  0  0  0  0  0  0
    1.6933    1.2457    1.5394 H   0  0  0  0  0  0  0  0  0  0  0  0
   -1.5503    0.2888   -1.5827 H   0  0  0  0  0  0  0  0  0  0  0  0
   -0.9264   -1.3932   -1.7165 H   0  0  0  0  0  0  0  0  0  0  0  0
   -2.4395   -1.0446   -0.7421 H   0  0  0  0  0  0  0  0  0  0  0  0
   -0.7513    0.9412    2.0207 H   0  0  0  0  0  0  0  0  0  0  0  0
   -2.3450    0.3989    1.2838 H   0  0  0  0  0  0  0  0  0  0  0  0
   -1.6766   -2.0109    1.2644 H   0  0  0  0  0  0  0  0  0  0  0  0
   -0.0615   -1.6512    2.0856 H   0  0  0  0  0  0  0  0  0  0  0  0
  1  2  3  0
  2  3  1  0
  3  4  1  0
  3  5  1  0
  3  6  1  0
  6  7  1  0
  6  8  1  0
  8  9  1  0
  9  6  1  0
  1 10  1  0
  4 11  1  0
  4 12  1  0
  4 13  1  0
  5 14  1  0
  5 15  1  0
  5 16  1  0
  7 17  1  0
  7 18  1  0
  7 19  1  0
  8 20  1  0
  8 21  1  0
  9 22  1  0
  9 23  1  0
M  END
