
     RDKit          3D

 17 17  0  0  0  0  0  0  0  0999 V2000
   -2.1195   -0.6598    2.0940 C   0  0  0  0  0  0  0  0  0  0  0  0
   -1.7186   -0.5857    1.1205 C   0  0  0  0  0  0  0  0  0  0  0  0
   -1.1737   -0.4855   -0.2702 C   0  0  0  0  0  0  0  0  0  0  0  0
   -0.5707    0.8065   -0.6448 C   0  0  0  0  0  0  0  0  0  0  0  0
    0.7682    0.8412   -0.3917 C   0  0  0  0  0  0  0  0  0  0  0  0
    1.4084    2.0925   -0.7127 C   0  0  0  0  0  0  0  0  0  0  0  0
    2.8075    1.8485   -0.3614 O   0  0  0  0  0  0  0  0  0  0  0  0
    1.1957   -0.4268    0.1103 C   0  0  0  0  0  0  0  0  0  0  0  0
    0.0725   -1.3690   -0.4119 C   0  0  0  0  0  0  0  0  0  0  0  0
   -2.5452   -0.7407    3.0950 H   0  0  0  0  0  0  0  0  0  0  0  0
   -1.9204   -0.8144   -0.9677 H   0  0  0  0  0  0  0  0  0  0  0  0
   -1.0974    1.6825   -1.0779 H   0  0  0  0  0  0  0  0  0  0  0  0
    1.3198    2.9830   -1.0203 H   0  0  0  0  0  0  0  0  0  0  0  0
    1.2445   -0.4761    1.1822 H   0  0  0  0  0  0  0  0  0  0  0  0
    2.1462   -0.8478   -0.3492 H   0  0  0  0  0  0  0  0  0  0  0  0
    0.2584   -1.5488   -1.4772 H   0  0  0  0  0  0  0  0  0  0  0  0
   -0.0755   -2.2997    0.0832 H   0  0  0  0  0  0  0  0  0  0  0  0
  1  2  3  0
  2  3  1  0
  3  4  1  0
  4  5  2  0
  5  6  1  0
  6  7  2  0
  5  8  1  0
  8  9  1  0
  9  3  1  0
  1 10  1  0
  3 11  1  0
  4 12  1  0
  6 13  1  0
  8 14  1  0
  8 15  1  0
  9 16  1  0
  9 17  1  0
M  END
