
     RDKit          3D

 14 14  0  0  0  0  0  0  0  0999 V2000
    0.9919    1.0346    2.2138 C   0  0  0  0  0  0  0  0  0  0  0  0
    0.6236    0.5730    1.1318 C   0  0  0  0  0  0  0  0  0  0  0  0
    0.2110    0.0618   -0.1172 C   0  0  0  0  0  0  0  0  0  0  0  0
    1.0511    0.3510   -1.2696 C   0  0  0  0  0  0  0  0  0  0  0  0
    2.2595    0.4823   -1.1730 O   0  0  0  0  0  0  0  0  0  0  0  0
   -1.2946    0.2879   -0.3194 C   0  0  0  0  0  0  0  0  0  0  0  0
   -1.4452   -0.7771    0.6232 O   0  0  0  0  0  0  0  0  0  0  0  0
   -0.3721   -1.3550   -0.0841 C   0  0  0  0  0  0  0  0  0  0  0  0
    1.3332    1.4630    3.1776 H   0  0  0  0  0  0  0  0  0  0  0  0
    0.5488    0.4482   -2.2532 H   0  0  0  0  0  0  0  0  0  0  0  0
   -1.6594    1.2345    0.0386 H   0  0  0  0  0  0  0  0  0  0  0  0
   -1.6818   -0.1123   -1.2748 H   0  0  0  0  0  0  0  0  0  0  0  0
    0.2030   -2.1162    0.4183 H   0  0  0  0  0  0  0  0  0  0  0  0
   -0.7689   -1.5757   -1.1120 H   0  0  0  0  0  0  0  0  0  0  0  0
  1  2  3  0
  2  3  1  0
  3  4  1  0
  4  5  2  0
  3  6  1  0
  6  7  1  0
  7  8  1  0
  8  3  1  0
  1  9  1  0
  4 10  1  0
  6 11  1  0
  6 12  1  0
  8 13  1  0
  8 14  1  0
M  END
