
     RDKit          3D

 17 19  0  0  0  0  0  0  0  0999 V2000
    3.5024   -0.2558    0.8469 C   0  0  0  0  0  0  0  0  0  0  0  0
    2.3245   -0.1279    0.8757 C   0  0  0  0  0  0  0  0  0  0  0  0
    0.8709    0.0455    0.9228 C   0  0  0  0  0  0  0  0  0  0  0  0
    0.2780    0.8767   -0.1495 C   0  0  0  0  0  0  0  0  0  0  0  0
   -1.1870    1.2117   -0.1043 C   0  0  0  0  0  0  0  0  0  0  0  0
   -1.8208    0.2570   -1.0535 C   0  0  0  0  0  0  0  0  0  0  0  0
   -1.3905   -0.6883    0.0205 C   0  0  0  0  0  0  0  0  0  0  0  0
   -1.6245    0.3582    0.9377 O   0  0  0  0  0  0  0  0  0  0  0  0
    0.1112   -0.6852   -0.1075 C   0  0  0  0  0  0  0  0  0  0  0  0
    4.5393   -0.3537    0.8306 H   0  0  0  0  0  0  0  0  0  0  0  0
    0.4664    0.1762    1.9296 H   0  0  0  0  0  0  0  0  0  0  0  0
    0.9401    1.2779   -0.9097 H   0  0  0  0  0  0  0  0  0  0  0  0
   -1.4964    2.2317   -0.0615 H   0  0  0  0  0  0  0  0  0  0  0  0
   -1.3094    0.1315   -2.0335 H   0  0  0  0  0  0  0  0  0  0  0  0
   -2.9014    0.2883   -1.1752 H   0  0  0  0  0  0  0  0  0  0  0  0
   -1.9047   -1.6073    0.1733 H   0  0  0  0  0  0  0  0  0  0  0  0
    0.6019   -1.1842   -0.9424 H   0  0  0  0  0  0  0  0  0  0  0  0
  1  2  3  0
  2  3  1  0
  3  4  1  0
  4  5  1  0
  5  6  1  0
  6  7  1  0
  7  8  1  0
  7  9  1  0
  9  3  1  0
  9  4  1  0
  8  5  1  0
  1 10  1  0
  3 11  1  0
  4 12  1  0
  5 13  1  0
  6 14  1  0
  6 15  1  0
  7 16  1  0
  9 17  1  0
M  END
