
     RDKit          3D

 15 16  0  0  0  0  0  0  0  0999 V2000
    2.7847    1.2742    1.7401 C   0  0  0  0  0  0  0  0  0  0  0  0
    1.4494    1.1429    0.9847 C   0  0  0  0  0  0  0  0  0  0  0  0
    0.1335    0.9972    0.2471 C   0  0  0  0  0  0  0  0  0  0  0  0
    0.1416   -0.6057    0.2533 C   0  0  0  0  0  0  0  0  0  0  0  0
   -0.0256   -1.3675   -0.9884 C   0  0  0  0  0  0  0  0  0  0  0  0
   -1.0770   -0.9927   -1.7286 C   0  0  0  0  0  0  0  0  0  0  0  0
   -1.6920    0.1480   -0.9070 C   0  0  0  0  0  0  0  0  0  0  0  0
   -2.5947    0.8432   -1.4890 O   0  0  0  0  0  0  0  0  0  0  0  0
   -1.0419    0.1895    0.3799 C   0  0  0  0  0  0  0  0  0  0  0  0
    3.5876    1.3630    2.2090 H   0  0  0  0  0  0  0  0  0  0  0  0
    0.3257    1.4192   -0.8370 H   0  0  0  0  0  0  0  0  0  0  0  0
    0.4654   -1.2139    1.1878 H   0  0  0  0  0  0  0  0  0  0  0  0
    0.6111   -2.1423   -1.4337 H   0  0  0  0  0  0  0  0  0  0  0  0
   -1.4509   -1.3018   -2.6300 H   0  0  0  0  0  0  0  0  0  0  0  0
   -1.6168    0.2466    1.3834 H   0  0  0  0  0  0  0  0  0  0  0  0
  1  2  3  0
  2  3  1  0
  3  4  1  0
  4  5  1  0
  5  6  2  0
  6  7  1  0
  7  8  2  0
  7  9  1  0
  9  3  1  0
  9  4  1  0
  1 10  1  0
  3 11  1  0
  4 12  1  0
  5 13  1  0
  6 14  1  0
  9 15  1  0
M  END
