
     RDKit          3D

 19 20  0  0  0  0  0  0  0  0999 V2000
    3.1520    0.5799    0.9178 C   0  0  0  0  0  0  0  0  0  0  0  0
    2.0051    0.4173    0.5937 C   0  0  0  0  0  0  0  0  0  0  0  0
    0.6747    0.2304    0.1993 C   0  0  0  0  0  0  0  0  0  0  0  0
   -0.2186    1.4112   -0.0236 C   0  0  0  0  0  0  0  0  0  0  0  0
   -1.5230    0.6518   -0.3513 C   0  0  0  0  0  0  0  0  0  0  0  0
   -1.0231   -0.7541   -0.2395 C   0  0  0  0  0  0  0  0  0  0  0  0
   -1.7999   -1.7971   -0.4575 O   0  0  0  0  0  0  0  0  0  0  0  0
   -0.2045   -0.6906    1.0575 C   0  0  0  0  0  0  0  0  0  0  0  0
    0.3434   -0.6826   -0.9371 C   0  0  0  0  0  0  0  0  0  0  0  0
    4.1766    0.7298    1.2265 H   0  0  0  0  0  0  0  0  0  0  0  0
    0.0511    1.9862   -0.9474 H   0  0  0  0  0  0  0  0  0  0  0  0
   -0.3582    2.0459    0.8557 H   0  0  0  0  0  0  0  0  0  0  0  0
   -2.2619    0.8123    0.4634 H   0  0  0  0  0  0  0  0  0  0  0  0
   -1.8955    0.9189   -1.3407 H   0  0  0  0  0  0  0  0  0  0  0  0
   -1.7699   -2.2573   -1.3134 H   0  0  0  0  0  0  0  0  0  0  0  0
    0.2699   -1.6651    1.2696 H   0  0  0  0  0  0  0  0  0  0  0  0
   -0.7132   -0.1925    1.8842 H   0  0  0  0  0  0  0  0  0  0  0  0
    0.2225   -0.1129   -1.8726 H   0  0  0  0  0  0  0  0  0  0  0  0
    0.8727   -1.6315   -0.9847 H   0  0  0  0  0  0  0  0  0  0  0  0
  1  2  3  0
  2  3  1  0
  3  4  1  0
  4  5  1  0
  5  6  1  0
  6  7  1  0
  6  8  1  0
  6  9  1  0
  8  3  1  0
  9  3  1  0
  1 10  1  0
  4 11  1  0
  4 12  1  0
  5 13  1  0
  5 14  1  0
  7 15  1  0
  8 16  1  0
  8 17  1  0
  9 18  1  0
  9 19  1  0
M  END
