
     RDKit          3D

 16 16  0  0  0  0  0  0  0  0999 V2000
    3.2356   -0.1659    0.9700 C   0  0  0  0  0  0  0  0  0  0  0  0
    2.1746    0.1771    0.5045 C   0  0  0  0  0  0  0  0  0  0  0  0
    0.8869    0.6202   -0.0642 C   0  0  0  0  0  0  0  0  0  0  0  0
    0.1942   -0.4149   -0.9060 C   0  0  0  0  0  0  0  0  0  0  0  0
   -0.8764   -0.4724    0.1441 C   0  0  0  0  0  0  0  0  0  0  0  0
   -2.2144   -0.0636   -0.4613 C   0  0  0  0  0  0  0  0  0  0  0  0
   -0.2273    0.6142    0.9122 C   0  0  0  0  0  0  0  0  0  0  0  0
   -0.5155    1.2250    1.9207 O   0  0  0  0  0  0  0  0  0  0  0  0
    4.1771   -0.4584    1.3872 H   0  0  0  0  0  0  0  0  0  0  0  0
    1.0026    1.5609   -0.6397 H   0  0  0  0  0  0  0  0  0  0  0  0
    0.7954   -1.3448   -0.9890 H   0  0  0  0  0  0  0  0  0  0  0  0
   -0.1383   -0.0521   -1.9034 H   0  0  0  0  0  0  0  0  0  0  0  0
   -0.9717   -1.4389    0.6627 H   0  0  0  0  0  0  0  0  0  0  0  0
   -2.5184   -0.8047   -1.2201 H   0  0  0  0  0  0  0  0  0  0  0  0
   -2.9869    0.1069    0.3167 H   0  0  0  0  0  0  0  0  0  0  0  0
   -2.0175    0.9112   -0.9763 H   0  0  0  0  0  0  0  0  0  0  0  0
  1  2  3  0
  2  3  1  0
  3  4  1  0
  4  5  1  0
  5  6  1  0
  5  7  1  0
  7  8  2  0
  7  3  1  0
  1  9  1  0
  3 10  1  0
  4 11  1  0
  4 12  1  0
  5 13  1  0
  6 14  1  0
  6 15  1  0
  6 16  1  0
M  END
