
     RDKit          3D

 23 22  0  0  0  0  0  0  0  0999 V2000
    4.1681    0.7411   -2.3684 C   0  0  0  0  0  0  0  0  0  0  0  0
    3.2809    0.8244   -1.4069 C   0  0  0  0  0  0  0  0  0  0  0  0
    2.3474    0.8890   -0.4028 C   0  0  0  0  0  0  0  0  0  0  0  0
    1.2415   -0.1650   -0.3054 C   0  0  0  0  0  0  0  0  0  0  0  0
    0.4923   -0.2544   -1.5123 O   0  0  0  0  0  0  0  0  0  0  0  0
    0.1215    0.5410    0.5975 C   0  0  0  0  0  0  0  0  0  0  0  0
   -0.9943   -0.4869    0.6477 C   0  0  0  0  0  0  0  0  0  0  0  0
   -2.1773    0.0903    1.3685 C   0  0  0  0  0  0  0  0  0  0  0  0
   -3.2638   -0.9366    1.5096 C   0  0  0  0  0  0  0  0  0  0  0  0
    4.7838    0.6706   -3.0509 H   0  0  0  0  0  0  0  0  0  0  0  0
    2.8750    0.7044    0.6482 H   0  0  0  0  0  0  0  0  0  0  0  0
    1.8798    1.8983   -0.2163 H   0  0  0  0  0  0  0  0  0  0  0  0
    1.4121   -1.0760    0.2031 H   0  0  0  0  0  0  0  0  0  0  0  0
    0.2493   -1.2440   -1.6080 H   0  0  0  0  0  0  0  0  0  0  0  0
   -0.1249    1.4742    0.1375 H   0  0  0  0  0  0  0  0  0  0  0  0
    0.6229    0.6505    1.5676 H   0  0  0  0  0  0  0  0  0  0  0  0
   -0.5877   -1.4039    1.1073 H   0  0  0  0  0  0  0  0  0  0  0  0
   -1.2819   -0.7506   -0.3941 H   0  0  0  0  0  0  0  0  0  0  0  0
   -2.5647    0.9535    0.7171 H   0  0  0  0  0  0  0  0  0  0  0  0
   -1.9584    0.5460    2.3383 H   0  0  0  0  0  0  0  0  0  0  0  0
   -4.1609   -0.5136    1.9854 H   0  0  0  0  0  0  0  0  0  0  0  0
   -3.4462   -1.3579    0.4797 H   0  0  0  0  0  0  0  0  0  0  0  0
   -2.9145   -1.7942    2.1470 H   0  0  0  0  0  0  0  0  0  0  0  0
  1  2  3  0
  2  3  1  0
  3  4  1  0
  4  5  1  0
  4  6  1  0
  6  7  1  0
  7  8  1  0
  8  9  1  0
  1 10  1  0
  3 11  1  0
  3 12  1  0
  4 13  1  0
  5 14  1  0
  6 15  1  0
  6 16  1  0
  7 17  1  0
  7 18  1  0
  8 19  1  0
  8 20  1  0
  9 21  1  0
  9 22  1  0
  9 23  1  0
M  END
