
     RDKit          3D

 13 14  0  0  0  0  0  0  0  0999 V2000
    2.4479   -1.2785    0.1429 C   0  0  0  0  0  0  0  0  0  0  0  0
    1.5993   -0.4885   -0.1749 C   0  0  0  0  0  0  0  0  0  0  0  0
    0.5608    0.4718   -0.5854 C   0  0  0  0  0  0  0  0  0  0  0  0
    0.6995    1.7468    0.0623 O   0  0  0  0  0  0  0  0  0  0  0  0
   -0.2820    1.4348    0.9861 C   0  0  0  0  0  0  0  0  0  0  0  0
   -0.6158    1.9570    2.0721 O   0  0  0  0  0  0  0  0  0  0  0  0
   -0.6945    0.3193    0.1649 C   0  0  0  0  0  0  0  0  0  0  0  0
   -1.5566   -0.7079    0.3680 C   0  0  0  0  0  0  0  0  0  0  0  0
   -1.9452    0.4021   -0.5433 O   0  0  0  0  0  0  0  0  0  0  0  0
    3.1998   -1.9908    0.4098 H   0  0  0  0  0  0  0  0  0  0  0  0
    0.3943    0.5386   -1.6747 H   0  0  0  0  0  0  0  0  0  0  0  0
   -1.5636   -1.6359   -0.2338 H   0  0  0  0  0  0  0  0  0  0  0  0
   -2.2441   -0.7688    1.2386 H   0  0  0  0  0  0  0  0  0  0  0  0
  1  2  3  0
  2  3  1  0
  3  4  1  0
  4  5  1  0
  5  6  2  0
  5  7  1  0
  7  8  1  0
  8  9  1  0
  7  3  1  0
  9  7  1  0
  1 10  1  0
  3 11  1  0
  8 12  1  0
  8 13  1  0
M  END
