
     RDKit          3D

 17 18  0  0  0  0  0  0  0  0999 V2000
    2.2740   -1.9144   -0.5710 C   0  0  0  0  0  0  0  0  0  0  0  0
    1.6707   -0.9256   -0.2458 C   0  0  0  0  0  0  0  0  0  0  0  0
    0.9501    0.2777    0.1252 C   0  0  0  0  0  0  0  0  0  0  0  0
   -0.0048   -0.0217    1.2980 C   0  0  0  0  0  0  0  0  0  0  0  0
   -1.2938    0.3902    0.6497 C   0  0  0  0  0  0  0  0  0  0  0  0
   -1.1888   -0.3517   -0.6928 C   0  0  0  0  0  0  0  0  0  0  0  0
   -0.0686    0.6678   -0.9050 C   0  0  0  0  0  0  0  0  0  0  0  0
   -0.9344    1.6038   -0.1323 C   0  0  0  0  0  0  0  0  0  0  0  0
   -1.1500    2.7933   -0.2152 O   0  0  0  0  0  0  0  0  0  0  0  0
    2.8120   -2.7761   -0.8720 H   0  0  0  0  0  0  0  0  0  0  0  0
    1.5826    1.1167    0.4227 H   0  0  0  0  0  0  0  0  0  0  0  0
    0.2633    0.5930    2.1822 H   0  0  0  0  0  0  0  0  0  0  0  0
   -0.0131   -1.1032    1.4969 H   0  0  0  0  0  0  0  0  0  0  0  0
   -2.2090    0.3452    1.1693 H   0  0  0  0  0  0  0  0  0  0  0  0
   -0.8410   -1.3787   -0.4894 H   0  0  0  0  0  0  0  0  0  0  0  0
   -2.0636   -0.2255   -1.3277 H   0  0  0  0  0  0  0  0  0  0  0  0
    0.2146    0.9092   -1.8929 H   0  0  0  0  0  0  0  0  0  0  0  0
  1  2  3  0
  2  3  1  0
  3  4  1  0
  4  5  1  0
  5  6  1  0
  6  7  1  0
  7  8  1  0
  8  9  2  0
  7  3  1  0
  8  5  1  0
  1 10  1  0
  3 11  1  0
  4 12  1  0
  4 13  1  0
  5 14  1  0
  6 15  1  0
  6 16  1  0
  7 17  1  0
M  END
