
     RDKit          3D

 11 10  0  0  0  0  0  0  0  0999 V2000
    0.4800    2.7266    0.2654 C   0  0  0  0  0  0  0  0  0  0  0  0
    0.0836    1.4236    0.0949 C   0  0  0  0  0  0  0  0  0  0  0  0
   -0.2739    0.1929   -0.0816 C   0  0  0  0  0  0  0  0  0  0  0  0
   -1.2589   -0.5355   -0.2968 C   0  0  0  0  0  0  0  0  0  0  0  0
   -2.4042   -1.3833   -0.5402 C   0  0  0  0  0  0  0  0  0  0  0  0
    0.7988   -0.6679    0.1870 C   0  0  0  0  0  0  0  0  0  0  0  0
    1.9360   -1.5529    0.4832 C   0  0  0  0  0  0  0  0  0  0  0  0
    0.7903    3.6946    0.4025 H   0  0  0  0  0  0  0  0  0  0  0  0
    0.1444    0.2925   -1.4880 H   0  0  0  0  0  0  0  0  0  0  0  0
   -3.1572   -1.9363   -0.7148 H   0  0  0  0  0  0  0  0  0  0  0  0
    2.8611   -2.2543    0.7119 H   0  0  0  0  0  0  0  0  0  0  0  0
  1  2  3  0
  2  3  1  0
  3  4  1  0
  4  5  3  0
  3  6  1  0
  6  7  3  0
  1  8  1  0
  3  9  1  0
  5 10  1  0
  7 11  1  0
M  END
