
     RDKit          3D

 14 14  0  0  0  0  0  0  0  0999 V2000
    2.4991   -0.2527    0.5932 C   0  0  0  0  0  0  0  0  0  0  0  0
    1.3860   -0.7130    0.8216 C   0  0  0  0  0  0  0  0  0  0  0  0
    0.0942   -1.2704    1.1018 C   0  0  0  0  0  0  0  0  0  0  0  0
    0.0198   -2.2349    1.9243 O   0  0  0  0  0  0  0  0  0  0  0  0
   -1.1306   -0.7760    0.4828 C   0  0  0  0  0  0  0  0  0  0  0  0
   -1.0230   -0.9125   -0.9954 O   0  0  0  0  0  0  0  0  0  0  0  0
   -1.2544    0.3778   -0.3305 C   0  0  0  0  0  0  0  0  0  0  0  0
   -0.1450    1.3283   -0.6164 C   0  0  0  0  0  0  0  0  0  0  0  0
    3.4612    0.1372    0.3856 H   0  0  0  0  0  0  0  0  0  0  0  0
   -2.0820   -1.3016    0.7820 H   0  0  0  0  0  0  0  0  0  0  0  0
   -2.2770    0.7726   -0.5580 H   0  0  0  0  0  0  0  0  0  0  0  0
    0.6325    0.9092   -1.2846 H   0  0  0  0  0  0  0  0  0  0  0  0
    0.3371    1.6508    0.3421 H   0  0  0  0  0  0  0  0  0  0  0  0
   -0.5178    2.2850   -1.0931 H   0  0  0  0  0  0  0  0  0  0  0  0
  1  2  3  0
  2  3  1  0
  3  4  2  0
  3  5  1  0
  5  6  1  0
  6  7  1  0
  7  8  1  0
  7  5  1  0
  1  9  1  0
  5 10  1  0
  7 11  1  0
  8 12  1  0
  8 13  1  0
  8 14  1  0
M  END
