
     RDKit          3D

 18 19  0  0  0  0  0  0  0  0999 V2000
    2.4896   -1.9682    0.6698 C   0  0  0  0  0  0  0  0  0  0  0  0
    1.4972   -1.2946    0.6369 C   0  0  0  0  0  0  0  0  0  0  0  0
    0.3136   -0.4770    0.5960 C   0  0  0  0  0  0  0  0  0  0  0  0
    0.2766    0.5746   -0.4886 C   0  0  0  0  0  0  0  0  0  0  0  0
    0.5792    1.9620   -0.0482 C   0  0  0  0  0  0  0  0  0  0  0  0
   -1.1213    0.2424   -0.8538 C   0  0  0  0  0  0  0  0  0  0  0  0
   -2.1332   -0.2444    0.0817 C   0  0  0  0  0  0  0  0  0  0  0  0
   -0.9055   -1.0799   -0.0467 C   0  0  0  0  0  0  0  0  0  0  0  0
    3.3584   -2.5653    0.6814 H   0  0  0  0  0  0  0  0  0  0  0  0
    0.0265   -0.0983    1.6193 H   0  0  0  0  0  0  0  0  0  0  0  0
    0.9905    0.2607   -1.3023 H   0  0  0  0  0  0  0  0  0  0  0  0
   -0.2941    2.5877    0.1738 H   0  0  0  0  0  0  0  0  0  0  0  0
    1.1760    1.8989    0.8979 H   0  0  0  0  0  0  0  0  0  0  0  0
    1.2196    2.5161   -0.7933 H   0  0  0  0  0  0  0  0  0  0  0  0
   -1.3327    0.1000   -1.9445 H   0  0  0  0  0  0  0  0  0  0  0  0
   -3.0472   -0.6799   -0.3157 H   0  0  0  0  0  0  0  0  0  0  0  0
   -2.2405    0.2385    1.0943 H   0  0  0  0  0  0  0  0  0  0  0  0
   -0.8529   -1.9732   -0.6581 H   0  0  0  0  0  0  0  0  0  0  0  0
  1  2  3  0
  2  3  1  0
  3  4  1  0
  4  5  1  0
  4  6  1  0
  6  7  1  0
  7  8  1  0
  8  3  1  0
  8  6  1  0
  1  9  1  0
  3 10  1  0
  4 11  1  0
  5 12  1  0
  5 13  1  0
  5 14  1  0
  6 15  1  0
  7 16  1  0
  7 17  1  0
  8 18  1  0
M  END
