
     RDKit          3D

 16 16  0  0  0  0  0  0  0  0999 V2000
    2.8766    0.0957   -0.3264 C   0  0  0  0  0  0  0  0  0  0  0  0
    1.6775    0.0856   -0.2026 C   0  0  0  0  0  0  0  0  0  0  0  0
    0.2405    0.0810   -0.0783 C   0  0  0  0  0  0  0  0  0  0  0  0
   -0.4078    1.2743   -0.7489 C   0  0  0  0  0  0  0  0  0  0  0  0
   -0.2575   -0.1529    1.3515 C   0  0  0  0  0  0  0  0  0  0  0  0
   -1.4062   -0.9022    0.6626 C   0  0  0  0  0  0  0  0  0  0  0  0
   -0.4496   -1.1809   -0.4351 C   0  0  0  0  0  0  0  0  0  0  0  0
   -0.2955   -2.0498   -1.2588 O   0  0  0  0  0  0  0  0  0  0  0  0
    3.9494    0.1212   -0.4283 H   0  0  0  0  0  0  0  0  0  0  0  0
    0.2798    2.1470   -0.8182 H   0  0  0  0  0  0  0  0  0  0  0  0
   -1.3176    1.6093   -0.2109 H   0  0  0  0  0  0  0  0  0  0  0  0
   -0.7511    0.9511   -1.7548 H   0  0  0  0  0  0  0  0  0  0  0  0
   -0.5586    0.7472    1.8865 H   0  0  0  0  0  0  0  0  0  0  0  0
    0.3741   -0.8818    1.8619 H   0  0  0  0  0  0  0  0  0  0  0  0
   -2.1850   -0.1892    0.3090 H   0  0  0  0  0  0  0  0  0  0  0  0
   -1.7689   -1.7557    1.2345 H   0  0  0  0  0  0  0  0  0  0  0  0
  1  2  3  0
  2  3  1  0
  3  4  1  0
  3  5  1  0
  5  6  1  0
  6  7  1  0
  7  8  2  0
  7  3  1  0
  1  9  1  0
  4 10  1  0
  4 11  1  0
  4 12  1  0
  5 13  1  0
  5 14  1  0
  6 15  1  0
  6 16  1  0
M  END
