
     RDKit          3D

 21 21  0  0  0  0  0  0  0  0999 V2000
   -0.6326    2.7765   -0.7405 C   0  0  0  0  0  0  0  0  0  0  0  0
   -0.6819    1.6795   -0.2923 C   0  0  0  0  0  0  0  0  0  0  0  0
   -0.7183    0.6412    0.1321 C   0  0  0  0  0  0  0  0  0  0  0  0
   -2.0530   -0.2091    0.1732 C   0  0  0  0  0  0  0  0  0  0  0  0
    0.4329   -0.3827    0.0130 C   0  0  0  0  0  0  0  0  0  0  0  0
    1.7091    0.2660    0.5682 C   0  0  0  0  0  0  0  0  0  0  0  0
    1.9191    1.3946   -0.2583 O   0  0  0  0  0  0  0  0  0  0  0  0
    0.5297   -1.4808   -0.8918 C   0  0  0  0  0  0  0  0  0  0  0  0
    0.1890   -1.7104    0.6000 C   0  0  0  0  0  0  0  0  0  0  0  0
   -0.5821    3.9971   -1.2482 H   0  0  0  0  0  0  0  0  0  0  0  0
   -0.6768    0.6642    1.4445 H   0  0  0  0  0  0  0  0  0  0  0  0
   -1.8564   -1.2454   -0.0558 H   0  0  0  0  0  0  0  0  0  0  0  0
   -2.6744    0.2158   -0.6782 H   0  0  0  0  0  0  0  0  0  0  0  0
   -2.5821   -0.0050    1.0961 H   0  0  0  0  0  0  0  0  0  0  0  0
    2.6138   -0.3510    0.5084 H   0  0  0  0  0  0  0  0  0  0  0  0
    1.5652    0.6718    1.5732 H   0  0  0  0  0  0  0  0  0  0  0  0
    1.7138    1.1848   -1.1963 H   0  0  0  0  0  0  0  0  0  0  0  0
   -0.1987   -1.8208   -1.6489 H   0  0  0  0  0  0  0  0  0  0  0  0
    1.5900   -1.8789   -1.1071 H   0  0  0  0  0  0  0  0  0  0  0  0
   -0.6546   -2.3394    0.7229 H   0  0  0  0  0  0  0  0  0  0  0  0
    1.0485   -2.0682    1.2858 H   0  0  0  0  0  0  0  0  0  0  0  0
  1  2  3  0
  2  3  1  0
  3  4  1  0
  3  5  1  0
  5  6  1  0
  6  7  1  0
  5  8  1  0
  8  9  1  0
  9  5  1  0
  1 10  1  0
  3 11  1  0
  4 12  1  0
  4 13  1  0
  4 14  1  0
  6 15  1  0
  6 16  1  0
  7 17  1  0
  8 18  1  0
  8 19  1  0
  9 20  1  0
  9 21  1  0
M  END
