
     RDKit          3D

 19 19  0  0  0  0  0  0  0  0999 V2000
   -0.8258    2.7651   -0.3646 C   0  0  0  0  0  0  0  0  0  0  0  0
   -0.7957    1.8273    0.1559 C   0  0  0  0  0  0  0  0  0  0  0  0
   -0.7331    0.5808    0.8609 C   0  0  0  0  0  0  0  0  0  0  0  0
   -1.2431    0.5360    2.2052 C   0  0  0  0  0  0  0  0  0  0  0  0
   -0.7939   -0.5399    2.9621 O   0  0  0  0  0  0  0  0  0  0  0  0
   -1.3160   -0.5558   -0.0160 C   0  0  0  0  0  0  0  0  0  0  0  0
    0.1557   -0.4789    0.2731 C   0  0  0  0  0  0  0  0  0  0  0  0
    1.1202   -0.1688   -0.8077 C   0  0  0  0  0  0  0  0  0  0  0  0
    1.8249   -1.4647   -1.2343 C   0  0  0  0  0  0  0  0  0  0  0  0
   -0.8694    3.8827   -1.0060 H   0  0  0  0  0  0  0  0  0  0  0  0
   -1.8412    1.0191    2.8804 H   0  0  0  0  0  0  0  0  0  0  0  0
   -1.7578   -0.2611   -0.9420 H   0  0  0  0  0  0  0  0  0  0  0  0
   -1.9306   -1.3035    0.5260 H   0  0  0  0  0  0  0  0  0  0  0  0
    0.4987   -1.3200    1.0060 H   0  0  0  0  0  0  0  0  0  0  0  0
    0.6373    0.2450   -1.7551 H   0  0  0  0  0  0  0  0  0  0  0  0
    1.9312    0.5162   -0.5961 H   0  0  0  0  0  0  0  0  0  0  0  0
    1.3309   -1.8140   -2.1915 H   0  0  0  0  0  0  0  0  0  0  0  0
    1.7490   -2.2453   -0.4942 H   0  0  0  0  0  0  0  0  0  0  0  0
    2.8587   -1.2201   -1.4622 H   0  0  0  0  0  0  0  0  0  0  0  0
  1  2  3  0
  2  3  1  0
  3  4  1  0
  4  5  2  0
  3  6  1  0
  6  7  1  0
  7  8  1  0
  8  9  1  0
  7  3  1  0
  1 10  1  0
  4 11  1  0
  6 12  1  0
  6 13  1  0
  7 14  1  0
  8 15  1  0
  8 16  1  0
  9 17  1  0
  9 18  1  0
  9 19  1  0
M  END
