
     RDKit          3D

 18 19  0  0  0  0  0  0  0  0999 V2000
    1.9475    0.4673    2.7484 C   0  0  0  0  0  0  0  0  0  0  0  0
    1.1646   -0.0828    2.0994 C   0  0  0  0  0  0  0  0  0  0  0  0
    0.1991   -0.7904    1.2969 C   0  0  0  0  0  0  0  0  0  0  0  0
   -0.1770   -0.1529    0.1483 C   0  0  0  0  0  0  0  0  0  0  0  0
   -0.7774    1.1511   -0.1588 C   0  0  0  0  0  0  0  0  0  0  0  0
   -0.7168    0.4664   -1.5132 C   0  0  0  0  0  0  0  0  0  0  0  0
   -1.2632   -0.7216   -0.7978 C   0  0  0  0  0  0  0  0  0  0  0  0
    0.6329   -0.0174   -1.1090 C   0  0  0  0  0  0  0  0  0  0  0  0
    2.7095    1.0264    3.3945 H   0  0  0  0  0  0  0  0  0  0  0  0
   -0.5713   -1.2699    1.9286 H   0  0  0  0  0  0  0  0  0  0  0  0
    0.8044   -1.7578    0.9714 H   0  0  0  0  0  0  0  0  0  0  0  0
   -0.1623    2.0761   -0.0574 H   0  0  0  0  0  0  0  0  0  0  0  0
   -1.8376    1.3283    0.1273 H   0  0  0  0  0  0  0  0  0  0  0  0
   -1.0320    0.8706   -2.3763 H   0  0  0  0  0  0  0  0  0  0  0  0
   -1.0473   -1.6990   -1.2173 H   0  0  0  0  0  0  0  0  0  0  0  0
   -2.2401   -0.6483   -0.2815 H   0  0  0  0  0  0  0  0  0  0  0  0
    1.3919    0.7622   -1.1080 H   0  0  0  0  0  0  0  0  0  0  0  0
    0.9750   -1.0081   -1.5090 H   0  0  0  0  0  0  0  0  0  0  0  0
  1  2  3  0
  2  3  1  0
  3  4  1  0
  4  5  1  0
  5  6  1  0
  6  7  1  0
  6  8  1  0
  7  4  1  0
  8  4  1  0
  1  9  1  0
  3 10  1  0
  3 11  1  0
  5 12  1  0
  5 13  1  0
  6 14  1  0
  7 15  1  0
  7 16  1  0
  8 17  1  0
  8 18  1  0
M  END
