
     RDKit          3D

 15 17  0  0  0  0  0  0  0  0999 V2000
    2.6244    1.8663    0.6401 C   0  0  0  0  0  0  0  0  0  0  0  0
    1.6235    1.1985    0.5726 C   0  0  0  0  0  0  0  0  0  0  0  0
    0.4328    0.4138    0.4690 C   0  0  0  0  0  0  0  0  0  0  0  0
   -0.5913    0.5016    1.3986 O   0  0  0  0  0  0  0  0  0  0  0  0
   -1.6166   -0.1386    0.7152 C   0  0  0  0  0  0  0  0  0  0  0  0
   -0.9416   -1.4719    0.3542 C   0  0  0  0  0  0  0  0  0  0  0  0
    0.3140   -0.8351   -0.2752 C   0  0  0  0  0  0  0  0  0  0  0  0
   -0.2734    0.3440   -0.9047 C   0  0  0  0  0  0  0  0  0  0  0  0
   -1.5955    0.4871   -0.5078 O   0  0  0  0  0  0  0  0  0  0  0  0
    3.5001    2.4692    0.7068 H   0  0  0  0  0  0  0  0  0  0  0  0
   -2.5458   -0.2364    1.2162 H   0  0  0  0  0  0  0  0  0  0  0  0
   -0.7036   -2.0661    1.2306 H   0  0  0  0  0  0  0  0  0  0  0  0
   -1.4722   -1.9880   -0.4526 H   0  0  0  0  0  0  0  0  0  0  0  0
    1.0960   -1.4493   -0.6667 H   0  0  0  0  0  0  0  0  0  0  0  0
    0.1493    0.9050   -1.7256 H   0  0  0  0  0  0  0  0  0  0  0  0
  1  2  3  0
  2  3  1  0
  3  4  1  0
  4  5  1  0
  5  6  1  0
  6  7  1  0
  7  8  1  0
  8  9  1  0
  7  3  1  0
  8  3  1  0
  9  5  1  0
  1 10  1  0
  5 11  1  0
  6 12  1  0
  6 13  1  0
  7 14  1  0
  8 15  1  0
M  END
