
     RDKit          3D

 20 19  0  0  0  0  0  0  0  0999 V2000
    3.5200   -2.5721    0.2750 C   0  0  0  0  0  0  0  0  0  0  0  0
    2.7896   -1.6115    0.1229 C   0  0  0  0  0  0  0  0  0  0  0  0
    1.8871   -0.4641   -0.0702 C   0  0  0  0  0  0  0  0  0  0  0  0
    0.6749   -0.8999   -0.3997 O   0  0  0  0  0  0  0  0  0  0  0  0
   -0.3547   -0.0929   -0.6382 C   0  0  0  0  0  0  0  0  0  0  0  0
   -0.8326    0.8263    0.4167 C   0  0  0  0  0  0  0  0  0  0  0  0
   -1.2806    0.0663    1.6513 C   0  0  0  0  0  0  0  0  0  0  0  0
   -2.0745    1.5418   -0.1050 C   0  0  0  0  0  0  0  0  0  0  0  0
    4.1523   -3.4163    0.3908 H   0  0  0  0  0  0  0  0  0  0  0  0
    1.9865    0.2287    0.7762 H   0  0  0  0  0  0  0  0  0  0  0  0
    2.3235    0.0951   -0.9513 H   0  0  0  0  0  0  0  0  0  0  0  0
   -0.1389    0.5081   -1.5639 H   0  0  0  0  0  0  0  0  0  0  0  0
   -1.2364   -0.7267   -0.9315 H   0  0  0  0  0  0  0  0  0  0  0  0
   -0.1432    1.6031    0.7445 H   0  0  0  0  0  0  0  0  0  0  0  0
   -1.6917   -0.9311    1.3871 H   0  0  0  0  0  0  0  0  0  0  0  0
   -0.4585   -0.0025    2.3895 H   0  0  0  0  0  0  0  0  0  0  0  0
   -2.0879    0.6487    2.1425 H   0  0  0  0  0  0  0  0  0  0  0  0
   -2.8383    0.8184   -0.4558 H   0  0  0  0  0  0  0  0  0  0  0  0
   -1.7352    2.1091   -1.0058 H   0  0  0  0  0  0  0  0  0  0  0  0
   -2.4613    2.2718    0.6139 H   0  0  0  0  0  0  0  0  0  0  0  0
  1  2  3  0
  2  3  1  0
  3  4  1  0
  4  5  1  0
  5  6  1  0
  6  7  1  0
  6  8  1  0
  1  9  1  0
  3 10  1  0
  3 11  1  0
  5 12  1  0
  5 13  1  0
  6 14  1  0
  7 15  1  0
  7 16  1  0
  7 17  1  0
  8 18  1  0
  8 19  1  0
  8 20  1  0
M  END
