
     RDKit          3D

 16 17  0  0  0  0  0  0  0  0999 V2000
    3.2564   -0.0544    0.2457 C   0  0  0  0  0  0  0  0  0  0  0  0
    2.0841    0.1786    0.4329 C   0  0  0  0  0  0  0  0  0  0  0  0
    0.6725    0.4409    0.6398 C   0  0  0  0  0  0  0  0  0  0  0  0
   -0.0073    0.9075   -0.6634 C   0  0  0  0  0  0  0  0  0  0  0  0
   -0.7769   -0.3211   -0.9624 C   0  0  0  0  0  0  0  0  0  0  0  0
   -2.0184   -0.8348   -0.5615 C   0  0  0  0  0  0  0  0  0  0  0  0
   -1.2319   -0.4892    0.5470 C   0  0  0  0  0  0  0  0  0  0  0  0
    0.0261   -0.7810    0.9720 O   0  0  0  0  0  0  0  0  0  0  0  0
    4.2928   -0.2646    0.0984 H   0  0  0  0  0  0  0  0  0  0  0  0
    0.4653    1.1512    1.4593 H   0  0  0  0  0  0  0  0  0  0  0  0
   -0.7056    1.7217   -0.3886 H   0  0  0  0  0  0  0  0  0  0  0  0
    0.7189    1.1629   -1.4322 H   0  0  0  0  0  0  0  0  0  0  0  0
   -0.0336   -1.1016   -1.3262 H   0  0  0  0  0  0  0  0  0  0  0  0
   -2.9425   -0.2569   -0.8103 H   0  0  0  0  0  0  0  0  0  0  0  0
   -2.2505   -1.9307   -0.7164 H   0  0  0  0  0  0  0  0  0  0  0  0
   -1.5493    0.4716    1.0639 H   0  0  0  0  0  0  0  0  0  0  0  0
  1  2  3  0
  2  3  1  0
  3  4  1  0
  4  5  1  0
  5  6  1  0
  6  7  1  0
  7  8  1  0
  8  3  1  0
  7  5  1  0
  1  9  1  0
  3 10  1  0
  4 11  1  0
  4 12  1  0
  5 13  1  0
  6 14  1  0
  6 15  1  0
  7 16  1  0
M  END
