
     RDKit          3D

 19 20  0  0  0  0  0  0  0  0999 V2000
    2.2590    0.3510    1.7391 C   0  0  0  0  0  0  0  0  0  0  0  0
    1.3908   -0.2800    1.1412 C   0  0  0  0  0  0  0  0  0  0  0  0
    0.3311   -1.0506    0.4357 C   0  0  0  0  0  0  0  0  0  0  0  0
    0.8566   -1.7784   -0.6794 C   0  0  0  0  0  0  0  0  0  0  0  0
    0.1085   -0.6396   -1.0821 C   0  0  0  0  0  0  0  0  0  0  0  0
   -0.1524    0.6695   -0.4036 C   0  0  0  0  0  0  0  0  0  0  0  0
   -1.1291    1.5744   -1.1229 C   0  0  0  0  0  0  0  0  0  0  0  0
   -0.9532   -0.2675    0.5284 C   0  0  0  0  0  0  0  0  0  0  0  0
   -1.1573    0.3241    1.7399 O   0  0  0  0  0  0  0  0  0  0  0  0
    2.9890    0.9018    2.2553 H   0  0  0  0  0  0  0  0  0  0  0  0
    0.4968   -2.8496   -0.7626 H   0  0  0  0  0  0  0  0  0  0  0  0
    1.9543   -1.7720   -0.9598 H   0  0  0  0  0  0  0  0  0  0  0  0
   -0.9068   -0.9643   -1.4929 H   0  0  0  0  0  0  0  0  0  0  0  0
    0.6539    1.2242    0.0382 H   0  0  0  0  0  0  0  0  0  0  0  0
   -0.7212    2.5856   -1.2957 H   0  0  0  0  0  0  0  0  0  0  0  0
   -2.0338    1.7330   -0.4636 H   0  0  0  0  0  0  0  0  0  0  0  0
   -1.4380    1.0648   -2.0651 H   0  0  0  0  0  0  0  0  0  0  0  0
   -1.7973   -0.6631   -0.0264 H   0  0  0  0  0  0  0  0  0  0  0  0
   -0.7509   -0.1634    2.4764 H   0  0  0  0  0  0  0  0  0  0  0  0
  1  2  3  0
  2  3  1  0
  3  4  1  0
  4  5  1  0
  5  6  1  0
  6  7  1  0
  6  8  1  0
  8  9  1  0
  5  3  1  0
  8  3  1  0
  1 10  1  0
  4 11  1  0
  4 12  1  0
  5 13  1  0
  6 14  1  0
  7 15  1  0
  7 16  1  0
  7 17  1  0
  8 18  1  0
  9 19  1  0
M  END
