
     RDKit          3D

 16 16  0  0  0  0  0  0  0  0999 V2000
    2.7691    0.5667   -0.8240 C   0  0  0  0  0  0  0  0  0  0  0  0
    1.9413    0.5726    0.0388 C   0  0  0  0  0  0  0  0  0  0  0  0
    0.9159    0.5938    1.0993 C   0  0  0  0  0  0  0  0  0  0  0  0
    0.1953    1.9348    1.0315 O   0  0  0  0  0  0  0  0  0  0  0  0
   -0.4474    0.7378    0.8481 C   0  0  0  0  0  0  0  0  0  0  0  0
   -1.1166    0.4280   -0.4664 C   0  0  0  0  0  0  0  0  0  0  0  0
   -0.9653   -1.0004   -0.8757 C   0  0  0  0  0  0  0  0  0  0  0  0
   -1.5084   -1.8743    0.1015 O   0  0  0  0  0  0  0  0  0  0  0  0
    3.5415    0.5480   -1.6222 H   0  0  0  0  0  0  0  0  0  0  0  0
    1.3174    0.4590    2.1356 H   0  0  0  0  0  0  0  0  0  0  0  0
   -1.1719    0.5246    1.7003 H   0  0  0  0  0  0  0  0  0  0  0  0
   -0.6144    1.1149   -1.2088 H   0  0  0  0  0  0  0  0  0  0  0  0
   -2.1931    0.7262   -0.4931 H   0  0  0  0  0  0  0  0  0  0  0  0
    0.1054   -1.2913   -0.9555 H   0  0  0  0  0  0  0  0  0  0  0  0
   -1.3985   -1.2257   -1.8647 H   0  0  0  0  0  0  0  0  0  0  0  0
   -1.3702   -2.8147   -0.2355 H   0  0  0  0  0  0  0  0  0  0  0  0
  1  2  3  0
  2  3  1  0
  3  4  1  0
  4  5  1  0
  5  6  1  0
  6  7  1  0
  7  8  1  0
  5  3  1  0
  1  9  1  0
  3 10  1  0
  5 11  1  0
  6 12  1  0
  6 13  1  0
  7 14  1  0
  7 15  1  0
  8 16  1  0
M  END
