
     RDKit          3D

 15 15  0  0  0  0  0  0  0  0999 V2000
    3.5888   -0.3608   -0.4852 C   0  0  0  0  0  0  0  0  0  0  0  0
    2.3940   -0.1335   -0.4383 C   0  0  0  0  0  0  0  0  0  0  0  0
    0.9771    0.1313   -0.3758 C   0  0  0  0  0  0  0  0  0  0  0  0
   -0.0128   -0.7347   -0.2732 C   0  0  0  0  0  0  0  0  0  0  0  0
   -1.3152   -0.0386   -0.2412 C   0  0  0  0  0  0  0  0  0  0  0  0
   -2.0936   -0.3225    1.0213 C   0  0  0  0  0  0  0  0  0  0  0  0
   -0.9675    1.3204   -0.3364 O   0  0  0  0  0  0  0  0  0  0  0  0
    0.4038    1.4674   -0.4194 C   0  0  0  0  0  0  0  0  0  0  0  0
    1.0248    2.5576   -0.5144 O   0  0  0  0  0  0  0  0  0  0  0  0
    4.6293   -0.5578   -0.5079 H   0  0  0  0  0  0  0  0  0  0  0  0
    0.1876   -1.8124   -0.2238 H   0  0  0  0  0  0  0  0  0  0  0  0
   -1.8693   -0.3676   -1.1521 H   0  0  0  0  0  0  0  0  0  0  0  0
   -2.8925   -1.0839    0.8452 H   0  0  0  0  0  0  0  0  0  0  0  0
   -2.6342    0.6154    1.2880 H   0  0  0  0  0  0  0  0  0  0  0  0
   -1.4205   -0.6802    1.8131 H   0  0  0  0  0  0  0  0  0  0  0  0
  1  2  3  0
  2  3  1  0
  3  4  2  0
  4  5  1  0
  5  6  1  0
  5  7  1  0
  7  8  1  0
  8  9  2  0
  8  3  1  0
  1 10  1  0
  4 11  1  0
  5 12  1  0
  6 13  1  0
  6 14  1  0
  6 15  1  0
M  END
