
     RDKit          3D

 15 14  0  0  0  0  0  0  0  0999 V2000
    4.8001    0.6522   -0.0042 C   0  0  0  0  0  0  0  0  0  0  0  0
    3.3323    0.0341    0.0084 C   0  0  0  0  0  0  0  0  0  0  0  0
    2.5664   -0.2814    0.0280 C   0  0  0  0  0  0  0  0  0  0  0  0
    1.2211   -0.8146    0.0603 C   0  0  0  0  0  0  0  0  0  0  0  0
   -0.2570   -1.4181    0.0899 C   0  0  0  0  0  0  0  0  0  0  0  0
   -0.3617   -1.8032   -1.2767 O   0  0  0  0  0  0  0  0  0  0  0  0
   -1.0864   -0.4966    0.3828 C   0  0  0  0  0  0  0  0  0  0  0  0
   -1.9360    0.4401    0.6855 C   0  0  0  0  0  0  0  0  0  0  0  0
   -2.9408    1.5216    1.0597 C   0  0  0  0  0  0  0  0  0  0  0  0
    5.6744    1.0344   -0.0010 H   0  0  0  0  0  0  0  0  0  0  0  0
   -0.0989   -2.3185    0.6797 H   0  0  0  0  0  0  0  0  0  0  0  0
   -1.3617   -1.6341   -1.4843 H   0  0  0  0  0  0  0  0  0  0  0  0
   -2.5633    2.4440    0.7055 H   0  0  0  0  0  0  0  0  0  0  0  0
   -3.9250    1.1962    0.6356 H   0  0  0  0  0  0  0  0  0  0  0  0
   -3.0637    1.4437    2.1765 H   0  0  0  0  0  0  0  0  0  0  0  0
  1  2  3  0
  2  3  1  0
  3  4  3  0
  4  5  1  0
  5  6  1  0
  5  7  1  0
  7  8  3  0
  8  9  1  0
  1 10  1  0
  5 11  1  0
  6 12  1  0
  9 13  1  0
  9 14  1  0
  9 15  1  0
M  END
