
     RDKit          3D

 19 19  0  0  0  0  0  0  0  0999 V2000
    0.1127   -2.6044    1.5348 C   0  0  0  0  0  0  0  0  0  0  0  0
    0.1606   -1.6704    0.6204 C   0  0  0  0  0  0  0  0  0  0  0  0
    0.2053   -0.8018   -0.2079 C   0  0  0  0  0  0  0  0  0  0  0  0
    1.4957    0.0927    0.1298 C   0  0  0  0  0  0  0  0  0  0  0  0
    1.2844    1.1178    0.9287 C   0  0  0  0  0  0  0  0  0  0  0  0
   -0.1860    1.2860    1.3856 C   0  0  0  0  0  0  0  0  0  0  0  0
   -0.7597    1.4064    0.0720 O   0  0  0  0  0  0  0  0  0  0  0  0
   -0.8377    0.2129   -0.5593 C   0  0  0  0  0  0  0  0  0  0  0  0
   -0.8703    0.3791   -2.1033 C   0  0  0  0  0  0  0  0  0  0  0  0
    0.0897   -3.4566    2.3720 H   0  0  0  0  0  0  0  0  0  0  0  0
    0.5605   -1.2079   -1.3334 H   0  0  0  0  0  0  0  0  0  0  0  0
    2.4007   -0.0585   -0.3077 H   0  0  0  0  0  0  0  0  0  0  0  0
    2.0202    1.7806    1.3705 H   0  0  0  0  0  0  0  0  0  0  0  0
   -0.4872    0.3495    1.7942 H   0  0  0  0  0  0  0  0  0  0  0  0
   -0.3301    2.1969    1.8807 H   0  0  0  0  0  0  0  0  0  0  0  0
   -1.8296   -0.2818   -0.2563 H   0  0  0  0  0  0  0  0  0  0  0  0
   -1.6168    1.2321   -2.2886 H   0  0  0  0  0  0  0  0  0  0  0  0
    0.0295    0.5913   -2.5691 H   0  0  0  0  0  0  0  0  0  0  0  0
   -1.4417   -0.5639   -2.4632 H   0  0  0  0  0  0  0  0  0  0  0  0
  1  2  3  0
  2  3  1  0
  3  4  1  0
  4  5  2  0
  5  6  1  0
  6  7  1  0
  7  8  1  0
  8  9  1  0
  8  3  1  0
  1 10  1  0
  3 11  1  0
  4 12  1  0
  5 13  1  0
  6 14  1  0
  6 15  1  0
  8 16  1  0
  9 17  1  0
  9 18  1  0
  9 19  1  0
M  END
