
     RDKit          3D

 17 18  0  0  0  0  0  0  0  0999 V2000
   -3.0507    0.4678   -1.0957 C   0  0  0  0  0  0  0  0  0  0  0  0
   -2.3563   -0.1890   -0.4712 C   0  0  0  0  0  0  0  0  0  0  0  0
   -1.4214   -1.0371    0.3554 C   0  0  0  0  0  0  0  0  0  0  0  0
   -0.2251   -0.2227    0.6764 C   0  0  0  0  0  0  0  0  0  0  0  0
    0.5671    0.2756   -0.4815 C   0  0  0  0  0  0  0  0  0  0  0  0
    1.6925    1.2123   -0.1341 C   0  0  0  0  0  0  0  0  0  0  0  0
    2.3253    0.1073    0.6097 C   0  0  0  0  0  0  0  0  0  0  0  0
    3.3910   -0.0692    1.1507 O   0  0  0  0  0  0  0  0  0  0  0  0
    1.1304   -0.7709    0.4581 C   0  0  0  0  0  0  0  0  0  0  0  0
   -3.7020    1.1045   -1.7042 H   0  0  0  0  0  0  0  0  0  0  0  0
   -1.9318   -1.3174    1.3137 H   0  0  0  0  0  0  0  0  0  0  0  0
   -1.2250   -1.9273   -0.2686 H   0  0  0  0  0  0  0  0  0  0  0  0
   -0.4021    0.5460    1.4819 H   0  0  0  0  0  0  0  0  0  0  0  0
    0.3765   -0.0467   -1.5144 H   0  0  0  0  0  0  0  0  0  0  0  0
    1.3170    2.0732    0.4630 H   0  0  0  0  0  0  0  0  0  0  0  0
    2.2788    1.6128   -0.9857 H   0  0  0  0  0  0  0  0  0  0  0  0
    1.2357   -1.8192    0.1463 H   0  0  0  0  0  0  0  0  0  0  0  0
  1  2  3  0
  2  3  1  0
  3  4  1  0
  4  5  1  0
  5  6  1  0
  6  7  1  0
  7  8  2  0
  7  9  1  0
  9  4  1  0
  9  5  1  0
  1 10  1  0
  3 11  1  0
  3 12  1  0
  4 13  1  0
  5 14  1  0
  6 15  1  0
  6 16  1  0
  9 17  1  0
M  END
