
     RDKit          3D

 19 19  0  0  0  0  0  0  0  0999 V2000
    2.4593    1.8588    0.4740 C   0  0  0  0  0  0  0  0  0  0  0  0
    1.4701    1.1509    0.4047 C   0  0  0  0  0  0  0  0  0  0  0  0
    0.3074    0.3117    0.3473 C   0  0  0  0  0  0  0  0  0  0  0  0
    0.2764   -0.9527    0.0343 C   0  0  0  0  0  0  0  0  0  0  0  0
    1.4152   -1.8553   -0.3424 C   0  0  0  0  0  0  0  0  0  0  0  0
   -1.1333   -1.3940    0.1131 C   0  0  0  0  0  0  0  0  0  0  0  0
   -1.7629   -0.3961    0.8590 O   0  0  0  0  0  0  0  0  0  0  0  0
   -1.0600    0.7581    0.6360 C   0  0  0  0  0  0  0  0  0  0  0  0
   -1.5546    1.5213   -0.5789 C   0  0  0  0  0  0  0  0  0  0  0  0
    3.3220    2.4684    0.5509 H   0  0  0  0  0  0  0  0  0  0  0  0
    2.2996   -1.4519    0.2005 H   0  0  0  0  0  0  0  0  0  0  0  0
    1.1768   -2.8548    0.0708 H   0  0  0  0  0  0  0  0  0  0  0  0
    1.5619   -1.8663   -1.4265 H   0  0  0  0  0  0  0  0  0  0  0  0
   -1.1395   -2.3393    0.7043 H   0  0  0  0  0  0  0  0  0  0  0  0
   -1.5834   -1.5283   -0.8880 H   0  0  0  0  0  0  0  0  0  0  0  0
   -1.1104    1.4093    1.5430 H   0  0  0  0  0  0  0  0  0  0  0  0
   -2.0445    0.8261   -1.2899 H   0  0  0  0  0  0  0  0  0  0  0  0
   -0.7004    1.9731   -1.1449 H   0  0  0  0  0  0  0  0  0  0  0  0
   -2.1996    2.3610   -0.2672 H   0  0  0  0  0  0  0  0  0  0  0  0
  1  2  3  0
  2  3  1  0
  3  4  2  0
  4  5  1  0
  4  6  1  0
  6  7  1  0
  7  8  1  0
  8  9  1  0
  8  3  1  0
  1 10  1  0
  5 11  1  0
  5 12  1  0
  5 13  1  0
  6 14  1  0
  6 15  1  0
  8 16  1  0
  9 17  1  0
  9 18  1  0
  9 19  1  0
M  END
