
     RDKit          3D

 19 20  0  0  0  0  0  0  0  0999 V2000
    2.9841    0.9730   -1.1156 C   0  0  0  0  0  0  0  0  0  0  0  0
    2.0953    0.1771   -0.9051 C   0  0  0  0  0  0  0  0  0  0  0  0
    1.0044   -0.7762   -0.6685 C   0  0  0  0  0  0  0  0  0  0  0  0
    0.2747   -0.3199    0.5520 C   0  0  0  0  0  0  0  0  0  0  0  0
   -0.3045    1.0946    0.3636 C   0  0  0  0  0  0  0  0  0  0  0  0
   -1.7393    0.7458    0.1535 C   0  0  0  0  0  0  0  0  0  0  0  0
   -2.7636    0.6108    0.9461 O   0  0  0  0  0  0  0  0  0  0  0  0
   -1.8233   -0.1387    1.4396 C   0  0  0  0  0  0  0  0  0  0  0  0
   -0.9347   -1.1972    0.8730 C   0  0  0  0  0  0  0  0  0  0  0  0
    3.7657    1.6588   -1.3143 H   0  0  0  0  0  0  0  0  0  0  0  0
    1.4081   -1.7874   -0.4552 H   0  0  0  0  0  0  0  0  0  0  0  0
    0.3931   -0.8364   -1.5696 H   0  0  0  0  0  0  0  0  0  0  0  0
    0.9478   -0.3529    1.4271 H   0  0  0  0  0  0  0  0  0  0  0  0
   -0.0842    1.6602    1.2658 H   0  0  0  0  0  0  0  0  0  0  0  0
    0.0864    1.5458   -0.5748 H   0  0  0  0  0  0  0  0  0  0  0  0
   -1.8655    0.1913   -0.8271 H   0  0  0  0  0  0  0  0  0  0  0  0
   -1.3428    0.3076    2.3650 H   0  0  0  0  0  0  0  0  0  0  0  0
   -0.6980   -1.9702    1.6227 H   0  0  0  0  0  0  0  0  0  0  0  0
   -1.4037   -1.5860   -0.0446 H   0  0  0  0  0  0  0  0  0  0  0  0
  1  2  3  0
  2  3  1  0
  3  4  1  0
  4  5  1  0
  5  6  1  0
  6  7  1  0
  7  8  1  0
  8  9  1  0
  9  4  1  0
  8  6  1  0
  1 10  1  0
  3 11  1  0
  3 12  1  0
  4 13  1  0
  5 14  1  0
  5 15  1  0
  6 16  1  0
  8 17  1  0
  9 18  1  0
  9 19  1  0
M  END
