
     RDKit          3D

 14 15  0  0  0  0  0  0  0  0999 V2000
    2.5165    1.6901    1.4109 C   0  0  0  0  0  0  0  0  0  0  0  0
    1.4888    0.6717    1.1005 C   0  0  0  0  0  0  0  0  0  0  0  0
    0.7485   -0.0408    0.8686 C   0  0  0  0  0  0  0  0  0  0  0  0
    0.9940   -1.2380    0.1099 O   0  0  0  0  0  0  0  0  0  0  0  0
   -0.1009   -1.1631   -0.7151 C   0  0  0  0  0  0  0  0  0  0  0  0
   -1.4141   -0.5506   -0.3747 C   0  0  0  0  0  0  0  0  0  0  0  0
   -2.3524   -0.3940   -1.4074 O   0  0  0  0  0  0  0  0  0  0  0  0
   -0.2299    0.2864   -0.4267 C   0  0  0  0  0  0  0  0  0  0  0  0
    3.3827    2.5368    1.6897 H   0  0  0  0  0  0  0  0  0  0  0  0
   -0.1403   -0.2769    1.6950 H   0  0  0  0  0  0  0  0  0  0  0  0
    0.0124   -1.6076   -1.7461 H   0  0  0  0  0  0  0  0  0  0  0  0
   -1.8192   -0.8670    0.6332 H   0  0  0  0  0  0  0  0  0  0  0  0
   -3.2297   -0.0931   -0.9986 H   0  0  0  0  0  0  0  0  0  0  0  0
    0.1435    1.0460   -1.0935 H   0  0  0  0  0  0  0  0  0  0  0  0
  1  2  3  0
  2  3  1  0
  3  4  1  0
  4  5  1  0
  5  6  1  0
  6  7  1  0
  6  8  1  0
  8  3  1  0
  8  5  1  0
  1  9  1  0
  3 10  1  0
  5 11  1  0
  6 12  1  0
  7 13  1  0
  8 14  1  0
M  END
