
     RDKit          3D

 23 23  0  0  0  0  0  0  0  0999 V2000
   -0.4811    3.4653   -0.4415 C   0  0  0  0  0  0  0  0  0  0  0  0
   -0.1485    2.4540    0.1519 C   0  0  0  0  0  0  0  0  0  0  0  0
    0.2306    1.2254    0.8577 C   0  0  0  0  0  0  0  0  0  0  0  0
    0.7951    0.1300   -0.0367 C   0  0  0  0  0  0  0  0  0  0  0  0
    1.9525   -0.6075    0.5859 C   0  0  0  0  0  0  0  0  0  0  0  0
    2.4862   -1.6862   -0.3293 C   0  0  0  0  0  0  0  0  0  0  0  0
   -0.5531   -0.0355    0.5658 C   0  0  0  0  0  0  0  0  0  0  0  0
   -1.8038    0.2005   -0.2258 C   0  0  0  0  0  0  0  0  0  0  0  0
   -2.5821   -1.0479   -0.5163 C   0  0  0  0  0  0  0  0  0  0  0  0
   -0.7570    4.3468   -0.9685 H   0  0  0  0  0  0  0  0  0  0  0  0
    0.6657    1.3837    1.8551 H   0  0  0  0  0  0  0  0  0  0  0  0
    0.9215    0.3342   -1.1183 H   0  0  0  0  0  0  0  0  0  0  0  0
    2.8059    0.0553    0.8397 H   0  0  0  0  0  0  0  0  0  0  0  0
    1.6561   -1.1100    1.5395 H   0  0  0  0  0  0  0  0  0  0  0  0
    2.0310   -1.5948   -1.3479 H   0  0  0  0  0  0  0  0  0  0  0  0
    3.5901   -1.6175   -0.4699 H   0  0  0  0  0  0  0  0  0  0  0  0
    2.2868   -2.7045    0.0398 H   0  0  0  0  0  0  0  0  0  0  0  0
   -0.6304   -0.7444    1.4249 H   0  0  0  0  0  0  0  0  0  0  0  0
   -1.5717    0.7235   -1.1716 H   0  0  0  0  0  0  0  0  0  0  0  0
   -2.4472    0.9100    0.3661 H   0  0  0  0  0  0  0  0  0  0  0  0
   -2.5583   -1.7811    0.3152 H   0  0  0  0  0  0  0  0  0  0  0  0
   -2.2344   -1.5069   -1.4626 H   0  0  0  0  0  0  0  0  0  0  0  0
   -3.6539   -0.7925   -0.6674 H   0  0  0  0  0  0  0  0  0  0  0  0
  1  2  3  0
  2  3  1  0
  3  4  1  0
  4  5  1  0
  5  6  1  0
  4  7  1  0
  7  8  1  0
  8  9  1  0
  7  3  1  0
  1 10  1  0
  3 11  1  0
  4 12  1  0
  5 13  1  0
  5 14  1  0
  6 15  1  0
  6 16  1  0
  6 17  1  0
  7 18  1  0
  8 19  1  0
  8 20  1  0
  9 21  1  0
  9 22  1  0
  9 23  1  0
M  END
