
     RDKit          3D

 15 16  0  0  0  0  0  0  0  0999 V2000
   -1.8208   -4.3476    0.6677 C   0  0  0  0  0  0  0  0  0  0  0  0
   -1.1990   -2.6747    0.6066 C   0  0  0  0  0  0  0  0  0  0  0  0
   -0.8007   -1.5597    0.5668 C   0  0  0  0  0  0  0  0  0  0  0  0
   -0.4510   -0.5810    0.5216 C   0  0  0  0  0  0  0  0  0  0  0  0
    0.0345    0.7765    0.4531 C   0  0  0  0  0  0  0  0  0  0  0  0
    1.1802    1.4634    0.5884 C   0  0  0  0  0  0  0  0  0  0  0  0
    0.4480    2.0582   -0.6045 C   0  0  0  0  0  0  0  0  0  0  0  0
    0.4491    0.7412   -1.2369 C   0  0  0  0  0  0  0  0  0  0  0  0
   -0.7108    1.7986    0.0437 O   0  0  0  0  0  0  0  0  0  0  0  0
   -2.1020   -5.1026    0.7037 H   0  0  0  0  0  0  0  0  0  0  0  0
    1.2997    2.1674    1.4897 H   0  0  0  0  0  0  0  0  0  0  0  0
    2.1647    1.1117    0.2673 H   0  0  0  0  0  0  0  0  0  0  0  0
    0.6705    2.9355   -1.1001 H   0  0  0  0  0  0  0  0  0  0  0  0
   -0.4955    0.3499   -1.6752 H   0  0  0  0  0  0  0  0  0  0  0  0
    1.3331    0.1167   -1.2919 H   0  0  0  0  0  0  0  0  0  0  0  0
  1  2  3  0
  2  3  1  0
  3  4  3  0
  4  5  1  0
  5  6  1  0
  6  7  1  0
  7  8  1  0
  7  9  1  0
  8  5  1  0
  9  5  1  0
  1 10  1  0
  6 11  1  0
  6 12  1  0
  7 13  1  0
  8 14  1  0
  8 15  1  0
M  END
