
     RDKit          3D

 19 20  0  0  0  0  0  0  0  0999 V2000
    2.8034   -0.2202    0.3411 C   0  0  0  0  0  0  0  0  0  0  0  0
    1.6793    0.2149    0.4199 C   0  0  0  0  0  0  0  0  0  0  0  0
    0.2884    0.7641    0.4937 C   0  0  0  0  0  0  0  0  0  0  0  0
   -0.1837    1.0840   -0.8826 C   0  0  0  0  0  0  0  0  0  0  0  0
   -0.1894   -0.3338   -1.4925 C   0  0  0  0  0  0  0  0  0  0  0  0
   -0.1914   -1.2619   -0.2649 C   0  0  0  0  0  0  0  0  0  0  0  0
   -0.8356   -0.3451    0.6989 C   0  0  0  0  0  0  0  0  0  0  0  0
   -2.1135    0.0053    0.1720 O   0  0  0  0  0  0  0  0  0  0  0  0
   -0.3759    0.4962    1.7175 C   0  0  0  0  0  0  0  0  0  0  0  0
    3.8089   -0.6199    0.2563 H   0  0  0  0  0  0  0  0  0  0  0  0
   -1.1897    1.5391   -0.9369 H   0  0  0  0  0  0  0  0  0  0  0  0
    0.5908    1.6243   -1.4436 H   0  0  0  0  0  0  0  0  0  0  0  0
   -1.1891   -0.4286   -2.0087 H   0  0  0  0  0  0  0  0  0  0  0  0
    0.6679   -0.5241   -2.1317 H   0  0  0  0  0  0  0  0  0  0  0  0
    0.8153   -1.6053   -0.0482 H   0  0  0  0  0  0  0  0  0  0  0  0
   -0.8999   -2.0948   -0.5058 H   0  0  0  0  0  0  0  0  0  0  0  0
   -2.6589    0.3879    0.9122 H   0  0  0  0  0  0  0  0  0  0  0  0
   -1.0356    1.2839    2.1416 H   0  0  0  0  0  0  0  0  0  0  0  0
    0.2087    0.0339    2.5617 H   0  0  0  0  0  0  0  0  0  0  0  0
  1  2  3  0
  2  3  1  0
  3  4  1  0
  4  5  1  0
  5  6  1  0
  6  7  1  0
  7  8  1  0
  7  9  1  0
  7  3  1  0
  9  3  1  0
  1 10  1  0
  4 11  1  0
  4 12  1  0
  5 13  1  0
  5 14  1  0
  6 15  1  0
  6 16  1  0
  8 17  1  0
  9 18  1  0
  9 19  1  0
M  END
