
     RDKit          3D

 19 18  0  0  0  0  0  0  0  0999 V2000
   -1.9961    1.8393    0.5104 C   0  0  0  0  0  0  0  0  0  0  0  0
   -2.2566    0.4224    0.6015 C   0  0  0  0  0  0  0  0  0  0  0  0
   -2.4516   -0.5802    0.6644 C   0  0  0  0  0  0  0  0  0  0  0  0
   -2.4237   -1.6902   -0.2629 O   0  0  0  0  0  0  0  0  0  0  0  0
   -1.0198   -1.0558    1.5208 C   0  0  0  0  0  0  0  0  0  0  0  0
    0.0604   -0.5130    0.3686 C   0  0  0  0  0  0  0  0  0  0  0  0
    0.8423   -0.1320   -0.4371 C   0  0  0  0  0  0  0  0  0  0  0  0
    1.8619    0.3696   -1.4566 C   0  0  0  0  0  0  0  0  0  0  0  0
    3.1472    0.5109   -0.5609 C   0  0  0  0  0  0  0  0  0  0  0  0
   -1.7222    3.2173    0.4076 H   0  0  0  0  0  0  0  0  0  0  0  0
   -3.1607   -1.0492    1.5969 H   0  0  0  0  0  0  0  0  0  0  0  0
   -3.2678   -1.5150   -0.8999 H   0  0  0  0  0  0  0  0  0  0  0  0
   -0.8558   -0.3740    2.2631 H   0  0  0  0  0  0  0  0  0  0  0  0
   -0.9041   -2.0249    1.5074 H   0  0  0  0  0  0  0  0  0  0  0  0
    2.0788   -0.4413   -2.1395 H   0  0  0  0  0  0  0  0  0  0  0  0
    1.6925    1.3419   -1.8291 H   0  0  0  0  0  0  0  0  0  0  0  0
    3.3854   -0.4531   -0.0767 H   0  0  0  0  0  0  0  0  0  0  0  0
    2.9581    1.2784    0.2370 H   0  0  0  0  0  0  0  0  0  0  0  0
    4.0318    0.8490   -1.1361 H   0  0  0  0  0  0  0  0  0  0  0  0
  1  2  3  0
  2  3  1  0
  3  4  1  0
  3  5  1  0
  5  6  1  0
  6  7  3  0
  7  8  1  0
  8  9  1  0
  1 10  1  0
  3 11  1  0
  4 12  1  0
  5 13  1  0
  5 14  1  0
  8 15  1  0
  8 16  1  0
  9 17  1  0
  9 18  1  0
  9 19  1  0
M  END
