
     RDKit          3D

 21 21  0  0  0  0  0  0  0  0999 V2000
   -4.1624   -0.8189    0.4575 C   0  0  0  0  0  0  0  0  0  0  0  0
   -3.0078   -0.1455    0.9333 C   0  0  0  0  0  0  0  0  0  0  0  0
   -1.8529    0.5453    1.3912 C   0  0  0  0  0  0  0  0  0  0  0  0
   -0.9524    0.5067    0.0631 C   0  0  0  0  0  0  0  0  0  0  0  0
   -0.7129   -0.8326   -0.5334 C   0  0  0  0  0  0  0  0  0  0  0  0
    0.3750   -0.1550    0.2230 C   0  0  0  0  0  0  0  0  0  0  0  0
    1.4672    0.5563   -0.6170 C   0  0  0  0  0  0  0  0  0  0  0  0
    2.8015    0.0037   -0.4313 C   0  0  0  0  0  0  0  0  0  0  0  0
    3.3680    0.1341    0.8306 O   0  0  0  0  0  0  0  0  0  0  0  0
   -4.7905   -1.1744    0.1905 H   0  0  0  0  0  0  0  0  0  0  0  0
   -1.9758    1.7009    1.4981 H   0  0  0  0  0  0  0  0  0  0  0  0
   -1.3741    0.1606    2.2346 H   0  0  0  0  0  0  0  0  0  0  0  0
   -1.1652    1.3015   -0.6292 H   0  0  0  0  0  0  0  0  0  0  0  0
   -0.7535   -0.8874   -1.6284 H   0  0  0  0  0  0  0  0  0  0  0  0
   -1.2707   -1.6520   -0.0142 H   0  0  0  0  0  0  0  0  0  0  0  0
    0.7406   -0.6725    1.0891 H   0  0  0  0  0  0  0  0  0  0  0  0
    1.1792    0.6883   -1.6565 H   0  0  0  0  0  0  0  0  0  0  0  0
    1.4510    1.6102   -0.1765 H   0  0  0  0  0  0  0  0  0  0  0  0
    2.7219   -1.1447   -0.5430 H   0  0  0  0  0  0  0  0  0  0  0  0
    3.5698    0.3543   -1.1411 H   0  0  0  0  0  0  0  0  0  0  0  0
    4.3442   -0.0789    0.7857 H   0  0  0  0  0  0  0  0  0  0  0  0
  1  2  3  0
  2  3  1  0
  3  4  1  0
  4  5  1  0
  5  6  1  0
  6  7  1  0
  7  8  1  0
  8  9  1  0
  6  4  1  0
  1 10  1  0
  3 11  1  0
  3 12  1  0
  4 13  1  0
  5 14  1  0
  5 15  1  0
  6 16  1  0
  7 17  1  0
  7 18  1  0
  8 19  1  0
  8 20  1  0
  9 21  1  0
M  END
