
     RDKit          3D

 21 21  0  0  0  0  0  0  0  0999 V2000
    4.2048    0.9377   -0.1052 C   0  0  0  0  0  0  0  0  0  0  0  0
    3.2247    0.2361   -0.0636 C   0  0  0  0  0  0  0  0  0  0  0  0
    2.0070   -0.6082   -0.0200 C   0  0  0  0  0  0  0  0  0  0  0  0
    0.8367    0.3347   -0.1312 C   0  0  0  0  0  0  0  0  0  0  0  0
   -0.4905   -0.3434   -0.1048 C   0  0  0  0  0  0  0  0  0  0  0  0
   -0.7232   -1.2790   -1.1294 O   0  0  0  0  0  0  0  0  0  0  0  0
   -1.2633   -0.5038    1.1674 C   0  0  0  0  0  0  0  0  0  0  0  0
   -1.6549    0.5775    0.2484 C   0  0  0  0  0  0  0  0  0  0  0  0
   -2.8942    0.4131   -0.6076 C   0  0  0  0  0  0  0  0  0  0  0  0
    5.0643    1.5628   -0.1377 H   0  0  0  0  0  0  0  0  0  0  0  0
    1.9797   -1.1613    0.9231 H   0  0  0  0  0  0  0  0  0  0  0  0
    2.0789   -1.2932   -0.8882 H   0  0  0  0  0  0  0  0  0  0  0  0
    0.8935    1.0205    0.7477 H   0  0  0  0  0  0  0  0  0  0  0  0
    1.0015    0.9545   -1.0391 H   0  0  0  0  0  0  0  0  0  0  0  0
   -0.4867   -2.1938   -0.8368 H   0  0  0  0  0  0  0  0  0  0  0  0
   -1.9630   -1.3846    1.2105 H   0  0  0  0  0  0  0  0  0  0  0  0
   -0.8040   -0.1725    2.1341 H   0  0  0  0  0  0  0  0  0  0  0  0
   -1.4323    1.6456    0.4711 H   0  0  0  0  0  0  0  0  0  0  0  0
   -2.9515   -0.6057   -0.9997 H   0  0  0  0  0  0  0  0  0  0  0  0
   -3.7647    0.7143    0.0068 H   0  0  0  0  0  0  0  0  0  0  0  0
   -2.8628    1.1488   -1.4616 H   0  0  0  0  0  0  0  0  0  0  0  0
  1  2  3  0
  2  3  1  0
  3  4  1  0
  4  5  1  0
  5  6  1  0
  5  7  1  0
  7  8  1  0
  8  9  1  0
  8  5  1  0
  1 10  1  0
  3 11  1  0
  3 12  1  0
  4 13  1  0
  4 14  1  0
  6 15  1  0
  7 16  1  0
  7 17  1  0
  8 18  1  0
  9 19  1  0
  9 20  1  0
  9 21  1  0
M  END
