
     RDKit          3D

 21 20  0  0  0  0  0  0  0  0999 V2000
   -2.1533    1.5466   -0.4928 C   0  0  0  0  0  0  0  0  0  0  0  0
   -1.2750    0.5351   -0.1102 C   0  0  0  0  0  0  0  0  0  0  0  0
   -0.2881   -0.5605    0.3154 C   0  0  0  0  0  0  0  0  0  0  0  0
   -0.3820   -1.5430   -0.6536 C   0  0  0  0  0  0  0  0  0  0  0  0
   -1.0539   -0.8171    1.7201 C   0  0  0  0  0  0  0  0  0  0  0  0
    0.7567    0.4024    0.6638 C   0  0  0  0  0  0  0  0  0  0  0  0
    1.2787    1.0542   -0.5531 C   0  0  0  0  0  0  0  0  0  0  0  0
    1.9909    0.1944   -1.5263 C   0  0  0  0  0  0  0  0  0  0  0  0
    2.4747   -0.9640   -1.1159 O   0  0  0  0  0  0  0  0  0  0  0  0
   -3.1474    2.7200   -0.9111 H   0  0  0  0  0  0  0  0  0  0  0  0
    0.4531   -2.2332   -0.6591 H   0  0  0  0  0  0  0  0  0  0  0  0
   -0.5806   -1.0501   -1.6984 H   0  0  0  0  0  0  0  0  0  0  0  0
   -1.2809   -2.3472   -0.5174 H   0  0  0  0  0  0  0  0  0  0  0  0
   -0.3738   -0.4002    2.4687 H   0  0  0  0  0  0  0  0  0  0  0  0
   -1.4621   -1.8181    1.8137 H   0  0  0  0  0  0  0  0  0  0  0  0
   -1.8933   -0.0072    1.5835 H   0  0  0  0  0  0  0  0  0  0  0  0
    1.6378    0.0639    1.2042 H   0  0  0  0  0  0  0  0  0  0  0  0
    0.2541    1.2937    1.2458 H   0  0  0  0  0  0  0  0  0  0  0  0
    2.1862    1.7357   -0.0803 H   0  0  0  0  0  0  0  0  0  0  0  0
    0.6662    1.8433   -1.0410 H   0  0  0  0  0  0  0  0  0  0  0  0
    2.1918    0.3512   -2.5326 H   0  0  0  0  0  0  0  0  0  0  0  0
  1  2  3  0
  2  3  1  0
  3  4  1  0
  3  5  1  0
  3  6  1  0
  6  7  1  0
  7  8  1  0
  8  9  2  0
  1 10  1  0
  4 11  1  0
  4 12  1  0
  4 13  1  0
  5 14  1  0
  5 15  1  0
  5 16  1  0
  6 17  1  0
  6 18  1  0
  7 19  1  0
  7 20  1  0
  8 21  1  0
M  END
