
     RDKit          3D

 17 16  0  0  0  0  0  0  0  0999 V2000
    3.4721   -0.0669    1.3999 C   0  0  0  0  0  0  0  0  0  0  0  0
    2.5752   -0.2927    0.5976 C   0  0  0  0  0  0  0  0  0  0  0  0
    1.4981   -0.5382   -0.3545 C   0  0  0  0  0  0  0  0  0  0  0  0
    0.2214    0.1013    0.1459 C   0  0  0  0  0  0  0  0  0  0  0  0
   -0.8563   -0.1864   -0.8803 C   0  0  0  0  0  0  0  0  0  0  0  0
   -2.1870    0.4280   -0.4501 C   0  0  0  0  0  0  0  0  0  0  0  0
   -3.1674    0.1722   -1.3733 O   0  0  0  0  0  0  0  0  0  0  0  0
    4.2520    0.1373    2.0874 H   0  0  0  0  0  0  0  0  0  0  0  0
    1.3110   -1.6248   -0.4905 H   0  0  0  0  0  0  0  0  0  0  0  0
    1.7121   -0.1072   -1.3552 H   0  0  0  0  0  0  0  0  0  0  0  0
    0.3160    1.1717    0.3158 H   0  0  0  0  0  0  0  0  0  0  0  0
   -0.0827   -0.3757    1.0974 H   0  0  0  0  0  0  0  0  0  0  0  0
   -0.9524   -1.2694   -1.0786 H   0  0  0  0  0  0  0  0  0  0  0  0
   -0.5890    0.2772   -1.8652 H   0  0  0  0  0  0  0  0  0  0  0  0
   -2.4389   -0.0438    0.5338 H   0  0  0  0  0  0  0  0  0  0  0  0
   -2.0347    1.5140   -0.3722 H   0  0  0  0  0  0  0  0  0  0  0  0
   -3.0494    0.7035   -2.1819 H   0  0  0  0  0  0  0  0  0  0  0  0
  1  2  3  0
  2  3  1  0
  3  4  1  0
  4  5  1  0
  5  6  1  0
  6  7  1  0
  1  8  1  0
  3  9  1  0
  3 10  1  0
  4 11  1  0
  4 12  1  0
  5 13  1  0
  5 14  1  0
  6 15  1  0
  6 16  1  0
  7 17  1  0
M  END
