
     RDKit          3D

 18 18  0  0  0  0  0  0  0  0999 V2000
    2.0071    1.3767    1.0788 C   0  0  0  0  0  0  0  0  0  0  0  0
    1.5329    0.2334    0.9198 C   0  0  0  0  0  0  0  0  0  0  0  0
    1.0072   -1.0399    0.7187 C   0  0  0  0  0  0  0  0  0  0  0  0
    1.7161   -1.9357    0.0165 O   0  0  0  0  0  0  0  0  0  0  0  0
   -0.4865   -0.9472    0.4010 C   0  0  0  0  0  0  0  0  0  0  0  0
   -0.8975   -0.2596   -0.8269 C   0  0  0  0  0  0  0  0  0  0  0  0
   -0.6557    1.0404   -1.3930 C   0  0  0  0  0  0  0  0  0  0  0  0
   -1.7998    0.9449   -0.4682 C   0  0  0  0  0  0  0  0  0  0  0  0
    2.4487    2.4453    1.2091 H   0  0  0  0  0  0  0  0  0  0  0  0
    0.9550   -1.4924    1.7997 H   0  0  0  0  0  0  0  0  0  0  0  0
    2.6566   -1.9588    0.2026 H   0  0  0  0  0  0  0  0  0  0  0  0
   -0.9730   -0.5335    1.3153 H   0  0  0  0  0  0  0  0  0  0  0  0
   -0.9088   -2.0311    0.3845 H   0  0  0  0  0  0  0  0  0  0  0  0
   -1.4658   -0.9819   -1.5428 H   0  0  0  0  0  0  0  0  0  0  0  0
   -0.8490    1.1687   -2.5132 H   0  0  0  0  0  0  0  0  0  0  0  0
    0.2037    1.6990   -1.0670 H   0  0  0  0  0  0  0  0  0  0  0  0
   -2.8350    0.8931   -0.7933 H   0  0  0  0  0  0  0  0  0  0  0  0
   -1.6563    1.3786    0.5583 H   0  0  0  0  0  0  0  0  0  0  0  0
  1  2  3  0
  2  3  1  0
  3  4  1  0
  3  5  1  0
  5  6  1  0
  6  7  1  0
  7  8  1  0
  8  6  1  0
  1  9  1  0
  3 10  1  0
  4 11  1  0
  5 12  1  0
  5 13  1  0
  6 14  1  0
  7 15  1  0
  7 16  1  0
  8 17  1  0
  8 18  1  0
M  END
