
     RDKit          3D

 19 18  0  0  0  0  0  0  0  0999 V2000
    5.1326    0.2170   -0.5125 C   0  0  0  0  0  0  0  0  0  0  0  0
    3.6195   -0.1252   -0.3967 C   0  0  0  0  0  0  0  0  0  0  0  0
    2.1979   -0.4536   -0.2857 C   0  0  0  0  0  0  0  0  0  0  0  0
    0.9310   -0.7628   -0.2029 C   0  0  0  0  0  0  0  0  0  0  0  0
   -0.1587   -1.0138   -0.1203 C   0  0  0  0  0  0  0  0  0  0  0  0
   -1.0714   -0.9459   -1.3437 C   0  0  0  0  0  0  0  0  0  0  0  0
   -0.4698    0.8143    0.1528 C   0  0  0  0  0  0  0  0  0  0  0  0
   -1.8252    0.8915    0.5254 C   0  0  0  0  0  0  0  0  0  0  0  0
   -2.9216    0.4197   -0.1773 O   0  0  0  0  0  0  0  0  0  0  0  0
    6.1518    0.4573   -0.6061 H   0  0  0  0  0  0  0  0  0  0  0  0
   -0.7302   -1.1355    0.8796 H   0  0  0  0  0  0  0  0  0  0  0  0
   -1.8943   -1.6102   -1.3977 H   0  0  0  0  0  0  0  0  0  0  0  0
   -0.3494   -0.9629   -2.2429 H   0  0  0  0  0  0  0  0  0  0  0  0
   -1.4698    0.1446   -1.4975 H   0  0  0  0  0  0  0  0  0  0  0  0
   -0.1346    1.1062   -0.8051 H   0  0  0  0  0  0  0  0  0  0  0  0
    0.2506    0.8325    0.9530 H   0  0  0  0  0  0  0  0  0  0  0  0
   -2.0876    2.0266    0.6067 H   0  0  0  0  0  0  0  0  0  0  0  0
   -1.9941    0.5972    1.6609 H   0  0  0  0  0  0  0  0  0  0  0  0
   -3.1768   -0.4971    0.2231 H   0  0  0  0  0  0  0  0  0  0  0  0
  1  2  3  0
  2  3  1  0
  3  4  3  0
  4  5  1  0
  5  6  1  0
  5  7  1  0
  7  8  1  0
  8  9  1  0
  1 10  1  0
  5 11  1  0
  6 12  1  0
  6 13  1  0
  6 14  1  0
  7 15  1  0
  7 16  1  0
  8 17  1  0
  8 18  1  0
  9 19  1  0
M  END
