
     RDKit          3D

 21 21  0  0  0  0  0  0  0  0999 V2000
    3.4042    0.0374   -0.3880 C   0  0  0  0  0  0  0  0  0  0  0  0
    2.2985    0.1398   -0.8624 C   0  0  0  0  0  0  0  0  0  0  0  0
    0.9392    0.2507   -1.4328 C   0  0  0  0  0  0  0  0  0  0  0  0
    0.0247   -0.5138   -0.5054 C   0  0  0  0  0  0  0  0  0  0  0  0
   -0.0112   -0.0170    0.8857 C   0  0  0  0  0  0  0  0  0  0  0  0
    0.5508    1.3459    1.2458 C   0  0  0  0  0  0  0  0  0  0  0  0
   -1.2388    0.0534   -0.0123 C   0  0  0  0  0  0  0  0  0  0  0  0
   -2.3277   -0.9090    0.3857 C   0  0  0  0  0  0  0  0  0  0  0  0
   -2.7332   -1.7262   -0.6622 O   0  0  0  0  0  0  0  0  0  0  0  0
    4.3868   -0.0563    0.0267 H   0  0  0  0  0  0  0  0  0  0  0  0
    0.6749    1.3141   -1.5006 H   0  0  0  0  0  0  0  0  0  0  0  0
    0.9828   -0.1796   -2.4520 H   0  0  0  0  0  0  0  0  0  0  0  0
    0.0631   -1.6093   -0.6545 H   0  0  0  0  0  0  0  0  0  0  0  0
    0.0318   -0.7618    1.6834 H   0  0  0  0  0  0  0  0  0  0  0  0
    1.6159    1.3170    1.5116 H   0  0  0  0  0  0  0  0  0  0  0  0
   -0.0897    1.7218    2.0967 H   0  0  0  0  0  0  0  0  0  0  0  0
    0.3947    2.0835    0.4310 H   0  0  0  0  0  0  0  0  0  0  0  0
   -1.6057    1.0497   -0.3373 H   0  0  0  0  0  0  0  0  0  0  0  0
   -2.0025   -1.6049    1.2071 H   0  0  0  0  0  0  0  0  0  0  0  0
   -3.1626   -0.3178    0.8143 H   0  0  0  0  0  0  0  0  0  0  0  0
   -2.1958   -1.6176   -1.4805 H   0  0  0  0  0  0  0  0  0  0  0  0
  1  2  3  0
  2  3  1  0
  3  4  1  0
  4  5  1  0
  5  6  1  0
  5  7  1  0
  7  8  1  0
  8  9  1  0
  7  4  1  0
  1 10  1  0
  3 11  1  0
  3 12  1  0
  4 13  1  0
  5 14  1  0
  6 15  1  0
  6 16  1  0
  6 17  1  0
  7 18  1  0
  8 19  1  0
  8 20  1  0
  9 21  1  0
M  END
