
     RDKit          3D

 20 19  0  0  0  0  0  0  0  0999 V2000
    0.1606    2.6415   -1.5345 C   0  0  0  0  0  0  0  0  0  0  0  0
    0.1143    1.4905   -1.1694 C   0  0  0  0  0  0  0  0  0  0  0  0
    0.0753    0.0993   -0.7081 C   0  0  0  0  0  0  0  0  0  0  0  0
   -1.3048   -0.2251   -0.1588 C   0  0  0  0  0  0  0  0  0  0  0  0
   -2.3799   -0.0482   -1.2023 C   0  0  0  0  0  0  0  0  0  0  0  0
    1.0470   -0.0771    0.4668 C   0  0  0  0  0  0  0  0  0  0  0  0
    1.0525   -1.3606    0.9399 O   0  0  0  0  0  0  0  0  0  0  0  0
    1.9594   -1.4173    1.9976 C   0  0  0  0  0  0  0  0  0  0  0  0
    0.1954    3.6605   -1.8763 H   0  0  0  0  0  0  0  0  0  0  0  0
    0.3647   -0.5422   -1.5512 H   0  0  0  0  0  0  0  0  0  0  0  0
   -1.4761    0.4583    0.6934 H   0  0  0  0  0  0  0  0  0  0  0  0
   -1.3271   -1.2776    0.1800 H   0  0  0  0  0  0  0  0  0  0  0  0
   -3.3597    0.0629   -0.6716 H   0  0  0  0  0  0  0  0  0  0  0  0
   -2.3975   -0.8946   -1.9109 H   0  0  0  0  0  0  0  0  0  0  0  0
   -2.2343    0.8749   -1.7985 H   0  0  0  0  0  0  0  0  0  0  0  0
    2.0735    0.1752    0.1088 H   0  0  0  0  0  0  0  0  0  0  0  0
    0.8173    0.6389    1.2724 H   0  0  0  0  0  0  0  0  0  0  0  0
    1.6595   -0.7117    2.8184 H   0  0  0  0  0  0  0  0  0  0  0  0
    2.9616   -1.0971    1.6644 H   0  0  0  0  0  0  0  0  0  0  0  0
    1.9983   -2.4504    2.4400 H   0  0  0  0  0  0  0  0  0  0  0  0
  1  2  3  0
  2  3  1  0
  3  4  1  0
  4  5  1  0
  3  6  1  0
  6  7  1  0
  7  8  1  0
  1  9  1  0
  3 10  1  0
  4 11  1  0
  4 12  1  0
  5 13  1  0
  5 14  1  0
  5 15  1  0
  6 16  1  0
  6 17  1  0
  8 18  1  0
  8 19  1  0
  8 20  1  0
M  END
