
     RDKit          3D

 19 19  0  0  0  0  0  0  0  0999 V2000
   -0.7458    3.1195   -1.6091 C   0  0  0  0  0  0  0  0  0  0  0  0
   -0.3889    2.1166   -1.1055 C   0  0  0  0  0  0  0  0  0  0  0  0
    0.0092    1.0455   -0.5636 C   0  0  0  0  0  0  0  0  0  0  0  0
    0.8379    0.3983    0.2247 C   0  0  0  0  0  0  0  0  0  0  0  0
    1.8179   -0.4002    1.1824 C   0  0  0  0  0  0  0  0  0  0  0  0
    2.5495   -0.9895    1.8694 C   0  0  0  0  0  0  0  0  0  0  0  0
   -0.4569   -0.2010   -1.6329 C   0  0  0  0  0  0  0  0  0  0  0  0
   -1.3381    0.0987   -0.4890 C   0  0  0  0  0  0  0  0  0  0  0  0
   -1.4939   -0.9683    0.5137 C   0  0  0  0  0  0  0  0  0  0  0  0
   -1.1219    4.2243   -2.1771 H   0  0  0  0  0  0  0  0  0  0  0  0
    1.8961   -2.0724    2.1907 H   0  0  0  0  0  0  0  0  0  0  0  0
    3.4017   -1.5195    1.4179 H   0  0  0  0  0  0  0  0  0  0  0  0
    2.6378   -0.6428    2.9892 H   0  0  0  0  0  0  0  0  0  0  0  0
   -0.6310    0.1854   -2.6185 H   0  0  0  0  0  0  0  0  0  0  0  0
    0.1342   -1.1302   -1.4982 H   0  0  0  0  0  0  0  0  0  0  0  0
   -2.2346    0.6810   -0.7162 H   0  0  0  0  0  0  0  0  0  0  0  0
   -2.2031   -0.6863    1.2782 H   0  0  0  0  0  0  0  0  0  0  0  0
   -0.5974   -1.4504    0.8660 H   0  0  0  0  0  0  0  0  0  0  0  0
   -2.0728   -1.8088   -0.1220 H   0  0  0  0  0  0  0  0  0  0  0  0
  1  2  3  0
  2  3  1  0
  3  4  1  0
  4  5  3  0
  5  6  1  0
  3  7  1  0
  7  8  1  0
  8  9  1  0
  8  3  1  0
  1 10  1  0
  6 11  1  0
  6 12  1  0
  6 13  1  0
  7 14  1  0
  7 15  1  0
  8 16  1  0
  9 17  1  0
  9 18  1  0
  9 19  1  0
M  END
