
     RDKit          3D

 19 19  0  0  0  0  0  0  0  0999 V2000
    1.3887    2.8766   -0.6804 C   0  0  0  0  0  0  0  0  0  0  0  0
    1.0271    1.9281   -0.0470 C   0  0  0  0  0  0  0  0  0  0  0  0
    0.6069    0.7566    0.7298 C   0  0  0  0  0  0  0  0  0  0  0  0
    0.3410   -0.4875   -0.0651 C   0  0  0  0  0  0  0  0  0  0  0  0
    0.3219   -0.4538   -1.4342 O   0  0  0  0  0  0  0  0  0  0  0  0
    0.8105   -1.6119   -2.0079 C   0  0  0  0  0  0  0  0  0  0  0  0
   -0.7769    0.2518    0.6447 C   0  0  0  0  0  0  0  0  0  0  0  0
   -1.3383   -0.4202    1.8790 C   0  0  0  0  0  0  0  0  0  0  0  0
   -1.7298    0.8406   -0.1627 O   0  0  0  0  0  0  0  0  0  0  0  0
    1.7360    3.7351   -1.2538 H   0  0  0  0  0  0  0  0  0  0  0  0
    1.1404    0.6606    1.7119 H   0  0  0  0  0  0  0  0  0  0  0  0
    0.7365   -1.4171    0.3894 H   0  0  0  0  0  0  0  0  0  0  0  0
    1.8660   -1.7778   -1.6947 H   0  0  0  0  0  0  0  0  0  0  0  0
    0.7770   -1.4850   -3.1105 H   0  0  0  0  0  0  0  0  0  0  0  0
    0.1933   -2.5057   -1.7486 H   0  0  0  0  0  0  0  0  0  0  0  0
   -2.3296   -0.8635    1.6726 H   0  0  0  0  0  0  0  0  0  0  0  0
   -0.6341   -1.2102    2.2617 H   0  0  0  0  0  0  0  0  0  0  0  0
   -1.5008    0.3283    2.7030 H   0  0  0  0  0  0  0  0  0  0  0  0
   -2.6357    0.8550    0.2126 H   0  0  0  0  0  0  0  0  0  0  0  0
  1  2  3  0
  2  3  1  0
  3  4  1  0
  4  5  1  0
  5  6  1  0
  4  7  1  0
  7  8  1  0
  7  9  1  0
  7  3  1  0
  1 10  1  0
  3 11  1  0
  4 12  1  0
  6 13  1  0
  6 14  1  0
  6 15  1  0
  8 16  1  0
  8 17  1  0
  8 18  1  0
  9 19  1  0
M  END
