
     RDKit          3D

 15 16  0  0  0  0  0  0  0  0999 V2000
   -2.2973    0.4144    1.4759 C   0  0  0  0  0  0  0  0  0  0  0  0
   -1.7438   -0.0385    0.4988 C   0  0  0  0  0  0  0  0  0  0  0  0
   -1.0678   -0.6031   -0.6793 C   0  0  0  0  0  0  0  0  0  0  0  0
    0.1590    0.0928   -1.1682 C   0  0  0  0  0  0  0  0  0  0  0  0
    0.8764    1.0446   -0.2394 C   0  0  0  0  0  0  0  0  0  0  0  0
    1.7954    0.0994    0.4880 C   0  0  0  0  0  0  0  0  0  0  0  0
    2.9676    0.3217    0.8174 O   0  0  0  0  0  0  0  0  0  0  0  0
    1.0024   -1.0447    0.6814 O   0  0  0  0  0  0  0  0  0  0  0  0
    0.2090   -1.2792   -0.4407 C   0  0  0  0  0  0  0  0  0  0  0  0
   -2.7783    0.8205    2.3366 H   0  0  0  0  0  0  0  0  0  0  0  0
   -1.7053   -1.0246   -1.4838 H   0  0  0  0  0  0  0  0  0  0  0  0
    0.4409    0.0562   -2.2331 H   0  0  0  0  0  0  0  0  0  0  0  0
    1.4450    1.8267   -0.7751 H   0  0  0  0  0  0  0  0  0  0  0  0
    0.1934    1.4663    0.5331 H   0  0  0  0  0  0  0  0  0  0  0  0
    0.5032   -2.1527   -1.0480 H   0  0  0  0  0  0  0  0  0  0  0  0
  1  2  3  0
  2  3  1  0
  3  4  1  0
  4  5  1  0
  5  6  1  0
  6  7  2  0
  6  8  1  0
  8  9  1  0
  9  3  1  0
  9  4  1  0
  1 10  1  0
  3 11  1  0
  4 12  1  0
  5 13  1  0
  5 14  1  0
  9 15  1  0
M  END
