
     RDKit          3D

 17 18  0  0  0  0  0  0  0  0999 V2000
    3.3483   -0.4521   -0.8824 C   0  0  0  0  0  0  0  0  0  0  0  0
    2.4331   -0.4952   -0.0883 C   0  0  0  0  0  0  0  0  0  0  0  0
    1.3414   -0.5508    0.8869 C   0  0  0  0  0  0  0  0  0  0  0  0
    0.3550    0.5273    0.4957 C   0  0  0  0  0  0  0  0  0  0  0  0
   -0.7703    0.4983    1.4690 O   0  0  0  0  0  0  0  0  0  0  0  0
   -0.9242    0.2757    0.1321 C   0  0  0  0  0  0  0  0  0  0  0  0
   -1.6302   -0.8720   -0.4485 C   0  0  0  0  0  0  0  0  0  0  0  0
   -2.6548    0.0171   -0.8542 O   0  0  0  0  0  0  0  0  0  0  0  0
   -1.8809    1.1605   -0.5871 C   0  0  0  0  0  0  0  0  0  0  0  0
    4.1569   -0.3956   -1.5817 H   0  0  0  0  0  0  0  0  0  0  0  0
    1.7046   -0.2867    1.9106 H   0  0  0  0  0  0  0  0  0  0  0  0
    0.8797   -1.5444    0.9572 H   0  0  0  0  0  0  0  0  0  0  0  0
    0.7920    1.5463    0.5420 H   0  0  0  0  0  0  0  0  0  0  0  0
   -2.0353   -1.6506    0.2158 H   0  0  0  0  0  0  0  0  0  0  0  0
   -1.2073   -1.3258   -1.3755 H   0  0  0  0  0  0  0  0  0  0  0  0
   -2.3884    1.9260    0.0256 H   0  0  0  0  0  0  0  0  0  0  0  0
   -1.5197    1.6221   -1.5252 H   0  0  0  0  0  0  0  0  0  0  0  0
  1  2  3  0
  2  3  1  0
  3  4  1  0
  4  5  1  0
  5  6  1  0
  6  7  1  0
  7  8  1  0
  8  9  1  0
  6  4  1  0
  9  6  1  0
  1 10  1  0
  3 11  1  0
  3 12  1  0
  4 13  1  0
  7 14  1  0
  7 15  1  0
  9 16  1  0
  9 17  1  0
M  END
