
     RDKit          3D

 17 18  0  0  0  0  0  0  0  0999 V2000
    2.3784    1.7029    1.9845 C   0  0  0  0  0  0  0  0  0  0  0  0
    1.4130    1.2881    1.5110 C   0  0  0  0  0  0  0  0  0  0  0  0
    0.2018    0.7402    0.9078 C   0  0  0  0  0  0  0  0  0  0  0  0
   -0.6864    1.2638    0.0939 C   0  0  0  0  0  0  0  0  0  0  0  0
   -1.5909    0.0670   -0.1095 C   0  0  0  0  0  0  0  0  0  0  0  0
   -1.6974   -0.3538    1.2409 O   0  0  0  0  0  0  0  0  0  0  0  0
   -0.3120   -0.6314    1.0967 C   0  0  0  0  0  0  0  0  0  0  0  0
   -0.6896   -1.1027   -0.2859 C   0  0  0  0  0  0  0  0  0  0  0  0
    0.3478   -1.0286   -1.3466 C   0  0  0  0  0  0  0  0  0  0  0  0
    3.2842    2.0980    2.4486 H   0  0  0  0  0  0  0  0  0  0  0  0
   -0.8025    2.2412   -0.3418 H   0  0  0  0  0  0  0  0  0  0  0  0
   -2.4752    0.2039   -0.6595 H   0  0  0  0  0  0  0  0  0  0  0  0
    0.1367   -1.2929    1.7811 H   0  0  0  0  0  0  0  0  0  0  0  0
   -1.2846   -2.0363   -0.2366 H   0  0  0  0  0  0  0  0  0  0  0  0
    1.3070   -1.4659   -0.9745 H   0  0  0  0  0  0  0  0  0  0  0  0
    0.0014   -1.7026   -2.1848 H   0  0  0  0  0  0  0  0  0  0  0  0
    0.4683    0.0092   -1.6874 H   0  0  0  0  0  0  0  0  0  0  0  0
  1  2  3  0
  2  3  1  0
  3  4  2  0
  4  5  1  0
  5  6  1  0
  6  7  1  0
  7  8  1  0
  8  9  1  0
  7  3  1  0
  8  5  1  0
  1 10  1  0
  4 11  1  0
  5 12  1  0
  7 13  1  0
  8 14  1  0
  9 15  1  0
  9 16  1  0
  9 17  1  0
M  END
