
     RDKit          3D

 18 18  0  0  0  0  0  0  0  0999 V2000
    3.4616    0.1228    0.2101 C   0  0  0  0  0  0  0  0  0  0  0  0
    2.2767   -0.0239    0.3639 C   0  0  0  0  0  0  0  0  0  0  0  0
    0.8229   -0.1955    0.5282 C   0  0  0  0  0  0  0  0  0  0  0  0
    0.1381   -1.0195   -0.4961 C   0  0  0  0  0  0  0  0  0  0  0  0
    0.9241   -1.6551   -1.4808 O   0  0  0  0  0  0  0  0  0  0  0  0
   -0.0040    0.4384   -0.5709 C   0  0  0  0  0  0  0  0  0  0  0  0
   -1.2109    1.1745   -0.0920 C   0  0  0  0  0  0  0  0  0  0  0  0
   -2.1929    0.3393    0.6584 C   0  0  0  0  0  0  0  0  0  0  0  0
    4.5201    0.2698    0.0642 H   0  0  0  0  0  0  0  0  0  0  0  0
    0.4305   -0.2640    1.5438 H   0  0  0  0  0  0  0  0  0  0  0  0
   -0.7042   -1.6654   -0.1732 H   0  0  0  0  0  0  0  0  0  0  0  0
    0.8373   -2.6351   -1.4341 H   0  0  0  0  0  0  0  0  0  0  0  0
    0.5349    0.9405   -1.4009 H   0  0  0  0  0  0  0  0  0  0  0  0
   -1.7286    1.7122   -0.9244 H   0  0  0  0  0  0  0  0  0  0  0  0
   -0.8547    1.9871    0.5995 H   0  0  0  0  0  0  0  0  0  0  0  0
   -2.4114   -0.5902    0.1275 H   0  0  0  0  0  0  0  0  0  0  0  0
   -1.7316    0.1032    1.6604 H   0  0  0  0  0  0  0  0  0  0  0  0
   -3.1080    0.9607    0.8165 H   0  0  0  0  0  0  0  0  0  0  0  0
  1  2  3  0
  2  3  1  0
  3  4  1  0
  4  5  1  0
  4  6  1  0
  6  7  1  0
  7  8  1  0
  6  3  1  0
  1  9  1  0
  3 10  1  0
  4 11  1  0
  5 12  1  0
  6 13  1  0
  7 14  1  0
  7 15  1  0
  8 16  1  0
  8 17  1  0
  8 18  1  0
M  END
