
     RDKit          3D

 17 17  0  0  0  0  0  0  0  0999 V2000
    3.2564    0.2716    0.3522 C   0  0  0  0  0  0  0  0  0  0  0  0
    2.0918    0.2739    0.0304 C   0  0  0  0  0  0  0  0  0  0  0  0
    0.6660    0.2954   -0.3454 C   0  0  0  0  0  0  0  0  0  0  0  0
    0.4603   -0.3944   -1.5365 O   0  0  0  0  0  0  0  0  0  0  0  0
   -0.0949   -0.3740    0.7424 C   0  0  0  0  0  0  0  0  0  0  0  0
    0.0929    0.2597    1.9888 O   0  0  0  0  0  0  0  0  0  0  0  0
   -1.5632   -0.5780    0.4679 C   0  0  0  0  0  0  0  0  0  0  0  0
   -2.1881   -0.0990   -0.8156 C   0  0  0  0  0  0  0  0  0  0  0  0
   -2.3883    0.5359    0.4348 O   0  0  0  0  0  0  0  0  0  0  0  0
    4.2842    0.2762    0.6505 H   0  0  0  0  0  0  0  0  0  0  0  0
    0.3556    1.3437   -0.5323 H   0  0  0  0  0  0  0  0  0  0  0  0
    0.8936    0.1007   -2.2944 H   0  0  0  0  0  0  0  0  0  0  0  0
    0.3961   -1.3833    0.8896 H   0  0  0  0  0  0  0  0  0  0  0  0
    0.4523    1.1637    1.8985 H   0  0  0  0  0  0  0  0  0  0  0  0
   -2.0034   -1.5490    0.8302 H   0  0  0  0  0  0  0  0  0  0  0  0
   -1.6456    0.5029   -1.5381 H   0  0  0  0  0  0  0  0  0  0  0  0
   -3.0656   -0.6461   -1.2229 H   0  0  0  0  0  0  0  0  0  0  0  0
  1  2  3  0
  2  3  1  0
  3  4  1  0
  3  5  1  0
  5  6  1  0
  5  7  1  0
  7  8  1  0
  8  9  1  0
  9  7  1  0
  1 10  1  0
  3 11  1  0
  4 12  1  0
  5 13  1  0
  6 14  1  0
  7 15  1  0
  8 16  1  0
  8 17  1  0
M  END
