
     RDKit          3D

 21 22  0  0  0  0  0  0  0  0999 V2000
    3.3825    0.1906   -0.4877 C   0  0  0  0  0  0  0  0  0  0  0  0
    2.3888   -0.1086    0.1410 C   0  0  0  0  0  0  0  0  0  0  0  0
    1.1926   -0.4900    0.9052 C   0  0  0  0  0  0  0  0  0  0  0  0
    0.0571   -0.4772    0.1441 C   0  0  0  0  0  0  0  0  0  0  0  0
   -1.3458   -0.8015    0.5512 C   0  0  0  0  0  0  0  0  0  0  0  0
   -1.4723   -0.4126   -0.9022 C   0  0  0  0  0  0  0  0  0  0  0  0
   -0.2272   -1.2447   -1.1022 C   0  0  0  0  0  0  0  0  0  0  0  0
   -0.5375    0.7132   -0.5678 C   0  0  0  0  0  0  0  0  0  0  0  0
   -1.0901    1.7810    0.3376 C   0  0  0  0  0  0  0  0  0  0  0  0
    4.2539    0.4474   -1.0436 H   0  0  0  0  0  0  0  0  0  0  0  0
    1.1495    0.2528    1.7542 H   0  0  0  0  0  0  0  0  0  0  0  0
    1.4182   -1.4536    1.3773 H   0  0  0  0  0  0  0  0  0  0  0  0
   -1.4786   -1.8891    0.6543 H   0  0  0  0  0  0  0  0  0  0  0  0
   -1.8318   -0.1610    1.2811 H   0  0  0  0  0  0  0  0  0  0  0  0
   -2.2938   -0.3996   -1.4623 H   0  0  0  0  0  0  0  0  0  0  0  0
    0.3201   -0.9287   -2.0070 H   0  0  0  0  0  0  0  0  0  0  0  0
   -0.3339   -2.3255   -0.9356 H   0  0  0  0  0  0  0  0  0  0  0  0
    0.0952    1.0714   -1.4078 H   0  0  0  0  0  0  0  0  0  0  0  0
   -0.8222    1.6143    1.3939 H   0  0  0  0  0  0  0  0  0  0  0  0
   -0.6520    2.7645    0.0044 H   0  0  0  0  0  0  0  0  0  0  0  0
   -2.1728    1.8568    0.2126 H   0  0  0  0  0  0  0  0  0  0  0  0
  1  2  3  0
  2  3  1  0
  3  4  1  0
  4  5  1  0
  5  6  1  0
  6  7  1  0
  6  8  1  0
  8  9  1  0
  7  4  1  0
  8  4  1  0
  1 10  1  0
  3 11  1  0
  3 12  1  0
  5 13  1  0
  5 14  1  0
  6 15  1  0
  7 16  1  0
  7 17  1  0
  8 18  1  0
  9 19  1  0
  9 20  1  0
  9 21  1  0
M  END
