
     RDKit          3D

 21 21  0  0  0  0  0  0  0  0999 V2000
    3.0189    0.2581    1.4501 C   0  0  0  0  0  0  0  0  0  0  0  0
    2.3116    0.2206    0.4723 C   0  0  0  0  0  0  0  0  0  0  0  0
    1.4494    0.1496   -0.7289 C   0  0  0  0  0  0  0  0  0  0  0  0
    1.5391    1.2739   -1.5013 O   0  0  0  0  0  0  0  0  0  0  0  0
    0.0745   -0.2140   -0.2903 C   0  0  0  0  0  0  0  0  0  0  0  0
   -0.0096   -1.5574    0.4304 C   0  0  0  0  0  0  0  0  0  0  0  0
   -1.0231   -0.0010   -1.3634 C   0  0  0  0  0  0  0  0  0  0  0  0
   -1.0044    0.7773   -0.1043 C   0  0  0  0  0  0  0  0  0  0  0  0
   -2.1324    0.4859    0.8625 C   0  0  0  0  0  0  0  0  0  0  0  0
    3.6591    0.2943    2.3038 H   0  0  0  0  0  0  0  0  0  0  0  0
    1.8495   -0.7065   -1.3486 H   0  0  0  0  0  0  0  0  0  0  0  0
    0.8942    1.9763   -1.3288 H   0  0  0  0  0  0  0  0  0  0  0  0
    0.9985   -1.9493    0.6798 H   0  0  0  0  0  0  0  0  0  0  0  0
   -0.5672   -1.4797    1.3814 H   0  0  0  0  0  0  0  0  0  0  0  0
   -0.4581   -2.3313   -0.2574 H   0  0  0  0  0  0  0  0  0  0  0  0
   -1.7748   -0.8208   -1.4595 H   0  0  0  0  0  0  0  0  0  0  0  0
   -0.7102    0.4153   -2.3263 H   0  0  0  0  0  0  0  0  0  0  0  0
   -0.7553    1.8649   -0.1341 H   0  0  0  0  0  0  0  0  0  0  0  0
   -1.9468    0.9626    1.8458 H   0  0  0  0  0  0  0  0  0  0  0  0
   -3.0625    0.9541    0.4342 H   0  0  0  0  0  0  0  0  0  0  0  0
   -2.3506   -0.5730    0.9826 H   0  0  0  0  0  0  0  0  0  0  0  0
  1  2  3  0
  2  3  1  0
  3  4  1  0
  3  5  1  0
  5  6  1  0
  5  7  1  0
  7  8  1  0
  8  9  1  0
  8  5  1  0
  1 10  1  0
  3 11  1  0
  4 12  1  0
  6 13  1  0
  6 14  1  0
  6 15  1  0
  7 16  1  0
  7 17  1  0
  8 18  1  0
  9 19  1  0
  9 20  1  0
  9 21  1  0
M  END
