
     RDKit          3D

 19 18  0  0  0  0  0  0  0  0999 V2000
    3.7289    1.1007    0.0863 C   0  0  0  0  0  0  0  0  0  0  0  0
    2.7418    0.5150   -0.3815 C   0  0  0  0  0  0  0  0  0  0  0  0
    1.5758   -0.1957   -0.9232 C   0  0  0  0  0  0  0  0  0  0  0  0
    0.4318   -0.1876    0.0945 C   0  0  0  0  0  0  0  0  0  0  0  0
   -0.7585   -0.8674   -0.5762 C   0  0  0  0  0  0  0  0  0  0  0  0
   -1.1644   -0.1170   -1.6577 O   0  0  0  0  0  0  0  0  0  0  0  0
   -1.8471   -1.0180    0.4345 C   0  0  0  0  0  0  0  0  0  0  0  0
   -2.2237    0.2955    0.9639 C   0  0  0  0  0  0  0  0  0  0  0  0
   -2.5061    1.2861    1.3605 C   0  0  0  0  0  0  0  0  0  0  0  0
    4.5616    1.6002    0.4631 H   0  0  0  0  0  0  0  0  0  0  0  0
    1.8459   -1.2845   -0.9783 H   0  0  0  0  0  0  0  0  0  0  0  0
    1.2631    0.2195   -1.8816 H   0  0  0  0  0  0  0  0  0  0  0  0
    0.6616   -0.5329    1.0735 H   0  0  0  0  0  0  0  0  0  0  0  0
    0.1735    0.9161    0.1918 H   0  0  0  0  0  0  0  0  0  0  0  0
   -0.4272   -1.8534   -0.9746 H   0  0  0  0  0  0  0  0  0  0  0  0
   -1.1696    0.8607   -1.3795 H   0  0  0  0  0  0  0  0  0  0  0  0
   -2.6965   -1.5434    0.0111 H   0  0  0  0  0  0  0  0  0  0  0  0
   -1.3784   -1.5789    1.3073 H   0  0  0  0  0  0  0  0  0  0  0  0
   -2.8127    2.3851    1.7780 H   0  0  0  0  0  0  0  0  0  0  0  0
  1  2  3  0
  2  3  1  0
  3  4  1  0
  4  5  1  0
  5  6  1  0
  5  7  1  0
  7  8  1  0
  8  9  3  0
  1 10  1  0
  3 11  1  0
  3 12  1  0
  4 13  1  0
  4 14  1  0
  5 15  1  0
  6 16  1  0
  7 17  1  0
  7 18  1  0
  9 19  1  0
M  END
