
     RDKit          3D

 23 23  0  0  0  0  0  0  0  0999 V2000
    2.7783   -1.5885    1.4239 C   0  0  0  0  0  0  0  0  0  0  0  0
    2.0097   -1.4233    0.9023 C   0  0  0  0  0  0  0  0  0  0  0  0
    0.7352   -1.1727    0.0449 C   0  0  0  0  0  0  0  0  0  0  0  0
    0.8583   -0.1583   -0.9858 C   0  0  0  0  0  0  0  0  0  0  0  0
   -0.4040    0.7568   -0.9149 C   0  0  0  0  0  0  0  0  0  0  0  0
    0.1641    2.1816   -0.9216 C   0  0  0  0  0  0  0  0  0  0  0  0
   -1.1554    0.3394    0.2931 C   0  0  0  0  0  0  0  0  0  0  0  0
   -2.3457   -0.5425    0.0357 C   0  0  0  0  0  0  0  0  0  0  0  0
   -0.1783   -0.4353    1.1217 C   0  0  0  0  0  0  0  0  0  0  0  0
    3.8064   -1.7948    2.1293 H   0  0  0  0  0  0  0  0  0  0  0  0
    0.3167   -2.1067   -0.1618 H   0  0  0  0  0  0  0  0  0  0  0  0
    0.9966   -0.4239   -2.0309 H   0  0  0  0  0  0  0  0  0  0  0  0
    1.7567    0.5108   -0.7441 H   0  0  0  0  0  0  0  0  0  0  0  0
   -0.9613    0.6095   -1.8849 H   0  0  0  0  0  0  0  0  0  0  0  0
   -0.6425    2.8457   -0.5950 H   0  0  0  0  0  0  0  0  0  0  0  0
    0.6450    2.3937   -1.9051 H   0  0  0  0  0  0  0  0  0  0  0  0
    0.9540    2.1319   -0.1022 H   0  0  0  0  0  0  0  0  0  0  0  0
   -1.4812    1.2449    0.8296 H   0  0  0  0  0  0  0  0  0  0  0  0
   -2.8213   -0.7490    1.0392 H   0  0  0  0  0  0  0  0  0  0  0  0
   -2.9980   -0.1683   -0.7106 H   0  0  0  0  0  0  0  0  0  0  0  0
   -1.9881   -1.5575   -0.2572 H   0  0  0  0  0  0  0  0  0  0  0  0
   -0.5674   -1.1830    1.7747 H   0  0  0  0  0  0  0  0  0  0  0  0
    0.5221    0.2897    1.6195 H   0  0  0  0  0  0  0  0  0  0  0  0
  1  2  3  0
  2  3  1  0
  3  4  1  0
  4  5  1  0
  5  6  1  0
  5  7  1  0
  7  8  1  0
  7  9  1  0
  9  3  1  0
  1 10  1  0
  3 11  1  0
  4 12  1  0
  4 13  1  0
  5 14  1  0
  6 15  1  0
  6 16  1  0
  6 17  1  0
  7 18  1  0
  8 19  1  0
  8 20  1  0
  8 21  1  0
  9 22  1  0
  9 23  1  0
M  END
