
     RDKit          3D

 18 17  0  0  0  0  0  0  0  0999 V2000
    1.4702   -2.3219    1.1995 C   0  0  0  0  0  0  0  0  0  0  0  0
    0.5705   -1.7760    0.5752 C   0  0  0  0  0  0  0  0  0  0  0  0
   -0.5207   -1.1248   -0.1511 C   0  0  0  0  0  0  0  0  0  0  0  0
   -0.2588    0.3631   -0.1317 C   0  0  0  0  0  0  0  0  0  0  0  0
    1.0741    0.6215   -0.8098 C   0  0  0  0  0  0  0  0  0  0  0  0
   -1.3307    1.1530   -0.8114 C   0  0  0  0  0  0  0  0  0  0  0  0
   -0.1906    0.7664    1.3007 C   0  0  0  0  0  0  0  0  0  0  0  0
    0.7088    1.4513    1.7565 O   0  0  0  0  0  0  0  0  0  0  0  0
    2.2540   -2.7792    1.7490 H   0  0  0  0  0  0  0  0  0  0  0  0
   -1.4877   -1.3645    0.3346 H   0  0  0  0  0  0  0  0  0  0  0  0
   -0.5145   -1.4804   -1.2153 H   0  0  0  0  0  0  0  0  0  0  0  0
    1.6694   -0.3161   -0.8195 H   0  0  0  0  0  0  0  0  0  0  0  0
    1.5999    1.3990   -0.1810 H   0  0  0  0  0  0  0  0  0  0  0  0
    0.8658    1.0029   -1.8179 H   0  0  0  0  0  0  0  0  0  0  0  0
   -1.9213    0.4781   -1.4974 H   0  0  0  0  0  0  0  0  0  0  0  0
   -2.0470    1.4960   -0.0481 H   0  0  0  0  0  0  0  0  0  0  0  0
   -0.9538    2.0034   -1.3983 H   0  0  0  0  0  0  0  0  0  0  0  0
   -0.9876    0.4281    1.9660 H   0  0  0  0  0  0  0  0  0  0  0  0
  1  2  3  0
  2  3  1  0
  3  4  1  0
  4  5  1  0
  4  6  1  0
  4  7  1  0
  7  8  2  0
  1  9  1  0
  3 10  1  0
  3 11  1  0
  5 12  1  0
  5 13  1  0
  5 14  1  0
  6 15  1  0
  6 16  1  0
  6 17  1  0
  7 18  1  0
M  END
