
     RDKit          3D

 21 20  0  0  0  0  0  0  0  0999 V2000
    1.1465    1.5796   -1.7153 C   0  0  0  0  0  0  0  0  0  0  0  0
    0.6413    0.8226   -0.9236 C   0  0  0  0  0  0  0  0  0  0  0  0
    0.0064   -0.1026    0.0504 C   0  0  0  0  0  0  0  0  0  0  0  0
    0.9294   -0.2337    1.2524 C   0  0  0  0  0  0  0  0  0  0  0  0
    1.1546    1.1067    1.9081 C   0  0  0  0  0  0  0  0  0  0  0  0
   -0.0475   -1.4750   -0.5638 C   0  0  0  0  0  0  0  0  0  0  0  0
   -0.6555   -2.2956    0.4181 O   0  0  0  0  0  0  0  0  0  0  0  0
   -1.2382    0.3318    0.3714 O   0  0  0  0  0  0  0  0  0  0  0  0
   -2.0515    0.4305   -0.7266 C   0  0  0  0  0  0  0  0  0  0  0  0
    1.5864    2.2598   -2.4030 H   0  0  0  0  0  0  0  0  0  0  0  0
    0.5064   -0.9136    2.0147 H   0  0  0  0  0  0  0  0  0  0  0  0
    1.8680   -0.6900    0.8893 H   0  0  0  0  0  0  0  0  0  0  0  0
    0.1882    1.6529    1.8774 H   0  0  0  0  0  0  0  0  0  0  0  0
    1.9605    1.6777    1.4049 H   0  0  0  0  0  0  0  0  0  0  0  0
    1.4476    0.9057    2.9586 H   0  0  0  0  0  0  0  0  0  0  0  0
   -0.5829   -1.5756   -1.4950 H   0  0  0  0  0  0  0  0  0  0  0  0
    1.0411   -1.7724   -0.6592 H   0  0  0  0  0  0  0  0  0  0  0  0
   -0.9791   -3.1334    0.0466 H   0  0  0  0  0  0  0  0  0  0  0  0
   -3.0808    0.8149   -0.4536 H   0  0  0  0  0  0  0  0  0  0  0  0
   -1.6175    1.1293   -1.4712 H   0  0  0  0  0  0  0  0  0  0  0  0
   -2.2233   -0.5194   -1.2827 H   0  0  0  0  0  0  0  0  0  0  0  0
  1  2  3  0
  2  3  1  0
  3  4  1  0
  4  5  1  0
  3  6  1  0
  6  7  1  0
  3  8  1  0
  8  9  1  0
  1 10  1  0
  4 11  1  0
  4 12  1  0
  5 13  1  0
  5 14  1  0
  5 15  1  0
  6 16  1  0
  6 17  1  0
  7 18  1  0
  9 19  1  0
  9 20  1  0
  9 21  1  0
M  END
