
     RDKit          3D

 15 15  0  0  0  0  0  0  0  0999 V2000
    3.0311    0.1270    0.9748 C   0  0  0  0  0  0  0  0  0  0  0  0
    1.8310    0.0529    0.7424 C   0  0  0  0  0  0  0  0  0  0  0  0
    0.3978   -0.0228    0.4479 C   0  0  0  0  0  0  0  0  0  0  0  0
    0.1613   -0.8536   -0.8037 C   0  0  0  0  0  0  0  0  0  0  0  0
   -1.3059   -0.8596   -1.0163 C   0  0  0  0  0  0  0  0  0  0  0  0
   -1.7943   -1.6490   -1.8604 O   0  0  0  0  0  0  0  0  0  0  0  0
   -2.0650    0.0208   -0.2586 O   0  0  0  0  0  0  0  0  0  0  0  0
   -1.5345    1.1986    0.3124 C   0  0  0  0  0  0  0  0  0  0  0  0
   -0.1446    1.2306    0.2595 O   0  0  0  0  0  0  0  0  0  0  0  0
    4.0619    0.1826    1.1576 H   0  0  0  0  0  0  0  0  0  0  0  0
   -0.1023   -0.5243    1.2890 H   0  0  0  0  0  0  0  0  0  0  0  0
    0.7308   -0.3889   -1.6287 H   0  0  0  0  0  0  0  0  0  0  0  0
    0.5678   -1.8727   -0.6307 H   0  0  0  0  0  0  0  0  0  0  0  0
   -1.8896    2.0474   -0.3109 H   0  0  0  0  0  0  0  0  0  0  0  0
   -1.9454    1.3110    1.3258 H   0  0  0  0  0  0  0  0  0  0  0  0
  1  2  3  0
  2  3  1  0
  3  4  1  0
  4  5  1  0
  5  6  2  0
  5  7  1  0
  7  8  1  0
  8  9  1  0
  9  3  1  0
  1 10  1  0
  3 11  1  0
  4 12  1  0
  4 13  1  0
  8 14  1  0
  8 15  1  0
M  END
