
     RDKit          3D

 17 19  0  0  0  0  0  0  0  0999 V2000
    2.9108    1.2823    0.4066 C   0  0  0  0  0  0  0  0  0  0  0  0
    1.7430    1.0064    0.4850 C   0  0  0  0  0  0  0  0  0  0  0  0
    0.3258    0.6899    0.5969 C   0  0  0  0  0  0  0  0  0  0  0  0
    0.0783   -0.6958    1.0968 C   0  0  0  0  0  0  0  0  0  0  0  0
   -1.0924   -1.2060    0.2725 C   0  0  0  0  0  0  0  0  0  0  0  0
   -0.5927   -1.7560   -0.9098 O   0  0  0  0  0  0  0  0  0  0  0  0
   -0.5636   -0.5185   -1.5244 C   0  0  0  0  0  0  0  0  0  0  0  0
   -0.3270    0.7312   -0.7620 C   0  0  0  0  0  0  0  0  0  0  0  0
   -1.5415   -0.0421   -0.5522 C   0  0  0  0  0  0  0  0  0  0  0  0
    3.9412    1.5422    0.3316 H   0  0  0  0  0  0  0  0  0  0  0  0
   -0.2156    1.4060    1.2577 H   0  0  0  0  0  0  0  0  0  0  0  0
    0.9572   -1.3718    0.9617 H   0  0  0  0  0  0  0  0  0  0  0  0
   -0.1507   -0.7315    2.1878 H   0  0  0  0  0  0  0  0  0  0  0  0
   -1.8411   -1.7817    0.8054 H   0  0  0  0  0  0  0  0  0  0  0  0
   -0.6874   -0.4520   -2.6101 H   0  0  0  0  0  0  0  0  0  0  0  0
   -0.3914    1.6606   -1.3248 H   0  0  0  0  0  0  0  0  0  0  0  0
   -2.5529    0.2369   -0.7187 H   0  0  0  0  0  0  0  0  0  0  0  0
  1  2  3  0
  2  3  1  0
  3  4  1  0
  4  5  1  0
  5  6  1  0
  6  7  1  0
  7  8  1  0
  8  9  1  0
  8  3  1  0
  9  5  1  0
  9  7  1  0
  1 10  1  0
  3 11  1  0
  4 12  1  0
  4 13  1  0
  5 14  1  0
  7 15  1  0
  8 16  1  0
  9 17  1  0
M  END
