
     RDKit          3D

 16 17  0  0  0  0  0  0  0  0999 V2000
    2.5530   -1.4443    0.3800 C   0  0  0  0  0  0  0  0  0  0  0  0
    1.6193   -0.6984    0.3310 C   0  0  0  0  0  0  0  0  0  0  0  0
    0.5771    0.1493    0.2557 C   0  0  0  0  0  0  0  0  0  0  0  0
    0.6133    1.5755   -0.1023 C   0  0  0  0  0  0  0  0  0  0  0  0
   -0.8030    1.2199    0.2668 C   0  0  0  0  0  0  0  0  0  0  0  0
   -0.2520    0.4897    1.3141 O   0  0  0  0  0  0  0  0  0  0  0  0
   -0.6356   -0.0141   -0.5668 C   0  0  0  0  0  0  0  0  0  0  0  0
   -1.5514   -1.1306   -0.1921 C   0  0  0  0  0  0  0  0  0  0  0  0
    3.3968   -2.1212    0.4309 H   0  0  0  0  0  0  0  0  0  0  0  0
    1.1205    2.2621    0.6128 H   0  0  0  0  0  0  0  0  0  0  0  0
    0.7831    1.8682   -1.1381 H   0  0  0  0  0  0  0  0  0  0  0  0
   -1.5933    1.8391    0.3030 H   0  0  0  0  0  0  0  0  0  0  0  0
   -0.4867    0.1545   -1.6537 H   0  0  0  0  0  0  0  0  0  0  0  0
   -2.6084   -0.8383   -0.3867 H   0  0  0  0  0  0  0  0  0  0  0  0
   -1.4701   -1.2794    0.9094 H   0  0  0  0  0  0  0  0  0  0  0  0
   -1.2626   -2.0319   -0.7641 H   0  0  0  0  0  0  0  0  0  0  0  0
  1  2  3  0
  2  3  1  0
  3  4  1  0
  4  5  1  0
  5  6  1  0
  5  7  1  0
  7  8  1  0
  6  3  1  0
  7  3  1  0
  1  9  1  0
  4 10  1  0
  4 11  1  0
  5 12  1  0
  7 13  1  0
  8 14  1  0
  8 15  1  0
  8 16  1  0
M  END
