
     RDKit          3D

 21 21  0  0  0  0  0  0  0  0999 V2000
    3.1772    2.1512   -0.2379 C   0  0  0  0  0  0  0  0  0  0  0  0
    2.1244    1.6541    0.1354 C   0  0  0  0  0  0  0  0  0  0  0  0
    0.8702    1.0352    0.5751 C   0  0  0  0  0  0  0  0  0  0  0  0
    0.0169    0.4460   -0.5381 C   0  0  0  0  0  0  0  0  0  0  0  0
   -1.4501    0.7836   -0.4117 C   0  0  0  0  0  0  0  0  0  0  0  0
   -2.2637    0.1845   -1.5295 C   0  0  0  0  0  0  0  0  0  0  0  0
    0.6819   -0.4308    0.4490 C   0  0  0  0  0  0  0  0  0  0  0  0
   -0.1508   -1.1194    1.3091 O   0  0  0  0  0  0  0  0  0  0  0  0
    0.2831   -2.4254    1.5286 C   0  0  0  0  0  0  0  0  0  0  0  0
    4.0822    2.5839   -0.5783 H   0  0  0  0  0  0  0  0  0  0  0  0
    0.3562    1.4983    1.4480 H   0  0  0  0  0  0  0  0  0  0  0  0
    0.4184    0.4742   -1.5615 H   0  0  0  0  0  0  0  0  0  0  0  0
   -1.5456    1.8879   -0.4655 H   0  0  0  0  0  0  0  0  0  0  0  0
   -1.8693    0.4713    0.5715 H   0  0  0  0  0  0  0  0  0  0  0  0
   -3.2915   -0.0624   -1.1379 H   0  0  0  0  0  0  0  0  0  0  0  0
   -2.4274    0.9514   -2.3186 H   0  0  0  0  0  0  0  0  0  0  0  0
   -1.7810   -0.7154   -1.9669 H   0  0  0  0  0  0  0  0  0  0  0  0
    1.5426   -1.0231    0.0830 H   0  0  0  0  0  0  0  0  0  0  0  0
    0.3229   -3.0094    0.5680 H   0  0  0  0  0  0  0  0  0  0  0  0
    1.3162   -2.4534    1.9399 H   0  0  0  0  0  0  0  0  0  0  0  0
   -0.4129   -2.8825    2.2568 H   0  0  0  0  0  0  0  0  0  0  0  0
  1  2  3  0
  2  3  1  0
  3  4  1  0
  4  5  1  0
  5  6  1  0
  4  7  1  0
  7  8  1  0
  8  9  1  0
  7  3  1  0
  1 10  1  0
  3 11  1  0
  4 12  1  0
  5 13  1  0
  5 14  1  0
  6 15  1  0
  6 16  1  0
  6 17  1  0
  7 18  1  0
  9 19  1  0
  9 20  1  0
  9 21  1  0
M  END
