
     RDKit          3D

 19 19  0  0  0  0  0  0  0  0999 V2000
    0.9341   -0.0423   -3.1312 C   0  0  0  0  0  0  0  0  0  0  0  0
    0.4050   -0.0742   -2.0522 C   0  0  0  0  0  0  0  0  0  0  0  0
   -0.2268   -0.1051   -0.7082 C   0  0  0  0  0  0  0  0  0  0  0  0
    0.1739   -1.3067   -0.1466 O   0  0  0  0  0  0  0  0  0  0  0  0
   -0.3328   -1.5562    1.1037 C   0  0  0  0  0  0  0  0  0  0  0  0
   -1.0306   -0.3184    1.6830 C   0  0  0  0  0  0  0  0  0  0  0  0
   -0.0143    0.7961    1.5632 C   0  0  0  0  0  0  0  0  0  0  0  0
    0.1492    1.0985    0.0912 C   0  0  0  0  0  0  0  0  0  0  0  0
    1.4282    1.5668   -0.2119 O   0  0  0  0  0  0  0  0  0  0  0  0
    1.3928   -0.0122   -4.1095 H   0  0  0  0  0  0  0  0  0  0  0  0
   -1.3195   -0.1549   -0.9160 H   0  0  0  0  0  0  0  0  0  0  0  0
   -0.9928   -2.4345    1.0862 H   0  0  0  0  0  0  0  0  0  0  0  0
    0.5546   -1.7891    1.7617 H   0  0  0  0  0  0  0  0  0  0  0  0
   -1.8898   -0.0541    1.0342 H   0  0  0  0  0  0  0  0  0  0  0  0
   -1.3383   -0.5191    2.7254 H   0  0  0  0  0  0  0  0  0  0  0  0
    0.9392    0.4354    2.0078 H   0  0  0  0  0  0  0  0  0  0  0  0
   -0.3592    1.6927    2.1272 H   0  0  0  0  0  0  0  0  0  0  0  0
   -0.5743    1.9155   -0.1474 H   0  0  0  0  0  0  0  0  0  0  0  0
    2.1013    0.8620    0.0015 H   0  0  0  0  0  0  0  0  0  0  0  0
  1  2  3  0
  2  3  1  0
  3  4  1  0
  4  5  1  0
  5  6  1  0
  6  7  1  0
  7  8  1  0
  8  9  1  0
  8  3  1  0
  1 10  1  0
  3 11  1  0
  5 12  1  0
  5 13  1  0
  6 14  1  0
  6 15  1  0
  7 16  1  0
  7 17  1  0
  8 18  1  0
  9 19  1  0
M  END
