
     RDKit          3D

 15 17  0  0  0  0  0  0  0  0999 V2000
    3.0715    0.9497   -0.3583 C   0  0  0  0  0  0  0  0  0  0  0  0
    1.9138    0.6467   -0.2229 C   0  0  0  0  0  0  0  0  0  0  0  0
    0.5431    0.2629   -0.0673 C   0  0  0  0  0  0  0  0  0  0  0  0
   -0.4276    1.0511   -0.7214 O   0  0  0  0  0  0  0  0  0  0  0  0
   -1.6464    0.4457   -0.4739 C   0  0  0  0  0  0  0  0  0  0  0  0
   -1.4898   -0.3864    0.7963 C   0  0  0  0  0  0  0  0  0  0  0  0
   -1.0166   -1.6422    0.4405 O   0  0  0  0  0  0  0  0  0  0  0  0
    0.2458   -1.1628    0.1859 C   0  0  0  0  0  0  0  0  0  0  0  0
   -0.0912   -0.0285    1.2027 C   0  0  0  0  0  0  0  0  0  0  0  0
    4.0860    1.2307   -0.4869 H   0  0  0  0  0  0  0  0  0  0  0  0
   -2.4776    1.1730   -0.3732 H   0  0  0  0  0  0  0  0  0  0  0  0
   -1.8640   -0.2087   -1.3488 H   0  0  0  0  0  0  0  0  0  0  0  0
   -2.2799   -0.3191    1.5257 H   0  0  0  0  0  0  0  0  0  0  0  0
    1.0993   -1.8040    0.4162 H   0  0  0  0  0  0  0  0  0  0  0  0
    0.3336   -0.2082    2.1604 H   0  0  0  0  0  0  0  0  0  0  0  0
  1  2  3  0
  2  3  1  0
  3  4  1  0
  4  5  1  0
  5  6  1  0
  6  7  1  0
  7  8  1  0
  8  9  1  0
  8  3  1  0
  9  3  1  0
  9  6  1  0
  1 10  1  0
  5 11  1  0
  5 12  1  0
  6 13  1  0
  8 14  1  0
  9 15  1  0
M  END
