
     RDKit          3D

 19 20  0  0  0  0  0  0  0  0999 V2000
    2.4056    0.7912    2.9292 C   0  0  0  0  0  0  0  0  0  0  0  0
    1.9632    0.6093    1.6269 C   0  0  0  0  0  0  0  0  0  0  0  0
    1.5267    0.4306    0.4090 C   0  0  0  0  0  0  0  0  0  0  0  0
    1.2849   -0.8641   -0.0232 O   0  0  0  0  0  0  0  0  0  0  0  0
   -0.0434   -0.5134   -0.3692 C   0  0  0  0  0  0  0  0  0  0  0  0
   -0.3881   -0.7107   -1.8027 C   0  0  0  0  0  0  0  0  0  0  0  0
   -1.7073   -0.4162   -2.3591 C   0  0  0  0  0  0  0  0  0  0  0  0
   -0.9245   -0.1968    0.7353 C   0  0  0  0  0  0  0  0  0  0  0  0
    0.0248    0.8084    0.2475 C   0  0  0  0  0  0  0  0  0  0  0  0
    2.7232    0.9056    3.8267 H   0  0  0  0  0  0  0  0  0  0  0  0
    2.1001    0.9317   -0.4869 H   0  0  0  0  0  0  0  0  0  0  0  0
   -0.0103   -1.7592   -2.0638 H   0  0  0  0  0  0  0  0  0  0  0  0
    0.3765   -0.0603   -2.3654 H   0  0  0  0  0  0  0  0  0  0  0  0
   -1.5702    0.1931   -3.3244 H   0  0  0  0  0  0  0  0  0  0  0  0
   -2.3087   -1.3056   -2.6855 H   0  0  0  0  0  0  0  0  0  0  0  0
   -2.3847    0.1874   -1.7017 H   0  0  0  0  0  0  0  0  0  0  0  0
   -0.7735   -0.7648    1.6867 H   0  0  0  0  0  0  0  0  0  0  0  0
   -2.0133   -0.0026    0.5675 H   0  0  0  0  0  0  0  0  0  0  0  0
   -0.2810    1.7364   -0.2411 H   0  0  0  0  0  0  0  0  0  0  0  0
  1  2  3  0
  2  3  1  0
  3  4  1  0
  4  5  1  0
  5  6  1  0
  6  7  1  0
  5  8  1  0
  8  9  1  0
  9  3  1  0
  9  5  1  0
  1 10  1  0
  3 11  1  0
  6 12  1  0
  6 13  1  0
  7 14  1  0
  7 15  1  0
  7 16  1  0
  8 17  1  0
  8 18  1  0
  9 19  1  0
M  END
