
     RDKit          3D

 23 23  0  0  0  0  0  0  0  0999 V2000
    3.2385    0.3967   -2.3925 C   0  0  0  0  0  0  0  0  0  0  0  0
    2.6250    0.1997   -1.3521 C   0  0  0  0  0  0  0  0  0  0  0  0
    1.8949   -0.0130   -0.1028 C   0  0  0  0  0  0  0  0  0  0  0  0
    0.4075    0.1810   -0.3314 C   0  0  0  0  0  0  0  0  0  0  0  0
    0.2001    1.5979   -0.8212 C   0  0  0  0  0  0  0  0  0  0  0  0
   -0.3593    0.0207    0.9345 C   0  0  0  0  0  0  0  0  0  0  0  0
   -0.3569   -1.2222    1.7276 C   0  0  0  0  0  0  0  0  0  0  0  0
   -1.5066   -0.9777    0.8281 C   0  0  0  0  0  0  0  0  0  0  0  0
   -2.8500   -0.5714    1.3698 C   0  0  0  0  0  0  0  0  0  0  0  0
    3.7747    0.5502   -3.2941 H   0  0  0  0  0  0  0  0  0  0  0  0
    2.2075    0.6997    0.6773 H   0  0  0  0  0  0  0  0  0  0  0  0
    2.0479   -1.0811    0.2148 H   0  0  0  0  0  0  0  0  0  0  0  0
    0.0769   -0.5294   -1.1376 H   0  0  0  0  0  0  0  0  0  0  0  0
    0.6757    1.7841   -1.8047 H   0  0  0  0  0  0  0  0  0  0  0  0
    0.5609    2.2800   -0.0240 H   0  0  0  0  0  0  0  0  0  0  0  0
   -0.9095    1.7743   -0.9031 H   0  0  0  0  0  0  0  0  0  0  0  0
   -0.5417    0.9598    1.4935 H   0  0  0  0  0  0  0  0  0  0  0  0
   -0.4330   -1.1222    2.8294 H   0  0  0  0  0  0  0  0  0  0  0  0
    0.4041   -2.0050    1.4412 H   0  0  0  0  0  0  0  0  0  0  0  0
   -1.5582   -1.6337   -0.0592 H   0  0  0  0  0  0  0  0  0  0  0  0
   -2.7350    0.3449    2.0116 H   0  0  0  0  0  0  0  0  0  0  0  0
   -3.5119   -0.2610    0.5364 H   0  0  0  0  0  0  0  0  0  0  0  0
   -3.3516   -1.3721    1.9422 H   0  0  0  0  0  0  0  0  0  0  0  0
  1  2  3  0
  2  3  1  0
  3  4  1  0
  4  5  1  0
  4  6  1  0
  6  7  1  0
  7  8  1  0
  8  9  1  0
  8  6  1  0
  1 10  1  0
  3 11  1  0
  3 12  1  0
  4 13  1  0
  5 14  1  0
  5 15  1  0
  5 16  1  0
  6 17  1  0
  7 18  1  0
  7 19  1  0
  8 20  1  0
  9 21  1  0
  9 22  1  0
  9 23  1  0
M  END
