
     RDKit          3D

 16 16  0  0  0  0  0  0  0  0999 V2000
    2.6281   -1.2722   -0.3725 C   0  0  0  0  0  0  0  0  0  0  0  0
    1.8619   -0.3889   -0.0724 C   0  0  0  0  0  0  0  0  0  0  0  0
    0.9201    0.6676    0.3065 C   0  0  0  0  0  0  0  0  0  0  0  0
    1.1061    1.2669    1.5595 O   0  0  0  0  0  0  0  0  0  0  0  0
    0.2677    1.4783   -0.7853 C   0  0  0  0  0  0  0  0  0  0  0  0
   -0.5387    0.4843   -0.0467 C   0  0  0  0  0  0  0  0  0  0  0  0
   -0.8273   -0.7578   -0.5668 O   0  0  0  0  0  0  0  0  0  0  0  0
   -2.0739   -1.1356   -0.0792 C   0  0  0  0  0  0  0  0  0  0  0  0
    3.3074   -2.0681   -0.6247 H   0  0  0  0  0  0  0  0  0  0  0  0
    1.1634    0.5957    2.2782 H   0  0  0  0  0  0  0  0  0  0  0  0
    0.6068    1.1926   -1.8123 H   0  0  0  0  0  0  0  0  0  0  0  0
    0.0892    2.5542   -0.6041 H   0  0  0  0  0  0  0  0  0  0  0  0
   -1.3101    0.9183    0.6212 H   0  0  0  0  0  0  0  0  0  0  0  0
   -2.4008   -2.1293   -0.4418 H   0  0  0  0  0  0  0  0  0  0  0  0
   -2.0136   -1.0734    1.0262 H   0  0  0  0  0  0  0  0  0  0  0  0
   -2.7862   -0.3325   -0.3859 H   0  0  0  0  0  0  0  0  0  0  0  0
  1  2  3  0
  2  3  1  0
  3  4  1  0
  3  5  1  0
  5  6  1  0
  6  7  1  0
  7  8  1  0
  6  3  1  0
  1  9  1  0
  4 10  1  0
  5 11  1  0
  5 12  1  0
  6 13  1  0
  8 14  1  0
  8 15  1  0
  8 16  1  0
M  END
