
     RDKit          3D

 20 19  0  0  0  0  0  0  0  0999 V2000
    4.2753   -0.9127    0.0096 C   0  0  0  0  0  0  0  0  0  0  0  0
    3.0895   -0.9440   -0.2071 C   0  0  0  0  0  0  0  0  0  0  0  0
    1.6362   -0.9810   -0.4545 C   0  0  0  0  0  0  0  0  0  0  0  0
    1.0261   -0.1164    0.4205 O   0  0  0  0  0  0  0  0  0  0  0  0
   -0.3531   -0.1011    0.2419 C   0  0  0  0  0  0  0  0  0  0  0  0
   -1.0543   -0.5730    1.4966 C   0  0  0  0  0  0  0  0  0  0  0  0
   -0.8357    1.2929   -0.1295 C   0  0  0  0  0  0  0  0  0  0  0  0
   -2.3231    1.2731   -0.3141 C   0  0  0  0  0  0  0  0  0  0  0  0
    5.3302   -0.8845    0.2207 H   0  0  0  0  0  0  0  0  0  0  0  0
    1.2821   -2.0099   -0.2057 H   0  0  0  0  0  0  0  0  0  0  0  0
    1.3852   -0.6824   -1.4921 H   0  0  0  0  0  0  0  0  0  0  0  0
   -0.6017   -0.8044   -0.5757 H   0  0  0  0  0  0  0  0  0  0  0  0
   -0.4164   -1.2481    2.1011 H   0  0  0  0  0  0  0  0  0  0  0  0
   -1.3727    0.2767    2.1367 H   0  0  0  0  0  0  0  0  0  0  0  0
   -1.9821   -1.1141    1.2038 H   0  0  0  0  0  0  0  0  0  0  0  0
   -0.5583    2.0032    0.6810 H   0  0  0  0  0  0  0  0  0  0  0  0
   -0.3646    1.6286   -1.0531 H   0  0  0  0  0  0  0  0  0  0  0  0
   -2.7743    2.2097    0.1258 H   0  0  0  0  0  0  0  0  0  0  0  0
   -2.5688    1.3053   -1.4070 H   0  0  0  0  0  0  0  0  0  0  0  0
   -2.8192    0.3821    0.0985 H   0  0  0  0  0  0  0  0  0  0  0  0
  1  2  3  0
  2  3  1  0
  3  4  1  0
  4  5  1  0
  5  6  1  0
  5  7  1  0
  7  8  1  0
  1  9  1  0
  3 10  1  0
  3 11  1  0
  5 12  1  0
  6 13  1  0
  6 14  1  0
  6 15  1  0
  7 16  1  0
  7 17  1  0
  8 18  1  0
  8 19  1  0
  8 20  1  0
M  END
