
     RDKit          3D

 16 16  0  0  0  0  0  0  0  0999 V2000
    1.8467    1.8596    0.0673 C   0  0  0  0  0  0  0  0  0  0  0  0
    1.3493    0.8030   -0.1147 C   0  0  0  0  0  0  0  0  0  0  0  0
    0.7629   -0.5003   -0.3364 C   0  0  0  0  0  0  0  0  0  0  0  0
    0.6103   -1.3298    0.8990 C   0  0  0  0  0  0  0  0  0  0  0  0
   -0.7993   -0.8111    0.9901 C   0  0  0  0  0  0  0  0  0  0  0  0
   -1.5877   -0.7002    1.8913 O   0  0  0  0  0  0  0  0  0  0  0  0
   -0.7138   -0.5350   -0.4736 C   0  0  0  0  0  0  0  0  0  0  0  0
   -1.4042    0.7710   -0.7698 C   0  0  0  0  0  0  0  0  0  0  0  0
    2.3031    2.8026    0.2171 H   0  0  0  0  0  0  0  0  0  0  0  0
    1.2602   -1.0531   -1.1586 H   0  0  0  0  0  0  0  0  0  0  0  0
    1.2733   -0.9708    1.7011 H   0  0  0  0  0  0  0  0  0  0  0  0
    0.7077   -2.3920    0.6895 H   0  0  0  0  0  0  0  0  0  0  0  0
   -1.0878   -1.3622   -1.0945 H   0  0  0  0  0  0  0  0  0  0  0  0
   -1.2835    1.0308   -1.8514 H   0  0  0  0  0  0  0  0  0  0  0  0
   -2.4354    0.8257   -0.4253 H   0  0  0  0  0  0  0  0  0  0  0  0
   -0.8018    1.5617   -0.2311 H   0  0  0  0  0  0  0  0  0  0  0  0
  1  2  3  0
  2  3  1  0
  3  4  1  0
  4  5  1  0
  5  6  2  0
  5  7  1  0
  7  8  1  0
  7  3  1  0
  1  9  1  0
  3 10  1  0
  4 11  1  0
  4 12  1  0
  7 13  1  0
  8 14  1  0
  8 15  1  0
  8 16  1  0
M  END
