
     RDKit          3D

 19 18  0  0  0  0  0  0  0  0999 V2000
    2.2436    2.1568    0.0748 C   0  0  0  0  0  0  0  0  0  0  0  0
    1.5668    1.2035   -0.2236 C   0  0  0  0  0  0  0  0  0  0  0  0
    0.7571    0.0241   -0.5760 C   0  0  0  0  0  0  0  0  0  0  0  0
    1.3537   -1.2461   -0.0433 C   0  0  0  0  0  0  0  0  0  0  0  0
   -0.6462    0.2720   -0.1295 C   0  0  0  0  0  0  0  0  0  0  0  0
   -0.7746    0.4977    1.3268 C   0  0  0  0  0  0  0  0  0  0  0  0
    0.1154    0.9596    2.0195 O   0  0  0  0  0  0  0  0  0  0  0  0
   -1.5901   -0.8108   -0.6153 C   0  0  0  0  0  0  0  0  0  0  0  0
   -2.8873   -0.5506   -0.1828 O   0  0  0  0  0  0  0  0  0  0  0  0
    2.8486    3.0089    0.3250 H   0  0  0  0  0  0  0  0  0  0  0  0
    0.7511   -0.0410   -1.6841 H   0  0  0  0  0  0  0  0  0  0  0  0
    2.2918   -0.9583    0.5119 H   0  0  0  0  0  0  0  0  0  0  0  0
    0.7048   -1.8174    0.6127 H   0  0  0  0  0  0  0  0  0  0  0  0
    1.6938   -1.9170   -0.8619 H   0  0  0  0  0  0  0  0  0  0  0  0
   -0.9743    1.2134   -0.6308 H   0  0  0  0  0  0  0  0  0  0  0  0
   -1.7000    0.2547    1.8694 H   0  0  0  0  0  0  0  0  0  0  0  0
   -1.5670   -0.9015   -1.7075 H   0  0  0  0  0  0  0  0  0  0  0  0
   -1.2677   -1.7605   -0.1061 H   0  0  0  0  0  0  0  0  0  0  0  0
   -2.9198    0.4126    0.1045 H   0  0  0  0  0  0  0  0  0  0  0  0
  1  2  3  0
  2  3  1  0
  3  4  1  0
  3  5  1  0
  5  6  1  0
  6  7  2  0
  5  8  1  0
  8  9  1  0
  1 10  1  0
  3 11  1  0
  4 12  1  0
  4 13  1  0
  4 14  1  0
  5 15  1  0
  6 16  1  0
  8 17  1  0
  8 18  1  0
  9 19  1  0
M  END
