
     RDKit          3D

 19 19  0  0  0  0  0  0  0  0999 V2000
    2.6678   -0.9923    0.7641 C   0  0  0  0  0  0  0  0  0  0  0  0
    1.4931   -0.5683    1.0687 C   0  0  0  0  0  0  0  0  0  0  0  0
    0.1969   -0.1262    1.4057 C   0  0  0  0  0  0  0  0  0  0  0  0
   -0.4604   -0.4221    2.5020 O   0  0  0  0  0  0  0  0  0  0  0  0
   -0.4118    0.7902    0.2740 C   0  0  0  0  0  0  0  0  0  0  0  0
    0.4521    1.9364   -0.0600 C   0  0  0  0  0  0  0  0  0  0  0  0
   -1.7523    0.5571   -0.2174 C   0  0  0  0  0  0  0  0  0  0  0  0
   -0.6267   -0.2329   -0.9398 C   0  0  0  0  0  0  0  0  0  0  0  0
   -0.5750   -1.7176   -0.6802 C   0  0  0  0  0  0  0  0  0  0  0  0
    3.9222   -1.4218    0.4415 H   0  0  0  0  0  0  0  0  0  0  0  0
    1.3722    1.7466   -0.6380 H   0  0  0  0  0  0  0  0  0  0  0  0
    0.6445    2.4771    0.8773 H   0  0  0  0  0  0  0  0  0  0  0  0
   -0.1839    2.7036   -0.6551 H   0  0  0  0  0  0  0  0  0  0  0  0
   -2.1488    1.4250   -0.7288 H   0  0  0  0  0  0  0  0  0  0  0  0
   -2.4565   -0.0652    0.3357 H   0  0  0  0  0  0  0  0  0  0  0  0
   -0.2535    0.1509   -1.8913 H   0  0  0  0  0  0  0  0  0  0  0  0
   -1.1661   -1.9284    0.2379 H   0  0  0  0  0  0  0  0  0  0  0  0
    0.4357   -2.1107   -0.5635 H   0  0  0  0  0  0  0  0  0  0  0  0
   -1.1497   -2.2015   -1.5327 H   0  0  0  0  0  0  0  0  0  0  0  0
  1  2  3  0
  2  3  1  0
  3  4  2  0
  3  5  1  0
  5  6  1  0
  5  7  1  0
  7  8  1  0
  8  9  1  0
  8  5  1  0
  1 10  1  0
  6 11  1  0
  6 12  1  0
  6 13  1  0
  7 14  1  0
  7 15  1  0
  8 16  1  0
  9 17  1  0
  9 18  1  0
  9 19  1  0
M  END
