
     RDKit          3D

 14 14  0  0  0  0  0  0  0  0999 V2000
    3.6555    1.1207    2.0706 C   0  0  0  0  0  0  0  0  0  0  0  0
    2.7127    0.6656    1.4529 C   0  0  0  0  0  0  0  0  0  0  0  0
    1.6565    0.1361    0.7744 C   0  0  0  0  0  0  0  0  0  0  0  0
    0.6847   -0.3288    0.1561 C   0  0  0  0  0  0  0  0  0  0  0  0
   -0.4942   -0.8708   -0.5738 C   0  0  0  0  0  0  0  0  0  0  0  0
   -1.2758    0.7042   -0.6227 C   0  0  0  0  0  0  0  0  0  0  0  0
   -2.2054    0.0773    0.2224 O   0  0  0  0  0  0  0  0  0  0  0  0
   -1.7911   -1.1475   -0.4411 C   0  0  0  0  0  0  0  0  0  0  0  0
    3.9555    1.2697    2.2744 H   0  0  0  0  0  0  0  0  0  0  0  0
   -0.0394   -0.8585   -1.7334 H   0  0  0  0  0  0  0  0  0  0  0  0
   -0.5507    1.3171   -0.1411 H   0  0  0  0  0  0  0  0  0  0  0  0
   -1.5234    0.7272   -1.6941 H   0  0  0  0  0  0  0  0  0  0  0  0
   -2.4954   -1.9695   -0.1676 H   0  0  0  0  0  0  0  0  0  0  0  0
   -2.2894   -0.8428   -1.5770 H   0  0  0  0  0  0  0  0  0  0  0  0
  1  2  3  0
  2  3  1  0
  3  4  3  0
  4  5  1  0
  5  6  1  0
  6  7  1  0
  7  8  1  0
  8  5  1  0
  1  9  1  0
  5 10  1  0
  6 11  1  0
  6 12  1  0
  8 13  1  0
  8 14  1  0
M  END
