
     RDKit          3D

 15 16  0  0  0  0  0  0  0  0999 V2000
    2.5194   -0.4277    1.1440 C   0  0  0  0  0  0  0  0  0  0  0  0
    1.6648   -0.2574    0.2883 C   0  0  0  0  0  0  0  0  0  0  0  0
    0.6428   -0.0469   -0.7023 C   0  0  0  0  0  0  0  0  0  0  0  0
   -0.2281   -1.2562   -0.9094 C   0  0  0  0  0  0  0  0  0  0  0  0
   -1.1998   -0.3682   -1.3278 O   0  0  0  0  0  0  0  0  0  0  0  0
   -0.6954    0.2727   -0.1641 C   0  0  0  0  0  0  0  0  0  0  0  0
   -1.1853    1.4517    0.3419 C   0  0  0  0  0  0  0  0  0  0  0  0
   -0.7163   -1.0607    0.4432 C   0  0  0  0  0  0  0  0  0  0  0  0
   -0.9845   -1.6443    1.4696 O   0  0  0  0  0  0  0  0  0  0  0  0
    3.2600   -0.5614    1.8661 H   0  0  0  0  0  0  0  0  0  0  0  0
    0.9553    0.4411   -1.6429 H   0  0  0  0  0  0  0  0  0  0  0  0
    0.0638   -2.1153   -1.3559 H   0  0  0  0  0  0  0  0  0  0  0  0
   -2.0516    1.8967   -0.2343 H   0  0  0  0  0  0  0  0  0  0  0  0
   -1.6027    1.3758    1.3904 H   0  0  0  0  0  0  0  0  0  0  0  0
   -0.4423    2.3004    0.4038 H   0  0  0  0  0  0  0  0  0  0  0  0
  1  2  3  0
  2  3  1  0
  3  4  1  0
  4  5  1  0
  5  6  1  0
  6  7  1  0
  6  8  1  0
  8  9  2  0
  6  3  1  0
  8  4  1  0
  1 10  1  0
  3 11  1  0
  4 12  1  0
  7 13  1  0
  7 14  1  0
  7 15  1  0
M  END
