
     RDKit          3D

 12 11  0  0  0  0  0  0  0  0999 V2000
   -2.3424    1.4862   -0.1691 C   0  0  0  0  0  0  0  0  0  0  0  0
   -1.8814    0.3783   -0.2892 C   0  0  0  0  0  0  0  0  0  0  0  0
   -1.3009   -0.9728   -0.4561 C   0  0  0  0  0  0  0  0  0  0  0  0
    0.0826   -0.8062   -0.7093 O   0  0  0  0  0  0  0  0  0  0  0  0
    0.8567   -0.1683    0.2473 C   0  0  0  0  0  0  0  0  0  0  0  0
    0.3026    0.2371    1.3006 O   0  0  0  0  0  0  0  0  0  0  0  0
    2.2587    0.0041   -0.0023 C   0  0  0  0  0  0  0  0  0  0  0  0
    3.4456    0.1421   -0.2317 C   0  0  0  0  0  0  0  0  0  0  0  0
   -2.7491    2.4697   -0.0486 H   0  0  0  0  0  0  0  0  0  0  0  0
   -1.4105   -1.5622    0.4832 H   0  0  0  0  0  0  0  0  0  0  0  0
   -1.7504   -1.4621   -1.3344 H   0  0  0  0  0  0  0  0  0  0  0  0
    4.4885    0.2539   -0.4201 H   0  0  0  0  0  0  0  0  0  0  0  0
  1  2  3  0
  2  3  1  0
  3  4  1  0
  4  5  1  0
  5  6  2  0
  5  7  1  0
  7  8  3  0
  1  9  1  0
  3 10  1  0
  3 11  1  0
  8 12  1  0
M  END
