
     RDKit          3D

 19 19  0  0  0  0  0  0  0  0999 V2000
    2.5699   -1.6389    0.1278 C   0  0  0  0  0  0  0  0  0  0  0  0
    1.6558   -0.6688    0.2318 C   0  0  0  0  0  0  0  0  0  0  0  0
    0.7421    0.3226    0.3540 C   0  0  0  0  0  0  0  0  0  0  0  0
    1.3828    1.3775   -0.6562 C   0  0  0  0  0  0  0  0  0  0  0  0
    1.7431    2.4083   -0.3061 O   0  0  0  0  0  0  0  0  0  0  0  0
   -0.2003    0.7885    1.2565 C   0  0  0  0  0  0  0  0  0  0  0  0
   -0.6656   -0.0088    0.1104 C   0  0  0  0  0  0  0  0  0  0  0  0
   -1.4041    0.6829   -1.0511 C   0  0  0  0  0  0  0  0  0  0  0  0
   -1.1359   -1.3933    0.4595 C   0  0  0  0  0  0  0  0  0  0  0  0
    3.3208   -2.4267    0.0359 H   0  0  0  0  0  0  0  0  0  0  0  0
    1.4304    0.9217   -1.6577 H   0  0  0  0  0  0  0  0  0  0  0  0
   -0.4665    1.9523    1.1758 H   0  0  0  0  0  0  0  0  0  0  0  0
   -0.3368    0.4618    2.3104 H   0  0  0  0  0  0  0  0  0  0  0  0
   -0.7813    1.1650   -1.7937 H   0  0  0  0  0  0  0  0  0  0  0  0
   -1.9867   -0.0997   -1.6043 H   0  0  0  0  0  0  0  0  0  0  0  0
   -2.1679    1.3952   -0.6198 H   0  0  0  0  0  0  0  0  0  0  0  0
   -2.1003   -1.3987    0.9978 H   0  0  0  0  0  0  0  0  0  0  0  0
   -1.3010   -2.0284   -0.4427 H   0  0  0  0  0  0  0  0  0  0  0  0
   -0.2986   -1.8125    1.0719 H   0  0  0  0  0  0  0  0  0  0  0  0
  1  2  3  0
  2  3  1  0
  3  4  1  0
  4  5  2  0
  3  6  1  0
  6  7  1  0
  7  8  1  0
  7  9  1  0
  7  3  1  0
  1 10  1  0
  4 11  1  0
  6 12  1  0
  6 13  1  0
  8 14  1  0
  8 15  1  0
  8 16  1  0
  9 17  1  0
  9 18  1  0
  9 19  1  0
M  END
