
     RDKit          3D

 17 16  0  0  0  0  0  0  0  0999 V2000
    4.5030    0.5756   -0.6233 C   0  0  0  0  0  0  0  0  0  0  0  0
    3.6903   -0.2175   -0.2095 C   0  0  0  0  0  0  0  0  0  0  0  0
    2.7239   -1.1724    0.2941 C   0  0  0  0  0  0  0  0  0  0  0  0
    1.3851   -0.5985    0.0354 C   0  0  0  0  0  0  0  0  0  0  0  0
    0.2901   -0.1282   -0.1626 C   0  0  0  0  0  0  0  0  0  0  0  0
   -1.0087    0.4080   -0.3887 C   0  0  0  0  0  0  0  0  0  0  0  0
   -1.1706    1.2628   -1.2813 O   0  0  0  0  0  0  0  0  0  0  0  0
   -2.1802   -0.0164    0.4036 C   0  0  0  0  0  0  0  0  0  0  0  0
   -3.4441    0.6548    0.0195 C   0  0  0  0  0  0  0  0  0  0  0  0
    5.2191    1.2769   -1.0030 H   0  0  0  0  0  0  0  0  0  0  0  0
    2.7790   -2.1451   -0.2412 H   0  0  0  0  0  0  0  0  0  0  0  0
    2.8626   -1.3801    1.3841 H   0  0  0  0  0  0  0  0  0  0  0  0
   -2.2990   -1.1285    0.2730 H   0  0  0  0  0  0  0  0  0  0  0  0
   -1.9187    0.1234    1.4858 H   0  0  0  0  0  0  0  0  0  0  0  0
   -3.9005    1.1012    0.9405 H   0  0  0  0  0  0  0  0  0  0  0  0
   -4.1977   -0.0795   -0.3570 H   0  0  0  0  0  0  0  0  0  0  0  0
   -3.3335    1.4634   -0.7258 H   0  0  0  0  0  0  0  0  0  0  0  0
  1  2  3  0
  2  3  1  0
  3  4  1  0
  4  5  3  0
  5  6  1  0
  6  7  2  0
  6  8  1  0
  8  9  1  0
  1 10  1  0
  3 11  1  0
  3 12  1  0
  8 13  1  0
  8 14  1  0
  9 15  1  0
  9 16  1  0
  9 17  1  0
M  END
