
     RDKit          3D

 17 17  0  0  0  0  0  0  0  0999 V2000
    4.7932    0.9154   -0.9504 C   0  0  0  0  0  0  0  0  0  0  0  0
    3.6426    0.6551   -0.6261 C   0  0  0  0  0  0  0  0  0  0  0  0
    2.3111    0.3612   -0.2756 C   0  0  0  0  0  0  0  0  0  0  0  0
    1.1674    0.0903    0.0154 C   0  0  0  0  0  0  0  0  0  0  0  0
   -0.2034   -0.2204    0.3455 C   0  0  0  0  0  0  0  0  0  0  0  0
   -1.2274    0.6690   -0.3072 C   0  0  0  0  0  0  0  0  0  0  0  0
   -2.6440    0.3093    0.0648 C   0  0  0  0  0  0  0  0  0  0  0  0
   -0.5669   -1.7031    0.2875 C   0  0  0  0  0  0  0  0  0  0  0  0
   -0.5032   -0.8911    1.5073 O   0  0  0  0  0  0  0  0  0  0  0  0
    5.7907    1.1359   -1.2301 H   0  0  0  0  0  0  0  0  0  0  0  0
   -1.0174    1.6991   -0.0232 H   0  0  0  0  0  0  0  0  0  0  0  0
   -1.1209    0.5677   -1.4048 H   0  0  0  0  0  0  0  0  0  0  0  0
   -3.2855    1.1583   -0.2894 H   0  0  0  0  0  0  0  0  0  0  0  0
   -3.0166   -0.5910   -0.4750 H   0  0  0  0  0  0  0  0  0  0  0  0
   -2.7921    0.2518    1.1577 H   0  0  0  0  0  0  0  0  0  0  0  0
   -1.5953   -1.9948    0.0456 H   0  0  0  0  0  0  0  0  0  0  0  0
    0.2676   -2.4127    0.1721 H   0  0  0  0  0  0  0  0  0  0  0  0
  1  2  3  0
  2  3  1  0
  3  4  3  0
  4  5  1  0
  5  6  1  0
  6  7  1  0
  5  8  1  0
  8  9  1  0
  9  5  1  0
  1 10  1  0
  6 11  1  0
  6 12  1  0
  7 13  1  0
  7 14  1  0
  7 15  1  0
  8 16  1  0
  8 17  1  0
M  END
