
     RDKit          3D

 21 22  0  0  0  0  0  0  0  0999 V2000
    2.4796    1.7720    0.4379 C   0  0  0  0  0  0  0  0  0  0  0  0
    2.1578    0.7780   -0.1426 C   0  0  0  0  0  0  0  0  0  0  0  0
    1.7127   -0.6073   -0.9182 C   0  0  0  0  0  0  0  0  0  0  0  0
    0.3194   -0.7552   -0.1778 C   0  0  0  0  0  0  0  0  0  0  0  0
   -0.2560   -2.1504   -0.4951 C   0  0  0  0  0  0  0  0  0  0  0  0
   -0.0794    0.0950    0.8912 C   0  0  0  0  0  0  0  0  0  0  0  0
   -1.0177    1.3818    0.9360 C   0  0  0  0  0  0  0  0  0  0  0  0
   -2.0235    0.4120    0.1992 C   0  0  0  0  0  0  0  0  0  0  0  0
   -0.6788    0.2158   -0.5943 C   0  0  0  0  0  0  0  0  0  0  0  0
    2.7636    2.6637    0.9787 H   0  0  0  0  0  0  0  0  0  0  0  0
    2.3987   -1.2836   -0.8267 H   0  0  0  0  0  0  0  0  0  0  0  0
    1.3806   -0.1574   -1.8982 H   0  0  0  0  0  0  0  0  0  0  0  0
    0.5723   -2.8539   -0.4043 H   0  0  0  0  0  0  0  0  0  0  0  0
   -1.1222   -2.3388    0.1535 H   0  0  0  0  0  0  0  0  0  0  0  0
   -0.6330   -2.1850   -1.5605 H   0  0  0  0  0  0  0  0  0  0  0  0
   -0.7108   -0.5859    1.6392 H   0  0  0  0  0  0  0  0  0  0  0  0
   -0.6974    2.1397    0.2518 H   0  0  0  0  0  0  0  0  0  0  0  0
   -1.2880    1.7073    1.8919 H   0  0  0  0  0  0  0  0  0  0  0  0
   -2.7970    0.8559   -0.3729 H   0  0  0  0  0  0  0  0  0  0  0  0
   -2.1997   -0.3806    0.9275 H   0  0  0  0  0  0  0  0  0  0  0  0
   -0.2812    1.2768   -0.9164 H   0  0  0  0  0  0  0  0  0  0  0  0
  1  2  3  0
  2  3  1  0
  3  4  1  0
  4  5  1  0
  4  6  1  0
  6  7  1  0
  7  8  1  0
  8  9  1  0
  9  4  1  0
  9  6  1  0
  1 10  1  0
  3 11  1  0
  3 12  1  0
  5 13  1  0
  5 14  1  0
  5 15  1  0
  6 16  1  0
  7 17  1  0
  7 18  1  0
  8 19  1  0
  8 20  1  0
  9 21  1  0
M  END
