
     RDKit          3D

 19 20  0  0  0  0  0  0  0  0999 V2000
    0.6519    2.6437    1.5902 C   0  0  0  0  0  0  0  0  0  0  0  0
    0.6417    1.7910    0.7276 C   0  0  0  0  0  0  0  0  0  0  0  0
    0.6109    0.7848   -0.3147 C   0  0  0  0  0  0  0  0  0  0  0  0
   -0.5074    0.6608   -1.2584 C   0  0  0  0  0  0  0  0  0  0  0  0
   -1.8751    1.0078   -0.7141 C   0  0  0  0  0  0  0  0  0  0  0  0
   -1.6819   -0.0003    0.2433 O   0  0  0  0  0  0  0  0  0  0  0  0
   -0.4050   -0.2864   -0.1612 C   0  0  0  0  0  0  0  0  0  0  0  0
    0.0771   -1.6967   -0.3080 C   0  0  0  0  0  0  0  0  0  0  0  0
    1.1413   -1.9204    0.7749 C   0  0  0  0  0  0  0  0  0  0  0  0
    0.6730    3.4030    2.3385 H   0  0  0  0  0  0  0  0  0  0  0  0
    1.6032    0.4845   -0.6820 H   0  0  0  0  0  0  0  0  0  0  0  0
   -0.3827    0.4130   -2.3227 H   0  0  0  0  0  0  0  0  0  0  0  0
   -2.7224    0.8441   -1.3856 H   0  0  0  0  0  0  0  0  0  0  0  0
   -1.8568    2.0024   -0.2336 H   0  0  0  0  0  0  0  0  0  0  0  0
   -0.7083   -2.4522   -0.1779 H   0  0  0  0  0  0  0  0  0  0  0  0
    0.5089   -1.8227   -1.3087 H   0  0  0  0  0  0  0  0  0  0  0  0
    1.2181   -2.9837    1.0537 H   0  0  0  0  0  0  0  0  0  0  0  0
    2.1321   -1.5138    0.4362 H   0  0  0  0  0  0  0  0  0  0  0  0
    0.8813   -1.3588    1.7024 H   0  0  0  0  0  0  0  0  0  0  0  0
  1  2  3  0
  2  3  1  0
  3  4  1  0
  4  5  1  0
  5  6  1  0
  6  7  1  0
  7  8  1  0
  8  9  1  0
  7  3  1  0
  7  4  1  0
  1 10  1  0
  3 11  1  0
  4 12  1  0
  5 13  1  0
  5 14  1  0
  8 15  1  0
  8 16  1  0
  9 17  1  0
  9 18  1  0
  9 19  1  0
M  END
