
     RDKit          3D

 21 21  0  0  0  0  0  0  0  0999 V2000
    2.5782    3.2440   -0.3149 C   0  0  0  0  0  0  0  0  0  0  0  0
    2.1258    2.1710   -0.2401 C   0  0  0  0  0  0  0  0  0  0  0  0
    1.5511    0.7867   -0.1187 C   0  0  0  0  0  0  0  0  0  0  0  0
    0.5142    0.8024    1.0025 C   0  0  0  0  0  0  0  0  0  0  0  0
   -0.3354   -0.0506    0.0742 C   0  0  0  0  0  0  0  0  0  0  0  0
   -0.0108   -1.3889    0.0553 O   0  0  0  0  0  0  0  0  0  0  0  0
   -1.1736   -2.1588    0.0794 C   0  0  0  0  0  0  0  0  0  0  0  0
   -1.9437   -1.8048    1.3327 C   0  0  0  0  0  0  0  0  0  0  0  0
    0.3726    0.6354   -1.1023 C   0  0  0  0  0  0  0  0  0  0  0  0
    2.9943    4.2408   -0.3680 H   0  0  0  0  0  0  0  0  0  0  0  0
    2.2536   -0.0187   -0.1484 H   0  0  0  0  0  0  0  0  0  0  0  0
    0.1293    1.8082    1.1812 H   0  0  0  0  0  0  0  0  0  0  0  0
    0.8548    0.2789    1.9021 H   0  0  0  0  0  0  0  0  0  0  0  0
   -1.3837    0.1620    0.1525 H   0  0  0  0  0  0  0  0  0  0  0  0
   -0.9122   -3.2584    0.0740 H   0  0  0  0  0  0  0  0  0  0  0  0
   -1.8367   -1.9393   -0.7866 H   0  0  0  0  0  0  0  0  0  0  0  0
   -2.7192   -1.0793    1.0577 H   0  0  0  0  0  0  0  0  0  0  0  0
   -2.3452   -2.7609    1.7389 H   0  0  0  0  0  0  0  0  0  0  0  0
   -1.2356   -1.3255    2.0385 H   0  0  0  0  0  0  0  0  0  0  0  0
   -0.0990    1.6301   -1.2689 H   0  0  0  0  0  0  0  0  0  0  0  0
    0.6214    0.0257   -1.9501 H   0  0  0  0  0  0  0  0  0  0  0  0
  1  2  3  0
  2  3  1  0
  3  4  1  0
  4  5  1  0
  5  6  1  0
  6  7  1  0
  7  8  1  0
  5  9  1  0
  9  3  1  0
  1 10  1  0
  3 11  1  0
  4 12  1  0
  4 13  1  0
  5 14  1  0
  7 15  1  0
  7 16  1  0
  8 17  1  0
  8 18  1  0
  8 19  1  0
  9 20  1  0
  9 21  1  0
M  END
