
     RDKit          3D

 21 21  0  0  0  0  0  0  0  0999 V2000
   -1.2925    2.5111   -1.6409 C   0  0  0  0  0  0  0  0  0  0  0  0
   -0.9107    1.7366   -0.7806 C   0  0  0  0  0  0  0  0  0  0  0  0
   -0.4290    0.8089    0.2450 C   0  0  0  0  0  0  0  0  0  0  0  0
   -1.6092    0.4089    1.1540 C   0  0  0  0  0  0  0  0  0  0  0  0
   -1.2801   -0.9934    1.5210 C   0  0  0  0  0  0  0  0  0  0  0  0
   -0.4473   -1.4998    0.6374 C   0  0  0  0  0  0  0  0  0  0  0  0
   -0.1457   -0.4970   -0.3917 C   0  0  0  0  0  0  0  0  0  0  0  0
    1.2179   -0.6309   -0.9908 C   0  0  0  0  0  0  0  0  0  0  0  0
    2.3386   -0.4648   -0.0310 C   0  0  0  0  0  0  0  0  0  0  0  0
   -1.6092    3.1952   -2.3885 H   0  0  0  0  0  0  0  0  0  0  0  0
    0.3626    1.2490    0.8389 H   0  0  0  0  0  0  0  0  0  0  0  0
   -1.5972    1.0125    2.0653 H   0  0  0  0  0  0  0  0  0  0  0  0
   -2.5358    0.5004    0.5666 H   0  0  0  0  0  0  0  0  0  0  0  0
   -1.7124   -1.4526    2.4087 H   0  0  0  0  0  0  0  0  0  0  0  0
   -0.0704   -2.5274    0.7152 H   0  0  0  0  0  0  0  0  0  0  0  0
   -0.8985   -0.6242   -1.2164 H   0  0  0  0  0  0  0  0  0  0  0  0
    1.2929   -1.6020   -1.5030 H   0  0  0  0  0  0  0  0  0  0  0  0
    1.3143    0.1537   -1.7772 H   0  0  0  0  0  0  0  0  0  0  0  0
    3.2869   -0.6760   -0.5692 H   0  0  0  0  0  0  0  0  0  0  0  0
    2.4287    0.5888    0.3335 H   0  0  0  0  0  0  0  0  0  0  0  0
    2.2961   -1.1967    0.8038 H   0  0  0  0  0  0  0  0  0  0  0  0
  1  2  3  0
  2  3  1  0
  3  4  1  0
  4  5  1  0
  5  6  2  0
  6  7  1  0
  7  8  1  0
  8  9  1  0
  7  3  1  0
  1 10  1  0
  3 11  1  0
  4 12  1  0
  4 13  1  0
  5 14  1  0
  6 15  1  0
  7 16  1  0
  8 17  1  0
  8 18  1  0
  9 19  1  0
  9 20  1  0
  9 21  1  0
M  END
