
     RDKit          3D

 14 14  0  0  0  0  0  0  0  0999 V2000
    0.2406   -1.1516   -2.3785 C   0  0  0  0  0  0  0  0  0  0  0  0
    0.1087   -0.7436   -1.2610 C   0  0  0  0  0  0  0  0  0  0  0  0
   -0.0705   -0.2363    0.1182 C   0  0  0  0  0  0  0  0  0  0  0  0
   -1.5194   -0.2881    0.5106 C   0  0  0  0  0  0  0  0  0  0  0  0
    0.5840    1.1346    0.3158 C   0  0  0  0  0  0  0  0  0  0  0  0
    1.5352    0.3779    1.1690 C   0  0  0  0  0  0  0  0  0  0  0  0
    2.5911    0.6957    1.7743 O   0  0  0  0  0  0  0  0  0  0  0  0
    0.8224   -0.8068    1.0464 O   0  0  0  0  0  0  0  0  0  0  0  0
    0.3503   -1.5077   -3.4008 H   0  0  0  0  0  0  0  0  0  0  0  0
   -2.1286   -0.9537   -0.1515 H   0  0  0  0  0  0  0  0  0  0  0  0
   -1.8997    0.7592    0.5096 H   0  0  0  0  0  0  0  0  0  0  0  0
   -1.6228   -0.6423    1.5618 H   0  0  0  0  0  0  0  0  0  0  0  0
    1.0439    1.4889   -0.6459 H   0  0  0  0  0  0  0  0  0  0  0  0
   -0.0353    1.8738    0.8320 H   0  0  0  0  0  0  0  0  0  0  0  0
  1  2  3  0
  2  3  1  0
  3  4  1  0
  3  5  1  0
  5  6  1  0
  6  7  2  0
  6  8  1  0
  8  3  1  0
  1  9  1  0
  4 10  1  0
  4 11  1  0
  4 12  1  0
  5 13  1  0
  5 14  1  0
M  END
