
     RDKit          3D

 21 21  0  0  0  0  0  0  0  0999 V2000
    0.3440    3.2764    0.4516 C   0  0  0  0  0  0  0  0  0  0  0  0
    0.7000    2.0299   -0.0427 C   0  0  0  0  0  0  0  0  0  0  0  0
    1.1004    0.6187   -0.5963 C   0  0  0  0  0  0  0  0  0  0  0  0
    1.2275   -0.3026    0.6322 C   0  0  0  0  0  0  0  0  0  0  0  0
   -0.1639    0.0675    0.9614 C   0  0  0  0  0  0  0  0  0  0  0  0
   -1.1789   -0.8509    1.4829 C   0  0  0  0  0  0  0  0  0  0  0  0
   -0.3065    0.0510   -0.6708 C   0  0  0  0  0  0  0  0  0  0  0  0
   -0.4726   -1.2471   -1.2761 C   0  0  0  0  0  0  0  0  0  0  0  0
    0.0907   -1.1059   -2.6261 O   0  0  0  0  0  0  0  0  0  0  0  0
    0.0940    4.1378    0.7997 H   0  0  0  0  0  0  0  0  0  0  0  0
    1.8872    0.7641   -1.1990 H   0  0  0  0  0  0  0  0  0  0  0  0
    1.1718   -1.3936    0.3563 H   0  0  0  0  0  0  0  0  0  0  0  0
    2.0422   -0.0620    1.2962 H   0  0  0  0  0  0  0  0  0  0  0  0
   -0.3163    1.0983    1.2742 H   0  0  0  0  0  0  0  0  0  0  0  0
   -1.4322   -0.6336    2.5316 H   0  0  0  0  0  0  0  0  0  0  0  0
   -2.1560   -0.6366    0.8841 H   0  0  0  0  0  0  0  0  0  0  0  0
   -0.9464   -1.8854    1.3404 H   0  0  0  0  0  0  0  0  0  0  0  0
   -1.1411    0.8019   -0.7869 H   0  0  0  0  0  0  0  0  0  0  0  0
   -0.0787   -2.1553   -0.8423 H   0  0  0  0  0  0  0  0  0  0  0  0
   -1.5607   -1.3926   -1.5508 H   0  0  0  0  0  0  0  0  0  0  0  0
    1.0954   -1.1800   -2.4198 H   0  0  0  0  0  0  0  0  0  0  0  0
  1  2  3  0
  2  3  1  0
  3  4  1  0
  4  5  1  0
  5  6  1  0
  5  7  1  0
  7  8  1  0
  8  9  1  0
  7  3  1  0
  1 10  1  0
  3 11  1  0
  4 12  1  0
  4 13  1  0
  5 14  1  0
  6 15  1  0
  6 16  1  0
  6 17  1  0
  7 18  1  0
  8 19  1  0
  8 20  1  0
  9 21  1  0
M  END
