
     RDKit          3D

 19 19  0  0  0  0  0  0  0  0999 V2000
    3.2537   -0.7001   -0.4859 C   0  0  0  0  0  0  0  0  0  0  0  0
    2.1692   -0.2703   -0.7947 C   0  0  0  0  0  0  0  0  0  0  0  0
    0.8447    0.2800   -1.1763 C   0  0  0  0  0  0  0  0  0  0  0  0
   -0.2918   -0.6659   -0.9636 C   0  0  0  0  0  0  0  0  0  0  0  0
   -0.6681    0.1188    0.2485 C   0  0  0  0  0  0  0  0  0  0  0  0
   -0.3082   -0.5220    1.5682 C   0  0  0  0  0  0  0  0  0  0  0  0
   -2.0828    0.6650    0.2492 C   0  0  0  0  0  0  0  0  0  0  0  0
    0.2749    1.1986   -0.1538 C   0  0  0  0  0  0  0  0  0  0  0  0
    0.5266    2.3605    0.1723 O   0  0  0  0  0  0  0  0  0  0  0  0
    4.2032   -1.0894   -0.2229 H   0  0  0  0  0  0  0  0  0  0  0  0
    0.8669    0.7529   -2.1720 H   0  0  0  0  0  0  0  0  0  0  0  0
    0.0764   -1.6891   -0.6771 H   0  0  0  0  0  0  0  0  0  0  0  0
   -1.0262   -0.7092   -1.7832 H   0  0  0  0  0  0  0  0  0  0  0  0
   -0.3154   -1.6337    1.4444 H   0  0  0  0  0  0  0  0  0  0  0  0
    0.7402   -0.2715    1.8667 H   0  0  0  0  0  0  0  0  0  0  0  0
   -1.0236   -0.1683    2.3267 H   0  0  0  0  0  0  0  0  0  0  0  0
   -2.2461    1.4044    1.0372 H   0  0  0  0  0  0  0  0  0  0  0  0
   -2.7704   -0.2013    0.2721 H   0  0  0  0  0  0  0  0  0  0  0  0
   -2.2232    1.1404   -0.7560 H   0  0  0  0  0  0  0  0  0  0  0  0
  1  2  3  0
  2  3  1  0
  3  4  1  0
  4  5  1  0
  5  6  1  0
  5  7  1  0
  5  8  1  0
  8  9  2  0
  8  3  1  0
  1 10  1  0
  3 11  1  0
  4 12  1  0
  4 13  1  0
  6 14  1  0
  6 15  1  0
  6 16  1  0
  7 17  1  0
  7 18  1  0
  7 19  1  0
M  END
