
     RDKit          3D

 20 19  0  0  0  0  0  0  0  0999 V2000
    2.3448    1.1911   -1.3945 C   0  0  0  0  0  0  0  0  0  0  0  0
    1.8676    0.1739   -0.9293 C   0  0  0  0  0  0  0  0  0  0  0  0
    1.3099   -1.0457   -0.3509 C   0  0  0  0  0  0  0  0  0  0  0  0
   -0.1995   -0.9806   -0.4026 C   0  0  0  0  0  0  0  0  0  0  0  0
   -0.8239   -2.2264    0.1875 C   0  0  0  0  0  0  0  0  0  0  0  0
   -0.7372    0.2021    0.3568 C   0  0  0  0  0  0  0  0  0  0  0  0
   -0.2704    1.4167   -0.1427 O   0  0  0  0  0  0  0  0  0  0  0  0
   -0.8521    2.4178    0.6588 C   0  0  0  0  0  0  0  0  0  0  0  0
    2.7764    2.0682   -1.8019 H   0  0  0  0  0  0  0  0  0  0  0  0
    1.7006   -1.1649    0.6737 H   0  0  0  0  0  0  0  0  0  0  0  0
    1.6145   -1.9415   -0.9308 H   0  0  0  0  0  0  0  0  0  0  0  0
   -0.5060   -0.8782   -1.4477 H   0  0  0  0  0  0  0  0  0  0  0  0
   -1.0492   -2.9861   -0.5921 H   0  0  0  0  0  0  0  0  0  0  0  0
   -1.7710   -1.9907    0.6838 H   0  0  0  0  0  0  0  0  0  0  0  0
   -0.1437   -2.6530    0.9756 H   0  0  0  0  0  0  0  0  0  0  0  0
   -1.8392    0.2080    0.2307 H   0  0  0  0  0  0  0  0  0  0  0  0
   -0.4981    0.1660    1.4313 H   0  0  0  0  0  0  0  0  0  0  0  0
   -0.5487    3.4281    0.3495 H   0  0  0  0  0  0  0  0  0  0  0  0
   -0.4378    2.2837    1.6973 H   0  0  0  0  0  0  0  0  0  0  0  0
   -1.9371    2.3117    0.7474 H   0  0  0  0  0  0  0  0  0  0  0  0
  1  2  3  0
  2  3  1  0
  3  4  1  0
  4  5  1  0
  4  6  1  0
  6  7  1  0
  7  8  1  0
  1  9  1  0
  3 10  1  0
  3 11  1  0
  4 12  1  0
  5 13  1  0
  5 14  1  0
  5 15  1  0
  6 16  1  0
  6 17  1  0
  8 18  1  0
  8 19  1  0
  8 20  1  0
M  END
