
     RDKit          3D

 17 18  0  0  0  0  0  0  0  0999 V2000
    2.6862    0.1641   -2.0515 C   0  0  0  0  0  0  0  0  0  0  0  0
    1.4400    0.1927   -1.7677 C   0  0  0  0  0  0  0  0  0  0  0  0
   -0.0014    0.2157   -1.4152 C   0  0  0  0  0  0  0  0  0  0  0  0
   -0.6025   -0.9865   -1.3102 O   0  0  0  0  0  0  0  0  0  0  0  0
   -1.1255   -0.5851   -0.0750 C   0  0  0  0  0  0  0  0  0  0  0  0
   -0.1261   -0.6491    1.0456 C   0  0  0  0  0  0  0  0  0  0  0  0
   -0.8275   -0.5597    2.3964 C   0  0  0  0  0  0  0  0  0  0  0  0
   -0.0337    0.4526    0.1261 C   0  0  0  0  0  0  0  0  0  0  0  0
   -0.2765    1.7340    0.4940 O   0  0  0  0  0  0  0  0  0  0  0  0
    3.8141    0.1577   -2.3119 H   0  0  0  0  0  0  0  0  0  0  0  0
   -0.5631    1.0074   -1.8865 H   0  0  0  0  0  0  0  0  0  0  0  0
   -2.1653   -0.3262    0.0549 H   0  0  0  0  0  0  0  0  0  0  0  0
    0.4845   -1.5877    0.9798 H   0  0  0  0  0  0  0  0  0  0  0  0
   -1.3971    0.4085    2.4866 H   0  0  0  0  0  0  0  0  0  0  0  0
   -1.5513   -1.4142    2.4731 H   0  0  0  0  0  0  0  0  0  0  0  0
   -0.0697   -0.5620    3.1879 H   0  0  0  0  0  0  0  0  0  0  0  0
    0.3150    2.3377   -0.0577 H   0  0  0  0  0  0  0  0  0  0  0  0
  1  2  3  0
  2  3  1  0
  3  4  1  0
  4  5  1  0
  5  6  1  0
  6  7  1  0
  6  8  1  0
  8  9  1  0
  8  3  1  0
  8  5  1  0
  1 10  1  0
  3 11  1  0
  5 12  1  0
  6 13  1  0
  7 14  1  0
  7 15  1  0
  7 16  1  0
  9 17  1  0
M  END
