
     RDKit          3D

 21 21  0  0  0  0  0  0  0  0999 V2000
   -4.0555    1.4921    1.4881 C   0  0  0  0  0  0  0  0  0  0  0  0
   -3.1493    0.6943    1.4224 C   0  0  0  0  0  0  0  0  0  0  0  0
   -2.0269   -0.2631    1.3369 C   0  0  0  0  0  0  0  0  0  0  0  0
   -1.3988   -0.2849   -0.0262 C   0  0  0  0  0  0  0  0  0  0  0  0
   -0.8852    1.0727   -0.3294 O   0  0  0  0  0  0  0  0  0  0  0  0
   -0.0227   -0.0539   -0.3026 C   0  0  0  0  0  0  0  0  0  0  0  0
    1.0748   -0.0200    0.6999 C   0  0  0  0  0  0  0  0  0  0  0  0
    2.3720    0.2570   -0.0225 C   0  0  0  0  0  0  0  0  0  0  0  0
    2.6562   -0.8159   -1.0362 C   0  0  0  0  0  0  0  0  0  0  0  0
   -4.8411    2.2080    1.5466 H   0  0  0  0  0  0  0  0  0  0  0  0
   -1.2911   -0.0095    2.1342 H   0  0  0  0  0  0  0  0  0  0  0  0
   -2.4669   -1.2457    1.6024 H   0  0  0  0  0  0  0  0  0  0  0  0
   -2.0866   -0.5708   -0.8425 H   0  0  0  0  0  0  0  0  0  0  0  0
    0.3245   -0.3157   -1.3408 H   0  0  0  0  0  0  0  0  0  0  0  0
    1.1783   -1.0586    1.1238 H   0  0  0  0  0  0  0  0  0  0  0  0
    0.9038    0.6987    1.5240 H   0  0  0  0  0  0  0  0  0  0  0  0
    2.3000    1.2350   -0.5539 H   0  0  0  0  0  0  0  0  0  0  0  0
    3.2379    0.3078    0.6569 H   0  0  0  0  0  0  0  0  0  0  0  0
    1.8773   -1.6108   -1.0476 H   0  0  0  0  0  0  0  0  0  0  0  0
    3.6286   -1.3159   -0.8606 H   0  0  0  0  0  0  0  0  0  0  0  0
    2.6706   -0.4008   -2.0667 H   0  0  0  0  0  0  0  0  0  0  0  0
  1  2  3  0
  2  3  1  0
  3  4  1  0
  4  5  1  0
  5  6  1  0
  6  7  1  0
  7  8  1  0
  8  9  1  0
  6  4  1  0
  1 10  1  0
  3 11  1  0
  3 12  1  0
  4 13  1  0
  6 14  1  0
  7 15  1  0
  7 16  1  0
  8 17  1  0
  8 18  1  0
  9 19  1  0
  9 20  1  0
  9 21  1  0
M  END
