
     RDKit          3D

 21 21  0  0  0  0  0  0  0  0999 V2000
    2.5593    1.5923    1.0671 C   0  0  0  0  0  0  0  0  0  0  0  0
    1.7298    0.9707    0.4357 C   0  0  0  0  0  0  0  0  0  0  0  0
    0.7151    0.2117   -0.3186 C   0  0  0  0  0  0  0  0  0  0  0  0
   -0.0267    1.1676   -1.1756 C   0  0  0  0  0  0  0  0  0  0  0  0
   -1.3718    0.6919   -1.6339 C   0  0  0  0  0  0  0  0  0  0  0  0
   -1.7080   -0.6718   -1.2057 C   0  0  0  0  0  0  0  0  0  0  0  0
   -1.1806   -1.2788   -0.1375 C   0  0  0  0  0  0  0  0  0  0  0  0
   -0.1903   -0.4986    0.6519 C   0  0  0  0  0  0  0  0  0  0  0  0
    0.5496   -1.3626    1.6137 C   0  0  0  0  0  0  0  0  0  0  0  0
    3.2834    2.1478    1.6050 H   0  0  0  0  0  0  0  0  0  0  0  0
    1.2780   -0.5237   -0.9383 H   0  0  0  0  0  0  0  0  0  0  0  0
   -0.1707    2.1277   -0.6275 H   0  0  0  0  0  0  0  0  0  0  0  0
    0.6455    1.4404   -2.0419 H   0  0  0  0  0  0  0  0  0  0  0  0
   -2.1910    1.4055   -1.3199 H   0  0  0  0  0  0  0  0  0  0  0  0
   -1.3694    0.7132   -2.7452 H   0  0  0  0  0  0  0  0  0  0  0  0
   -2.4380   -1.2221   -1.8032 H   0  0  0  0  0  0  0  0  0  0  0  0
   -1.4829   -2.2882    0.1102 H   0  0  0  0  0  0  0  0  0  0  0  0
   -0.7542    0.2872    1.2013 H   0  0  0  0  0  0  0  0  0  0  0  0
    0.2601   -2.4276    1.4130 H   0  0  0  0  0  0  0  0  0  0  0  0
    1.6491   -1.3300    1.4941 H   0  0  0  0  0  0  0  0  0  0  0  0
    0.2137   -1.1526    2.6424 H   0  0  0  0  0  0  0  0  0  0  0  0
  1  2  3  0
  2  3  1  0
  3  4  1  0
  4  5  1  0
  5  6  1  0
  6  7  2  0
  7  8  1  0
  8  9  1  0
  8  3  1  0
  1 10  1  0
  3 11  1  0
  4 12  1  0
  4 13  1  0
  5 14  1  0
  5 15  1  0
  6 16  1  0
  7 17  1  0
  8 18  1  0
  9 19  1  0
  9 20  1  0
  9 21  1  0
M  END
