
     RDKit          3D

 19 20  0  0  0  0  0  0  0  0999 V2000
    1.1346    1.5492   -2.2113 C   0  0  0  0  0  0  0  0  0  0  0  0
    0.8486    0.4721   -1.7122 C   0  0  0  0  0  0  0  0  0  0  0  0
    0.5289   -0.8313   -1.1133 C   0  0  0  0  0  0  0  0  0  0  0  0
   -0.7183   -1.0028   -0.3791 C   0  0  0  0  0  0  0  0  0  0  0  0
   -1.5291    0.0649    0.2362 C   0  0  0  0  0  0  0  0  0  0  0  0
   -0.6380    1.0644    0.9072 C   0  0  0  0  0  0  0  0  0  0  0  0
    0.6563    0.3407    1.1081 C   0  0  0  0  0  0  0  0  0  0  0  0
    0.5534   -0.9669    0.3917 C   0  0  0  0  0  0  0  0  0  0  0  0
    0.9623   -2.1379    0.9853 O   0  0  0  0  0  0  0  0  0  0  0  0
    1.3928    2.4715   -2.6504 H   0  0  0  0  0  0  0  0  0  0  0  0
    0.8818   -1.6936   -1.7238 H   0  0  0  0  0  0  0  0  0  0  0  0
   -1.2453   -1.9960   -0.4710 H   0  0  0  0  0  0  0  0  0  0  0  0
   -2.2625    0.5574   -0.4010 H   0  0  0  0  0  0  0  0  0  0  0  0
   -2.1247   -0.4194    1.0682 H   0  0  0  0  0  0  0  0  0  0  0  0
   -1.0746    1.3952    1.8869 H   0  0  0  0  0  0  0  0  0  0  0  0
   -0.5733    1.9556    0.2780 H   0  0  0  0  0  0  0  0  0  0  0  0
    1.4526    0.9505    0.5964 H   0  0  0  0  0  0  0  0  0  0  0  0
    0.8918    0.2346    2.1775 H   0  0  0  0  0  0  0  0  0  0  0  0
    0.8626   -2.0080    1.9715 H   0  0  0  0  0  0  0  0  0  0  0  0
  1  2  3  0
  2  3  1  0
  3  4  1  0
  4  5  1  0
  5  6  1  0
  6  7  1  0
  7  8  1  0
  8  9  1  0
  8  3  1  0
  8  4  1  0
  1 10  1  0
  3 11  1  0
  4 12  1  0
  5 13  1  0
  5 14  1  0
  6 15  1  0
  6 16  1  0
  7 17  1  0
  7 18  1  0
  9 19  1  0
M  END
