
     RDKit          3D

 19 19  0  0  0  0  0  0  0  0999 V2000
    3.7755   -0.8443   -0.7751 C   0  0  0  0  0  0  0  0  0  0  0  0
    2.6020   -0.6826   -0.5150 C   0  0  0  0  0  0  0  0  0  0  0  0
    1.2161   -0.4706   -0.2029 C   0  0  0  0  0  0  0  0  0  0  0  0
    0.2725   -1.4009   -0.1592 C   0  0  0  0  0  0  0  0  0  0  0  0
   -1.0419   -0.7766    0.2032 C   0  0  0  0  0  0  0  0  0  0  0  0
   -2.1020   -1.4131   -0.4017 O   0  0  0  0  0  0  0  0  0  0  0  0
   -0.8268    0.6321   -0.3076 C   0  0  0  0  0  0  0  0  0  0  0  0
   -1.6856    1.6377    0.4139 C   0  0  0  0  0  0  0  0  0  0  0  0
    0.6276    0.8628    0.1250 C   0  0  0  0  0  0  0  0  0  0  0  0
    4.8051   -0.9813   -1.0011 H   0  0  0  0  0  0  0  0  0  0  0  0
    0.3617   -2.4661   -0.3445 H   0  0  0  0  0  0  0  0  0  0  0  0
   -1.0945   -0.7922    1.3083 H   0  0  0  0  0  0  0  0  0  0  0  0
   -1.9956   -2.3865   -0.2314 H   0  0  0  0  0  0  0  0  0  0  0  0
   -0.9488    0.6746   -1.3894 H   0  0  0  0  0  0  0  0  0  0  0  0
   -2.7676    1.3836    0.2917 H   0  0  0  0  0  0  0  0  0  0  0  0
   -1.4904    2.6238   -0.0565 H   0  0  0  0  0  0  0  0  0  0  0  0
   -1.3833    1.6609    1.4718 H   0  0  0  0  0  0  0  0  0  0  0  0
    1.0407    1.6744   -0.4836 H   0  0  0  0  0  0  0  0  0  0  0  0
    0.6353    1.0644    1.2141 H   0  0  0  0  0  0  0  0  0  0  0  0
  1  2  3  0
  2  3  1  0
  3  4  2  0
  4  5  1  0
  5  6  1  0
  5  7  1  0
  7  8  1  0
  7  9  1  0
  9  3  1  0
  1 10  1  0
  4 11  1  0
  5 12  1  0
  6 13  1  0
  7 14  1  0
  8 15  1  0
  8 16  1  0
  8 17  1  0
  9 18  1  0
  9 19  1  0
M  END
