
     RDKit          3D

 16 15  0  0  0  0  0  0  0  0999 V2000
    1.9801    1.3952   -2.5450 C   0  0  0  0  0  0  0  0  0  0  0  0
    1.3594    0.5425   -1.9492 C   0  0  0  0  0  0  0  0  0  0  0  0
    0.5906   -0.5133   -1.2412 C   0  0  0  0  0  0  0  0  0  0  0  0
   -0.1061    0.0931   -0.1008 C   0  0  0  0  0  0  0  0  0  0  0  0
    0.6886    0.7252    0.8537 O   0  0  0  0  0  0  0  0  0  0  0  0
   -0.8536   -1.0392    0.6732 C   0  0  0  0  0  0  0  0  0  0  0  0
   -1.4903   -0.4378    1.7912 C   0  0  0  0  0  0  0  0  0  0  0  0
   -2.1028    0.1099    2.8475 C   0  0  0  0  0  0  0  0  0  0  0  0
    2.5315    2.1531   -3.0959 H   0  0  0  0  0  0  0  0  0  0  0  0
   -0.1955   -0.9621   -1.9225 H   0  0  0  0  0  0  0  0  0  0  0  0
    1.3049   -1.3228   -1.0102 H   0  0  0  0  0  0  0  0  0  0  0  0
   -0.8930    0.8155   -0.4141 H   0  0  0  0  0  0  0  0  0  0  0  0
    1.4664    1.1758    0.5188 H   0  0  0  0  0  0  0  0  0  0  0  0
   -0.0991   -1.7634    0.9914 H   0  0  0  0  0  0  0  0  0  0  0  0
   -1.6338   -1.4926    0.0089 H   0  0  0  0  0  0  0  0  0  0  0  0
   -2.5473    0.5207    3.6035 H   0  0  0  0  0  0  0  0  0  0  0  0
  1  2  3  0
  2  3  1  0
  3  4  1  0
  4  5  1  0
  4  6  1  0
  6  7  1  0
  7  8  3  0
  1  9  1  0
  3 10  1  0
  3 11  1  0
  4 12  1  0
  5 13  1  0
  6 14  1  0
  6 15  1  0
  8 16  1  0
M  END
