
     RDKit          3D

 17 16  0  0  0  0  0  0  0  0999 V2000
   -2.3452   -1.9241    0.2589 C   0  0  0  0  0  0  0  0  0  0  0  0
   -1.3707   -1.2056    0.2221 C   0  0  0  0  0  0  0  0  0  0  0  0
   -0.1860   -0.3143    0.1577 C   0  0  0  0  0  0  0  0  0  0  0  0
   -0.2636    0.6784    1.2915 C   0  0  0  0  0  0  0  0  0  0  0  0
   -0.2753   -0.0278    2.5020 O   0  0  0  0  0  0  0  0  0  0  0  0
   -0.1916    0.3369   -1.1817 C   0  0  0  0  0  0  0  0  0  0  0  0
    0.8677    1.2247   -1.4178 O   0  0  0  0  0  0  0  0  0  0  0  0
    2.1814    0.8082   -1.4095 C   0  0  0  0  0  0  0  0  0  0  0  0
    2.4203   -0.4038   -1.1859 O   0  0  0  0  0  0  0  0  0  0  0  0
   -3.1908   -2.5586    0.3072 H   0  0  0  0  0  0  0  0  0  0  0  0
    0.7352   -0.9056    0.2739 H   0  0  0  0  0  0  0  0  0  0  0  0
   -1.1740    1.2746    1.1537 H   0  0  0  0  0  0  0  0  0  0  0  0
    0.5911    1.3788    1.2599 H   0  0  0  0  0  0  0  0  0  0  0  0
    0.6071   -0.4561    2.6160 H   0  0  0  0  0  0  0  0  0  0  0  0
   -0.2774   -0.3817   -2.0208 H   0  0  0  0  0  0  0  0  0  0  0  0
   -1.1352    0.9563   -1.2323 H   0  0  0  0  0  0  0  0  0  0  0  0
    3.0070    1.5198   -1.5946 H   0  0  0  0  0  0  0  0  0  0  0  0
  1  2  3  0
  2  3  1  0
  3  4  1  0
  4  5  1  0
  3  6  1  0
  6  7  1  0
  7  8  1  0
  8  9  2  0
  1 10  1  0
  3 11  1  0
  4 12  1  0
  4 13  1  0
  5 14  1  0
  6 15  1  0
  6 16  1  0
  8 17  1  0
M  END
