
     RDKit          3D

 21 20  0  0  0  0  0  0  0  0999 V2000
    3.2851   -0.9684    1.9994 C   0  0  0  0  0  0  0  0  0  0  0  0
    2.4396   -0.3702    1.3591 C   0  0  0  0  0  0  0  0  0  0  0  0
    1.3988    0.3448    0.5860 C   0  0  0  0  0  0  0  0  0  0  0  0
    0.4384   -0.5719    0.2731 O   0  0  0  0  0  0  0  0  0  0  0  0
   -0.6390   -0.1481   -0.4429 C   0  0  0  0  0  0  0  0  0  0  0  0
   -1.4358    0.9426    0.2440 C   0  0  0  0  0  0  0  0  0  0  0  0
   -1.5985   -1.3478   -0.5365 C   0  0  0  0  0  0  0  0  0  0  0  0
   -0.3822    0.2885   -1.8446 C   0  0  0  0  0  0  0  0  0  0  0  0
    0.4821    1.3383   -1.9996 O   0  0  0  0  0  0  0  0  0  0  0  0
    4.0191   -1.5025    2.5442 H   0  0  0  0  0  0  0  0  0  0  0  0
    1.0729    1.1788    1.2090 H   0  0  0  0  0  0  0  0  0  0  0  0
    1.9476    0.7712   -0.2826 H   0  0  0  0  0  0  0  0  0  0  0  0
   -2.3426    1.1086   -0.3749 H   0  0  0  0  0  0  0  0  0  0  0  0
   -0.8876    1.9092    0.2608 H   0  0  0  0  0  0  0  0  0  0  0  0
   -1.7706    0.6692    1.2488 H   0  0  0  0  0  0  0  0  0  0  0  0
   -1.0416   -2.3004   -0.5651 H   0  0  0  0  0  0  0  0  0  0  0  0
   -2.2179   -1.2892   -1.4558 H   0  0  0  0  0  0  0  0  0  0  0  0
   -2.2988   -1.3563    0.3168 H   0  0  0  0  0  0  0  0  0  0  0  0
   -0.0941   -0.5930   -2.4489 H   0  0  0  0  0  0  0  0  0  0  0  0
   -1.3777    0.6163   -2.2629 H   0  0  0  0  0  0  0  0  0  0  0  0
    1.0029    1.2803   -2.8333 H   0  0  0  0  0  0  0  0  0  0  0  0
  1  2  3  0
  2  3  1  0
  3  4  1  0
  4  5  1  0
  5  6  1  0
  5  7  1  0
  5  8  1  0
  8  9  1  0
  1 10  1  0
  3 11  1  0
  3 12  1  0
  6 13  1  0
  6 14  1  0
  6 15  1  0
  7 16  1  0
  7 17  1  0
  7 18  1  0
  8 19  1  0
  8 20  1  0
  9 21  1  0
M  END
