
     RDKit          3D

 17 17  0  0  0  0  0  0  0  0999 V2000
   -1.6923   -2.8099    0.8669 C   0  0  0  0  0  0  0  0  0  0  0  0
   -1.2533   -1.7251    0.5629 C   0  0  0  0  0  0  0  0  0  0  0  0
   -0.6943   -0.3912    0.2064 C   0  0  0  0  0  0  0  0  0  0  0  0
    0.6726   -0.4865   -0.1013 O   0  0  0  0  0  0  0  0  0  0  0  0
    1.4153    0.6024   -0.4636 C   0  0  0  0  0  0  0  0  0  0  0  0
    2.8828    0.5160   -0.7958 C   0  0  0  0  0  0  0  0  0  0  0  0
    0.8252    1.7123   -0.5145 O   0  0  0  0  0  0  0  0  0  0  0  0
   -1.6173    0.4865   -0.5513 C   0  0  0  0  0  0  0  0  0  0  0  0
   -1.3098    0.7366    0.9034 C   0  0  0  0  0  0  0  0  0  0  0  0
   -2.0720   -3.7586    1.1482 H   0  0  0  0  0  0  0  0  0  0  0  0
    3.4205    0.0636    0.0743 H   0  0  0  0  0  0  0  0  0  0  0  0
    3.0606   -0.0153   -1.7380 H   0  0  0  0  0  0  0  0  0  0  0  0
    3.2743    1.5458   -0.8899 H   0  0  0  0  0  0  0  0  0  0  0  0
   -1.2938    1.1800   -1.3304 H   0  0  0  0  0  0  0  0  0  0  0  0
   -2.6675    0.1184   -0.7307 H   0  0  0  0  0  0  0  0  0  0  0  0
   -0.8335    1.7030    1.1102 H   0  0  0  0  0  0  0  0  0  0  0  0
   -2.1176    0.5219    1.6577 H   0  0  0  0  0  0  0  0  0  0  0  0
  1  2  3  0
  2  3  1  0
  3  4  1  0
  4  5  1  0
  5  6  1  0
  5  7  2  0
  3  8  1  0
  8  9  1  0
  9  3  1  0
  1 10  1  0
  6 11  1  0
  6 12  1  0
  6 13  1  0
  8 14  1  0
  8 15  1  0
  9 16  1  0
  9 17  1  0
M  END
