
     RDKit          3D

 21 21  0  0  0  0  0  0  0  0999 V2000
   -0.2430    1.6413   -2.1602 C   0  0  0  0  0  0  0  0  0  0  0  0
   -0.2889    1.3559   -0.9921 C   0  0  0  0  0  0  0  0  0  0  0  0
   -0.3709    1.0066    0.4410 C   0  0  0  0  0  0  0  0  0  0  0  0
   -1.7841    0.6528    0.8286 C   0  0  0  0  0  0  0  0  0  0  0  0
   -1.7502    0.3389    2.2011 O   0  0  0  0  0  0  0  0  0  0  0  0
    0.4988   -0.2026    0.6749 C   0  0  0  0  0  0  0  0  0  0  0  0
    0.1478   -1.4341   -0.0872 C   0  0  0  0  0  0  0  0  0  0  0  0
    1.3464   -1.2361   -0.9527 C   0  0  0  0  0  0  0  0  0  0  0  0
    1.8307   -0.1411   -0.0326 C   0  0  0  0  0  0  0  0  0  0  0  0
   -0.1899    1.8831   -3.2094 H   0  0  0  0  0  0  0  0  0  0  0  0
   -0.0344    1.8188    1.0933 H   0  0  0  0  0  0  0  0  0  0  0  0
   -2.1959   -0.2023    0.2811 H   0  0  0  0  0  0  0  0  0  0  0  0
   -2.4661    1.5162    0.6393 H   0  0  0  0  0  0  0  0  0  0  0  0
   -2.5452   -0.1973    2.4398 H   0  0  0  0  0  0  0  0  0  0  0  0
    0.6951   -0.4163    1.7658 H   0  0  0  0  0  0  0  0  0  0  0  0
    0.2323   -2.3658    0.5431 H   0  0  0  0  0  0  0  0  0  0  0  0
   -0.8315   -1.4336   -0.6051 H   0  0  0  0  0  0  0  0  0  0  0  0
    2.0525   -2.1161   -0.9162 H   0  0  0  0  0  0  0  0  0  0  0  0
    1.1862   -0.8721   -1.9759 H   0  0  0  0  0  0  0  0  0  0  0  0
    1.9966    0.8292   -0.5526 H   0  0  0  0  0  0  0  0  0  0  0  0
    2.7138   -0.4254    0.5761 H   0  0  0  0  0  0  0  0  0  0  0  0
  1  2  3  0
  2  3  1  0
  3  4  1  0
  4  5  1  0
  3  6  1  0
  6  7  1  0
  7  8  1  0
  8  9  1  0
  9  6  1  0
  1 10  1  0
  3 11  1  0
  4 12  1  0
  4 13  1  0
  5 14  1  0
  6 15  1  0
  7 16  1  0
  7 17  1  0
  8 18  1  0
  8 19  1  0
  9 20  1  0
  9 21  1  0
M  END
