
     RDKit          3D

 21 21  0  0  0  0  0  0  0  0999 V2000
    3.3261    1.5866   -0.1802 C   0  0  0  0  0  0  0  0  0  0  0  0
    2.9113    0.4760   -0.1291 C   0  0  0  0  0  0  0  0  0  0  0  0
    2.4267   -0.8921   -0.0610 C   0  0  0  0  0  0  0  0  0  0  0  0
    0.9543   -0.8798   -0.4193 C   0  0  0  0  0  0  0  0  0  0  0  0
    0.2182   -0.0389    0.3492 O   0  0  0  0  0  0  0  0  0  0  0  0
   -1.1407    0.0244    0.0980 C   0  0  0  0  0  0  0  0  0  0  0  0
   -1.5006    0.3993   -1.3252 C   0  0  0  0  0  0  0  0  0  0  0  0
   -2.1653   -0.5961    0.9269 C   0  0  0  0  0  0  0  0  0  0  0  0
   -1.8978    0.8806    1.1476 C   0  0  0  0  0  0  0  0  0  0  0  0
    3.7335    2.6226   -0.2304 H   0  0  0  0  0  0  0  0  0  0  0  0
    2.6533   -1.3435    0.9202 H   0  0  0  0  0  0  0  0  0  0  0  0
    2.9812   -1.5204   -0.8303 H   0  0  0  0  0  0  0  0  0  0  0  0
    0.6135   -1.9345   -0.1074 H   0  0  0  0  0  0  0  0  0  0  0  0
    0.8447   -0.8669   -1.4904 H   0  0  0  0  0  0  0  0  0  0  0  0
   -0.6208    0.4320   -1.9766 H   0  0  0  0  0  0  0  0  0  0  0  0
   -2.0544    1.3561   -1.2935 H   0  0  0  0  0  0  0  0  0  0  0  0
   -2.1781   -0.4165   -1.6770 H   0  0  0  0  0  0  0  0  0  0  0  0
   -3.1438   -0.8644    0.4288 H   0  0  0  0  0  0  0  0  0  0  0  0
   -1.9699   -1.2289    1.7887 H   0  0  0  0  0  0  0  0  0  0  0  0
   -2.6575    1.5701    0.7569 H   0  0  0  0  0  0  0  0  0  0  0  0
   -1.3341    1.2344    2.0204 H   0  0  0  0  0  0  0  0  0  0  0  0
  1  2  3  0
  2  3  1  0
  3  4  1  0
  4  5  1  0
  5  6  1  0
  6  7  1  0
  6  8  1  0
  8  9  1  0
  9  6  1  0
  1 10  1  0
  3 11  1  0
  3 12  1  0
  4 13  1  0
  4 14  1  0
  7 15  1  0
  7 16  1  0
  7 17  1  0
  8 18  1  0
  8 19  1  0
  9 20  1  0
  9 21  1  0
M  END
