
     RDKit          3D

 17 18  0  0  0  0  0  0  0  0999 V2000
    2.8095    0.9781    0.3429 C   0  0  0  0  0  0  0  0  0  0  0  0
    1.7928    0.3850    0.1863 C   0  0  0  0  0  0  0  0  0  0  0  0
    0.5419   -0.3241    0.0102 C   0  0  0  0  0  0  0  0  0  0  0  0
    0.3866   -0.9654   -1.3739 C   0  0  0  0  0  0  0  0  0  0  0  0
    0.3413   -1.3080    0.9864 O   0  0  0  0  0  0  0  0  0  0  0  0
   -1.0324   -0.9731    1.0385 C   0  0  0  0  0  0  0  0  0  0  0  0
   -0.6956    0.3337    0.4387 C   0  0  0  0  0  0  0  0  0  0  0  0
   -1.4656    1.3327   -0.0622 C   0  0  0  0  0  0  0  0  0  0  0  0
   -0.7613    1.4503    1.2162 O   0  0  0  0  0  0  0  0  0  0  0  0
    3.7316    1.5245    0.4679 H   0  0  0  0  0  0  0  0  0  0  0  0
   -0.4697   -1.6639   -1.3460 H   0  0  0  0  0  0  0  0  0  0  0  0
    0.2357   -0.1451   -2.1043 H   0  0  0  0  0  0  0  0  0  0  0  0
    1.3448   -1.4405   -1.6100 H   0  0  0  0  0  0  0  0  0  0  0  0
   -1.3997   -0.9626    2.1005 H   0  0  0  0  0  0  0  0  0  0  0  0
   -1.6517   -1.6702    0.4605 H   0  0  0  0  0  0  0  0  0  0  0  0
   -1.1200    2.0785   -0.8028 H   0  0  0  0  0  0  0  0  0  0  0  0
   -2.5880    1.3701    0.0512 H   0  0  0  0  0  0  0  0  0  0  0  0
  1  2  3  0
  2  3  1  0
  3  4  1  0
  3  5  1  0
  5  6  1  0
  6  7  1  0
  7  8  1  0
  8  9  1  0
  7  3  1  0
  9  7  1  0
  1 10  1  0
  4 11  1  0
  4 12  1  0
  4 13  1  0
  6 14  1  0
  6 15  1  0
  8 16  1  0
  8 17  1  0
M  END
