
     RDKit          3D

 21 22  0  0  0  0  0  0  0  0999 V2000
   -1.7889    2.4912    0.0479 C   0  0  0  0  0  0  0  0  0  0  0  0
   -1.3586    1.3692   -0.0554 C   0  0  0  0  0  0  0  0  0  0  0  0
   -0.8556    0.0030   -0.1640 C   0  0  0  0  0  0  0  0  0  0  0  0
   -1.7707   -1.1062    0.1546 C   0  0  0  0  0  0  0  0  0  0  0  0
   -0.7770   -0.7205    1.1814 C   0  0  0  0  0  0  0  0  0  0  0  0
    0.6426   -1.1713    0.8859 C   0  0  0  0  0  0  0  0  0  0  0  0
    0.6216   -0.1716   -0.2733 C   0  0  0  0  0  0  0  0  0  0  0  0
    1.1240   -0.7258   -1.5788 C   0  0  0  0  0  0  0  0  0  0  0  0
    1.3595    1.0906    0.1920 C   0  0  0  0  0  0  0  0  0  0  0  0
   -2.1712    3.4786    0.1319 H   0  0  0  0  0  0  0  0  0  0  0  0
   -2.8159   -0.8211    0.3776 H   0  0  0  0  0  0  0  0  0  0  0  0
   -1.6395   -2.0892   -0.3697 H   0  0  0  0  0  0  0  0  0  0  0  0
   -1.0145   -0.1850    2.0924 H   0  0  0  0  0  0  0  0  0  0  0  0
    1.3766   -0.9637    1.6632 H   0  0  0  0  0  0  0  0  0  0  0  0
    0.7024   -2.2039    0.4624 H   0  0  0  0  0  0  0  0  0  0  0  0
    1.8996   -1.5165   -1.4454 H   0  0  0  0  0  0  0  0  0  0  0  0
    1.6317    0.0785   -2.1812 H   0  0  0  0  0  0  0  0  0  0  0  0
    0.2654   -1.0540   -2.1704 H   0  0  0  0  0  0  0  0  0  0  0  0
    1.7242    1.6806   -0.6514 H   0  0  0  0  0  0  0  0  0  0  0  0
    0.6559    1.7119    0.8119 H   0  0  0  0  0  0  0  0  0  0  0  0
    2.1885    0.8251    0.8883 H   0  0  0  0  0  0  0  0  0  0  0  0
  1  2  3  0
  2  3  1  0
  3  4  1  0
  4  5  1  0
  5  6  1  0
  6  7  1  0
  7  8  1  0
  7  9  1  0
  5  3  1  0
  7  3  1  0
  1 10  1  0
  4 11  1  0
  4 12  1  0
  5 13  1  0
  6 14  1  0
  6 15  1  0
  8 16  1  0
  8 17  1  0
  8 18  1  0
  9 19  1  0
  9 20  1  0
  9 21  1  0
M  END
