
     RDKit          3D

 21 22  0  0  0  0  0  0  0  0999 V2000
    3.3436    0.9466   -0.7052 C   0  0  0  0  0  0  0  0  0  0  0  0
    2.4753    0.1964   -0.3043 C   0  0  0  0  0  0  0  0  0  0  0  0
    1.4445   -0.7277    0.1824 C   0  0  0  0  0  0  0  0  0  0  0  0
    0.6492   -0.0580    1.3261 C   0  0  0  0  0  0  0  0  0  0  0  0
   -0.4613    0.5042    0.5201 C   0  0  0  0  0  0  0  0  0  0  0  0
   -1.7638    0.0943    0.1987 C   0  0  0  0  0  0  0  0  0  0  0  0
   -2.5146    0.8253   -0.9253 C   0  0  0  0  0  0  0  0  0  0  0  0
   -0.8308   -0.8983   -0.1175 C   0  0  0  0  0  0  0  0  0  0  0  0
    0.4000   -0.9568   -0.9315 C   0  0  0  0  0  0  0  0  0  0  0  0
    4.0994    1.6089   -1.0620 H   0  0  0  0  0  0  0  0  0  0  0  0
    1.9024   -1.6616    0.5051 H   0  0  0  0  0  0  0  0  0  0  0  0
    1.2865    0.6977    1.8056 H   0  0  0  0  0  0  0  0  0  0  0  0
    0.2901   -0.8388    2.0340 H   0  0  0  0  0  0  0  0  0  0  0  0
   -0.0056    1.2538   -0.2014 H   0  0  0  0  0  0  0  0  0  0  0  0
   -2.4878   -0.0622    1.0528 H   0  0  0  0  0  0  0  0  0  0  0  0
   -3.5075    0.3647   -1.0443 H   0  0  0  0  0  0  0  0  0  0  0  0
   -1.9630    0.6749   -1.8933 H   0  0  0  0  0  0  0  0  0  0  0  0
   -2.6026    1.9086   -0.7003 H   0  0  0  0  0  0  0  0  0  0  0  0
   -0.8052   -1.7764    0.6051 H   0  0  0  0  0  0  0  0  0  0  0  0
    0.4826   -0.1602   -1.7049 H   0  0  0  0  0  0  0  0  0  0  0  0
    0.5687   -1.9353   -1.4178 H   0  0  0  0  0  0  0  0  0  0  0  0
  1  2  3  0
  2  3  1  0
  3  4  1  0
  4  5  1  0
  5  6  1  0
  6  7  1  0
  6  8  1  0
  8  9  1  0
  9  3  1  0
  8  5  1  0
  1 10  1  0
  3 11  1  0
  4 12  1  0
  4 13  1  0
  5 14  1  0
  6 15  1  0
  7 16  1  0
  7 17  1  0
  7 18  1  0
  8 19  1  0
  9 20  1  0
  9 21  1  0
M  END
