
     RDKit          3D

 21 21  0  0  0  0  0  0  0  0999 V2000
    4.1152   -1.2137   -0.0244 C   0  0  0  0  0  0  0  0  0  0  0  0
    3.2396   -0.6534   -0.2829 C   0  0  0  0  0  0  0  0  0  0  0  0
    2.0146    0.1610   -0.6562 C   0  0  0  0  0  0  0  0  0  0  0  0
    0.9954   -0.3998    0.0398 O   0  0  0  0  0  0  0  0  0  0  0  0
   -0.2888    0.0963   -0.0814 C   0  0  0  0  0  0  0  0  0  0  0  0
   -1.1832   -0.6014    0.9435 C   0  0  0  0  0  0  0  0  0  0  0  0
   -2.5845   -0.1902    1.0004 C   0  0  0  0  0  0  0  0  0  0  0  0
   -0.8419    0.2615   -1.4437 C   0  0  0  0  0  0  0  0  0  0  0  0
   -0.5673    1.4422   -0.5575 C   0  0  0  0  0  0  0  0  0  0  0  0
    5.0847   -1.8465    0.2451 H   0  0  0  0  0  0  0  0  0  0  0  0
    1.9011   -0.0667   -1.7526 H   0  0  0  0  0  0  0  0  0  0  0  0
    2.2146    1.1894   -0.3783 H   0  0  0  0  0  0  0  0  0  0  0  0
   -1.0839   -1.6881    0.7544 H   0  0  0  0  0  0  0  0  0  0  0  0
   -0.7032   -0.3772    1.9382 H   0  0  0  0  0  0  0  0  0  0  0  0
   -3.2225   -1.0890    1.2898 H   0  0  0  0  0  0  0  0  0  0  0  0
   -2.9937    0.1493    0.0249 H   0  0  0  0  0  0  0  0  0  0  0  0
   -2.8258    0.5271    1.8304 H   0  0  0  0  0  0  0  0  0  0  0  0
   -0.2630    0.0801   -2.3691 H   0  0  0  0  0  0  0  0  0  0  0  0
   -1.9274    0.0661   -1.6348 H   0  0  0  0  0  0  0  0  0  0  0  0
    0.3169    2.0536   -0.9516 H   0  0  0  0  0  0  0  0  0  0  0  0
   -1.3971    2.0994   -0.3207 H   0  0  0  0  0  0  0  0  0  0  0  0
  1  2  3  0
  2  3  1  0
  3  4  1  0
  4  5  1  0
  5  6  1  0
  6  7  1  0
  5  8  1  0
  8  9  1  0
  9  5  1  0
  1 10  1  0
  3 11  1  0
  3 12  1  0
  6 13  1  0
  6 14  1  0
  7 15  1  0
  7 16  1  0
  7 17  1  0
  8 18  1  0
  8 19  1  0
  9 20  1  0
  9 21  1  0
M  END
