
     RDKit          3D

 19 18  0  0  0  0  0  0  0  0999 V2000
   -2.4446    0.3771   -0.5035 C   0  0  0  0  0  0  0  0  0  0  0  0
   -1.8904   -0.1379   -0.0584 C   0  0  0  0  0  0  0  0  0  0  0  0
   -0.6046   -1.3820    0.9991 C   0  0  0  0  0  0  0  0  0  0  0  0
   -1.3647   -0.8452    2.2221 C   0  0  0  0  0  0  0  0  0  0  0  0
    0.2402   -0.6560    0.2387 C   0  0  0  0  0  0  0  0  0  0  0  0
    1.0572    0.0438   -0.4949 O   0  0  0  0  0  0  0  0  0  0  0  0
    1.7259    0.1277   -1.5648 C   0  0  0  0  0  0  0  0  0  0  0  0
    2.4723    1.5091   -1.8472 C   0  0  0  0  0  0  0  0  0  0  0  0
    1.8302   -0.7885   -2.4801 O   0  0  0  0  0  0  0  0  0  0  0  0
   -3.4493    1.3111   -1.3427 H   0  0  0  0  0  0  0  0  0  0  0  0
   -1.2405   -2.1266    0.6252 H   0  0  0  0  0  0  0  0  0  0  0  0
   -0.9409   -0.2834    3.0215 H   0  0  0  0  0  0  0  0  0  0  0  0
   -1.5365   -1.9556    2.7994 H   0  0  0  0  0  0  0  0  0  0  0  0
   -2.4654   -0.7361    2.0531 H   0  0  0  0  0  0  0  0  0  0  0  0
   -0.2296    0.6136    0.7319 H   0  0  0  0  0  0  0  0  0  0  0  0
    1.0621   -0.3514    1.3809 H   0  0  0  0  0  0  0  0  0  0  0  0
    2.4404    2.0679   -0.8952 H   0  0  0  0  0  0  0  0  0  0  0  0
    3.4626    1.2491   -2.2423 H   0  0  0  0  0  0  0  0  0  0  0  0
    1.8757    1.9634   -2.6426 H   0  0  0  0  0  0  0  0  0  0  0  0
  1  2  3  0
  2  3  1  0
  3  4  1  0
  3  5  1  0
  5  6  1  0
  6  7  1  0
  7  8  1  0
  7  9  2  0
  1 10  1  0
  3 11  1  0
  4 12  1  0
  4 13  1  0
  4 14  1  0
  5 15  1  0
  5 16  1  0
  8 17  1  0
  8 18  1  0
  8 19  1  0
M  END
