
     RDKit          3D

 19 19  0  0  0  0  0  0  0  0999 V2000
    0.2034    0.6955    3.0897 C   0  0  0  0  0  0  0  0  0  0  0  0
    0.4858    0.5782    1.7663 C   0  0  0  0  0  0  0  0  0  0  0  0
    0.7564    0.4557    0.4111 C   0  0  0  0  0  0  0  0  0  0  0  0
    1.2559    1.6970   -0.3363 C   0  0  0  0  0  0  0  0  0  0  0  0
    1.4334   -0.7186    0.0083 O   0  0  0  0  0  0  0  0  0  0  0  0
    0.1204   -0.7109   -0.3479 C   0  0  0  0  0  0  0  0  0  0  0  0
   -0.7818   -1.5807    0.5427 C   0  0  0  0  0  0  0  0  0  0  0  0
   -0.4013   -0.4912   -1.7043 C   0  0  0  0  0  0  0  0  0  0  0  0
   -1.8093   -0.6452   -1.6378 O   0  0  0  0  0  0  0  0  0  0  0  0
    0.0327    0.7589    3.9344 H   0  0  0  0  0  0  0  0  0  0  0  0
    2.2632    1.8771    0.1368 H   0  0  0  0  0  0  0  0  0  0  0  0
    1.3038    1.4307   -1.3924 H   0  0  0  0  0  0  0  0  0  0  0  0
    0.6120    2.5488   -0.0664 H   0  0  0  0  0  0  0  0  0  0  0  0
   -0.4042   -1.4518    1.5699 H   0  0  0  0  0  0  0  0  0  0  0  0
   -0.7041   -2.6326    0.2434 H   0  0  0  0  0  0  0  0  0  0  0  0
   -1.8261   -1.1734    0.5154 H   0  0  0  0  0  0  0  0  0  0  0  0
   -0.2799    0.5490   -2.0798 H   0  0  0  0  0  0  0  0  0  0  0  0
    0.0426   -1.1596   -2.4535 H   0  0  0  0  0  0  0  0  0  0  0  0
   -2.3030   -0.0269   -2.1996 H   0  0  0  0  0  0  0  0  0  0  0  0
  1  2  3  0
  2  3  1  0
  3  4  1  0
  3  5  1  0
  5  6  1  0
  6  7  1  0
  6  8  1  0
  8  9  1  0
  6  3  1  0
  1 10  1  0
  4 11  1  0
  4 12  1  0
  4 13  1  0
  7 14  1  0
  7 15  1  0
  7 16  1  0
  8 17  1  0
  8 18  1  0
  9 19  1  0
M  END
