
     RDKit          3D

 23 22  0  0  0  0  0  0  0  0999 V2000
   -2.7549    2.4045    0.1294 C   0  0  0  0  0  0  0  0  0  0  0  0
   -1.6422    1.8608    0.1207 C   0  0  0  0  0  0  0  0  0  0  0  0
   -0.3020    1.2146    0.1019 C   0  0  0  0  0  0  0  0  0  0  0  0
   -0.4607   -0.2347    0.4733 C   0  0  0  0  0  0  0  0  0  0  0  0
   -1.3656   -0.8888   -0.5362 C   0  0  0  0  0  0  0  0  0  0  0  0
   -2.5909   -0.2281   -0.5056 O   0  0  0  0  0  0  0  0  0  0  0  0
    0.7592   -0.9648    0.8062 C   0  0  0  0  0  0  0  0  0  0  0  0
    1.8596   -1.1141   -0.1540 C   0  0  0  0  0  0  0  0  0  0  0  0
    2.5381    0.1386   -0.6338 C   0  0  0  0  0  0  0  0  0  0  0  0
   -3.6898    2.8624    0.1186 H   0  0  0  0  0  0  0  0  0  0  0  0
    0.1265    1.2918   -0.8966 H   0  0  0  0  0  0  0  0  0  0  0  0
    0.2592    1.7863    0.8957 H   0  0  0  0  0  0  0  0  0  0  0  0
   -1.0779   -0.1963    1.4349 H   0  0  0  0  0  0  0  0  0  0  0  0
   -0.9595   -0.7714   -1.5613 H   0  0  0  0  0  0  0  0  0  0  0  0
   -1.5842   -1.9504   -0.3064 H   0  0  0  0  0  0  0  0  0  0  0  0
   -3.2496   -0.6412    0.1110 H   0  0  0  0  0  0  0  0  0  0  0  0
    0.5078   -2.0079    1.1878 H   0  0  0  0  0  0  0  0  0  0  0  0
    1.1909   -0.4845    1.7385 H   0  0  0  0  0  0  0  0  0  0  0  0
    1.6380   -1.8135   -1.0006 H   0  0  0  0  0  0  0  0  0  0  0  0
    2.6742   -1.6819    0.4012 H   0  0  0  0  0  0  0  0  0  0  0  0
    3.6474    0.0218   -0.6998 H   0  0  0  0  0  0  0  0  0  0  0  0
    2.2895    0.9595    0.0546 H   0  0  0  0  0  0  0  0  0  0  0  0
    2.1868    0.4372   -1.6522 H   0  0  0  0  0  0  0  0  0  0  0  0
  1  2  3  0
  2  3  1  0
  3  4  1  0
  4  5  1  0
  5  6  1  0
  4  7  1  0
  7  8  1  0
  8  9  1  0
  1 10  1  0
  3 11  1  0
  3 12  1  0
  4 13  1  0
  5 14  1  0
  5 15  1  0
  6 16  1  0
  7 17  1  0
  7 18  1  0
  8 19  1  0
  8 20  1  0
  9 21  1  0
  9 22  1  0
  9 23  1  0
M  END
