
     RDKit          3D

 17 17  0  0  0  0  0  0  0  0999 V2000
    3.2419   -0.1487   -0.4831 C   0  0  0  0  0  0  0  0  0  0  0  0
    2.1866   -0.5776   -0.2488 C   0  0  0  0  0  0  0  0  0  0  0  0
    0.8387   -1.1007    0.0606 C   0  0  0  0  0  0  0  0  0  0  0  0
    0.0282    0.0783    0.5889 C   0  0  0  0  0  0  0  0  0  0  0  0
   -1.3787   -0.2590    0.9612 C   0  0  0  0  0  0  0  0  0  0  0  0
   -1.8653    0.5513   -0.1961 C   0  0  0  0  0  0  0  0  0  0  0  0
   -0.4662    0.9792   -0.4951 C   0  0  0  0  0  0  0  0  0  0  0  0
    4.2445    0.2784   -0.7148 H   0  0  0  0  0  0  0  0  0  0  0  0
    0.3011   -1.4552   -0.8389 H   0  0  0  0  0  0  0  0  0  0  0  0
    0.9010   -1.8280    0.8797 H   0  0  0  0  0  0  0  0  0  0  0  0
    0.5650    0.6269    1.3996 H   0  0  0  0  0  0  0  0  0  0  0  0
   -1.7008    0.0804    1.9690 H   0  0  0  0  0  0  0  0  0  0  0  0
   -1.6207   -1.3352    0.7741 H   0  0  0  0  0  0  0  0  0  0  0  0
   -2.4696    1.4463    0.0872 H   0  0  0  0  0  0  0  0  0  0  0  0
   -2.3768   -0.0219   -1.0007 H   0  0  0  0  0  0  0  0  0  0  0  0
   -0.2538    2.0634   -0.3555 H   0  0  0  0  0  0  0  0  0  0  0  0
   -0.1751    0.6223   -1.5131 H   0  0  0  0  0  0  0  0  0  0  0  0
  1  2  3  0
  2  3  1  0
  3  4  1  0
  4  5  1  0
  5  6  1  0
  6  7  1  0
  7  4  1  0
  1  8  1  0
  3  9  1  0
  3 10  1  0
  4 11  1  0
  5 12  1  0
  5 13  1  0
  6 14  1  0
  6 15  1  0
  7 16  1  0
  7 17  1  0
M  END
