
     RDKit          3D

 17 18  0  0  0  0  0  0  0  0999 V2000
    2.6236    0.2413    2.0124 C   0  0  0  0  0  0  0  0  0  0  0  0
    1.9294   -0.0813    1.0797 C   0  0  0  0  0  0  0  0  0  0  0  0
    1.0697   -0.4798   -0.0517 C   0  0  0  0  0  0  0  0  0  0  0  0
    0.4135    0.7304   -0.6427 C   0  0  0  0  0  0  0  0  0  0  0  0
   -0.8714    0.3211    0.0167 C   0  0  0  0  0  0  0  0  0  0  0  0
   -2.1032    0.7632   -0.3418 C   0  0  0  0  0  0  0  0  0  0  0  0
   -1.5190    1.1448    0.8997 O   0  0  0  0  0  0  0  0  0  0  0  0
   -0.3079   -0.9752    0.4054 C   0  0  0  0  0  0  0  0  0  0  0  0
   -0.7503   -2.1077   -0.2627 O   0  0  0  0  0  0  0  0  0  0  0  0
    3.2519    0.5292    2.8342 H   0  0  0  0  0  0  0  0  0  0  0  0
    1.5407   -1.1866   -0.7434 H   0  0  0  0  0  0  0  0  0  0  0  0
    0.2903    0.7328   -1.7396 H   0  0  0  0  0  0  0  0  0  0  0  0
    0.7852    1.7141   -0.2926 H   0  0  0  0  0  0  0  0  0  0  0  0
   -3.0426    0.1421   -0.2591 H   0  0  0  0  0  0  0  0  0  0  0  0
   -2.2693    1.6344   -1.0114 H   0  0  0  0  0  0  0  0  0  0  0  0
   -0.2668   -1.1954    1.5101 H   0  0  0  0  0  0  0  0  0  0  0  0
   -0.7739   -1.9273   -1.2346 H   0  0  0  0  0  0  0  0  0  0  0  0
  1  2  3  0
  2  3  1  0
  3  4  1  0
  4  5  1  0
  5  6  1  0
  6  7  1  0
  5  8  1  0
  8  9  1  0
  8  3  1  0
  7  5  1  0
  1 10  1  0
  3 11  1  0
  4 12  1  0
  4 13  1  0
  6 14  1  0
  6 15  1  0
  8 16  1  0
  9 17  1  0
M  END
