
     RDKit          3D

 23 23  0  0  0  0  0  0  0  0999 V2000
    3.3537    0.0273    1.0295 C   0  0  0  0  0  0  0  0  0  0  0  0
    2.2313    0.4881    0.9614 C   0  0  0  0  0  0  0  0  0  0  0  0
    0.8677    1.0327    0.8987 C   0  0  0  0  0  0  0  0  0  0  0  0
    0.1434    0.3005   -0.2083 C   0  0  0  0  0  0  0  0  0  0  0  0
    0.8259    0.4909   -1.5472 C   0  0  0  0  0  0  0  0  0  0  0  0
   -1.2517    0.8641   -0.2771 C   0  0  0  0  0  0  0  0  0  0  0  0
   -2.2151   -0.2648   -0.0542 C   0  0  0  0  0  0  0  0  0  0  0  0
   -1.4106   -1.4032    0.5206 C   0  0  0  0  0  0  0  0  0  0  0  0
    0.0187   -1.1755    0.0804 C   0  0  0  0  0  0  0  0  0  0  0  0
    4.3370   -0.3646    1.0740 H   0  0  0  0  0  0  0  0  0  0  0  0
    0.8594    2.1114    0.6439 H   0  0  0  0  0  0  0  0  0  0  0  0
    0.3106    0.8464    1.8332 H   0  0  0  0  0  0  0  0  0  0  0  0
    1.0457    1.5696   -1.7101 H   0  0  0  0  0  0  0  0  0  0  0  0
    0.0774    0.1806   -2.3198 H   0  0  0  0  0  0  0  0  0  0  0  0
    1.7507   -0.1318   -1.6155 H   0  0  0  0  0  0  0  0  0  0  0  0
   -1.4453    1.4102   -1.2403 H   0  0  0  0  0  0  0  0  0  0  0  0
   -1.4518    1.6137    0.5408 H   0  0  0  0  0  0  0  0  0  0  0  0
   -3.0472    0.0065    0.6410 H   0  0  0  0  0  0  0  0  0  0  0  0
   -2.6272   -0.5716   -1.0294 H   0  0  0  0  0  0  0  0  0  0  0  0
   -1.4622   -1.3662    1.6251 H   0  0  0  0  0  0  0  0  0  0  0  0
   -1.8206   -2.3656    0.1609 H   0  0  0  0  0  0  0  0  0  0  0  0
    0.7508   -1.5286    0.8399 H   0  0  0  0  0  0  0  0  0  0  0  0
    0.1595   -1.7702   -0.8477 H   0  0  0  0  0  0  0  0  0  0  0  0
  1  2  3  0
  2  3  1  0
  3  4  1  0
  4  5  1  0
  4  6  1  0
  6  7  1  0
  7  8  1  0
  8  9  1  0
  9  4  1  0
  1 10  1  0
  3 11  1  0
  3 12  1  0
  5 13  1  0
  5 14  1  0
  5 15  1  0
  6 16  1  0
  6 17  1  0
  7 18  1  0
  7 19  1  0
  8 20  1  0
  8 21  1  0
  9 22  1  0
  9 23  1  0
M  END
