
     RDKit          3D

 19 19  0  0  0  0  0  0  0  0999 V2000
    2.8123   -0.2807   -0.1193 C   0  0  0  0  0  0  0  0  0  0  0  0
    1.6586   -0.4735   -0.4099 C   0  0  0  0  0  0  0  0  0  0  0  0
    0.2397   -0.7261   -0.7464 C   0  0  0  0  0  0  0  0  0  0  0  0
   -0.1157    0.2910   -1.7943 C   0  0  0  0  0  0  0  0  0  0  0  0
   -0.6382    1.3679   -1.1909 C   0  0  0  0  0  0  0  0  0  0  0  0
   -0.6816    1.1835    0.2632 C   0  0  0  0  0  0  0  0  0  0  0  0
   -0.6085   -0.3251    0.4035 C   0  0  0  0  0  0  0  0  0  0  0  0
   -0.0694   -0.7352    1.7445 C   0  0  0  0  0  0  0  0  0  0  0  0
   -1.8784   -0.8744    0.2363 O   0  0  0  0  0  0  0  0  0  0  0  0
    3.8398   -0.1279    0.1372 H   0  0  0  0  0  0  0  0  0  0  0  0
    0.0779   -1.7496   -1.1152 H   0  0  0  0  0  0  0  0  0  0  0  0
    0.0336    0.1572   -2.8593 H   0  0  0  0  0  0  0  0  0  0  0  0
   -0.9680    2.2318   -1.7544 H   0  0  0  0  0  0  0  0  0  0  0  0
    0.2149    1.6014    0.7852 H   0  0  0  0  0  0  0  0  0  0  0  0
   -1.6336    1.5417    0.6993 H   0  0  0  0  0  0  0  0  0  0  0  0
   -0.1560   -1.8453    1.8047 H   0  0  0  0  0  0  0  0  0  0  0  0
    0.9647   -0.4502    1.9187 H   0  0  0  0  0  0  0  0  0  0  0  0
   -0.7591   -0.3336    2.5172 H   0  0  0  0  0  0  0  0  0  0  0  0
   -2.3330   -0.4531   -0.5201 H   0  0  0  0  0  0  0  0  0  0  0  0
  1  2  3  0
  2  3  1  0
  3  4  1  0
  4  5  2  0
  5  6  1  0
  6  7  1  0
  7  8  1  0
  7  9  1  0
  7  3  1  0
  1 10  1  0
  3 11  1  0
  4 12  1  0
  5 13  1  0
  6 14  1  0
  6 15  1  0
  8 16  1  0
  8 17  1  0
  8 18  1  0
  9 19  1  0
M  END
