
     RDKit          3D

 17 17  0  0  0  0  0  0  0  0999 V2000
    2.9659    0.8820   -0.3148 C   0  0  0  0  0  0  0  0  0  0  0  0
    1.9065    0.3221   -0.1477 C   0  0  0  0  0  0  0  0  0  0  0  0
    0.6366   -0.3767    0.0475 C   0  0  0  0  0  0  0  0  0  0  0  0
   -0.5680    0.3371   -0.4623 C   0  0  0  0  0  0  0  0  0  0  0  0
   -1.8511   -0.3927   -0.2532 C   0  0  0  0  0  0  0  0  0  0  0  0
   -0.7056    1.7057    0.0993 C   0  0  0  0  0  0  0  0  0  0  0  0
   -1.7594    2.3010   -0.1234 O   0  0  0  0  0  0  0  0  0  0  0  0
    0.6184   -1.5088    0.9332 C   0  0  0  0  0  0  0  0  0  0  0  0
    0.6537   -1.7433   -0.5263 O   0  0  0  0  0  0  0  0  0  0  0  0
    3.8946    1.3688   -0.4545 H   0  0  0  0  0  0  0  0  0  0  0  0
   -0.4496    0.4777   -1.5779 H   0  0  0  0  0  0  0  0  0  0  0  0
   -2.1192   -1.0258   -1.1504 H   0  0  0  0  0  0  0  0  0  0  0  0
   -2.7293    0.3116   -0.1588 H   0  0  0  0  0  0  0  0  0  0  0  0
   -1.8787   -1.0219    0.6369 H   0  0  0  0  0  0  0  0  0  0  0  0
    0.0466    2.2020    0.6797 H   0  0  0  0  0  0  0  0  0  0  0  0
   -0.2479   -1.9845    1.3918 H   0  0  0  0  0  0  0  0  0  0  0  0
    1.5866   -1.8543    1.3488 H   0  0  0  0  0  0  0  0  0  0  0  0
  1  2  3  0
  2  3  1  0
  3  4  1  0
  4  5  1  0
  4  6  1  0
  6  7  2  0
  3  8  1  0
  8  9  1  0
  9  3  1  0
  1 10  1  0
  4 11  1  0
  5 12  1  0
  5 13  1  0
  5 14  1  0
  6 15  1  0
  8 16  1  0
  8 17  1  0
M  END
