
     RDKit          3D

 19 19  0  0  0  0  0  0  0  0999 V2000
    2.9015   -0.5526    0.6366 C   0  0  0  0  0  0  0  0  0  0  0  0
    1.8590   -0.0439    0.9647 C   0  0  0  0  0  0  0  0  0  0  0  0
    0.5656    0.5584    1.3708 C   0  0  0  0  0  0  0  0  0  0  0  0
    0.4660    0.3574    2.7681 O   0  0  0  0  0  0  0  0  0  0  0  0
   -0.5693   -0.1739    0.7495 C   0  0  0  0  0  0  0  0  0  0  0  0
   -0.5921   -0.1983   -0.7365 C   0  0  0  0  0  0  0  0  0  0  0  0
   -1.7788   -0.9627   -1.3107 C   0  0  0  0  0  0  0  0  0  0  0  0
   -0.2480    1.1179   -1.3969 C   0  0  0  0  0  0  0  0  0  0  0  0
    0.5348   -0.0412   -1.5057 O   0  0  0  0  0  0  0  0  0  0  0  0
    3.8077   -1.0147    0.3456 H   0  0  0  0  0  0  0  0  0  0  0  0
    0.6149    1.6229    1.1661 H   0  0  0  0  0  0  0  0  0  0  0  0
    1.4025    0.4904    3.1086 H   0  0  0  0  0  0  0  0  0  0  0  0
   -1.5233    0.2596    1.1030 H   0  0  0  0  0  0  0  0  0  0  0  0
   -0.5517   -1.2201    1.1774 H   0  0  0  0  0  0  0  0  0  0  0  0
   -1.8652   -1.9677   -0.8512 H   0  0  0  0  0  0  0  0  0  0  0  0
   -2.7152   -0.4172   -1.1874 H   0  0  0  0  0  0  0  0  0  0  0  0
   -1.6359   -1.1338   -2.4056 H   0  0  0  0  0  0  0  0  0  0  0  0
    0.2352    1.9169   -0.8150 H   0  0  0  0  0  0  0  0  0  0  0  0
   -0.9077    1.4027   -2.2403 H   0  0  0  0  0  0  0  0  0  0  0  0
  1  2  3  0
  2  3  1  0
  3  4  1  0
  3  5  1  0
  5  6  1  0
  6  7  1  0
  6  8  1  0
  8  9  1  0
  9  6  1  0
  1 10  1  0
  3 11  1  0
  4 12  1  0
  5 13  1  0
  5 14  1  0
  7 15  1  0
  7 16  1  0
  7 17  1  0
  8 18  1  0
  8 19  1  0
M  END
