
     RDKit          3D

 15 14  0  0  0  0  0  0  0  0999 V2000
   -1.6547    2.2142    1.4911 C   0  0  0  0  0  0  0  0  0  0  0  0
   -1.3622    1.2657    0.8039 C   0  0  0  0  0  0  0  0  0  0  0  0
   -0.9903    0.1131   -0.0221 C   0  0  0  0  0  0  0  0  0  0  0  0
    0.4520    0.1583   -0.3603 C   0  0  0  0  0  0  0  0  0  0  0  0
    1.6268    0.1856   -0.6281 C   0  0  0  0  0  0  0  0  0  0  0  0
    3.0568    0.2149   -0.9358 C   0  0  0  0  0  0  0  0  0  0  0  0
   -1.1682   -1.0646    0.7434 O   0  0  0  0  0  0  0  0  0  0  0  0
   -1.9905   -2.0947    0.3971 C   0  0  0  0  0  0  0  0  0  0  0  0
   -2.6540   -2.0378   -0.6639 O   0  0  0  0  0  0  0  0  0  0  0  0
   -1.9148    3.0491    2.1192 H   0  0  0  0  0  0  0  0  0  0  0  0
   -1.5889    0.1213   -0.9414 H   0  0  0  0  0  0  0  0  0  0  0  0
    3.1752    0.6218   -1.9665 H   0  0  0  0  0  0  0  0  0  0  0  0
    3.5371    0.9772   -0.2563 H   0  0  0  0  0  0  0  0  0  0  0  0
    3.5327   -0.7731   -0.8299 H   0  0  0  0  0  0  0  0  0  0  0  0
   -2.0569   -2.9510    1.0497 H   0  0  0  0  0  0  0  0  0  0  0  0
  1  2  3  0
  2  3  1  0
  3  4  1  0
  4  5  3  0
  5  6  1  0
  3  7  1  0
  7  8  1  0
  8  9  2  0
  1 10  1  0
  3 11  1  0
  6 12  1  0
  6 13  1  0
  6 14  1  0
  8 15  1  0
M  END
