
     RDKit          3D

 19 18  0  0  0  0  0  0  0  0999 V2000
    2.9541    1.6346   -2.7667 C   0  0  0  0  0  0  0  0  0  0  0  0
    2.3102    0.8134   -2.0740 C   0  0  0  0  0  0  0  0  0  0  0  0
    1.5720   -0.1024   -1.3155 C   0  0  0  0  0  0  0  0  0  0  0  0
    2.3033   -0.9810   -0.7176 O   0  0  0  0  0  0  0  0  0  0  0  0
    0.1360   -0.0353   -1.2378 C   0  0  0  0  0  0  0  0  0  0  0  0
   -0.5909   -0.9607   -0.3517 C   0  0  0  0  0  0  0  0  0  0  0  0
   -0.3123   -0.9477    1.0819 C   0  0  0  0  0  0  0  0  0  0  0  0
   -0.5553    0.2830    1.6761 O   0  0  0  0  0  0  0  0  0  0  0  0
   -1.8798    0.6641    1.5302 C   0  0  0  0  0  0  0  0  0  0  0  0
    3.5010    2.3628   -3.3693 H   0  0  0  0  0  0  0  0  0  0  0  0
   -0.2262   -0.1844   -2.3089 H   0  0  0  0  0  0  0  0  0  0  0  0
   -0.1797    0.9994   -0.9970 H   0  0  0  0  0  0  0  0  0  0  0  0
   -0.3183   -2.0033   -0.7252 H   0  0  0  0  0  0  0  0  0  0  0  0
   -1.6873   -0.9395   -0.5213 H   0  0  0  0  0  0  0  0  0  0  0  0
   -0.9948   -1.6746    1.6181 H   0  0  0  0  0  0  0  0  0  0  0  0
    0.7015   -1.2721    1.3925 H   0  0  0  0  0  0  0  0  0  0  0  0
   -2.0093    1.6445    2.0392 H   0  0  0  0  0  0  0  0  0  0  0  0
   -2.5838   -0.0612    1.9761 H   0  0  0  0  0  0  0  0  0  0  0  0
   -2.1402    0.7603    0.4336 H   0  0  0  0  0  0  0  0  0  0  0  0
  1  2  3  0
  2  3  1  0
  3  4  2  0
  3  5  1  0
  5  6  1  0
  6  7  1  0
  7  8  1  0
  8  9  1  0
  1 10  1  0
  5 11  1  0
  5 12  1  0
  6 13  1  0
  6 14  1  0
  7 15  1  0
  7 16  1  0
  9 17  1  0
  9 18  1  0
  9 19  1  0
M  END
