
     RDKit          3D

 15 15  0  0  0  0  0  0  0  0999 V2000
    1.1102    1.7057    1.4847 C   0  0  0  0  0  0  0  0  0  0  0  0
    0.2084    1.2215    1.1878 C   0  0  0  0  0  0  0  0  0  0  0  0
   -1.0715    0.5408    0.7402 C   0  0  0  0  0  0  0  0  0  0  0  0
   -0.6307   -0.9233    0.5095 C   0  0  0  0  0  0  0  0  0  0  0  0
   -0.0277   -0.9196   -0.8444 C   0  0  0  0  0  0  0  0  0  0  0  0
    1.3215   -1.3300   -0.8901 O   0  0  0  0  0  0  0  0  0  0  0  0
   -0.1263    0.4870   -1.3107 C   0  0  0  0  0  0  0  0  0  0  0  0
    0.5672    1.1645   -2.1017 O   0  0  0  0  0  0  0  0  0  0  0  0
   -1.2869    0.9809   -0.6098 O   0  0  0  0  0  0  0  0  0  0  0  0
    2.1229    2.2578    1.8398 H   0  0  0  0  0  0  0  0  0  0  0  0
   -1.8483    0.6294    1.4351 H   0  0  0  0  0  0  0  0  0  0  0  0
    0.1583   -1.1424    1.2752 H   0  0  0  0  0  0  0  0  0  0  0  0
   -1.4431   -1.6120    0.7117 H   0  0  0  0  0  0  0  0  0  0  0  0
   -0.6043   -1.5423   -1.5870 H   0  0  0  0  0  0  0  0  0  0  0  0
    1.5503   -1.5180   -1.8403 H   0  0  0  0  0  0  0  0  0  0  0  0
  1  2  3  0
  2  3  1  0
  3  4  1  0
  4  5  1  0
  5  6  1  0
  5  7  1  0
  7  8  2  0
  7  9  1  0
  9  3  1  0
  1 10  1  0
  3 11  1  0
  4 12  1  0
  4 13  1  0
  5 14  1  0
  6 15  1  0
M  END
