
     RDKit          3D

 20 19  0  0  0  0  0  0  0  0999 V2000
    2.8326   -0.1398    1.2508 C   0  0  0  0  0  0  0  0  0  0  0  0
    1.9842   -0.2108    0.3970 C   0  0  0  0  0  0  0  0  0  0  0  0
    0.9361   -0.2764   -0.6368 C   0  0  0  0  0  0  0  0  0  0  0  0
   -0.3536    0.3273   -0.1465 C   0  0  0  0  0  0  0  0  0  0  0  0
   -1.3708    0.2223   -1.2532 C   0  0  0  0  0  0  0  0  0  0  0  0
   -0.1203    1.8297    0.0707 C   0  0  0  0  0  0  0  0  0  0  0  0
   -0.7170   -0.2380    1.0297 O   0  0  0  0  0  0  0  0  0  0  0  0
   -0.9312   -1.5851    1.0278 C   0  0  0  0  0  0  0  0  0  0  0  0
    3.6020   -0.0666    2.0021 H   0  0  0  0  0  0  0  0  0  0  0  0
    1.3327    0.2735   -1.5401 H   0  0  0  0  0  0  0  0  0  0  0  0
    0.7435   -1.3244   -0.9354 H   0  0  0  0  0  0  0  0  0  0  0  0
   -0.9051    0.7251   -2.1517 H   0  0  0  0  0  0  0  0  0  0  0  0
   -2.2863    0.8196   -1.0424 H   0  0  0  0  0  0  0  0  0  0  0  0
   -1.5905   -0.8092   -1.5545 H   0  0  0  0  0  0  0  0  0  0  0  0
   -0.2485    2.3357   -0.8935 H   0  0  0  0  0  0  0  0  0  0  0  0
   -0.9392    2.1597    0.7510 H   0  0  0  0  0  0  0  0  0  0  0  0
    0.8840    2.0056    0.5067 H   0  0  0  0  0  0  0  0  0  0  0  0
   -1.2272   -1.9795    2.0217 H   0  0  0  0  0  0  0  0  0  0  0  0
   -1.6615   -1.9498    0.2977 H   0  0  0  0  0  0  0  0  0  0  0  0
    0.0361   -2.1189    0.7989 H   0  0  0  0  0  0  0  0  0  0  0  0
  1  2  3  0
  2  3  1  0
  3  4  1  0
  4  5  1  0
  4  6  1  0
  4  7  1  0
  7  8  1  0
  1  9  1  0
  3 10  1  0
  3 11  1  0
  5 12  1  0
  5 13  1  0
  5 14  1  0
  6 15  1  0
  6 16  1  0
  6 17  1  0
  8 18  1  0
  8 19  1  0
  8 20  1  0
M  END
