
     RDKit          3D

 19 19  0  0  0  0  0  0  0  0999 V2000
    3.6507    0.8071    0.3793 C   0  0  0  0  0  0  0  0  0  0  0  0
    2.5504    0.4698    0.0199 C   0  0  0  0  0  0  0  0  0  0  0  0
    1.2184    0.0531   -0.4409 C   0  0  0  0  0  0  0  0  0  0  0  0
    0.5089    1.1872   -1.0675 C   0  0  0  0  0  0  0  0  0  0  0  0
   -0.7933    1.3704   -0.9474 C   0  0  0  0  0  0  0  0  0  0  0  0
   -1.6038    0.4149   -0.1569 C   0  0  0  0  0  0  0  0  0  0  0  0
   -0.7659   -0.7568    0.2004 C   0  0  0  0  0  0  0  0  0  0  0  0
   -1.3899   -1.6771    1.2187 C   0  0  0  0  0  0  0  0  0  0  0  0
    0.4961   -0.3362    0.6836 O   0  0  0  0  0  0  0  0  0  0  0  0
    4.6357    1.1117    0.6928 H   0  0  0  0  0  0  0  0  0  0  0  0
    1.2777   -0.8378   -1.0954 H   0  0  0  0  0  0  0  0  0  0  0  0
    1.0535    1.9437   -1.6751 H   0  0  0  0  0  0  0  0  0  0  0  0
   -1.2852    2.2454   -1.4415 H   0  0  0  0  0  0  0  0  0  0  0  0
   -2.1009    0.8972    0.7092 H   0  0  0  0  0  0  0  0  0  0  0  0
   -2.4532    0.1122   -0.8323 H   0  0  0  0  0  0  0  0  0  0  0  0
   -0.5399   -1.3208   -0.7375 H   0  0  0  0  0  0  0  0  0  0  0  0
   -0.5713   -2.3864    1.5393 H   0  0  0  0  0  0  0  0  0  0  0  0
   -1.6274   -1.0906    2.1299 H   0  0  0  0  0  0  0  0  0  0  0  0
   -2.2605   -2.2068    0.8214 H   0  0  0  0  0  0  0  0  0  0  0  0
  1  2  3  0
  2  3  1  0
  3  4  1  0
  4  5  2  0
  5  6  1  0
  6  7  1  0
  7  8  1  0
  7  9  1  0
  9  3  1  0
  1 10  1  0
  3 11  1  0
  4 12  1  0
  5 13  1  0
  6 14  1  0
  6 15  1  0
  7 16  1  0
  8 17  1  0
  8 18  1  0
  8 19  1  0
M  END
