
     RDKit          3D

 19 21  0  0  0  0  0  0  0  0999 V2000
    2.5264    0.9569    1.6811 C   0  0  0  0  0  0  0  0  0  0  0  0
    1.7657    0.5224    0.8512 C   0  0  0  0  0  0  0  0  0  0  0  0
    0.8420   -0.0142   -0.1616 C   0  0  0  0  0  0  0  0  0  0  0  0
    0.9763   -1.3919   -0.6200 C   0  0  0  0  0  0  0  0  0  0  0  0
   -0.0959   -1.1691    0.3488 C   0  0  0  0  0  0  0  0  0  0  0  0
   -1.4046   -0.5397    0.0201 C   0  0  0  0  0  0  0  0  0  0  0  0
   -1.1919    0.8883    0.5492 C   0  0  0  0  0  0  0  0  0  0  0  0
   -0.1984    0.9388   -0.6229 C   0  0  0  0  0  0  0  0  0  0  0  0
   -1.2161    0.0804   -1.3446 C   0  0  0  0  0  0  0  0  0  0  0  0
    3.1992    1.3482    2.4057 H   0  0  0  0  0  0  0  0  0  0  0  0
    0.7992   -1.7191   -1.6707 H   0  0  0  0  0  0  0  0  0  0  0  0
    1.8743   -1.9357   -0.1972 H   0  0  0  0  0  0  0  0  0  0  0  0
    0.0342   -1.4430    1.4119 H   0  0  0  0  0  0  0  0  0  0  0  0
   -2.3250   -1.0140    0.2572 H   0  0  0  0  0  0  0  0  0  0  0  0
   -0.7133    0.9408    1.5257 H   0  0  0  0  0  0  0  0  0  0  0  0
   -2.0758    1.5094    0.4216 H   0  0  0  0  0  0  0  0  0  0  0  0
    0.0459    1.8937   -1.0135 H   0  0  0  0  0  0  0  0  0  0  0  0
   -0.7964   -0.5400   -2.1269 H   0  0  0  0  0  0  0  0  0  0  0  0
   -2.0458    0.6879   -1.7150 H   0  0  0  0  0  0  0  0  0  0  0  0
  1  2  3  0
  2  3  1  0
  3  4  1  0
  4  5  1  0
  5  6  1  0
  6  7  1  0
  7  8  1  0
  8  9  1  0
  5  3  1  0
  9  6  1  0
  8  3  1  0
  1 10  1  0
  4 11  1  0
  4 12  1  0
  5 13  1  0
  6 14  1  0
  7 15  1  0
  7 16  1  0
  8 17  1  0
  9 18  1  0
  9 19  1  0
M  END
