
     RDKit          3D

 16 15  0  0  0  0  0  0  0  0999 V2000
    1.7253    2.0764    0.7369 C   0  0  0  0  0  0  0  0  0  0  0  0
    1.5204    0.9031    0.4392 C   0  0  0  0  0  0  0  0  0  0  0  0
    1.2526   -0.4869    0.0784 C   0  0  0  0  0  0  0  0  0  0  0  0
   -0.1880   -0.7936    0.4379 C   0  0  0  0  0  0  0  0  0  0  0  0
   -0.3882   -0.6124    1.7899 O   0  0  0  0  0  0  0  0  0  0  0  0
   -1.1371   -0.0030   -0.3771 C   0  0  0  0  0  0  0  0  0  0  0  0
   -1.1398   -0.0142   -1.8642 C   0  0  0  0  0  0  0  0  0  0  0  0
   -1.9551    0.6903    0.2285 O   0  0  0  0  0  0  0  0  0  0  0  0
    1.9056    3.0820    1.0108 H   0  0  0  0  0  0  0  0  0  0  0  0
    1.4444   -0.6780   -0.9874 H   0  0  0  0  0  0  0  0  0  0  0  0
    1.9613   -1.1178    0.6688 H   0  0  0  0  0  0  0  0  0  0  0  0
   -0.3266   -1.8876    0.2070 H   0  0  0  0  0  0  0  0  0  0  0  0
   -1.1850   -1.1425    2.0466 H   0  0  0  0  0  0  0  0  0  0  0  0
   -2.0274   -0.5989   -2.2116 H   0  0  0  0  0  0  0  0  0  0  0  0
   -1.2276    1.0591   -2.1855 H   0  0  0  0  0  0  0  0  0  0  0  0
   -0.2349   -0.4760   -2.2855 H   0  0  0  0  0  0  0  0  0  0  0  0
  1  2  3  0
  2  3  1  0
  3  4  1  0
  4  5  1  0
  4  6  1  0
  6  7  1  0
  6  8  2  0
  1  9  1  0
  3 10  1  0
  3 11  1  0
  4 12  1  0
  5 13  1  0
  7 14  1  0
  7 15  1  0
  7 16  1  0
M  END
