
     RDKit          3D

 19 20  0  0  0  0  0  0  0  0999 V2000
    2.8834   -1.7006    0.0838 C   0  0  0  0  0  0  0  0  0  0  0  0
    1.9947   -0.8947   -0.0011 C   0  0  0  0  0  0  0  0  0  0  0  0
    0.8863    0.0836   -0.1153 C   0  0  0  0  0  0  0  0  0  0  0  0
    0.1630    0.0490   -1.3979 C   0  0  0  0  0  0  0  0  0  0  0  0
   -1.1252   -0.2283   -1.4899 C   0  0  0  0  0  0  0  0  0  0  0  0
   -1.8744   -0.5161   -0.2514 C   0  0  0  0  0  0  0  0  0  0  0  0
   -1.4078    0.5462    0.7555 C   0  0  0  0  0  0  0  0  0  0  0  0
    0.0413    0.2607    1.0583 C   0  0  0  0  0  0  0  0  0  0  0  0
    0.9947    1.3464    0.6786 C   0  0  0  0  0  0  0  0  0  0  0  0
    3.6581   -2.4134    0.1645 H   0  0  0  0  0  0  0  0  0  0  0  0
    0.7383    0.2656   -2.3004 H   0  0  0  0  0  0  0  0  0  0  0  0
   -1.5963   -0.2392   -2.4461 H   0  0  0  0  0  0  0  0  0  0  0  0
   -2.9715   -0.4640   -0.3730 H   0  0  0  0  0  0  0  0  0  0  0  0
   -1.5648   -1.4921    0.2031 H   0  0  0  0  0  0  0  0  0  0  0  0
   -1.5418    1.5514    0.2814 H   0  0  0  0  0  0  0  0  0  0  0  0
   -2.0114    0.5346    1.6677 H   0  0  0  0  0  0  0  0  0  0  0  0
    0.2413   -0.3859    1.9382 H   0  0  0  0  0  0  0  0  0  0  0  0
    0.5928    2.2539    0.2094 H   0  0  0  0  0  0  0  0  0  0  0  0
    1.8993    1.4429    1.3347 H   0  0  0  0  0  0  0  0  0  0  0  0
  1  2  3  0
  2  3  1  0
  3  4  1  0
  4  5  2  0
  5  6  1  0
  6  7  1  0
  7  8  1  0
  8  9  1  0
  8  3  1  0
  9  3  1  0
  1 10  1  0
  4 11  1  0
  5 12  1  0
  6 13  1  0
  6 14  1  0
  7 15  1  0
  7 16  1  0
  8 17  1  0
  9 18  1  0
  9 19  1  0
M  END
