
     RDKit          3D

 21 21  0  0  0  0  0  0  0  0999 V2000
    4.2591   -0.2058    0.6592 C   0  0  0  0  0  0  0  0  0  0  0  0
    3.1912   -0.6817    0.2430 C   0  0  0  0  0  0  0  0  0  0  0  0
    1.9530   -1.2568   -0.2579 C   0  0  0  0  0  0  0  0  0  0  0  0
    0.7256   -0.6853    0.4170 C   0  0  0  0  0  0  0  0  0  0  0  0
   -0.4369   -1.2436   -0.0722 O   0  0  0  0  0  0  0  0  0  0  0  0
   -1.5328   -0.6805    0.4746 C   0  0  0  0  0  0  0  0  0  0  0  0
   -1.9561    0.6848    0.1022 C   0  0  0  0  0  0  0  0  0  0  0  0
   -2.3522    1.0130   -1.2969 C   0  0  0  0  0  0  0  0  0  0  0  0
   -1.1428    1.6654   -0.5849 C   0  0  0  0  0  0  0  0  0  0  0  0
    5.1434    0.1956    0.9871 H   0  0  0  0  0  0  0  0  0  0  0  0
    1.8956   -1.2010   -1.3529 H   0  0  0  0  0  0  0  0  0  0  0  0
    1.9858   -2.3584   -0.0179 H   0  0  0  0  0  0  0  0  0  0  0  0
    0.7195    0.3888    0.3976 H   0  0  0  0  0  0  0  0  0  0  0  0
    0.7770   -0.9551    1.5394 H   0  0  0  0  0  0  0  0  0  0  0  0
   -1.3662   -0.6927    1.6074 H   0  0  0  0  0  0  0  0  0  0  0  0
   -2.3837   -1.4190    0.3724 H   0  0  0  0  0  0  0  0  0  0  0  0
   -2.6861    1.1161    0.8627 H   0  0  0  0  0  0  0  0  0  0  0  0
   -3.1540    1.7158   -1.5072 H   0  0  0  0  0  0  0  0  0  0  0  0
   -2.1429    0.3133   -2.1348 H   0  0  0  0  0  0  0  0  0  0  0  0
   -0.2240    1.5384   -1.1739 H   0  0  0  0  0  0  0  0  0  0  0  0
   -1.2723    2.7487   -0.3015 H   0  0  0  0  0  0  0  0  0  0  0  0
  1  2  3  0
  2  3  1  0
  3  4  1  0
  4  5  1  0
  5  6  1  0
  6  7  1  0
  7  8  1  0
  8  9  1  0
  9  7  1  0
  1 10  1  0
  3 11  1  0
  3 12  1  0
  4 13  1  0
  4 14  1  0
  6 15  1  0
  6 16  1  0
  7 17  1  0
  8 18  1  0
  8 19  1  0
  9 20  1  0
  9 21  1  0
M  END
