
     RDKit          3D

 21 21  0  0  0  0  0  0  0  0999 V2000
    3.2241   -1.6806   -0.1246 C   0  0  0  0  0  0  0  0  0  0  0  0
    2.3180   -1.0023    0.3116 C   0  0  0  0  0  0  0  0  0  0  0  0
    1.2274   -0.1876    0.8635 C   0  0  0  0  0  0  0  0  0  0  0  0
    0.6583    0.9180    0.0135 C   0  0  0  0  0  0  0  0  0  0  0  0
    0.2224    2.2006    0.6611 C   0  0  0  0  0  0  0  0  0  0  0  0
   -0.0952   -0.3297    0.1142 C   0  0  0  0  0  0  0  0  0  0  0  0
   -0.1271   -1.1847   -0.9944 O   0  0  0  0  0  0  0  0  0  0  0  0
   -1.2789   -0.5018    1.0301 C   0  0  0  0  0  0  0  0  0  0  0  0
   -2.5568   -0.6370    0.2282 C   0  0  0  0  0  0  0  0  0  0  0  0
    4.0212   -2.2650   -0.5217 H   0  0  0  0  0  0  0  0  0  0  0  0
    1.2168   -0.1241    1.9569 H   0  0  0  0  0  0  0  0  0  0  0  0
    1.2190    1.0775   -0.9397 H   0  0  0  0  0  0  0  0  0  0  0  0
   -0.3913    2.0767    1.5511 H   0  0  0  0  0  0  0  0  0  0  0  0
    1.1536    2.7602    0.9553 H   0  0  0  0  0  0  0  0  0  0  0  0
   -0.2619    2.8256   -0.1258 H   0  0  0  0  0  0  0  0  0  0  0  0
    0.4238   -0.8508   -1.7442 H   0  0  0  0  0  0  0  0  0  0  0  0
   -1.4070    0.3189    1.7503 H   0  0  0  0  0  0  0  0  0  0  0  0
   -1.0840   -1.4247    1.6261 H   0  0  0  0  0  0  0  0  0  0  0  0
   -3.3878   -0.3396    0.8972 H   0  0  0  0  0  0  0  0  0  0  0  0
   -2.4513    0.0374   -0.6517 H   0  0  0  0  0  0  0  0  0  0  0  0
   -2.6433   -1.6869   -0.1278 H   0  0  0  0  0  0  0  0  0  0  0  0
  1  2  3  0
  2  3  1  0
  3  4  1  0
  4  5  1  0
  4  6  1  0
  6  7  1  0
  6  8  1  0
  8  9  1  0
  6  3  1  0
  1 10  1  0
  3 11  1  0
  4 12  1  0
  5 13  1  0
  5 14  1  0
  5 15  1  0
  7 16  1  0
  8 17  1  0
  8 18  1  0
  9 19  1  0
  9 20  1  0
  9 21  1  0
M  END
