
     RDKit          3D

 18 18  0  0  0  0  0  0  0  0999 V2000
    2.7692    1.1265    1.0761 C   0  0  0  0  0  0  0  0  0  0  0  0
    1.9822    0.3541    0.4693 C   0  0  0  0  0  0  0  0  0  0  0  0
    1.0665   -0.5253   -0.2063 C   0  0  0  0  0  0  0  0  0  0  0  0
    0.1215    0.4758   -0.9999 C   0  0  0  0  0  0  0  0  0  0  0  0
   -1.2404   -0.0240   -0.4437 C   0  0  0  0  0  0  0  0  0  0  0  0
   -1.4670    0.5130    0.9153 C   0  0  0  0  0  0  0  0  0  0  0  0
   -0.8160   -1.5087   -0.4255 C   0  0  0  0  0  0  0  0  0  0  0  0
    0.2644   -1.3326    0.5184 O   0  0  0  0  0  0  0  0  0  0  0  0
    3.4850    1.8037    1.6178 H   0  0  0  0  0  0  0  0  0  0  0  0
    1.6749   -1.0903   -0.9825 H   0  0  0  0  0  0  0  0  0  0  0  0
    0.2788    1.4973   -0.6841 H   0  0  0  0  0  0  0  0  0  0  0  0
    0.2283    0.3090   -2.0577 H   0  0  0  0  0  0  0  0  0  0  0  0
   -2.0182    0.1489   -1.1601 H   0  0  0  0  0  0  0  0  0  0  0  0
   -0.5757    1.1536    1.2162 H   0  0  0  0  0  0  0  0  0  0  0  0
   -2.3636    1.2027    0.8997 H   0  0  0  0  0  0  0  0  0  0  0  0
   -1.5824   -0.1938    1.7519 H   0  0  0  0  0  0  0  0  0  0  0  0
   -1.5145   -2.1922   -0.0859 H   0  0  0  0  0  0  0  0  0  0  0  0
   -0.2931   -1.7178   -1.4190 H   0  0  0  0  0  0  0  0  0  0  0  0
  1  2  3  0
  2  3  1  0
  3  4  1  0
  4  5  1  0
  5  6  1  0
  5  7  1  0
  7  8  1  0
  8  3  1  0
  1  9  1  0
  3 10  1  0
  4 11  1  0
  4 12  1  0
  5 13  1  0
  6 14  1  0
  6 15  1  0
  6 16  1  0
  7 17  1  0
  7 18  1  0
M  END
