
     RDKit          3D

 15 17  0  0  0  0  0  0  0  0999 V2000
    3.1413    0.3223   -1.1669 C   0  0  0  0  0  0  0  0  0  0  0  0
    2.0616    0.1665   -0.6738 C   0  0  0  0  0  0  0  0  0  0  0  0
    0.7730   -0.0435   -0.0800 C   0  0  0  0  0  0  0  0  0  0  0  0
    0.5139    0.2023    1.2407 O   0  0  0  0  0  0  0  0  0  0  0  0
   -0.7861    0.5708    0.9768 C   0  0  0  0  0  0  0  0  0  0  0  0
   -1.6873   -0.6696    0.8863 C   0  0  0  0  0  0  0  0  0  0  0  0
   -1.1437   -1.4799   -0.0845 O   0  0  0  0  0  0  0  0  0  0  0  0
   -0.3382   -0.6816   -0.8954 C   0  0  0  0  0  0  0  0  0  0  0  0
   -0.4064    0.7024   -0.4674 C   0  0  0  0  0  0  0  0  0  0  0  0
    4.1314    0.4824   -1.6103 H   0  0  0  0  0  0  0  0  0  0  0  0
   -1.1986    1.4142    1.5015 H   0  0  0  0  0  0  0  0  0  0  0  0
   -2.7042   -0.3701    0.4957 H   0  0  0  0  0  0  0  0  0  0  0  0
   -1.7690   -1.1712    1.8691 H   0  0  0  0  0  0  0  0  0  0  0  0
   -0.0942   -1.0338   -1.9052 H   0  0  0  0  0  0  0  0  0  0  0  0
   -0.4934    1.5885   -1.0461 H   0  0  0  0  0  0  0  0  0  0  0  0
  1  2  3  0
  2  3  1  0
  3  4  1  0
  4  5  1  0
  5  6  1  0
  6  7  1  0
  7  8  1  0
  8  9  1  0
  8  3  1  0
  9  3  1  0
  9  5  1  0
  1 10  1  0
  5 11  1  0
  6 12  1  0
  6 13  1  0
  8 14  1  0
  9 15  1  0
M  END
