
     RDKit          3D

 14 14  0  0  0  0  0  0  0  0999 V2000
    1.8506   -0.0188    1.9682 C   0  0  0  0  0  0  0  0  0  0  0  0
    0.7928    0.1640    1.3931 C   0  0  0  0  0  0  0  0  0  0  0  0
   -0.4802    0.3894    0.6930 C   0  0  0  0  0  0  0  0  0  0  0  0
   -0.9330   -0.7470   -0.1443 C   0  0  0  0  0  0  0  0  0  0  0  0
   -2.2898   -0.9590   -0.3875 O   0  0  0  0  0  0  0  0  0  0  0  0
   -0.3271    0.4838   -0.8028 C   0  0  0  0  0  0  0  0  0  0  0  0
    1.0012    0.2314   -1.4197 C   0  0  0  0  0  0  0  0  0  0  0  0
    1.3032    0.8024   -2.4414 O   0  0  0  0  0  0  0  0  0  0  0  0
    2.7641   -0.1783    2.4857 H   0  0  0  0  0  0  0  0  0  0  0  0
   -1.2628    0.9606    1.1936 H   0  0  0  0  0  0  0  0  0  0  0  0
   -0.3461   -1.6919   -0.1368 H   0  0  0  0  0  0  0  0  0  0  0  0
   -2.7948   -0.1605   -0.1313 H   0  0  0  0  0  0  0  0  0  0  0  0
   -0.9866    1.1870   -1.3071 H   0  0  0  0  0  0  0  0  0  0  0  0
    1.7086   -0.4631   -0.9625 H   0  0  0  0  0  0  0  0  0  0  0  0
  1  2  3  0
  2  3  1  0
  3  4  1  0
  4  5  1  0
  4  6  1  0
  6  7  1  0
  7  8  2  0
  6  3  1  0
  1  9  1  0
  3 10  1  0
  4 11  1  0
  5 12  1  0
  6 13  1  0
  7 14  1  0
M  END
