
     RDKit          3D

 20 20  0  0  0  0  0  0  0  0999 V2000
   -1.3391    2.0074    1.3433 C   0  0  0  0  0  0  0  0  0  0  0  0
   -0.9314    1.3703    0.3886 C   0  0  0  0  0  0  0  0  0  0  0  0
   -0.4245    0.6208   -0.7671 C   0  0  0  0  0  0  0  0  0  0  0  0
   -1.3056   -0.5969   -1.0251 C   0  0  0  0  0  0  0  0  0  0  0  0
   -0.7985   -1.6244   -0.0367 C   0  0  0  0  0  0  0  0  0  0  0  0
    0.6312   -1.2612    0.2714 C   0  0  0  0  0  0  0  0  0  0  0  0
    0.9261    0.0337   -0.4469 C   0  0  0  0  0  0  0  0  0  0  0  0
    1.7305    0.9837    0.4197 C   0  0  0  0  0  0  0  0  0  0  0  0
   -1.7037    2.5489    2.1838 H   0  0  0  0  0  0  0  0  0  0  0  0
   -0.3904    1.2548   -1.6511 H   0  0  0  0  0  0  0  0  0  0  0  0
   -2.3315   -0.3056   -0.7220 H   0  0  0  0  0  0  0  0  0  0  0  0
   -1.2320   -0.9501   -2.0607 H   0  0  0  0  0  0  0  0  0  0  0  0
   -0.9076   -2.6149   -0.4964 H   0  0  0  0  0  0  0  0  0  0  0  0
   -1.4399   -1.6172    0.8815 H   0  0  0  0  0  0  0  0  0  0  0  0
    0.8274   -1.1617    1.3528 H   0  0  0  0  0  0  0  0  0  0  0  0
    1.3124   -2.0459   -0.1195 H   0  0  0  0  0  0  0  0  0  0  0  0
    1.5207   -0.1643   -1.3686 H   0  0  0  0  0  0  0  0  0  0  0  0
    1.0811    1.5544    1.1134 H   0  0  0  0  0  0  0  0  0  0  0  0
    2.3272    1.6185   -0.2479 H   0  0  0  0  0  0  0  0  0  0  0  0
    2.4476    0.3498    0.9876 H   0  0  0  0  0  0  0  0  0  0  0  0
  1  2  3  0
  2  3  1  0
  3  4  1  0
  4  5  1  0
  5  6  1  0
  6  7  1  0
  7  8  1  0
  7  3  1  0
  1  9  1  0
  3 10  1  0
  4 11  1  0
  4 12  1  0
  5 13  1  0
  5 14  1  0
  6 15  1  0
  6 16  1  0
  7 17  1  0
  8 18  1  0
  8 19  1  0
  8 20  1  0
M  END
