
     RDKit          3D

 19 18  0  0  0  0  0  0  0  0999 V2000
   -2.0593    1.8472    1.0898 C   0  0  0  0  0  0  0  0  0  0  0  0
   -1.9363    0.7700    0.5206 C   0  0  0  0  0  0  0  0  0  0  0  0
   -1.8108   -0.5243   -0.1507 C   0  0  0  0  0  0  0  0  0  0  0  0
   -0.4919   -0.5007   -0.9047 C   0  0  0  0  0  0  0  0  0  0  0  0
   -0.3529   -1.8359   -1.6027 C   0  0  0  0  0  0  0  0  0  0  0  0
    0.5990   -0.3309   -0.0492 O   0  0  0  0  0  0  0  0  0  0  0  0
    1.4835    0.7251   -0.0763 C   0  0  0  0  0  0  0  0  0  0  0  0
    2.6176    0.8635    0.8430 C   0  0  0  0  0  0  0  0  0  0  0  0
    1.2838    1.6155   -0.9564 O   0  0  0  0  0  0  0  0  0  0  0  0
   -2.1624    2.7873    1.5660 H   0  0  0  0  0  0  0  0  0  0  0  0
   -1.9050   -1.3630    0.5366 H   0  0  0  0  0  0  0  0  0  0  0  0
   -2.6135   -0.5797   -0.9407 H   0  0  0  0  0  0  0  0  0  0  0  0
   -0.5432    0.3468   -1.6167 H   0  0  0  0  0  0  0  0  0  0  0  0
   -1.3304   -2.2419   -1.9432 H   0  0  0  0  0  0  0  0  0  0  0  0
    0.3927   -1.7987   -2.4257 H   0  0  0  0  0  0  0  0  0  0  0  0
    0.0360   -2.5526   -0.8449 H   0  0  0  0  0  0  0  0  0  0  0  0
    2.3465    0.6435    1.9009 H   0  0  0  0  0  0  0  0  0  0  0  0
    3.4647    0.2183    0.5584 H   0  0  0  0  0  0  0  0  0  0  0  0
    2.9818    1.9104    0.8348 H   0  0  0  0  0  0  0  0  0  0  0  0
  1  2  3  0
  2  3  1  0
  3  4  1  0
  4  5  1  0
  4  6  1  0
  6  7  1  0
  7  8  1  0
  7  9  2  0
  1 10  1  0
  3 11  1  0
  3 12  1  0
  4 13  1  0
  5 14  1  0
  5 15  1  0
  5 16  1  0
  8 17  1  0
  8 18  1  0
  8 19  1  0
M  END
