
     RDKit          3D

 19 19  0  0  0  0  0  0  0  0999 V2000
    2.5523   -1.8887    0.0759 C   0  0  0  0  0  0  0  0  0  0  0  0
    1.7557   -0.8798    0.1561 C   0  0  0  0  0  0  0  0  0  0  0  0
    0.9069    0.2342    0.2377 C   0  0  0  0  0  0  0  0  0  0  0  0
    1.4196    1.4689    0.4491 C   0  0  0  0  0  0  0  0  0  0  0  0
    1.9144    2.7196    0.6687 C   0  0  0  0  0  0  0  0  0  0  0  0
   -0.3593   -0.0619    1.1507 C   0  0  0  0  0  0  0  0  0  0  0  0
   -0.9755   -0.7016   -0.0758 C   0  0  0  0  0  0  0  0  0  0  0  0
   -2.4514   -0.3345   -0.2101 C   0  0  0  0  0  0  0  0  0  0  0  0
   -0.1414    0.1761   -0.9409 C   0  0  0  0  0  0  0  0  0  0  0  0
    3.2489   -2.7542    0.0137 H   0  0  0  0  0  0  0  0  0  0  0  0
    2.2813    3.6869    0.8280 H   0  0  0  0  0  0  0  0  0  0  0  0
   -0.7919    0.9013    1.4165 H   0  0  0  0  0  0  0  0  0  0  0  0
   -0.1285   -0.7660    1.9507 H   0  0  0  0  0  0  0  0  0  0  0  0
   -0.7312   -1.7770   -0.1645 H   0  0  0  0  0  0  0  0  0  0  0  0
   -2.9236   -0.0485    0.7035 H   0  0  0  0  0  0  0  0  0  0  0  0
   -2.5074    0.5155   -0.9882 H   0  0  0  0  0  0  0  0  0  0  0  0
   -2.8637   -1.2228   -0.8004 H   0  0  0  0  0  0  0  0  0  0  0  0
   -0.5141    1.1492   -1.2258 H   0  0  0  0  0  0  0  0  0  0  0  0
    0.3090   -0.4167   -1.7419 H   0  0  0  0  0  0  0  0  0  0  0  0
  1  2  3  0
  2  3  1  0
  3  4  1  0
  4  5  3  0
  3  6  1  0
  6  7  1  0
  7  8  1  0
  7  9  1  0
  9  3  1  0
  1 10  1  0
  5 11  1  0
  6 12  1  0
  6 13  1  0
  7 14  1  0
  8 15  1  0
  8 16  1  0
  8 17  1  0
  9 18  1  0
  9 19  1  0
M  END
