
     RDKit          3D

 19 19  0  0  0  0  0  0  0  0999 V2000
    3.5847   -0.1183    0.9668 C   0  0  0  0  0  0  0  0  0  0  0  0
    2.4063   -0.0380    0.7045 C   0  0  0  0  0  0  0  0  0  0  0  0
    0.9898    0.0332    0.3911 C   0  0  0  0  0  0  0  0  0  0  0  0
    0.4057   -1.3601    0.2963 C   0  0  0  0  0  0  0  0  0  0  0  0
   -1.0728   -1.2566    0.4032 C   0  0  0  0  0  0  0  0  0  0  0  0
   -1.9332   -0.3947   -0.1158 C   0  0  0  0  0  0  0  0  0  0  0  0
   -1.6825    0.7608   -0.9845 C   0  0  0  0  0  0  0  0  0  0  0  0
   -0.4262    1.5115   -0.6726 C   0  0  0  0  0  0  0  0  0  0  0  0
    0.7121    0.7158   -0.7675 O   0  0  0  0  0  0  0  0  0  0  0  0
    4.6299   -0.2077    1.1952 H   0  0  0  0  0  0  0  0  0  0  0  0
    0.4195    0.5473    1.2192 H   0  0  0  0  0  0  0  0  0  0  0  0
    0.6168   -1.7412   -0.7365 H   0  0  0  0  0  0  0  0  0  0  0  0
    0.8436   -2.0335    1.0391 H   0  0  0  0  0  0  0  0  0  0  0  0
   -1.5297   -2.0230    1.0150 H   0  0  0  0  0  0  0  0  0  0  0  0
   -2.9939   -0.5690    0.1411 H   0  0  0  0  0  0  0  0  0  0  0  0
   -1.5892    0.3865   -2.0340 H   0  0  0  0  0  0  0  0  0  0  0  0
   -2.5247    1.4793   -0.9452 H   0  0  0  0  0  0  0  0  0  0  0  0
   -0.3182    2.3133   -1.4319 H   0  0  0  0  0  0  0  0  0  0  0  0
   -0.5381    1.9943    0.3164 H   0  0  0  0  0  0  0  0  0  0  0  0
  1  2  3  0
  2  3  1  0
  3  4  1  0
  4  5  1  0
  5  6  2  0
  6  7  1  0
  7  8  1  0
  8  9  1  0
  9  3  1  0
  1 10  1  0
  3 11  1  0
  4 12  1  0
  4 13  1  0
  5 14  1  0
  6 15  1  0
  7 16  1  0
  7 17  1  0
  8 18  1  0
  8 19  1  0
M  END
