
     RDKit          3D

 16 17  0  0  0  0  0  0  0  0999 V2000
    2.5121    0.9888    1.1935 C   0  0  0  0  0  0  0  0  0  0  0  0
    1.4744    0.3654    1.1711 C   0  0  0  0  0  0  0  0  0  0  0  0
    0.2378   -0.3969    1.1605 C   0  0  0  0  0  0  0  0  0  0  0  0
   -0.9710    0.4223    0.7075 C   0  0  0  0  0  0  0  0  0  0  0  0
   -0.8078   -0.2111   -0.6437 C   0  0  0  0  0  0  0  0  0  0  0  0
   -0.8060    0.4057   -1.8735 C   0  0  0  0  0  0  0  0  0  0  0  0
   -1.8777   -0.5279   -1.4322 O   0  0  0  0  0  0  0  0  0  0  0  0
    0.1310   -1.2521   -0.1103 C   0  0  0  0  0  0  0  0  0  0  0  0
    3.4118    1.5469    1.2023 H   0  0  0  0  0  0  0  0  0  0  0  0
    0.0101   -0.9589    2.0814 H   0  0  0  0  0  0  0  0  0  0  0  0
   -0.7671    1.5146    0.6522 H   0  0  0  0  0  0  0  0  0  0  0  0
   -1.9115    0.1663    1.2526 H   0  0  0  0  0  0  0  0  0  0  0  0
   -0.2379   -0.0061   -2.7492 H   0  0  0  0  0  0  0  0  0  0  0  0
   -1.1843    1.4324   -2.0430 H   0  0  0  0  0  0  0  0  0  0  0  0
   -0.2903   -2.2373    0.1210 H   0  0  0  0  0  0  0  0  0  0  0  0
    1.0764   -1.2520   -0.6900 H   0  0  0  0  0  0  0  0  0  0  0  0
  1  2  3  0
  2  3  1  0
  3  4  1  0
  4  5  1  0
  5  6  1  0
  6  7  1  0
  5  8  1  0
  8  3  1  0
  7  5  1  0
  1  9  1  0
  3 10  1  0
  4 11  1  0
  4 12  1  0
  6 13  1  0
  6 14  1  0
  8 15  1  0
  8 16  1  0
M  END
