
     RDKit          3D

 19 20  0  0  0  0  0  0  0  0999 V2000
    2.6670    0.7500   -1.6431 C   0  0  0  0  0  0  0  0  0  0  0  0
    1.6860    0.1976   -1.2096 C   0  0  0  0  0  0  0  0  0  0  0  0
    0.5250   -0.4820   -0.7036 C   0  0  0  0  0  0  0  0  0  0  0  0
   -0.7369    0.3994   -0.7536 C   0  0  0  0  0  0  0  0  0  0  0  0
   -0.3459    1.4543    0.2036 C   0  0  0  0  0  0  0  0  0  0  0  0
    0.4319    0.8970    1.1555 C   0  0  0  0  0  0  0  0  0  0  0  0
    0.5233   -0.5491    0.8347 C   0  0  0  0  0  0  0  0  0  0  0  0
   -0.8395   -1.1456    1.0596 C   0  0  0  0  0  0  0  0  0  0  0  0
   -1.7060   -0.5167   -0.0402 C   0  0  0  0  0  0  0  0  0  0  0  0
    3.5390    1.2424   -2.0433 H   0  0  0  0  0  0  0  0  0  0  0  0
    0.3418   -1.4756   -1.1302 H   0  0  0  0  0  0  0  0  0  0  0  0
   -1.0140    0.7102   -1.7337 H   0  0  0  0  0  0  0  0  0  0  0  0
   -0.6429    2.4994    0.1387 H   0  0  0  0  0  0  0  0  0  0  0  0
    0.8563    1.4665    1.9486 H   0  0  0  0  0  0  0  0  0  0  0  0
    1.3514   -1.0772    1.2476 H   0  0  0  0  0  0  0  0  0  0  0  0
   -1.1902   -0.8443    2.0655 H   0  0  0  0  0  0  0  0  0  0  0  0
   -0.8450   -2.2403    0.9301 H   0  0  0  0  0  0  0  0  0  0  0  0
   -2.0473   -1.3131   -0.7461 H   0  0  0  0  0  0  0  0  0  0  0  0
   -2.5541    0.0271    0.4195 H   0  0  0  0  0  0  0  0  0  0  0  0
  1  2  3  0
  2  3  1  0
  3  4  1  0
  4  5  1  0
  5  6  2  0
  6  7  1  0
  7  8  1  0
  8  9  1  0
  7  3  1  0
  9  4  1  0
  1 10  1  0
  3 11  1  0
  4 12  1  0
  5 13  1  0
  6 14  1  0
  7 15  1  0
  8 16  1  0
  8 17  1  0
  9 18  1  0
  9 19  1  0
M  END
