
     RDKit          3D

 13 14  0  0  0  0  0  0  0  0999 V2000
    2.2784   -1.5502   -0.0667 C   0  0  0  0  0  0  0  0  0  0  0  0
    1.3205   -0.8501    0.1932 C   0  0  0  0  0  0  0  0  0  0  0  0
    0.1653    0.0009    0.4819 C   0  0  0  0  0  0  0  0  0  0  0  0
    0.3017    1.4493    0.2972 C   0  0  0  0  0  0  0  0  0  0  0  0
   -0.4682    0.7362   -0.7355 C   0  0  0  0  0  0  0  0  0  0  0  0
   -1.8544    0.5122   -0.5517 O   0  0  0  0  0  0  0  0  0  0  0  0
   -2.0088   -0.5592    0.2941 C   0  0  0  0  0  0  0  0  0  0  0  0
   -2.9863   -1.3663    0.2657 O   0  0  0  0  0  0  0  0  0  0  0  0
   -0.9134   -0.5786    1.1582 O   0  0  0  0  0  0  0  0  0  0  0  0
    3.1059   -2.1720   -0.2944 H   0  0  0  0  0  0  0  0  0  0  0  0
    1.3119    1.8038   -0.0209 H   0  0  0  0  0  0  0  0  0  0  0  0
   -0.2579    2.0837    1.0433 H   0  0  0  0  0  0  0  0  0  0  0  0
    0.0051    0.4902   -1.6947 H   0  0  0  0  0  0  0  0  0  0  0  0
  1  2  3  0
  2  3  1  0
  3  4  1  0
  4  5  1  0
  5  6  1  0
  6  7  1  0
  7  8  2  0
  7  9  1  0
  5  3  1  0
  9  3  1  0
  1 10  1  0
  4 11  1  0
  4 12  1  0
  5 13  1  0
M  END
