
     RDKit          3D

 19 18  0  0  0  0  0  0  0  0999 V2000
    1.7174   -2.7654    1.5268 C   0  0  0  0  0  0  0  0  0  0  0  0
    1.5035   -1.9638    0.5664 C   0  0  0  0  0  0  0  0  0  0  0  0
    1.2654   -1.0305   -0.5174 C   0  0  0  0  0  0  0  0  0  0  0  0
    0.4003   -1.5787   -1.4416 O   0  0  0  0  0  0  0  0  0  0  0  0
    0.7792    0.2613    0.0196 C   0  0  0  0  0  0  0  0  0  0  0  0
    1.4600    0.8470    0.8708 O   0  0  0  0  0  0  0  0  0  0  0  0
   -0.4898    0.9185   -0.3962 C   0  0  0  0  0  0  0  0  0  0  0  0
   -0.6889    2.2337    0.3346 C   0  0  0  0  0  0  0  0  0  0  0  0
   -1.6798    0.0251   -0.2243 C   0  0  0  0  0  0  0  0  0  0  0  0
    1.8925   -3.4227    2.2870 H   0  0  0  0  0  0  0  0  0  0  0  0
    2.2267   -0.8445   -1.0900 H   0  0  0  0  0  0  0  0  0  0  0  0
    0.2986   -1.0244   -2.2565 H   0  0  0  0  0  0  0  0  0  0  0  0
   -0.4359    1.1845   -1.4923 H   0  0  0  0  0  0  0  0  0  0  0  0
   -1.6510    2.2109    0.9021 H   0  0  0  0  0  0  0  0  0  0  0  0
    0.0986    2.3817    1.1238 H   0  0  0  0  0  0  0  0  0  0  0  0
   -0.6505    3.1061   -0.3240 H   0  0  0  0  0  0  0  0  0  0  0  0
   -2.6086    0.6554   -0.3270 H   0  0  0  0  0  0  0  0  0  0  0  0
   -1.7287   -0.8223   -0.9141 H   0  0  0  0  0  0  0  0  0  0  0  0
   -1.7091   -0.3721    0.8050 H   0  0  0  0  0  0  0  0  0  0  0  0
  1  2  3  0
  2  3  1  0
  3  4  1  0
  3  5  1  0
  5  6  2  0
  5  7  1  0
  7  8  1  0
  7  9  1  0
  1 10  1  0
  3 11  1  0
  4 12  1  0
  7 13  1  0
  8 14  1  0
  8 15  1  0
  8 16  1  0
  9 17  1  0
  9 18  1  0
  9 19  1  0
M  END
