
     RDKit          3D

 21 21  0  0  0  0  0  0  0  0999 V2000
    2.7923   -0.9234    1.9928 C   0  0  0  0  0  0  0  0  0  0  0  0
    1.8996   -0.2947    1.4352 C   0  0  0  0  0  0  0  0  0  0  0  0
    0.8337    0.4727    0.7886 C   0  0  0  0  0  0  0  0  0  0  0  0
    0.7847    1.8004    1.1640 O   0  0  0  0  0  0  0  0  0  0  0  0
    0.8336    0.2135   -0.7039 C   0  0  0  0  0  0  0  0  0  0  0  0
   -0.6504   -0.0637   -0.6128 C   0  0  0  0  0  0  0  0  0  0  0  0
   -1.5404    1.1076   -0.9352 C   0  0  0  0  0  0  0  0  0  0  0  0
   -1.1114   -1.3099   -1.3302 C   0  0  0  0  0  0  0  0  0  0  0  0
   -0.4967   -0.2403    0.8859 C   0  0  0  0  0  0  0  0  0  0  0  0
    3.5649   -1.4777    2.4599 H   0  0  0  0  0  0  0  0  0  0  0  0
    1.3261    1.8995    1.9809 H   0  0  0  0  0  0  0  0  0  0  0  0
    1.4242   -0.6946   -1.0116 H   0  0  0  0  0  0  0  0  0  0  0  0
    1.0657    1.1283   -1.2552 H   0  0  0  0  0  0  0  0  0  0  0  0
   -1.6035    1.8228   -0.0828 H   0  0  0  0  0  0  0  0  0  0  0  0
   -2.5740    0.6956   -1.0618 H   0  0  0  0  0  0  0  0  0  0  0  0
   -1.2236    1.6365   -1.8596 H   0  0  0  0  0  0  0  0  0  0  0  0
   -0.7009   -2.2228   -0.8355 H   0  0  0  0  0  0  0  0  0  0  0  0
   -0.7323   -1.2600   -2.3786 H   0  0  0  0  0  0  0  0  0  0  0  0
   -2.2121   -1.3051   -1.3258 H   0  0  0  0  0  0  0  0  0  0  0  0
   -0.4303   -1.3005    1.2202 H   0  0  0  0  0  0  0  0  0  0  0  0
   -1.2493    0.3154    1.4656 H   0  0  0  0  0  0  0  0  0  0  0  0
  1  2  3  0
  2  3  1  0
  3  4  1  0
  3  5  1  0
  5  6  1  0
  6  7  1  0
  6  8  1  0
  6  9  1  0
  9  3  1  0
  1 10  1  0
  4 11  1  0
  5 12  1  0
  5 13  1  0
  7 14  1  0
  7 15  1  0
  7 16  1  0
  8 17  1  0
  8 18  1  0
  8 19  1  0
  9 20  1  0
  9 21  1  0
M  END
