
     RDKit          3D

 19 18  0  0  0  0  0  0  0  0999 V2000
    3.0491    3.0824   -1.3635 C   0  0  0  0  0  0  0  0  0  0  0  0
    1.9190    2.0937   -0.8654 C   0  0  0  0  0  0  0  0  0  0  0  0
    1.0890    1.3667   -0.4950 C   0  0  0  0  0  0  0  0  0  0  0  0
    0.2689    2.4509    0.3857 O   0  0  0  0  0  0  0  0  0  0  0  0
    0.4708    0.2380   -0.3517 C   0  0  0  0  0  0  0  0  0  0  0  0
   -0.2666   -1.1108   -0.1812 C   0  0  0  0  0  0  0  0  0  0  0  0
    0.3391   -2.2413    0.5410 C   0  0  0  0  0  0  0  0  0  0  0  0
   -1.4851   -0.7745    0.2235 O   0  0  0  0  0  0  0  0  0  0  0  0
   -2.5899   -0.2377   -0.2495 C   0  0  0  0  0  0  0  0  0  0  0  0
    3.7769    3.7164   -1.6652 H   0  0  0  0  0  0  0  0  0  0  0  0
    1.3988   -0.2713    0.6816 H   0  0  0  0  0  0  0  0  0  0  0  0
   -0.2487    0.6510    0.8175 H   0  0  0  0  0  0  0  0  0  0  0  0
   -0.3169   -1.3770   -1.3422 H   0  0  0  0  0  0  0  0  0  0  0  0
    1.4409   -2.3674    0.5088 H   0  0  0  0  0  0  0  0  0  0  0  0
   -0.1387   -3.2187    0.2310 H   0  0  0  0  0  0  0  0  0  0  0  0
    0.1036   -2.2107    1.7020 H   0  0  0  0  0  0  0  0  0  0  0  0
   -2.3711    0.8969   -0.6918 H   0  0  0  0  0  0  0  0  0  0  0  0
   -3.4101   -0.0073    0.5128 H   0  0  0  0  0  0  0  0  0  0  0  0
   -3.0291   -0.6793   -1.0980 H   0  0  0  0  0  0  0  0  0  0  0  0
  1  2  3  0
  2  3  1  0
  3  4  2  0
  3  5  1  0
  5  6  1  0
  6  7  1  0
  6  8  1  0
  8  9  1  0
  1 10  1  0
  5 11  1  0
  5 12  1  0
  6 13  1  0
  7 14  1  0
  7 15  1  0
  7 16  1  0
  9 17  1  0
  9 18  1  0
  9 19  1  0
M  END
