
     RDKit          3D

 19 19  0  0  0  0  0  0  0  0999 V2000
   -2.3041    0.4307   -1.8226 C   0  0  0  0  0  0  0  0  0  0  0  0
   -1.4788    0.2378   -1.4515 C   0  0  0  0  0  0  0  0  0  0  0  0
   -0.1930   -0.0484   -0.8602 C   0  0  0  0  0  0  0  0  0  0  0  0
    0.4630    1.1667   -0.2452 C   0  0  0  0  0  0  0  0  0  0  0  0
    1.2125    0.6566    0.9316 C   0  0  0  0  0  0  0  0  0  0  0  0
    2.6031    0.6233    0.7184 O   0  0  0  0  0  0  0  0  0  0  0  0
    0.7366   -0.7334    1.2408 C   0  0  0  0  0  0  0  0  0  0  0  0
   -0.3596   -1.0422    0.2811 C   0  0  0  0  0  0  0  0  0  0  0  0
   -1.6101   -0.9686    0.8796 O   0  0  0  0  0  0  0  0  0  0  0  0
   -3.5332    0.6968   -2.3868 H   0  0  0  0  0  0  0  0  0  0  0  0
    0.5434   -0.4416   -1.5926 H   0  0  0  0  0  0  0  0  0  0  0  0
    1.0920    1.7338   -0.9675 H   0  0  0  0  0  0  0  0  0  0  0  0
   -0.3666    1.8290    0.0742 H   0  0  0  0  0  0  0  0  0  0  0  0
    1.0538    1.3365    1.8237 H   0  0  0  0  0  0  0  0  0  0  0  0
    2.8083    0.0523   -0.0884 H   0  0  0  0  0  0  0  0  0  0  0  0
    1.5403   -1.5220    1.1235 H   0  0  0  0  0  0  0  0  0  0  0  0
    0.3863   -0.8194    2.3008 H   0  0  0  0  0  0  0  0  0  0  0  0
   -0.2863   -2.0705   -0.1768 H   0  0  0  0  0  0  0  0  0  0  0  0
   -2.3075   -1.1176    0.2178 H   0  0  0  0  0  0  0  0  0  0  0  0
  1  2  3  0
  2  3  1  0
  3  4  1  0
  4  5  1  0
  5  6  1  0
  5  7  1  0
  7  8  1  0
  8  9  1  0
  8  3  1  0
  1 10  1  0
  3 11  1  0
  4 12  1  0
  4 13  1  0
  5 14  1  0
  6 15  1  0
  7 16  1  0
  7 17  1  0
  8 18  1  0
  9 19  1  0
M  END
