
     RDKit          3D

 19 20  0  0  0  0  0  0  0  0999 V2000
   -2.9440    1.2302   -0.1896 C   0  0  0  0  0  0  0  0  0  0  0  0
   -2.0282    0.6406    0.3325 C   0  0  0  0  0  0  0  0  0  0  0  0
   -0.9101   -0.0671    0.9702 C   0  0  0  0  0  0  0  0  0  0  0  0
   -0.0101   -0.8122    0.0064 C   0  0  0  0  0  0  0  0  0  0  0  0
   -0.5908   -1.0298   -1.3611 C   0  0  0  0  0  0  0  0  0  0  0  0
    0.9697    0.3171    0.1142 C   0  0  0  0  0  0  0  0  0  0  0  0
    2.4444    0.0610    0.0782 C   0  0  0  0  0  0  0  0  0  0  0  0
    0.5667    1.6228    0.0535 O   0  0  0  0  0  0  0  0  0  0  0  0
    0.2335    0.9039    1.1754 C   0  0  0  0  0  0  0  0  0  0  0  0
   -3.7556    1.7505   -0.6581 H   0  0  0  0  0  0  0  0  0  0  0  0
   -1.1994   -0.6568    1.8489 H   0  0  0  0  0  0  0  0  0  0  0  0
    0.3737   -1.7545    0.4663 H   0  0  0  0  0  0  0  0  0  0  0  0
   -0.8365   -0.0667   -1.8301 H   0  0  0  0  0  0  0  0  0  0  0  0
   -1.5171   -1.6263   -1.3123 H   0  0  0  0  0  0  0  0  0  0  0  0
    0.1533   -1.6177   -1.9418 H   0  0  0  0  0  0  0  0  0  0  0  0
    2.6541   -1.0190   -0.0403 H   0  0  0  0  0  0  0  0  0  0  0  0
    2.8390    0.5485   -0.8597 H   0  0  0  0  0  0  0  0  0  0  0  0
    2.9810    0.4087    0.9792 H   0  0  0  0  0  0  0  0  0  0  0  0
    0.5766    1.1669    2.1682 H   0  0  0  0  0  0  0  0  0  0  0  0
  1  2  3  0
  2  3  1  0
  3  4  1  0
  4  5  1  0
  4  6  1  0
  6  7  1  0
  6  8  1  0
  8  9  1  0
  9  3  1  0
  9  6  1  0
  1 10  1  0
  3 11  1  0
  4 12  1  0
  5 13  1  0
  5 14  1  0
  5 15  1  0
  7 16  1  0
  7 17  1  0
  7 18  1  0
  9 19  1  0
M  END
