
     RDKit          3D

 15 16  0  0  0  0  0  0  0  0999 V2000
    3.2624   -0.3568   -0.1998 C   0  0  0  0  0  0  0  0  0  0  0  0
    2.0627   -0.2729   -0.1241 C   0  0  0  0  0  0  0  0  0  0  0  0
    0.6487   -0.1648   -0.0116 C   0  0  0  0  0  0  0  0  0  0  0  0
    0.1796    1.0063    0.7919 C   0  0  0  0  0  0  0  0  0  0  0  0
   -1.0601    1.2512    0.3374 C   0  0  0  0  0  0  0  0  0  0  0  0
   -1.2964    0.2129   -0.6890 C   0  0  0  0  0  0  0  0  0  0  0  0
   -1.3560   -1.1182    0.0184 C   0  0  0  0  0  0  0  0  0  0  0  0
   -0.0034   -1.3335    0.3363 O   0  0  0  0  0  0  0  0  0  0  0  0
    0.0059    0.1201   -1.2443 O   0  0  0  0  0  0  0  0  0  0  0  0
    4.3382   -0.4179   -0.2553 H   0  0  0  0  0  0  0  0  0  0  0  0
    0.6931    1.5583    1.5712 H   0  0  0  0  0  0  0  0  0  0  0  0
   -1.7017    2.0515    0.6856 H   0  0  0  0  0  0  0  0  0  0  0  0
   -2.0653    0.4065   -1.4036 H   0  0  0  0  0  0  0  0  0  0  0  0
   -1.9927   -1.0818    0.9165 H   0  0  0  0  0  0  0  0  0  0  0  0
   -1.7148   -1.8611   -0.7297 H   0  0  0  0  0  0  0  0  0  0  0  0
  1  2  3  0
  2  3  1  0
  3  4  1  0
  4  5  2  0
  5  6  1  0
  6  7  1  0
  7  8  1  0
  6  9  1  0
  8  3  1  0
  9  3  1  0
  1 10  1  0
  4 11  1  0
  5 12  1  0
  6 13  1  0
  7 14  1  0
  7 15  1  0
M  END
