
     RDKit          3D

 19 20  0  0  0  0  0  0  0  0999 V2000
    3.2926    0.3152    0.9800 C   0  0  0  0  0  0  0  0  0  0  0  0
    2.1171    0.1912    0.7274 C   0  0  0  0  0  0  0  0  0  0  0  0
    0.7184    0.0594    0.4069 C   0  0  0  0  0  0  0  0  0  0  0  0
    0.2539    0.8495   -0.8197 C   0  0  0  0  0  0  0  0  0  0  0  0
   -0.6065   -0.3624   -1.1304 C   0  0  0  0  0  0  0  0  0  0  0  0
   -1.8243   -0.2653   -0.2485 C   0  0  0  0  0  0  0  0  0  0  0  0
   -1.4580    0.4031    1.0565 C   0  0  0  0  0  0  0  0  0  0  0  0
   -0.1638    0.1697    1.4518 O   0  0  0  0  0  0  0  0  0  0  0  0
    0.4771   -1.1874   -0.4241 C   0  0  0  0  0  0  0  0  0  0  0  0
    4.3343    0.4269    1.2228 H   0  0  0  0  0  0  0  0  0  0  0  0
   -0.3318    1.7381   -0.5970 H   0  0  0  0  0  0  0  0  0  0  0  0
    1.1188    0.9819   -1.4936 H   0  0  0  0  0  0  0  0  0  0  0  0
   -0.7596   -0.5905   -2.1768 H   0  0  0  0  0  0  0  0  0  0  0  0
   -2.5383    0.4261   -0.7768 H   0  0  0  0  0  0  0  0  0  0  0  0
   -2.2866   -1.2306   -0.0366 H   0  0  0  0  0  0  0  0  0  0  0  0
   -2.1718    0.0087    1.8362 H   0  0  0  0  0  0  0  0  0  0  0  0
   -1.5899    1.5225    0.9919 H   0  0  0  0  0  0  0  0  0  0  0  0
    0.1087   -2.0564    0.1230 H   0  0  0  0  0  0  0  0  0  0  0  0
    1.3096   -1.3998   -1.0929 H   0  0  0  0  0  0  0  0  0  0  0  0
  1  2  3  0
  2  3  1  0
  3  4  1  0
  4  5  1  0
  5  6  1  0
  6  7  1  0
  7  8  1  0
  5  9  1  0
  8  3  1  0
  9  3  1  0
  1 10  1  0
  4 11  1  0
  4 12  1  0
  5 13  1  0
  6 14  1  0
  6 15  1  0
  7 16  1  0
  7 17  1  0
  9 18  1  0
  9 19  1  0
M  END
