
     RDKit          3D

 17 19  0  0  0  0  0  0  0  0999 V2000
    3.1106   -1.1438    0.2338 C   0  0  0  0  0  0  0  0  0  0  0  0
    1.8895   -1.1470    0.1394 C   0  0  0  0  0  0  0  0  0  0  0  0
    0.4390   -1.1295    0.0312 C   0  0  0  0  0  0  0  0  0  0  0  0
   -0.2566   -0.1241    0.9011 C   0  0  0  0  0  0  0  0  0  0  0  0
   -1.3625   -0.1524   -0.0969 C   0  0  0  0  0  0  0  0  0  0  0  0
   -1.8220    1.2574   -0.1593 C   0  0  0  0  0  0  0  0  0  0  0  0
   -0.5925    1.9548   -0.0521 O   0  0  0  0  0  0  0  0  0  0  0  0
    0.3236    0.9299   -0.0079 C   0  0  0  0  0  0  0  0  0  0  0  0
   -0.1265   -0.1493   -0.9490 C   0  0  0  0  0  0  0  0  0  0  0  0
    4.1666   -1.1299    0.3154 H   0  0  0  0  0  0  0  0  0  0  0  0
   -0.0191   -2.1246    0.0034 H   0  0  0  0  0  0  0  0  0  0  0  0
   -0.3058   -0.0997    1.8980 H   0  0  0  0  0  0  0  0  0  0  0  0
   -2.0412   -0.9670   -0.1433 H   0  0  0  0  0  0  0  0  0  0  0  0
   -2.1647    1.4695   -1.2130 H   0  0  0  0  0  0  0  0  0  0  0  0
   -2.5410    1.5644    0.5976 H   0  0  0  0  0  0  0  0  0  0  0  0
    1.3706    1.1512    0.0686 H   0  0  0  0  0  0  0  0  0  0  0  0
   -0.0681   -0.1599   -1.9457 H   0  0  0  0  0  0  0  0  0  0  0  0
  1  2  3  0
  2  3  1  0
  3  4  1  0
  4  5  1  0
  5  6  1  0
  6  7  1  0
  7  8  1  0
  8  9  1  0
  9  3  1  0
  8  4  1  0
  9  5  1  0
  1 10  1  0
  3 11  1  0
  4 12  1  0
  5 13  1  0
  6 14  1  0
  6 15  1  0
  8 16  1  0
  9 17  1  0
M  END
