
     RDKit          3D

 18 18  0  0  0  0  0  0  0  0999 V2000
    2.3406    0.6398   -1.9972 C   0  0  0  0  0  0  0  0  0  0  0  0
    1.1727    0.5281   -1.7165 C   0  0  0  0  0  0  0  0  0  0  0  0
   -0.2508    0.4062   -1.3575 C   0  0  0  0  0  0  0  0  0  0  0  0
   -0.3290    0.6627    0.1374 C   0  0  0  0  0  0  0  0  0  0  0  0
   -1.7718    0.5513    0.5662 C   0  0  0  0  0  0  0  0  0  0  0  0
    0.5607   -0.3046    0.8440 C   0  0  0  0  0  0  0  0  0  0  0  0
    0.4365   -1.7288    0.7915 C   0  0  0  0  0  0  0  0  0  0  0  0
   -0.1634   -1.0570    1.8706 O   0  0  0  0  0  0  0  0  0  0  0  0
    3.3851    0.7584   -2.2470 H   0  0  0  0  0  0  0  0  0  0  0  0
   -0.6891   -0.5615   -1.6325 H   0  0  0  0  0  0  0  0  0  0  0  0
   -0.7978    1.1934   -1.9229 H   0  0  0  0  0  0  0  0  0  0  0  0
    0.0066    1.6987    0.3590 H   0  0  0  0  0  0  0  0  0  0  0  0
   -2.4160    0.0345   -0.1837 H   0  0  0  0  0  0  0  0  0  0  0  0
   -2.1789    1.5718    0.6874 H   0  0  0  0  0  0  0  0  0  0  0  0
   -1.7768    0.0016    1.5319 H   0  0  0  0  0  0  0  0  0  0  0  0
    1.4548    0.1364    1.3230 H   0  0  0  0  0  0  0  0  0  0  0  0
   -0.2885   -2.1827    0.0873 H   0  0  0  0  0  0  0  0  0  0  0  0
    1.3052   -2.3485    1.0935 H   0  0  0  0  0  0  0  0  0  0  0  0
  1  2  3  0
  2  3  1  0
  3  4  1  0
  4  5  1  0
  4  6  1  0
  6  7  1  0
  7  8  1  0
  8  6  1  0
  1  9  1  0
  3 10  1  0
  3 11  1  0
  4 12  1  0
  5 13  1  0
  5 14  1  0
  5 15  1  0
  6 16  1  0
  7 17  1  0
  7 18  1  0
M  END
