
     RDKit          3D

 16 15  0  0  0  0  0  0  0  0999 V2000
   -3.2383    0.2640    0.3490 C   0  0  0  0  0  0  0  0  0  0  0  0
   -2.4486   -0.5554   -0.0119 C   0  0  0  0  0  0  0  0  0  0  0  0
   -1.4812   -1.5520   -0.4735 C   0  0  0  0  0  0  0  0  0  0  0  0
   -0.1229   -0.9645   -0.2650 C   0  0  0  0  0  0  0  0  0  0  0  0
    0.7103   -1.4468    0.5422 O   0  0  0  0  0  0  0  0  0  0  0  0
    0.2912    0.1647   -0.9658 O   0  0  0  0  0  0  0  0  0  0  0  0
    1.5539    0.7376   -0.8034 C   0  0  0  0  0  0  0  0  0  0  0  0
    1.9097    1.1628    0.5782 C   0  0  0  0  0  0  0  0  0  0  0  0
   -3.9432    0.9767    0.6805 H   0  0  0  0  0  0  0  0  0  0  0  0
   -1.5726   -2.4980    0.1054 H   0  0  0  0  0  0  0  0  0  0  0  0
   -1.7141   -1.7805   -1.5209 H   0  0  0  0  0  0  0  0  0  0  0  0
    1.6554    1.6328   -1.5031 H   0  0  0  0  0  0  0  0  0  0  0  0
    2.3126    0.0354   -1.1977 H   0  0  0  0  0  0  0  0  0  0  0  0
    1.3117    0.6415    1.3448 H   0  0  0  0  0  0  0  0  0  0  0  0
    2.9888    0.9243    0.8077 H   0  0  0  0  0  0  0  0  0  0  0  0
    1.7875    2.2574    0.7274 H   0  0  0  0  0  0  0  0  0  0  0  0
  1  2  3  0
  2  3  1  0
  3  4  1  0
  4  5  2  0
  4  6  1  0
  6  7  1  0
  7  8  1  0
  1  9  1  0
  3 10  1  0
  3 11  1  0
  7 12  1  0
  7 13  1  0
  8 14  1  0
  8 15  1  0
  8 16  1  0
M  END
