
     RDKit          3D

 21 20  0  0  0  0  0  0  0  0999 V2000
    0.6100    2.3046    1.4827 C   0  0  0  0  0  0  0  0  0  0  0  0
    0.3101    1.3764    0.7703 C   0  0  0  0  0  0  0  0  0  0  0  0
   -0.0325    0.2500   -0.1083 C   0  0  0  0  0  0  0  0  0  0  0  0
    0.2936   -0.9257    0.5140 O   0  0  0  0  0  0  0  0  0  0  0  0
    1.2489   -1.6560   -0.2121 C   0  0  0  0  0  0  0  0  0  0  0  0
    2.5265   -0.8960   -0.3935 C   0  0  0  0  0  0  0  0  0  0  0  0
   -1.4987    0.3631   -0.4495 C   0  0  0  0  0  0  0  0  0  0  0  0
   -2.3669    0.4476    0.7787 C   0  0  0  0  0  0  0  0  0  0  0  0
   -1.9176   -0.6485   -1.3030 O   0  0  0  0  0  0  0  0  0  0  0  0
    0.8675    3.1317    2.0957 H   0  0  0  0  0  0  0  0  0  0  0  0
    0.5491    0.3288   -1.0428 H   0  0  0  0  0  0  0  0  0  0  0  0
    0.8222   -1.8840   -1.2228 H   0  0  0  0  0  0  0  0  0  0  0  0
    1.4725   -2.6120    0.3010 H   0  0  0  0  0  0  0  0  0  0  0  0
    2.9610   -1.0146   -1.4246 H   0  0  0  0  0  0  0  0  0  0  0  0
    3.3167   -1.2436    0.3161 H   0  0  0  0  0  0  0  0  0  0  0  0
    2.4153    0.1847   -0.2322 H   0  0  0  0  0  0  0  0  0  0  0  0
   -1.6130    1.3436   -0.9915 H   0  0  0  0  0  0  0  0  0  0  0  0
   -2.8757    1.4435    0.8753 H   0  0  0  0  0  0  0  0  0  0  0  0
   -1.7038    0.3048    1.6629 H   0  0  0  0  0  0  0  0  0  0  0  0
   -3.1765   -0.3046    0.7666 H   0  0  0  0  0  0  0  0  0  0  0  0
   -2.2087   -0.2938   -2.1829 H   0  0  0  0  0  0  0  0  0  0  0  0
  1  2  3  0
  2  3  1  0
  3  4  1  0
  4  5  1  0
  5  6  1  0
  3  7  1  0
  7  8  1  0
  7  9  1  0
  1 10  1  0
  3 11  1  0
  5 12  1  0
  5 13  1  0
  6 14  1  0
  6 15  1  0
  6 16  1  0
  7 17  1  0
  8 18  1  0
  8 19  1  0
  8 20  1  0
  9 21  1  0
M  END
