
     RDKit          3D

 19 19  0  0  0  0  0  0  0  0999 V2000
    2.4952    1.9087   -0.4127 C   0  0  0  0  0  0  0  0  0  0  0  0
    1.6910    0.9566   -0.3597 C   0  0  0  0  0  0  0  0  0  0  0  0
    0.7442   -0.1492   -0.2761 C   0  0  0  0  0  0  0  0  0  0  0  0
    1.2855   -1.4024   -0.9605 C   0  0  0  0  0  0  0  0  0  0  0  0
   -0.6132    0.2634   -0.7743 C   0  0  0  0  0  0  0  0  0  0  0  0
   -0.9636    0.4807    0.6652 C   0  0  0  0  0  0  0  0  0  0  0  0
   -2.3284   -0.0202    1.0827 C   0  0  0  0  0  0  0  0  0  0  0  0
    0.1616   -0.3793    1.0491 C   0  0  0  0  0  0  0  0  0  0  0  0
    0.5113   -1.0233    2.0221 O   0  0  0  0  0  0  0  0  0  0  0  0
    3.1802    2.6975   -0.4674 H   0  0  0  0  0  0  0  0  0  0  0  0
    0.7579   -1.4823   -1.9326 H   0  0  0  0  0  0  0  0  0  0  0  0
    2.3537   -1.2250   -1.2005 H   0  0  0  0  0  0  0  0  0  0  0  0
    1.1555   -2.2631   -0.2912 H   0  0  0  0  0  0  0  0  0  0  0  0
   -1.2010   -0.5874   -1.2341 H   0  0  0  0  0  0  0  0  0  0  0  0
   -0.6193    1.2036   -1.3728 H   0  0  0  0  0  0  0  0  0  0  0  0
   -0.7666    1.5394    0.9697 H   0  0  0  0  0  0  0  0  0  0  0  0
   -2.2527   -1.1383    1.0202 H   0  0  0  0  0  0  0  0  0  0  0  0
   -2.5369    0.2462    2.1186 H   0  0  0  0  0  0  0  0  0  0  0  0
   -3.0543    0.3744    0.3546 H   0  0  0  0  0  0  0  0  0  0  0  0
  1  2  3  0
  2  3  1  0
  3  4  1  0
  3  5  1  0
  5  6  1  0
  6  7  1  0
  6  8  1  0
  8  9  2  0
  8  3  1  0
  1 10  1  0
  4 11  1  0
  4 12  1  0
  4 13  1  0
  5 14  1  0
  5 15  1  0
  6 16  1  0
  7 17  1  0
  7 18  1  0
  7 19  1  0
M  END
