
     RDKit          3D

 15 14  0  0  0  0  0  0  0  0999 V2000
    3.8283   -1.6077    1.7118 C   0  0  0  0  0  0  0  0  0  0  0  0
    2.7737   -1.1095    1.2953 C   0  0  0  0  0  0  0  0  0  0  0  0
    1.6709   -0.5667    0.8612 C   0  0  0  0  0  0  0  0  0  0  0  0
    0.6213   -0.0402    0.4252 C   0  0  0  0  0  0  0  0  0  0  0  0
   -0.6437    0.5977   -0.1089 C   0  0  0  0  0  0  0  0  0  0  0  0
   -0.4183    0.6120   -1.6009 C   0  0  0  0  0  0  0  0  0  0  0  0
   -1.6552   -0.3499    0.2591 O   0  0  0  0  0  0  0  0  0  0  0  0
   -2.7997    0.1361    0.9287 C   0  0  0  0  0  0  0  0  0  0  0  0
   -2.8468    1.3498    1.1641 O   0  0  0  0  0  0  0  0  0  0  0  0
    4.7272   -2.0446    2.0713 H   0  0  0  0  0  0  0  0  0  0  0  0
   -0.8610    1.5449    0.3276 H   0  0  0  0  0  0  0  0  0  0  0  0
   -1.3158    0.7045   -2.2148 H   0  0  0  0  0  0  0  0  0  0  0  0
    0.2756   -0.2182   -1.8794 H   0  0  0  0  0  0  0  0  0  0  0  0
    0.2156    1.5388   -1.8116 H   0  0  0  0  0  0  0  0  0  0  0  0
   -3.5721   -0.5472    1.2098 H   0  0  0  0  0  0  0  0  0  0  0  0
  1  2  3  0
  2  3  1  0
  3  4  3  0
  4  5  1  0
  5  6  1  0
  5  7  1  0
  7  8  1  0
  8  9  2  0
  1 10  1  0
  5 11  1  0
  6 12  1  0
  6 13  1  0
  6 14  1  0
  8 15  1  0
M  END
