
     RDKit          3D

 13 13  0  0  0  0  0  0  0  0999 V2000
    1.4741   -2.0363    1.2163 C   0  0  0  0  0  0  0  0  0  0  0  0
    1.0625   -1.1857    0.3901 C   0  0  0  0  0  0  0  0  0  0  0  0
    0.5655   -0.2137   -0.5532 C   0  0  0  0  0  0  0  0  0  0  0  0
    0.5842    1.1046    0.0891 C   0  0  0  0  0  0  0  0  0  0  0  0
   -0.6071    1.5909    0.2176 C   0  0  0  0  0  0  0  0  0  0  0  0
   -1.5757    0.6576   -0.3229 C   0  0  0  0  0  0  0  0  0  0  0  0
   -2.8379    0.8201   -0.3592 O   0  0  0  0  0  0  0  0  0  0  0  0
   -0.8521   -0.4998   -0.8186 C   0  0  0  0  0  0  0  0  0  0  0  0
   -1.3889   -1.5005   -1.3524 O   0  0  0  0  0  0  0  0  0  0  0  0
    1.8304   -2.7311    1.8961 H   0  0  0  0  0  0  0  0  0  0  0  0
    1.1741   -0.2207   -1.5021 H   0  0  0  0  0  0  0  0  0  0  0  0
    1.4762    1.6518    0.4366 H   0  0  0  0  0  0  0  0  0  0  0  0
   -0.9055    2.5627    0.6628 H   0  0  0  0  0  0  0  0  0  0  0  0
  1  2  3  0
  2  3  1  0
  3  4  1  0
  4  5  2  0
  5  6  1  0
  6  7  2  0
  6  8  1  0
  8  9  2  0
  8  3  1  0
  1 10  1  0
  3 11  1  0
  4 12  1  0
  5 13  1  0
M  END
