
     RDKit          3D

 21 22  0  0  0  0  0  0  0  0999 V2000
    3.0800    0.0540    0.2058 C   0  0  0  0  0  0  0  0  0  0  0  0
    1.9013    0.1144    0.4496 C   0  0  0  0  0  0  0  0  0  0  0  0
    0.4665    0.1699    0.7448 C   0  0  0  0  0  0  0  0  0  0  0  0
   -0.1652   -1.0904    1.3389 C   0  0  0  0  0  0  0  0  0  0  0  0
   -0.9053   -1.6311    0.1134 C   0  0  0  0  0  0  0  0  0  0  0  0
   -1.5908   -0.3448   -0.3681 C   0  0  0  0  0  0  0  0  0  0  0  0
   -0.4007    0.6105   -0.3624 C   0  0  0  0  0  0  0  0  0  0  0  0
    0.1175    0.9980   -1.7022 C   0  0  0  0  0  0  0  0  0  0  0  0
   -0.2378    1.4636    0.8341 C   0  0  0  0  0  0  0  0  0  0  0  0
    4.1339   -0.0186   -0.0117 H   0  0  0  0  0  0  0  0  0  0  0  0
    0.5951   -1.7797    1.7085 H   0  0  0  0  0  0  0  0  0  0  0  0
   -0.8780   -0.7591    2.1015 H   0  0  0  0  0  0  0  0  0  0  0  0
   -0.1670   -1.9945   -0.6156 H   0  0  0  0  0  0  0  0  0  0  0  0
   -1.6227   -2.4106    0.3640 H   0  0  0  0  0  0  0  0  0  0  0  0
   -2.3162   -0.0855    0.4193 H   0  0  0  0  0  0  0  0  0  0  0  0
   -2.0231   -0.4794   -1.3602 H   0  0  0  0  0  0  0  0  0  0  0  0
   -0.2906    0.3203   -2.4789 H   0  0  0  0  0  0  0  0  0  0  0  0
    1.2231    0.9670   -1.7724 H   0  0  0  0  0  0  0  0  0  0  0  0
   -0.2265    2.0308   -1.9785 H   0  0  0  0  0  0  0  0  0  0  0  0
    0.3834    2.3729    0.7912 H   0  0  0  0  0  0  0  0  0  0  0  0
   -1.0769    1.4924    1.5789 H   0  0  0  0  0  0  0  0  0  0  0  0
  1  2  3  0
  2  3  1  0
  3  4  1  0
  4  5  1  0
  5  6  1  0
  6  7  1  0
  7  8  1  0
  7  9  1  0
  7  3  1  0
  9  3  1  0
  1 10  1  0
  4 11  1  0
  4 12  1  0
  5 13  1  0
  5 14  1  0
  6 15  1  0
  6 16  1  0
  8 17  1  0
  8 18  1  0
  8 19  1  0
  9 20  1  0
  9 21  1  0
M  END
