
     RDKit          3D

 19 20  0  0  0  0  0  0  0  0999 V2000
   -2.7558    0.0315    1.4559 C   0  0  0  0  0  0  0  0  0  0  0  0
   -1.7624   -0.2299    0.8250 C   0  0  0  0  0  0  0  0  0  0  0  0
   -0.5542   -0.5679    0.0740 C   0  0  0  0  0  0  0  0  0  0  0  0
    0.7186    0.1019    0.4921 C   0  0  0  0  0  0  0  0  0  0  0  0
    0.7562    1.5919    0.4287 C   0  0  0  0  0  0  0  0  0  0  0  0
    2.0130    1.3829   -0.3790 C   0  0  0  0  0  0  0  0  0  0  0  0
    1.7578   -0.0083   -0.4056 O   0  0  0  0  0  0  0  0  0  0  0  0
   -0.7626   -0.9861   -1.3453 C   0  0  0  0  0  0  0  0  0  0  0  0
   -0.3807   -2.0210   -0.3512 C   0  0  0  0  0  0  0  0  0  0  0  0
   -3.6423    0.2596    1.9970 H   0  0  0  0  0  0  0  0  0  0  0  0
    1.0358   -0.2506    1.4996 H   0  0  0  0  0  0  0  0  0  0  0  0
   -0.0832    2.0693   -0.1183 H   0  0  0  0  0  0  0  0  0  0  0  0
    0.9862    2.1093    1.3730 H   0  0  0  0  0  0  0  0  0  0  0  0
    2.9652    1.5462    0.1488 H   0  0  0  0  0  0  0  0  0  0  0  0
    2.0105    1.7800   -1.4001 H   0  0  0  0  0  0  0  0  0  0  0  0
   -1.8027   -1.0481   -1.7247 H   0  0  0  0  0  0  0  0  0  0  0  0
   -0.0184   -0.5975   -2.0773 H   0  0  0  0  0  0  0  0  0  0  0  0
   -1.1492   -2.7508   -0.0348 H   0  0  0  0  0  0  0  0  0  0  0  0
    0.6680   -2.4125   -0.4578 H   0  0  0  0  0  0  0  0  0  0  0  0
  1  2  3  0
  2  3  1  0
  3  4  1  0
  4  5  1  0
  5  6  1  0
  6  7  1  0
  3  8  1  0
  8  9  1  0
  9  3  1  0
  7  4  1  0
  1 10  1  0
  4 11  1  0
  5 12  1  0
  5 13  1  0
  6 14  1  0
  6 15  1  0
  8 16  1  0
  8 17  1  0
  9 18  1  0
  9 19  1  0
M  END
