
     RDKit          3D

 17 18  0  0  0  0  0  0  0  0999 V2000
    2.8434   -0.8026   -0.8336 C   0  0  0  0  0  0  0  0  0  0  0  0
    1.6668   -1.0952   -1.0013 C   0  0  0  0  0  0  0  0  0  0  0  0
    0.2811   -1.4194   -1.2130 C   0  0  0  0  0  0  0  0  0  0  0  0
   -0.3523   -0.4525   -2.1563 O   0  0  0  0  0  0  0  0  0  0  0  0
   -0.8124   -0.6713   -0.7421 C   0  0  0  0  0  0  0  0  0  0  0  0
   -0.8449    0.5779    0.0573 C   0  0  0  0  0  0  0  0  0  0  0  0
   -1.6653    1.6098   -0.4581 O   0  0  0  0  0  0  0  0  0  0  0  0
   -1.0289    0.3107    1.5524 C   0  0  0  0  0  0  0  0  0  0  0  0
    0.2115    0.9690    1.0239 C   0  0  0  0  0  0  0  0  0  0  0  0
    3.8733   -0.5649   -0.6821 H   0  0  0  0  0  0  0  0  0  0  0  0
    0.0725   -2.4819   -1.5641 H   0  0  0  0  0  0  0  0  0  0  0  0
   -1.8512   -1.1307   -0.8729 H   0  0  0  0  0  0  0  0  0  0  0  0
   -1.1426    2.4747   -0.4424 H   0  0  0  0  0  0  0  0  0  0  0  0
   -0.9335   -0.7272    1.9313 H   0  0  0  0  0  0  0  0  0  0  0  0
   -1.7992    0.8991    2.0599 H   0  0  0  0  0  0  0  0  0  0  0  0
    0.3295    2.0687    1.2444 H   0  0  0  0  0  0  0  0  0  0  0  0
    1.1523    0.4359    1.0591 H   0  0  0  0  0  0  0  0  0  0  0  0
  1  2  3  0
  2  3  1  0
  3  4  1  0
  4  5  1  0
  5  6  1  0
  6  7  1  0
  6  8  1  0
  8  9  1  0
  5  3  1  0
  9  6  1  0
  1 10  1  0
  3 11  1  0
  5 12  1  0
  7 13  1  0
  8 14  1  0
  8 15  1  0
  9 16  1  0
  9 17  1  0
M  END
