
     RDKit          3D

 16 17  0  0  0  0  0  0  0  0999 V2000
    1.7859   -2.1637    1.0053 C   0  0  0  0  0  0  0  0  0  0  0  0
    0.9235   -1.3048    0.8929 C   0  0  0  0  0  0  0  0  0  0  0  0
   -0.1254   -0.2861    0.7759 C   0  0  0  0  0  0  0  0  0  0  0  0
    0.3168    0.9057   -0.0598 C   0  0  0  0  0  0  0  0  0  0  0  0
    0.7192    0.6871   -1.4676 C   0  0  0  0  0  0  0  0  0  0  0  0
   -0.5969    1.2796   -1.1806 C   0  0  0  0  0  0  0  0  0  0  0  0
   -1.4872   -0.5871    0.9459 C   0  0  0  0  0  0  0  0  0  0  0  0
   -0.7286    0.0728    2.0456 O   0  0  0  0  0  0  0  0  0  0  0  0
    2.5386   -2.9121    1.0850 H   0  0  0  0  0  0  0  0  0  0  0  0
    0.7720    1.7311    0.5082 H   0  0  0  0  0  0  0  0  0  0  0  0
    0.7178   -0.3281   -1.8985 H   0  0  0  0  0  0  0  0  0  0  0  0
    1.5554    1.3137   -1.8419 H   0  0  0  0  0  0  0  0  0  0  0  0
   -1.5221    0.6855   -1.3031 H   0  0  0  0  0  0  0  0  0  0  0  0
   -0.7517    2.3597   -1.4184 H   0  0  0  0  0  0  0  0  0  0  0  0
   -2.2767    0.1243    0.6356 H   0  0  0  0  0  0  0  0  0  0  0  0
   -1.8406   -1.5775    1.2754 H   0  0  0  0  0  0  0  0  0  0  0  0
  1  2  3  0
  2  3  1  0
  3  4  1  0
  4  5  1  0
  5  6  1  0
  3  7  1  0
  7  8  1  0
  8  3  1  0
  6  4  1  0
  1  9  1  0
  4 10  1  0
  5 11  1  0
  5 12  1  0
  6 13  1  0
  6 14  1  0
  7 15  1  0
  7 16  1  0
M  END
