
     RDKit          3D

 21 20  0  0  0  0  0  0  0  0999 V2000
    1.7807    2.2061   -1.6451 C   0  0  0  0  0  0  0  0  0  0  0  0
    1.2537    1.1717   -0.5923 C   0  0  0  0  0  0  0  0  0  0  0  0
    0.8314    0.3103    0.3001 C   0  0  0  0  0  0  0  0  0  0  0  0
    0.2967    1.5363    1.3388 C   0  0  0  0  0  0  0  0  0  0  0  0
   -0.3543   -0.3611   -0.0507 C   0  0  0  0  0  0  0  0  0  0  0  0
   -0.9878   -1.0469   -1.1261 C   0  0  0  0  0  0  0  0  0  0  0  0
   -1.2951   -0.4657   -2.3675 O   0  0  0  0  0  0  0  0  0  0  0  0
   -0.5404   -1.4027    1.1369 C   0  0  0  0  0  0  0  0  0  0  0  0
    0.6319   -2.2136    1.1604 O   0  0  0  0  0  0  0  0  0  0  0  0
    2.2329    3.0743   -2.5083 H   0  0  0  0  0  0  0  0  0  0  0  0
    1.6057   -0.1271    0.8806 H   0  0  0  0  0  0  0  0  0  0  0  0
    0.4039    2.3303    0.3007 H   0  0  0  0  0  0  0  0  0  0  0  0
   -0.7292    1.6738    1.3719 H   0  0  0  0  0  0  0  0  0  0  0  0
    1.1809    1.9842    1.7109 H   0  0  0  0  0  0  0  0  0  0  0  0
   -1.2024    0.4724    0.2766 H   0  0  0  0  0  0  0  0  0  0  0  0
   -2.1308   -1.0858   -0.6067 H   0  0  0  0  0  0  0  0  0  0  0  0
   -0.8002   -2.1884   -1.3439 H   0  0  0  0  0  0  0  0  0  0  0  0
   -1.4575   -1.1206   -3.0422 H   0  0  0  0  0  0  0  0  0  0  0  0
   -0.6969   -0.9296    2.1161 H   0  0  0  0  0  0  0  0  0  0  0  0
   -1.3669   -2.0416    0.8908 H   0  0  0  0  0  0  0  0  0  0  0  0
    1.3437   -1.7762    1.7990 H   0  0  0  0  0  0  0  0  0  0  0  0
  1  2  3  0
  2  3  1  0
  3  4  1  0
  3  5  1  0
  5  6  1  0
  6  7  1  0
  5  8  1  0
  8  9  1  0
  1 10  1  0
  3 11  1  0
  4 12  1  0
  4 13  1  0
  4 14  1  0
  5 15  1  0
  6 16  1  0
  6 17  1  0
  7 18  1  0
  8 19  1  0
  8 20  1  0
  9 21  1  0
M  END
