
     RDKit          3D

 15 16  0  0  0  0  0  0  0  0999 V2000
    1.9300   -1.4159    1.1965 C   0  0  0  0  0  0  0  0  0  0  0  0
    0.8735   -1.0017    0.8123 C   0  0  0  0  0  0  0  0  0  0  0  0
   -0.4118   -0.4899    0.3696 C   0  0  0  0  0  0  0  0  0  0  0  0
   -1.1319   -1.0808   -0.7995 C   0  0  0  0  0  0  0  0  0  0  0  0
   -0.9379    0.1164   -1.4766 O   0  0  0  0  0  0  0  0  0  0  0  0
   -0.4289    0.8417   -0.4301 C   0  0  0  0  0  0  0  0  0  0  0  0
    0.8373    1.5701   -0.6040 C   0  0  0  0  0  0  0  0  0  0  0  0
    1.3788    1.4852   -1.7162 O   0  0  0  0  0  0  0  0  0  0  0  0
   -0.9819    0.7553    0.9367 C   0  0  0  0  0  0  0  0  0  0  0  0
    2.8617   -1.7758    1.5437 H   0  0  0  0  0  0  0  0  0  0  0  0
   -2.2088   -1.2303   -0.5988 H   0  0  0  0  0  0  0  0  0  0  0  0
   -0.6039   -1.9516   -1.2270 H   0  0  0  0  0  0  0  0  0  0  0  0
    1.3203    2.1592    0.1443 H   0  0  0  0  0  0  0  0  0  0  0  0
   -0.4150    1.2133    1.7519 H   0  0  0  0  0  0  0  0  0  0  0  0
   -2.0815    0.8048    1.0401 H   0  0  0  0  0  0  0  0  0  0  0  0
  1  2  3  0
  2  3  1  0
  3  4  1  0
  4  5  1  0
  5  6  1  0
  6  7  1  0
  7  8  2  0
  6  9  1  0
  6  3  1  0
  9  3  1  0
  1 10  1  0
  4 11  1  0
  4 12  1  0
  7 13  1  0
  9 14  1  0
  9 15  1  0
M  END
