
     RDKit          3D

 15 16  0  0  0  0  0  0  0  0999 V2000
    2.8248    0.8661   -0.2429 C   0  0  0  0  0  0  0  0  0  0  0  0
    1.7343    0.3557   -0.1540 C   0  0  0  0  0  0  0  0  0  0  0  0
    0.3954   -0.2704   -0.0309 C   0  0  0  0  0  0  0  0  0  0  0  0
   -0.0555   -1.2386   -1.0409 C   0  0  0  0  0  0  0  0  0  0  0  0
   -0.6493    0.1715   -0.9980 C   0  0  0  0  0  0  0  0  0  0  0  0
   -1.8325    0.3637   -0.3331 O   0  0  0  0  0  0  0  0  0  0  0  0
   -1.6007    0.4582    1.0169 C   0  0  0  0  0  0  0  0  0  0  0  0
   -0.2915   -0.1912    1.2594 C   0  0  0  0  0  0  0  0  0  0  0  0
    0.1385   -0.5850    2.3173 O   0  0  0  0  0  0  0  0  0  0  0  0
    3.7755    1.3315   -0.3216 H   0  0  0  0  0  0  0  0  0  0  0  0
    0.5506   -1.4915   -1.9181 H   0  0  0  0  0  0  0  0  0  0  0  0
   -0.6944   -2.0732   -0.6619 H   0  0  0  0  0  0  0  0  0  0  0  0
   -0.3281    0.8327   -1.8122 H   0  0  0  0  0  0  0  0  0  0  0  0
   -2.4287   -0.0424    1.5588 H   0  0  0  0  0  0  0  0  0  0  0  0
   -1.5385    1.5128    1.3611 H   0  0  0  0  0  0  0  0  0  0  0  0
  1  2  3  0
  2  3  1  0
  3  4  1  0
  4  5  1  0
  5  6  1  0
  6  7  1  0
  7  8  1  0
  8  9  2  0
  5  3  1  0
  8  3  1  0
  1 10  1  0
  4 11  1  0
  4 12  1  0
  5 13  1  0
  7 14  1  0
  7 15  1  0
M  END
