
     RDKit          3D

 17 17  0  0  0  0  0  0  0  0999 V2000
    2.9460    0.5761   -0.7100 C   0  0  0  0  0  0  0  0  0  0  0  0
    1.7914    0.1913   -0.8484 C   0  0  0  0  0  0  0  0  0  0  0  0
    0.4518   -0.2744   -0.9945 C   0  0  0  0  0  0  0  0  0  0  0  0
   -0.0673   -0.5927   -2.0844 O   0  0  0  0  0  0  0  0  0  0  0  0
   -0.3759   -0.3754    0.2356 C   0  0  0  0  0  0  0  0  0  0  0  0
   -0.0044   -1.5699    1.0818 C   0  0  0  0  0  0  0  0  0  0  0  0
   -0.5247    0.9180    0.9881 C   0  0  0  0  0  0  0  0  0  0  0  0
   -1.8082    0.9854    0.1865 C   0  0  0  0  0  0  0  0  0  0  0  0
   -1.7376   -0.4161   -0.0862 O   0  0  0  0  0  0  0  0  0  0  0  0
    3.9435    0.9033   -0.6077 H   0  0  0  0  0  0  0  0  0  0  0  0
   -0.1840   -2.4686    0.4727 H   0  0  0  0  0  0  0  0  0  0  0  0
   -0.6767   -1.5418    1.9941 H   0  0  0  0  0  0  0  0  0  0  0  0
    1.0445   -1.5279    1.4610 H   0  0  0  0  0  0  0  0  0  0  0  0
   -0.6600    0.7803    2.0938 H   0  0  0  0  0  0  0  0  0  0  0  0
    0.2739    1.6391    0.7385 H   0  0  0  0  0  0  0  0  0  0  0  0
   -2.6990    1.1799    0.7990 H   0  0  0  0  0  0  0  0  0  0  0  0
   -1.7132    1.5934   -0.7027 H   0  0  0  0  0  0  0  0  0  0  0  0
  1  2  3  0
  2  3  1  0
  3  4  2  0
  3  5  1  0
  5  6  1  0
  5  7  1  0
  7  8  1  0
  8  9  1  0
  9  5  1  0
  1 10  1  0
  6 11  1  0
  6 12  1  0
  6 13  1  0
  7 14  1  0
  7 15  1  0
  8 16  1  0
  8 17  1  0
M  END
