
     RDKit          3D

 17 17  0  0  0  0  0  0  0  0999 V2000
   -2.1334   -1.7321   -0.2087 C   0  0  0  0  0  0  0  0  0  0  0  0
   -1.7918   -0.5819   -0.2772 C   0  0  0  0  0  0  0  0  0  0  0  0
   -1.4088    0.7939   -0.3628 C   0  0  0  0  0  0  0  0  0  0  0  0
   -1.8935    1.3936   -1.5606 O   0  0  0  0  0  0  0  0  0  0  0  0
    0.0341    1.0668   -0.3341 C   0  0  0  0  0  0  0  0  0  0  0  0
    0.7687    0.5279   -1.4441 O   0  0  0  0  0  0  0  0  0  0  0  0
    1.1792    0.3572   -0.0457 C   0  0  0  0  0  0  0  0  0  0  0  0
    1.4633   -1.0543    0.3014 C   0  0  0  0  0  0  0  0  0  0  0  0
    1.8426   -1.0605    1.6678 O   0  0  0  0  0  0  0  0  0  0  0  0
   -2.4256   -2.7371   -0.1356 H   0  0  0  0  0  0  0  0  0  0  0  0
   -1.8974    1.4306    0.4387 H   0  0  0  0  0  0  0  0  0  0  0  0
   -1.8877    2.3733   -1.4841 H   0  0  0  0  0  0  0  0  0  0  0  0
    0.1571    2.2091   -0.4175 H   0  0  0  0  0  0  0  0  0  0  0  0
    2.1539    0.9452    0.0632 H   0  0  0  0  0  0  0  0  0  0  0  0
    0.6821   -1.7871    0.2088 H   0  0  0  0  0  0  0  0  0  0  0  0
    2.3768   -1.3746   -0.2777 H   0  0  0  0  0  0  0  0  0  0  0  0
    2.7804   -0.7701    1.7680 H   0  0  0  0  0  0  0  0  0  0  0  0
  1  2  3  0
  2  3  1  0
  3  4  1  0
  3  5  1  0
  5  6  1  0
  6  7  1  0
  7  8  1  0
  8  9  1  0
  7  5  1  0
  1 10  1  0
  3 11  1  0
  4 12  1  0
  5 13  1  0
  7 14  1  0
  8 15  1  0
  8 16  1  0
  9 17  1  0
M  END
