
     RDKit          3D

 15 14  0  0  0  0  0  0  0  0999 V2000
   -2.8727    1.2375   -0.8073 C   0  0  0  0  0  0  0  0  0  0  0  0
   -1.9638    0.4698   -1.1756 C   0  0  0  0  0  0  0  0  0  0  0  0
   -0.9467   -0.3722   -1.5696 C   0  0  0  0  0  0  0  0  0  0  0  0
   -0.1718   -1.1000   -0.5229 C   0  0  0  0  0  0  0  0  0  0  0  0
    0.4806    0.0062    0.1338 O   0  0  0  0  0  0  0  0  0  0  0  0
    1.6501   -0.3628    1.1033 C   0  0  0  0  0  0  0  0  0  0  0  0
    1.7955   -1.6632    1.0460 O   0  0  0  0  0  0  0  0  0  0  0  0
    2.0853    0.5718    1.6156 C   0  0  0  0  0  0  0  0  0  0  0  0
    2.5493    1.5339    2.1305 C   0  0  0  0  0  0  0  0  0  0  0  0
   -3.5567    1.8221   -0.5364 H   0  0  0  0  0  0  0  0  0  0  0  0
   -1.6854   -1.2831   -2.0914 H   0  0  0  0  0  0  0  0  0  0  0  0
   -0.2150   -0.0707   -2.3393 H   0  0  0  0  0  0  0  0  0  0  0  0
    0.5119   -1.7973   -1.0534 H   0  0  0  0  0  0  0  0  0  0  0  0
   -0.7367   -1.6562    0.3277 H   0  0  0  0  0  0  0  0  0  0  0  0
    3.0761    2.6644    2.7468 H   0  0  0  0  0  0  0  0  0  0  0  0
  1  2  3  0
  2  3  1  0
  3  4  1  0
  4  5  1  0
  5  6  1  0
  6  7  2  0
  6  8  1  0
  8  9  3  0
  1 10  1  0
  3 11  1  0
  3 12  1  0
  4 13  1  0
  4 14  1  0
  9 15  1  0
M  END
