
     RDKit          3D

 19 20  0  0  0  0  0  0  0  0999 V2000
   -1.4065    1.9365    1.0556 C   0  0  0  0  0  0  0  0  0  0  0  0
   -1.1764    0.7553    0.8193 C   0  0  0  0  0  0  0  0  0  0  0  0
   -0.9207   -0.6881    0.5268 C   0  0  0  0  0  0  0  0  0  0  0  0
    0.5462   -0.9325    0.7820 C   0  0  0  0  0  0  0  0  0  0  0  0
    0.9916    0.1457   -0.2130 C   0  0  0  0  0  0  0  0  0  0  0  0
    2.1105    1.1055   -0.0204 C   0  0  0  0  0  0  0  0  0  0  0  0
    0.1757    0.0301   -1.2543 C   0  0  0  0  0  0  0  0  0  0  0  0
   -0.7361   -1.0378   -0.9884 C   0  0  0  0  0  0  0  0  0  0  0  0
   -1.9007   -1.2997   -0.2544 C   0  0  0  0  0  0  0  0  0  0  0  0
   -1.5853    2.9498    1.2585 H   0  0  0  0  0  0  0  0  0  0  0  0
    0.8047   -0.6655    1.8074 H   0  0  0  0  0  0  0  0  0  0  0  0
    0.8433   -1.9252    0.4692 H   0  0  0  0  0  0  0  0  0  0  0  0
    2.4499    1.4126   -1.0480 H   0  0  0  0  0  0  0  0  0  0  0  0
    1.8075    2.0247    0.5114 H   0  0  0  0  0  0  0  0  0  0  0  0
    2.9681    0.6009    0.4364 H   0  0  0  0  0  0  0  0  0  0  0  0
    0.2354    0.6628   -2.1288 H   0  0  0  0  0  0  0  0  0  0  0  0
   -0.1616   -2.0061   -1.2171 H   0  0  0  0  0  0  0  0  0  0  0  0
   -2.8291   -0.7275   -0.5490 H   0  0  0  0  0  0  0  0  0  0  0  0
   -2.2164   -2.3414    0.0070 H   0  0  0  0  0  0  0  0  0  0  0  0
  1  2  3  0
  2  3  1  0
  3  4  1  0
  4  5  1  0
  5  6  1  0
  5  7  2  0
  7  8  1  0
  8  9  1  0
  8  3  1  0
  9  3  1  0
  1 10  1  0
  4 11  1  0
  4 12  1  0
  6 13  1  0
  6 14  1  0
  6 15  1  0
  7 16  1  0
  8 17  1  0
  9 18  1  0
  9 19  1  0
M  END
