
     RDKit          3D

 19 19  0  0  0  0  0  0  0  0999 V2000
    2.5487    0.3924    0.0342 C   0  0  0  0  0  0  0  0  0  0  0  0
    1.7458   -0.4666   -0.1607 C   0  0  0  0  0  0  0  0  0  0  0  0
    0.7756   -1.4937   -0.3897 C   0  0  0  0  0  0  0  0  0  0  0  0
    0.9518   -2.5056    0.5965 O   0  0  0  0  0  0  0  0  0  0  0  0
   -0.6592   -1.0654   -0.2468 C   0  0  0  0  0  0  0  0  0  0  0  0
   -1.1662    0.0668   -1.0205 C   0  0  0  0  0  0  0  0  0  0  0  0
   -1.3223    0.6697    0.3291 C   0  0  0  0  0  0  0  0  0  0  0  0
   -0.3818    1.8093    0.6582 C   0  0  0  0  0  0  0  0  0  0  0  0
   -1.0658   -0.5207    0.9291 O   0  0  0  0  0  0  0  0  0  0  0  0
    3.2785    1.1738    0.1923 H   0  0  0  0  0  0  0  0  0  0  0  0
    0.9224   -1.9289   -1.3743 H   0  0  0  0  0  0  0  0  0  0  0  0
    1.1706   -1.9797    1.4311 H   0  0  0  0  0  0  0  0  0  0  0  0
   -1.3361   -1.9691   -0.4527 H   0  0  0  0  0  0  0  0  0  0  0  0
   -0.4032    0.5838   -1.6639 H   0  0  0  0  0  0  0  0  0  0  0  0
   -2.1306   -0.0735   -1.5715 H   0  0  0  0  0  0  0  0  0  0  0  0
   -2.3998    0.9423    0.4978 H   0  0  0  0  0  0  0  0  0  0  0  0
    0.2066    2.1230   -0.2358 H   0  0  0  0  0  0  0  0  0  0  0  0
   -1.0079    2.6801    0.9353 H   0  0  0  0  0  0  0  0  0  0  0  0
    0.2728    1.5622    1.5126 H   0  0  0  0  0  0  0  0  0  0  0  0
  1  2  3  0
  2  3  1  0
  3  4  1  0
  3  5  1  0
  5  6  1  0
  6  7  1  0
  7  8  1  0
  7  9  1  0
  9  5  1  0
  1 10  1  0
  3 11  1  0
  4 12  1  0
  5 13  1  0
  6 14  1  0
  6 15  1  0
  7 16  1  0
  8 17  1  0
  8 18  1  0
  8 19  1  0
M  END
