
     RDKit          3D

 15 14  0  0  0  0  0  0  0  0999 V2000
   -2.3974    1.4027    0.1815 C   0  0  0  0  0  0  0  0  0  0  0  0
   -1.4925    0.6847    0.5261 C   0  0  0  0  0  0  0  0  0  0  0  0
   -0.3815   -0.1717    0.9316 C   0  0  0  0  0  0  0  0  0  0  0  0
    0.8063    0.3103    0.1885 C   0  0  0  0  0  0  0  0  0  0  0  0
    1.7855    0.6969   -0.4004 C   0  0  0  0  0  0  0  0  0  0  0  0
    2.9394    1.1534   -1.1231 C   0  0  0  0  0  0  0  0  0  0  0  0
    4.0712    1.3072   -0.5951 O   0  0  0  0  0  0  0  0  0  0  0  0
   -0.6719   -1.6256    0.5395 C   0  0  0  0  0  0  0  0  0  0  0  0
   -0.8232   -1.6332   -0.8397 O   0  0  0  0  0  0  0  0  0  0  0  0
   -3.2130    2.0445   -0.1109 H   0  0  0  0  0  0  0  0  0  0  0  0
   -0.2093   -0.1014    2.0390 H   0  0  0  0  0  0  0  0  0  0  0  0
    2.8540    1.3828   -2.1772 H   0  0  0  0  0  0  0  0  0  0  0  0
    0.1313   -2.2715    0.8926 H   0  0  0  0  0  0  0  0  0  0  0  0
   -1.6554   -1.8874    0.9788 H   0  0  0  0  0  0  0  0  0  0  0  0
   -1.7436   -1.2916   -1.0311 H   0  0  0  0  0  0  0  0  0  0  0  0
  1  2  3  0
  2  3  1  0
  3  4  1  0
  4  5  3  0
  5  6  1  0
  6  7  2  0
  3  8  1  0
  8  9  1  0
  1 10  1  0
  3 11  1  0
  6 12  1  0
  8 13  1  0
  8 14  1  0
  9 15  1  0
M  END
