
     RDKit          3D

 19 19  0  0  0  0  0  0  0  0999 V2000
    2.6475   -1.9211    1.4366 C   0  0  0  0  0  0  0  0  0  0  0  0
    1.6934   -1.3965    0.8832 C   0  0  0  0  0  0  0  0  0  0  0  0
    0.5698   -0.7735    0.2351 C   0  0  0  0  0  0  0  0  0  0  0  0
   -0.4851   -0.6478    1.0026 C   0  0  0  0  0  0  0  0  0  0  0  0
   -1.7964   -0.0334    0.5837 C   0  0  0  0  0  0  0  0  0  0  0  0
   -1.4316    1.3529    0.0434 C   0  0  0  0  0  0  0  0  0  0  0  0
   -0.9933    1.2820   -1.2671 O   0  0  0  0  0  0  0  0  0  0  0  0
    0.3717    1.1108   -1.3802 C   0  0  0  0  0  0  0  0  0  0  0  0
    0.7442   -0.3604   -1.1915 C   0  0  0  0  0  0  0  0  0  0  0  0
    3.4869   -2.3643    1.9086 H   0  0  0  0  0  0  0  0  0  0  0  0
   -0.4592   -0.9995    2.0280 H   0  0  0  0  0  0  0  0  0  0  0  0
   -2.2159   -0.6425   -0.2422 H   0  0  0  0  0  0  0  0  0  0  0  0
   -2.4748    0.0728    1.4308 H   0  0  0  0  0  0  0  0  0  0  0  0
   -2.3599    1.9573    0.1238 H   0  0  0  0  0  0  0  0  0  0  0  0
   -0.6889    1.7878    0.7384 H   0  0  0  0  0  0  0  0  0  0  0  0
    0.9573    1.6900   -0.6369 H   0  0  0  0  0  0  0  0  0  0  0  0
    0.7230    1.3958   -2.3854 H   0  0  0  0  0  0  0  0  0  0  0  0
    1.7533   -0.5792   -1.5455 H   0  0  0  0  0  0  0  0  0  0  0  0
   -0.0421   -0.9312   -1.7654 H   0  0  0  0  0  0  0  0  0  0  0  0
  1  2  3  0
  2  3  1  0
  3  4  2  0
  4  5  1  0
  5  6  1  0
  6  7  1  0
  7  8  1  0
  8  9  1  0
  9  3  1  0
  1 10  1  0
  4 11  1  0
  5 12  1  0
  5 13  1  0
  6 14  1  0
  6 15  1  0
  8 16  1  0
  8 17  1  0
  9 18  1  0
  9 19  1  0
M  END
