
     RDKit          3D

 19 20  0  0  0  0  0  0  0  0999 V2000
   -0.5915    2.7430    0.5956 C   0  0  0  0  0  0  0  0  0  0  0  0
    0.1142    1.6715    0.2797 C   0  0  0  0  0  0  0  0  0  0  0  0
    0.9498    0.4471   -0.0736 C   0  0  0  0  0  0  0  0  0  0  0  0
    0.7608    0.1405   -1.6016 C   0  0  0  0  0  0  0  0  0  0  0  0
   -0.0591   -0.5908   -0.6738 C   0  0  0  0  0  0  0  0  0  0  0  0
   -1.5061   -0.3307   -0.5055 C   0  0  0  0  0  0  0  0  0  0  0  0
    0.6725   -1.6519    0.0985 C   0  0  0  0  0  0  0  0  0  0  0  0
    1.0677   -0.5381    1.0129 C   0  0  0  0  0  0  0  0  0  0  0  0
   -0.0790   -0.3836    1.9037 O   0  0  0  0  0  0  0  0  0  0  0  0
   -1.0111    3.4038    0.7928 H   0  0  0  0  0  0  0  0  0  0  0  0
    0.1536    0.8699   -2.2242 H   0  0  0  0  0  0  0  0  0  0  0  0
    1.5523   -0.3128   -2.2153 H   0  0  0  0  0  0  0  0  0  0  0  0
   -1.6951    0.7304   -0.2322 H   0  0  0  0  0  0  0  0  0  0  0  0
   -1.8360   -1.0294    0.3445 H   0  0  0  0  0  0  0  0  0  0  0  0
   -2.1279   -0.6478   -1.3439 H   0  0  0  0  0  0  0  0  0  0  0  0
    0.0227   -2.3926    0.5590 H   0  0  0  0  0  0  0  0  0  0  0  0
    1.4774   -2.1276   -0.5207 H   0  0  0  0  0  0  0  0  0  0  0  0
    2.0248   -0.5201    1.4914 H   0  0  0  0  0  0  0  0  0  0  0  0
    0.1100    0.5192    2.3127 H   0  0  0  0  0  0  0  0  0  0  0  0
  1  2  3  0
  2  3  1  0
  3  4  1  0
  4  5  1  0
  5  6  1  0
  5  7  1  0
  7  8  1  0
  8  9  1  0
  5  3  1  0
  8  3  1  0
  1 10  1  0
  4 11  1  0
  4 12  1  0
  6 13  1  0
  6 14  1  0
  6 15  1  0
  7 16  1  0
  7 17  1  0
  8 18  1  0
  9 19  1  0
M  END
