
     RDKit          3D

 14 14  0  0  0  0  0  0  0  0999 V2000
    2.6322   -0.2664    1.7384 C   0  0  0  0  0  0  0  0  0  0  0  0
    1.4903   -0.2751    1.3182 C   0  0  0  0  0  0  0  0  0  0  0  0
    0.1130   -0.2772    0.8199 C   0  0  0  0  0  0  0  0  0  0  0  0
   -0.3410    1.1163    0.3646 C   0  0  0  0  0  0  0  0  0  0  0  0
   -0.1411   -0.0383   -0.6079 C   0  0  0  0  0  0  0  0  0  0  0  0
   -1.4365   -0.5129   -1.2361 C   0  0  0  0  0  0  0  0  0  0  0  0
    3.6445   -0.2615    2.1309 H   0  0  0  0  0  0  0  0  0  0  0  0
   -0.6199   -0.9052    1.3624 H   0  0  0  0  0  0  0  0  0  0  0  0
    0.4061    1.9423    0.3793 H   0  0  0  0  0  0  0  0  0  0  0  0
   -1.3509    1.4332    0.6441 H   0  0  0  0  0  0  0  0  0  0  0  0
    0.7511   -0.0476   -1.2551 H   0  0  0  0  0  0  0  0  0  0  0  0
   -1.2929   -1.5958   -1.5202 H   0  0  0  0  0  0  0  0  0  0  0  0
   -1.5736    0.0820   -2.1585 H   0  0  0  0  0  0  0  0  0  0  0  0
   -2.2813   -0.3939   -0.5618 H   0  0  0  0  0  0  0  0  0  0  0  0
  1  2  3  0
  2  3  1  0
  3  4  1  0
  4  5  1  0
  5  6  1  0
  5  3  1  0
  1  7  1  0
  3  8  1  0
  4  9  1  0
  4 10  1  0
  5 11  1  0
  6 12  1  0
  6 13  1  0
  6 14  1  0
M  END
