
     RDKit          3D

 17 18  0  0  0  0  0  0  0  0999 V2000
    1.8177   -1.8773    1.8697 C   0  0  0  0  0  0  0  0  0  0  0  0
    1.1868   -1.0999    1.2006 C   0  0  0  0  0  0  0  0  0  0  0  0
    0.4692   -0.1981    0.4372 C   0  0  0  0  0  0  0  0  0  0  0  0
    0.5398    1.2643    0.6927 C   0  0  0  0  0  0  0  0  0  0  0  0
   -0.3069    1.7485   -0.2218 C   0  0  0  0  0  0  0  0  0  0  0  0
   -0.7993    0.5489   -0.9086 C   0  0  0  0  0  0  0  0  0  0  0  0
   -1.6508    0.5878   -1.9052 O   0  0  0  0  0  0  0  0  0  0  0  0
   -1.0479   -0.3872    0.2781 C   0  0  0  0  0  0  0  0  0  0  0  0
    0.5092   -0.2464   -1.0693 C   0  0  0  0  0  0  0  0  0  0  0  0
    2.3634   -2.5788    2.4598 H   0  0  0  0  0  0  0  0  0  0  0  0
    1.1195    1.8149    1.4241 H   0  0  0  0  0  0  0  0  0  0  0  0
   -0.5780    2.7741   -0.4238 H   0  0  0  0  0  0  0  0  0  0  0  0
   -2.2863   -0.1876   -1.8759 H   0  0  0  0  0  0  0  0  0  0  0  0
   -1.3347   -1.3892   -0.0306 H   0  0  0  0  0  0  0  0  0  0  0  0
   -1.6316    0.0785    1.1035 H   0  0  0  0  0  0  0  0  0  0  0  0
    0.3144   -1.2126   -1.5378 H   0  0  0  0  0  0  0  0  0  0  0  0
    1.3154    0.3601   -1.4929 H   0  0  0  0  0  0  0  0  0  0  0  0
  1  2  3  0
  2  3  1  0
  3  4  1  0
  4  5  2  0
  5  6  1  0
  6  7  1  0
  6  8  1  0
  6  9  1  0
  8  3  1  0
  9  3  1  0
  1 10  1  0
  4 11  1  0
  5 12  1  0
  7 13  1  0
  8 14  1  0
  8 15  1  0
  9 16  1  0
  9 17  1  0
M  END
