
     RDKit          3D

 21 22  0  0  0  0  0  0  0  0999 V2000
    2.9729   -1.4113    0.7312 C   0  0  0  0  0  0  0  0  0  0  0  0
    1.9088   -0.8914    0.5227 C   0  0  0  0  0  0  0  0  0  0  0  0
    0.6434   -0.2964    0.2657 C   0  0  0  0  0  0  0  0  0  0  0  0
   -0.5130   -0.8555    1.0180 C   0  0  0  0  0  0  0  0  0  0  0  0
   -1.7186   -0.3988    0.1812 C   0  0  0  0  0  0  0  0  0  0  0  0
   -1.1187    0.3376   -1.0098 C   0  0  0  0  0  0  0  0  0  0  0  0
   -0.5693    1.6323   -0.5121 C   0  0  0  0  0  0  0  0  0  0  0  0
    0.6212    1.2118    0.3631 C   0  0  0  0  0  0  0  0  0  0  0  0
    0.1701   -0.4814   -1.1883 C   0  0  0  0  0  0  0  0  0  0  0  0
    3.9086   -1.8665    0.9332 H   0  0  0  0  0  0  0  0  0  0  0  0
   -0.6031   -0.3955    2.0376 H   0  0  0  0  0  0  0  0  0  0  0  0
   -0.4841   -1.9519    1.0879 H   0  0  0  0  0  0  0  0  0  0  0  0
   -2.3807    0.2627    0.7750 H   0  0  0  0  0  0  0  0  0  0  0  0
   -2.2489   -1.2932   -0.2034 H   0  0  0  0  0  0  0  0  0  0  0  0
   -1.7370    0.3661   -1.8804 H   0  0  0  0  0  0  0  0  0  0  0  0
   -1.3331    2.1609    0.1022 H   0  0  0  0  0  0  0  0  0  0  0  0
   -0.2203    2.2485   -1.3688 H   0  0  0  0  0  0  0  0  0  0  0  0
    1.5515    1.6848    0.0180 H   0  0  0  0  0  0  0  0  0  0  0  0
    0.3967    1.4688    1.4224 H   0  0  0  0  0  0  0  0  0  0  0  0
   -0.1016   -1.5166   -1.3946 H   0  0  0  0  0  0  0  0  0  0  0  0
    0.8553   -0.0149   -1.9007 H   0  0  0  0  0  0  0  0  0  0  0  0
  1  2  3  0
  2  3  1  0
  3  4  1  0
  4  5  1  0
  5  6  1  0
  6  7  1  0
  7  8  1  0
  6  9  1  0
  8  3  1  0
  9  3  1  0
  1 10  1  0
  4 11  1  0
  4 12  1  0
  5 13  1  0
  5 14  1  0
  6 15  1  0
  7 16  1  0
  7 17  1  0
  8 18  1  0
  8 19  1  0
  9 20  1  0
  9 21  1  0
M  END
