
     RDKit          3D

 15 15  0  0  0  0  0  0  0  0999 V2000
    2.5220    0.5339    1.5459 C   0  0  0  0  0  0  0  0  0  0  0  0
    1.4241    0.3060    0.8786 C   0  0  0  0  0  0  0  0  0  0  0  0
    0.2857    0.0931    0.1911 C   0  0  0  0  0  0  0  0  0  0  0  0
   -0.7259    1.1795    0.3193 C   0  0  0  0  0  0  0  0  0  0  0  0
   -1.6023    2.1245    0.4534 C   0  0  0  0  0  0  0  0  0  0  0  0
    0.3702   -0.4027   -1.2275 C   0  0  0  0  0  0  0  0  0  0  0  0
   -0.9401   -1.1404   -0.8768 C   0  0  0  0  0  0  0  0  0  0  0  0
   -0.4927   -1.2317    0.4623 C   0  0  0  0  0  0  0  0  0  0  0  0
   -0.4833   -1.8118    1.5214 O   0  0  0  0  0  0  0  0  0  0  0  0
    3.4314    0.7309    2.1131 H   0  0  0  0  0  0  0  0  0  0  0  0
   -2.2906    2.8775    0.5467 H   0  0  0  0  0  0  0  0  0  0  0  0
    0.1482    0.3458   -1.9990 H   0  0  0  0  0  0  0  0  0  0  0  0
    1.2149   -1.0946   -1.3878 H   0  0  0  0  0  0  0  0  0  0  0  0
   -1.7867   -0.3973   -1.0872 H   0  0  0  0  0  0  0  0  0  0  0  0
   -1.0750   -2.1127   -1.4533 H   0  0  0  0  0  0  0  0  0  0  0  0
  1  2  3  0
  2  3  1  0
  3  4  1  0
  4  5  3  0
  3  6  1  0
  6  7  1  0
  7  8  1  0
  8  9  2  0
  8  3  1  0
  1 10  1  0
  5 11  1  0
  6 12  1  0
  6 13  1  0
  7 14  1  0
  7 15  1  0
M  END
