
     RDKit          3D

 16 16  0  0  0  0  0  0  0  0999 V2000
    3.0309    0.4723    1.2037 C   0  0  0  0  0  0  0  0  0  0  0  0
    2.0286    0.3593    0.5524 C   0  0  0  0  0  0  0  0  0  0  0  0
    0.8255    0.2440   -0.2461 C   0  0  0  0  0  0  0  0  0  0  0  0
    0.5125   -1.1677   -0.6025 C   0  0  0  0  0  0  0  0  0  0  0  0
   -0.8070   -1.2950   -0.6974 C   0  0  0  0  0  0  0  0  0  0  0  0
   -1.4714    0.0100   -0.4141 C   0  0  0  0  0  0  0  0  0  0  0  0
   -2.6820   -0.1601    0.2429 O   0  0  0  0  0  0  0  0  0  0  0  0
   -0.4226    0.6298    0.5214 C   0  0  0  0  0  0  0  0  0  0  0  0
    3.9347    0.5575    1.7839 H   0  0  0  0  0  0  0  0  0  0  0  0
    0.8435    0.8772   -1.1562 H   0  0  0  0  0  0  0  0  0  0  0  0
    1.2051   -1.9930   -0.7683 H   0  0  0  0  0  0  0  0  0  0  0  0
   -1.3418   -2.1978   -0.9417 H   0  0  0  0  0  0  0  0  0  0  0  0
   -1.5262    0.6708   -1.2827 H   0  0  0  0  0  0  0  0  0  0  0  0
   -3.2010   -0.8460   -0.2847 H   0  0  0  0  0  0  0  0  0  0  0  0
   -0.3833    0.1155    1.4880 H   0  0  0  0  0  0  0  0  0  0  0  0
   -0.5455    1.7217    0.6014 H   0  0  0  0  0  0  0  0  0  0  0  0
  1  2  3  0
  2  3  1  0
  3  4  1  0
  4  5  2  0
  5  6  1  0
  6  7  1  0
  6  8  1  0
  8  3  1  0
  1  9  1  0
  3 10  1  0
  4 11  1  0
  5 12  1  0
  6 13  1  0
  7 14  1  0
  8 15  1  0
  8 16  1  0
M  END
