
     RDKit          3D

 15 16  0  0  0  0  0  0  0  0999 V2000
    2.7180   -0.0157    0.3100 C   0  0  0  0  0  0  0  0  0  0  0  0
    1.6022    0.4615    0.2707 C   0  0  0  0  0  0  0  0  0  0  0  0
    0.2537    1.0107    0.2202 C   0  0  0  0  0  0  0  0  0  0  0  0
   -0.7438    0.6954    1.2596 C   0  0  0  0  0  0  0  0  0  0  0  0
   -0.8327    0.0530   -0.0705 C   0  0  0  0  0  0  0  0  0  0  0  0
   -0.5444   -1.3957   -0.2770 C   0  0  0  0  0  0  0  0  0  0  0  0
   -1.0303    0.8643   -1.2870 C   0  0  0  0  0  0  0  0  0  0  0  0
   -1.7941    0.7639   -2.2876 O   0  0  0  0  0  0  0  0  0  0  0  0
   -0.0740    1.7542   -0.9083 O   0  0  0  0  0  0  0  0  0  0  0  0
    3.6859   -0.4441    0.3315 H   0  0  0  0  0  0  0  0  0  0  0  0
   -1.4304    1.5124    1.5485 H   0  0  0  0  0  0  0  0  0  0  0  0
   -0.4286    0.0608    2.0966 H   0  0  0  0  0  0  0  0  0  0  0  0
    0.0989   -1.5011   -1.1981 H   0  0  0  0  0  0  0  0  0  0  0  0
    0.0063   -1.8844    0.5312 H   0  0  0  0  0  0  0  0  0  0  0  0
   -1.4865   -1.9352   -0.5399 H   0  0  0  0  0  0  0  0  0  0  0  0
  1  2  3  0
  2  3  1  0
  3  4  1  0
  4  5  1  0
  5  6  1  0
  5  7  1  0
  7  8  2  0
  7  9  1  0
  5  3  1  0
  9  3  1  0
  1 10  1  0
  4 11  1  0
  4 12  1  0
  6 13  1  0
  6 14  1  0
  6 15  1  0
M  END
