
     RDKit          3D

 21 22  0  0  0  0  0  0  0  0999 V2000
    2.9748    1.5415    0.5351 C   0  0  0  0  0  0  0  0  0  0  0  0
    2.1538    0.6712    0.6697 C   0  0  0  0  0  0  0  0  0  0  0  0
    1.1581   -0.3798    0.8077 C   0  0  0  0  0  0  0  0  0  0  0  0
    1.3810   -1.5808   -0.1201 C   0  0  0  0  0  0  0  0  0  0  0  0
   -0.0691   -1.4349   -0.6058 C   0  0  0  0  0  0  0  0  0  0  0  0
   -0.0910   -0.1006    0.0226 C   0  0  0  0  0  0  0  0  0  0  0  0
   -0.3611    1.1563   -0.6502 C   0  0  0  0  0  0  0  0  0  0  0  0
   -1.2338    0.6170    0.5135 C   0  0  0  0  0  0  0  0  0  0  0  0
   -2.6640    0.2828    0.1738 C   0  0  0  0  0  0  0  0  0  0  0  0
    3.7073    2.3035    0.4005 H   0  0  0  0  0  0  0  0  0  0  0  0
    0.9333   -0.6588    1.8488 H   0  0  0  0  0  0  0  0  0  0  0  0
    2.1252   -1.3234   -0.8863 H   0  0  0  0  0  0  0  0  0  0  0  0
    1.5791   -2.4891    0.4576 H   0  0  0  0  0  0  0  0  0  0  0  0
   -0.0923   -1.4169   -1.7164 H   0  0  0  0  0  0  0  0  0  0  0  0
   -0.7262   -2.2142   -0.1424 H   0  0  0  0  0  0  0  0  0  0  0  0
    0.3038    2.0118   -0.4143 H   0  0  0  0  0  0  0  0  0  0  0  0
   -0.8555    1.2346   -1.6398 H   0  0  0  0  0  0  0  0  0  0  0  0
   -1.1422    1.1771    1.4783 H   0  0  0  0  0  0  0  0  0  0  0  0
   -3.0318   -0.4838    0.8845 H   0  0  0  0  0  0  0  0  0  0  0  0
   -3.2671    1.2162    0.3205 H   0  0  0  0  0  0  0  0  0  0  0  0
   -2.7823   -0.1299   -0.8447 H   0  0  0  0  0  0  0  0  0  0  0  0
  1  2  3  0
  2  3  1  0
  3  4  1  0
  4  5  1  0
  5  6  1  0
  6  7  1  0
  7  8  1  0
  8  9  1  0
  6  3  1  0
  8  6  1  0
  1 10  1  0
  3 11  1  0
  4 12  1  0
  4 13  1  0
  5 14  1  0
  5 15  1  0
  7 16  1  0
  7 17  1  0
  8 18  1  0
  9 19  1  0
  9 20  1  0
  9 21  1  0
M  END
