
     RDKit          3D

 19 18  0  0  0  0  0  0  0  0999 V2000
   -1.8408    1.7224    0.2058 C   0  0  0  0  0  0  0  0  0  0  0  0
   -1.2509    0.4582   -0.0571 C   0  0  0  0  0  0  0  0  0  0  0  0
   -0.5671   -0.9899   -0.3314 C   0  0  0  0  0  0  0  0  0  0  0  0
    1.0193   -0.5109    0.0747 C   0  0  0  0  0  0  0  0  0  0  0  0
    1.5614    0.4819   -0.7947 C   0  0  0  0  0  0  0  0  0  0  0  0
    1.8656    0.0641   -2.2205 C   0  0  0  0  0  0  0  0  0  0  0  0
    1.2528    0.4014   -3.1373 O   0  0  0  0  0  0  0  0  0  0  0  0
   -0.7745   -1.4262    0.9135 O   0  0  0  0  0  0  0  0  0  0  0  0
   -1.6532   -0.5581    1.6812 C   0  0  0  0  0  0  0  0  0  0  0  0
   -2.2620    2.5977    0.4010 H   0  0  0  0  0  0  0  0  0  0  0  0
   -0.4223   -0.6578   -1.2466 H   0  0  0  0  0  0  0  0  0  0  0  0
    0.8760   -0.1628    1.0793 H   0  0  0  0  0  0  0  0  0  0  0  0
    1.4958   -1.5452   -0.0111 H   0  0  0  0  0  0  0  0  0  0  0  0
    2.6447    0.7738   -0.4110 H   0  0  0  0  0  0  0  0  0  0  0  0
    1.1213    1.5317   -0.8638 H   0  0  0  0  0  0  0  0  0  0  0  0
    2.7527   -0.6141   -2.3019 H   0  0  0  0  0  0  0  0  0  0  0  0
   -2.5259   -0.3163    1.0853 H   0  0  0  0  0  0  0  0  0  0  0  0
   -1.1254    0.1180    2.2890 H   0  0  0  0  0  0  0  0  0  0  0  0
   -2.1676   -1.3681    2.3767 H   0  0  0  0  0  0  0  0  0  0  0  0
  1  2  3  0
  2  3  1  0
  3  4  1  0
  4  5  1  0
  5  6  1  0
  6  7  2  0
  3  8  1  0
  8  9  1  0
  1 10  1  0
  3 11  1  0
  4 12  1  0
  4 13  1  0
  5 14  1  0
  5 15  1  0
  6 16  1  0
  9 17  1  0
  9 18  1  0
  9 19  1  0
M  END
