
     RDKit          3D

 25 24  0  0  0  0  0  0  0  0999 V2000
    5.1602   -0.1663   -0.3585 C   0  0  0  0  0  0  0  0  0  0  0  0
    4.0384    0.2352   -0.1820 C   0  0  0  0  0  0  0  0  0  0  0  0
    2.6888    0.7142    0.0051 C   0  0  0  0  0  0  0  0  0  0  0  0
    1.6666   -0.3750   -0.3238 C   0  0  0  0  0  0  0  0  0  0  0  0
    0.3190    0.2342   -0.0949 C   0  0  0  0  0  0  0  0  0  0  0  0
   -0.8264   -0.6864   -0.3663 C   0  0  0  0  0  0  0  0  0  0  0  0
   -2.0951    0.1020   -0.0812 C   0  0  0  0  0  0  0  0  0  0  0  0
   -3.3186   -0.7220   -0.3196 C   0  0  0  0  0  0  0  0  0  0  0  0
   -2.0657    0.7185    1.2945 C   0  0  0  0  0  0  0  0  0  0  0  0
    6.1502   -0.5166   -0.4977 H   0  0  0  0  0  0  0  0  0  0  0  0
    2.4826    1.0019    1.0584 H   0  0  0  0  0  0  0  0  0  0  0  0
    2.4578    1.6097   -0.6244 H   0  0  0  0  0  0  0  0  0  0  0  0
    1.8377   -0.6450   -1.3890 H   0  0  0  0  0  0  0  0  0  0  0  0
    1.8750   -1.2681    0.2734 H   0  0  0  0  0  0  0  0  0  0  0  0
    0.2221    1.1026   -0.7785 H   0  0  0  0  0  0  0  0  0  0  0  0
    0.2669    0.5486    0.9676 H   0  0  0  0  0  0  0  0  0  0  0  0
   -0.8739   -1.0465   -1.4018 H   0  0  0  0  0  0  0  0  0  0  0  0
   -0.8436   -1.5762    0.2968 H   0  0  0  0  0  0  0  0  0  0  0  0
   -2.1025    0.9630   -0.8062 H   0  0  0  0  0  0  0  0  0  0  0  0
   -3.9802   -0.2707   -1.0919 H   0  0  0  0  0  0  0  0  0  0  0  0
   -3.8357   -0.8635    0.6482 H   0  0  0  0  0  0  0  0  0  0  0  0
   -2.9923   -1.7282   -0.6952 H   0  0  0  0  0  0  0  0  0  0  0  0
   -3.0977    1.0034    1.5865 H   0  0  0  0  0  0  0  0  0  0  0  0
   -1.4274    1.6204    1.3442 H   0  0  0  0  0  0  0  0  0  0  0  0
   -1.7062    0.0108    2.0660 H   0  0  0  0  0  0  0  0  0  0  0  0
  1  2  3  0
  2  3  1  0
  3  4  1  0
  4  5  1  0
  5  6  1  0
  6  7  1  0
  7  8  1  0
  7  9  1  0
  1 10  1  0
  3 11  1  0
  3 12  1  0
  4 13  1  0
  4 14  1  0
  5 15  1  0
  5 16  1  0
  6 17  1  0
  6 18  1  0
  7 19  1  0
  8 20  1  0
  8 21  1  0
  8 22  1  0
  9 23  1  0
  9 24  1  0
  9 25  1  0
M  END
