
     RDKit          3D

 21 20  0  0  0  0  0  0  0  0999 V2000
    2.7333   -1.9908   -0.0360 C   0  0  0  0  0  0  0  0  0  0  0  0
    2.6563   -1.2809    0.6778 C   0  0  0  0  0  0  0  0  0  0  0  0
    2.5275   -0.1388    1.7876 C   0  0  0  0  0  0  0  0  0  0  0  0
    1.8476    0.9478    0.9336 C   0  0  0  0  0  0  0  0  0  0  0  0
    0.5635    0.4939    0.4472 C   0  0  0  0  0  0  0  0  0  0  0  0
   -0.5850    0.1118    0.0153 C   0  0  0  0  0  0  0  0  0  0  0  0
   -1.8235   -0.2836   -0.4350 C   0  0  0  0  0  0  0  0  0  0  0  0
   -2.7444    0.9935   -0.1622 C   0  0  0  0  0  0  0  0  0  0  0  0
   -1.7360   -0.3413   -1.9916 C   0  0  0  0  0  0  0  0  0  0  0  0
    2.8191   -2.8484   -0.8695 H   0  0  0  0  0  0  0  0  0  0  0  0
    1.9267   -0.5350    2.5620 H   0  0  0  0  0  0  0  0  0  0  0  0
    3.5614    0.1229    2.0485 H   0  0  0  0  0  0  0  0  0  0  0  0
    1.8309    1.9162    1.3963 H   0  0  0  0  0  0  0  0  0  0  0  0
    2.5562    1.0498    0.0110 H   0  0  0  0  0  0  0  0  0  0  0  0
   -2.2716   -1.1580   -0.0289 H   0  0  0  0  0  0  0  0  0  0  0  0
   -2.4514    1.6719   -1.0332 H   0  0  0  0  0  0  0  0  0  0  0  0
   -2.3707    1.4723    0.7742 H   0  0  0  0  0  0  0  0  0  0  0  0
   -3.8008    0.8074   -0.1854 H   0  0  0  0  0  0  0  0  0  0  0  0
   -2.0279    0.6571   -2.3542 H   0  0  0  0  0  0  0  0  0  0  0  0
   -0.7119   -0.6156   -2.2216 H   0  0  0  0  0  0  0  0  0  0  0  0
   -2.4994   -1.0519   -2.3543 H   0  0  0  0  0  0  0  0  0  0  0  0
  1  2  3  0
  2  3  1  0
  3  4  1  0
  4  5  1  0
  5  6  3  0
  6  7  1  0
  7  8  1  0
  7  9  1  0
  1 10  1  0
  3 11  1  0
  3 12  1  0
  4 13  1  0
  4 14  1  0
  7 15  1  0
  8 16  1  0
  8 17  1  0
  8 18  1  0
  9 19  1  0
  9 20  1  0
  9 21  1  0
M  END
