
     RDKit          3D

 16 16  0  0  0  0  0  0  0  0999 V2000
   -0.4558    2.6289   -0.2480 C   0  0  0  0  0  0  0  0  0  0  0  0
   -0.1966    1.4596   -0.1079 C   0  0  0  0  0  0  0  0  0  0  0  0
    0.1086    0.0210    0.0864 C   0  0  0  0  0  0  0  0  0  0  0  0
    1.5145   -0.3656   -0.2831 C   0  0  0  0  0  0  0  0  0  0  0  0
    2.4537    0.1191    0.6234 O   0  0  0  0  0  0  0  0  0  0  0  0
   -0.9221   -0.8572   -0.6100 C   0  0  0  0  0  0  0  0  0  0  0  0
   -1.5788   -0.6876    0.7202 C   0  0  0  0  0  0  0  0  0  0  0  0
   -0.3340   -0.4316    1.3259 O   0  0  0  0  0  0  0  0  0  0  0  0
   -0.6882    3.6670   -0.3545 H   0  0  0  0  0  0  0  0  0  0  0  0
    1.5746   -1.4608   -0.2704 H   0  0  0  0  0  0  0  0  0  0  0  0
    1.7078    0.0361   -1.2966 H   0  0  0  0  0  0  0  0  0  0  0  0
    3.1436   -0.5801    0.8382 H   0  0  0  0  0  0  0  0  0  0  0  0
   -1.4822   -0.3079   -1.4093 H   0  0  0  0  0  0  0  0  0  0  0  0
   -0.5866   -1.8580   -0.8822 H   0  0  0  0  0  0  0  0  0  0  0  0
   -2.1870    0.2271    0.7794 H   0  0  0  0  0  0  0  0  0  0  0  0
   -2.0714   -1.6101    1.0885 H   0  0  0  0  0  0  0  0  0  0  0  0
  1  2  3  0
  2  3  1  0
  3  4  1  0
  4  5  1  0
  3  6  1  0
  6  7  1  0
  7  8  1  0
  8  3  1  0
  1  9  1  0
  4 10  1  0
  4 11  1  0
  5 12  1  0
  6 13  1  0
  6 14  1  0
  7 15  1  0
  7 16  1  0
M  END
