
     RDKit          3D

 21 20  0  0  0  0  0  0  0  0999 V2000
   -0.3902    2.7301    0.0929 C   0  0  0  0  0  0  0  0  0  0  0  0
   -0.3773    1.5238    0.0092 C   0  0  0  0  0  0  0  0  0  0  0  0
   -0.3365    0.0652   -0.0874 C   0  0  0  0  0  0  0  0  0  0  0  0
    0.8568   -0.3916   -0.8865 C   0  0  0  0  0  0  0  0  0  0  0  0
    2.1634    0.0267   -0.3089 C   0  0  0  0  0  0  0  0  0  0  0  0
   -0.3825   -0.5075    1.2952 C   0  0  0  0  0  0  0  0  0  0  0  0
    0.7079   -0.0690    2.0632 O   0  0  0  0  0  0  0  0  0  0  0  0
   -1.5659   -0.4102   -0.8350 C   0  0  0  0  0  0  0  0  0  0  0  0
   -1.6031   -1.7788   -0.9692 O   0  0  0  0  0  0  0  0  0  0  0  0
   -0.3888    3.7935    0.1540 H   0  0  0  0  0  0  0  0  0  0  0  0
    0.7329    0.0753   -1.9080 H   0  0  0  0  0  0  0  0  0  0  0  0
    0.8238   -1.4816   -1.0696 H   0  0  0  0  0  0  0  0  0  0  0  0
    2.1016    0.8500    0.4273 H   0  0  0  0  0  0  0  0  0  0  0  0
    2.7367   -0.8581    0.0971 H   0  0  0  0  0  0  0  0  0  0  0  0
    2.8230    0.4135   -1.1364 H   0  0  0  0  0  0  0  0  0  0  0  0
   -0.4760   -1.6063    1.3196 H   0  0  0  0  0  0  0  0  0  0  0  0
   -1.2853   -0.1061    1.8013 H   0  0  0  0  0  0  0  0  0  0  0  0
    0.5008   -0.2002    3.0202 H   0  0  0  0  0  0  0  0  0  0  0  0
   -2.4625   -0.0856   -0.2860 H   0  0  0  0  0  0  0  0  0  0  0  0
   -1.6333    0.0927   -1.8435 H   0  0  0  0  0  0  0  0  0  0  0  0
   -2.5455   -2.0757   -0.9498 H   0  0  0  0  0  0  0  0  0  0  0  0
  1  2  3  0
  2  3  1  0
  3  4  1  0
  4  5  1  0
  3  6  1  0
  6  7  1  0
  3  8  1  0
  8  9  1  0
  1 10  1  0
  4 11  1  0
  4 12  1  0
  5 13  1  0
  5 14  1  0
  5 15  1  0
  6 16  1  0
  6 17  1  0
  7 18  1  0
  8 19  1  0
  8 20  1  0
  9 21  1  0
M  END
