
     RDKit          3D

 17 17  0  0  0  0  0  0  0  0999 V2000
    4.6295   -1.1610    0.8573 C   0  0  0  0  0  0  0  0  0  0  0  0
    3.5350   -0.6777    0.7013 C   0  0  0  0  0  0  0  0  0  0  0  0
    2.2454   -0.1208    0.5189 C   0  0  0  0  0  0  0  0  0  0  0  0
    1.1530    0.3655    0.3579 C   0  0  0  0  0  0  0  0  0  0  0  0
   -0.1825    0.9345    0.1729 C   0  0  0  0  0  0  0  0  0  0  0  0
   -1.2900    0.2423    1.0322 C   0  0  0  0  0  0  0  0  0  0  0  0
   -1.2463    0.1553   -0.4617 C   0  0  0  0  0  0  0  0  0  0  0  0
   -2.3447    0.9093   -1.1661 C   0  0  0  0  0  0  0  0  0  0  0  0
   -0.9260   -1.0834   -1.0004 O   0  0  0  0  0  0  0  0  0  0  0  0
    5.5836   -1.5984    1.0052 H   0  0  0  0  0  0  0  0  0  0  0  0
   -0.2408    2.0619    0.1847 H   0  0  0  0  0  0  0  0  0  0  0  0
   -1.9966    0.9229    1.5420 H   0  0  0  0  0  0  0  0  0  0  0  0
   -0.9625   -0.6311    1.6276 H   0  0  0  0  0  0  0  0  0  0  0  0
   -2.2744    1.9713   -0.8981 H   0  0  0  0  0  0  0  0  0  0  0  0
   -2.3173    0.7500   -2.2802 H   0  0  0  0  0  0  0  0  0  0  0  0
   -3.3453    0.5241   -0.8382 H   0  0  0  0  0  0  0  0  0  0  0  0
   -0.0201   -1.0960   -1.3552 H   0  0  0  0  0  0  0  0  0  0  0  0
  1  2  3  0
  2  3  1  0
  3  4  3  0
  4  5  1  0
  5  6  1  0
  6  7  1  0
  7  8  1  0
  7  9  1  0
  7  5  1  0
  1 10  1  0
  5 11  1  0
  6 12  1  0
  6 13  1  0
  8 14  1  0
  8 15  1  0
  8 16  1  0
  9 17  1  0
M  END
