
     RDKit          3D

 19 18  0  0  0  0  0  0  0  0999 V2000
    2.7847    2.0829    0.6266 C   0  0  0  0  0  0  0  0  0  0  0  0
    1.9583    1.3506    0.2082 C   0  0  0  0  0  0  0  0  0  0  0  0
    0.9253    0.4047   -0.3113 C   0  0  0  0  0  0  0  0  0  0  0  0
    1.6395   -0.8871   -0.4924 C   0  0  0  0  0  0  0  0  0  0  0  0
    2.7753   -0.9598   -0.9302 O   0  0  0  0  0  0  0  0  0  0  0  0
   -0.1572    0.3276    0.7156 C   0  0  0  0  0  0  0  0  0  0  0  0
   -1.3067   -0.5594    0.4073 C   0  0  0  0  0  0  0  0  0  0  0  0
   -2.0125   -0.1334   -0.8571 C   0  0  0  0  0  0  0  0  0  0  0  0
   -1.0460   -1.9159    0.4368 O   0  0  0  0  0  0  0  0  0  0  0  0
    3.5668    2.7515    1.0229 H   0  0  0  0  0  0  0  0  0  0  0  0
    0.6031    0.7944   -1.2909 H   0  0  0  0  0  0  0  0  0  0  0  0
    1.1296   -1.7958   -0.2245 H   0  0  0  0  0  0  0  0  0  0  0  0
   -0.5318    1.3778    0.8775 H   0  0  0  0  0  0  0  0  0  0  0  0
    0.3017    0.0035    1.6749 H   0  0  0  0  0  0  0  0  0  0  0  0
   -2.0729   -0.3496    1.2297 H   0  0  0  0  0  0  0  0  0  0  0  0
   -1.3186    0.2875   -1.5870 H   0  0  0  0  0  0  0  0  0  0  0  0
   -2.5257   -1.0107   -1.3450 H   0  0  0  0  0  0  0  0  0  0  0  0
   -2.8003    0.6255   -0.6681 H   0  0  0  0  0  0  0  0  0  0  0  0
   -1.9124   -2.3942    0.5071 H   0  0  0  0  0  0  0  0  0  0  0  0
  1  2  3  0
  2  3  1  0
  3  4  1  0
  4  5  2  0
  3  6  1  0
  6  7  1  0
  7  8  1  0
  7  9  1  0
  1 10  1  0
  3 11  1  0
  4 12  1  0
  6 13  1  0
  6 14  1  0
  7 15  1  0
  8 16  1  0
  8 17  1  0
  8 18  1  0
  9 19  1  0
M  END
