
     RDKit          3D

 19 20  0  0  0  0  0  0  0  0999 V2000
    2.5858    1.7904    0.3143 C   0  0  0  0  0  0  0  0  0  0  0  0
    1.7770    0.9361    0.5743 C   0  0  0  0  0  0  0  0  0  0  0  0
    0.7906   -0.0950    0.8648 C   0  0  0  0  0  0  0  0  0  0  0  0
    0.8458   -1.1531   -0.2557 C   0  0  0  0  0  0  0  0  0  0  0  0
   -0.4655   -0.8997   -0.8982 C   0  0  0  0  0  0  0  0  0  0  0  0
   -0.5095    0.6347   -0.9397 C   0  0  0  0  0  0  0  0  0  0  0  0
   -0.5695    0.4755    0.5874 C   0  0  0  0  0  0  0  0  0  0  0  0
   -1.4001   -0.7493    0.3072 C   0  0  0  0  0  0  0  0  0  0  0  0
   -2.6837   -0.5232   -0.1484 O   0  0  0  0  0  0  0  0  0  0  0  0
    3.3000    2.5589    0.0661 H   0  0  0  0  0  0  0  0  0  0  0  0
    0.9080   -0.5360    1.8494 H   0  0  0  0  0  0  0  0  0  0  0  0
    1.6837   -0.9268   -0.9360 H   0  0  0  0  0  0  0  0  0  0  0  0
    0.9679   -2.1546    0.1796 H   0  0  0  0  0  0  0  0  0  0  0  0
   -0.8097   -1.4320   -1.7386 H   0  0  0  0  0  0  0  0  0  0  0  0
   -1.4397    1.0273   -1.3779 H   0  0  0  0  0  0  0  0  0  0  0  0
    0.4239    1.0917   -1.2704 H   0  0  0  0  0  0  0  0  0  0  0  0
   -0.9577    1.2722    1.1550 H   0  0  0  0  0  0  0  0  0  0  0  0
   -1.3152   -1.5605    1.0500 H   0  0  0  0  0  0  0  0  0  0  0  0
   -3.1322    0.2435    0.2674 H   0  0  0  0  0  0  0  0  0  0  0  0
  1  2  3  0
  2  3  1  0
  3  4  1  0
  4  5  1  0
  5  6  1  0
  6  7  1  0
  7  8  1  0
  8  9  1  0
  7  3  1  0
  8  5  1  0
  1 10  1  0
  3 11  1  0
  4 12  1  0
  4 13  1  0
  5 14  1  0
  6 15  1  0
  6 16  1  0
  7 17  1  0
  8 18  1  0
  9 19  1  0
M  END
