
     RDKit          3D

 19 20  0  0  0  0  0  0  0  0999 V2000
    2.6111    1.2580    0.3665 C   0  0  0  0  0  0  0  0  0  0  0  0
    1.7711    0.3821    0.3284 C   0  0  0  0  0  0  0  0  0  0  0  0
    0.7732   -0.6853    0.3000 C   0  0  0  0  0  0  0  0  0  0  0  0
    1.0386   -1.7761   -0.7001 C   0  0  0  0  0  0  0  0  0  0  0  0
   -0.0834   -1.4776   -1.4391 O   0  0  0  0  0  0  0  0  0  0  0  0
   -0.3720   -0.4448   -0.5992 C   0  0  0  0  0  0  0  0  0  0  0  0
   -1.7389   -0.3737   -0.0071 C   0  0  0  0  0  0  0  0  0  0  0  0
   -1.6844    1.1324   -0.1878 C   0  0  0  0  0  0  0  0  0  0  0  0
   -0.5379    0.9142   -1.1567 C   0  0  0  0  0  0  0  0  0  0  0  0
    3.3603    2.0200    0.4131 H   0  0  0  0  0  0  0  0  0  0  0  0
    0.5364   -0.9994    1.3223 H   0  0  0  0  0  0  0  0  0  0  0  0
    1.9544   -1.5088   -1.3012 H   0  0  0  0  0  0  0  0  0  0  0  0
    1.1005   -2.7759   -0.2529 H   0  0  0  0  0  0  0  0  0  0  0  0
   -1.7836   -0.7126    1.0402 H   0  0  0  0  0  0  0  0  0  0  0  0
   -2.5116   -0.7994   -0.6740 H   0  0  0  0  0  0  0  0  0  0  0  0
   -2.5410    1.5744   -0.7248 H   0  0  0  0  0  0  0  0  0  0  0  0
   -1.3801    1.6705    0.7434 H   0  0  0  0  0  0  0  0  0  0  0  0
   -0.8094    0.9908   -2.2238 H   0  0  0  0  0  0  0  0  0  0  0  0
    0.2967    1.6110   -0.9253 H   0  0  0  0  0  0  0  0  0  0  0  0
  1  2  3  0
  2  3  1  0
  3  4  1  0
  4  5  1  0
  5  6  1  0
  6  7  1  0
  7  8  1  0
  8  9  1  0
  6  3  1  0
  9  6  1  0
  1 10  1  0
  3 11  1  0
  4 12  1  0
  4 13  1  0
  7 14  1  0
  7 15  1  0
  8 16  1  0
  8 17  1  0
  9 18  1  0
  9 19  1  0
M  END
