
     RDKit          3D

 19 18  0  0  0  0  0  0  0  0999 V2000
   -3.7540    0.4005   -0.9396 C   0  0  0  0  0  0  0  0  0  0  0  0
   -2.7764   -0.2350   -0.1766 C   0  0  0  0  0  0  0  0  0  0  0  0
   -1.7737   -0.8844    0.6353 C   0  0  0  0  0  0  0  0  0  0  0  0
   -1.3103   -2.2233    0.3946 C   0  0  0  0  0  0  0  0  0  0  0  0
   -0.6224    0.0259    0.2222 C   0  0  0  0  0  0  0  0  0  0  0  0
    0.3966    0.8168   -0.1621 C   0  0  0  0  0  0  0  0  0  0  0  0
    1.4343    1.6252   -0.5417 C   0  0  0  0  0  0  0  0  0  0  0  0
    2.6568    1.0692   -1.1112 C   0  0  0  0  0  0  0  0  0  0  0  0
    3.4028    0.2574   -0.3426 O   0  0  0  0  0  0  0  0  0  0  0  0
   -4.4081    0.8160   -1.4557 H   0  0  0  0  0  0  0  0  0  0  0  0
   -1.8583   -0.6674    1.7029 H   0  0  0  0  0  0  0  0  0  0  0  0
   -0.9569   -2.7005    1.4044 H   0  0  0  0  0  0  0  0  0  0  0  0
   -2.2265   -2.8265    0.1226 H   0  0  0  0  0  0  0  0  0  0  0  0
   -0.4285   -2.3455   -0.2615 H   0  0  0  0  0  0  0  0  0  0  0  0
    1.0079    2.3326   -1.4175 H   0  0  0  0  0  0  0  0  0  0  0  0
    1.6272    2.4958    0.2204 H   0  0  0  0  0  0  0  0  0  0  0  0
    2.4507    0.5643   -2.1241 H   0  0  0  0  0  0  0  0  0  0  0  0
    3.2929    1.9928   -1.3349 H   0  0  0  0  0  0  0  0  0  0  0  0
    3.8459   -0.5139   -0.8574 H   0  0  0  0  0  0  0  0  0  0  0  0
  1  2  3  0
  2  3  1  0
  3  4  1  0
  3  5  1  0
  5  6  3  0
  6  7  1  0
  7  8  1  0
  8  9  1  0
  1 10  1  0
  3 11  1  0
  4 12  1  0
  4 13  1  0
  4 14  1  0
  7 15  1  0
  7 16  1  0
  8 17  1  0
  8 18  1  0
  9 19  1  0
M  END
