
     RDKit          3D

 19 18  0  0  0  0  0  0  0  0999 V2000
    3.4953   -3.4806    0.1926 C   0  0  0  0  0  0  0  0  0  0  0  0
    2.1621   -2.2929   -0.0523 C   0  0  0  0  0  0  0  0  0  0  0  0
    1.3047   -1.5143   -0.2285 C   0  0  0  0  0  0  0  0  0  0  0  0
    0.6804   -0.9422   -0.3684 C   0  0  0  0  0  0  0  0  0  0  0  0
   -0.1460   -0.1633   -0.5437 C   0  0  0  0  0  0  0  0  0  0  0  0
   -0.4422    1.3281   -0.1157 C   0  0  0  0  0  0  0  0  0  0  0  0
    0.3337    2.5406   -0.4002 C   0  0  0  0  0  0  0  0  0  0  0  0
   -1.5971   -0.7350   -0.2363 C   0  0  0  0  0  0  0  0  0  0  0  0
   -2.5570    0.3416   -0.1983 O   0  0  0  0  0  0  0  0  0  0  0  0
    4.2424   -4.1494    0.3258 H   0  0  0  0  0  0  0  0  0  0  0  0
   -0.3682    0.1429   -1.7825 H   0  0  0  0  0  0  0  0  0  0  0  0
   -0.2674    1.1444    1.0620 H   0  0  0  0  0  0  0  0  0  0  0  0
   -1.5749    1.5921   -0.0328 H   0  0  0  0  0  0  0  0  0  0  0  0
    1.1980    2.2887   -1.0622 H   0  0  0  0  0  0  0  0  0  0  0  0
    0.7854    3.0328    0.5327 H   0  0  0  0  0  0  0  0  0  0  0  0
   -0.2802    3.4034   -0.8377 H   0  0  0  0  0  0  0  0  0  0  0  0
   -1.5256   -0.9957    0.8042 H   0  0  0  0  0  0  0  0  0  0  0  0
   -2.0448   -1.3672   -1.0430 H   0  0  0  0  0  0  0  0  0  0  0  0
   -3.3985   -0.1740    0.1916 H   0  0  0  0  0  0  0  0  0  0  0  0
  1  2  3  0
  2  3  1  0
  3  4  3  0
  4  5  1  0
  5  6  1  0
  6  7  1  0
  5  8  1  0
  8  9  1  0
  1 10  1  0
  5 11  1  0
  6 12  1  0
  6 13  1  0
  7 14  1  0
  7 15  1  0
  7 16  1  0
  8 17  1  0
  8 18  1  0
  9 19  1  0
M  END
