
     RDKit          3D

 18 18  0  0  0  0  0  0  0  0999 V2000
    2.4368    0.6684    1.5011 C   0  0  0  0  0  0  0  0  0  0  0  0
    2.1548   -0.2217    0.7310 C   0  0  0  0  0  0  0  0  0  0  0  0
    1.8351   -1.2950   -0.2140 C   0  0  0  0  0  0  0  0  0  0  0  0
    0.3376   -1.3309   -0.3639 C   0  0  0  0  0  0  0  0  0  0  0  0
   -0.2407   -0.0566   -0.8803 C   0  0  0  0  0  0  0  0  0  0  0  0
   -0.0247    1.0844   -0.1167 O   0  0  0  0  0  0  0  0  0  0  0  0
   -1.3843    0.4986   -0.0567 C   0  0  0  0  0  0  0  0  0  0  0  0
   -2.3732    1.4157   -0.7464 C   0  0  0  0  0  0  0  0  0  0  0  0
    2.6790    1.4486    2.1982 H   0  0  0  0  0  0  0  0  0  0  0  0
    2.3715   -1.2224   -1.1581 H   0  0  0  0  0  0  0  0  0  0  0  0
    2.1300   -2.2675    0.2647 H   0  0  0  0  0  0  0  0  0  0  0  0
   -0.1450   -1.6467    0.5627 H   0  0  0  0  0  0  0  0  0  0  0  0
    0.1163   -2.1316   -1.1253 H   0  0  0  0  0  0  0  0  0  0  0  0
   -0.3613    0.1064   -1.9649 H   0  0  0  0  0  0  0  0  0  0  0  0
   -1.6286    0.0730    0.9189 H   0  0  0  0  0  0  0  0  0  0  0  0
   -3.1118    0.7821   -1.2605 H   0  0  0  0  0  0  0  0  0  0  0  0
   -2.9119    2.0391   -0.0101 H   0  0  0  0  0  0  0  0  0  0  0  0
   -1.8796    2.0561   -1.4899 H   0  0  0  0  0  0  0  0  0  0  0  0
  1  2  3  0
  2  3  1  0
  3  4  1  0
  4  5  1  0
  5  6  1  0
  6  7  1  0
  7  8  1  0
  7  5  1  0
  1  9  1  0
  3 10  1  0
  3 11  1  0
  4 12  1  0
  4 13  1  0
  5 14  1  0
  7 15  1  0
  8 16  1  0
  8 17  1  0
  8 18  1  0
M  END
