
     RDKit          3D

 19 20  0  0  0  0  0  0  0  0999 V2000
    2.7101    1.4264    1.4637 C   0  0  0  0  0  0  0  0  0  0  0  0
    1.8537    1.0515    0.7501 C   0  0  0  0  0  0  0  0  0  0  0  0
    0.7876    0.5968   -0.1640 C   0  0  0  0  0  0  0  0  0  0  0  0
    0.5867    0.8736   -1.3905 C   0  0  0  0  0  0  0  0  0  0  0  0
   -0.6261    0.1426   -1.8762 C   0  0  0  0  0  0  0  0  0  0  0  0
   -0.9552   -0.8840   -0.8481 C   0  0  0  0  0  0  0  0  0  0  0  0
   -0.0745   -1.7162   -0.0642 C   0  0  0  0  0  0  0  0  0  0  0  0
   -0.2786   -0.2959    0.3394 C   0  0  0  0  0  0  0  0  0  0  0  0
   -1.1209    0.0200    1.5107 C   0  0  0  0  0  0  0  0  0  0  0  0
    3.5547    1.8064    2.1929 H   0  0  0  0  0  0  0  0  0  0  0  0
    1.1486    1.5414   -2.0600 H   0  0  0  0  0  0  0  0  0  0  0  0
   -1.4708    0.8693   -1.9704 H   0  0  0  0  0  0  0  0  0  0  0  0
   -0.4256   -0.2447   -2.8686 H   0  0  0  0  0  0  0  0  0  0  0  0
   -2.0896   -1.0856   -0.7664 H   0  0  0  0  0  0  0  0  0  0  0  0
    0.9235   -2.0191   -0.4003 H   0  0  0  0  0  0  0  0  0  0  0  0
   -0.5090   -2.4758    0.6385 H   0  0  0  0  0  0  0  0  0  0  0  0
   -2.0519    0.5260    1.1711 H   0  0  0  0  0  0  0  0  0  0  0  0
   -1.3638   -0.8761    2.1486 H   0  0  0  0  0  0  0  0  0  0  0  0
   -0.5989    0.7433    2.1936 H   0  0  0  0  0  0  0  0  0  0  0  0
  1  2  3  0
  2  3  1  0
  3  4  2  0
  4  5  1  0
  5  6  1  0
  6  7  1  0
  7  8  1  0
  8  9  1  0
  8  3  1  0
  8  6  1  0
  1 10  1  0
  4 11  1  0
  5 12  1  0
  5 13  1  0
  6 14  1  0
  7 15  1  0
  7 16  1  0
  9 17  1  0
  9 18  1  0
  9 19  1  0
M  END
