
     RDKit          3D

 19 18  0  0  0  0  0  0  0  0999 V2000
    3.1935   -2.2607   -0.7746 C   0  0  0  0  0  0  0  0  0  0  0  0
    2.4535   -1.4262   -0.3737 C   0  0  0  0  0  0  0  0  0  0  0  0
    1.5757   -0.4203    0.0876 C   0  0  0  0  0  0  0  0  0  0  0  0
    1.7668   -0.1144    1.3231 O   0  0  0  0  0  0  0  0  0  0  0  0
    0.5393    0.2171   -0.7460 C   0  0  0  0  0  0  0  0  0  0  0  0
   -0.0758    1.3402    0.0328 C   0  0  0  0  0  0  0  0  0  0  0  0
   -0.9337    2.0273   -0.9500 O   0  0  0  0  0  0  0  0  0  0  0  0
   -1.0616    0.8898    1.0979 C   0  0  0  0  0  0  0  0  0  0  0  0
   -2.3448    0.2784    0.5539 C   0  0  0  0  0  0  0  0  0  0  0  0
    3.9824   -3.1325   -1.1786 H   0  0  0  0  0  0  0  0  0  0  0  0
    0.8644    0.4775   -1.7238 H   0  0  0  0  0  0  0  0  0  0  0  0
   -0.2790   -0.5899   -0.8009 H   0  0  0  0  0  0  0  0  0  0  0  0
    0.6321    2.0396    0.4063 H   0  0  0  0  0  0  0  0  0  0  0  0
   -0.2682    2.6148   -1.4243 H   0  0  0  0  0  0  0  0  0  0  0  0
   -1.4252    1.7712    1.6830 H   0  0  0  0  0  0  0  0  0  0  0  0
   -0.5961    0.1035    1.6894 H   0  0  0  0  0  0  0  0  0  0  0  0
   -2.9876    1.1606    0.1372 H   0  0  0  0  0  0  0  0  0  0  0  0
   -2.9216   -0.2783    1.2832 H   0  0  0  0  0  0  0  0  0  0  0  0
   -2.1142   -0.3141   -0.3223 H   0  0  0  0  0  0  0  0  0  0  0  0
  1  2  3  0
  2  3  1  0
  3  4  2  0
  3  5  1  0
  5  6  1  0
  6  7  1  0
  6  8  1  0
  8  9  1  0
  1 10  1  0
  5 11  1  0
  5 12  1  0
  6 13  1  0
  7 14  1  0
  8 15  1  0
  8 16  1  0
  9 17  1  0
  9 18  1  0
  9 19  1  0
M  END
