
     RDKit          3D

 15 14  0  0  0  0  0  0  0  0999 V2000
    2.7459    0.3591   -1.7750 C   0  0  0  0  0  0  0  0  0  0  0  0
    2.0173    0.5412   -0.8057 C   0  0  0  0  0  0  0  0  0  0  0  0
    1.1634    0.7506    0.3705 C   0  0  0  0  0  0  0  0  0  0  0  0
    0.2993   -0.4356    0.5204 C   0  0  0  0  0  0  0  0  0  0  0  0
    0.7293   -1.4250    1.0599 O   0  0  0  0  0  0  0  0  0  0  0  0
   -1.0893   -0.4225    0.0144 C   0  0  0  0  0  0  0  0  0  0  0  0
   -1.3589    0.8144   -0.5568 O   0  0  0  0  0  0  0  0  0  0  0  0
   -2.0557   -0.7469    1.0947 C   0  0  0  0  0  0  0  0  0  0  0  0
   -2.0390   -1.7679    1.7441 O   0  0  0  0  0  0  0  0  0  0  0  0
    3.3733    0.1919   -2.5885 H   0  0  0  0  0  0  0  0  0  0  0  0
    0.6109    1.7131    0.3010 H   0  0  0  0  0  0  0  0  0  0  0  0
    1.8328    0.8637    1.2720 H   0  0  0  0  0  0  0  0  0  0  0  0
   -1.2577   -1.1796   -0.7843 H   0  0  0  0  0  0  0  0  0  0  0  0
   -2.1525    0.7592   -1.1720 H   0  0  0  0  0  0  0  0  0  0  0  0
   -2.8190   -0.0157    1.3054 H   0  0  0  0  0  0  0  0  0  0  0  0
  1  2  3  0
  2  3  1  0
  3  4  1  0
  4  5  2  0
  4  6  1  0
  6  7  1  0
  6  8  1  0
  8  9  2  0
  1 10  1  0
  3 11  1  0
  3 12  1  0
  6 13  1  0
  7 14  1  0
  8 15  1  0
M  END
