
     RDKit          3D

 21 21  0  0  0  0  0  0  0  0999 V2000
    0.2224    3.2072   -0.3850 C   0  0  0  0  0  0  0  0  0  0  0  0
   -0.3848    2.1936   -0.7102 C   0  0  0  0  0  0  0  0  0  0  0  0
   -1.1237    1.0060   -1.0858 C   0  0  0  0  0  0  0  0  0  0  0  0
   -0.3447    0.0515   -2.0216 C   0  0  0  0  0  0  0  0  0  0  0  0
   -0.6921   -0.3208   -0.5889 C   0  0  0  0  0  0  0  0  0  0  0  0
    0.4488   -0.4698    0.3413 C   0  0  0  0  0  0  0  0  0  0  0  0
    0.2763    0.2192    1.6594 C   0  0  0  0  0  0  0  0  0  0  0  0
    0.8898   -1.8773    0.5862 C   0  0  0  0  0  0  0  0  0  0  0  0
   -0.0939   -2.6758    1.1448 O   0  0  0  0  0  0  0  0  0  0  0  0
    0.7606    4.0870   -0.0954 H   0  0  0  0  0  0  0  0  0  0  0  0
   -2.1657    1.1504   -1.4032 H   0  0  0  0  0  0  0  0  0  0  0  0
   -0.9213   -0.4201   -2.8503 H   0  0  0  0  0  0  0  0  0  0  0  0
    0.6640    0.3542   -2.2951 H   0  0  0  0  0  0  0  0  0  0  0  0
   -1.5012   -1.0685   -0.4762 H   0  0  0  0  0  0  0  0  0  0  0  0
    1.3288    0.0586   -0.1458 H   0  0  0  0  0  0  0  0  0  0  0  0
    1.2507    0.3859    2.1719 H   0  0  0  0  0  0  0  0  0  0  0  0
   -0.3813    1.0852    1.6057 H   0  0  0  0  0  0  0  0  0  0  0  0
   -0.2546   -0.5178    2.3328 H   0  0  0  0  0  0  0  0  0  0  0  0
    1.7812   -1.9049    1.2671 H   0  0  0  0  0  0  0  0  0  0  0  0
    1.1846   -2.3942   -0.3593 H   0  0  0  0  0  0  0  0  0  0  0  0
   -0.9439   -2.1496    1.3075 H   0  0  0  0  0  0  0  0  0  0  0  0
  1  2  3  0
  2  3  1  0
  3  4  1  0
  4  5  1  0
  5  6  1  0
  6  7  1  0
  6  8  1  0
  8  9  1  0
  5  3  1  0
  1 10  1  0
  3 11  1  0
  4 12  1  0
  4 13  1  0
  5 14  1  0
  6 15  1  0
  7 16  1  0
  7 17  1  0
  7 18  1  0
  8 19  1  0
  8 20  1  0
  9 21  1  0
M  END
