
     RDKit          3D

 21 22  0  0  0  0  0  0  0  0999 V2000
    3.5713    0.5670   -0.5599 C   0  0  0  0  0  0  0  0  0  0  0  0
    2.5064    0.0053   -0.7411 C   0  0  0  0  0  0  0  0  0  0  0  0
    1.2160   -0.6466   -0.9606 C   0  0  0  0  0  0  0  0  0  0  0  0
    0.4783   -0.7689    0.3585 C   0  0  0  0  0  0  0  0  0  0  0  0
    0.2888    0.6451    0.8806 C   0  0  0  0  0  0  0  0  0  0  0  0
   -1.0209    1.0963    0.2926 C   0  0  0  0  0  0  0  0  0  0  0  0
   -2.2707    0.7018    1.0379 C   0  0  0  0  0  0  0  0  0  0  0  0
   -1.7951   -0.1023   -0.1111 C   0  0  0  0  0  0  0  0  0  0  0  0
   -0.9119   -1.3096    0.1276 C   0  0  0  0  0  0  0  0  0  0  0  0
    4.5106    1.0437   -0.3933 H   0  0  0  0  0  0  0  0  0  0  0  0
    1.3716   -1.6327   -1.4281 H   0  0  0  0  0  0  0  0  0  0  0  0
    0.5791    0.0186   -1.6104 H   0  0  0  0  0  0  0  0  0  0  0  0
    1.0644   -1.4008    1.0403 H   0  0  0  0  0  0  0  0  0  0  0  0
    1.0887    1.3079    0.4838 H   0  0  0  0  0  0  0  0  0  0  0  0
    0.3149    0.6938    1.9873 H   0  0  0  0  0  0  0  0  0  0  0  0
   -1.0302    1.9448   -0.3986 H   0  0  0  0  0  0  0  0  0  0  0  0
   -2.1726    0.3375    2.0891 H   0  0  0  0  0  0  0  0  0  0  0  0
   -3.1268    1.3795    0.8498 H   0  0  0  0  0  0  0  0  0  0  0  0
   -2.4189   -0.1107   -1.0213 H   0  0  0  0  0  0  0  0  0  0  0  0
   -0.9620   -1.9721   -0.7510 H   0  0  0  0  0  0  0  0  0  0  0  0
   -1.2809   -1.7976    1.0525 H   0  0  0  0  0  0  0  0  0  0  0  0
  1  2  3  0
  2  3  1  0
  3  4  1  0
  4  5  1  0
  5  6  1  0
  6  7  1  0
  7  8  1  0
  8  9  1  0
  9  4  1  0
  8  6  1  0
  1 10  1  0
  3 11  1  0
  3 12  1  0
  4 13  1  0
  5 14  1  0
  5 15  1  0
  6 16  1  0
  7 17  1  0
  7 18  1  0
  8 19  1  0
  9 20  1  0
  9 21  1  0
M  END
