
     RDKit          3D

 19 20  0  0  0  0  0  0  0  0999 V2000
    3.1963   -0.9355    1.1915 C   0  0  0  0  0  0  0  0  0  0  0  0
    2.2214   -0.5813    0.5745 C   0  0  0  0  0  0  0  0  0  0  0  0
    1.0452   -0.1409   -0.1552 C   0  0  0  0  0  0  0  0  0  0  0  0
    0.8500    1.2080    0.1522 O   0  0  0  0  0  0  0  0  0  0  0  0
   -0.3059    1.5987   -0.5482 C   0  0  0  0  0  0  0  0  0  0  0  0
   -1.4441    0.6774   -0.2467 C   0  0  0  0  0  0  0  0  0  0  0  0
   -1.0901   -0.0914    1.0222 C   0  0  0  0  0  0  0  0  0  0  0  0
   -0.1798   -0.9348    0.1268 C   0  0  0  0  0  0  0  0  0  0  0  0
   -1.1842   -0.6368   -0.9943 C   0  0  0  0  0  0  0  0  0  0  0  0
    4.0673   -1.2529    1.7389 H   0  0  0  0  0  0  0  0  0  0  0  0
    1.2093   -0.1704   -1.2710 H   0  0  0  0  0  0  0  0  0  0  0  0
   -0.5782    2.6239   -0.2657 H   0  0  0  0  0  0  0  0  0  0  0  0
   -0.0954    1.5156   -1.6496 H   0  0  0  0  0  0  0  0  0  0  0  0
   -2.4536    1.0600   -0.3098 H   0  0  0  0  0  0  0  0  0  0  0  0
   -1.9463   -0.6274    1.4463 H   0  0  0  0  0  0  0  0  0  0  0  0
   -0.5077    0.5169    1.7480 H   0  0  0  0  0  0  0  0  0  0  0  0
   -0.0824   -1.9762    0.4012 H   0  0  0  0  0  0  0  0  0  0  0  0
   -2.0224   -1.3377   -0.9933 H   0  0  0  0  0  0  0  0  0  0  0  0
   -0.6991   -0.5152   -1.9677 H   0  0  0  0  0  0  0  0  0  0  0  0
  1  2  3  0
  2  3  1  0
  3  4  1  0
  4  5  1  0
  5  6  1  0
  6  7  1  0
  7  8  1  0
  8  9  1  0
  8  3  1  0
  9  6  1  0
  1 10  1  0
  3 11  1  0
  5 12  1  0
  5 13  1  0
  6 14  1  0
  7 15  1  0
  7 16  1  0
  8 17  1  0
  9 18  1  0
  9 19  1  0
M  END
