
     RDKit          3D

 13 14  0  0  0  0  0  0  0  0999 V2000
    3.0859   -0.6163    0.1345 C   0  0  0  0  0  0  0  0  0  0  0  0
    1.9440   -0.2950    0.0673 C   0  0  0  0  0  0  0  0  0  0  0  0
    0.5644    0.0702   -0.0042 C   0  0  0  0  0  0  0  0  0  0  0  0
   -0.0759    0.8927   -0.8245 C   0  0  0  0  0  0  0  0  0  0  0  0
   -1.4789    0.7663   -0.3211 C   0  0  0  0  0  0  0  0  0  0  0  0
   -1.2169    0.8586    1.0717 O   0  0  0  0  0  0  0  0  0  0  0  0
   -0.5807   -0.3935    0.8608 C   0  0  0  0  0  0  0  0  0  0  0  0
   -1.6594   -0.6586   -0.0774 C   0  0  0  0  0  0  0  0  0  0  0  0
   -2.3178   -1.5990   -0.4241 O   0  0  0  0  0  0  0  0  0  0  0  0
    4.1184   -0.9242    0.1867 H   0  0  0  0  0  0  0  0  0  0  0  0
    0.2199    1.5149   -1.6410 H   0  0  0  0  0  0  0  0  0  0  0  0
   -2.2305    1.3792   -0.7254 H   0  0  0  0  0  0  0  0  0  0  0  0
   -0.3724   -0.9953    1.6968 H   0  0  0  0  0  0  0  0  0  0  0  0
  1  2  3  0
  2  3  1  0
  3  4  2  0
  4  5  1  0
  5  6  1  0
  6  7  1  0
  7  8  1  0
  8  9  2  0
  7  3  1  0
  8  5  1  0
  1 10  1  0
  4 11  1  0
  5 12  1  0
  7 13  1  0
M  END
