
     RDKit          3D

 17 16  0  0  0  0  0  0  0  0999 V2000
   -1.8194    2.4992   -0.3942 C   0  0  0  0  0  0  0  0  0  0  0  0
   -1.5603    1.3694   -0.0590 C   0  0  0  0  0  0  0  0  0  0  0  0
   -1.2319   -0.0136    0.3595 C   0  0  0  0  0  0  0  0  0  0  0  0
   -1.9477   -0.9977   -0.5301 C   0  0  0  0  0  0  0  0  0  0  0  0
   -1.5228   -0.2108    1.7095 O   0  0  0  0  0  0  0  0  0  0  0  0
    0.2200   -0.2221    0.1576 C   0  0  0  0  0  0  0  0  0  0  0  0
    1.4046   -0.3998    0.0094 C   0  0  0  0  0  0  0  0  0  0  0  0
    2.8460   -0.6257   -0.1473 C   0  0  0  0  0  0  0  0  0  0  0  0
    3.5763    0.4216    0.4211 O   0  0  0  0  0  0  0  0  0  0  0  0
   -2.0642    3.4957   -0.6835 H   0  0  0  0  0  0  0  0  0  0  0  0
   -1.2544   -1.5862   -1.1570 H   0  0  0  0  0  0  0  0  0  0  0  0
   -2.6448   -0.4883   -1.2181 H   0  0  0  0  0  0  0  0  0  0  0  0
   -2.5100   -1.6902    0.1201 H   0  0  0  0  0  0  0  0  0  0  0  0
   -0.7254   -0.5640    2.1791 H   0  0  0  0  0  0  0  0  0  0  0  0
    3.0283   -0.6205   -1.2590 H   0  0  0  0  0  0  0  0  0  0  0  0
    3.1717   -1.6100    0.2041 H   0  0  0  0  0  0  0  0  0  0  0  0
    3.0339    1.2431    0.2879 H   0  0  0  0  0  0  0  0  0  0  0  0
  1  2  3  0
  2  3  1  0
  3  4  1  0
  3  5  1  0
  3  6  1  0
  6  7  3  0
  7  8  1  0
  8  9  1  0
  1 10  1  0
  4 11  1  0
  4 12  1  0
  4 13  1  0
  5 14  1  0
  8 15  1  0
  8 16  1  0
  9 17  1  0
M  END
