
     RDKit          3D

 15 14  0  0  0  0  0  0  0  0999 V2000
    2.7987   -0.6701    0.1191 C   0  0  0  0  0  0  0  0  0  0  0  0
    1.7596   -0.6889    0.4744 C   0  0  0  0  0  0  0  0  0  0  0  0
    0.3974   -0.7372    0.9308 C   0  0  0  0  0  0  0  0  0  0  0  0
    0.0421   -1.5196    1.8094 O   0  0  0  0  0  0  0  0  0  0  0  0
   -0.6193    0.1980    0.3146 C   0  0  0  0  0  0  0  0  0  0  0  0
   -1.1419   -0.5156   -0.9664 C   0  0  0  0  0  0  0  0  0  0  0  0
   -1.6691    0.4094    1.2259 O   0  0  0  0  0  0  0  0  0  0  0  0
    0.0255    1.4098   -0.1845 C   0  0  0  0  0  0  0  0  0  0  0  0
    1.0312    1.3149   -0.8409 O   0  0  0  0  0  0  0  0  0  0  0  0
    3.9214   -0.6529   -0.2847 H   0  0  0  0  0  0  0  0  0  0  0  0
   -0.2709   -0.9817   -1.3820 H   0  0  0  0  0  0  0  0  0  0  0  0
   -1.5929    0.2803   -1.5815 H   0  0  0  0  0  0  0  0  0  0  0  0
   -1.8889   -1.2371   -0.5664 H   0  0  0  0  0  0  0  0  0  0  0  0
   -2.3591    1.0279    0.8858 H   0  0  0  0  0  0  0  0  0  0  0  0
   -0.4338    2.3626    0.0462 H   0  0  0  0  0  0  0  0  0  0  0  0
  1  2  3  0
  2  3  1  0
  3  4  2  0
  3  5  1  0
  5  6  1  0
  5  7  1  0
  5  8  1  0
  8  9  2  0
  1 10  1  0
  6 11  1  0
  6 12  1  0
  6 13  1  0
  7 14  1  0
  8 15  1  0
M  END
