
     RDKit          3D

 17 17  0  0  0  0  0  0  0  0999 V2000
    2.8383    1.6503    0.7468 C   0  0  0  0  0  0  0  0  0  0  0  0
    2.2007    1.3232    0.2710 C   0  0  0  0  0  0  0  0  0  0  0  0
    0.9095    0.6643   -0.6563 C   0  0  0  0  0  0  0  0  0  0  0  0
    1.1330   -0.8489   -0.5243 O   0  0  0  0  0  0  0  0  0  0  0  0
   -0.1346   -0.8970   -0.9083 C   0  0  0  0  0  0  0  0  0  0  0  0
   -1.1978   -1.7314   -0.3343 C   0  0  0  0  0  0  0  0  0  0  0  0
   -0.2394    0.5717   -0.3406 C   0  0  0  0  0  0  0  0  0  0  0  0
   -0.9148    0.5786    0.8478 C   0  0  0  0  0  0  0  0  0  0  0  0
   -1.4737    0.5996    1.8183 C   0  0  0  0  0  0  0  0  0  0  0  0
    3.8329    2.1689    1.4878 H   0  0  0  0  0  0  0  0  0  0  0  0
    1.4139    0.7378   -1.7715 H   0  0  0  0  0  0  0  0  0  0  0  0
   -0.3227   -0.8828   -2.0769 H   0  0  0  0  0  0  0  0  0  0  0  0
   -1.2150   -2.7464   -0.6839 H   0  0  0  0  0  0  0  0  0  0  0  0
   -1.2970   -1.6527    0.7957 H   0  0  0  0  0  0  0  0  0  0  0  0
   -2.2054   -1.2453   -0.7414 H   0  0  0  0  0  0  0  0  0  0  0  0
   -1.0739    1.0698   -1.1279 H   0  0  0  0  0  0  0  0  0  0  0  0
   -2.2541    0.6403    3.1981 H   0  0  0  0  0  0  0  0  0  0  0  0
  1  2  3  0
  2  3  1  0
  3  4  1  0
  4  5  1  0
  5  6  1  0
  5  7  1  0
  7  8  1  0
  8  9  3  0
  7  3  1  0
  1 10  1  0
  3 11  1  0
  5 12  1  0
  6 13  1  0
  6 14  1  0
  6 15  1  0
  7 16  1  0
  9 17  1  0
M  END
