
     RDKit          3D

 21 21  0  0  0  0  0  0  0  0999 V2000
   -3.5577   -1.3794   -1.1497 C   0  0  0  0  0  0  0  0  0  0  0  0
   -2.2021   -1.0222   -1.0379 C   0  0  0  0  0  0  0  0  0  0  0  0
   -0.9260   -0.6908   -0.9450 C   0  0  0  0  0  0  0  0  0  0  0  0
    0.1491   -1.7201   -1.3936 C   0  0  0  0  0  0  0  0  0  0  0  0
   -0.5089    0.7694   -1.3975 C   0  0  0  0  0  0  0  0  0  0  0  0
   -0.3051    0.2623    0.0576 C   0  0  0  0  0  0  0  0  0  0  0  0
    1.0925    0.1163    0.2317 O   0  0  0  0  0  0  0  0  0  0  0  0
    1.6233    1.0670    1.0480 C   0  0  0  0  0  0  0  0  0  0  0  0
    1.3834    0.8960    2.5326 C   0  0  0  0  0  0  0  0  0  0  0  0
   -4.3410   -1.5824   -1.2004 H   0  0  0  0  0  0  0  0  0  0  0  0
   -0.3708   -2.3360   -2.1383 H   0  0  0  0  0  0  0  0  0  0  0  0
    0.4946   -2.2895   -0.5290 H   0  0  0  0  0  0  0  0  0  0  0  0
    0.9790   -1.1588   -1.8840 H   0  0  0  0  0  0  0  0  0  0  0  0
    0.3791    0.8736   -2.0577 H   0  0  0  0  0  0  0  0  0  0  0  0
   -1.2329    1.5900   -1.4535 H   0  0  0  0  0  0  0  0  0  0  0  0
   -0.8234    0.8113    0.7959 H   0  0  0  0  0  0  0  0  0  0  0  0
    2.7445    1.0858    0.8578 H   0  0  0  0  0  0  0  0  0  0  0  0
    1.2548    2.1205    0.8121 H   0  0  0  0  0  0  0  0  0  0  0  0
    2.4107    0.8468    3.0344 H   0  0  0  0  0  0  0  0  0  0  0  0
    0.8490   -0.0233    2.7907 H   0  0  0  0  0  0  0  0  0  0  0  0
    0.9081    1.7636    3.0080 H   0  0  0  0  0  0  0  0  0  0  0  0
  1  2  3  0
  2  3  1  0
  3  4  1  0
  3  5  1  0
  5  6  1  0
  6  7  1  0
  7  8  1  0
  8  9  1  0
  6  3  1  0
  1 10  1  0
  4 11  1  0
  4 12  1  0
  4 13  1  0
  5 14  1  0
  5 15  1  0
  6 16  1  0
  8 17  1  0
  8 18  1  0
  9 19  1  0
  9 20  1  0
  9 21  1  0
M  END
