
     RDKit          3D

 19 19  0  0  0  0  0  0  0  0999 V2000
    3.5176   -0.9119    0.0198 C   0  0  0  0  0  0  0  0  0  0  0  0
    2.3946   -0.5294    0.2280 C   0  0  0  0  0  0  0  0  0  0  0  0
    1.0062   -0.0697    0.4704 C   0  0  0  0  0  0  0  0  0  0  0  0
    0.1046   -1.2268    0.5007 C   0  0  0  0  0  0  0  0  0  0  0  0
   -1.1929   -1.2754    0.2929 C   0  0  0  0  0  0  0  0  0  0  0  0
   -2.2164   -0.2601   -0.0350 C   0  0  0  0  0  0  0  0  0  0  0  0
   -1.7332    1.1063   -0.1028 C   0  0  0  0  0  0  0  0  0  0  0  0
   -0.5567    1.6633   -0.3448 C   0  0  0  0  0  0  0  0  0  0  0  0
    0.6936    0.9078   -0.6394 C   0  0  0  0  0  0  0  0  0  0  0  0
    4.5210   -1.2342   -0.1661 H   0  0  0  0  0  0  0  0  0  0  0  0
    0.9855    0.5022    1.4241 H   0  0  0  0  0  0  0  0  0  0  0  0
    0.5903   -2.1605    0.7266 H   0  0  0  0  0  0  0  0  0  0  0  0
   -1.6360   -2.2742    0.3748 H   0  0  0  0  0  0  0  0  0  0  0  0
   -2.7007   -0.5892   -0.9824 H   0  0  0  0  0  0  0  0  0  0  0  0
   -3.0017   -0.3334    0.7676 H   0  0  0  0  0  0  0  0  0  0  0  0
   -2.5153    1.8612    0.0893 H   0  0  0  0  0  0  0  0  0  0  0  0
   -0.4954    2.7519   -0.3280 H   0  0  0  0  0  0  0  0  0  0  0  0
    1.5410    1.6456   -0.6504 H   0  0  0  0  0  0  0  0  0  0  0  0
    0.6940    0.4267   -1.6215 H   0  0  0  0  0  0  0  0  0  0  0  0
  1  2  3  0
  2  3  1  0
  3  4  1  0
  4  5  2  0
  5  6  1  0
  6  7  1  0
  7  8  2  0
  8  9  1  0
  9  3  1  0
  1 10  1  0
  3 11  1  0
  4 12  1  0
  5 13  1  0
  6 14  1  0
  6 15  1  0
  7 16  1  0
  8 17  1  0
  9 18  1  0
  9 19  1  0
M  END
