
     RDKit          3D

 23 22  0  0  0  0  0  0  0  0999 V2000
    1.4872    2.3256    0.6062 C   0  0  0  0  0  0  0  0  0  0  0  0
    1.0029    1.3472    0.1097 C   0  0  0  0  0  0  0  0  0  0  0  0
    0.3933    0.1374   -0.4801 C   0  0  0  0  0  0  0  0  0  0  0  0
   -1.0443    0.1319   -0.1096 C   0  0  0  0  0  0  0  0  0  0  0  0
   -1.8353   -1.0169   -0.6144 C   0  0  0  0  0  0  0  0  0  0  0  0
   -1.6726    1.4113   -0.6297 C   0  0  0  0  0  0  0  0  0  0  0  0
    1.1790   -1.0434   -0.0199 C   0  0  0  0  0  0  0  0  0  0  0  0
    1.2119   -1.2251    1.4583 C   0  0  0  0  0  0  0  0  0  0  0  0
    2.5002   -0.8678   -0.4772 O   0  0  0  0  0  0  0  0  0  0  0  0
    1.9358    3.1898    1.0505 H   0  0  0  0  0  0  0  0  0  0  0  0
    0.4689    0.1876   -1.5870 H   0  0  0  0  0  0  0  0  0  0  0  0
   -1.1592    0.1757    1.0095 H   0  0  0  0  0  0  0  0  0  0  0  0
   -1.2275   -1.9431   -0.7014 H   0  0  0  0  0  0  0  0  0  0  0  0
   -2.3942   -0.8003   -1.5566 H   0  0  0  0  0  0  0  0  0  0  0  0
   -2.6419   -1.2823    0.1322 H   0  0  0  0  0  0  0  0  0  0  0  0
   -2.5053    1.7284    0.0322 H   0  0  0  0  0  0  0  0  0  0  0  0
   -2.0493    1.2005   -1.6565 H   0  0  0  0  0  0  0  0  0  0  0  0
   -0.8985    2.1990   -0.7180 H   0  0  0  0  0  0  0  0  0  0  0  0
    0.8062   -1.9489   -0.5444 H   0  0  0  0  0  0  0  0  0  0  0  0
    2.2637   -1.1404    1.8598 H   0  0  0  0  0  0  0  0  0  0  0  0
    0.6152   -0.4999    2.0305 H   0  0  0  0  0  0  0  0  0  0  0  0
    0.9246   -2.2868    1.6820 H   0  0  0  0  0  0  0  0  0  0  0  0
    2.6394    0.0206   -0.8762 H   0  0  0  0  0  0  0  0  0  0  0  0
  1  2  3  0
  2  3  1  0
  3  4  1  0
  4  5  1  0
  4  6  1  0
  3  7  1  0
  7  8  1  0
  7  9  1  0
  1 10  1  0
  3 11  1  0
  4 12  1  0
  5 13  1  0
  5 14  1  0
  5 15  1  0
  6 16  1  0
  6 17  1  0
  6 18  1  0
  7 19  1  0
  8 20  1  0
  8 21  1  0
  8 22  1  0
  9 23  1  0
M  END
