
     RDKit          3D

 19 21  0  0  0  0  0  0  0  0999 V2000
    3.8754    0.3399    0.7559 C   0  0  0  0  0  0  0  0  0  0  0  0
    2.8216   -0.1313    0.3982 C   0  0  0  0  0  0  0  0  0  0  0  0
    1.5256   -0.6827   -0.0361 C   0  0  0  0  0  0  0  0  0  0  0  0
    0.6988    0.4473   -0.6494 C   0  0  0  0  0  0  0  0  0  0  0  0
   -0.6342    0.1283   -1.1525 C   0  0  0  0  0  0  0  0  0  0  0  0
   -1.5102   -0.7629   -0.3305 C   0  0  0  0  0  0  0  0  0  0  0  0
   -2.7581   -0.1507    0.1954 C   0  0  0  0  0  0  0  0  0  0  0  0
   -1.4343    0.1802    0.8109 C   0  0  0  0  0  0  0  0  0  0  0  0
   -0.4400    1.0177    0.0889 C   0  0  0  0  0  0  0  0  0  0  0  0
    4.8005    0.7544    1.0893 H   0  0  0  0  0  0  0  0  0  0  0  0
    1.7408   -1.4730   -0.7677 H   0  0  0  0  0  0  0  0  0  0  0  0
    0.9904   -1.0389    0.8653 H   0  0  0  0  0  0  0  0  0  0  0  0
    1.3003    1.1743   -1.2383 H   0  0  0  0  0  0  0  0  0  0  0  0
   -1.0787    0.6016   -2.0497 H   0  0  0  0  0  0  0  0  0  0  0  0
   -1.2979   -1.8312   -0.2229 H   0  0  0  0  0  0  0  0  0  0  0  0
   -3.4099   -0.7790    0.8260 H   0  0  0  0  0  0  0  0  0  0  0  0
   -3.3008    0.5936   -0.4146 H   0  0  0  0  0  0  0  0  0  0  0  0
   -1.2207   -0.1750    1.8421 H   0  0  0  0  0  0  0  0  0  0  0  0
   -0.6686    2.0897   -0.0103 H   0  0  0  0  0  0  0  0  0  0  0  0
  1  2  3  0
  2  3  1  0
  3  4  1  0
  4  5  1  0
  5  6  1  0
  6  7  1  0
  7  8  1  0
  8  9  1  0
  9  4  1  0
  9  5  1  0
  8  6  1  0
  1 10  1  0
  3 11  1  0
  3 12  1  0
  4 13  1  0
  5 14  1  0
  6 15  1  0
  7 16  1  0
  7 17  1  0
  8 18  1  0
  9 19  1  0
M  END
