
     RDKit          3D

 19 19  0  0  0  0  0  0  0  0999 V2000
    1.9185    1.1678    2.5444 C   0  0  0  0  0  0  0  0  0  0  0  0
    1.7532    0.6794    1.4191 C   0  0  0  0  0  0  0  0  0  0  0  0
    1.5307    0.0981    0.0658 C   0  0  0  0  0  0  0  0  0  0  0  0
    0.5359   -0.9736    0.1232 C   0  0  0  0  0  0  0  0  0  0  0  0
   -0.7294   -0.7078   -0.1922 C   0  0  0  0  0  0  0  0  0  0  0  0
   -1.7088   -1.8209   -0.1214 C   0  0  0  0  0  0  0  0  0  0  0  0
   -1.0338    0.6800   -0.5863 C   0  0  0  0  0  0  0  0  0  0  0  0
    0.1073    1.3635   -1.2748 C   0  0  0  0  0  0  0  0  0  0  0  0
    1.3493    1.0600   -0.8636 O   0  0  0  0  0  0  0  0  0  0  0  0
    2.0706    1.5620    3.4714 H   0  0  0  0  0  0  0  0  0  0  0  0
    2.5297   -0.3907   -0.1471 H   0  0  0  0  0  0  0  0  0  0  0  0
    0.7981   -1.9657    0.4112 H   0  0  0  0  0  0  0  0  0  0  0  0
   -1.1890   -2.7347   -0.4863 H   0  0  0  0  0  0  0  0  0  0  0  0
   -2.0667   -1.9246    0.9123 H   0  0  0  0  0  0  0  0  0  0  0  0
   -2.5805   -1.6667   -0.8190 H   0  0  0  0  0  0  0  0  0  0  0  0
   -1.9352    0.7039   -1.2344 H   0  0  0  0  0  0  0  0  0  0  0  0
   -1.3131    1.2540    0.3276 H   0  0  0  0  0  0  0  0  0  0  0  0
   -0.0547    2.4762   -1.1830 H   0  0  0  0  0  0  0  0  0  0  0  0
    0.0181    1.1399   -2.3668 H   0  0  0  0  0  0  0  0  0  0  0  0
  1  2  3  0
  2  3  1  0
  3  4  1  0
  4  5  2  0
  5  6  1  0
  5  7  1  0
  7  8  1  0
  8  9  1  0
  9  3  1  0
  1 10  1  0
  3 11  1  0
  4 12  1  0
  6 13  1  0
  6 14  1  0
  6 15  1  0
  7 16  1  0
  7 17  1  0
  8 18  1  0
  8 19  1  0
M  END
