
     RDKit          3D

 15 15  0  0  0  0  0  0  0  0999 V2000
    2.0071    1.6585   -0.0434 C   0  0  0  0  0  0  0  0  0  0  0  0
    1.0550    0.9306    0.1109 C   0  0  0  0  0  0  0  0  0  0  0  0
   -0.1127    0.0488    0.2750 C   0  0  0  0  0  0  0  0  0  0  0  0
   -1.2971    0.6783    0.9357 C   0  0  0  0  0  0  0  0  0  0  0  0
    0.1684   -1.3896    0.3343 C   0  0  0  0  0  0  0  0  0  0  0  0
   -0.4712   -0.8580   -0.8940 C   0  0  0  0  0  0  0  0  0  0  0  0
    0.2434   -0.6080   -2.0455 O   0  0  0  0  0  0  0  0  0  0  0  0
    2.8441    2.3120   -0.1948 H   0  0  0  0  0  0  0  0  0  0  0  0
   -2.2493    0.1317    0.7313 H   0  0  0  0  0  0  0  0  0  0  0  0
   -1.4541    1.6912    0.4611 H   0  0  0  0  0  0  0  0  0  0  0  0
   -1.2205    0.7546    2.0338 H   0  0  0  0  0  0  0  0  0  0  0  0
    1.2155   -1.7318    0.2038 H   0  0  0  0  0  0  0  0  0  0  0  0
   -0.4014   -1.9791    1.0501 H   0  0  0  0  0  0  0  0  0  0  0  0
   -1.5233   -1.1544   -1.0392 H   0  0  0  0  0  0  0  0  0  0  0  0
    1.1960   -0.4849   -1.9190 H   0  0  0  0  0  0  0  0  0  0  0  0
  1  2  3  0
  2  3  1  0
  3  4  1  0
  3  5  1  0
  5  6  1  0
  6  7  1  0
  6  3  1  0
  1  8  1  0
  4  9  1  0
  4 10  1  0
  4 11  1  0
  5 12  1  0
  5 13  1  0
  6 14  1  0
  7 15  1  0
M  END
