
     RDKit          3D

 13 13  0  0  0  0  0  0  0  0999 V2000
    2.8914   -0.3732    0.3102 C   0  0  0  0  0  0  0  0  0  0  0  0
    1.7507   -0.4191   -0.0634 C   0  0  0  0  0  0  0  0  0  0  0  0
    0.3631   -0.4813   -0.5142 C   0  0  0  0  0  0  0  0  0  0  0  0
   -0.2240   -1.6903   -0.0662 O   0  0  0  0  0  0  0  0  0  0  0  0
   -1.4235   -1.0116    0.0389 C   0  0  0  0  0  0  0  0  0  0  0  0
   -2.6317   -1.3027   -0.0910 O   0  0  0  0  0  0  0  0  0  0  0  0
   -0.6294    0.2109    0.3737 C   0  0  0  0  0  0  0  0  0  0  0  0
   -1.1421    1.4662   -0.1803 C   0  0  0  0  0  0  0  0  0  0  0  0
   -2.1636    2.0310    0.1674 O   0  0  0  0  0  0  0  0  0  0  0  0
    3.9128   -0.3250    0.6293 H   0  0  0  0  0  0  0  0  0  0  0  0
    0.1893   -0.3243   -1.5809 H   0  0  0  0  0  0  0  0  0  0  0  0
   -0.3204    0.2750    1.4306 H   0  0  0  0  0  0  0  0  0  0  0  0
   -0.5728    1.9445   -0.9685 H   0  0  0  0  0  0  0  0  0  0  0  0
  1  2  3  0
  2  3  1  0
  3  4  1  0
  4  5  1  0
  5  6  2  0
  5  7  1  0
  7  8  1  0
  8  9  2  0
  7  3  1  0
  1 10  1  0
  3 11  1  0
  7 12  1  0
  8 13  1  0
M  END
