
     RDKit          3D

 20 20  0  0  0  0  0  0  0  0999 V2000
    2.4260   -1.2724    1.1715 C   0  0  0  0  0  0  0  0  0  0  0  0
    1.7608   -0.4462    0.5667 C   0  0  0  0  0  0  0  0  0  0  0  0
    0.9618    0.5593   -0.1377 C   0  0  0  0  0  0  0  0  0  0  0  0
    1.5242    1.9783   -0.1593 C   0  0  0  0  0  0  0  0  0  0  0  0
    0.3374    0.0933   -1.4834 C   0  0  0  0  0  0  0  0  0  0  0  0
   -0.4776    0.3183   -0.2696 C   0  0  0  0  0  0  0  0  0  0  0  0
   -1.1305   -0.8704    0.3972 C   0  0  0  0  0  0  0  0  0  0  0  0
   -2.6051   -0.9183    0.1280 C   0  0  0  0  0  0  0  0  0  0  0  0
    3.0181   -1.9790    1.6930 H   0  0  0  0  0  0  0  0  0  0  0  0
    0.7060    2.6374   -0.4625 H   0  0  0  0  0  0  0  0  0  0  0  0
    2.4068    2.0111   -0.8435 H   0  0  0  0  0  0  0  0  0  0  0  0
    1.9136    2.1691    0.8555 H   0  0  0  0  0  0  0  0  0  0  0  0
    0.3567    0.8158   -2.3061 H   0  0  0  0  0  0  0  0  0  0  0  0
    0.5871   -0.9503   -1.7836 H   0  0  0  0  0  0  0  0  0  0  0  0
   -1.1314    1.2205   -0.2919 H   0  0  0  0  0  0  0  0  0  0  0  0
   -0.6214   -1.8136    0.0902 H   0  0  0  0  0  0  0  0  0  0  0  0
   -0.9920   -0.7337    1.5085 H   0  0  0  0  0  0  0  0  0  0  0  0
   -2.8791   -1.7365   -0.5937 H   0  0  0  0  0  0  0  0  0  0  0  0
   -3.2028   -1.1457    1.0452 H   0  0  0  0  0  0  0  0  0  0  0  0
   -2.9586    0.0630   -0.2667 H   0  0  0  0  0  0  0  0  0  0  0  0
  1  2  3  0
  2  3  1  0
  3  4  1  0
  3  5  1  0
  5  6  1  0
  6  7  1  0
  7  8  1  0
  6  3  1  0
  1  9  1  0
  4 10  1  0
  4 11  1  0
  4 12  1  0
  5 13  1  0
  5 14  1  0
  6 15  1  0
  7 16  1  0
  7 17  1  0
  8 18  1  0
  8 19  1  0
  8 20  1  0
M  END
