
     RDKit          3D

 13 13  0  0  0  0  0  0  0  0999 V2000
    4.2943    1.2610    0.3003 C   0  0  0  0  0  0  0  0  0  0  0  0
    2.9044    0.6385    0.1911 C   0  0  0  0  0  0  0  0  0  0  0  0
    1.4608    0.0136    0.0749 C   0  0  0  0  0  0  0  0  0  0  0  0
    0.6032   -0.3671    0.0188 C   0  0  0  0  0  0  0  0  0  0  0  0
   -0.5973   -0.9117   -0.0404 C   0  0  0  0  0  0  0  0  0  0  0  0
   -1.4025   -0.4238    1.1701 O   0  0  0  0  0  0  0  0  0  0  0  0
   -2.1763    0.3624    0.4095 C   0  0  0  0  0  0  0  0  0  0  0  0
   -1.7862   -0.7124   -0.7623 C   0  0  0  0  0  0  0  0  0  0  0  0
   -2.5368   -0.9038   -1.6274 O   0  0  0  0  0  0  0  0  0  0  0  0
    4.8428    1.4988    0.3493 H   0  0  0  0  0  0  0  0  0  0  0  0
   -0.5542   -2.0824    0.2436 H   0  0  0  0  0  0  0  0  0  0  0  0
   -1.7832    1.3587    0.0997 H   0  0  0  0  0  0  0  0  0  0  0  0
   -3.2690    0.2683    0.5571 H   0  0  0  0  0  0  0  0  0  0  0  0
  1  2  3  0
  2  3  1  0
  3  4  3  0
  4  5  1  0
  5  6  1  0
  6  7  1  0
  7  8  1  0
  8  9  2  0
  8  5  1  0
  1 10  1  0
  5 11  1  0
  7 12  1  0
  7 13  1  0
M  END
