
     RDKit          3D

 15 14  0  0  0  0  0  0  0  0999 V2000
   -0.1828    1.9474   -1.9265 C   0  0  0  0  0  0  0  0  0  0  0  0
    0.2093    1.0674   -1.4088 C   0  0  0  0  0  0  0  0  0  0  0  0
    0.7727   -0.1475   -0.6696 C   0  0  0  0  0  0  0  0  0  0  0  0
    2.0230    0.3457   -0.0301 C   0  0  0  0  0  0  0  0  0  0  0  0
    3.0867    0.7798    0.5345 C   0  0  0  0  0  0  0  0  0  0  0  0
   -0.1638   -0.5377    0.3912 C   0  0  0  0  0  0  0  0  0  0  0  0
    0.1333   -0.6005    1.5715 O   0  0  0  0  0  0  0  0  0  0  0  0
   -1.5709   -0.8702   -0.0720 C   0  0  0  0  0  0  0  0  0  0  0  0
   -2.3191   -1.1955    1.0414 O   0  0  0  0  0  0  0  0  0  0  0  0
   -0.5912    2.8243   -2.4581 H   0  0  0  0  0  0  0  0  0  0  0  0
    0.9362   -0.9716   -1.3591 H   0  0  0  0  0  0  0  0  0  0  0  0
    3.8543    1.0786    0.9295 H   0  0  0  0  0  0  0  0  0  0  0  0
   -1.9797    0.0258   -0.6317 H   0  0  0  0  0  0  0  0  0  0  0  0
   -1.4827   -1.6715   -0.8286 H   0  0  0  0  0  0  0  0  0  0  0  0
   -2.7254   -2.0745    0.9726 H   0  0  0  0  0  0  0  0  0  0  0  0
  1  2  3  0
  2  3  1  0
  3  4  1  0
  4  5  3  0
  3  6  1  0
  6  7  2  0
  6  8  1  0
  8  9  1  0
  1 10  1  0
  3 11  1  0
  5 12  1  0
  8 13  1  0
  8 14  1  0
  9 15  1  0
M  END
