
     RDKit          3D

 19 19  0  0  0  0  0  0  0  0999 V2000
   -3.0388   -1.5265   -0.0380 C   0  0  0  0  0  0  0  0  0  0  0  0
   -1.8765   -1.2805   -0.3753 C   0  0  0  0  0  0  0  0  0  0  0  0
   -0.4871   -0.9658   -0.7766 C   0  0  0  0  0  0  0  0  0  0  0  0
    0.2967   -2.2010   -0.9933 C   0  0  0  0  0  0  0  0  0  0  0  0
    0.4859   -2.6066   -2.1206 O   0  0  0  0  0  0  0  0  0  0  0  0
    0.1814   -0.0875    0.2569 C   0  0  0  0  0  0  0  0  0  0  0  0
   -0.5428    1.2426    0.4581 C   0  0  0  0  0  0  0  0  0  0  0  0
    0.8488    1.1740   -0.1101 C   0  0  0  0  0  0  0  0  0  0  0  0
    1.9182    1.7104    0.8171 C   0  0  0  0  0  0  0  0  0  0  0  0
   -4.0222   -1.7285    0.2416 H   0  0  0  0  0  0  0  0  0  0  0  0
   -0.5958   -0.4407   -1.7555 H   0  0  0  0  0  0  0  0  0  0  0  0
    0.7216   -2.7784   -0.1899 H   0  0  0  0  0  0  0  0  0  0  0  0
    0.5531   -0.6010    1.1665 H   0  0  0  0  0  0  0  0  0  0  0  0
   -0.7438    1.5597    1.4807 H   0  0  0  0  0  0  0  0  0  0  0  0
   -1.3176    1.5386   -0.2783 H   0  0  0  0  0  0  0  0  0  0  0  0
    1.0251    1.4647   -1.1668 H   0  0  0  0  0  0  0  0  0  0  0  0
    1.6336    1.6514    1.8980 H   0  0  0  0  0  0  0  0  0  0  0  0
    2.1196    2.7856    0.6206 H   0  0  0  0  0  0  0  0  0  0  0  0
    2.8407    1.0896    0.7292 H   0  0  0  0  0  0  0  0  0  0  0  0
  1  2  3  0
  2  3  1  0
  3  4  1  0
  4  5  2  0
  3  6  1  0
  6  7  1  0
  7  8  1  0
  8  9  1  0
  8  6  1  0
  1 10  1  0
  3 11  1  0
  4 12  1  0
  6 13  1  0
  7 14  1  0
  7 15  1  0
  8 16  1  0
  9 17  1  0
  9 18  1  0
  9 19  1  0
M  END
