
     RDKit          3D

 19 19  0  0  0  0  0  0  0  0999 V2000
   -1.9541   -0.4556    1.9404 C   0  0  0  0  0  0  0  0  0  0  0  0
   -1.2566   -0.2872    0.9708 C   0  0  0  0  0  0  0  0  0  0  0  0
   -0.4057   -0.0904   -0.2036 C   0  0  0  0  0  0  0  0  0  0  0  0
   -1.2646    0.3201   -1.3808 C   0  0  0  0  0  0  0  0  0  0  0  0
    0.3587   -1.3491   -0.5054 C   0  0  0  0  0  0  0  0  0  0  0  0
    1.7012   -1.0835    0.0641 C   0  0  0  0  0  0  0  0  0  0  0  0
    1.8445    0.1893    0.3983 C   0  0  0  0  0  0  0  0  0  0  0  0
    0.6110    0.9497    0.0958 C   0  0  0  0  0  0  0  0  0  0  0  0
    0.2562    1.8449    1.0754 O   0  0  0  0  0  0  0  0  0  0  0  0
   -2.5816   -0.6075    2.8031 H   0  0  0  0  0  0  0  0  0  0  0  0
   -0.6356    0.8360   -2.1339 H   0  0  0  0  0  0  0  0  0  0  0  0
   -1.7796   -0.5634   -1.7655 H   0  0  0  0  0  0  0  0  0  0  0  0
   -2.0228    1.0441   -1.0057 H   0  0  0  0  0  0  0  0  0  0  0  0
   -0.0936   -2.1842    0.0810 H   0  0  0  0  0  0  0  0  0  0  0  0
    0.3752   -1.5482   -1.5827 H   0  0  0  0  0  0  0  0  0  0  0  0
    2.4674   -1.8401    0.1894 H   0  0  0  0  0  0  0  0  0  0  0  0
    2.7280    0.6426    0.8343 H   0  0  0  0  0  0  0  0  0  0  0  0
    0.7829    1.5414   -0.8434 H   0  0  0  0  0  0  0  0  0  0  0  0
    0.8691    2.6411    0.9683 H   0  0  0  0  0  0  0  0  0  0  0  0
  1  2  3  0
  2  3  1  0
  3  4  1  0
  3  5  1  0
  5  6  1  0
  6  7  2  0
  7  8  1  0
  8  9  1  0
  8  3  1  0
  1 10  1  0
  4 11  1  0
  4 12  1  0
  4 13  1  0
  5 14  1  0
  5 15  1  0
  6 16  1  0
  7 17  1  0
  8 18  1  0
  9 19  1  0
M  END
