
     RDKit          3D

 17 17  0  0  0  0  0  0  0  0999 V2000
    2.9303    0.9385   -0.0970 C   0  0  0  0  0  0  0  0  0  0  0  0
    2.0353    0.1311   -0.1216 C   0  0  0  0  0  0  0  0  0  0  0  0
    0.9321   -0.8558   -0.1286 C   0  0  0  0  0  0  0  0  0  0  0  0
    0.2369   -0.7457    1.1966 C   0  0  0  0  0  0  0  0  0  0  0  0
   -0.9802   -0.2344    1.3409 C   0  0  0  0  0  0  0  0  0  0  0  0
   -1.7946    0.2876    0.2077 C   0  0  0  0  0  0  0  0  0  0  0  0
   -0.9372    0.6419   -0.9588 C   0  0  0  0  0  0  0  0  0  0  0  0
   -0.0325   -0.5327   -1.2153 C   0  0  0  0  0  0  0  0  0  0  0  0
   -0.0912   -1.1779   -2.2546 O   0  0  0  0  0  0  0  0  0  0  0  0
    3.7156    1.6668   -0.0777 H   0  0  0  0  0  0  0  0  0  0  0  0
    1.3299   -1.8809   -0.2946 H   0  0  0  0  0  0  0  0  0  0  0  0
    0.7536   -1.1044    2.1022 H   0  0  0  0  0  0  0  0  0  0  0  0
   -1.3999   -0.2002    2.3611 H   0  0  0  0  0  0  0  0  0  0  0  0
   -2.3479    1.1988    0.5768 H   0  0  0  0  0  0  0  0  0  0  0  0
   -2.5608   -0.4502   -0.1035 H   0  0  0  0  0  0  0  0  0  0  0  0
   -1.5303    0.8346   -1.8538 H   0  0  0  0  0  0  0  0  0  0  0  0
   -0.2592    1.4828   -0.6797 H   0  0  0  0  0  0  0  0  0  0  0  0
  1  2  3  0
  2  3  1  0
  3  4  1  0
  4  5  2  0
  5  6  1  0
  6  7  1  0
  7  8  1  0
  8  9  2  0
  8  3  1  0
  1 10  1  0
  3 11  1  0
  4 12  1  0
  5 13  1  0
  6 14  1  0
  6 15  1  0
  7 16  1  0
  7 17  1  0
M  END
