
     RDKit          3D

 14 13  0  0  0  0  0  0  0  0999 V2000
    2.4479   -0.5822   -0.5272 C   0  0  0  0  0  0  0  0  0  0  0  0
    1.3717   -0.0890   -0.2471 C   0  0  0  0  0  0  0  0  0  0  0  0
    0.0673    0.4885    0.1086 C   0  0  0  0  0  0  0  0  0  0  0  0
    0.0831    1.8706   -0.3852 C   0  0  0  0  0  0  0  0  0  0  0  0
    0.0873    3.0074   -0.7970 C   0  0  0  0  0  0  0  0  0  0  0  0
   -1.0030   -0.2997   -0.5425 C   0  0  0  0  0  0  0  0  0  0  0  0
   -1.1373   -1.7376   -0.2332 C   0  0  0  0  0  0  0  0  0  0  0  0
   -1.7715    0.2267   -1.3290 O   0  0  0  0  0  0  0  0  0  0  0  0
    3.3956   -1.0166   -0.7561 H   0  0  0  0  0  0  0  0  0  0  0  0
   -0.0805    0.5260    1.2079 H   0  0  0  0  0  0  0  0  0  0  0  0
    0.0945    4.0084   -1.1792 H   0  0  0  0  0  0  0  0  0  0  0  0
   -0.5775   -2.3596   -0.9658 H   0  0  0  0  0  0  0  0  0  0  0  0
   -2.2114   -2.0304   -0.3579 H   0  0  0  0  0  0  0  0  0  0  0  0
   -0.7663   -2.0125    0.7670 H   0  0  0  0  0  0  0  0  0  0  0  0
  1  2  3  0
  2  3  1  0
  3  4  1  0
  4  5  3  0
  3  6  1  0
  6  7  1  0
  6  8  2  0
  1  9  1  0
  3 10  1  0
  5 11  1  0
  7 12  1  0
  7 13  1  0
  7 14  1  0
M  END
