
     RDKit          3D

 21 21  0  0  0  0  0  0  0  0999 V2000
   -2.7241    1.0252    0.8358 C   0  0  0  0  0  0  0  0  0  0  0  0
   -1.7079    0.4204    0.5191 C   0  0  0  0  0  0  0  0  0  0  0  0
   -0.4956   -0.3174    0.1597 C   0  0  0  0  0  0  0  0  0  0  0  0
   -0.3080   -1.5856    0.9331 C   0  0  0  0  0  0  0  0  0  0  0  0
   -0.4433   -0.4707   -1.3530 C   0  0  0  0  0  0  0  0  0  0  0  0
    0.2758    0.8648   -1.3765 C   0  0  0  0  0  0  0  0  0  0  0  0
    0.6802    0.5937    0.0597 C   0  0  0  0  0  0  0  0  0  0  0  0
    2.0376   -0.0498    0.1140 C   0  0  0  0  0  0  0  0  0  0  0  0
    0.6060    1.7765    0.7919 O   0  0  0  0  0  0  0  0  0  0  0  0
   -3.5942    1.5626    1.1141 H   0  0  0  0  0  0  0  0  0  0  0  0
   -1.2966   -2.0259    1.1744 H   0  0  0  0  0  0  0  0  0  0  0  0
    0.3077   -2.3182    0.3814 H   0  0  0  0  0  0  0  0  0  0  0  0
    0.1761   -1.3824    1.9250 H   0  0  0  0  0  0  0  0  0  0  0  0
    0.1589   -1.3257   -1.7065 H   0  0  0  0  0  0  0  0  0  0  0  0
   -1.4510   -0.4681   -1.8143 H   0  0  0  0  0  0  0  0  0  0  0  0
    1.1376    0.9050   -2.0775 H   0  0  0  0  0  0  0  0  0  0  0  0
   -0.4726    1.6747   -1.5063 H   0  0  0  0  0  0  0  0  0  0  0  0
    2.1443   -0.7665    0.9414 H   0  0  0  0  0  0  0  0  0  0  0  0
    2.7949    0.7702    0.1658 H   0  0  0  0  0  0  0  0  0  0  0  0
    2.1982   -0.6008   -0.8276 H   0  0  0  0  0  0  0  0  0  0  0  0
   -0.0238    1.7180    1.5463 H   0  0  0  0  0  0  0  0  0  0  0  0
  1  2  3  0
  2  3  1  0
  3  4  1  0
  3  5  1  0
  5  6  1  0
  6  7  1  0
  7  8  1  0
  7  9  1  0
  7  3  1  0
  1 10  1  0
  4 11  1  0
  4 12  1  0
  4 13  1  0
  5 14  1  0
  5 15  1  0
  6 16  1  0
  6 17  1  0
  8 18  1  0
  8 19  1  0
  8 20  1  0
  9 21  1  0
M  END
