
     RDKit          3D

 21 20  0  0  0  0  0  0  0  0999 V2000
    1.9918    1.4722    2.8957 C   0  0  0  0  0  0  0  0  0  0  0  0
    1.7612    0.3681    2.4159 C   0  0  0  0  0  0  0  0  0  0  0  0
    1.5039   -0.9359    1.8598 C   0  0  0  0  0  0  0  0  0  0  0  0
    0.2855   -0.8618    0.9874 C   0  0  0  0  0  0  0  0  0  0  0  0
    0.0689   -2.1406    0.4671 O   0  0  0  0  0  0  0  0  0  0  0  0
    0.4024    0.1209   -0.1366 C   0  0  0  0  0  0  0  0  0  0  0  0
   -0.8940    0.0804   -0.9196 C   0  0  0  0  0  0  0  0  0  0  0  0
   -0.8637    0.9706   -1.9861 O   0  0  0  0  0  0  0  0  0  0  0  0
   -2.0180    0.9697   -2.7269 C   0  0  0  0  0  0  0  0  0  0  0  0
    2.1895    2.4333    3.2938 H   0  0  0  0  0  0  0  0  0  0  0  0
    1.3086   -1.7163    2.6272 H   0  0  0  0  0  0  0  0  0  0  0  0
    2.3813   -1.2638    1.2909 H   0  0  0  0  0  0  0  0  0  0  0  0
   -0.6343   -0.6056    1.5542 H   0  0  0  0  0  0  0  0  0  0  0  0
    0.7686   -2.2856   -0.2087 H   0  0  0  0  0  0  0  0  0  0  0  0
    0.4633    1.1372    0.3091 H   0  0  0  0  0  0  0  0  0  0  0  0
    1.2180   -0.0583   -0.8319 H   0  0  0  0  0  0  0  0  0  0  0  0
   -1.7773    0.3391   -0.2746 H   0  0  0  0  0  0  0  0  0  0  0  0
   -1.1164   -0.9248   -1.3252 H   0  0  0  0  0  0  0  0  0  0  0  0
   -2.8686    1.2579   -2.0542 H   0  0  0  0  0  0  0  0  0  0  0  0
   -1.9093    1.6961   -3.5510 H   0  0  0  0  0  0  0  0  0  0  0  0
   -2.2613   -0.0528   -3.1064 H   0  0  0  0  0  0  0  0  0  0  0  0
  1  2  3  0
  2  3  1  0
  3  4  1  0
  4  5  1  0
  4  6  1  0
  6  7  1  0
  7  8  1  0
  8  9  1  0
  1 10  1  0
  3 11  1  0
  3 12  1  0
  4 13  1  0
  5 14  1  0
  6 15  1  0
  6 16  1  0
  7 17  1  0
  7 18  1  0
  9 19  1  0
  9 20  1  0
  9 21  1  0
M  END
