
     RDKit          3D

 19 19  0  0  0  0  0  0  0  0999 V2000
   -0.9678   -2.8472   -1.1937 C   0  0  0  0  0  0  0  0  0  0  0  0
   -0.6843   -1.7004   -0.8720 C   0  0  0  0  0  0  0  0  0  0  0  0
   -0.3690   -0.3258   -0.4794 C   0  0  0  0  0  0  0  0  0  0  0  0
   -0.7827    0.5255   -1.4975 O   0  0  0  0  0  0  0  0  0  0  0  0
   -1.6684    1.4938   -1.0562 C   0  0  0  0  0  0  0  0  0  0  0  0
    1.1387   -0.1811   -0.3657 C   0  0  0  0  0  0  0  0  0  0  0  0
    1.4446    1.2328   -0.0432 O   0  0  0  0  0  0  0  0  0  0  0  0
    1.7613    0.2426    0.8873 C   0  0  0  0  0  0  0  0  0  0  0  0
    0.9833    0.2136    2.1931 C   0  0  0  0  0  0  0  0  0  0  0  0
   -1.2244   -3.8411   -1.4576 H   0  0  0  0  0  0  0  0  0  0  0  0
   -0.8174   -0.0829    0.5029 H   0  0  0  0  0  0  0  0  0  0  0  0
   -2.5525    0.9898   -0.6426 H   0  0  0  0  0  0  0  0  0  0  0  0
   -2.0262    2.0313   -1.9758 H   0  0  0  0  0  0  0  0  0  0  0  0
   -1.2000    2.2275   -0.3809 H   0  0  0  0  0  0  0  0  0  0  0  0
    1.7688   -0.5472   -1.1761 H   0  0  0  0  0  0  0  0  0  0  0  0
    2.8399    0.0184    1.0088 H   0  0  0  0  0  0  0  0  0  0  0  0
    0.4551   -0.7580    2.3093 H   0  0  0  0  0  0  0  0  0  0  0  0
    1.6590    0.2997    3.0686 H   0  0  0  0  0  0  0  0  0  0  0  0
    0.2422    1.0088    2.2502 H   0  0  0  0  0  0  0  0  0  0  0  0
  1  2  3  0
  2  3  1  0
  3  4  1  0
  4  5  1  0
  3  6  1  0
  6  7  1  0
  7  8  1  0
  8  9  1  0
  8  6  1  0
  1 10  1  0
  3 11  1  0
  5 12  1  0
  5 13  1  0
  5 14  1  0
  6 15  1  0
  8 16  1  0
  9 17  1  0
  9 18  1  0
  9 19  1  0
M  END
