
     RDKit          3D

 21 21  0  0  0  0  0  0  0  0999 V2000
   -1.1824    2.4097   -0.2283 C   0  0  0  0  0  0  0  0  0  0  0  0
   -0.9349    1.2829    0.0676 C   0  0  0  0  0  0  0  0  0  0  0  0
   -0.6248   -0.0955    0.4531 C   0  0  0  0  0  0  0  0  0  0  0  0
   -0.5843   -0.9036   -0.7942 C   0  0  0  0  0  0  0  0  0  0  0  0
   -1.7734   -1.6401   -1.3148 C   0  0  0  0  0  0  0  0  0  0  0  0
    0.6349   -0.8400   -1.3102 C   0  0  0  0  0  0  0  0  0  0  0  0
    1.5141    0.0194   -0.4458 C   0  0  0  0  0  0  0  0  0  0  0  0
    0.8138   -0.1981    0.9038 C   0  0  0  0  0  0  0  0  0  0  0  0
    1.1956    0.8641    1.8901 C   0  0  0  0  0  0  0  0  0  0  0  0
   -1.3919    3.4298   -0.5075 H   0  0  0  0  0  0  0  0  0  0  0  0
   -1.3373   -0.4942    1.1960 H   0  0  0  0  0  0  0  0  0  0  0  0
   -2.4622   -0.8908   -1.7547 H   0  0  0  0  0  0  0  0  0  0  0  0
   -1.4929   -2.4442   -1.9933 H   0  0  0  0  0  0  0  0  0  0  0  0
   -2.2964   -2.1270   -0.4416 H   0  0  0  0  0  0  0  0  0  0  0  0
    0.9073   -1.3550   -2.2295 H   0  0  0  0  0  0  0  0  0  0  0  0
    1.3963    1.0968   -0.6831 H   0  0  0  0  0  0  0  0  0  0  0  0
    2.5444   -0.3270   -0.4074 H   0  0  0  0  0  0  0  0  0  0  0  0
    1.0310   -1.1904    1.2947 H   0  0  0  0  0  0  0  0  0  0  0  0
    1.4716    1.7722    1.3062 H   0  0  0  0  0  0  0  0  0  0  0  0
    0.4217    1.1023    2.6213 H   0  0  0  0  0  0  0  0  0  0  0  0
    2.1498    0.5286    2.3775 H   0  0  0  0  0  0  0  0  0  0  0  0
  1  2  3  0
  2  3  1  0
  3  4  1  0
  4  5  1  0
  4  6  2  0
  6  7  1  0
  7  8  1  0
  8  9  1  0
  8  3  1  0
  1 10  1  0
  3 11  1  0
  5 12  1  0
  5 13  1  0
  5 14  1  0
  6 15  1  0
  7 16  1  0
  7 17  1  0
  8 18  1  0
  9 19  1  0
  9 20  1  0
  9 21  1  0
M  END
