
     RDKit          3D

 17 19  0  0  0  0  0  0  0  0999 V2000
    1.6807    2.5759    0.2881 C   0  0  0  0  0  0  0  0  0  0  0  0
    0.9279    1.5820    0.0175 C   0  0  0  0  0  0  0  0  0  0  0  0
    0.1321    0.5620   -0.2617 C   0  0  0  0  0  0  0  0  0  0  0  0
   -1.2279    0.7002   -0.6224 C   0  0  0  0  0  0  0  0  0  0  0  0
   -1.6576   -0.5240   -1.0192 C   0  0  0  0  0  0  0  0  0  0  0  0
   -0.4789   -1.4966   -0.8665 C   0  0  0  0  0  0  0  0  0  0  0  0
   -0.0613   -1.4652    0.5561 C   0  0  0  0  0  0  0  0  0  0  0  0
   -0.0116   -0.1506    1.2832 C   0  0  0  0  0  0  0  0  0  0  0  0
    0.7361   -0.7442   -0.4925 C   0  0  0  0  0  0  0  0  0  0  0  0
    2.4635    3.5738    0.5643 H   0  0  0  0  0  0  0  0  0  0  0  0
   -1.8731    1.6357   -0.4152 H   0  0  0  0  0  0  0  0  0  0  0  0
   -2.5818   -0.7578   -1.4823 H   0  0  0  0  0  0  0  0  0  0  0  0
   -0.4349   -2.3418   -1.5235 H   0  0  0  0  0  0  0  0  0  0  0  0
    0.4174   -2.3463    1.0565 H   0  0  0  0  0  0  0  0  0  0  0  0
    1.0178    0.0150    1.7182 H   0  0  0  0  0  0  0  0  0  0  0  0
   -0.8688    0.1539    1.8015 H   0  0  0  0  0  0  0  0  0  0  0  0
    1.8203   -0.9721   -0.3881 H   0  0  0  0  0  0  0  0  0  0  0  0
  1  2  3  0
  2  3  1  0
  3  4  1  0
  4  5  2  0
  5  6  1  0
  6  7  1  0
  7  8  1  0
  7  9  1  0
  8  3  1  0
  9  3  1  0
  9  6  1  0
  1 10  1  0
  4 11  1  0
  5 12  1  0
  6 13  1  0
  7 14  1  0
  8 15  1  0
  8 16  1  0
  9 17  1  0
M  END
