
     RDKit          3D

 21 22  0  0  0  0  0  0  0  0999 V2000
   -2.3554   -1.3850   -1.6469 C   0  0  0  0  0  0  0  0  0  0  0  0
   -1.3731   -1.0447   -1.0215 C   0  0  0  0  0  0  0  0  0  0  0  0
   -0.2153   -0.6184   -0.2794 C   0  0  0  0  0  0  0  0  0  0  0  0
    0.8934   -1.6094   -0.1286 C   0  0  0  0  0  0  0  0  0  0  0  0
    1.9005   -0.5272   -0.4535 C   0  0  0  0  0  0  0  0  0  0  0  0
    0.7273    0.3833   -0.7737 C   0  0  0  0  0  0  0  0  0  0  0  0
   -0.1435    0.7026    0.3820 C   0  0  0  0  0  0  0  0  0  0  0  0
    0.3910    0.7102    1.7917 C   0  0  0  0  0  0  0  0  0  0  0  0
   -1.2493    1.6812    0.1220 C   0  0  0  0  0  0  0  0  0  0  0  0
   -3.2090   -1.6651   -2.1753 H   0  0  0  0  0  0  0  0  0  0  0  0
    0.9482   -2.4010   -0.8896 H   0  0  0  0  0  0  0  0  0  0  0  0
    0.9938   -2.0581    0.8839 H   0  0  0  0  0  0  0  0  0  0  0  0
    2.4322   -0.2468    0.4931 H   0  0  0  0  0  0  0  0  0  0  0  0
    2.5759   -0.7347   -1.2961 H   0  0  0  0  0  0  0  0  0  0  0  0
    0.6569    0.8776   -1.7407 H   0  0  0  0  0  0  0  0  0  0  0  0
    0.6439   -0.3078    2.1559 H   0  0  0  0  0  0  0  0  0  0  0  0
   -0.3825    1.1023    2.4681 H   0  0  0  0  0  0  0  0  0  0  0  0
    1.3218    1.3453    1.8274 H   0  0  0  0  0  0  0  0  0  0  0  0
   -0.9230    2.7062    0.4355 H   0  0  0  0  0  0  0  0  0  0  0  0
   -1.5088    1.6375   -0.9415 H   0  0  0  0  0  0  0  0  0  0  0  0
   -2.1249    1.4521    0.7872 H   0  0  0  0  0  0  0  0  0  0  0  0
  1  2  3  0
  2  3  1  0
  3  4  1  0
  4  5  1  0
  5  6  1  0
  6  7  1  0
  7  8  1  0
  7  9  1  0
  6  3  1  0
  7  3  1  0
  1 10  1  0
  4 11  1  0
  4 12  1  0
  5 13  1  0
  5 14  1  0
  6 15  1  0
  8 16  1  0
  8 17  1  0
  8 18  1  0
  9 19  1  0
  9 20  1  0
  9 21  1  0
M  END
