
     RDKit          3D

 19 20  0  0  0  0  0  0  0  0999 V2000
   -1.6890    0.3798    2.4667 C   0  0  0  0  0  0  0  0  0  0  0  0
   -1.3657    0.2025    1.3140 C   0  0  0  0  0  0  0  0  0  0  0  0
   -0.9736   -0.0126   -0.0858 C   0  0  0  0  0  0  0  0  0  0  0  0
    0.4766   -0.1160   -0.3935 C   0  0  0  0  0  0  0  0  0  0  0  0
    1.1659    1.1395    0.0103 O   0  0  0  0  0  0  0  0  0  0  0  0
    1.5452   -0.2108    0.5304 C   0  0  0  0  0  0  0  0  0  0  0  0
    2.9316   -0.5270    0.0185 C   0  0  0  0  0  0  0  0  0  0  0  0
   -1.7536    0.8783   -1.0592 C   0  0  0  0  0  0  0  0  0  0  0  0
   -1.9922   -0.5966   -1.0106 C   0  0  0  0  0  0  0  0  0  0  0  0
   -1.9614    0.5209    3.4789 H   0  0  0  0  0  0  0  0  0  0  0  0
    0.6940   -0.3076   -1.4816 H   0  0  0  0  0  0  0  0  0  0  0  0
    1.4645   -0.1797    1.6122 H   0  0  0  0  0  0  0  0  0  0  0  0
    2.8770   -0.7843   -1.0748 H   0  0  0  0  0  0  0  0  0  0  0  0
    3.3372   -1.4086    0.5590 H   0  0  0  0  0  0  0  0  0  0  0  0
    3.5490    0.3824    0.1877 H   0  0  0  0  0  0  0  0  0  0  0  0
   -1.2334    1.2260   -1.9760 H   0  0  0  0  0  0  0  0  0  0  0  0
   -2.4706    1.5993   -0.6623 H   0  0  0  0  0  0  0  0  0  0  0  0
   -1.6249   -1.2436   -1.8290 H   0  0  0  0  0  0  0  0  0  0  0  0
   -2.9766   -0.9419   -0.6048 H   0  0  0  0  0  0  0  0  0  0  0  0
  1  2  3  0
  2  3  1  0
  3  4  1  0
  4  5  1  0
  5  6  1  0
  6  7  1  0
  3  8  1  0
  8  9  1  0
  9  3  1  0
  6  4  1  0
  1 10  1  0
  4 11  1  0
  6 12  1  0
  7 13  1  0
  7 14  1  0
  7 15  1  0
  8 16  1  0
  8 17  1  0
  9 18  1  0
  9 19  1  0
M  END
