
     RDKit          3D

 19 20  0  0  0  0  0  0  0  0999 V2000
    3.4994    0.2674   -0.7254 C   0  0  0  0  0  0  0  0  0  0  0  0
    2.3203    0.0987   -0.5569 C   0  0  0  0  0  0  0  0  0  0  0  0
    0.9451   -0.0994   -0.3423 C   0  0  0  0  0  0  0  0  0  0  0  0
    0.4488   -1.5045   -0.0576 C   0  0  0  0  0  0  0  0  0  0  0  0
   -1.0476   -1.1399    0.0728 C   0  0  0  0  0  0  0  0  0  0  0  0
   -0.8955    0.3457   -0.2051 C   0  0  0  0  0  0  0  0  0  0  0  0
   -2.0753    1.1907   -0.1911 C   0  0  0  0  0  0  0  0  0  0  0  0
    0.2551    0.7041    0.7440 C   0  0  0  0  0  0  0  0  0  0  0  0
    0.0339    0.4644   -1.2309 O   0  0  0  0  0  0  0  0  0  0  0  0
    4.5497    0.4150   -0.8568 H   0  0  0  0  0  0  0  0  0  0  0  0
    0.8553   -1.8160    0.9055 H   0  0  0  0  0  0  0  0  0  0  0  0
    0.6219   -2.1913   -0.8881 H   0  0  0  0  0  0  0  0  0  0  0  0
   -1.6310   -1.6443   -0.6978 H   0  0  0  0  0  0  0  0  0  0  0  0
   -1.3811   -1.3304    1.0971 H   0  0  0  0  0  0  0  0  0  0  0  0
   -1.8169    2.1838    0.2774 H   0  0  0  0  0  0  0  0  0  0  0  0
   -2.4152    1.3935   -1.2429 H   0  0  0  0  0  0  0  0  0  0  0  0
   -2.9114    0.6936    0.3328 H   0  0  0  0  0  0  0  0  0  0  0  0
    0.4997    1.7732    0.7620 H   0  0  0  0  0  0  0  0  0  0  0  0
    0.1448    0.1959    1.7098 H   0  0  0  0  0  0  0  0  0  0  0  0
  1  2  3  0
  2  3  1  0
  3  4  1  0
  4  5  1  0
  5  6  1  0
  6  7  1  0
  6  8  1  0
  6  9  1  0
  8  3  1  0
  9  3  1  0
  1 10  1  0
  4 11  1  0
  4 12  1  0
  5 13  1  0
  5 14  1  0
  7 15  1  0
  7 16  1  0
  7 17  1  0
  8 18  1  0
  8 19  1  0
M  END
