
     RDKit          3D

 19 19  0  0  0  0  0  0  0  0999 V2000
   -0.0027    2.5554   -0.7549 C   0  0  0  0  0  0  0  0  0  0  0  0
    0.1922    1.3431   -0.6145 C   0  0  0  0  0  0  0  0  0  0  0  0
    0.4349   -0.0928   -0.4697 C   0  0  0  0  0  0  0  0  0  0  0  0
    0.5922   -0.9089   -1.7548 C   0  0  0  0  0  0  0  0  0  0  0  0
   -0.5818   -0.7964   -2.5058 O   0  0  0  0  0  0  0  0  0  0  0  0
   -0.5007   -0.7176    0.5468 C   0  0  0  0  0  0  0  0  0  0  0  0
   -1.3029    0.1640    1.4498 C   0  0  0  0  0  0  0  0  0  0  0  0
    1.0068   -0.6293    0.7539 C   0  0  0  0  0  0  0  0  0  0  0  0
    1.4014    0.2456    1.8028 O   0  0  0  0  0  0  0  0  0  0  0  0
   -0.1841    3.5732   -0.8678 H   0  0  0  0  0  0  0  0  0  0  0  0
    1.4977   -0.6234   -2.3171 H   0  0  0  0  0  0  0  0  0  0  0  0
    0.7080   -1.9632   -1.4381 H   0  0  0  0  0  0  0  0  0  0  0  0
   -0.7104    0.1601   -2.7093 H   0  0  0  0  0  0  0  0  0  0  0  0
   -0.9486   -1.6653    0.2491 H   0  0  0  0  0  0  0  0  0  0  0  0
   -0.6219    0.6248    2.2260 H   0  0  0  0  0  0  0  0  0  0  0  0
   -1.7904    0.9745    0.8662 H   0  0  0  0  0  0  0  0  0  0  0  0
   -2.0346   -0.4008    2.0426 H   0  0  0  0  0  0  0  0  0  0  0  0
    1.4951   -1.6070    0.8500 H   0  0  0  0  0  0  0  0  0  0  0  0
    1.3497   -0.2361    2.6447 H   0  0  0  0  0  0  0  0  0  0  0  0
  1  2  3  0
  2  3  1  0
  3  4  1  0
  4  5  1  0
  3  6  1  0
  6  7  1  0
  6  8  1  0
  8  9  1  0
  8  3  1  0
  1 10  1  0
  4 11  1  0
  4 12  1  0
  5 13  1  0
  6 14  1  0
  7 15  1  0
  7 16  1  0
  7 17  1  0
  8 18  1  0
  9 19  1  0
M  END
