
     RDKit          3D

 17 16  0  0  0  0  0  0  0  0999 V2000
    3.4525   -1.3161    3.0432 C   0  0  0  0  0  0  0  0  0  0  0  0
    2.6247   -0.8904    2.3622 C   0  0  0  0  0  0  0  0  0  0  0  0
    1.7390   -0.4492    1.6582 C   0  0  0  0  0  0  0  0  0  0  0  0
    0.5371    0.1587    0.7216 C   0  0  0  0  0  0  0  0  0  0  0  0
   -0.2432    0.5736    0.1131 C   0  0  0  0  0  0  0  0  0  0  0  0
   -0.6445    0.1411   -1.3107 C   0  0  0  0  0  0  0  0  0  0  0  0
   -1.9158    1.2314   -1.3170 C   0  0  0  0  0  0  0  0  0  0  0  0
   -1.0960   -1.0567   -1.0719 C   0  0  0  0  0  0  0  0  0  0  0  0
   -1.4568   -2.0014   -0.8808 C   0  0  0  0  0  0  0  0  0  0  0  0
    4.2973   -1.7577    3.7529 H   0  0  0  0  0  0  0  0  0  0  0  0
    1.1116    1.0733   -0.8558 H   0  0  0  0  0  0  0  0  0  0  0  0
   -0.0963    1.9338   -0.0857 H   0  0  0  0  0  0  0  0  0  0  0  0
   -0.0937    0.4268   -2.1367 H   0  0  0  0  0  0  0  0  0  0  0  0
   -1.4434    2.2244   -1.1281 H   0  0  0  0  0  0  0  0  0  0  0  0
   -2.5798    1.1266   -2.0592 H   0  0  0  0  0  0  0  0  0  0  0  0
   -2.2290    0.9654   -0.2018 H   0  0  0  0  0  0  0  0  0  0  0  0
   -1.9637   -3.3490   -0.6036 H   0  0  0  0  0  0  0  0  0  0  0  0
  1  2  3  0
  2  3  1  0
  3  4  3  0
  4  5  1  0
  5  6  1  0
  6  7  1  0
  6  8  1  0
  8  9  3  0
  1 10  1  0
  5 11  1  0
  5 12  1  0
  6 13  1  0
  7 14  1  0
  7 15  1  0
  7 16  1  0
  9 17  1  0
M  END
