
     RDKit          3D

 17 16  0  0  0  0  0  0  0  0999 V2000
   -2.4493   -1.3373   -0.2118 C   0  0  0  0  0  0  0  0  0  0  0  0
   -1.8357   -0.3093   -0.6440 C   0  0  0  0  0  0  0  0  0  0  0  0
   -1.1371    0.8659   -1.1137 C   0  0  0  0  0  0  0  0  0  0  0  0
   -0.8997    1.7064    0.2137 C   0  0  0  0  0  0  0  0  0  0  0  0
    0.2277    0.5503   -1.5721 C   0  0  0  0  0  0  0  0  0  0  0  0
    0.7133    0.7824   -2.6295 O   0  0  0  0  0  0  0  0  0  0  0  0
    0.9976   -0.1639   -0.4433 C   0  0  0  0  0  0  0  0  0  0  0  0
    1.6013   -0.7142    0.4063 C   0  0  0  0  0  0  0  0  0  0  0  0
    2.3631   -1.3894    1.4846 C   0  0  0  0  0  0  0  0  0  0  0  0
   -2.9772   -2.2070    0.1739 H   0  0  0  0  0  0  0  0  0  0  0  0
   -1.7130    1.4531   -1.7748 H   0  0  0  0  0  0  0  0  0  0  0  0
   -0.5692    0.9697    0.9899 H   0  0  0  0  0  0  0  0  0  0  0  0
   -1.8745    2.1557    0.4273 H   0  0  0  0  0  0  0  0  0  0  0  0
   -0.0914    2.3996   -0.0539 H   0  0  0  0  0  0  0  0  0  0  0  0
    2.1874   -2.5033    1.4126 H   0  0  0  0  0  0  0  0  0  0  0  0
    3.4500   -1.2106    1.2957 H   0  0  0  0  0  0  0  0  0  0  0  0
    2.0066   -1.0481    2.4464 H   0  0  0  0  0  0  0  0  0  0  0  0
  1  2  3  0
  2  3  1  0
  3  4  1  0
  3  5  1  0
  5  6  2  0
  5  7  1  0
  7  8  3  0
  8  9  1  0
  1 10  1  0
  3 11  1  0
  4 12  1  0
  4 13  1  0
  4 14  1  0
  9 15  1  0
  9 16  1  0
  9 17  1  0
M  END
