
     RDKit          3D

 17 17  0  0  0  0  0  0  0  0999 V2000
    2.2289    1.4770    0.2918 C   0  0  0  0  0  0  0  0  0  0  0  0
    1.3334    0.6766    0.2159 C   0  0  0  0  0  0  0  0  0  0  0  0
    0.2456   -0.2946    0.1001 C   0  0  0  0  0  0  0  0  0  0  0  0
   -0.4663   -0.4385    1.4455 C   0  0  0  0  0  0  0  0  0  0  0  0
    0.7704   -1.5897   -0.3379 C   0  0  0  0  0  0  0  0  0  0  0  0
    1.2120   -2.6496   -0.7125 C   0  0  0  0  0  0  0  0  0  0  0  0
   -0.8037    0.1660   -0.8851 C   0  0  0  0  0  0  0  0  0  0  0  0
   -1.5262    1.4188   -0.6768 C   0  0  0  0  0  0  0  0  0  0  0  0
   -0.5519    1.2684   -1.6836 O   0  0  0  0  0  0  0  0  0  0  0  0
    3.0041    2.1759    0.3417 H   0  0  0  0  0  0  0  0  0  0  0  0
    0.2388   -0.7689    2.2323 H   0  0  0  0  0  0  0  0  0  0  0  0
   -1.2354   -1.2355    1.3146 H   0  0  0  0  0  0  0  0  0  0  0  0
   -0.9393    0.5300    1.6876 H   0  0  0  0  0  0  0  0  0  0  0  0
    1.6112   -3.5822   -1.0576 H   0  0  0  0  0  0  0  0  0  0  0  0
   -1.3284   -0.6763   -1.3951 H   0  0  0  0  0  0  0  0  0  0  0  0
   -2.5960    1.4394   -1.0154 H   0  0  0  0  0  0  0  0  0  0  0  0
   -1.1973    2.0829    0.1346 H   0  0  0  0  0  0  0  0  0  0  0  0
  1  2  3  0
  2  3  1  0
  3  4  1  0
  3  5  1  0
  5  6  3  0
  3  7  1  0
  7  8  1  0
  8  9  1  0
  9  7  1  0
  1 10  1  0
  4 11  1  0
  4 12  1  0
  4 13  1  0
  6 14  1  0
  7 15  1  0
  8 16  1  0
  8 17  1  0
M  END
