
     RDKit          3D

 19 19  0  0  0  0  0  0  0  0999 V2000
   -2.1139   -1.4004    1.4214 C   0  0  0  0  0  0  0  0  0  0  0  0
   -1.5189   -0.5684    0.7675 C   0  0  0  0  0  0  0  0  0  0  0  0
   -0.7846    0.4407   -0.0027 C   0  0  0  0  0  0  0  0  0  0  0  0
   -1.4466    0.5882   -1.3574 C   0  0  0  0  0  0  0  0  0  0  0  0
    0.6729    0.0357   -0.1620 C   0  0  0  0  0  0  0  0  0  0  0  0
    1.4598   -0.1428    1.1188 C   0  0  0  0  0  0  0  0  0  0  0  0
    1.3825    1.0540    1.8121 O   0  0  0  0  0  0  0  0  0  0  0  0
    1.3085    0.0196   -1.4638 C   0  0  0  0  0  0  0  0  0  0  0  0
    0.7171   -1.2212   -0.9561 O   0  0  0  0  0  0  0  0  0  0  0  0
   -2.6376   -2.1234    2.0012 H   0  0  0  0  0  0  0  0  0  0  0  0
   -0.8260    1.3745    0.5551 H   0  0  0  0  0  0  0  0  0  0  0  0
   -1.4202   -0.3394   -1.9396 H   0  0  0  0  0  0  0  0  0  0  0  0
   -1.0000    1.4083   -1.9410 H   0  0  0  0  0  0  0  0  0  0  0  0
   -2.5260    0.8373   -1.1359 H   0  0  0  0  0  0  0  0  0  0  0  0
    1.0426   -0.9971    1.6723 H   0  0  0  0  0  0  0  0  0  0  0  0
    2.5290   -0.3156    0.8355 H   0  0  0  0  0  0  0  0  0  0  0  0
    1.9910    0.9773    2.5941 H   0  0  0  0  0  0  0  0  0  0  0  0
    2.4030   -0.0902   -1.4990 H   0  0  0  0  0  0  0  0  0  0  0  0
    0.7674    0.4628   -2.3205 H   0  0  0  0  0  0  0  0  0  0  0  0
  1  2  3  0
  2  3  1  0
  3  4  1  0
  3  5  1  0
  5  6  1  0
  6  7  1  0
  5  8  1  0
  8  9  1  0
  9  5  1  0
  1 10  1  0
  3 11  1  0
  4 12  1  0
  4 13  1  0
  4 14  1  0
  6 15  1  0
  6 16  1  0
  7 17  1  0
  8 18  1  0
  8 19  1  0
M  END
