
     RDKit          3D

 15 15  0  0  0  0  0  0  0  0999 V2000
    3.3135    0.3612    2.7230 C   0  0  0  0  0  0  0  0  0  0  0  0
    2.3130    0.3481    1.9724 C   0  0  0  0  0  0  0  0  0  0  0  0
    1.4951    0.3290    1.3739 C   0  0  0  0  0  0  0  0  0  0  0  0
    0.3271    0.2835    0.5406 C   0  0  0  0  0  0  0  0  0  0  0  0
   -0.7974    0.2218   -0.2492 C   0  0  0  0  0  0  0  0  0  0  0  0
   -1.8582    0.7641   -0.4318 C   0  0  0  0  0  0  0  0  0  0  0  0
   -2.9190    1.2991   -0.6010 C   0  0  0  0  0  0  0  0  0  0  0  0
   -0.0674   -0.4125   -1.6308 C   0  0  0  0  0  0  0  0  0  0  0  0
   -0.6953   -1.3514   -0.6450 C   0  0  0  0  0  0  0  0  0  0  0  0
    4.1561    0.3705    3.3784 H   0  0  0  0  0  0  0  0  0  0  0  0
   -3.9960    1.8366   -0.7863 H   0  0  0  0  0  0  0  0  0  0  0  0
   -0.5738   -0.3347   -2.5597 H   0  0  0  0  0  0  0  0  0  0  0  0
    0.9526   -0.0383   -1.6406 H   0  0  0  0  0  0  0  0  0  0  0  0
   -1.6709   -1.7776   -0.9038 H   0  0  0  0  0  0  0  0  0  0  0  0
    0.0206   -1.8995    0.0114 H   0  0  0  0  0  0  0  0  0  0  0  0
  1  2  3  0
  2  3  1  0
  3  4  3  0
  4  5  1  0
  5  6  1  0
  6  7  3  0
  5  8  1  0
  8  9  1  0
  9  5  1  0
  1 10  1  0
  7 11  1  0
  8 12  1  0
  8 13  1  0
  9 14  1  0
  9 15  1  0
M  END
