
     RDKit          3D

 15 17  0  0  0  0  0  0  0  0999 V2000
    2.0664    0.4598    2.3606 C   0  0  0  0  0  0  0  0  0  0  0  0
    1.4510    0.1321    1.3750 C   0  0  0  0  0  0  0  0  0  0  0  0
    0.7243   -0.2821    0.1795 C   0  0  0  0  0  0  0  0  0  0  0  0
    0.0392    0.8906   -0.4620 C   0  0  0  0  0  0  0  0  0  0  0  0
   -0.9509    0.7429    0.5371 O   0  0  0  0  0  0  0  0  0  0  0  0
   -0.6961   -0.6452    0.4186 C   0  0  0  0  0  0  0  0  0  0  0  0
   -1.2636   -0.9240   -0.9502 C   0  0  0  0  0  0  0  0  0  0  0  0
   -0.4424   -0.9649   -2.0547 O   0  0  0  0  0  0  0  0  0  0  0  0
   -0.6866    0.3205   -1.6583 C   0  0  0  0  0  0  0  0  0  0  0  0
    2.6004    0.7507    3.2510 H   0  0  0  0  0  0  0  0  0  0  0  0
    1.3100   -0.9250   -0.4978 H   0  0  0  0  0  0  0  0  0  0  0  0
    0.5318    1.8255   -0.5394 H   0  0  0  0  0  0  0  0  0  0  0  0
   -0.9783   -1.2655    1.2405 H   0  0  0  0  0  0  0  0  0  0  0  0
   -2.3420   -1.1094   -1.0306 H   0  0  0  0  0  0  0  0  0  0  0  0
   -1.3633    0.9941   -2.1693 H   0  0  0  0  0  0  0  0  0  0  0  0
  1  2  3  0
  2  3  1  0
  3  4  1  0
  4  5  1  0
  5  6  1  0
  6  7  1  0
  7  8  1  0
  8  9  1  0
  6  3  1  0
  9  7  1  0
  9  4  1  0
  1 10  1  0
  3 11  1  0
  4 12  1  0
  6 13  1  0
  7 14  1  0
  9 15  1  0
M  END
