
     RDKit          3D

 12 11  0  0  0  0  0  0  0  0999 V2000
    2.5738   -0.5193   -0.2991 C   0  0  0  0  0  0  0  0  0  0  0  0
    1.4217   -0.3037    0.0016 C   0  0  0  0  0  0  0  0  0  0  0  0
    0.0125   -0.0254    0.3511 C   0  0  0  0  0  0  0  0  0  0  0  0
   -0.1370   -0.0208    1.7397 O   0  0  0  0  0  0  0  0  0  0  0  0
   -0.3672    1.2620   -0.2316 C   0  0  0  0  0  0  0  0  0  0  0  0
   -0.6958    2.3427   -0.7046 C   0  0  0  0  0  0  0  0  0  0  0  0
   -0.8127   -1.0898   -0.2675 C   0  0  0  0  0  0  0  0  0  0  0  0
   -1.5001   -1.9472   -0.7658 C   0  0  0  0  0  0  0  0  0  0  0  0
    3.5875   -0.6994   -0.5486 H   0  0  0  0  0  0  0  0  0  0  0  0
   -0.9881    0.4232    1.9784 H   0  0  0  0  0  0  0  0  0  0  0  0
   -0.9935    3.2780   -1.1012 H   0  0  0  0  0  0  0  0  0  0  0  0
   -2.1010   -2.7002   -1.2037 H   0  0  0  0  0  0  0  0  0  0  0  0
  1  2  3  0
  2  3  1  0
  3  4  1  0
  3  5  1  0
  5  6  3  0
  3  7  1  0
  7  8  3  0
  1  9  1  0
  4 10  1  0
  6 11  1  0
  8 12  1  0
M  END
