
     RDKit          3D

 16 16  0  0  0  0  0  0  0  0999 V2000
   -2.6338    0.8636    1.5996 C   0  0  0  0  0  0  0  0  0  0  0  0
   -1.0991    0.0969    1.2515 C   0  0  0  0  0  0  0  0  0  0  0  0
   -0.1480   -0.3701    1.0542 C   0  0  0  0  0  0  0  0  0  0  0  0
    0.0276   -1.6951    0.2551 C   0  0  0  0  0  0  0  0  0  0  0  0
    1.1844   -1.0618   -0.4379 C   0  0  0  0  0  0  0  0  0  0  0  0
    0.4752    0.2682   -0.4248 C   0  0  0  0  0  0  0  0  0  0  0  0
    0.6310    1.2542   -0.4552 C   0  0  0  0  0  0  0  0  0  0  0  0
    0.8460    2.5703   -0.5180 C   0  0  0  0  0  0  0  0  0  0  0  0
   -3.4354    1.2536    1.7681 H   0  0  0  0  0  0  0  0  0  0  0  0
    0.8876   -0.0995    1.6345 H   0  0  0  0  0  0  0  0  0  0  0  0
    0.3183   -2.4767    1.0223 H   0  0  0  0  0  0  0  0  0  0  0  0
   -0.8707   -1.9151   -0.2856 H   0  0  0  0  0  0  0  0  0  0  0  0
    1.2411   -1.4958   -1.5005 H   0  0  0  0  0  0  0  0  0  0  0  0
    2.1251   -1.0787    0.1216 H   0  0  0  0  0  0  0  0  0  0  0  0
   -0.6332   -0.1311   -1.0325 H   0  0  0  0  0  0  0  0  0  0  0  0
    1.0838    4.0169   -0.6056 H   0  0  0  0  0  0  0  0  0  0  0  0
  1  2  3  0
  2  3  1  0
  3  4  1  0
  4  5  1  0
  5  6  1  0
  6  7  1  0
  7  8  3  0
  6  3  1  0
  1  9  1  0
  3 10  1  0
  4 11  1  0
  4 12  1  0
  5 13  1  0
  5 14  1  0
  6 15  1  0
  8 16  1  0
M  END
