
     RDKit          3D

 21 21  0  0  0  0  0  0  0  0999 V2000
   -1.9008    2.3375   -0.2266 C   0  0  0  0  0  0  0  0  0  0  0  0
   -1.0554    1.5641   -0.6183 C   0  0  0  0  0  0  0  0  0  0  0  0
   -0.0511    0.6160   -1.1048 C   0  0  0  0  0  0  0  0  0  0  0  0
    1.0657    0.2184   -0.2371 C   0  0  0  0  0  0  0  0  0  0  0  0
    1.2154    0.9639    1.0568 C   0  0  0  0  0  0  0  0  0  0  0  0
    2.3125    0.5006    1.8027 O   0  0  0  0  0  0  0  0  0  0  0  0
   -0.0112   -0.7564   -0.4162 C   0  0  0  0  0  0  0  0  0  0  0  0
   -1.0245   -0.9261    0.6927 C   0  0  0  0  0  0  0  0  0  0  0  0
    0.0475   -1.8897   -1.3841 C   0  0  0  0  0  0  0  0  0  0  0  0
   -2.6592    3.0251    0.1041 H   0  0  0  0  0  0  0  0  0  0  0  0
    0.1644    0.6673   -2.1912 H   0  0  0  0  0  0  0  0  0  0  0  0
    2.0602   -0.0540   -0.6952 H   0  0  0  0  0  0  0  0  0  0  0  0
    0.2832    0.9955    1.6522 H   0  0  0  0  0  0  0  0  0  0  0  0
    1.4326    2.0371    0.7787 H   0  0  0  0  0  0  0  0  0  0  0  0
    1.9284    0.1831    2.6700 H   0  0  0  0  0  0  0  0  0  0  0  0
   -1.7406   -0.0856    0.7499 H   0  0  0  0  0  0  0  0  0  0  0  0
   -1.5838   -1.8668    0.5929 H   0  0  0  0  0  0  0  0  0  0  0  0
   -0.4972   -0.9338    1.6780 H   0  0  0  0  0  0  0  0  0  0  0  0
    0.3250   -2.8630   -0.8929 H   0  0  0  0  0  0  0  0  0  0  0  0
   -1.0110   -2.0479   -1.7468 H   0  0  0  0  0  0  0  0  0  0  0  0
    0.6999   -1.6851   -2.2649 H   0  0  0  0  0  0  0  0  0  0  0  0
  1  2  3  0
  2  3  1  0
  3  4  1  0
  4  5  1  0
  5  6  1  0
  4  7  1  0
  7  8  1  0
  7  9  1  0
  7  3  1  0
  1 10  1  0
  3 11  1  0
  4 12  1  0
  5 13  1  0
  5 14  1  0
  6 15  1  0
  8 16  1  0
  8 17  1  0
  8 18  1  0
  9 19  1  0
  9 20  1  0
  9 21  1  0
M  END
