
     RDKit          3D

 17 17  0  0  0  0  0  0  0  0999 V2000
    2.4548    1.5171   -0.2352 C   0  0  0  0  0  0  0  0  0  0  0  0
    1.4382    1.0363    0.2254 C   0  0  0  0  0  0  0  0  0  0  0  0
    0.2260    0.4527    0.8015 C   0  0  0  0  0  0  0  0  0  0  0  0
    0.4653   -0.9630    1.2108 C   0  0  0  0  0  0  0  0  0  0  0  0
    0.0366   -1.7078   -0.0622 C   0  0  0  0  0  0  0  0  0  0  0  0
   -0.9737   -0.8260   -0.6453 C   0  0  0  0  0  0  0  0  0  0  0  0
   -0.8794    0.3886   -0.1696 C   0  0  0  0  0  0  0  0  0  0  0  0
   -1.7775    1.4872   -0.5847 C   0  0  0  0  0  0  0  0  0  0  0  0
   -2.6782    1.2834   -1.4252 O   0  0  0  0  0  0  0  0  0  0  0  0
    3.3487    1.9340   -0.6201 H   0  0  0  0  0  0  0  0  0  0  0  0
   -0.0391    1.0213    1.7173 H   0  0  0  0  0  0  0  0  0  0  0  0
   -0.1977   -1.2433    2.0522 H   0  0  0  0  0  0  0  0  0  0  0  0
    1.5130   -1.1963    1.4559 H   0  0  0  0  0  0  0  0  0  0  0  0
    0.8840   -1.8135   -0.7457 H   0  0  0  0  0  0  0  0  0  0  0  0
   -0.4458   -2.6668    0.2205 H   0  0  0  0  0  0  0  0  0  0  0  0
   -1.7022   -1.1815   -1.3877 H   0  0  0  0  0  0  0  0  0  0  0  0
   -1.6729    2.4775   -0.1730 H   0  0  0  0  0  0  0  0  0  0  0  0
  1  2  3  0
  2  3  1  0
  3  4  1  0
  4  5  1  0
  5  6  1  0
  6  7  2  0
  7  8  1  0
  8  9  2  0
  7  3  1  0
  1 10  1  0
  3 11  1  0
  4 12  1  0
  4 13  1  0
  5 14  1  0
  5 15  1  0
  6 16  1  0
  8 17  1  0
M  END
