
     RDKit          3D

 17 17  0  0  0  0  0  0  0  0999 V2000
    2.7711    0.7839    1.0298 C   0  0  0  0  0  0  0  0  0  0  0  0
    1.8955    0.7145    0.2084 C   0  0  0  0  0  0  0  0  0  0  0  0
    0.8182    0.6128   -0.8045 C   0  0  0  0  0  0  0  0  0  0  0  0
   -0.3589   -0.0705   -0.2006 C   0  0  0  0  0  0  0  0  0  0  0  0
   -0.9463    0.6000    0.9582 C   0  0  0  0  0  0  0  0  0  0  0  0
   -1.4497    1.1732    1.9163 C   0  0  0  0  0  0  0  0  0  0  0  0
   -1.3280   -0.4796   -1.2726 C   0  0  0  0  0  0  0  0  0  0  0  0
   -0.7779   -1.7458   -1.2798 O   0  0  0  0  0  0  0  0  0  0  0  0
   -0.2930   -1.5455   -0.0003 C   0  0  0  0  0  0  0  0  0  0  0  0
    3.5689    0.8620    1.7641 H   0  0  0  0  0  0  0  0  0  0  0  0
    0.5872    1.5763   -1.2680 H   0  0  0  0  0  0  0  0  0  0  0  0
    1.2099   -0.0459   -1.6361 H   0  0  0  0  0  0  0  0  0  0  0  0
   -1.8742    1.6787    2.7272 H   0  0  0  0  0  0  0  0  0  0  0  0
   -1.2063    0.0638   -2.2428 H   0  0  0  0  0  0  0  0  0  0  0  0
   -2.3686   -0.4240   -0.8621 H   0  0  0  0  0  0  0  0  0  0  0  0
   -0.9929   -1.8755    0.8147 H   0  0  0  0  0  0  0  0  0  0  0  0
    0.7450   -1.8785    0.1482 H   0  0  0  0  0  0  0  0  0  0  0  0
  1  2  3  0
  2  3  1  0
  3  4  1  0
  4  5  1  0
  5  6  3  0
  4  7  1  0
  7  8  1  0
  8  9  1  0
  9  4  1  0
  1 10  1  0
  3 11  1  0
  3 12  1  0
  6 13  1  0
  7 14  1  0
  7 15  1  0
  9 16  1  0
  9 17  1  0
M  END
