
     RDKit          3D

 19 18  0  0  0  0  0  0  0  0999 V2000
   -0.2676   -1.1428   -4.0498 C   0  0  0  0  0  0  0  0  0  0  0  0
   -0.6305   -1.3182   -2.8298 C   0  0  0  0  0  0  0  0  0  0  0  0
   -1.0540   -1.4980   -1.4730 C   0  0  0  0  0  0  0  0  0  0  0  0
   -0.1701   -0.6854   -0.5264 C   0  0  0  0  0  0  0  0  0  0  0  0
   -0.5721   -0.8126    0.7642 O   0  0  0  0  0  0  0  0  0  0  0  0
    0.1280   -0.1945    1.7423 C   0  0  0  0  0  0  0  0  0  0  0  0
    0.2279    1.2703    1.6878 C   0  0  0  0  0  0  0  0  0  0  0  0
    0.9680    2.0546    2.7427 C   0  0  0  0  0  0  0  0  0  0  0  0
   -0.2741    1.9041    0.8068 O   0  0  0  0  0  0  0  0  0  0  0  0
   -0.0153   -1.0086   -4.9540 H   0  0  0  0  0  0  0  0  0  0  0  0
   -2.0939   -1.1262   -1.3144 H   0  0  0  0  0  0  0  0  0  0  0  0
   -0.9637   -2.5720   -1.2011 H   0  0  0  0  0  0  0  0  0  0  0  0
    0.9024   -0.9527   -0.6792 H   0  0  0  0  0  0  0  0  0  0  0  0
   -0.2900    0.3582   -0.8722 H   0  0  0  0  0  0  0  0  0  0  0  0
   -0.4161   -0.4006    2.7244 H   0  0  0  0  0  0  0  0  0  0  0  0
    1.1378   -0.6699    1.9426 H   0  0  0  0  0  0  0  0  0  0  0  0
    1.5134    1.3852    3.4471 H   0  0  0  0  0  0  0  0  0  0  0  0
    1.6378    2.7533    2.2246 H   0  0  0  0  0  0  0  0  0  0  0  0
    0.2319    2.6559    3.3156 H   0  0  0  0  0  0  0  0  0  0  0  0
  1  2  3  0
  2  3  1  0
  3  4  1  0
  4  5  1  0
  5  6  1  0
  6  7  1  0
  7  8  1  0
  7  9  2  0
  1 10  1  0
  3 11  1  0
  3 12  1  0
  4 13  1  0
  4 14  1  0
  6 15  1  0
  6 16  1  0
  8 17  1  0
  8 18  1  0
  8 19  1  0
M  END
