
     RDKit          3D

 18 18  0  0  0  0  0  0  0  0999 V2000
    2.5795    2.6395   -1.1267 C   0  0  0  0  0  0  0  0  0  0  0  0
    1.8887    1.7274   -0.7446 C   0  0  0  0  0  0  0  0  0  0  0  0
    1.0548    0.6303   -0.2797 C   0  0  0  0  0  0  0  0  0  0  0  0
    1.4113   -0.6312   -0.1651 C   0  0  0  0  0  0  0  0  0  0  0  0
    0.2517   -1.4440    0.3515 C   0  0  0  0  0  0  0  0  0  0  0  0
   -0.8977   -0.5841   -0.1938 C   0  0  0  0  0  0  0  0  0  0  0  0
   -2.1915   -0.8780    0.5102 C   0  0  0  0  0  0  0  0  0  0  0  0
   -0.3531    0.7846    0.1491 C   0  0  0  0  0  0  0  0  0  0  0  0
    3.2029    3.4337   -1.4572 H   0  0  0  0  0  0  0  0  0  0  0  0
    2.3671   -1.0786   -0.3888 H   0  0  0  0  0  0  0  0  0  0  0  0
    0.1862   -1.3810    1.4559 H   0  0  0  0  0  0  0  0  0  0  0  0
    0.2373   -2.4529   -0.0535 H   0  0  0  0  0  0  0  0  0  0  0  0
   -0.9627   -0.6465   -1.2943 H   0  0  0  0  0  0  0  0  0  0  0  0
   -1.9811   -1.1593    1.5587 H   0  0  0  0  0  0  0  0  0  0  0  0
   -2.8291   -1.5960   -0.0274 H   0  0  0  0  0  0  0  0  0  0  0  0
   -2.7576    0.0994    0.5402 H   0  0  0  0  0  0  0  0  0  0  0  0
   -0.3318    0.9361    1.2549 H   0  0  0  0  0  0  0  0  0  0  0  0
   -0.8749    1.6007   -0.3809 H   0  0  0  0  0  0  0  0  0  0  0  0
  1  2  3  0
  2  3  1  0
  3  4  2  0
  4  5  1  0
  5  6  1  0
  6  7  1  0
  6  8  1  0
  8  3  1  0
  1  9  1  0
  4 10  1  0
  5 11  1  0
  5 12  1  0
  6 13  1  0
  7 14  1  0
  7 15  1  0
  7 16  1  0
  8 17  1  0
  8 18  1  0
M  END
