
     RDKit          3D

 14 14  0  0  0  0  0  0  0  0999 V2000
    3.2895    0.3883    0.4201 C   0  0  0  0  0  0  0  0  0  0  0  0
    2.1112    0.1931    0.2395 C   0  0  0  0  0  0  0  0  0  0  0  0
    0.6885   -0.0224    0.0346 C   0  0  0  0  0  0  0  0  0  0  0  0
    0.0495   -0.1674   -1.1129 C   0  0  0  0  0  0  0  0  0  0  0  0
   -1.4058   -0.3685   -0.8992 C   0  0  0  0  0  0  0  0  0  0  0  0
   -1.5909    0.2615    0.4733 C   0  0  0  0  0  0  0  0  0  0  0  0
   -0.3062   -0.1172    1.1217 C   0  0  0  0  0  0  0  0  0  0  0  0
   -0.0637   -0.4470    2.3017 O   0  0  0  0  0  0  0  0  0  0  0  0
    4.3304    0.5511    0.5824 H   0  0  0  0  0  0  0  0  0  0  0  0
    0.5417   -0.1397   -2.0703 H   0  0  0  0  0  0  0  0  0  0  0  0
   -2.0352    0.0765   -1.6682 H   0  0  0  0  0  0  0  0  0  0  0  0
   -1.5605   -1.4668   -0.7832 H   0  0  0  0  0  0  0  0  0  0  0  0
   -1.5851    1.3748    0.3554 H   0  0  0  0  0  0  0  0  0  0  0  0
   -2.4634   -0.1164    1.0050 H   0  0  0  0  0  0  0  0  0  0  0  0
  1  2  3  0
  2  3  1  0
  3  4  2  0
  4  5  1  0
  5  6  1  0
  6  7  1  0
  7  8  2  0
  7  3  1  0
  1  9  1  0
  4 10  1  0
  5 11  1  0
  5 12  1  0
  6 13  1  0
  6 14  1  0
M  END
