
     RDKit          3D

 17 17  0  0  0  0  0  0  0  0999 V2000
    2.6333   -1.1148   -0.5922 C   0  0  0  0  0  0  0  0  0  0  0  0
    1.8137   -0.6660    0.1593 C   0  0  0  0  0  0  0  0  0  0  0  0
    0.8246   -0.1246    1.0719 C   0  0  0  0  0  0  0  0  0  0  0  0
    1.2929    1.0188    1.7273 O   0  0  0  0  0  0  0  0  0  0  0  0
   -0.4673    0.2186    0.4087 C   0  0  0  0  0  0  0  0  0  0  0  0
   -1.0819   -0.8819   -0.3732 C   0  0  0  0  0  0  0  0  0  0  0  0
   -1.8317   -0.2126   -1.3408 O   0  0  0  0  0  0  0  0  0  0  0  0
   -1.6316    1.1554   -1.1028 C   0  0  0  0  0  0  0  0  0  0  0  0
   -0.3629    1.2396   -0.5284 O   0  0  0  0  0  0  0  0  0  0  0  0
    3.3603   -1.5257   -1.2449 H   0  0  0  0  0  0  0  0  0  0  0  0
    0.6148   -0.8809    1.8464 H   0  0  0  0  0  0  0  0  0  0  0  0
    2.2583    0.9697    1.8716 H   0  0  0  0  0  0  0  0  0  0  0  0
   -1.1791    0.5551    1.1853 H   0  0  0  0  0  0  0  0  0  0  0  0
   -1.8003   -1.5003    0.2060 H   0  0  0  0  0  0  0  0  0  0  0  0
   -0.3780   -1.5336   -0.9104 H   0  0  0  0  0  0  0  0  0  0  0  0
   -1.7167    1.7397   -2.0345 H   0  0  0  0  0  0  0  0  0  0  0  0
   -2.3486    1.5436   -0.3492 H   0  0  0  0  0  0  0  0  0  0  0  0
  1  2  3  0
  2  3  1  0
  3  4  1  0
  3  5  1  0
  5  6  1  0
  6  7  1  0
  7  8  1  0
  8  9  1  0
  9  5  1  0
  1 10  1  0
  3 11  1  0
  4 12  1  0
  5 13  1  0
  6 14  1  0
  6 15  1  0
  8 16  1  0
  8 17  1  0
M  END
