
     RDKit          3D

 21 21  0  0  0  0  0  0  0  0999 V2000
    2.5394   -2.0642    0.0516 C   0  0  0  0  0  0  0  0  0  0  0  0
    1.6757   -1.2972   -0.3045 C   0  0  0  0  0  0  0  0  0  0  0  0
    0.6388   -0.3531   -0.7171 C   0  0  0  0  0  0  0  0  0  0  0  0
   -0.6377   -0.2495   -0.0254 C   0  0  0  0  0  0  0  0  0  0  0  0
   -1.0712   -1.2540    1.0320 C   0  0  0  0  0  0  0  0  0  0  0  0
   -1.8194    0.2114   -0.8862 C   0  0  0  0  0  0  0  0  0  0  0  0
    0.3352    0.7876    0.3057 C   0  0  0  0  0  0  0  0  0  0  0  0
    0.3423    2.1546   -0.2723 C   0  0  0  0  0  0  0  0  0  0  0  0
    0.9810    0.6585    1.5382 O   0  0  0  0  0  0  0  0  0  0  0  0
    3.2839   -2.7480    0.3711 H   0  0  0  0  0  0  0  0  0  0  0  0
    0.7275   -0.0433   -1.7742 H   0  0  0  0  0  0  0  0  0  0  0  0
   -0.3539   -1.3701    1.8392 H   0  0  0  0  0  0  0  0  0  0  0  0
   -1.3288   -2.2170    0.5143 H   0  0  0  0  0  0  0  0  0  0  0  0
   -2.0162   -0.8750    1.4728 H   0  0  0  0  0  0  0  0  0  0  0  0
   -2.4936    0.8840   -0.3201 H   0  0  0  0  0  0  0  0  0  0  0  0
   -2.3930   -0.6871   -1.1467 H   0  0  0  0  0  0  0  0  0  0  0  0
   -1.4775    0.6949   -1.8152 H   0  0  0  0  0  0  0  0  0  0  0  0
    1.3766    2.5631   -0.1847 H   0  0  0  0  0  0  0  0  0  0  0  0
   -0.3331    2.8468    0.2480 H   0  0  0  0  0  0  0  0  0  0  0  0
    0.1410    2.0974   -1.3742 H   0  0  0  0  0  0  0  0  0  0  0  0
    1.8830    0.2602    1.4478 H   0  0  0  0  0  0  0  0  0  0  0  0
  1  2  3  0
  2  3  1  0
  3  4  1  0
  4  5  1  0
  4  6  1  0
  4  7  1  0
  7  8  1  0
  7  9  1  0
  7  3  1  0
  1 10  1  0
  3 11  1  0
  5 12  1  0
  5 13  1  0
  5 14  1  0
  6 15  1  0
  6 16  1  0
  6 17  1  0
  8 18  1  0
  8 19  1  0
  8 20  1  0
  9 21  1  0
M  END
