
     RDKit          3D

 17 18  0  0  0  0  0  0  0  0999 V2000
    2.4025   -1.6597   -1.2741 C   0  0  0  0  0  0  0  0  0  0  0  0
    1.3265   -1.5773   -0.6894 C   0  0  0  0  0  0  0  0  0  0  0  0
    0.0420   -1.4952    0.0172 C   0  0  0  0  0  0  0  0  0  0  0  0
   -0.8932   -1.0537   -0.9474 O   0  0  0  0  0  0  0  0  0  0  0  0
   -0.4455    0.2540   -1.2575 C   0  0  0  0  0  0  0  0  0  0  0  0
   -0.9955    1.1306   -0.1794 C   0  0  0  0  0  0  0  0  0  0  0  0
   -0.2018    1.7733    0.8653 C   0  0  0  0  0  0  0  0  0  0  0  0
   -0.7484    0.3849    1.1500 C   0  0  0  0  0  0  0  0  0  0  0  0
    0.1817   -0.6068    1.0450 O   0  0  0  0  0  0  0  0  0  0  0  0
    3.3232   -1.7306   -1.7943 H   0  0  0  0  0  0  0  0  0  0  0  0
   -0.2714   -2.4739    0.4002 H   0  0  0  0  0  0  0  0  0  0  0  0
   -0.8831    0.4939   -2.2609 H   0  0  0  0  0  0  0  0  0  0  0  0
    0.6628    0.2428   -1.2921 H   0  0  0  0  0  0  0  0  0  0  0  0
   -2.0270    1.4879   -0.3764 H   0  0  0  0  0  0  0  0  0  0  0  0
   -0.7081    2.6386    1.3843 H   0  0  0  0  0  0  0  0  0  0  0  0
    0.8892    1.9005    0.8484 H   0  0  0  0  0  0  0  0  0  0  0  0
   -1.6539    0.2905    1.7702 H   0  0  0  0  0  0  0  0  0  0  0  0
  1  2  3  0
  2  3  1  0
  3  4  1  0
  4  5  1  0
  5  6  1  0
  6  7  1  0
  7  8  1  0
  8  9  1  0
  9  3  1  0
  8  6  1  0
  1 10  1  0
  3 11  1  0
  5 12  1  0
  5 13  1  0
  6 14  1  0
  7 15  1  0
  7 16  1  0
  8 17  1  0
M  END
