
     RDKit          3D

 19 19  0  0  0  0  0  0  0  0999 V2000
    2.2816    0.5189   -0.6255 C   0  0  0  0  0  0  0  0  0  0  0  0
    1.3985    0.0917   -0.9637 C   0  0  0  0  0  0  0  0  0  0  0  0
    0.1586   -0.4885   -1.4552 C   0  0  0  0  0  0  0  0  0  0  0  0
    0.0364    1.0918   -2.3078 O   0  0  0  0  0  0  0  0  0  0  0  0
   -1.0909    0.0281   -0.8088 C   0  0  0  0  0  0  0  0  0  0  0  0
   -1.4206    0.8897    0.2173 O   0  0  0  0  0  0  0  0  0  0  0  0
   -1.4942   -0.5553    0.5035 C   0  0  0  0  0  0  0  0  0  0  0  0
   -0.4931   -0.8217    1.6545 C   0  0  0  0  0  0  0  0  0  0  0  0
    0.1245    0.3754    2.2422 C   0  0  0  0  0  0  0  0  0  0  0  0
    3.5912    1.1298   -0.1455 H   0  0  0  0  0  0  0  0  0  0  0  0
    0.1743   -0.9304   -2.3880 H   0  0  0  0  0  0  0  0  0  0  0  0
    0.6364    0.8389   -3.0168 H   0  0  0  0  0  0  0  0  0  0  0  0
   -2.0279    0.1812   -1.5334 H   0  0  0  0  0  0  0  0  0  0  0  0
   -2.1122   -1.3756    0.2951 H   0  0  0  0  0  0  0  0  0  0  0  0
   -1.1071   -1.3772    2.4355 H   0  0  0  0  0  0  0  0  0  0  0  0
    0.2856   -1.5797    1.2935 H   0  0  0  0  0  0  0  0  0  0  0  0
    1.2512    0.1790    2.3775 H   0  0  0  0  0  0  0  0  0  0  0  0
    0.0762    1.3459    1.7837 H   0  0  0  0  0  0  0  0  0  0  0  0
   -0.2687    0.4582    3.3180 H   0  0  0  0  0  0  0  0  0  0  0  0
  1  2  3  0
  2  3  1  0
  3  4  1  0
  3  5  1  0
  5  6  1  0
  6  7  1  0
  7  8  1  0
  8  9  1  0
  7  5  1  0
  1 10  1  0
  3 11  1  0
  4 12  1  0
  5 13  1  0
  7 14  1  0
  8 15  1  0
  8 16  1  0
  9 17  1  0
  9 18  1  0
  9 19  1  0
M  END
