
     RDKit          3D

 16 15  0  0  0  0  0  0  0  0999 V2000
    1.3600   -0.3850    3.1456 C   0  0  0  0  0  0  0  0  0  0  0  0
    0.7930   -0.3377    1.9066 C   0  0  0  0  0  0  0  0  0  0  0  0
    0.3031   -0.3061    0.7959 C   0  0  0  0  0  0  0  0  0  0  0  0
   -0.2727   -0.2268   -0.4959 C   0  0  0  0  0  0  0  0  0  0  0  0
   -1.7348    0.2782   -0.5299 C   0  0  0  0  0  0  0  0  0  0  0  0
    0.4996    0.0632   -1.7262 C   0  0  0  0  0  0  0  0  0  0  0  0
    1.8435   -0.4048    4.1998 H   0  0  0  0  0  0  0  0  0  0  0  0
    1.5675   -0.0576    0.1887 H   0  0  0  0  0  0  0  0  0  0  0  0
    0.3831    1.1467    0.8516 H   0  0  0  0  0  0  0  0  0  0  0  0
   -0.5264   -1.4152   -0.7213 H   0  0  0  0  0  0  0  0  0  0  0  0
   -2.4349   -0.5536   -0.7521 H   0  0  0  0  0  0  0  0  0  0  0  0
   -1.8411    1.0831   -1.2504 H   0  0  0  0  0  0  0  0  0  0  0  0
   -2.0180    0.5987    0.5100 H   0  0  0  0  0  0  0  0  0  0  0  0
   -0.1783    0.5119   -2.4745 H   0  0  0  0  0  0  0  0  0  0  0  0
    0.9978   -0.8414   -2.1445 H   0  0  0  0  0  0  0  0  0  0  0  0
    1.2585    0.8465   -1.5033 H   0  0  0  0  0  0  0  0  0  0  0  0
  1  2  3  0
  2  3  1  0
  3  4  1  0
  4  5  1  0
  4  6  1  0
  1  7  1  0
  3  8  1  0
  3  9  1  0
  4 10  1  0
  5 11  1  0
  5 12  1  0
  5 13  1  0
  6 14  1  0
  6 15  1  0
  6 16  1  0
M  END
