
     RDKit          3D

 17 18  0  0  0  0  0  0  0  0999 V2000
    3.4586   -0.5938    0.4856 C   0  0  0  0  0  0  0  0  0  0  0  0
    2.2836   -0.3741    0.3229 C   0  0  0  0  0  0  0  0  0  0  0  0
    0.8972   -0.1047    0.1179 C   0  0  0  0  0  0  0  0  0  0  0  0
    0.4857    1.1506    0.1492 C   0  0  0  0  0  0  0  0  0  0  0  0
   -0.8596    1.4131   -0.4232 C   0  0  0  0  0  0  0  0  0  0  0  0
   -1.5230    0.1029   -0.6986 C   0  0  0  0  0  0  0  0  0  0  0  0
   -1.4500   -0.7952    0.5163 C   0  0  0  0  0  0  0  0  0  0  0  0
   -0.1279   -1.1489   -0.1308 C   0  0  0  0  0  0  0  0  0  0  0  0
   -0.7173   -0.8099   -1.3709 O   0  0  0  0  0  0  0  0  0  0  0  0
    4.5070   -0.8019    0.6164 H   0  0  0  0  0  0  0  0  0  0  0  0
    1.1068    1.9547    0.5760 H   0  0  0  0  0  0  0  0  0  0  0  0
   -1.4684    1.9180    0.3837 H   0  0  0  0  0  0  0  0  0  0  0  0
   -0.7815    2.0451   -1.3176 H   0  0  0  0  0  0  0  0  0  0  0  0
   -2.5376    0.1748   -1.1541 H   0  0  0  0  0  0  0  0  0  0  0  0
   -1.3480   -0.2775    1.4852 H   0  0  0  0  0  0  0  0  0  0  0  0
   -2.1197   -1.6682    0.4904 H   0  0  0  0  0  0  0  0  0  0  0  0
    0.1941   -2.1850   -0.0483 H   0  0  0  0  0  0  0  0  0  0  0  0
  1  2  3  0
  2  3  1  0
  3  4  2  0
  4  5  1  0
  5  6  1  0
  6  7  1  0
  7  8  1  0
  8  9  1  0
  8  3  1  0
  9  6  1  0
  1 10  1  0
  4 11  1  0
  5 12  1  0
  5 13  1  0
  6 14  1  0
  7 15  1  0
  7 16  1  0
  8 17  1  0
M  END
