
     RDKit          3D

 15 14  0  0  0  0  0  0  0  0999 V2000
    1.2690    1.3933   -2.3216 C   0  0  0  0  0  0  0  0  0  0  0  0
    1.2838    0.4333   -1.6057 C   0  0  0  0  0  0  0  0  0  0  0  0
    1.2948   -0.7504   -0.7537 C   0  0  0  0  0  0  0  0  0  0  0  0
   -0.1226   -0.9497   -0.1641 C   0  0  0  0  0  0  0  0  0  0  0  0
   -0.5699    0.2141    0.5605 C   0  0  0  0  0  0  0  0  0  0  0  0
   -1.5547    0.3158    1.6101 C   0  0  0  0  0  0  0  0  0  0  0  0
    0.0031    1.3194    0.2243 O   0  0  0  0  0  0  0  0  0  0  0  0
    1.2446    2.2420   -2.9732 H   0  0  0  0  0  0  0  0  0  0  0  0
    1.4941   -1.6560   -1.3273 H   0  0  0  0  0  0  0  0  0  0  0  0
    1.9993   -0.5430    0.0865 H   0  0  0  0  0  0  0  0  0  0  0  0
   -0.2082   -1.8927    0.3759 H   0  0  0  0  0  0  0  0  0  0  0  0
   -0.7895   -1.0305   -1.0817 H   0  0  0  0  0  0  0  0  0  0  0  0
   -1.6051   -0.6813    2.1530 H   0  0  0  0  0  0  0  0  0  0  0  0
   -1.1929    1.0281    2.4041 H   0  0  0  0  0  0  0  0  0  0  0  0
   -2.5458    0.5576    1.2083 H   0  0  0  0  0  0  0  0  0  0  0  0
  1  2  3  0
  2  3  1  0
  3  4  1  0
  4  5  1  0
  5  6  1  0
  5  7  2  0
  1  8  1  0
  3  9  1  0
  3 10  1  0
  4 11  1  0
  4 12  1  0
  6 13  1  0
  6 14  1  0
  6 15  1  0
M  END
