
     RDKit          3D

 18 18  0  0  0  0  0  0  0  0999 V2000
    2.4199    0.2252   -2.3621 C   0  0  0  0  0  0  0  0  0  0  0  0
    1.3883    0.5631   -1.7716 C   0  0  0  0  0  0  0  0  0  0  0  0
    0.1629    0.9414   -1.0887 C   0  0  0  0  0  0  0  0  0  0  0  0
   -0.2680   -0.2086   -0.2021 C   0  0  0  0  0  0  0  0  0  0  0  0
   -1.5322    0.0873    0.5528 C   0  0  0  0  0  0  0  0  0  0  0  0
   -1.2104   -0.4778    1.9210 C   0  0  0  0  0  0  0  0  0  0  0  0
    0.1241   -0.0934    2.0842 O   0  0  0  0  0  0  0  0  0  0  0  0
    0.7302   -0.4499    0.8845 C   0  0  0  0  0  0  0  0  0  0  0  0
    3.3130   -0.0617   -2.8522 H   0  0  0  0  0  0  0  0  0  0  0  0
   -0.6084    1.2173   -1.8191 H   0  0  0  0  0  0  0  0  0  0  0  0
    0.4049    1.8066   -0.4380 H   0  0  0  0  0  0  0  0  0  0  0  0
   -0.3753   -1.0993   -0.8582 H   0  0  0  0  0  0  0  0  0  0  0  0
   -1.7619    1.1615    0.6173 H   0  0  0  0  0  0  0  0  0  0  0  0
   -2.3848   -0.5241    0.1692 H   0  0  0  0  0  0  0  0  0  0  0  0
   -1.8415   -0.0905    2.7192 H   0  0  0  0  0  0  0  0  0  0  0  0
   -1.2081   -1.5890    1.8526 H   0  0  0  0  0  0  0  0  0  0  0  0
    1.6662    0.1228    0.7479 H   0  0  0  0  0  0  0  0  0  0  0  0
    0.9811   -1.5309    0.9186 H   0  0  0  0  0  0  0  0  0  0  0  0
  1  2  3  0
  2  3  1  0
  3  4  1  0
  4  5  1  0
  5  6  1  0
  6  7  1  0
  7  8  1  0
  8  4  1  0
  1  9  1  0
  3 10  1  0
  3 11  1  0
  4 12  1  0
  5 13  1  0
  5 14  1  0
  6 15  1  0
  6 16  1  0
  8 17  1  0
  8 18  1  0
M  END
