
     RDKit          3D

 17 16  0  0  0  0  0  0  0  0999 V2000
   -1.0869    2.6230   -1.5826 C   0  0  0  0  0  0  0  0  0  0  0  0
   -0.4980    1.9253   -0.6861 C   0  0  0  0  0  0  0  0  0  0  0  0
    0.0723    1.2176    0.2169 C   0  0  0  0  0  0  0  0  0  0  0  0
    1.5986    1.3746   -0.0528 O   0  0  0  0  0  0  0  0  0  0  0  0
    0.0425   -0.2460    0.2536 C   0  0  0  0  0  0  0  0  0  0  0  0
    0.0734   -0.7691   -1.2266 C   0  0  0  0  0  0  0  0  0  0  0  0
   -0.4999   -1.7936   -1.4161 O   0  0  0  0  0  0  0  0  0  0  0  0
   -0.9804   -0.9931    0.7806 O   0  0  0  0  0  0  0  0  0  0  0  0
   -0.2830   -2.0139    1.5206 C   0  0  0  0  0  0  0  0  0  0  0  0
   -1.6455    3.3014   -2.4197 H   0  0  0  0  0  0  0  0  0  0  0  0
    0.0387    1.5998    1.2984 H   0  0  0  0  0  0  0  0  0  0  0  0
    1.5920    1.2337   -1.0223 H   0  0  0  0  0  0  0  0  0  0  0  0
    1.0449   -0.6294    0.6358 H   0  0  0  0  0  0  0  0  0  0  0  0
    0.6097   -0.1729   -1.9610 H   0  0  0  0  0  0  0  0  0  0  0  0
    0.3137   -1.4574    2.2648 H   0  0  0  0  0  0  0  0  0  0  0  0
    0.5032   -2.3838    0.7825 H   0  0  0  0  0  0  0  0  0  0  0  0
   -0.8953   -2.8162    1.8675 H   0  0  0  0  0  0  0  0  0  0  0  0
  1  2  3  0
  2  3  1  0
  3  4  1  0
  3  5  1  0
  5  6  1  0
  6  7  2  0
  5  8  1  0
  8  9  1  0
  1 10  1  0
  3 11  1  0
  4 12  1  0
  5 13  1  0
  6 14  1  0
  9 15  1  0
  9 16  1  0
  9 17  1  0
M  END
