
     RDKit          3D

 19 19  0  0  0  0  0  0  0  0999 V2000
   -0.4121    3.1208    0.3161 C   0  0  0  0  0  0  0  0  0  0  0  0
   -0.0712    2.0137   -0.0357 C   0  0  0  0  0  0  0  0  0  0  0  0
    0.3355    0.6800   -0.4758 C   0  0  0  0  0  0  0  0  0  0  0  0
    1.8002    0.5032   -0.1317 C   0  0  0  0  0  0  0  0  0  0  0  0
    2.1500   -0.7840   -0.5687 O   0  0  0  0  0  0  0  0  0  0  0  0
   -0.4225   -0.4170    0.1921 C   0  0  0  0  0  0  0  0  0  0  0  0
   -1.8878   -0.5524    0.0903 C   0  0  0  0  0  0  0  0  0  0  0  0
   -1.0576   -1.4479   -0.7536 C   0  0  0  0  0  0  0  0  0  0  0  0
   -0.8548   -2.7800   -0.4161 O   0  0  0  0  0  0  0  0  0  0  0  0
   -0.6942    4.0988    0.6238 H   0  0  0  0  0  0  0  0  0  0  0  0
    0.2104    0.6145   -1.5977 H   0  0  0  0  0  0  0  0  0  0  0  0
    2.4469    1.2352   -0.6359 H   0  0  0  0  0  0  0  0  0  0  0  0
    1.8744    0.5661    0.9703 H   0  0  0  0  0  0  0  0  0  0  0  0
    3.0296   -1.0691   -0.2708 H   0  0  0  0  0  0  0  0  0  0  0  0
    0.0611   -0.8308    1.1147 H   0  0  0  0  0  0  0  0  0  0  0  0
   -2.4935    0.2477   -0.3837 H   0  0  0  0  0  0  0  0  0  0  0  0
   -2.4078   -1.0569    0.9322 H   0  0  0  0  0  0  0  0  0  0  0  0
   -1.0380   -1.2341   -1.8343 H   0  0  0  0  0  0  0  0  0  0  0  0
   -0.5687   -2.9078    0.5228 H   0  0  0  0  0  0  0  0  0  0  0  0
  1  2  3  0
  2  3  1  0
  3  4  1  0
  4  5  1  0
  3  6  1  0
  6  7  1  0
  7  8  1  0
  8  9  1  0
  8  6  1  0
  1 10  1  0
  3 11  1  0
  4 12  1  0
  4 13  1  0
  5 14  1  0
  6 15  1  0
  7 16  1  0
  7 17  1  0
  8 18  1  0
  9 19  1  0
M  END
