
     RDKit          3D

 17 16  0  0  0  0  0  0  0  0999 V2000
    2.5143   -0.3669   -0.6490 C   0  0  0  0  0  0  0  0  0  0  0  0
    1.3415   -0.6222   -0.8657 C   0  0  0  0  0  0  0  0  0  0  0  0
   -0.0733   -0.9052   -1.1241 C   0  0  0  0  0  0  0  0  0  0  0  0
   -0.9037   -0.4678    0.0581 C   0  0  0  0  0  0  0  0  0  0  0  0
   -0.5127   -1.1324    1.2787 C   0  0  0  0  0  0  0  0  0  0  0  0
    0.7103   -1.2684    1.5203 O   0  0  0  0  0  0  0  0  0  0  0  0
   -1.0349    1.0197    0.1532 C   0  0  0  0  0  0  0  0  0  0  0  0
    0.1977    1.7799    0.3281 C   0  0  0  0  0  0  0  0  0  0  0  0
    0.5126    2.1751    1.4699 O   0  0  0  0  0  0  0  0  0  0  0  0
    3.5217   -0.1445   -0.4445 H   0  0  0  0  0  0  0  0  0  0  0  0
   -0.3967   -0.3756   -2.0466 H   0  0  0  0  0  0  0  0  0  0  0  0
   -0.2876   -1.9733   -1.3052 H   0  0  0  0  0  0  0  0  0  0  0  0
   -1.9542   -0.8498   -0.1948 H   0  0  0  0  0  0  0  0  0  0  0  0
   -1.1671   -1.5274    2.0100 H   0  0  0  0  0  0  0  0  0  0  0  0
   -1.7301    1.2336    1.0058 H   0  0  0  0  0  0  0  0  0  0  0  0
   -1.6077    1.3928   -0.7445 H   0  0  0  0  0  0  0  0  0  0  0  0
    0.8699    2.0325   -0.4497 H   0  0  0  0  0  0  0  0  0  0  0  0
  1  2  3  0
  2  3  1  0
  3  4  1  0
  4  5  1  0
  5  6  2  0
  4  7  1  0
  7  8  1  0
  8  9  2  0
  1 10  1  0
  3 11  1  0
  3 12  1  0
  4 13  1  0
  5 14  1  0
  7 15  1  0
  7 16  1  0
  8 17  1  0
M  END
