
     RDKit          3D

 13 13  0  0  0  0  0  0  0  0999 V2000
    2.7988   -0.2886   -1.1736 C   0  0  0  0  0  0  0  0  0  0  0  0
    1.7477   -0.1656   -0.7807 C   0  0  0  0  0  0  0  0  0  0  0  0
    0.3974   -0.0071   -0.2499 C   0  0  0  0  0  0  0  0  0  0  0  0
   -0.4171   -1.0028    0.0514 C   0  0  0  0  0  0  0  0  0  0  0  0
   -1.6783   -0.4127    0.5558 C   0  0  0  0  0  0  0  0  0  0  0  0
   -1.6735    0.8433   -0.0383 O   0  0  0  0  0  0  0  0  0  0  0  0
   -0.3422    1.2327    0.0704 C   0  0  0  0  0  0  0  0  0  0  0  0
    3.8471   -0.4033   -1.5458 H   0  0  0  0  0  0  0  0  0  0  0  0
   -0.1718   -2.0663   -0.0640 H   0  0  0  0  0  0  0  0  0  0  0  0
   -2.5233   -1.0381    0.1910 H   0  0  0  0  0  0  0  0  0  0  0  0
   -1.6669   -0.3209    1.6451 H   0  0  0  0  0  0  0  0  0  0  0  0
   -0.1183    2.0808   -0.6041 H   0  0  0  0  0  0  0  0  0  0  0  0
   -0.1997    1.5487    1.1328 H   0  0  0  0  0  0  0  0  0  0  0  0
  1  2  3  0
  2  3  1  0
  3  4  2  0
  4  5  1  0
  5  6  1  0
  6  7  1  0
  7  3  1  0
  1  8  1  0
  4  9  1  0
  5 10  1  0
  5 11  1  0
  7 12  1  0
  7 13  1  0
M  END
