
     RDKit          3D

 17 19  0  0  0  0  0  0  0  0999 V2000
    1.9771    1.0351   -2.2737 C   0  0  0  0  0  0  0  0  0  0  0  0
    0.9697    0.6865   -1.4405 C   0  0  0  0  0  0  0  0  0  0  0  0
   -0.0662    0.3266   -0.5526 C   0  0  0  0  0  0  0  0  0  0  0  0
    0.0728   -1.0147    0.1841 C   0  0  0  0  0  0  0  0  0  0  0  0
   -1.3624   -1.3295    0.3814 C   0  0  0  0  0  0  0  0  0  0  0  0
   -2.0887   -0.1329    0.4238 O   0  0  0  0  0  0  0  0  0  0  0  0
   -1.2578    0.8777   -0.0835 C   0  0  0  0  0  0  0  0  0  0  0  0
    0.0072    1.0138    0.7839 C   0  0  0  0  0  0  0  0  0  0  0  0
    0.7382   -0.2371    1.2404 C   0  0  0  0  0  0  0  0  0  0  0  0
    2.5739    1.2445   -2.7702 H   0  0  0  0  0  0  0  0  0  0  0  0
    0.6471   -1.7274   -0.4720 H   0  0  0  0  0  0  0  0  0  0  0  0
   -1.5732   -1.9063    1.2837 H   0  0  0  0  0  0  0  0  0  0  0  0
   -1.6971   -1.8990   -0.5435 H   0  0  0  0  0  0  0  0  0  0  0  0
   -1.8045    1.7622   -0.3913 H   0  0  0  0  0  0  0  0  0  0  0  0
    0.4322    2.0220    0.8367 H   0  0  0  0  0  0  0  0  0  0  0  0
    0.5559   -0.5491    2.2614 H   0  0  0  0  0  0  0  0  0  0  0  0
    1.8757   -0.1724    1.1318 H   0  0  0  0  0  0  0  0  0  0  0  0
  1  2  3  0
  2  3  1  0
  3  4  1  0
  4  5  1  0
  5  6  1  0
  6  7  1  0
  7  8  1  0
  8  9  1  0
  7  3  1  0
  8  3  1  0
  9  4  1  0
  1 10  1  0
  4 11  1  0
  5 12  1  0
  5 13  1  0
  7 14  1  0
  8 15  1  0
  9 16  1  0
  9 17  1  0
M  END
