
     RDKit          3D

 19 19  0  0  0  0  0  0  0  0999 V2000
    0.2280    2.1394   -2.2473 C   0  0  0  0  0  0  0  0  0  0  0  0
    0.4422    1.1905   -1.3494 C   0  0  0  0  0  0  0  0  0  0  0  0
    0.6530    0.1809   -0.3835 C   0  0  0  0  0  0  0  0  0  0  0  0
    1.9945    0.1144    0.1639 C   0  0  0  0  0  0  0  0  0  0  0  0
    3.0811    0.0590    0.5854 C   0  0  0  0  0  0  0  0  0  0  0  0
   -0.0179   -1.1195   -0.8127 C   0  0  0  0  0  0  0  0  0  0  0  0
   -0.5544   -0.3446    0.3204 C   0  0  0  0  0  0  0  0  0  0  0  0
   -1.8924    0.3507    0.0737 C   0  0  0  0  0  0  0  0  0  0  0  0
   -0.4071   -0.8711    1.7221 C   0  0  0  0  0  0  0  0  0  0  0  0
    0.0588    2.8940   -2.9612 H   0  0  0  0  0  0  0  0  0  0  0  0
    4.1584    0.0110    1.0000 H   0  0  0  0  0  0  0  0  0  0  0  0
    0.5805   -2.0129   -0.6864 H   0  0  0  0  0  0  0  0  0  0  0  0
   -0.6198   -1.1115   -1.7623 H   0  0  0  0  0  0  0  0  0  0  0  0
   -2.6612   -0.4052   -0.1409 H   0  0  0  0  0  0  0  0  0  0  0  0
   -1.7343    1.0215   -0.8133 H   0  0  0  0  0  0  0  0  0  0  0  0
   -2.1479    0.9918    0.9240 H   0  0  0  0  0  0  0  0  0  0  0  0
   -0.9543   -0.2500    2.4775 H   0  0  0  0  0  0  0  0  0  0  0  0
    0.6330   -0.9113    2.1023 H   0  0  0  0  0  0  0  0  0  0  0  0
   -0.8401   -1.9271    1.7876 H   0  0  0  0  0  0  0  0  0  0  0  0
  1  2  3  0
  2  3  1  0
  3  4  1  0
  4  5  3  0
  3  6  1  0
  6  7  1  0
  7  8  1  0
  7  9  1  0
  7  3  1  0
  1 10  1  0
  5 11  1  0
  6 12  1  0
  6 13  1  0
  8 14  1  0
  8 15  1  0
  8 16  1  0
  9 17  1  0
  9 18  1  0
  9 19  1  0
M  END
