
     RDKit          3D

 21 22  0  0  0  0  0  0  0  0999 V2000
   -0.5227   -0.1653   -2.9356 C   0  0  0  0  0  0  0  0  0  0  0  0
   -0.1408   -0.2556   -1.7856 C   0  0  0  0  0  0  0  0  0  0  0  0
    0.3208   -0.3574   -0.4733 C   0  0  0  0  0  0  0  0  0  0  0  0
    1.1566   -1.6234   -0.1952 C   0  0  0  0  0  0  0  0  0  0  0  0
    1.1715    0.7938    0.0869 C   0  0  0  0  0  0  0  0  0  0  0  0
    0.6548    0.3773    1.4508 C   0  0  0  0  0  0  0  0  0  0  0  0
   -0.5051    0.2141    0.5827 C   0  0  0  0  0  0  0  0  0  0  0  0
   -1.8250   -0.1025    0.9351 C   0  0  0  0  0  0  0  0  0  0  0  0
   -0.0762    1.5805    0.0133 C   0  0  0  0  0  0  0  0  0  0  0  0
   -0.8853   -0.0772   -4.0029 H   0  0  0  0  0  0  0  0  0  0  0  0
    2.1987   -1.4123   -0.5842 H   0  0  0  0  0  0  0  0  0  0  0  0
    0.7539   -2.4561   -0.7737 H   0  0  0  0  0  0  0  0  0  0  0  0
    1.1563   -1.8475    0.8627 H   0  0  0  0  0  0  0  0  0  0  0  0
    2.1230    0.9392   -0.1381 H   0  0  0  0  0  0  0  0  0  0  0  0
    0.6032    1.2864    2.1528 H   0  0  0  0  0  0  0  0  0  0  0  0
    1.1710   -0.4639    1.9129 H   0  0  0  0  0  0  0  0  0  0  0  0
   -2.4584    0.8048    1.0511 H   0  0  0  0  0  0  0  0  0  0  0  0
   -2.3169   -0.6531    0.0968 H   0  0  0  0  0  0  0  0  0  0  0  0
   -1.9070   -0.7385    1.8182 H   0  0  0  0  0  0  0  0  0  0  0  0
   -0.1343    2.3261    0.8554 H   0  0  0  0  0  0  0  0  0  0  0  0
   -0.5383    1.8305   -0.9299 H   0  0  0  0  0  0  0  0  0  0  0  0
  1  2  3  0
  2  3  1  0
  3  4  1  0
  3  5  1  0
  5  6  1  0
  6  7  1  0
  7  8  1  0
  7  9  1  0
  7  3  1  0
  9  5  1  0
  1 10  1  0
  4 11  1  0
  4 12  1  0
  4 13  1  0
  5 14  1  0
  6 15  1  0
  6 16  1  0
  8 17  1  0
  8 18  1  0
  8 19  1  0
  9 20  1  0
  9 21  1  0
M  END
