
     RDKit          3D

 21 21  0  0  0  0  0  0  0  0999 V2000
   -0.7626    2.0670    1.6479 C   0  0  0  0  0  0  0  0  0  0  0  0
   -0.3772    1.1148    1.0127 C   0  0  0  0  0  0  0  0  0  0  0  0
    0.0684   -0.0513    0.2437 C   0  0  0  0  0  0  0  0  0  0  0  0
    1.5784   -0.0903    0.2032 C   0  0  0  0  0  0  0  0  0  0  0  0
    2.1120   -0.1818    1.6167 C   0  0  0  0  0  0  0  0  0  0  0  0
   -0.5371    0.0356   -1.1376 C   0  0  0  0  0  0  0  0  0  0  0  0
   -2.0583    0.0410   -1.0119 C   0  0  0  0  0  0  0  0  0  0  0  0
   -2.1507   -0.7542   -2.1353 O   0  0  0  0  0  0  0  0  0  0  0  0
   -0.8691   -1.2401   -1.8185 C   0  0  0  0  0  0  0  0  0  0  0  0
   -1.0926    2.9209    2.2284 H   0  0  0  0  0  0  0  0  0  0  0  0
   -0.2936   -0.9802    0.6983 H   0  0  0  0  0  0  0  0  0  0  0  0
    1.8614   -1.0509   -0.2983 H   0  0  0  0  0  0  0  0  0  0  0  0
    1.9903    0.8012   -0.3441 H   0  0  0  0  0  0  0  0  0  0  0  0
    2.6985    0.7303    1.8882 H   0  0  0  0  0  0  0  0  0  0  0  0
    1.2678   -0.3145    2.3154 H   0  0  0  0  0  0  0  0  0  0  0  0
    2.7959   -1.0504    1.7455 H   0  0  0  0  0  0  0  0  0  0  0  0
   -0.1433    0.8666   -1.7644 H   0  0  0  0  0  0  0  0  0  0  0  0
   -2.4007   -0.4548   -0.0826 H   0  0  0  0  0  0  0  0  0  0  0  0
   -2.5316    1.0317   -1.1055 H   0  0  0  0  0  0  0  0  0  0  0  0
   -0.2970   -1.3421   -2.7607 H   0  0  0  0  0  0  0  0  0  0  0  0
   -0.8588   -2.0984   -1.1411 H   0  0  0  0  0  0  0  0  0  0  0  0
  1  2  3  0
  2  3  1  0
  3  4  1  0
  4  5  1  0
  3  6  1  0
  6  7  1  0
  7  8  1  0
  8  9  1  0
  9  6  1  0
  1 10  1  0
  3 11  1  0
  4 12  1  0
  4 13  1  0
  5 14  1  0
  5 15  1  0
  5 16  1  0
  6 17  1  0
  7 18  1  0
  7 19  1  0
  9 20  1  0
  9 21  1  0
M  END
