
     RDKit          3D

 13 13  0  0  0  0  0  0  0  0999 V2000
    0.3864    2.7494   -0.2184 C   0  0  0  0  0  0  0  0  0  0  0  0
    0.1818    1.4299   -0.1068 C   0  0  0  0  0  0  0  0  0  0  0  0
   -0.0057    0.0772    0.0134 C   0  0  0  0  0  0  0  0  0  0  0  0
    1.2192   -0.7216    0.4165 C   0  0  0  0  0  0  0  0  0  0  0  0
    2.2014   -1.3529    0.7430 C   0  0  0  0  0  0  0  0  0  0  0  0
   -1.3034   -0.4841    0.4822 C   0  0  0  0  0  0  0  0  0  0  0  0
   -0.8681   -0.6833   -0.9344 C   0  0  0  0  0  0  0  0  0  0  0  0
    0.5421    3.7932   -0.2905 H   0  0  0  0  0  0  0  0  0  0  0  0
    3.0795   -1.8979    1.0250 H   0  0  0  0  0  0  0  0  0  0  0  0
   -2.1284    0.3380    0.5536 H   0  0  0  0  0  0  0  0  0  0  0  0
   -1.3897   -1.2800    1.2328 H   0  0  0  0  0  0  0  0  0  0  0  0
   -1.3407   -0.2029   -1.7915 H   0  0  0  0  0  0  0  0  0  0  0  0
   -0.5744   -1.7650   -1.1250 H   0  0  0  0  0  0  0  0  0  0  0  0
  1  2  3  0
  2  3  1  0
  3  4  1  0
  4  5  3  0
  3  6  1  0
  6  7  1  0
  7  3  1  0
  1  8  1  0
  5  9  1  0
  6 10  1  0
  6 11  1  0
  7 12  1  0
  7 13  1  0
M  END
