
     RDKit          3D

 21 21  0  0  0  0  0  0  0  0999 V2000
   -0.1280   -1.6986    3.2310 C   0  0  0  0  0  0  0  0  0  0  0  0
   -0.2272   -1.2023    2.0695 C   0  0  0  0  0  0  0  0  0  0  0  0
   -0.3655   -0.6203    0.6601 C   0  0  0  0  0  0  0  0  0  0  0  0
    1.0191   -0.0700    0.4198 C   0  0  0  0  0  0  0  0  0  0  0  0
    1.2785    0.5903   -0.8734 C   0  0  0  0  0  0  0  0  0  0  0  0
    1.0308   -0.3572   -2.0083 C   0  0  0  0  0  0  0  0  0  0  0  0
   -1.4368    0.4296    0.7882 C   0  0  0  0  0  0  0  0  0  0  0  0
   -1.9217    1.2139   -0.2958 C   0  0  0  0  0  0  0  0  0  0  0  0
   -0.9313    1.7396    0.6621 O   0  0  0  0  0  0  0  0  0  0  0  0
   -0.0643   -2.0942    4.1300 H   0  0  0  0  0  0  0  0  0  0  0  0
   -0.6293   -1.4843    0.0462 H   0  0  0  0  0  0  0  0  0  0  0  0
    1.2069    0.6309    1.2948 H   0  0  0  0  0  0  0  0  0  0  0  0
    1.7194   -0.9543    0.5788 H   0  0  0  0  0  0  0  0  0  0  0  0
    0.7246    1.5165   -1.0416 H   0  0  0  0  0  0  0  0  0  0  0  0
    2.3891    0.8838   -0.8948 H   0  0  0  0  0  0  0  0  0  0  0  0
    1.5128   -0.0405   -2.9618 H   0  0  0  0  0  0  0  0  0  0  0  0
   -0.0512   -0.4152   -2.2016 H   0  0  0  0  0  0  0  0  0  0  0  0
    1.4382   -1.3773   -1.7998 H   0  0  0  0  0  0  0  0  0  0  0  0
   -2.1580    0.2691    1.6546 H   0  0  0  0  0  0  0  0  0  0  0  0
   -1.5389    1.2285   -1.3047 H   0  0  0  0  0  0  0  0  0  0  0  0
   -2.8671    1.8117   -0.1672 H   0  0  0  0  0  0  0  0  0  0  0  0
  1  2  3  0
  2  3  1  0
  3  4  1  0
  4  5  1  0
  5  6  1  0
  3  7  1  0
  7  8  1  0
  8  9  1  0
  9  7  1  0
  1 10  1  0
  3 11  1  0
  4 12  1  0
  4 13  1  0
  5 14  1  0
  5 15  1  0
  6 16  1  0
  6 17  1  0
  6 18  1  0
  7 19  1  0
  8 20  1  0
  8 21  1  0
M  END
