
     RDKit          3D

 20 19  0  0  0  0  0  0  0  0999 V2000
    2.4699   -1.6091   -0.3708 C   0  0  0  0  0  0  0  0  0  0  0  0
    1.9387   -0.6151    0.0619 C   0  0  0  0  0  0  0  0  0  0  0  0
    1.2895    0.5572    0.5905 C   0  0  0  0  0  0  0  0  0  0  0  0
    0.0236    0.8573   -0.1639 C   0  0  0  0  0  0  0  0  0  0  0  0
    0.2882    1.1075   -1.6277 C   0  0  0  0  0  0  0  0  0  0  0  0
   -1.0070   -0.2205   -0.0503 C   0  0  0  0  0  0  0  0  0  0  0  0
   -1.4272   -0.4628    1.3906 C   0  0  0  0  0  0  0  0  0  0  0  0
   -2.3847   -1.4768    1.4069 O   0  0  0  0  0  0  0  0  0  0  0  0
    2.9323   -2.4939   -0.7699 H   0  0  0  0  0  0  0  0  0  0  0  0
    1.0771    0.4278    1.6706 H   0  0  0  0  0  0  0  0  0  0  0  0
    1.9292    1.4825    0.5062 H   0  0  0  0  0  0  0  0  0  0  0  0
   -0.3891    1.8035    0.2517 H   0  0  0  0  0  0  0  0  0  0  0  0
   -0.5967    0.7686   -2.2359 H   0  0  0  0  0  0  0  0  0  0  0  0
    0.3752    2.2060   -1.8345 H   0  0  0  0  0  0  0  0  0  0  0  0
    1.2298    0.6564   -1.9787 H   0  0  0  0  0  0  0  0  0  0  0  0
   -1.9194    0.1353   -0.5771 H   0  0  0  0  0  0  0  0  0  0  0  0
   -0.6825   -1.1389   -0.5525 H   0  0  0  0  0  0  0  0  0  0  0  0
   -1.8449    0.4875    1.7843 H   0  0  0  0  0  0  0  0  0  0  0  0
   -0.5721   -0.8116    2.0132 H   0  0  0  0  0  0  0  0  0  0  0  0
   -2.7298   -1.6610    0.4852 H   0  0  0  0  0  0  0  0  0  0  0  0
  1  2  3  0
  2  3  1  0
  3  4  1  0
  4  5  1  0
  4  6  1  0
  6  7  1  0
  7  8  1  0
  1  9  1  0
  3 10  1  0
  3 11  1  0
  4 12  1  0
  5 13  1  0
  5 14  1  0
  5 15  1  0
  6 16  1  0
  6 17  1  0
  7 18  1  0
  7 19  1  0
  8 20  1  0
M  END
