
     RDKit          3D

 23 22  0  0  0  0  0  0  0  0999 V2000
    2.9134    1.6451    0.2779 C   0  0  0  0  0  0  0  0  0  0  0  0
    2.7707    0.4652    0.0222 C   0  0  0  0  0  0  0  0  0  0  0  0
    2.5814   -0.9521   -0.2669 C   0  0  0  0  0  0  0  0  0  0  0  0
    1.5437   -1.5771    0.6404 C   0  0  0  0  0  0  0  0  0  0  0  0
    0.3013   -0.9985    0.5352 O   0  0  0  0  0  0  0  0  0  0  0  0
   -0.2504   -1.0655   -0.7194 C   0  0  0  0  0  0  0  0  0  0  0  0
   -1.6082   -0.3927   -0.6822 C   0  0  0  0  0  0  0  0  0  0  0  0
   -1.5099    1.0497   -0.2740 C   0  0  0  0  0  0  0  0  0  0  0  0
   -2.9221    1.6134   -0.2726 C   0  0  0  0  0  0  0  0  0  0  0  0
    3.0494    2.6664    0.5136 H   0  0  0  0  0  0  0  0  0  0  0  0
    2.3582   -1.0756   -1.3316 H   0  0  0  0  0  0  0  0  0  0  0  0
    3.5334   -1.5118   -0.0779 H   0  0  0  0  0  0  0  0  0  0  0  0
    1.9029   -1.3689    1.6915 H   0  0  0  0  0  0  0  0  0  0  0  0
    1.5468   -2.6823    0.5581 H   0  0  0  0  0  0  0  0  0  0  0  0
   -0.4044   -2.1041   -1.0859 H   0  0  0  0  0  0  0  0  0  0  0  0
    0.3523   -0.4742   -1.4705 H   0  0  0  0  0  0  0  0  0  0  0  0
   -2.3186   -0.9258   -0.0216 H   0  0  0  0  0  0  0  0  0  0  0  0
   -2.0682   -0.4150   -1.7036 H   0  0  0  0  0  0  0  0  0  0  0  0
   -0.9375    1.6256   -1.0315 H   0  0  0  0  0  0  0  0  0  0  0  0
   -1.0706    1.2065    0.7122 H   0  0  0  0  0  0  0  0  0  0  0  0
   -3.5147    1.0591   -1.0229 H   0  0  0  0  0  0  0  0  0  0  0  0
   -3.3418    1.5249    0.7508 H   0  0  0  0  0  0  0  0  0  0  0  0
   -2.9073    2.6875   -0.5632 H   0  0  0  0  0  0  0  0  0  0  0  0
  1  2  3  0
  2  3  1  0
  3  4  1  0
  4  5  1  0
  5  6  1  0
  6  7  1  0
  7  8  1  0
  8  9  1  0
  1 10  1  0
  3 11  1  0
  3 12  1  0
  4 13  1  0
  4 14  1  0
  6 15  1  0
  6 16  1  0
  7 17  1  0
  7 18  1  0
  8 19  1  0
  8 20  1  0
  9 21  1  0
  9 22  1  0
  9 23  1  0
M  END
