
     RDKit          3D

 17 17  0  0  0  0  0  0  0  0999 V2000
    3.2137    1.2182    0.8712 C   0  0  0  0  0  0  0  0  0  0  0  0
    2.3756    0.4146    0.5461 C   0  0  0  0  0  0  0  0  0  0  0  0
    1.3276   -0.5611    0.1609 C   0  0  0  0  0  0  0  0  0  0  0  0
    0.6677   -0.8918    1.3434 O   0  0  0  0  0  0  0  0  0  0  0  0
   -0.6859   -0.9876    1.0378 C   0  0  0  0  0  0  0  0  0  0  0  0
   -0.8756    0.2638    0.1709 C   0  0  0  0  0  0  0  0  0  0  0  0
   -2.1503    0.2342   -0.5916 C   0  0  0  0  0  0  0  0  0  0  0  0
    0.3356    0.1523   -0.6842 C   0  0  0  0  0  0  0  0  0  0  0  0
    0.5477    0.5288   -1.8174 O   0  0  0  0  0  0  0  0  0  0  0  0
    3.9376    1.9111    1.1707 H   0  0  0  0  0  0  0  0  0  0  0  0
    1.7413   -1.4548   -0.3060 H   0  0  0  0  0  0  0  0  0  0  0  0
   -1.2750   -0.9474    1.9548 H   0  0  0  0  0  0  0  0  0  0  0  0
   -0.9102   -1.8486    0.3811 H   0  0  0  0  0  0  0  0  0  0  0  0
   -0.7874    1.1202    0.8800 H   0  0  0  0  0  0  0  0  0  0  0  0
   -2.7516   -0.6808   -0.4574 H   0  0  0  0  0  0  0  0  0  0  0  0
   -2.7879    1.0828   -0.2059 H   0  0  0  0  0  0  0  0  0  0  0  0
   -1.9227    0.4461   -1.6626 H   0  0  0  0  0  0  0  0  0  0  0  0
  1  2  3  0
  2  3  1  0
  3  4  1  0
  4  5  1  0
  5  6  1  0
  6  7  1  0
  6  8  1  0
  8  9  2  0
  8  3  1  0
  1 10  1  0
  3 11  1  0
  5 12  1  0
  5 13  1  0
  6 14  1  0
  7 15  1  0
  7 16  1  0
  7 17  1  0
M  END
