
     RDKit          3D

 21 22  0  0  0  0  0  0  0  0999 V2000
    2.9942    1.9256    0.3184 C   0  0  0  0  0  0  0  0  0  0  0  0
    2.4131    0.8693    0.2934 C   0  0  0  0  0  0  0  0  0  0  0  0
    1.6869   -0.4175    0.2433 C   0  0  0  0  0  0  0  0  0  0  0  0
    0.2271   -0.2725    0.5525 C   0  0  0  0  0  0  0  0  0  0  0  0
   -0.4772   -1.5772    0.4947 C   0  0  0  0  0  0  0  0  0  0  0  0
   -0.5584   -1.1341   -0.9775 C   0  0  0  0  0  0  0  0  0  0  0  0
   -0.7613    0.2407   -0.4323 C   0  0  0  0  0  0  0  0  0  0  0  0
   -2.2024    0.5146   -0.4036 C   0  0  0  0  0  0  0  0  0  0  0  0
   -0.2124    1.0255    0.6406 C   0  0  0  0  0  0  0  0  0  0  0  0
    3.5065    2.8670    0.3329 H   0  0  0  0  0  0  0  0  0  0  0  0
    2.0990   -1.0302    1.1042 H   0  0  0  0  0  0  0  0  0  0  0  0
    1.9762   -0.9497   -0.6442 H   0  0  0  0  0  0  0  0  0  0  0  0
    0.1317   -2.4779    0.6495 H   0  0  0  0  0  0  0  0  0  0  0  0
   -1.4656   -1.5611    0.9674 H   0  0  0  0  0  0  0  0  0  0  0  0
    0.2815   -1.3496   -1.6079 H   0  0  0  0  0  0  0  0  0  0  0  0
   -1.4326   -1.6785   -1.3889 H   0  0  0  0  0  0  0  0  0  0  0  0
   -2.5069    1.5985   -0.2989 H   0  0  0  0  0  0  0  0  0  0  0  0
   -2.7445   -0.0902    0.3428 H   0  0  0  0  0  0  0  0  0  0  0  0
   -2.6427    0.2538   -1.4151 H   0  0  0  0  0  0  0  0  0  0  0  0
    0.4020    1.9128    0.2991 H   0  0  0  0  0  0  0  0  0  0  0  0
   -0.7141    1.3305    1.6098 H   0  0  0  0  0  0  0  0  0  0  0  0
  1  2  3  0
  2  3  1  0
  3  4  1  0
  4  5  1  0
  5  6  1  0
  6  7  1  0
  7  8  1  0
  7  9  1  0
  7  4  1  0
  9  4  1  0
  1 10  1  0
  3 11  1  0
  3 12  1  0
  5 13  1  0
  5 14  1  0
  6 15  1  0
  6 16  1  0
  8 17  1  0
  8 18  1  0
  8 19  1  0
  9 20  1  0
  9 21  1  0
M  END
