
     RDKit          3D

 13 13  0  0  0  0  0  0  0  0999 V2000
    2.1227    2.0836   -1.1997 C   0  0  0  0  0  0  0  0  0  0  0  0
    1.3491    1.3833   -0.7402 C   0  0  0  0  0  0  0  0  0  0  0  0
    0.3283    0.4776   -0.1634 C   0  0  0  0  0  0  0  0  0  0  0  0
   -0.9644    0.6849   -0.0094 C   0  0  0  0  0  0  0  0  0  0  0  0
   -1.6347   -0.4813    0.6084 C   0  0  0  0  0  0  0  0  0  0  0  0
   -2.7849   -0.4653    1.1387 O   0  0  0  0  0  0  0  0  0  0  0  0
   -0.6588   -1.5890    0.4413 C   0  0  0  0  0  0  0  0  0  0  0  0
    0.6265   -0.8509    0.3575 C   0  0  0  0  0  0  0  0  0  0  0  0
    1.7589   -1.2733    0.6749 O   0  0  0  0  0  0  0  0  0  0  0  0
    2.8773    2.7826   -1.6357 H   0  0  0  0  0  0  0  0  0  0  0  0
   -1.4470    1.6197   -0.3088 H   0  0  0  0  0  0  0  0  0  0  0  0
   -0.7283   -2.2181    1.3446 H   0  0  0  0  0  0  0  0  0  0  0  0
   -0.8448   -2.1539   -0.5083 H   0  0  0  0  0  0  0  0  0  0  0  0
  1  2  3  0
  2  3  1  0
  3  4  2  0
  4  5  1  0
  5  6  2  0
  5  7  1  0
  7  8  1  0
  8  9  2  0
  8  3  1  0
  1 10  1  0
  4 11  1  0
  7 12  1  0
  7 13  1  0
M  END
