
     RDKit          3D

 21 21  0  0  0  0  0  0  0  0999 V2000
    2.2137    1.9141    1.7001 C   0  0  0  0  0  0  0  0  0  0  0  0
    1.5036    0.9308    1.6904 C   0  0  0  0  0  0  0  0  0  0  0  0
    0.6593   -0.2794    1.6797 C   0  0  0  0  0  0  0  0  0  0  0  0
    0.9522   -1.1575    0.5048 C   0  0  0  0  0  0  0  0  0  0  0  0
    0.7828   -0.4863   -0.7829 C   0  0  0  0  0  0  0  0  0  0  0  0
   -0.4993    0.0605   -1.2360 C   0  0  0  0  0  0  0  0  0  0  0  0
   -1.2731    1.1169   -0.5773 C   0  0  0  0  0  0  0  0  0  0  0  0
   -1.8066   -0.2785   -0.6374 C   0  0  0  0  0  0  0  0  0  0  0  0
   -2.8819   -0.5093   -1.5350 O   0  0  0  0  0  0  0  0  0  0  0  0
    2.8191    2.7829    1.7132 H   0  0  0  0  0  0  0  0  0  0  0  0
   -0.3890    0.0044    1.7648 H   0  0  0  0  0  0  0  0  0  0  0  0
    0.8613   -0.8429    2.6519 H   0  0  0  0  0  0  0  0  0  0  0  0
    0.3507   -2.1016    0.6107 H   0  0  0  0  0  0  0  0  0  0  0  0
    2.0303   -1.4946    0.6272 H   0  0  0  0  0  0  0  0  0  0  0  0
    1.2122   -1.2081   -1.5716 H   0  0  0  0  0  0  0  0  0  0  0  0
    1.4939    0.4197   -0.7945 H   0  0  0  0  0  0  0  0  0  0  0  0
   -0.5413    0.0970   -2.3859 H   0  0  0  0  0  0  0  0  0  0  0  0
   -1.7881    1.8702   -1.2783 H   0  0  0  0  0  0  0  0  0  0  0  0
   -1.0339    1.6103    0.3564 H   0  0  0  0  0  0  0  0  0  0  0  0
   -1.8254   -0.9601    0.2075 H   0  0  0  0  0  0  0  0  0  0  0  0
   -2.8404   -1.4886   -1.7411 H   0  0  0  0  0  0  0  0  0  0  0  0
  1  2  3  0
  2  3  1  0
  3  4  1  0
  4  5  1  0
  5  6  1  0
  6  7  1  0
  7  8  1  0
  8  9  1  0
  8  6  1  0
  1 10  1  0
  3 11  1  0
  3 12  1  0
  4 13  1  0
  4 14  1  0
  5 15  1  0
  5 16  1  0
  6 17  1  0
  7 18  1  0
  7 19  1  0
  8 20  1  0
  9 21  1  0
M  END
