
     RDKit          3D

 16 15  0  0  0  0  0  0  0  0999 V2000
   -4.6518    0.1568    1.3209 C   0  0  0  0  0  0  0  0  0  0  0  0
   -3.6086    0.1922    0.8897 C   0  0  0  0  0  0  0  0  0  0  0  0
   -2.2982    0.2257    0.3276 C   0  0  0  0  0  0  0  0  0  0  0  0
   -1.2018    0.2608   -0.1638 C   0  0  0  0  0  0  0  0  0  0  0  0
    0.1908    0.3316   -0.7928 C   0  0  0  0  0  0  0  0  0  0  0  0
    1.1185    0.6360    0.4044 C   0  0  0  0  0  0  0  0  0  0  0  0
    2.4356    0.6879    0.0394 O   0  0  0  0  0  0  0  0  0  0  0  0
    2.7915   -0.4862   -0.6215 C   0  0  0  0  0  0  0  0  0  0  0  0
   -5.7217    0.1407    1.7656 H   0  0  0  0  0  0  0  0  0  0  0  0
    0.2579    1.2075   -1.4366 H   0  0  0  0  0  0  0  0  0  0  0  0
    0.3172   -0.6327   -1.2343 H   0  0  0  0  0  0  0  0  0  0  0  0
    0.9688   -0.1203    1.1796 H   0  0  0  0  0  0  0  0  0  0  0  0
    0.7963    1.6069    0.9057 H   0  0  0  0  0  0  0  0  0  0  0  0
    3.8916   -0.4703   -0.8443 H   0  0  0  0  0  0  0  0  0  0  0  0
    2.4320   -1.3497   -0.1035 H   0  0  0  0  0  0  0  0  0  0  0  0
    2.2819   -0.3863   -1.6361 H   0  0  0  0  0  0  0  0  0  0  0  0
  1  2  3  0
  2  3  1  0
  3  4  3  0
  4  5  1  0
  5  6  1  0
  6  7  1  0
  7  8  1  0
  1  9  1  0
  5 10  1  0
  5 11  1  0
  6 12  1  0
  6 13  1  0
  8 14  1  0
  8 15  1  0
  8 16  1  0
M  END
