
     RDKit          3D

 18 18  0  0  0  0  0  0  0  0999 V2000
    1.0283    0.8294    2.2445 C   0  0  0  0  0  0  0  0  0  0  0  0
    0.1564    0.4359    1.4697 C   0  0  0  0  0  0  0  0  0  0  0  0
   -0.8808   -0.0440    0.5413 C   0  0  0  0  0  0  0  0  0  0  0  0
   -0.4503   -0.6614   -0.7332 C   0  0  0  0  0  0  0  0  0  0  0  0
    0.3445    0.2245   -1.6313 C   0  0  0  0  0  0  0  0  0  0  0  0
    1.6320    0.6695   -1.0033 C   0  0  0  0  0  0  0  0  0  0  0  0
   -1.9633   -0.8545    1.2637 C   0  0  0  0  0  0  0  0  0  0  0  0
   -2.1733    0.4397    0.7338 O   0  0  0  0  0  0  0  0  0  0  0  0
    1.7268    1.1507    2.8554 H   0  0  0  0  0  0  0  0  0  0  0  0
    0.1865   -1.5613   -0.4497 H   0  0  0  0  0  0  0  0  0  0  0  0
   -1.3101   -1.1315   -1.2686 H   0  0  0  0  0  0  0  0  0  0  0  0
   -0.2515    1.1574   -1.8500 H   0  0  0  0  0  0  0  0  0  0  0  0
    0.5380   -0.3269   -2.5804 H   0  0  0  0  0  0  0  0  0  0  0  0
    1.4889    1.6337   -0.4934 H   0  0  0  0  0  0  0  0  0  0  0  0
    1.9698   -0.0774   -0.2683 H   0  0  0  0  0  0  0  0  0  0  0  0
    2.3723    0.7454   -1.8409 H   0  0  0  0  0  0  0  0  0  0  0  0
   -2.5168   -1.6258    0.6667 H   0  0  0  0  0  0  0  0  0  0  0  0
   -1.8974   -1.0032    2.3438 H   0  0  0  0  0  0  0  0  0  0  0  0
  1  2  3  0
  2  3  1  0
  3  4  1  0
  4  5  1  0
  5  6  1  0
  3  7  1  0
  7  8  1  0
  8  3  1  0
  1  9  1  0
  4 10  1  0
  4 11  1  0
  5 12  1  0
  5 13  1  0
  6 14  1  0
  6 15  1  0
  6 16  1  0
  7 17  1  0
  7 18  1  0
M  END
