
     RDKit          3D

 17 17  0  0  0  0  0  0  0  0999 V2000
   -2.6617    1.1837    0.3720 C   0  0  0  0  0  0  0  0  0  0  0  0
   -2.1313    0.1127    0.5314 C   0  0  0  0  0  0  0  0  0  0  0  0
   -1.4815   -1.1823    0.7359 C   0  0  0  0  0  0  0  0  0  0  0  0
   -0.2276   -1.2642   -0.1411 C   0  0  0  0  0  0  0  0  0  0  0  0
    0.7324   -0.1537    0.2349 C   0  0  0  0  0  0  0  0  0  0  0  0
    0.3207    1.1579    0.1191 O   0  0  0  0  0  0  0  0  0  0  0  0
    1.1872    0.7567   -0.8972 C   0  0  0  0  0  0  0  0  0  0  0  0
    2.6041    1.1595   -0.8454 C   0  0  0  0  0  0  0  0  0  0  0  0
    3.2179    1.3160   -1.8796 O   0  0  0  0  0  0  0  0  0  0  0  0
   -3.1363    2.1300    0.2487 H   0  0  0  0  0  0  0  0  0  0  0  0
   -2.1776   -1.9698    0.3906 H   0  0  0  0  0  0  0  0  0  0  0  0
   -1.2223   -1.3531    1.8003 H   0  0  0  0  0  0  0  0  0  0  0  0
    0.2441   -2.2578   -0.0625 H   0  0  0  0  0  0  0  0  0  0  0  0
   -0.5395   -1.1341   -1.1933 H   0  0  0  0  0  0  0  0  0  0  0  0
    1.4472   -0.4264    1.0222 H   0  0  0  0  0  0  0  0  0  0  0  0
    0.7125    0.6054   -1.8774 H   0  0  0  0  0  0  0  0  0  0  0  0
    3.1116    1.3194    0.0904 H   0  0  0  0  0  0  0  0  0  0  0  0
  1  2  3  0
  2  3  1  0
  3  4  1  0
  4  5  1  0
  5  6  1  0
  6  7  1  0
  7  8  1  0
  8  9  2  0
  7  5  1  0
  1 10  1  0
  3 11  1  0
  3 12  1  0
  4 13  1  0
  4 14  1  0
  5 15  1  0
  7 16  1  0
  8 17  1  0
M  END
