
     RDKit          3D

 21 21  0  0  0  0  0  0  0  0999 V2000
    2.9607   -0.7294    2.4625 C   0  0  0  0  0  0  0  0  0  0  0  0
    2.5403   -1.1317    1.3904 C   0  0  0  0  0  0  0  0  0  0  0  0
    2.0299   -1.5879    0.1081 C   0  0  0  0  0  0  0  0  0  0  0  0
    0.9696   -0.7664   -0.2575 O   0  0  0  0  0  0  0  0  0  0  0  0
   -0.0687   -0.7890    0.6597 C   0  0  0  0  0  0  0  0  0  0  0  0
   -1.1444    0.1401    0.1406 C   0  0  0  0  0  0  0  0  0  0  0  0
   -0.7119    1.5656   -0.0368 C   0  0  0  0  0  0  0  0  0  0  0  0
   -1.0271    0.6732   -1.2419 C   0  0  0  0  0  0  0  0  0  0  0  0
   -2.2311    1.1030   -2.0190 C   0  0  0  0  0  0  0  0  0  0  0  0
    3.3147   -0.3654    3.3927 H   0  0  0  0  0  0  0  0  0  0  0  0
    2.7765   -1.5820   -0.6907 H   0  0  0  0  0  0  0  0  0  0  0  0
    1.6470   -2.6392    0.2428 H   0  0  0  0  0  0  0  0  0  0  0  0
    0.2907   -0.3862    1.6270 H   0  0  0  0  0  0  0  0  0  0  0  0
   -0.4142   -1.8409    0.7388 H   0  0  0  0  0  0  0  0  0  0  0  0
   -2.1777    0.0007    0.5188 H   0  0  0  0  0  0  0  0  0  0  0  0
    0.3518    1.8468    0.0658 H   0  0  0  0  0  0  0  0  0  0  0  0
   -1.4161    2.3954    0.1943 H   0  0  0  0  0  0  0  0  0  0  0  0
   -0.1473    0.3500   -1.8558 H   0  0  0  0  0  0  0  0  0  0  0  0
   -1.8538    1.7660   -2.8523 H   0  0  0  0  0  0  0  0  0  0  0  0
   -2.7813    0.2537   -2.4863 H   0  0  0  0  0  0  0  0  0  0  0  0
   -2.9075    1.7237   -1.3969 H   0  0  0  0  0  0  0  0  0  0  0  0
  1  2  3  0
  2  3  1  0
  3  4  1  0
  4  5  1  0
  5  6  1  0
  6  7  1  0
  7  8  1  0
  8  9  1  0
  8  6  1  0
  1 10  1  0
  3 11  1  0
  3 12  1  0
  5 13  1  0
  5 14  1  0
  6 15  1  0
  7 16  1  0
  7 17  1  0
  8 18  1  0
  9 19  1  0
  9 20  1  0
  9 21  1  0
M  END
