
     RDKit          3D

 19 19  0  0  0  0  0  0  0  0999 V2000
    3.3536    0.5603   -1.0195 C   0  0  0  0  0  0  0  0  0  0  0  0
    2.1525    0.6472   -0.8654 C   0  0  0  0  0  0  0  0  0  0  0  0
    0.7286    0.7753   -0.6829 C   0  0  0  0  0  0  0  0  0  0  0  0
    0.1366    1.9000   -1.2317 O   0  0  0  0  0  0  0  0  0  0  0  0
    0.2460    0.6156    0.7655 C   0  0  0  0  0  0  0  0  0  0  0  0
   -0.9647   -0.1106    0.1742 C   0  0  0  0  0  0  0  0  0  0  0  0
   -1.4270   -1.2757    1.0176 C   0  0  0  0  0  0  0  0  0  0  0  0
   -2.5243   -1.8471    0.3780 O   0  0  0  0  0  0  0  0  0  0  0  0
   -0.0704   -0.4980   -0.9847 C   0  0  0  0  0  0  0  0  0  0  0  0
    4.4007    0.4987   -1.1653 H   0  0  0  0  0  0  0  0  0  0  0  0
    0.1889    2.6440   -0.5677 H   0  0  0  0  0  0  0  0  0  0  0  0
    0.9073   -0.0671    1.3594 H   0  0  0  0  0  0  0  0  0  0  0  0
    0.0002    1.5601    1.2516 H   0  0  0  0  0  0  0  0  0  0  0  0
   -1.7592    0.6011   -0.0721 H   0  0  0  0  0  0  0  0  0  0  0  0
   -1.7691   -0.9500    2.0207 H   0  0  0  0  0  0  0  0  0  0  0  0
   -0.6119   -1.9954    1.1814 H   0  0  0  0  0  0  0  0  0  0  0  0
   -3.0070   -1.1560   -0.1739 H   0  0  0  0  0  0  0  0  0  0  0  0
    0.5520   -1.3670   -0.6793 H   0  0  0  0  0  0  0  0  0  0  0  0
   -0.5327   -0.5353   -1.9682 H   0  0  0  0  0  0  0  0  0  0  0  0
  1  2  3  0
  2  3  1  0
  3  4  1  0
  3  5  1  0
  5  6  1  0
  6  7  1  0
  7  8  1  0
  6  9  1  0
  9  3  1  0
  1 10  1  0
  4 11  1  0
  5 12  1  0
  5 13  1  0
  6 14  1  0
  7 15  1  0
  7 16  1  0
  8 17  1  0
  9 18  1  0
  9 19  1  0
M  END
