
     RDKit          3D

 19 19  0  0  0  0  0  0  0  0999 V2000
   -0.7421    2.4538    1.6041 C   0  0  0  0  0  0  0  0  0  0  0  0
   -0.5499    1.4209    1.0278 C   0  0  0  0  0  0  0  0  0  0  0  0
   -0.3332    0.1494    0.3391 C   0  0  0  0  0  0  0  0  0  0  0  0
   -1.5541   -0.3986   -0.3485 C   0  0  0  0  0  0  0  0  0  0  0  0
    0.3874   -0.8316    1.2396 C   0  0  0  0  0  0  0  0  0  0  0  0
    1.2096   -1.2225    0.0147 C   0  0  0  0  0  0  0  0  0  0  0  0
    0.9143    0.1768   -0.5170 C   0  0  0  0  0  0  0  0  0  0  0  0
    0.6961    0.2518   -1.9647 C   0  0  0  0  0  0  0  0  0  0  0  0
   -0.2814    0.7320   -2.5081 O   0  0  0  0  0  0  0  0  0  0  0  0
   -0.9309    3.3819    2.1163 H   0  0  0  0  0  0  0  0  0  0  0  0
   -2.1471   -0.9450    0.4227 H   0  0  0  0  0  0  0  0  0  0  0  0
   -2.1728    0.4163   -0.7332 H   0  0  0  0  0  0  0  0  0  0  0  0
   -1.2978   -1.0583   -1.2023 H   0  0  0  0  0  0  0  0  0  0  0  0
   -0.2790   -1.6322    1.6178 H   0  0  0  0  0  0  0  0  0  0  0  0
    0.9723   -0.4093    2.0526 H   0  0  0  0  0  0  0  0  0  0  0  0
    0.7638   -1.9742   -0.6327 H   0  0  0  0  0  0  0  0  0  0  0  0
    2.2865   -1.3178    0.2480 H   0  0  0  0  0  0  0  0  0  0  0  0
    1.5970    0.9569   -0.1587 H   0  0  0  0  0  0  0  0  0  0  0  0
    1.4614   -0.1504   -2.6174 H   0  0  0  0  0  0  0  0  0  0  0  0
  1  2  3  0
  2  3  1  0
  3  4  1  0
  3  5  1  0
  5  6  1  0
  6  7  1  0
  7  8  1  0
  8  9  2  0
  7  3  1  0
  1 10  1  0
  4 11  1  0
  4 12  1  0
  4 13  1  0
  5 14  1  0
  5 15  1  0
  6 16  1  0
  6 17  1  0
  7 18  1  0
  8 19  1  0
M  END
