
     RDKit          3D

 15 15  0  0  0  0  0  0  0  0999 V2000
    2.2243   -1.6129   -0.6506 C   0  0  0  0  0  0  0  0  0  0  0  0
    1.4024   -1.0711    0.0466 C   0  0  0  0  0  0  0  0  0  0  0  0
    0.3906   -0.3974    0.8948 C   0  0  0  0  0  0  0  0  0  0  0  0
    0.9771    0.6855    1.5482 O   0  0  0  0  0  0  0  0  0  0  0  0
    0.3970    1.8453    1.0993 C   0  0  0  0  0  0  0  0  0  0  0  0
    0.6742    3.0502    1.4695 O   0  0  0  0  0  0  0  0  0  0  0  0
   -0.6045    1.4716    0.1143 C   0  0  0  0  0  0  0  0  0  0  0  0
   -0.6133    0.1638   -0.0098 C   0  0  0  0  0  0  0  0  0  0  0  0
   -1.4913   -0.6216   -0.9139 C   0  0  0  0  0  0  0  0  0  0  0  0
    2.9484   -2.0750   -1.2749 H   0  0  0  0  0  0  0  0  0  0  0  0
   -0.0133   -1.1671    1.5833 H   0  0  0  0  0  0  0  0  0  0  0  0
   -1.2250    2.2147   -0.4098 H   0  0  0  0  0  0  0  0  0  0  0  0
   -1.9673    0.0627   -1.6438 H   0  0  0  0  0  0  0  0  0  0  0  0
   -2.2356   -1.2146   -0.3337 H   0  0  0  0  0  0  0  0  0  0  0  0
   -0.8636   -1.3342   -1.5194 H   0  0  0  0  0  0  0  0  0  0  0  0
  1  2  3  0
  2  3  1  0
  3  4  1  0
  4  5  1  0
  5  6  2  0
  5  7  1  0
  7  8  2  0
  8  9  1  0
  8  3  1  0
  1 10  1  0
  3 11  1  0
  7 12  1  0
  9 13  1  0
  9 14  1  0
  9 15  1  0
M  END
