
     RDKit          3D

 17 17  0  0  0  0  0  0  0  0999 V2000
    3.5101   -0.8182   -0.1933 C   0  0  0  0  0  0  0  0  0  0  0  0
    2.0893   -0.7280   -0.6452 C   0  0  0  0  0  0  0  0  0  0  0  0
    0.8113   -0.6315   -1.0333 C   0  0  0  0  0  0  0  0  0  0  0  0
   -0.1522   -1.3904   -0.5816 O   0  0  0  0  0  0  0  0  0  0  0  0
   -0.1587   -0.1511    0.0544 C   0  0  0  0  0  0  0  0  0  0  0  0
    0.4095   -0.2556    1.4854 C   0  0  0  0  0  0  0  0  0  0  0  0
   -1.0753    0.8777   -0.2898 C   0  0  0  0  0  0  0  0  0  0  0  0
   -2.5871    0.7361   -0.3277 C   0  0  0  0  0  0  0  0  0  0  0  0
   -0.6464    1.9858   -0.5607 O   0  0  0  0  0  0  0  0  0  0  0  0
    4.2248   -0.8739    0.0430 H   0  0  0  0  0  0  0  0  0  0  0  0
    0.6080   -0.2074   -2.1057 H   0  0  0  0  0  0  0  0  0  0  0  0
    0.8438    0.7581    1.7403 H   0  0  0  0  0  0  0  0  0  0  0  0
    1.3274   -0.9122    1.4264 H   0  0  0  0  0  0  0  0  0  0  0  0
   -0.2637   -0.6685    2.2102 H   0  0  0  0  0  0  0  0  0  0  0  0
   -2.9043   -0.2451   -0.6947 H   0  0  0  0  0  0  0  0  0  0  0  0
   -2.9633    1.4651   -1.1217 H   0  0  0  0  0  0  0  0  0  0  0  0
   -3.0732    1.0589    0.5939 H   0  0  0  0  0  0  0  0  0  0  0  0
  1  2  3  0
  2  3  1  0
  3  4  1  0
  4  5  1  0
  5  6  1  0
  5  7  1  0
  7  8  1  0
  7  9  2  0
  5  3  1  0
  1 10  1  0
  3 11  1  0
  6 12  1  0
  6 13  1  0
  6 14  1  0
  8 15  1  0
  8 16  1  0
  8 17  1  0
M  END
