
     RDKit          3D

 17 18  0  0  0  0  0  0  0  0999 V2000
    0.5716   -2.6242    1.5611 C   0  0  0  0  0  0  0  0  0  0  0  0
    0.5148   -1.7556    0.7250 C   0  0  0  0  0  0  0  0  0  0  0  0
    0.4267   -0.7055   -0.2648 C   0  0  0  0  0  0  0  0  0  0  0  0
   -0.7905   -0.9193   -1.1220 C   0  0  0  0  0  0  0  0  0  0  0  0
   -1.5154    0.1759   -1.1841 C   0  0  0  0  0  0  0  0  0  0  0  0
   -0.9142    1.2798   -0.3944 C   0  0  0  0  0  0  0  0  0  0  0  0
    0.1781    0.6111    0.3714 C   0  0  0  0  0  0  0  0  0  0  0  0
    1.3203    1.4260    0.8749 C   0  0  0  0  0  0  0  0  0  0  0  0
    0.3563    0.8219    1.7221 O   0  0  0  0  0  0  0  0  0  0  0  0
    0.6047   -3.3889    2.3073 H   0  0  0  0  0  0  0  0  0  0  0  0
    1.2977   -0.7152   -0.9724 H   0  0  0  0  0  0  0  0  0  0  0  0
   -1.0670   -1.8463   -1.6390 H   0  0  0  0  0  0  0  0  0  0  0  0
   -2.4406    0.2823   -1.7376 H   0  0  0  0  0  0  0  0  0  0  0  0
   -1.6132    1.7898    0.2639 H   0  0  0  0  0  0  0  0  0  0  0  0
   -0.4642    2.0616   -1.0659 H   0  0  0  0  0  0  0  0  0  0  0  0
    1.2106    2.5362    0.7106 H   0  0  0  0  0  0  0  0  0  0  0  0
    2.3243    0.9703    0.8461 H   0  0  0  0  0  0  0  0  0  0  0  0
  1  2  3  0
  2  3  1  0
  3  4  1  0
  4  5  2  0
  5  6  1  0
  6  7  1  0
  7  8  1  0
  8  9  1  0
  7  3  1  0
  9  7  1  0
  1 10  1  0
  3 11  1  0
  4 12  1  0
  5 13  1  0
  6 14  1  0
  6 15  1  0
  8 16  1  0
  8 17  1  0
M  END
