
     RDKit          3D

 17 17  0  0  0  0  0  0  0  0999 V2000
    3.5564    0.5194   -0.4314 C   0  0  0  0  0  0  0  0  0  0  0  0
    2.4568    0.1237   -0.0747 C   0  0  0  0  0  0  0  0  0  0  0  0
    1.1478   -0.3631    0.3464 C   0  0  0  0  0  0  0  0  0  0  0  0
    0.5631   -1.3256   -0.6193 C   0  0  0  0  0  0  0  0  0  0  0  0
   -0.7513   -1.1411   -0.5957 C   0  0  0  0  0  0  0  0  0  0  0  0
   -0.9722   -0.0427    0.4057 C   0  0  0  0  0  0  0  0  0  0  0  0
   -2.1653    0.8070    0.0395 C   0  0  0  0  0  0  0  0  0  0  0  0
   -1.9463    1.2209   -1.2972 O   0  0  0  0  0  0  0  0  0  0  0  0
    0.2209    0.6736    0.3112 O   0  0  0  0  0  0  0  0  0  0  0  0
    4.5062    0.8673   -0.7523 H   0  0  0  0  0  0  0  0  0  0  0  0
    1.1621   -0.8095    1.3547 H   0  0  0  0  0  0  0  0  0  0  0  0
    1.1473   -2.0189   -1.2011 H   0  0  0  0  0  0  0  0  0  0  0  0
   -1.4734   -1.6729   -1.1745 H   0  0  0  0  0  0  0  0  0  0  0  0
   -1.0757   -0.5431    1.3861 H   0  0  0  0  0  0  0  0  0  0  0  0
   -2.1628    1.7055    0.6902 H   0  0  0  0  0  0  0  0  0  0  0  0
   -3.0678    0.1945    0.1180 H   0  0  0  0  0  0  0  0  0  0  0  0
   -1.1458    1.8050   -1.2798 H   0  0  0  0  0  0  0  0  0  0  0  0
  1  2  3  0
  2  3  1  0
  3  4  1  0
  4  5  2  0
  5  6  1  0
  6  7  1  0
  7  8  1  0
  6  9  1  0
  9  3  1  0
  1 10  1  0
  3 11  1  0
  4 12  1  0
  5 13  1  0
  6 14  1  0
  7 15  1  0
  7 16  1  0
  8 17  1  0
M  END
