
     RDKit          3D

 19 18  0  0  0  0  0  0  0  0999 V2000
    1.9304    2.2425    0.4877 C   0  0  0  0  0  0  0  0  0  0  0  0
    1.1371    1.3574    0.2809 C   0  0  0  0  0  0  0  0  0  0  0  0
    0.1597    0.2722    0.0139 C   0  0  0  0  0  0  0  0  0  0  0  0
    0.7184   -1.0348    0.5134 C   0  0  0  0  0  0  0  0  0  0  0  0
    1.0017   -1.0251    1.9859 C   0  0  0  0  0  0  0  0  0  0  0  0
    0.0336    0.1930   -1.3720 O   0  0  0  0  0  0  0  0  0  0  0  0
   -1.2326    0.4860   -1.8273 C   0  0  0  0  0  0  0  0  0  0  0  0
   -2.2863   -0.4109   -1.2994 C   0  0  0  0  0  0  0  0  0  0  0  0
   -3.4322   -0.2105   -1.6599 O   0  0  0  0  0  0  0  0  0  0  0  0
    2.6319    3.0199    0.6883 H   0  0  0  0  0  0  0  0  0  0  0  0
   -0.7983    0.5564    0.4930 H   0  0  0  0  0  0  0  0  0  0  0  0
    0.0227   -1.8558    0.2989 H   0  0  0  0  0  0  0  0  0  0  0  0
    1.7003   -1.1707   -0.0180 H   0  0  0  0  0  0  0  0  0  0  0  0
    1.5824   -1.9494    2.2132 H   0  0  0  0  0  0  0  0  0  0  0  0
    0.0612   -1.0635    2.5696 H   0  0  0  0  0  0  0  0  0  0  0  0
    1.5518   -0.1054    2.2934 H   0  0  0  0  0  0  0  0  0  0  0  0
   -1.4803    1.5533   -1.5879 H   0  0  0  0  0  0  0  0  0  0  0  0
   -1.2078    0.3621   -2.9369 H   0  0  0  0  0  0  0  0  0  0  0  0
   -2.0935   -1.2166   -0.6252 H   0  0  0  0  0  0  0  0  0  0  0  0
  1  2  3  0
  2  3  1  0
  3  4  1  0
  4  5  1  0
  3  6  1  0
  6  7  1  0
  7  8  1  0
  8  9  2  0
  1 10  1  0
  3 11  1  0
  4 12  1  0
  4 13  1  0
  5 14  1  0
  5 15  1  0
  5 16  1  0
  7 17  1  0
  7 18  1  0
  8 19  1  0
M  END
