
     RDKit          3D

 19 18  0  0  0  0  0  0  0  0999 V2000
    0.1636    2.1087    1.3051 C   0  0  0  0  0  0  0  0  0  0  0  0
    0.1846    1.3300    0.6446 C   0  0  0  0  0  0  0  0  0  0  0  0
    0.2046    0.2588   -0.2343 C   0  0  0  0  0  0  0  0  0  0  0  0
    1.3228   -0.4362   -0.5552 O   0  0  0  0  0  0  0  0  0  0  0  0
    2.4186    0.3821   -0.0790 C   0  0  0  0  0  0  0  0  0  0  0  0
   -1.1770   -0.3693   -0.6209 C   0  0  0  0  0  0  0  0  0  0  0  0
   -1.2834   -0.4065   -1.9322 O   0  0  0  0  0  0  0  0  0  0  0  0
   -1.1451   -1.7758   -0.0207 C   0  0  0  0  0  0  0  0  0  0  0  0
   -1.4842   -1.5457    1.4081 O   0  0  0  0  0  0  0  0  0  0  0  0
    0.1170    3.0779    2.1274 H   0  0  0  0  0  0  0  0  0  0  0  0
    0.2952    1.0202   -1.3353 H   0  0  0  0  0  0  0  0  0  0  0  0
    2.3995    1.4256   -0.3111 H   0  0  0  0  0  0  0  0  0  0  0  0
    3.3642   -0.0875   -0.2988 H   0  0  0  0  0  0  0  0  0  0  0  0
    2.2798    0.1364    1.0734 H   0  0  0  0  0  0  0  0  0  0  0  0
   -1.9787    0.0862   -0.0865 H   0  0  0  0  0  0  0  0  0  0  0  0
   -2.1527   -0.0443   -2.3406 H   0  0  0  0  0  0  0  0  0  0  0  0
   -1.8478   -2.4859   -0.3581 H   0  0  0  0  0  0  0  0  0  0  0  0
   -0.1040   -2.1611    0.1373 H   0  0  0  0  0  0  0  0  0  0  0  0
   -1.5768   -0.5136    1.4767 H   0  0  0  0  0  0  0  0  0  0  0  0
  1  2  3  0
  2  3  1  0
  3  4  1  0
  4  5  1  0
  3  6  1  0
  6  7  1  0
  6  8  1  0
  8  9  1  0
  1 10  1  0
  3 11  1  0
  5 12  1  0
  5 13  1  0
  5 14  1  0
  6 15  1  0
  7 16  1  0
  8 17  1  0
  8 18  1  0
  9 19  1  0
M  END
