
     RDKit          3D

 17 16  0  0  0  0  0  0  0  0999 V2000
   -2.3079   -1.5375    1.0102 C   0  0  0  0  0  0  0  0  0  0  0  0
   -1.4384   -0.7440    0.4718 C   0  0  0  0  0  0  0  0  0  0  0  0
   -0.5002    0.0959   -0.0931 C   0  0  0  0  0  0  0  0  0  0  0  0
    0.7573   -0.7863    0.6113 O   0  0  0  0  0  0  0  0  0  0  0  0
   -0.1056    1.2901    0.6231 C   0  0  0  0  0  0  0  0  0  0  0  0
   -0.2465    1.0860    2.0517 O   0  0  0  0  0  0  0  0  0  0  0  0
   -0.0109   -0.0813   -1.4690 C   0  0  0  0  0  0  0  0  0  0  0  0
    1.4540   -0.5142   -1.7087 C   0  0  0  0  0  0  0  0  0  0  0  0
   -0.6668    0.0938   -2.4563 O   0  0  0  0  0  0  0  0  0  0  0  0
   -2.9940   -2.1802    1.4323 H   0  0  0  0  0  0  0  0  0  0  0  0
    0.4177   -0.6648    1.5217 H   0  0  0  0  0  0  0  0  0  0  0  0
   -0.5635    2.2302    0.3539 H   0  0  0  0  0  0  0  0  0  0  0  0
    1.0477    1.4804    0.5228 H   0  0  0  0  0  0  0  0  0  0  0  0
   -0.1705    2.0333    2.4479 H   0  0  0  0  0  0  0  0  0  0  0  0
    1.9312    0.3788   -2.1485 H   0  0  0  0  0  0  0  0  0  0  0  0
    1.4629   -1.3745   -2.4140 H   0  0  0  0  0  0  0  0  0  0  0  0
    1.9335   -0.8055   -0.7568 H   0  0  0  0  0  0  0  0  0  0  0  0
  1  2  3  0
  2  3  1  0
  3  4  1  0
  3  5  1  0
  5  6  1  0
  3  7  1  0
  7  8  1  0
  7  9  2  0
  1 10  1  0
  4 11  1  0
  5 12  1  0
  5 13  1  0
  6 14  1  0
  8 15  1  0
  8 16  1  0
  8 17  1  0
M  END
