
     RDKit          3D

 13 13  0  0  0  0  0  0  0  0999 V2000
    2.7240    1.8601   -1.5235 C   0  0  0  0  0  0  0  0  0  0  0  0
    1.6418    1.2297   -1.3834 C   0  0  0  0  0  0  0  0  0  0  0  0
    0.4473    0.5154   -1.2447 C   0  0  0  0  0  0  0  0  0  0  0  0
   -0.3620    0.1862   -2.1488 O   0  0  0  0  0  0  0  0  0  0  0  0
    0.0623    0.0847    0.0947 C   0  0  0  0  0  0  0  0  0  0  0  0
    0.7386    0.4309    1.1154 O   0  0  0  0  0  0  0  0  0  0  0  0
   -1.0952   -0.7446    0.3188 C   0  0  0  0  0  0  0  0  0  0  0  0
   -1.4314   -1.3165    1.6739 C   0  0  0  0  0  0  0  0  0  0  0  0
   -2.1308   -0.1777    1.2235 O   0  0  0  0  0  0  0  0  0  0  0  0
    3.5972    2.3817   -1.6351 H   0  0  0  0  0  0  0  0  0  0  0  0
   -1.6193   -1.0855   -0.5948 H   0  0  0  0  0  0  0  0  0  0  0  0
   -1.8618   -2.3084    1.6205 H   0  0  0  0  0  0  0  0  0  0  0  0
   -0.7107   -1.0558    2.4833 H   0  0  0  0  0  0  0  0  0  0  0  0
  1  2  3  0
  2  3  1  0
  3  4  2  0
  3  5  1  0
  5  6  2  0
  5  7  1  0
  7  8  1  0
  8  9  1  0
  9  7  1  0
  1 10  1  0
  7 11  1  0
  8 12  1  0
  8 13  1  0
M  END
