
     RDKit          3D

 19 18  0  0  0  0  0  0  0  0999 V2000
    0.0172    3.0365    0.1477 C   0  0  0  0  0  0  0  0  0  0  0  0
    0.1111    1.8701    0.4287 C   0  0  0  0  0  0  0  0  0  0  0  0
    0.2225    0.4369    0.7486 C   0  0  0  0  0  0  0  0  0  0  0  0
   -1.0404   -0.2459    0.4081 C   0  0  0  0  0  0  0  0  0  0  0  0
   -2.0828   -0.8155    0.1050 C   0  0  0  0  0  0  0  0  0  0  0  0
   -3.3350   -1.4726   -0.2653 C   0  0  0  0  0  0  0  0  0  0  0  0
    1.2882   -0.2476   -0.0944 C   0  0  0  0  0  0  0  0  0  0  0  0
    2.6512    0.3414    0.1055 C   0  0  0  0  0  0  0  0  0  0  0  0
    1.3382   -1.5714    0.3558 O   0  0  0  0  0  0  0  0  0  0  0  0
   -0.0829    4.0871   -0.0947 H   0  0  0  0  0  0  0  0  0  0  0  0
    0.4495    0.3357    1.8313 H   0  0  0  0  0  0  0  0  0  0  0  0
   -4.1719   -0.7853    0.0522 H   0  0  0  0  0  0  0  0  0  0  0  0
   -3.4191   -1.6523   -1.3523 H   0  0  0  0  0  0  0  0  0  0  0  0
   -3.4783   -2.4311    0.2616 H   0  0  0  0  0  0  0  0  0  0  0  0
    0.9661   -0.2002   -1.1487 H   0  0  0  0  0  0  0  0  0  0  0  0
    2.8252    1.2624   -0.4780 H   0  0  0  0  0  0  0  0  0  0  0  0
    3.4180   -0.4011   -0.1935 H   0  0  0  0  0  0  0  0  0  0  0  0
    2.8498    0.5945    1.1667 H   0  0  0  0  0  0  0  0  0  0  0  0
    1.4734   -2.1417   -0.4309 H   0  0  0  0  0  0  0  0  0  0  0  0
  1  2  3  0
  2  3  1  0
  3  4  1  0
  4  5  3  0
  5  6  1  0
  3  7  1  0
  7  8  1  0
  7  9  1  0
  1 10  1  0
  3 11  1  0
  6 12  1  0
  6 13  1  0
  6 14  1  0
  7 15  1  0
  8 16  1  0
  8 17  1  0
  8 18  1  0
  9 19  1  0
M  END
