
     RDKit          3D

 17 18  0  0  0  0  0  0  0  0999 V2000
    3.0680   -0.3908   -1.3576 C   0  0  0  0  0  0  0  0  0  0  0  0
    1.9422   -0.2157   -1.0057 C   0  0  0  0  0  0  0  0  0  0  0  0
    0.5708   -0.0015   -0.5503 C   0  0  0  0  0  0  0  0  0  0  0  0
   -0.4861   -1.0180   -0.9447 C   0  0  0  0  0  0  0  0  0  0  0  0
    0.0593   -0.9701    0.4208 C   0  0  0  0  0  0  0  0  0  0  0  0
   -0.6780   -0.3909    1.5596 C   0  0  0  0  0  0  0  0  0  0  0  0
   -1.1997    0.8184    1.4235 C   0  0  0  0  0  0  0  0  0  0  0  0
   -1.0309    1.5511    0.1433 C   0  0  0  0  0  0  0  0  0  0  0  0
    0.1498    1.2864   -0.4848 O   0  0  0  0  0  0  0  0  0  0  0  0
    4.0630   -0.5622   -1.6738 H   0  0  0  0  0  0  0  0  0  0  0  0
   -0.1028   -1.7938   -1.6379 H   0  0  0  0  0  0  0  0  0  0  0  0
   -1.5350   -0.7124   -1.0801 H   0  0  0  0  0  0  0  0  0  0  0  0
    0.7177   -1.8265    0.7060 H   0  0  0  0  0  0  0  0  0  0  0  0
   -0.8012   -0.9201    2.4877 H   0  0  0  0  0  0  0  0  0  0  0  0
   -1.7465    1.2770    2.2341 H   0  0  0  0  0  0  0  0  0  0  0  0
   -1.1303    2.6480    0.3108 H   0  0  0  0  0  0  0  0  0  0  0  0
   -1.8601    1.2212   -0.5507 H   0  0  0  0  0  0  0  0  0  0  0  0
  1  2  3  0
  2  3  1  0
  3  4  1  0
  4  5  1  0
  5  6  1  0
  6  7  2  0
  7  8  1  0
  8  9  1  0
  5  3  1  0
  9  3  1  0
  1 10  1  0
  4 11  1  0
  4 12  1  0
  5 13  1  0
  6 14  1  0
  7 15  1  0
  8 16  1  0
  8 17  1  0
M  END
