
     RDKit          3D

 18 18  0  0  0  0  0  0  0  0999 V2000
   -2.6237   -1.5264    0.1165 C   0  0  0  0  0  0  0  0  0  0  0  0
   -1.6778   -0.8050    0.3427 C   0  0  0  0  0  0  0  0  0  0  0  0
   -0.5106    0.0545    0.6106 C   0  0  0  0  0  0  0  0  0  0  0  0
    0.3165    0.4869   -0.5585 C   0  0  0  0  0  0  0  0  0  0  0  0
    0.8433   -0.5891   -1.2261 O   0  0  0  0  0  0  0  0  0  0  0  0
    1.6142   -0.1722   -2.3169 C   0  0  0  0  0  0  0  0  0  0  0  0
   -0.5812    0.9765    1.8332 C   0  0  0  0  0  0  0  0  0  0  0  0
    0.2630   -0.2251    1.9148 C   0  0  0  0  0  0  0  0  0  0  0  0
   -3.4397   -2.1718   -0.0812 H   0  0  0  0  0  0  0  0  0  0  0  0
    1.1216    1.1640   -0.1737 H   0  0  0  0  0  0  0  0  0  0  0  0
   -0.2580    1.1184   -1.2842 H   0  0  0  0  0  0  0  0  0  0  0  0
    2.0461   -1.0345   -2.8632 H   0  0  0  0  0  0  0  0  0  0  0  0
    2.3936    0.5499   -1.9998 H   0  0  0  0  0  0  0  0  0  0  0  0
    0.9257    0.3793   -3.0120 H   0  0  0  0  0  0  0  0  0  0  0  0
   -1.5248    0.9518    2.4131 H   0  0  0  0  0  0  0  0  0  0  0  0
   -0.1619    1.9840    1.6372 H   0  0  0  0  0  0  0  0  0  0  0  0
   -0.1076   -1.0881    2.4870 H   0  0  0  0  0  0  0  0  0  0  0  0
    1.3612   -0.0532    1.8601 H   0  0  0  0  0  0  0  0  0  0  0  0
  1  2  3  0
  2  3  1  0
  3  4  1  0
  4  5  1  0
  5  6  1  0
  3  7  1  0
  7  8  1  0
  8  3  1  0
  1  9  1  0
  4 10  1  0
  4 11  1  0
  6 12  1  0
  6 13  1  0
  6 14  1  0
  7 15  1  0
  7 16  1  0
  8 17  1  0
  8 18  1  0
M  END
