
     RDKit          3D

 18 19  0  0  0  0  0  0  0  0999 V2000
    2.8441    0.4325    0.9170 C   0  0  0  0  0  0  0  0  0  0  0  0
    1.7543    0.0767    0.5814 C   0  0  0  0  0  0  0  0  0  0  0  0
    0.5367   -0.2965    0.2071 C   0  0  0  0  0  0  0  0  0  0  0  0
   -0.1904   -1.5294    0.6772 C   0  0  0  0  0  0  0  0  0  0  0  0
   -1.1385   -0.8673   -0.2951 C   0  0  0  0  0  0  0  0  0  0  0  0
    0.0795   -0.6644   -1.1664 C   0  0  0  0  0  0  0  0  0  0  0  0
   -0.7428    0.4185    0.3823 C   0  0  0  0  0  0  0  0  0  0  0  0
   -0.9642    1.6726   -0.3834 C   0  0  0  0  0  0  0  0  0  0  0  0
    3.8331    0.7674    1.2068 H   0  0  0  0  0  0  0  0  0  0  0  0
   -0.5821   -1.4618    1.7144 H   0  0  0  0  0  0  0  0  0  0  0  0
    0.2392   -2.4803    0.3716 H   0  0  0  0  0  0  0  0  0  0  0  0
   -2.0451   -1.1706   -0.5700 H   0  0  0  0  0  0  0  0  0  0  0  0
   -0.0036    0.1453   -1.9005 H   0  0  0  0  0  0  0  0  0  0  0  0
    0.5308   -1.6050   -1.5082 H   0  0  0  0  0  0  0  0  0  0  0  0
   -1.0770    0.4129    1.4413 H   0  0  0  0  0  0  0  0  0  0  0  0
   -1.1185    2.5165    0.3452 H   0  0  0  0  0  0  0  0  0  0  0  0
   -0.0836    1.9882   -1.0033 H   0  0  0  0  0  0  0  0  0  0  0  0
   -1.8720    1.6446   -1.0173 H   0  0  0  0  0  0  0  0  0  0  0  0
  1  2  3  0
  2  3  1  0
  3  4  1  0
  4  5  1  0
  5  6  1  0
  5  7  1  0
  7  8  1  0
  6  3  1  0
  7  3  1  0
  1  9  1  0
  4 10  1  0
  4 11  1  0
  5 12  1  0
  6 13  1  0
  6 14  1  0
  7 15  1  0
  8 16  1  0
  8 17  1  0
  8 18  1  0
M  END
