
     RDKit          3D

 19 19  0  0  0  0  0  0  0  0999 V2000
    2.8065    1.0731   -0.5639 C   0  0  0  0  0  0  0  0  0  0  0  0
    1.7940    0.5299   -0.8842 C   0  0  0  0  0  0  0  0  0  0  0  0
    0.5384   -0.1270   -1.2607 C   0  0  0  0  0  0  0  0  0  0  0  0
    0.3725   -1.5246   -0.7007 C   0  0  0  0  0  0  0  0  0  0  0  0
   -1.0938   -1.1363   -0.4536 C   0  0  0  0  0  0  0  0  0  0  0  0
   -0.5685    0.3040   -0.3577 C   0  0  0  0  0  0  0  0  0  0  0  0
   -0.1900    0.6260    1.0651 C   0  0  0  0  0  0  0  0  0  0  0  0
   -1.4426    1.0359    1.7671 C   0  0  0  0  0  0  0  0  0  0  0  0
   -2.3142    0.2861    2.1223 O   0  0  0  0  0  0  0  0  0  0  0  0
    3.6997    1.5686   -0.2670 H   0  0  0  0  0  0  0  0  0  0  0  0
    0.2617   -0.1056   -2.3203 H   0  0  0  0  0  0  0  0  0  0  0  0
    0.9401   -1.6483    0.2422 H   0  0  0  0  0  0  0  0  0  0  0  0
    0.4972   -2.3254   -1.4546 H   0  0  0  0  0  0  0  0  0  0  0  0
   -1.7597   -1.3169   -1.2981 H   0  0  0  0  0  0  0  0  0  0  0  0
   -1.4982   -1.4854    0.5114 H   0  0  0  0  0  0  0  0  0  0  0  0
   -1.2720    0.9887   -0.8293 H   0  0  0  0  0  0  0  0  0  0  0  0
    0.5539    1.4276    1.1414 H   0  0  0  0  0  0  0  0  0  0  0  0
    0.2377   -0.2804    1.5733 H   0  0  0  0  0  0  0  0  0  0  0  0
   -1.5628    2.1101    1.9674 H   0  0  0  0  0  0  0  0  0  0  0  0
  1  2  3  0
  2  3  1  0
  3  4  1  0
  4  5  1  0
  5  6  1  0
  6  7  1  0
  7  8  1  0
  8  9  2  0
  6  3  1  0
  1 10  1  0
  3 11  1  0
  4 12  1  0
  4 13  1  0
  5 14  1  0
  5 15  1  0
  6 16  1  0
  7 17  1  0
  7 18  1  0
  8 19  1  0
M  END
