
     RDKit          3D

 21 22  0  0  0  0  0  0  0  0999 V2000
    3.5811   -0.0035    0.3834 C   0  0  0  0  0  0  0  0  0  0  0  0
    2.3905   -0.0745    0.2117 C   0  0  0  0  0  0  0  0  0  0  0  0
    1.0160   -0.1582   -0.0006 C   0  0  0  0  0  0  0  0  0  0  0  0
    0.2204    1.0590   -0.3605 C   0  0  0  0  0  0  0  0  0  0  0  0
   -1.1495    0.3809   -0.5717 C   0  0  0  0  0  0  0  0  0  0  0  0
   -2.2243    1.0708    0.1983 C   0  0  0  0  0  0  0  0  0  0  0  0
   -0.8184   -0.9889   -0.0873 C   0  0  0  0  0  0  0  0  0  0  0  0
    0.4676   -1.2834   -0.8744 C   0  0  0  0  0  0  0  0  0  0  0  0
    0.1395   -0.7655    1.0924 C   0  0  0  0  0  0  0  0  0  0  0  0
    4.6494    0.0485    0.5267 H   0  0  0  0  0  0  0  0  0  0  0  0
    0.1085    1.6758    0.5395 H   0  0  0  0  0  0  0  0  0  0  0  0
    0.5549    1.5843   -1.2498 H   0  0  0  0  0  0  0  0  0  0  0  0
   -1.3084    0.3828   -1.6699 H   0  0  0  0  0  0  0  0  0  0  0  0
   -2.5661    0.5451    1.0964 H   0  0  0  0  0  0  0  0  0  0  0  0
   -1.9141    2.1230    0.4200 H   0  0  0  0  0  0  0  0  0  0  0  0
   -3.1212    1.1577   -0.4804 H   0  0  0  0  0  0  0  0  0  0  0  0
   -1.5395   -1.7517   -0.0080 H   0  0  0  0  0  0  0  0  0  0  0  0
    0.9469   -2.2292   -0.6339 H   0  0  0  0  0  0  0  0  0  0  0  0
    0.3118   -1.0216   -1.9208 H   0  0  0  0  0  0  0  0  0  0  0  0
   -0.2335   -0.0258    1.8223 H   0  0  0  0  0  0  0  0  0  0  0  0
    0.4885   -1.7256    1.4714 H   0  0  0  0  0  0  0  0  0  0  0  0
  1  2  3  0
  2  3  1  0
  3  4  1  0
  4  5  1  0
  5  6  1  0
  5  7  1  0
  7  8  1  0
  7  9  1  0
  8  3  1  0
  9  3  1  0
  1 10  1  0
  4 11  1  0
  4 12  1  0
  5 13  1  0
  6 14  1  0
  6 15  1  0
  6 16  1  0
  7 17  1  0
  8 18  1  0
  8 19  1  0
  9 20  1  0
  9 21  1  0
M  END
