
     RDKit          3D

 20 20  0  0  0  0  0  0  0  0999 V2000
    2.7113   -1.3793    0.7337 C   0  0  0  0  0  0  0  0  0  0  0  0
    2.0341   -0.4063    0.7506 C   0  0  0  0  0  0  0  0  0  0  0  0
    1.2020    0.7763    0.7639 C   0  0  0  0  0  0  0  0  0  0  0  0
   -0.1301    0.4379    0.1601 C   0  0  0  0  0  0  0  0  0  0  0  0
   -1.0439    1.6594    0.1532 C   0  0  0  0  0  0  0  0  0  0  0  0
   -0.7724   -0.8096    0.7037 C   0  0  0  0  0  0  0  0  0  0  0  0
   -1.2729   -1.0796   -0.7124 C   0  0  0  0  0  0  0  0  0  0  0  0
   -0.1066   -0.2048   -1.1879 C   0  0  0  0  0  0  0  0  0  0  0  0
    3.3288   -2.2625    0.7000 H   0  0  0  0  0  0  0  0  0  0  0  0
    0.9946    1.1205    1.8158 H   0  0  0  0  0  0  0  0  0  0  0  0
    1.6178    1.6309    0.2158 H   0  0  0  0  0  0  0  0  0  0  0  0
   -1.5443    1.7483    1.1470 H   0  0  0  0  0  0  0  0  0  0  0  0
   -0.5039    2.5780   -0.0690 H   0  0  0  0  0  0  0  0  0  0  0  0
   -1.8232    1.4704   -0.5913 H   0  0  0  0  0  0  0  0  0  0  0  0
   -0.0059   -1.5515    0.9893 H   0  0  0  0  0  0  0  0  0  0  0  0
   -1.5791   -0.6272    1.4389 H   0  0  0  0  0  0  0  0  0  0  0  0
   -1.1949   -2.1402   -1.0171 H   0  0  0  0  0  0  0  0  0  0  0  0
   -2.2669   -0.6367   -0.8958 H   0  0  0  0  0  0  0  0  0  0  0  0
    0.7879   -0.8054   -1.4379 H   0  0  0  0  0  0  0  0  0  0  0  0
   -0.4323    0.4813   -2.0111 H   0  0  0  0  0  0  0  0  0  0  0  0
  1  2  3  0
  2  3  1  0
  3  4  1  0
  4  5  1  0
  4  6  1  0
  6  7  1  0
  7  8  1  0
  8  4  1  0
  1  9  1  0
  3 10  1  0
  3 11  1  0
  5 12  1  0
  5 13  1  0
  5 14  1  0
  6 15  1  0
  6 16  1  0
  7 17  1  0
  7 18  1  0
  8 19  1  0
  8 20  1  0
M  END
