
     RDKit          3D

 19 20  0  0  0  0  0  0  0  0999 V2000
    1.5940    2.4826    0.5772 C   0  0  0  0  0  0  0  0  0  0  0  0
    1.0913    1.4018    0.7631 C   0  0  0  0  0  0  0  0  0  0  0  0
    0.4951    0.1037    0.9614 C   0  0  0  0  0  0  0  0  0  0  0  0
    1.0797   -0.9129    0.0061 C   0  0  0  0  0  0  0  0  0  0  0  0
    1.8257   -0.3250   -1.0329 O   0  0  0  0  0  0  0  0  0  0  0  0
   -0.2786   -1.3062   -0.4867 C   0  0  0  0  0  0  0  0  0  0  0  0
   -1.4281   -1.4415    0.4615 C   0  0  0  0  0  0  0  0  0  0  0  0
   -0.8257   -0.1198    0.2728 C   0  0  0  0  0  0  0  0  0  0  0  0
   -1.4235    0.9469   -0.5815 C   0  0  0  0  0  0  0  0  0  0  0  0
    2.0394    3.4306    0.4063 H   0  0  0  0  0  0  0  0  0  0  0  0
    0.4291   -0.2506    2.0141 H   0  0  0  0  0  0  0  0  0  0  0  0
    1.5849   -1.7685    0.5028 H   0  0  0  0  0  0  0  0  0  0  0  0
    2.5976   -0.9167   -1.2310 H   0  0  0  0  0  0  0  0  0  0  0  0
   -0.4768   -1.4139   -1.5648 H   0  0  0  0  0  0  0  0  0  0  0  0
   -1.1849   -2.0042    1.3862 H   0  0  0  0  0  0  0  0  0  0  0  0
   -2.4119   -1.6058   -0.0169 H   0  0  0  0  0  0  0  0  0  0  0  0
   -2.0923    0.5322   -1.3640 H   0  0  0  0  0  0  0  0  0  0  0  0
   -0.5731    1.4915   -1.0750 H   0  0  0  0  0  0  0  0  0  0  0  0
   -2.0420    1.6758    0.0014 H   0  0  0  0  0  0  0  0  0  0  0  0
  1  2  3  0
  2  3  1  0
  3  4  1  0
  4  5  1  0
  4  6  1  0
  6  7  1  0
  7  8  1  0
  8  9  1  0
  8  3  1  0
  8  6  1  0
  1 10  1  0
  3 11  1  0
  4 12  1  0
  5 13  1  0
  6 14  1  0
  7 15  1  0
  7 16  1  0
  9 17  1  0
  9 18  1  0
  9 19  1  0
M  END
