
     RDKit          3D

 15 16  0  0  0  0  0  0  0  0999 V2000
    1.2734    2.4428   -1.8519 C   0  0  0  0  0  0  0  0  0  0  0  0
    0.7840    1.3741   -1.5495 C   0  0  0  0  0  0  0  0  0  0  0  0
    0.1749    0.0147   -1.1907 C   0  0  0  0  0  0  0  0  0  0  0  0
    0.0055   -0.0127    0.2995 C   0  0  0  0  0  0  0  0  0  0  0  0
    1.1249    0.1840    1.0717 O   0  0  0  0  0  0  0  0  0  0  0  0
    0.4764   -1.0118    1.1452 C   0  0  0  0  0  0  0  0  0  0  0  0
   -0.8328   -1.0352    1.8905 C   0  0  0  0  0  0  0  0  0  0  0  0
   -1.3700   -0.1396    0.8535 C   0  0  0  0  0  0  0  0  0  0  0  0
   -2.4143    0.3443    0.5049 O   0  0  0  0  0  0  0  0  0  0  0  0
    1.6909    3.3404   -2.1241 H   0  0  0  0  0  0  0  0  0  0  0  0
   -0.7245   -0.1575   -1.7644 H   0  0  0  0  0  0  0  0  0  0  0  0
    0.9051   -0.7714   -1.4555 H   0  0  0  0  0  0  0  0  0  0  0  0
    0.9951   -1.9713    0.9393 H   0  0  0  0  0  0  0  0  0  0  0  0
   -1.2286   -2.0783    1.8896 H   0  0  0  0  0  0  0  0  0  0  0  0
   -0.8601   -0.5226    2.8769 H   0  0  0  0  0  0  0  0  0  0  0  0
  1  2  3  0
  2  3  1  0
  3  4  1  0
  4  5  1  0
  5  6  1  0
  6  7  1  0
  7  8  1  0
  8  9  2  0
  6  4  1  0
  8  4  1  0
  1 10  1  0
  3 11  1  0
  3 12  1  0
  6 13  1  0
  7 14  1  0
  7 15  1  0
M  END
