
     RDKit          3D

 21 22  0  0  0  0  0  0  0  0999 V2000
   -2.7826    2.4110   -0.0976 C   0  0  0  0  0  0  0  0  0  0  0  0
   -2.1875    1.3663    0.0799 C   0  0  0  0  0  0  0  0  0  0  0  0
   -1.4571    0.1203    0.3098 C   0  0  0  0  0  0  0  0  0  0  0  0
   -1.7742   -0.8028   -0.8377 C   0  0  0  0  0  0  0  0  0  0  0  0
    0.0096    0.3402    0.5058 C   0  0  0  0  0  0  0  0  0  0  0  0
    0.8850   -0.8098    0.7477 C   0  0  0  0  0  0  0  0  0  0  0  0
    2.3511   -0.4980    0.9586 C   0  0  0  0  0  0  0  0  0  0  0  0
    2.3977   -0.0085   -0.4702 C   0  0  0  0  0  0  0  0  0  0  0  0
    0.9163   -0.0480   -0.5915 C   0  0  0  0  0  0  0  0  0  0  0  0
   -3.3096    3.3263   -0.2561 H   0  0  0  0  0  0  0  0  0  0  0  0
   -1.9277   -0.3410    1.2258 H   0  0  0  0  0  0  0  0  0  0  0  0
   -1.4928   -0.4100   -1.8178 H   0  0  0  0  0  0  0  0  0  0  0  0
   -1.3480   -1.7929   -0.6868 H   0  0  0  0  0  0  0  0  0  0  0  0
   -2.8916   -0.9347   -0.8307 H   0  0  0  0  0  0  0  0  0  0  0  0
    0.2320    1.2550    1.1315 H   0  0  0  0  0  0  0  0  0  0  0  0
    0.5538   -1.8539    0.6981 H   0  0  0  0  0  0  0  0  0  0  0  0
    2.9966   -1.3680    1.1759 H   0  0  0  0  0  0  0  0  0  0  0  0
    2.5259    0.3606    1.6415 H   0  0  0  0  0  0  0  0  0  0  0  0
    2.8789    0.9867   -0.6049 H   0  0  0  0  0  0  0  0  0  0  0  0
    2.9097   -0.7629   -1.1029 H   0  0  0  0  0  0  0  0  0  0  0  0
    0.5144   -0.5359   -1.4766 H   0  0  0  0  0  0  0  0  0  0  0  0
  1  2  3  0
  2  3  1  0
  3  4  1  0
  3  5  1  0
  5  6  1  0
  6  7  1  0
  7  8  1  0
  8  9  1  0
  9  5  1  0
  9  6  1  0
  1 10  1  0
  3 11  1  0
  4 12  1  0
  4 13  1  0
  4 14  1  0
  5 15  1  0
  6 16  1  0
  7 17  1  0
  7 18  1  0
  8 19  1  0
  8 20  1  0
  9 21  1  0
M  END
