
     RDKit          3D

 15 15  0  0  0  0  0  0  0  0999 V2000
    3.1608   -0.9927   -1.2735 C   0  0  0  0  0  0  0  0  0  0  0  0
    2.0574   -0.5803   -1.0133 C   0  0  0  0  0  0  0  0  0  0  0  0
    0.7360   -0.1001   -0.6832 C   0  0  0  0  0  0  0  0  0  0  0  0
   -0.4057   -0.7571   -0.7246 C   0  0  0  0  0  0  0  0  0  0  0  0
   -1.4877    0.1584   -0.2953 C   0  0  0  0  0  0  0  0  0  0  0  0
   -2.0659   -0.2309    1.0129 C   0  0  0  0  0  0  0  0  0  0  0  0
   -1.9763    0.5501    1.9375 O   0  0  0  0  0  0  0  0  0  0  0  0
   -0.9215    1.4151   -0.2061 O   0  0  0  0  0  0  0  0  0  0  0  0
    0.4441    1.2695   -0.2249 C   0  0  0  0  0  0  0  0  0  0  0  0
    4.1355   -1.3401   -1.4988 H   0  0  0  0  0  0  0  0  0  0  0  0
   -0.5100   -1.7822   -1.0225 H   0  0  0  0  0  0  0  0  0  0  0  0
   -2.3469    0.1421   -1.0268 H   0  0  0  0  0  0  0  0  0  0  0  0
   -2.5536   -1.1888    1.1317 H   0  0  0  0  0  0  0  0  0  0  0  0
    0.8420    1.9940   -0.9813 H   0  0  0  0  0  0  0  0  0  0  0  0
    0.8919    1.4430    0.7744 H   0  0  0  0  0  0  0  0  0  0  0  0
  1  2  3  0
  2  3  1  0
  3  4  2  0
  4  5  1  0
  5  6  1  0
  6  7  2  0
  5  8  1  0
  8  9  1  0
  9  3  1  0
  1 10  1  0
  4 11  1  0
  5 12  1  0
  6 13  1  0
  9 14  1  0
  9 15  1  0
M  END
