
     RDKit          3D

 19 19  0  0  0  0  0  0  0  0999 V2000
   -2.3009    2.1012   -0.5317 C   0  0  0  0  0  0  0  0  0  0  0  0
   -1.7924    1.1687    0.0406 C   0  0  0  0  0  0  0  0  0  0  0  0
   -1.1445    0.0327    0.7463 C   0  0  0  0  0  0  0  0  0  0  0  0
   -1.2558   -1.1745   -0.1034 C   0  0  0  0  0  0  0  0  0  0  0  0
    0.0055   -1.9573   -0.1649 C   0  0  0  0  0  0  0  0  0  0  0  0
    1.1310   -1.2521   -0.1295 C   0  0  0  0  0  0  0  0  0  0  0  0
    0.9560    0.2252   -0.0324 C   0  0  0  0  0  0  0  0  0  0  0  0
    2.2446    0.9688    0.0694 C   0  0  0  0  0  0  0  0  0  0  0  0
    0.1451    0.3962    1.1162 O   0  0  0  0  0  0  0  0  0  0  0  0
   -2.7322    2.9300   -1.0318 H   0  0  0  0  0  0  0  0  0  0  0  0
   -1.7847   -0.1412    1.6536 H   0  0  0  0  0  0  0  0  0  0  0  0
   -1.4742   -0.8750   -1.1678 H   0  0  0  0  0  0  0  0  0  0  0  0
   -2.0994   -1.8418    0.1827 H   0  0  0  0  0  0  0  0  0  0  0  0
    0.0097   -3.0540   -0.2355 H   0  0  0  0  0  0  0  0  0  0  0  0
    2.1028   -1.7043   -0.1676 H   0  0  0  0  0  0  0  0  0  0  0  0
    0.3580    0.5418   -0.9259 H   0  0  0  0  0  0  0  0  0  0  0  0
    2.0989    1.9765   -0.4181 H   0  0  0  0  0  0  0  0  0  0  0  0
    2.4455    1.1708    1.1454 H   0  0  0  0  0  0  0  0  0  0  0  0
    3.0870    0.4883   -0.4414 H   0  0  0  0  0  0  0  0  0  0  0  0
  1  2  3  0
  2  3  1  0
  3  4  1  0
  4  5  1  0
  5  6  2  0
  6  7  1  0
  7  8  1  0
  7  9  1  0
  9  3  1  0
  1 10  1  0
  3 11  1  0
  4 12  1  0
  4 13  1  0
  5 14  1  0
  6 15  1  0
  7 16  1  0
  8 17  1  0
  8 18  1  0
  8 19  1  0
M  END
