
     RDKit          3D

 15 15  0  0  0  0  0  0  0  0999 V2000
    1.1340    0.8601   -2.7240 C   0  0  0  0  0  0  0  0  0  0  0  0
    0.5674    0.3718   -1.7920 C   0  0  0  0  0  0  0  0  0  0  0  0
   -0.1182   -0.2371   -0.6829 C   0  0  0  0  0  0  0  0  0  0  0  0
   -1.0650    0.7150   -0.0143 C   0  0  0  0  0  0  0  0  0  0  0  0
   -1.1179    0.4664    1.3099 C   0  0  0  0  0  0  0  0  0  0  0  0
   -0.2079   -0.6728    1.5991 C   0  0  0  0  0  0  0  0  0  0  0  0
    0.8103   -0.6190    0.4558 C   0  0  0  0  0  0  0  0  0  0  0  0
    1.6585    1.3218   -3.5689 H   0  0  0  0  0  0  0  0  0  0  0  0
   -0.6532   -1.1532   -1.0312 H   0  0  0  0  0  0  0  0  0  0  0  0
   -1.6368    1.4914   -0.4818 H   0  0  0  0  0  0  0  0  0  0  0  0
   -1.7403    1.0400    1.9851 H   0  0  0  0  0  0  0  0  0  0  0  0
    0.3416   -0.5991    2.5314 H   0  0  0  0  0  0  0  0  0  0  0  0
   -0.7918   -1.6188    1.4735 H   0  0  0  0  0  0  0  0  0  0  0  0
    1.5179    0.2109    0.6365 H   0  0  0  0  0  0  0  0  0  0  0  0
    1.3015   -1.5776    0.3037 H   0  0  0  0  0  0  0  0  0  0  0  0
  1  2  3  0
  2  3  1  0
  3  4  1  0
  4  5  2  0
  5  6  1  0
  6  7  1  0
  7  3  1  0
  1  8  1  0
  3  9  1  0
  4 10  1  0
  5 11  1  0
  6 12  1  0
  6 13  1  0
  7 14  1  0
  7 15  1  0
M  END
