
     RDKit          3D

 21 21  0  0  0  0  0  0  0  0999 V2000
    0.4477    2.9123   -0.1581 C   0  0  0  0  0  0  0  0  0  0  0  0
   -0.2870    1.8743   -0.3404 C   0  0  0  0  0  0  0  0  0  0  0  0
   -1.0612    0.7849   -0.5556 C   0  0  0  0  0  0  0  0  0  0  0  0
   -1.7252   -0.4268   -0.3673 C   0  0  0  0  0  0  0  0  0  0  0  0
   -2.2218   -1.1565   -1.5211 O   0  0  0  0  0  0  0  0  0  0  0  0
   -0.2401   -0.5429   -0.2205 C   0  0  0  0  0  0  0  0  0  0  0  0
    0.7033   -0.8533   -1.3358 C   0  0  0  0  0  0  0  0  0  0  0  0
    0.2605   -0.7604    1.1557 C   0  0  0  0  0  0  0  0  0  0  0  0
    1.2708    0.1417    1.7234 C   0  0  0  0  0  0  0  0  0  0  0  0
    1.0110    3.7250   -0.0305 H   0  0  0  0  0  0  0  0  0  0  0  0
   -1.0163    0.8134   -1.8803 H   0  0  0  0  0  0  0  0  0  0  0  0
   -2.4272   -0.5652    0.4493 H   0  0  0  0  0  0  0  0  0  0  0  0
   -2.3773   -2.0541   -1.0990 H   0  0  0  0  0  0  0  0  0  0  0  0
    0.5101   -1.7217   -1.9335 H   0  0  0  0  0  0  0  0  0  0  0  0
    0.8030    0.0497   -2.0132 H   0  0  0  0  0  0  0  0  0  0  0  0
    1.7551   -0.9350   -0.8852 H   0  0  0  0  0  0  0  0  0  0  0  0
    0.5434   -1.8401    1.3754 H   0  0  0  0  0  0  0  0  0  0  0  0
   -0.6678   -0.6146    1.8289 H   0  0  0  0  0  0  0  0  0  0  0  0
    2.0529   -0.4319    2.3179 H   0  0  0  0  0  0  0  0  0  0  0  0
    1.8231    0.7799    0.9997 H   0  0  0  0  0  0  0  0  0  0  0  0
    0.8431    0.8216    2.4902 H   0  0  0  0  0  0  0  0  0  0  0  0
  1  2  3  0
  2  3  1  0
  3  4  1  0
  4  5  1  0
  4  6  1  0
  6  7  1  0
  6  8  1  0
  8  9  1  0
  6  3  1  0
  1 10  1  0
  3 11  1  0
  4 12  1  0
  5 13  1  0
  7 14  1  0
  7 15  1  0
  7 16  1  0
  8 17  1  0
  8 18  1  0
  9 19  1  0
  9 20  1  0
  9 21  1  0
M  END
