
     RDKit          3D

 21 21  0  0  0  0  0  0  0  0999 V2000
   -2.9499    1.3345   -0.7200 C   0  0  0  0  0  0  0  0  0  0  0  0
   -2.3253    0.6324    0.0610 C   0  0  0  0  0  0  0  0  0  0  0  0
   -1.5795   -0.2180    0.9905 C   0  0  0  0  0  0  0  0  0  0  0  0
   -0.1759   -0.3771    0.3859 C   0  0  0  0  0  0  0  0  0  0  0  0
    0.4859    0.9279    0.2385 C   0  0  0  0  0  0  0  0  0  0  0  0
    1.8474    0.9697   -0.3282 C   0  0  0  0  0  0  0  0  0  0  0  0
    2.8206    0.2926    0.3324 O   0  0  0  0  0  0  0  0  0  0  0  0
   -0.1684   -1.3451   -0.7874 C   0  0  0  0  0  0  0  0  0  0  0  0
    0.4412   -1.6748    0.5637 C   0  0  0  0  0  0  0  0  0  0  0  0
   -3.4944    1.9286   -1.4079 H   0  0  0  0  0  0  0  0  0  0  0  0
   -1.5330    0.2743    1.9635 H   0  0  0  0  0  0  0  0  0  0  0  0
   -2.0772   -1.2089    1.0307 H   0  0  0  0  0  0  0  0  0  0  0  0
   -0.1707    1.5879   -0.3704 H   0  0  0  0  0  0  0  0  0  0  0  0
    0.5074    1.4217    1.2561 H   0  0  0  0  0  0  0  0  0  0  0  0
    2.1558    2.0326   -0.4201 H   0  0  0  0  0  0  0  0  0  0  0  0
    1.8267    0.5845   -1.3892 H   0  0  0  0  0  0  0  0  0  0  0  0
    3.5716    0.1098   -0.3053 H   0  0  0  0  0  0  0  0  0  0  0  0
    0.5001   -1.0688   -1.6215 H   0  0  0  0  0  0  0  0  0  0  0  0
   -1.0916   -1.8423   -1.0952 H   0  0  0  0  0  0  0  0  0  0  0  0
   -0.1093   -2.4629    1.1197 H   0  0  0  0  0  0  0  0  0  0  0  0
    1.5185   -1.8987    0.5033 H   0  0  0  0  0  0  0  0  0  0  0  0
  1  2  3  0
  2  3  1  0
  3  4  1  0
  4  5  1  0
  5  6  1  0
  6  7  1  0
  4  8  1  0
  8  9  1  0
  9  4  1  0
  1 10  1  0
  3 11  1  0
  3 12  1  0
  5 13  1  0
  5 14  1  0
  6 15  1  0
  6 16  1  0
  7 17  1  0
  8 18  1  0
  8 19  1  0
  9 20  1  0
  9 21  1  0
M  END
