
     RDKit          3D

 19 19  0  0  0  0  0  0  0  0999 V2000
    3.3363    0.7843   -0.3178 C   0  0  0  0  0  0  0  0  0  0  0  0
    2.4944   -0.0400   -0.0571 C   0  0  0  0  0  0  0  0  0  0  0  0
    1.4739   -1.0597    0.2508 C   0  0  0  0  0  0  0  0  0  0  0  0
    0.5144   -1.2550   -0.8904 C   0  0  0  0  0  0  0  0  0  0  0  0
   -0.4329   -0.6866    0.1065 C   0  0  0  0  0  0  0  0  0  0  0  0
   -0.9769    0.6641   -0.3528 C   0  0  0  0  0  0  0  0  0  0  0  0
   -1.8422    1.2797    0.7481 C   0  0  0  0  0  0  0  0  0  0  0  0
   -1.8853    0.3524   -1.3912 O   0  0  0  0  0  0  0  0  0  0  0  0
    0.4810   -0.6373    1.1230 O   0  0  0  0  0  0  0  0  0  0  0  0
    4.0728    1.5264   -0.5377 H   0  0  0  0  0  0  0  0  0  0  0  0
    1.9998   -1.9875    0.5582 H   0  0  0  0  0  0  0  0  0  0  0  0
    0.3470   -2.3236   -1.1672 H   0  0  0  0  0  0  0  0  0  0  0  0
    0.7302   -0.6115   -1.7488 H   0  0  0  0  0  0  0  0  0  0  0  0
   -1.3120   -1.3308    0.3653 H   0  0  0  0  0  0  0  0  0  0  0  0
   -0.1927    1.3377   -0.6975 H   0  0  0  0  0  0  0  0  0  0  0  0
   -1.2469    1.7786    1.5093 H   0  0  0  0  0  0  0  0  0  0  0  0
   -2.4530    0.4258    1.1559 H   0  0  0  0  0  0  0  0  0  0  0  0
   -2.5222    1.9945    0.2280 H   0  0  0  0  0  0  0  0  0  0  0  0
   -2.5856   -0.2115   -0.9337 H   0  0  0  0  0  0  0  0  0  0  0  0
  1  2  3  0
  2  3  1  0
  3  4  1  0
  4  5  1  0
  5  6  1  0
  6  7  1  0
  6  8  1  0
  5  9  1  0
  9  3  1  0
  1 10  1  0
  3 11  1  0
  4 12  1  0
  4 13  1  0
  5 14  1  0
  6 15  1  0
  7 16  1  0
  7 17  1  0
  7 18  1  0
  8 19  1  0
M  END
