
     RDKit          3D

 25 24  0  0  0  0  0  0  0  0999 V2000
   -1.9812    0.4250    1.7968 C   0  0  0  0  0  0  0  0  0  0  0  0
   -1.4212    0.5782    0.6623 C   0  0  0  0  0  0  0  0  0  0  0  0
   -0.8561    0.7431   -0.5337 C   0  0  0  0  0  0  0  0  0  0  0  0
   -0.8640    2.1795   -1.0984 C   0  0  0  0  0  0  0  0  0  0  0  0
   -1.7228   -0.0318   -1.5919 C   0  0  0  0  0  0  0  0  0  0  0  0
    0.5656    0.3212   -0.6307 C   0  0  0  0  0  0  0  0  0  0  0  0
    0.9236   -1.0903   -0.3988 C   0  0  0  0  0  0  0  0  0  0  0  0
    0.9720   -1.6179    0.9950 C   0  0  0  0  0  0  0  0  0  0  0  0
    2.1713   -0.9814    1.7235 C   0  0  0  0  0  0  0  0  0  0  0  0
   -2.5114    0.2928    2.8284 H   0  0  0  0  0  0  0  0  0  0  0  0
   -0.6160    2.8386   -0.2492 H   0  0  0  0  0  0  0  0  0  0  0  0
   -1.9004    2.4275   -1.4707 H   0  0  0  0  0  0  0  0  0  0  0  0
   -0.1164    2.2763   -1.8759 H   0  0  0  0  0  0  0  0  0  0  0  0
   -1.5019   -1.0951   -1.5391 H   0  0  0  0  0  0  0  0  0  0  0  0
   -1.5617    0.3986   -2.5760 H   0  0  0  0  0  0  0  0  0  0  0  0
   -2.7851    0.1538   -1.2371 H   0  0  0  0  0  0  0  0  0  0  0  0
    1.0776    0.8514   -1.4295 H   0  0  0  0  0  0  0  0  0  0  0  0
    1.0512    0.8480    0.3313 H   0  0  0  0  0  0  0  0  0  0  0  0
    0.4020   -1.7841   -1.1093 H   0  0  0  0  0  0  0  0  0  0  0  0
    2.0126   -1.1845   -0.7578 H   0  0  0  0  0  0  0  0  0  0  0  0
    1.1291   -2.6995    0.9188 H   0  0  0  0  0  0  0  0  0  0  0  0
    0.0940   -1.3585    1.6036 H   0  0  0  0  0  0  0  0  0  0  0  0
    3.0995   -1.1792    1.1067 H   0  0  0  0  0  0  0  0  0  0  0  0
    2.0332    0.1185    1.8320 H   0  0  0  0  0  0  0  0  0  0  0  0
    2.3063   -1.4303    2.6996 H   0  0  0  0  0  0  0  0  0  0  0  0
  1  2  3  0
  2  3  1  0
  3  4  1  0
  3  5  1  0
  3  6  1  0
  6  7  1  0
  7  8  1  0
  8  9  1  0
  1 10  1  0
  4 11  1  0
  4 12  1  0
  4 13  1  0
  5 14  1  0
  5 15  1  0
  5 16  1  0
  6 17  1  0
  6 18  1  0
  7 19  1  0
  7 20  1  0
  8 21  1  0
  8 22  1  0
  9 23  1  0
  9 24  1  0
  9 25  1  0
M  END
