
     RDKit          3D

 18 18  0  0  0  0  0  0  0  0999 V2000
    2.9233    0.8254   -0.3582 C   0  0  0  0  0  0  0  0  0  0  0  0
    1.9653    0.0896   -0.4327 C   0  0  0  0  0  0  0  0  0  0  0  0
    0.7990   -0.8114   -0.5227 C   0  0  0  0  0  0  0  0  0  0  0  0
    0.1971   -0.9283    0.8559 C   0  0  0  0  0  0  0  0  0  0  0  0
   -1.3206   -0.7983    0.6749 C   0  0  0  0  0  0  0  0  0  0  0  0
   -1.5228    0.6666    0.2698 C   0  0  0  0  0  0  0  0  0  0  0  0
   -0.6219    0.9112   -0.9284 C   0  0  0  0  0  0  0  0  0  0  0  0
   -0.1341   -0.2986   -1.4528 O   0  0  0  0  0  0  0  0  0  0  0  0
    3.7636    1.4837   -0.3059 H   0  0  0  0  0  0  0  0  0  0  0  0
    1.0845   -1.8089   -0.8591 H   0  0  0  0  0  0  0  0  0  0  0  0
    0.4410   -1.8867    1.3567 H   0  0  0  0  0  0  0  0  0  0  0  0
    0.4828   -0.0450    1.4817 H   0  0  0  0  0  0  0  0  0  0  0  0
   -1.5723   -1.4102   -0.2170 H   0  0  0  0  0  0  0  0  0  0  0  0
   -1.8721   -1.0624    1.5767 H   0  0  0  0  0  0  0  0  0  0  0  0
   -1.1098    1.2538    1.1412 H   0  0  0  0  0  0  0  0  0  0  0  0
   -2.5710    0.8979    0.0614 H   0  0  0  0  0  0  0  0  0  0  0  0
   -1.2031    1.4389   -1.6923 H   0  0  0  0  0  0  0  0  0  0  0  0
    0.2710    1.5197   -0.6494 H   0  0  0  0  0  0  0  0  0  0  0  0
  1  2  3  0
  2  3  1  0
  3  4  1  0
  4  5  1  0
  5  6  1  0
  6  7  1  0
  7  8  1  0
  8  3  1  0
  1  9  1  0
  3 10  1  0
  4 11  1  0
  4 12  1  0
  5 13  1  0
  5 14  1  0
  6 15  1  0
  6 16  1  0
  7 17  1  0
  7 18  1  0
M  END
