
     RDKit          3D

 19 20  0  0  0  0  0  0  0  0999 V2000
   -2.7349    1.6650    0.5109 C   0  0  0  0  0  0  0  0  0  0  0  0
   -1.9929    0.7229    0.6122 C   0  0  0  0  0  0  0  0  0  0  0  0
   -1.0920   -0.4212    0.7488 C   0  0  0  0  0  0  0  0  0  0  0  0
   -1.3660   -1.5406   -0.2673 C   0  0  0  0  0  0  0  0  0  0  0  0
   -0.0517   -1.1149   -0.9347 C   0  0  0  0  0  0  0  0  0  0  0  0
   -0.0812    0.1962   -1.3729 O   0  0  0  0  0  0  0  0  0  0  0  0
    0.1805   -0.1703   -0.0070 C   0  0  0  0  0  0  0  0  0  0  0  0
    1.3312    0.5188    0.5733 C   0  0  0  0  0  0  0  0  0  0  0  0
    2.4417    0.6032   -0.4541 C   0  0  0  0  0  0  0  0  0  0  0  0
   -3.3983    2.4894    0.4328 H   0  0  0  0  0  0  0  0  0  0  0  0
   -0.9880   -0.7887    1.7690 H   0  0  0  0  0  0  0  0  0  0  0  0
   -2.2553   -1.3006   -0.8534 H   0  0  0  0  0  0  0  0  0  0  0  0
   -1.2630   -2.5514    0.1246 H   0  0  0  0  0  0  0  0  0  0  0  0
    0.5137   -1.8383   -1.5149 H   0  0  0  0  0  0  0  0  0  0  0  0
    1.6665    0.1031    1.5320 H   0  0  0  0  0  0  0  0  0  0  0  0
    1.0441    1.5890    0.7918 H   0  0  0  0  0  0  0  0  0  0  0  0
    3.1842    1.3549   -0.1519 H   0  0  0  0  0  0  0  0  0  0  0  0
    2.9107   -0.3995   -0.6289 H   0  0  0  0  0  0  0  0  0  0  0  0
    1.9505    0.8828   -1.4156 H   0  0  0  0  0  0  0  0  0  0  0  0
  1  2  3  0
  2  3  1  0
  3  4  1  0
  4  5  1  0
  5  6  1  0
  6  7  1  0
  7  8  1  0
  8  9  1  0
  7  3  1  0
  7  5  1  0
  1 10  1  0
  3 11  1  0
  4 12  1  0
  4 13  1  0
  5 14  1  0
  8 15  1  0
  8 16  1  0
  9 17  1  0
  9 18  1  0
  9 19  1  0
M  END
