
     RDKit          3D

 23 22  0  0  0  0  0  0  0  0999 V2000
    1.9624    2.7584   -1.5918 C   0  0  0  0  0  0  0  0  0  0  0  0
    1.9681    1.6250   -1.7127 C   0  0  0  0  0  0  0  0  0  0  0  0
    1.9915    0.1765   -1.8473 C   0  0  0  0  0  0  0  0  0  0  0  0
    0.9465   -0.4748   -0.9530 C   0  0  0  0  0  0  0  0  0  0  0  0
    1.1635   -0.2054    0.3707 O   0  0  0  0  0  0  0  0  0  0  0  0
    0.3568   -0.8095    1.2410 C   0  0  0  0  0  0  0  0  0  0  0  0
   -1.1065   -0.6303    1.2564 C   0  0  0  0  0  0  0  0  0  0  0  0
   -1.8851   -1.0536    0.0643 C   0  0  0  0  0  0  0  0  0  0  0  0
   -1.5329    0.7819    1.6143 C   0  0  0  0  0  0  0  0  0  0  0  0
    1.9480    3.8905   -1.4530 H   0  0  0  0  0  0  0  0  0  0  0  0
    1.7539   -0.1252   -2.8995 H   0  0  0  0  0  0  0  0  0  0  0  0
    3.0038   -0.2312   -1.6704 H   0  0  0  0  0  0  0  0  0  0  0  0
   -0.0467   -0.0642   -1.3038 H   0  0  0  0  0  0  0  0  0  0  0  0
    0.9949   -1.5576   -1.1694 H   0  0  0  0  0  0  0  0  0  0  0  0
    0.5132   -1.9436    1.0917 H   0  0  0  0  0  0  0  0  0  0  0  0
    0.7919   -0.6814    2.2769 H   0  0  0  0  0  0  0  0  0  0  0  0
   -1.4807   -1.2740    2.1249 H   0  0  0  0  0  0  0  0  0  0  0  0
   -2.8304   -1.5743    0.4558 H   0  0  0  0  0  0  0  0  0  0  0  0
   -2.2354   -0.2330   -0.5988 H   0  0  0  0  0  0  0  0  0  0  0  0
   -1.3151   -1.8058   -0.5146 H   0  0  0  0  0  0  0  0  0  0  0  0
   -0.6601    1.4793    1.6743 H   0  0  0  0  0  0  0  0  0  0  0  0
   -1.9802    0.7868    2.6223 H   0  0  0  0  0  0  0  0  0  0  0  0
   -2.3216    1.1656    0.9215 H   0  0  0  0  0  0  0  0  0  0  0  0
  1  2  3  0
  2  3  1  0
  3  4  1  0
  4  5  1  0
  5  6  1  0
  6  7  1  0
  7  8  1  0
  7  9  1  0
  1 10  1  0
  3 11  1  0
  3 12  1  0
  4 13  1  0
  4 14  1  0
  6 15  1  0
  6 16  1  0
  7 17  1  0
  8 18  1  0
  8 19  1  0
  8 20  1  0
  9 21  1  0
  9 22  1  0
  9 23  1  0
M  END
