
     RDKit          3D

 23 22  0  0  0  0  0  0  0  0999 V2000
   -1.6804    2.2240    0.8354 C   0  0  0  0  0  0  0  0  0  0  0  0
   -1.0606    1.1753    0.8036 C   0  0  0  0  0  0  0  0  0  0  0  0
   -0.2980   -0.0715    0.7527 C   0  0  0  0  0  0  0  0  0  0  0  0
   -1.1921   -1.1985    0.3866 C   0  0  0  0  0  0  0  0  0  0  0  0
   -1.8676   -1.0683   -0.9358 C   0  0  0  0  0  0  0  0  0  0  0  0
    0.8988    0.1030   -0.1242 C   0  0  0  0  0  0  0  0  0  0  0  0
    1.7619   -1.0919   -0.2626 C   0  0  0  0  0  0  0  0  0  0  0  0
    1.7392    1.2543    0.3745 C   0  0  0  0  0  0  0  0  0  0  0  0
    0.4422    0.4673   -1.4012 O   0  0  0  0  0  0  0  0  0  0  0  0
   -2.2177    3.1370    0.8803 H   0  0  0  0  0  0  0  0  0  0  0  0
    0.0732   -0.2552    1.7894 H   0  0  0  0  0  0  0  0  0  0  0  0
   -0.5876   -2.1439    0.4292 H   0  0  0  0  0  0  0  0  0  0  0  0
   -1.9813   -1.2723    1.1656 H   0  0  0  0  0  0  0  0  0  0  0  0
   -1.4278   -1.7625   -1.7113 H   0  0  0  0  0  0  0  0  0  0  0  0
   -2.9457   -1.4012   -0.8693 H   0  0  0  0  0  0  0  0  0  0  0  0
   -1.8431   -0.0156   -1.3130 H   0  0  0  0  0  0  0  0  0  0  0  0
    2.0408   -1.5116    0.7443 H   0  0  0  0  0  0  0  0  0  0  0  0
    2.7378   -0.7654   -0.7044 H   0  0  0  0  0  0  0  0  0  0  0  0
    1.3729   -1.8692   -0.9451 H   0  0  0  0  0  0  0  0  0  0  0  0
    1.1095    2.1603    0.3978 H   0  0  0  0  0  0  0  0  0  0  0  0
    2.1172    1.0234    1.3983 H   0  0  0  0  0  0  0  0  0  0  0  0
    2.5640    1.4319   -0.3486 H   0  0  0  0  0  0  0  0  0  0  0  0
    0.2444    1.4508   -1.3423 H   0  0  0  0  0  0  0  0  0  0  0  0
  1  2  3  0
  2  3  1  0
  3  4  1  0
  4  5  1  0
  3  6  1  0
  6  7  1  0
  6  8  1  0
  6  9  1  0
  1 10  1  0
  3 11  1  0
  4 12  1  0
  4 13  1  0
  5 14  1  0
  5 15  1  0
  5 16  1  0
  7 17  1  0
  7 18  1  0
  7 19  1  0
  8 20  1  0
  8 21  1  0
  8 22  1  0
  9 23  1  0
M  END
