
     RDKit          3D

 17 18  0  0  0  0  0  0  0  0999 V2000
    2.4397   -1.8977    0.3502 C   0  0  0  0  0  0  0  0  0  0  0  0
    1.6805   -1.0199    0.0374 C   0  0  0  0  0  0  0  0  0  0  0  0
    0.7500    0.0464   -0.3317 C   0  0  0  0  0  0  0  0  0  0  0  0
    1.1679    1.0794   -1.1300 O   0  0  0  0  0  0  0  0  0  0  0  0
    0.9428    1.4213    0.1990 C   0  0  0  0  0  0  0  0  0  0  0  0
   -0.4168    1.8729    0.6327 C   0  0  0  0  0  0  0  0  0  0  0  0
   -1.3490    0.8071    0.2399 C   0  0  0  0  0  0  0  0  0  0  0  0
   -0.7108   -0.2218   -0.3014 C   0  0  0  0  0  0  0  0  0  0  0  0
   -1.3637   -1.4555   -0.8010 C   0  0  0  0  0  0  0  0  0  0  0  0
    3.1023   -2.6896    0.6367 H   0  0  0  0  0  0  0  0  0  0  0  0
    1.7938    1.6873    0.8320 H   0  0  0  0  0  0  0  0  0  0  0  0
   -0.6938    2.8749    0.2450 H   0  0  0  0  0  0  0  0  0  0  0  0
   -0.4071    1.9561    1.7401 H   0  0  0  0  0  0  0  0  0  0  0  0
   -2.4280    0.8523    0.3744 H   0  0  0  0  0  0  0  0  0  0  0  0
   -2.3002   -1.6099   -0.2278 H   0  0  0  0  0  0  0  0  0  0  0  0
   -1.5432   -1.3977   -1.9000 H   0  0  0  0  0  0  0  0  0  0  0  0
   -0.6645   -2.3055   -0.5956 H   0  0  0  0  0  0  0  0  0  0  0  0
  1  2  3  0
  2  3  1  0
  3  4  1  0
  4  5  1  0
  5  6  1  0
  6  7  1  0
  7  8  2  0
  8  9  1  0
  5  3  1  0
  8  3  1  0
  1 10  1  0
  5 11  1  0
  6 12  1  0
  6 13  1  0
  7 14  1  0
  9 15  1  0
  9 16  1  0
  9 17  1  0
M  END
