
     RDKit          3D

 17 16  0  0  0  0  0  0  0  0999 V2000
    2.8638    0.6474    0.1363 C   0  0  0  0  0  0  0  0  0  0  0  0
    1.9887   -0.2477    0.0610 C   0  0  0  0  0  0  0  0  0  0  0  0
    1.1736   -1.0649    0.0094 C   0  0  0  0  0  0  0  0  0  0  0  0
   -0.0940   -0.9700   -0.8752 C   0  0  0  0  0  0  0  0  0  0  0  0
   -0.0241   -1.4141   -1.9367 O   0  0  0  0  0  0  0  0  0  0  0  0
   -1.4779   -0.2625   -0.2660 C   0  0  0  0  0  0  0  0  0  0  0  0
   -1.1782    1.2854   -0.9050 C   0  0  0  0  0  0  0  0  0  0  0  0
   -1.3223   -0.1647    0.7737 C   0  0  0  0  0  0  0  0  0  0  0  0
   -1.1511   -0.0366    1.9925 C   0  0  0  0  0  0  0  0  0  0  0  0
    3.7939    1.5782    0.2052 H   0  0  0  0  0  0  0  0  0  0  0  0
    1.4671   -2.2221    0.0034 H   0  0  0  0  0  0  0  0  0  0  0  0
    0.5748   -1.1508    1.1525 H   0  0  0  0  0  0  0  0  0  0  0  0
   -2.1943   -0.7095   -0.9849 H   0  0  0  0  0  0  0  0  0  0  0  0
   -1.4385    1.2147   -1.9235 H   0  0  0  0  0  0  0  0  0  0  0  0
   -0.1366    1.4434   -0.6788 H   0  0  0  0  0  0  0  0  0  0  0  0
   -1.9013    1.9663   -0.3490 H   0  0  0  0  0  0  0  0  0  0  0  0
   -0.9436    0.1074    3.5852 H   0  0  0  0  0  0  0  0  0  0  0  0
  1  2  3  0
  2  3  1  0
  3  4  1  0
  4  5  2  0
  4  6  1  0
  6  7  1  0
  6  8  1  0
  8  9  3  0
  1 10  1  0
  3 11  1  0
  3 12  1  0
  6 13  1  0
  7 14  1  0
  7 15  1  0
  7 16  1  0
  9 17  1  0
M  END
