
     RDKit          3D

 17 17  0  0  0  0  0  0  0  0999 V2000
    2.4881    1.6779    0.2937 C   0  0  0  0  0  0  0  0  0  0  0  0
    1.6292    0.9047   -0.0555 C   0  0  0  0  0  0  0  0  0  0  0  0
    0.5620   -0.0277   -0.4895 C   0  0  0  0  0  0  0  0  0  0  0  0
    1.0557   -1.3906   -0.9035 C   0  0  0  0  0  0  0  0  0  0  0  0
   -0.3561    0.6302   -1.3560 O   0  0  0  0  0  0  0  0  0  0  0  0
   -0.7564    0.2006    0.0156 C   0  0  0  0  0  0  0  0  0  0  0  0
   -1.8392   -0.8354   -0.1352 C   0  0  0  0  0  0  0  0  0  0  0  0
   -1.0721    1.3321    0.9070 C   0  0  0  0  0  0  0  0  0  0  0  0
   -0.2988    2.2505    1.1314 O   0  0  0  0  0  0  0  0  0  0  0  0
    3.2385    2.3694    0.6067 H   0  0  0  0  0  0  0  0  0  0  0  0
    2.0645   -1.2412   -1.3562 H   0  0  0  0  0  0  0  0  0  0  0  0
    0.4007   -1.8301   -1.6714 H   0  0  0  0  0  0  0  0  0  0  0  0
    1.2058   -2.0709   -0.0417 H   0  0  0  0  0  0  0  0  0  0  0  0
   -1.5265   -1.5416   -0.9332 H   0  0  0  0  0  0  0  0  0  0  0  0
   -2.7925   -0.3720   -0.4710 H   0  0  0  0  0  0  0  0  0  0  0  0
   -1.9722   -1.4500    0.7781 H   0  0  0  0  0  0  0  0  0  0  0  0
   -2.0307    1.3939    1.4122 H   0  0  0  0  0  0  0  0  0  0  0  0
  1  2  3  0
  2  3  1  0
  3  4  1  0
  3  5  1  0
  5  6  1  0
  6  7  1  0
  6  8  1  0
  8  9  2  0
  6  3  1  0
  1 10  1  0
  4 11  1  0
  4 12  1  0
  4 13  1  0
  7 14  1  0
  7 15  1  0
  7 16  1  0
  8 17  1  0
M  END
