
     RDKit          3D

 15 14  0  0  0  0  0  0  0  0999 V2000
    4.8108    0.3843    0.5201 C   0  0  0  0  0  0  0  0  0  0  0  0
    4.4833    0.3071    0.5068 C   0  0  0  0  0  0  0  0  0  0  0  0
    2.8449   -0.0537    0.4270 C   0  0  0  0  0  0  0  0  0  0  0  0
    1.3789   -0.3501    0.3593 C   0  0  0  0  0  0  0  0  0  0  0  0
    0.7282   -0.4716    0.3347 C   0  0  0  0  0  0  0  0  0  0  0  0
   -0.7385   -0.7501    0.3049 C   0  0  0  0  0  0  0  0  0  0  0  0
   -1.8444   -0.9771    0.2736 C   0  0  0  0  0  0  0  0  0  0  0  0
   -2.6600   -0.6042   -0.9639 O   0  0  0  0  0  0  0  0  0  0  0  0
   -2.5033    0.7704   -1.0652 C   0  0  0  0  0  0  0  0  0  0  0  0
    5.8145    0.6235    0.5592 H   0  0  0  0  0  0  0  0  0  0  0  0
   -2.5636   -0.2297    1.0147 H   0  0  0  0  0  0  0  0  0  0  0  0
   -2.2967   -1.9558    0.5384 H   0  0  0  0  0  0  0  0  0  0  0  0
   -1.4760    1.0392   -1.2881 H   0  0  0  0  0  0  0  0  0  0  0  0
   -2.6698    1.0548    0.1223 H   0  0  0  0  0  0  0  0  0  0  0  0
   -3.3084    1.2130   -1.5584 H   0  0  0  0  0  0  0  0  0  0  0  0
  1  2  3  0
  2  3  1  0
  3  4  3  0
  4  5  1  0
  5  6  3  0
  6  7  1  0
  7  8  1  0
  8  9  1  0
  1 10  1  0
  7 11  1  0
  7 12  1  0
  9 13  1  0
  9 14  1  0
  9 15  1  0
M  END
