
     RDKit          3D

 19 20  0  0  0  0  0  0  0  0999 V2000
    2.7814   -0.4907    2.0334 C   0  0  0  0  0  0  0  0  0  0  0  0
    1.7450   -0.8206    1.5119 C   0  0  0  0  0  0  0  0  0  0  0  0
    0.4566   -1.2222    0.8879 C   0  0  0  0  0  0  0  0  0  0  0  0
    0.1853   -0.2453   -0.1948 C   0  0  0  0  0  0  0  0  0  0  0  0
    1.2017   -0.2314   -1.1779 O   0  0  0  0  0  0  0  0  0  0  0  0
   -1.1777   -0.2210   -0.8232 C   0  0  0  0  0  0  0  0  0  0  0  0
   -0.7702    1.1610   -1.2979 C   0  0  0  0  0  0  0  0  0  0  0  0
   -0.3239    1.0985    0.1535 C   0  0  0  0  0  0  0  0  0  0  0  0
   -1.6670    0.4742    0.3847 C   0  0  0  0  0  0  0  0  0  0  0  0
    3.6990   -0.1924    2.4775 H   0  0  0  0  0  0  0  0  0  0  0  0
    0.5642   -2.2637    0.5453 H   0  0  0  0  0  0  0  0  0  0  0  0
   -0.2680   -1.2147    1.7208 H   0  0  0  0  0  0  0  0  0  0  0  0
    0.9297   -0.9079   -1.8425 H   0  0  0  0  0  0  0  0  0  0  0  0
   -1.6064   -0.9297   -1.3818 H   0  0  0  0  0  0  0  0  0  0  0  0
   -1.5873    1.8704   -1.4650 H   0  0  0  0  0  0  0  0  0  0  0  0
    0.0613    1.1488   -2.0000 H   0  0  0  0  0  0  0  0  0  0  0  0
    0.1045    1.8407    0.6629 H   0  0  0  0  0  0  0  0  0  0  0  0
   -1.8622   -0.0538    1.3053 H   0  0  0  0  0  0  0  0  0  0  0  0
   -2.4661    1.1997    0.1290 H   0  0  0  0  0  0  0  0  0  0  0  0
  1  2  3  0
  2  3  1  0
  3  4  1  0
  4  5  1  0
  4  6  1  0
  6  7  1  0
  7  8  1  0
  8  9  1  0
  8  4  1  0
  9  6  1  0
  1 10  1  0
  3 11  1  0
  3 12  1  0
  5 13  1  0
  6 14  1  0
  7 15  1  0
  7 16  1  0
  8 17  1  0
  9 18  1  0
  9 19  1  0
M  END
