
     RDKit          3D

 21 21  0  0  0  0  0  0  0  0999 V2000
   -1.6076    1.5690    1.9603 C   0  0  0  0  0  0  0  0  0  0  0  0
   -1.0224    0.7763    1.3039 C   0  0  0  0  0  0  0  0  0  0  0  0
   -0.2773   -0.2207    0.4952 C   0  0  0  0  0  0  0  0  0  0  0  0
   -0.8834   -0.2073   -0.8700 C   0  0  0  0  0  0  0  0  0  0  0  0
   -2.3540   -0.5471   -0.8172 C   0  0  0  0  0  0  0  0  0  0  0  0
    1.1792    0.0687    0.5253 C   0  0  0  0  0  0  0  0  0  0  0  0
    2.1272   -0.7783   -0.2292 C   0  0  0  0  0  0  0  0  0  0  0  0
    2.1685    0.3813   -1.2046 C   0  0  0  0  0  0  0  0  0  0  0  0
    1.4948    1.1705   -0.2983 O   0  0  0  0  0  0  0  0  0  0  0  0
   -2.1632    2.2985    2.5550 H   0  0  0  0  0  0  0  0  0  0  0  0
   -0.4491   -1.1983    0.9791 H   0  0  0  0  0  0  0  0  0  0  0  0
   -0.4288   -0.9607   -1.5572 H   0  0  0  0  0  0  0  0  0  0  0  0
   -0.7802    0.7550   -1.4104 H   0  0  0  0  0  0  0  0  0  0  0  0
   -2.5941   -0.7711    0.2602 H   0  0  0  0  0  0  0  0  0  0  0  0
   -2.6322   -1.4022   -1.4691 H   0  0  0  0  0  0  0  0  0  0  0  0
   -2.9355    0.3597   -1.0798 H   0  0  0  0  0  0  0  0  0  0  0  0
    1.5786    0.3258    1.5468 H   0  0  0  0  0  0  0  0  0  0  0  0
    3.1190   -0.9329    0.2484 H   0  0  0  0  0  0  0  0  0  0  0  0
    1.7080   -1.6743   -0.7313 H   0  0  0  0  0  0  0  0  0  0  0  0
    3.1497    0.8039   -1.4365 H   0  0  0  0  0  0  0  0  0  0  0  0
    1.6028    0.1841   -2.1604 H   0  0  0  0  0  0  0  0  0  0  0  0
  1  2  3  0
  2  3  1  0
  3  4  1  0
  4  5  1  0
  3  6  1  0
  6  7  1  0
  7  8  1  0
  8  9  1  0
  9  6  1  0
  1 10  1  0
  3 11  1  0
  4 12  1  0
  4 13  1  0
  5 14  1  0
  5 15  1  0
  5 16  1  0
  6 17  1  0
  7 18  1  0
  7 19  1  0
  8 20  1  0
  8 21  1  0
M  END
