
     RDKit          3D

 15 15  0  0  0  0  0  0  0  0999 V2000
    2.6308   -0.1095   -1.3027 C   0  0  0  0  0  0  0  0  0  0  0  0
    1.5528   -0.0218   -0.7323 C   0  0  0  0  0  0  0  0  0  0  0  0
    0.2690    0.0739   -0.0316 C   0  0  0  0  0  0  0  0  0  0  0  0
   -0.0950    1.3813    0.1828 O   0  0  0  0  0  0  0  0  0  0  0  0
   -1.2346    1.8392    0.8093 C   0  0  0  0  0  0  0  0  0  0  0  0
   -2.0155    0.9733    1.2241 O   0  0  0  0  0  0  0  0  0  0  0  0
    0.0327   -0.9793    0.9627 C   0  0  0  0  0  0  0  0  0  0  0  0
   -0.7246   -1.7633    0.0882 O   0  0  0  0  0  0  0  0  0  0  0  0
   -0.7809   -0.6915   -0.7917 C   0  0  0  0  0  0  0  0  0  0  0  0
    3.5609   -0.1710   -1.8068 H   0  0  0  0  0  0  0  0  0  0  0  0
   -1.3701    2.9087    0.8963 H   0  0  0  0  0  0  0  0  0  0  0  0
    0.9713   -1.5356    1.1971 H   0  0  0  0  0  0  0  0  0  0  0  0
   -0.4630   -0.7241    1.9124 H   0  0  0  0  0  0  0  0  0  0  0  0
   -0.5340   -0.9398   -1.8441 H   0  0  0  0  0  0  0  0  0  0  0  0
   -1.7997   -0.2403   -0.7636 H   0  0  0  0  0  0  0  0  0  0  0  0
  1  2  3  0
  2  3  1  0
  3  4  1  0
  4  5  1  0
  5  6  2  0
  3  7  1  0
  7  8  1  0
  8  9  1  0
  9  3  1  0
  1 10  1  0
  5 11  1  0
  7 12  1  0
  7 13  1  0
  9 14  1  0
  9 15  1  0
M  END
