
     RDKit          3D

 21 22  0  0  0  0  0  0  0  0999 V2000
   -0.6889    2.2588    1.1587 C   0  0  0  0  0  0  0  0  0  0  0  0
   -0.4988    1.2018    0.6122 C   0  0  0  0  0  0  0  0  0  0  0  0
   -0.2719   -0.0944   -0.0490 C   0  0  0  0  0  0  0  0  0  0  0  0
    1.0490   -0.2139   -0.7268 C   0  0  0  0  0  0  0  0  0  0  0  0
    2.2441   -0.0530    0.1943 C   0  0  0  0  0  0  0  0  0  0  0  0
    1.9062    1.0315   -0.8064 C   0  0  0  0  0  0  0  0  0  0  0  0
   -0.6230   -1.2201    0.9075 C   0  0  0  0  0  0  0  0  0  0  0  0
   -2.0751   -0.9843    0.4674 C   0  0  0  0  0  0  0  0  0  0  0  0
   -1.4765   -0.5156   -0.8646 C   0  0  0  0  0  0  0  0  0  0  0  0
   -0.8772    3.2008    1.6449 H   0  0  0  0  0  0  0  0  0  0  0  0
    1.1376   -0.9466   -1.5446 H   0  0  0  0  0  0  0  0  0  0  0  0
    3.0998   -0.7136    0.0049 H   0  0  0  0  0  0  0  0  0  0  0  0
    2.0763    0.1621    1.2664 H   0  0  0  0  0  0  0  0  0  0  0  0
    2.6420    1.0925   -1.6417 H   0  0  0  0  0  0  0  0  0  0  0  0
    1.5213    1.9679   -0.3574 H   0  0  0  0  0  0  0  0  0  0  0  0
   -0.2755   -2.2050    0.5246 H   0  0  0  0  0  0  0  0  0  0  0  0
   -0.4700   -1.0119    1.9631 H   0  0  0  0  0  0  0  0  0  0  0  0
   -2.4938   -0.1242    1.0251 H   0  0  0  0  0  0  0  0  0  0  0  0
   -2.6645   -1.8897    0.4228 H   0  0  0  0  0  0  0  0  0  0  0  0
   -1.2977   -1.3206   -1.5815 H   0  0  0  0  0  0  0  0  0  0  0  0
   -1.9632    0.3773   -1.2876 H   0  0  0  0  0  0  0  0  0  0  0  0
  1  2  3  0
  2  3  1  0
  3  4  1  0
  4  5  1  0
  5  6  1  0
  3  7  1  0
  7  8  1  0
  8  9  1  0
  9  3  1  0
  6  4  1  0
  1 10  1  0
  4 11  1  0
  5 12  1  0
  5 13  1  0
  6 14  1  0
  6 15  1  0
  7 16  1  0
  7 17  1  0
  8 18  1  0
  8 19  1  0
  9 20  1  0
  9 21  1  0
M  END
