
     RDKit          3D

 19 18  0  0  0  0  0  0  0  0999 V2000
    1.3906    2.1938   -1.3820 C   0  0  0  0  0  0  0  0  0  0  0  0
    0.9885    1.5208   -0.5315 C   0  0  0  0  0  0  0  0  0  0  0  0
    0.4632    0.6801    0.5587 C   0  0  0  0  0  0  0  0  0  0  0  0
    1.3617    0.7406    1.7436 C   0  0  0  0  0  0  0  0  0  0  0  0
    1.7043    1.8057    2.1500 O   0  0  0  0  0  0  0  0  0  0  0  0
    0.3508   -0.7070    0.0528 C   0  0  0  0  0  0  0  0  0  0  0  0
   -0.1599   -1.5041    1.1077 O   0  0  0  0  0  0  0  0  0  0  0  0
   -0.5601   -0.8676   -1.1293 C   0  0  0  0  0  0  0  0  0  0  0  0
   -1.9872   -0.5019   -0.8791 C   0  0  0  0  0  0  0  0  0  0  0  0
    1.8011    2.8547   -2.2046 H   0  0  0  0  0  0  0  0  0  0  0  0
   -0.5524    1.0673    0.8320 H   0  0  0  0  0  0  0  0  0  0  0  0
    1.6691   -0.1777    2.1963 H   0  0  0  0  0  0  0  0  0  0  0  0
    1.3415   -1.1764   -0.1984 H   0  0  0  0  0  0  0  0  0  0  0  0
    0.0216   -2.4499    0.7948 H   0  0  0  0  0  0  0  0  0  0  0  0
   -0.1519   -0.2597   -1.9884 H   0  0  0  0  0  0  0  0  0  0  0  0
   -0.5297   -1.9296   -1.4453 H   0  0  0  0  0  0  0  0  0  0  0  0
   -2.5651   -1.4244   -0.5452 H   0  0  0  0  0  0  0  0  0  0  0  0
   -2.5130   -0.0667   -1.7549 H   0  0  0  0  0  0  0  0  0  0  0  0
   -2.0734    0.2021   -0.0330 H   0  0  0  0  0  0  0  0  0  0  0  0
  1  2  3  0
  2  3  1  0
  3  4  1  0
  4  5  2  0
  3  6  1  0
  6  7  1  0
  6  8  1  0
  8  9  1  0
  1 10  1  0
  3 11  1  0
  4 12  1  0
  6 13  1  0
  7 14  1  0
  8 15  1  0
  8 16  1  0
  9 17  1  0
  9 18  1  0
  9 19  1  0
M  END
