
     RDKit          3D

 19 18  0  0  0  0  0  0  0  0999 V2000
   -4.4555   -0.3081    0.7865 C   0  0  0  0  0  0  0  0  0  0  0  0
   -3.4229   -0.6635    0.5429 C   0  0  0  0  0  0  0  0  0  0  0  0
   -2.0478   -1.1424    0.2271 C   0  0  0  0  0  0  0  0  0  0  0  0
   -1.1301   -0.2457    0.9964 C   0  0  0  0  0  0  0  0  0  0  0  0
   -1.6746    1.1020    0.4756 O   0  0  0  0  0  0  0  0  0  0  0  0
    0.2281   -0.0723    0.3828 C   0  0  0  0  0  0  0  0  0  0  0  0
    1.4337    0.0671   -0.1451 C   0  0  0  0  0  0  0  0  0  0  0  0
    2.7765    0.2145   -0.7599 C   0  0  0  0  0  0  0  0  0  0  0  0
    3.7517    0.4610    0.3467 C   0  0  0  0  0  0  0  0  0  0  0  0
   -5.5805    0.0910    1.0389 H   0  0  0  0  0  0  0  0  0  0  0  0
   -1.8660   -2.0992   -0.0578 H   0  0  0  0  0  0  0  0  0  0  0  0
   -2.0244   -0.6026   -0.8799 H   0  0  0  0  0  0  0  0  0  0  0  0
   -1.0718   -0.0526    1.9907 H   0  0  0  0  0  0  0  0  0  0  0  0
   -2.5761    0.9378    0.1652 H   0  0  0  0  0  0  0  0  0  0  0  0
    2.7281    1.1943   -1.3615 H   0  0  0  0  0  0  0  0  0  0  0  0
    2.9146   -0.5591   -1.4640 H   0  0  0  0  0  0  0  0  0  0  0  0
    4.7988    0.3064   -0.0549 H   0  0  0  0  0  0  0  0  0  0  0  0
    3.6189    1.5128    0.7460 H   0  0  0  0  0  0  0  0  0  0  0  0
    3.5992   -0.1414    1.2903 H   0  0  0  0  0  0  0  0  0  0  0  0
  1  2  3  0
  2  3  1  0
  3  4  1  0
  4  5  1  0
  4  6  1  0
  6  7  3  0
  7  8  1  0
  8  9  1  0
  1 10  1  0
  3 11  1  0
  3 12  1  0
  4 13  1  0
  5 14  1  0
  8 15  1  0
  8 16  1  0
  9 17  1  0
  9 18  1  0
  9 19  1  0
M  END
