
     RDKit          3D

 21 21  0  0  0  0  0  0  0  0999 V2000
   -3.5178    0.1830   -1.5945 C   0  0  0  0  0  0  0  0  0  0  0  0
   -2.5016   -0.1726   -1.0466 C   0  0  0  0  0  0  0  0  0  0  0  0
   -1.2664   -0.6012   -0.3532 C   0  0  0  0  0  0  0  0  0  0  0  0
   -0.1770   -0.5803   -1.3739 C   0  0  0  0  0  0  0  0  0  0  0  0
    1.1672   -0.3272   -0.8089 C   0  0  0  0  0  0  0  0  0  0  0  0
    1.3835    0.1300    0.3880 C   0  0  0  0  0  0  0  0  0  0  0  0
    2.7903    0.3432    0.8421 C   0  0  0  0  0  0  0  0  0  0  0  0
    0.3017    0.4517    1.3287 C   0  0  0  0  0  0  0  0  0  0  0  0
   -1.0655    0.1950    0.8597 C   0  0  0  0  0  0  0  0  0  0  0  0
   -4.4244    0.4878   -2.0655 H   0  0  0  0  0  0  0  0  0  0  0  0
   -1.4623   -1.6784   -0.0862 H   0  0  0  0  0  0  0  0  0  0  0  0
   -0.3362    0.1825   -2.1663 H   0  0  0  0  0  0  0  0  0  0  0  0
   -0.1229   -1.5553   -1.9060 H   0  0  0  0  0  0  0  0  0  0  0  0
    2.0149   -0.5442   -1.4528 H   0  0  0  0  0  0  0  0  0  0  0  0
    2.9198    1.4250    1.1112 H   0  0  0  0  0  0  0  0  0  0  0  0
    3.5184    0.0689    0.0368 H   0  0  0  0  0  0  0  0  0  0  0  0
    3.0327   -0.3291    1.6947 H   0  0  0  0  0  0  0  0  0  0  0  0
    0.5363   -0.1020    2.2870 H   0  0  0  0  0  0  0  0  0  0  0  0
    0.4423    1.5358    1.6195 H   0  0  0  0  0  0  0  0  0  0  0  0
   -1.6333   -0.2957    1.7068 H   0  0  0  0  0  0  0  0  0  0  0  0
   -1.5996    1.1831    0.7315 H   0  0  0  0  0  0  0  0  0  0  0  0
  1  2  3  0
  2  3  1  0
  3  4  1  0
  4  5  1  0
  5  6  2  0
  6  7  1  0
  6  8  1  0
  8  9  1  0
  9  3  1  0
  1 10  1  0
  3 11  1  0
  4 12  1  0
  4 13  1  0
  5 14  1  0
  7 15  1  0
  7 16  1  0
  7 17  1  0
  8 18  1  0
  8 19  1  0
  9 20  1  0
  9 21  1  0
M  END
