
     RDKit          3D

 21 20  0  0  0  0  0  0  0  0999 V2000
    3.3338    1.1102   -0.2768 C   0  0  0  0  0  0  0  0  0  0  0  0
    2.3620    0.4334   -0.0490 C   0  0  0  0  0  0  0  0  0  0  0  0
    1.1763   -0.4098    0.2090 C   0  0  0  0  0  0  0  0  0  0  0  0
   -0.0812    0.3852    0.0042 C   0  0  0  0  0  0  0  0  0  0  0  0
   -0.2008    0.9238   -1.4093 C   0  0  0  0  0  0  0  0  0  0  0  0
   -1.4017    1.6363   -1.4626 O   0  0  0  0  0  0  0  0  0  0  0  0
   -1.2602   -0.5438    0.2525 C   0  0  0  0  0  0  0  0  0  0  0  0
   -1.2507   -1.1025    1.6470 C   0  0  0  0  0  0  0  0  0  0  0  0
   -1.3515   -1.5496   -0.6912 O   0  0  0  0  0  0  0  0  0  0  0  0
    4.1934    1.6963   -0.4613 H   0  0  0  0  0  0  0  0  0  0  0  0
    1.2169   -1.3442   -0.3662 H   0  0  0  0  0  0  0  0  0  0  0  0
    1.2276   -0.6743    1.2819 H   0  0  0  0  0  0  0  0  0  0  0  0
   -0.1145    1.1844    0.7576 H   0  0  0  0  0  0  0  0  0  0  0  0
    0.6691    1.4986   -1.7325 H   0  0  0  0  0  0  0  0  0  0  0  0
   -0.3188    0.0731   -2.1124 H   0  0  0  0  0  0  0  0  0  0  0  0
   -1.2393    2.6187   -1.4090 H   0  0  0  0  0  0  0  0  0  0  0  0
   -2.2053    0.0607    0.1579 H   0  0  0  0  0  0  0  0  0  0  0  0
   -2.2322   -1.5304    1.8792 H   0  0  0  0  0  0  0  0  0  0  0  0
   -1.0554   -0.2593    2.3684 H   0  0  0  0  0  0  0  0  0  0  0  0
   -0.4014   -1.8051    1.7802 H   0  0  0  0  0  0  0  0  0  0  0  0
   -1.0662   -2.4019   -0.3133 H   0  0  0  0  0  0  0  0  0  0  0  0
  1  2  3  0
  2  3  1  0
  3  4  1  0
  4  5  1  0
  5  6  1  0
  4  7  1  0
  7  8  1  0
  7  9  1  0
  1 10  1  0
  3 11  1  0
  3 12  1  0
  4 13  1  0
  5 14  1  0
  5 15  1  0
  6 16  1  0
  7 17  1  0
  8 18  1  0
  8 19  1  0
  8 20  1  0
  9 21  1  0
M  END
