
     RDKit          3D

 17 17  0  0  0  0  0  0  0  0999 V2000
    3.2849    0.8571    0.3055 C   0  0  0  0  0  0  0  0  0  0  0  0
    2.1869    0.3013    0.0191 C   0  0  0  0  0  0  0  0  0  0  0  0
    0.9614   -0.3284   -0.2980 C   0  0  0  0  0  0  0  0  0  0  0  0
    0.3871    0.5010   -1.3406 O   0  0  0  0  0  0  0  0  0  0  0  0
   -0.0364   -0.2889    0.8374 C   0  0  0  0  0  0  0  0  0  0  0  0
   -1.3820   -0.9797    0.5286 C   0  0  0  0  0  0  0  0  0  0  0  0
   -1.5999   -1.3696   -0.7874 O   0  0  0  0  0  0  0  0  0  0  0  0
   -1.2518    0.5085    0.8464 C   0  0  0  0  0  0  0  0  0  0  0  0
   -1.6808    1.3143   -0.2163 O   0  0  0  0  0  0  0  0  0  0  0  0
    4.1993    1.3209    0.5565 H   0  0  0  0  0  0  0  0  0  0  0  0
    1.0954   -1.3212   -0.7261 H   0  0  0  0  0  0  0  0  0  0  0  0
    0.4600    1.4227   -0.9697 H   0  0  0  0  0  0  0  0  0  0  0  0
    0.3956   -0.5056    1.8548 H   0  0  0  0  0  0  0  0  0  0  0  0
   -1.7199   -1.6652    1.3449 H   0  0  0  0  0  0  0  0  0  0  0  0
   -0.8766   -1.9316   -1.0822 H   0  0  0  0  0  0  0  0  0  0  0  0
   -1.7507    0.7701    1.8021 H   0  0  0  0  0  0  0  0  0  0  0  0
   -2.6725    1.3944   -0.1369 H   0  0  0  0  0  0  0  0  0  0  0  0
  1  2  3  0
  2  3  1  0
  3  4  1  0
  3  5  1  0
  5  6  1  0
  6  7  1  0
  6  8  1  0
  8  9  1  0
  8  5  1  0
  1 10  1  0
  3 11  1  0
  4 12  1  0
  5 13  1  0
  6 14  1  0
  7 15  1  0
  8 16  1  0
  9 17  1  0
M  END
