
     RDKit          3D

 20 20  0  0  0  0  0  0  0  0999 V2000
    2.8902    1.6257   -0.1362 C   0  0  0  0  0  0  0  0  0  0  0  0
    2.3100    0.5942   -0.0995 C   0  0  0  0  0  0  0  0  0  0  0  0
    1.6108   -0.6914   -0.0393 C   0  0  0  0  0  0  0  0  0  0  0  0
    0.1216   -0.4779   -0.0926 C   0  0  0  0  0  0  0  0  0  0  0  0
   -0.6864   -1.7605   -0.0356 C   0  0  0  0  0  0  0  0  0  0  0  0
   -0.3827    0.5647   -1.1124 C   0  0  0  0  0  0  0  0  0  0  0  0
   -0.5250    0.7306    0.4129 C   0  0  0  0  0  0  0  0  0  0  0  0
   -1.9536    0.6616    0.9117 C   0  0  0  0  0  0  0  0  0  0  0  0
    3.4267    2.5419   -0.1679 H   0  0  0  0  0  0  0  0  0  0  0  0
    1.8410   -1.1702    0.9258 H   0  0  0  0  0  0  0  0  0  0  0  0
    1.9119   -1.3778   -0.8393 H   0  0  0  0  0  0  0  0  0  0  0  0
   -1.6477   -1.6549   -0.6061 H   0  0  0  0  0  0  0  0  0  0  0  0
   -0.8813   -1.9499    1.0521 H   0  0  0  0  0  0  0  0  0  0  0  0
   -0.1014   -2.6239   -0.4383 H   0  0  0  0  0  0  0  0  0  0  0  0
    0.3810    1.1822   -1.6190 H   0  0  0  0  0  0  0  0  0  0  0  0
   -1.3054    0.3137   -1.6773 H   0  0  0  0  0  0  0  0  0  0  0  0
    0.0339    1.5937    0.8199 H   0  0  0  0  0  0  0  0  0  0  0  0
   -2.6890    0.6779    0.0669 H   0  0  0  0  0  0  0  0  0  0  0  0
   -2.1338   -0.3117    1.4393 H   0  0  0  0  0  0  0  0  0  0  0  0
   -2.2207    1.5321    1.5512 H   0  0  0  0  0  0  0  0  0  0  0  0
  1  2  3  0
  2  3  1  0
  3  4  1  0
  4  5  1  0
  4  6  1  0
  6  7  1  0
  7  8  1  0
  7  4  1  0
  1  9  1  0
  3 10  1  0
  3 11  1  0
  5 12  1  0
  5 13  1  0
  5 14  1  0
  6 15  1  0
  6 16  1  0
  7 17  1  0
  8 18  1  0
  8 19  1  0
  8 20  1  0
M  END
