
     RDKit          3D

 19 20  0  0  0  0  0  0  0  0999 V2000
   -0.1812    3.0591   -1.3916 C   0  0  0  0  0  0  0  0  0  0  0  0
    0.2474    2.0128   -0.7671 C   0  0  0  0  0  0  0  0  0  0  0  0
    0.7040    0.9015   -0.1273 C   0  0  0  0  0  0  0  0  0  0  0  0
    2.0256    0.7915    0.3480 O   0  0  0  0  0  0  0  0  0  0  0  0
    0.2628   -0.3747   -0.8986 C   0  0  0  0  0  0  0  0  0  0  0  0
    0.5877   -1.7536   -0.5421 C   0  0  0  0  0  0  0  0  0  0  0  0
    0.3173   -1.4180    0.9155 C   0  0  0  0  0  0  0  0  0  0  0  0
   -0.2915   -0.0994    0.4321 C   0  0  0  0  0  0  0  0  0  0  0  0
   -1.6241    0.1954    0.8914 C   0  0  0  0  0  0  0  0  0  0  0  0
   -0.5450    3.9959   -1.9471 H   0  0  0  0  0  0  0  0  0  0  0  0
    2.3318   -0.1277    0.3816 H   0  0  0  0  0  0  0  0  0  0  0  0
   -0.2939   -0.1596   -1.8529 H   0  0  0  0  0  0  0  0  0  0  0  0
   -0.1549   -2.4627   -0.9661 H   0  0  0  0  0  0  0  0  0  0  0  0
    1.6296   -2.1226   -0.7076 H   0  0  0  0  0  0  0  0  0  0  0  0
   -0.3465   -2.0588    1.4581 H   0  0  0  0  0  0  0  0  0  0  0  0
    1.3205   -1.3203    1.4074 H   0  0  0  0  0  0  0  0  0  0  0  0
   -2.3340    0.4222    0.0754 H   0  0  0  0  0  0  0  0  0  0  0  0
   -1.5877    1.1279    1.5578 H   0  0  0  0  0  0  0  0  0  0  0  0
   -2.0678   -0.6089    1.5590 H   0  0  0  0  0  0  0  0  0  0  0  0
  1  2  3  0
  2  3  1  0
  3  4  1  0
  3  5  1  0
  5  6  1  0
  6  7  1  0
  7  8  1  0
  8  9  1  0
  8  3  1  0
  8  5  1  0
  1 10  1  0
  4 11  1  0
  5 12  1  0
  6 13  1  0
  6 14  1  0
  7 15  1  0
  7 16  1  0
  9 17  1  0
  9 18  1  0
  9 19  1  0
M  END
