
     RDKit          3D

 17 17  0  0  0  0  0  0  0  0999 V2000
    2.8968   -1.1019    0.1436 C   0  0  0  0  0  0  0  0  0  0  0  0
    1.7562   -0.7138    0.1862 C   0  0  0  0  0  0  0  0  0  0  0  0
    0.3445   -0.2250    0.2147 C   0  0  0  0  0  0  0  0  0  0  0  0
   -0.2481   -0.3143    1.5710 C   0  0  0  0  0  0  0  0  0  0  0  0
   -1.5401    0.1036    1.6904 O   0  0  0  0  0  0  0  0  0  0  0  0
   -0.5930   -0.8060   -0.8695 C   0  0  0  0  0  0  0  0  0  0  0  0
   -0.0831    0.6171   -0.8913 C   0  0  0  0  0  0  0  0  0  0  0  0
   -0.9956    1.7629   -0.8223 C   0  0  0  0  0  0  0  0  0  0  0  0
   -1.9303    1.9218   -0.0697 O   0  0  0  0  0  0  0  0  0  0  0  0
    3.8936   -1.4594    0.1109 H   0  0  0  0  0  0  0  0  0  0  0  0
    0.4430    0.1468    2.3120 H   0  0  0  0  0  0  0  0  0  0  0  0
   -0.2445   -1.4098    1.8580 H   0  0  0  0  0  0  0  0  0  0  0  0
   -1.7582    0.6487    2.4601 H   0  0  0  0  0  0  0  0  0  0  0  0
   -0.1330   -1.5937   -1.4697 H   0  0  0  0  0  0  0  0  0  0  0  0
   -1.6528   -0.9124   -0.6380 H   0  0  0  0  0  0  0  0  0  0  0  0
    0.7074    0.7213   -1.7097 H   0  0  0  0  0  0  0  0  0  0  0  0
   -0.8629    2.6141   -1.5167 H   0  0  0  0  0  0  0  0  0  0  0  0
  1  2  3  0
  2  3  1  0
  3  4  1  0
  4  5  1  0
  3  6  1  0
  6  7  1  0
  7  8  1  0
  8  9  2  0
  7  3  1  0
  1 10  1  0
  4 11  1  0
  4 12  1  0
  5 13  1  0
  6 14  1  0
  6 15  1  0
  7 16  1  0
  8 17  1  0
M  END
