
     RDKit          3D

 19 19  0  0  0  0  0  0  0  0999 V2000
    4.0688    0.0655   -1.1987 C   0  0  0  0  0  0  0  0  0  0  0  0
    3.2695    0.2181   -0.3532 C   0  0  0  0  0  0  0  0  0  0  0  0
    2.2151    0.3940    0.7708 C   0  0  0  0  0  0  0  0  0  0  0  0
    1.1165    0.0322    0.3343 O   0  0  0  0  0  0  0  0  0  0  0  0
   -0.0229   -0.3677   -0.1249 C   0  0  0  0  0  0  0  0  0  0  0  0
   -0.8328    0.6566   -0.8645 C   0  0  0  0  0  0  0  0  0  0  0  0
   -1.2892    0.1405    0.5401 C   0  0  0  0  0  0  0  0  0  0  0  0
   -2.6583   -0.4507    0.4014 C   0  0  0  0  0  0  0  0  0  0  0  0
   -2.6523   -1.8247    0.7740 O   0  0  0  0  0  0  0  0  0  0  0  0
    4.7722   -0.0596   -1.9215 H   0  0  0  0  0  0  0  0  0  0  0  0
    2.3297    1.6183    0.7762 H   0  0  0  0  0  0  0  0  0  0  0  0
    2.6476    0.1491    1.7147 H   0  0  0  0  0  0  0  0  0  0  0  0
   -0.1795   -1.4425   -0.4308 H   0  0  0  0  0  0  0  0  0  0  0  0
   -1.4336    0.4019   -1.7373 H   0  0  0  0  0  0  0  0  0  0  0  0
   -0.5674    1.7311   -0.8227 H   0  0  0  0  0  0  0  0  0  0  0  0
   -1.1085    0.8263    1.4232 H   0  0  0  0  0  0  0  0  0  0  0  0
   -3.0489   -0.3704   -0.6123 H   0  0  0  0  0  0  0  0  0  0  0  0
   -3.3184    0.0717    1.1907 H   0  0  0  0  0  0  0  0  0  0  0  0
   -3.3076   -2.3322    0.1405 H   0  0  0  0  0  0  0  0  0  0  0  0
  1  2  3  0
  2  3  1  0
  3  4  1  0
  4  5  1  0
  5  6  1  0
  6  7  1  0
  7  8  1  0
  8  9  1  0
  7  5  1  0
  1 10  1  0
  3 11  1  0
  3 12  1  0
  5 13  1  0
  6 14  1  0
  6 15  1  0
  7 16  1  0
  8 17  1  0
  8 18  1  0
  9 19  1  0
M  END
