
     RDKit          3D

 15 16  0  0  0  0  0  0  0  0999 V2000
    2.3862    1.6056   -0.1380 C   0  0  0  0  0  0  0  0  0  0  0  0
    1.5340    0.8657   -0.5281 C   0  0  0  0  0  0  0  0  0  0  0  0
    0.4980   -0.0084   -1.0120 C   0  0  0  0  0  0  0  0  0  0  0  0
   -0.7439    0.6429   -1.1343 O   0  0  0  0  0  0  0  0  0  0  0  0
   -1.6445   -0.0991   -0.3741 C   0  0  0  0  0  0  0  0  0  0  0  0
   -1.3262    0.0861    1.0685 C   0  0  0  0  0  0  0  0  0  0  0  0
   -0.1943   -0.6003    1.2637 C   0  0  0  0  0  0  0  0  0  0  0  0
    0.1523   -1.1348   -0.0852 C   0  0  0  0  0  0  0  0  0  0  0  0
   -1.1559   -1.4175   -0.5607 O   0  0  0  0  0  0  0  0  0  0  0  0
    3.1545    2.2669    0.2314 H   0  0  0  0  0  0  0  0  0  0  0  0
    0.7045   -0.4451   -2.0066 H   0  0  0  0  0  0  0  0  0  0  0  0
   -2.6756    0.0193   -0.6398 H   0  0  0  0  0  0  0  0  0  0  0  0
   -1.8612    0.6429    1.8291 H   0  0  0  0  0  0  0  0  0  0  0  0
    0.3660   -0.7522    2.1762 H   0  0  0  0  0  0  0  0  0  0  0  0
    0.8061   -1.9830   -0.0902 H   0  0  0  0  0  0  0  0  0  0  0  0
  1  2  3  0
  2  3  1  0
  3  4  1  0
  4  5  1  0
  5  6  1  0
  6  7  2  0
  7  8  1  0
  8  9  1  0
  8  3  1  0
  9  5  1  0
  1 10  1  0
  3 11  1  0
  5 12  1  0
  6 13  1  0
  7 14  1  0
  8 15  1  0
M  END
