
     RDKit          3D

 17 18  0  0  0  0  0  0  0  0999 V2000
    2.7072   -1.6625    1.6747 C   0  0  0  0  0  0  0  0  0  0  0  0
    1.7562   -1.0974    1.2123 C   0  0  0  0  0  0  0  0  0  0  0  0
    0.6465   -0.4206    0.6510 C   0  0  0  0  0  0  0  0  0  0  0  0
    0.8880    0.5803   -0.2190 C   0  0  0  0  0  0  0  0  0  0  0  0
   -0.1632    1.3660   -0.8757 C   0  0  0  0  0  0  0  0  0  0  0  0
   -1.5377    0.6937   -0.8302 C   0  0  0  0  0  0  0  0  0  0  0  0
   -1.3029   -0.7236   -0.5475 C   0  0  0  0  0  0  0  0  0  0  0  0
   -1.6278   -1.5308    0.4313 O   0  0  0  0  0  0  0  0  0  0  0  0
   -0.7533   -0.6777    0.9029 C   0  0  0  0  0  0  0  0  0  0  0  0
    3.5678   -2.1593    2.0897 H   0  0  0  0  0  0  0  0  0  0  0  0
    1.9114    0.8468   -0.4704 H   0  0  0  0  0  0  0  0  0  0  0  0
   -0.2423    2.3902   -0.4584 H   0  0  0  0  0  0  0  0  0  0  0  0
    0.1405    1.4943   -1.9445 H   0  0  0  0  0  0  0  0  0  0  0  0
   -2.1429    1.2029   -0.0415 H   0  0  0  0  0  0  0  0  0  0  0  0
   -1.9965    0.8091   -1.8340 H   0  0  0  0  0  0  0  0  0  0  0  0
   -0.6453   -1.2134   -1.3260 H   0  0  0  0  0  0  0  0  0  0  0  0
   -1.2057    0.1019    1.5853 H   0  0  0  0  0  0  0  0  0  0  0  0
  1  2  3  0
  2  3  1  0
  3  4  2  0
  4  5  1  0
  5  6  1  0
  6  7  1  0
  7  8  1  0
  8  9  1  0
  9  3  1  0
  9  7  1  0
  1 10  1  0
  4 11  1  0
  5 12  1  0
  5 13  1  0
  6 14  1  0
  6 15  1  0
  7 16  1  0
  9 17  1  0
M  END
