
     RDKit          3D

 17 18  0  0  0  0  0  0  0  0999 V2000
    2.5880   -0.3018    1.9098 C   0  0  0  0  0  0  0  0  0  0  0  0
    1.8229   -0.3543    0.9708 C   0  0  0  0  0  0  0  0  0  0  0  0
    0.8845   -0.4225   -0.1738 C   0  0  0  0  0  0  0  0  0  0  0  0
   -0.1041   -1.4973   -0.1534 C   0  0  0  0  0  0  0  0  0  0  0  0
   -1.0881   -0.4415   -0.7367 C   0  0  0  0  0  0  0  0  0  0  0  0
   -1.5588    0.4802    0.2877 C   0  0  0  0  0  0  0  0  0  0  0  0
   -2.4931    1.4429   -0.0990 O   0  0  0  0  0  0  0  0  0  0  0  0
   -0.1731    0.6695   -0.1132 C   0  0  0  0  0  0  0  0  0  0  0  0
    0.1256    1.7913   -0.8742 O   0  0  0  0  0  0  0  0  0  0  0  0
    3.2577   -0.2569    2.7030 H   0  0  0  0  0  0  0  0  0  0  0  0
    1.3992   -0.3780   -1.1618 H   0  0  0  0  0  0  0  0  0  0  0  0
   -0.5347   -1.8303    0.8237 H   0  0  0  0  0  0  0  0  0  0  0  0
    0.0583   -2.3566   -0.8551 H   0  0  0  0  0  0  0  0  0  0  0  0
   -1.1293   -0.3225   -1.8191 H   0  0  0  0  0  0  0  0  0  0  0  0
   -1.8785    0.0026    1.2744 H   0  0  0  0  0  0  0  0  0  0  0  0
   -2.0364    2.2065   -0.4916 H   0  0  0  0  0  0  0  0  0  0  0  0
    0.8598    1.5688   -1.4915 H   0  0  0  0  0  0  0  0  0  0  0  0
  1  2  3  0
  2  3  1  0
  3  4  1  0
  4  5  1  0
  5  6  1  0
  6  7  1  0
  6  8  1  0
  8  9  1  0
  8  3  1  0
  8  5  1  0
  1 10  1  0
  3 11  1  0
  4 12  1  0
  4 13  1  0
  5 14  1  0
  6 15  1  0
  7 16  1  0
  9 17  1  0
M  END
