
     RDKit          3D

 17 17  0  0  0  0  0  0  0  0999 V2000
   -1.5542    2.1654    0.0009 C   0  0  0  0  0  0  0  0  0  0  0  0
   -0.8809    1.1671    0.0360 C   0  0  0  0  0  0  0  0  0  0  0  0
   -0.0564   -0.0515    0.0731 C   0  0  0  0  0  0  0  0  0  0  0  0
    1.2230    0.0622   -0.6886 C   0  0  0  0  0  0  0  0  0  0  0  0
    2.1095    1.1550   -0.1783 C   0  0  0  0  0  0  0  0  0  0  0  0
    1.8375    1.8726    0.7433 O   0  0  0  0  0  0  0  0  0  0  0  0
   -0.2478   -0.9782    1.1977 C   0  0  0  0  0  0  0  0  0  0  0  0
   -0.7681   -1.3897   -0.1249 C   0  0  0  0  0  0  0  0  0  0  0  0
   -2.1088   -1.2761   -0.4379 O   0  0  0  0  0  0  0  0  0  0  0  0
   -2.1432    3.0627   -0.0434 H   0  0  0  0  0  0  0  0  0  0  0  0
    1.7832   -0.8899   -0.7537 H   0  0  0  0  0  0  0  0  0  0  0  0
    0.9680    0.3545   -1.7334 H   0  0  0  0  0  0  0  0  0  0  0  0
    3.0492    1.2962   -0.6787 H   0  0  0  0  0  0  0  0  0  0  0  0
    0.5744   -1.5850    1.6249 H   0  0  0  0  0  0  0  0  0  0  0  0
   -0.9627   -0.6361    1.9951 H   0  0  0  0  0  0  0  0  0  0  0  0
   -0.2423   -2.1932   -0.6445 H   0  0  0  0  0  0  0  0  0  0  0  0
   -2.5804   -2.1358   -0.3874 H   0  0  0  0  0  0  0  0  0  0  0  0
  1  2  3  0
  2  3  1  0
  3  4  1  0
  4  5  1  0
  5  6  2  0
  3  7  1  0
  7  8  1  0
  8  9  1  0
  8  3  1  0
  1 10  1  0
  4 11  1  0
  4 12  1  0
  5 13  1  0
  7 14  1  0
  7 15  1  0
  8 16  1  0
  9 17  1  0
M  END
