
     RDKit          3D

 18 17  0  0  0  0  0  0  0  0999 V2000
    2.7712    0.8611   -1.4353 C   0  0  0  0  0  0  0  0  0  0  0  0
    2.2346   -0.0352   -0.8358 C   0  0  0  0  0  0  0  0  0  0  0  0
    1.6073   -1.1267   -0.0996 C   0  0  0  0  0  0  0  0  0  0  0  0
    0.3057   -0.6832    0.5058 C   0  0  0  0  0  0  0  0  0  0  0  0
   -0.6993   -0.2162   -0.4848 C   0  0  0  0  0  0  0  0  0  0  0  0
   -1.9720    0.2074    0.2223 C   0  0  0  0  0  0  0  0  0  0  0  0
   -1.7040    1.3211    1.1819 C   0  0  0  0  0  0  0  0  0  0  0  0
   -2.6805    1.7294    1.8050 O   0  0  0  0  0  0  0  0  0  0  0  0
    3.2355    1.6734   -1.9726 H   0  0  0  0  0  0  0  0  0  0  0  0
    2.2689   -1.5451    0.6855 H   0  0  0  0  0  0  0  0  0  0  0  0
    1.4323   -1.9432   -0.8545 H   0  0  0  0  0  0  0  0  0  0  0  0
   -0.1376   -1.5144    1.0931 H   0  0  0  0  0  0  0  0  0  0  0  0
    0.5422    0.1199    1.2347 H   0  0  0  0  0  0  0  0  0  0  0  0
   -0.9887   -1.1023   -1.1148 H   0  0  0  0  0  0  0  0  0  0  0  0
   -0.3509    0.5494   -1.1782 H   0  0  0  0  0  0  0  0  0  0  0  0
   -2.7188    0.6214   -0.5084 H   0  0  0  0  0  0  0  0  0  0  0  0
   -2.4287   -0.6377    0.7746 H   0  0  0  0  0  0  0  0  0  0  0  0
   -0.7172    1.7210    1.3014 H   0  0  0  0  0  0  0  0  0  0  0  0
  1  2  3  0
  2  3  1  0
  3  4  1  0
  4  5  1  0
  5  6  1  0
  6  7  1  0
  7  8  2  0
  1  9  1  0
  3 10  1  0
  3 11  1  0
  4 12  1  0
  4 13  1  0
  5 14  1  0
  5 15  1  0
  6 16  1  0
  6 17  1  0
  7 18  1  0
M  END
