
     RDKit          3D

 17 18  0  0  0  0  0  0  0  0999 V2000
    1.2661   -0.1482    2.4162 C   0  0  0  0  0  0  0  0  0  0  0  0
    1.4161   -0.3504    1.1134 C   0  0  0  0  0  0  0  0  0  0  0  0
    1.5928   -0.5755   -0.2459 C   0  0  0  0  0  0  0  0  0  0  0  0
    0.5032    0.0592   -1.0914 C   0  0  0  0  0  0  0  0  0  0  0  0
    0.5166    1.4640   -0.8598 O   0  0  0  0  0  0  0  0  0  0  0  0
   -0.7718    1.4704   -0.2620 C   0  0  0  0  0  0  0  0  0  0  0  0
   -0.8876    0.0311   -0.5881 C   0  0  0  0  0  0  0  0  0  0  0  0
   -1.7018   -0.8877   -0.0490 C   0  0  0  0  0  0  0  0  0  0  0  0
   -1.9226   -0.4490   -1.3792 O   0  0  0  0  0  0  0  0  0  0  0  0
    1.1499    0.0248    3.4453 H   0  0  0  0  0  0  0  0  0  0  0  0
    1.7212   -1.6475   -0.4757 H   0  0  0  0  0  0  0  0  0  0  0  0
    2.5831   -0.0769   -0.5922 H   0  0  0  0  0  0  0  0  0  0  0  0
    0.7251   -0.0775   -2.1547 H   0  0  0  0  0  0  0  0  0  0  0  0
   -0.6889    1.6520    0.8261 H   0  0  0  0  0  0  0  0  0  0  0  0
   -1.5022    2.1367   -0.7731 H   0  0  0  0  0  0  0  0  0  0  0  0
   -1.4397   -1.9879    0.0623 H   0  0  0  0  0  0  0  0  0  0  0  0
   -2.5595   -0.6376    0.6079 H   0  0  0  0  0  0  0  0  0  0  0  0
  1  2  3  0
  2  3  1  0
  3  4  1  0
  4  5  1  0
  5  6  1  0
  6  7  1  0
  7  8  1  0
  8  9  1  0
  7  4  1  0
  9  7  1  0
  1 10  1  0
  3 11  1  0
  3 12  1  0
  4 13  1  0
  6 14  1  0
  6 15  1  0
  8 16  1  0
  8 17  1  0
M  END
