
     RDKit          3D

 19 19  0  0  0  0  0  0  0  0999 V2000
    1.5044   -1.9456   -1.2134 C   0  0  0  0  0  0  0  0  0  0  0  0
    0.2392   -1.6240   -1.0557 C   0  0  0  0  0  0  0  0  0  0  0  0
   -1.0711   -1.2788   -0.9113 C   0  0  0  0  0  0  0  0  0  0  0  0
   -1.9996   -2.0207   -1.2792 O   0  0  0  0  0  0  0  0  0  0  0  0
   -1.4321    0.0503   -0.2872 C   0  0  0  0  0  0  0  0  0  0  0  0
   -0.1084    0.5853    0.2923 C   0  0  0  0  0  0  0  0  0  0  0  0
    0.6177   -0.2587    1.2905 C   0  0  0  0  0  0  0  0  0  0  0  0
    0.5532    1.6619   -0.4825 C   0  0  0  0  0  0  0  0  0  0  0  0
   -0.1995    2.0503    0.7226 C   0  0  0  0  0  0  0  0  0  0  0  0
    2.5966   -2.2276   -1.3317 H   0  0  0  0  0  0  0  0  0  0  0  0
   -2.2441    0.0226    0.3943 H   0  0  0  0  0  0  0  0  0  0  0  0
   -1.6916    0.6794   -1.2063 H   0  0  0  0  0  0  0  0  0  0  0  0
    0.2079   -1.2915    1.3351 H   0  0  0  0  0  0  0  0  0  0  0  0
    0.4281    0.1958    2.3112 H   0  0  0  0  0  0  0  0  0  0  0  0
    1.7110   -0.2881    1.1501 H   0  0  0  0  0  0  0  0  0  0  0  0
    0.1258    1.9669   -1.4667 H   0  0  0  0  0  0  0  0  0  0  0  0
    1.6560    1.7798   -0.4889 H   0  0  0  0  0  0  0  0  0  0  0  0
   -1.2346    2.4973    0.6163 H   0  0  0  0  0  0  0  0  0  0  0  0
    0.3409    2.3889    1.6104 H   0  0  0  0  0  0  0  0  0  0  0  0
  1  2  3  0
  2  3  1  0
  3  4  2  0
  3  5  1  0
  5  6  1  0
  6  7  1  0
  6  8  1  0
  8  9  1  0
  9  6  1  0
  1 10  1  0
  5 11  1  0
  5 12  1  0
  7 13  1  0
  7 14  1  0
  7 15  1  0
  8 16  1  0
  8 17  1  0
  9 18  1  0
  9 19  1  0
M  END
