
     RDKit          3D

 17 18  0  0  0  0  0  0  0  0999 V2000
    2.9519    1.1991   -0.3263 C   0  0  0  0  0  0  0  0  0  0  0  0
    1.7639    1.0950   -0.5981 C   0  0  0  0  0  0  0  0  0  0  0  0
    0.3430    0.9605   -0.9276 C   0  0  0  0  0  0  0  0  0  0  0  0
   -0.2192   -0.2609   -0.2667 C   0  0  0  0  0  0  0  0  0  0  0  0
    0.4027   -1.4024   -0.6568 O   0  0  0  0  0  0  0  0  0  0  0  0
   -0.3677   -0.1211    1.2622 C   0  0  0  0  0  0  0  0  0  0  0  0
   -1.3722   -1.2207    0.9958 C   0  0  0  0  0  0  0  0  0  0  0  0
   -2.5309   -1.1379    0.3747 O   0  0  0  0  0  0  0  0  0  0  0  0
   -1.7229   -0.2520   -0.1768 C   0  0  0  0  0  0  0  0  0  0  0  0
    3.9776    1.2910   -0.0727 H   0  0  0  0  0  0  0  0  0  0  0  0
   -0.2372    1.8360   -0.5293 H   0  0  0  0  0  0  0  0  0  0  0  0
    0.2049    0.9736   -2.0127 H   0  0  0  0  0  0  0  0  0  0  0  0
   -0.0757   -1.9883   -1.2644 H   0  0  0  0  0  0  0  0  0  0  0  0
   -0.7920    0.8324    1.5752 H   0  0  0  0  0  0  0  0  0  0  0  0
    0.4854   -0.4698    1.8361 H   0  0  0  0  0  0  0  0  0  0  0  0
   -0.7941   -2.1363    0.6471 H   0  0  0  0  0  0  0  0  0  0  0  0
   -2.0177    0.8017    0.1403 H   0  0  0  0  0  0  0  0  0  0  0  0
  1  2  3  0
  2  3  1  0
  3  4  1  0
  4  5  1  0
  4  6  1  0
  6  7  1  0
  7  8  1  0
  8  9  1  0
  9  4  1  0
  9  7  1  0
  1 10  1  0
  3 11  1  0
  3 12  1  0
  5 13  1  0
  6 14  1  0
  6 15  1  0
  7 16  1  0
  9 17  1  0
M  END
