
     RDKit          3D

 17 17  0  0  0  0  0  0  0  0999 V2000
    3.4586    1.1998   -0.7987 C   0  0  0  0  0  0  0  0  0  0  0  0
    2.1667    0.8456   -0.3250 C   0  0  0  0  0  0  0  0  0  0  0  0
    1.1921    0.5943    0.0375 C   0  0  0  0  0  0  0  0  0  0  0  0
   -0.1782    0.2634    0.5265 C   0  0  0  0  0  0  0  0  0  0  0  0
   -1.1265   -0.2140   -0.6033 C   0  0  0  0  0  0  0  0  0  0  0  0
   -1.8924   -1.3194    0.1217 C   0  0  0  0  0  0  0  0  0  0  0  0
   -1.9352   -0.7752    1.4365 O   0  0  0  0  0  0  0  0  0  0  0  0
   -0.4909   -0.4437    1.6882 C   0  0  0  0  0  0  0  0  0  0  0  0
   -0.0276   -0.8816    2.7716 O   0  0  0  0  0  0  0  0  0  0  0  0
    4.4831    1.4917   -1.1661 H   0  0  0  0  0  0  0  0  0  0  0  0
    0.6014    1.7501   -0.5956 H   0  0  0  0  0  0  0  0  0  0  0  0
    0.8012   -0.0046   -1.1998 H   0  0  0  0  0  0  0  0  0  0  0  0
   -0.6606    1.3759    0.7571 H   0  0  0  0  0  0  0  0  0  0  0  0
   -0.5138   -0.7778   -1.3976 H   0  0  0  0  0  0  0  0  0  0  0  0
   -1.7415    0.5793   -0.9975 H   0  0  0  0  0  0  0  0  0  0  0  0
   -1.2750   -2.2699    0.0889 H   0  0  0  0  0  0  0  0  0  0  0  0
   -2.8614   -1.4139   -0.3445 H   0  0  0  0  0  0  0  0  0  0  0  0
  1  2  3  0
  2  3  1  0
  3  4  1  0
  4  5  1  0
  5  6  1  0
  6  7  1  0
  7  8  1  0
  8  9  2  0
  8  4  1  0
  1 10  1  0
  3 11  1  0
  3 12  1  0
  4 13  1  0
  5 14  1  0
  5 15  1  0
  6 16  1  0
  6 17  1  0
M  END
