
     RDKit          3D

 19 19  0  0  0  0  0  0  0  0999 V2000
   -0.2207    3.4816   -0.1703 C   0  0  0  0  0  0  0  0  0  0  0  0
    0.0114    2.2973    0.1524 C   0  0  0  0  0  0  0  0  0  0  0  0
    0.2651    0.9038    0.5138 C   0  0  0  0  0  0  0  0  0  0  0  0
    0.5466   -0.0294   -0.6921 C   0  0  0  0  0  0  0  0  0  0  0  0
    1.7401   -0.9450   -0.4397 C   0  0  0  0  0  0  0  0  0  0  0  0
    2.8238   -0.0898   -0.2269 O   0  0  0  0  0  0  0  0  0  0  0  0
   -0.6903   -0.1489    0.1284 C   0  0  0  0  0  0  0  0  0  0  0  0
   -0.7991   -1.3338    0.8328 O   0  0  0  0  0  0  0  0  0  0  0  0
   -2.0997   -1.8064    0.7109 C   0  0  0  0  0  0  0  0  0  0  0  0
   -0.3948    4.4541   -0.4270 H   0  0  0  0  0  0  0  0  0  0  0  0
    0.9243    0.7854    1.4104 H   0  0  0  0  0  0  0  0  0  0  0  0
    0.5632    0.4624   -1.6805 H   0  0  0  0  0  0  0  0  0  0  0  0
    1.5964   -1.5380    0.4727 H   0  0  0  0  0  0  0  0  0  0  0  0
    1.9252   -1.5683   -1.3148 H   0  0  0  0  0  0  0  0  0  0  0  0
    2.7522    0.7257   -0.8034 H   0  0  0  0  0  0  0  0  0  0  0  0
   -1.6244    0.2105   -0.3842 H   0  0  0  0  0  0  0  0  0  0  0  0
   -2.3555   -1.9896   -0.3736 H   0  0  0  0  0  0  0  0  0  0  0  0
   -2.1856   -2.7900    1.2384 H   0  0  0  0  0  0  0  0  0  0  0  0
   -2.7782   -1.0816    1.1619 H   0  0  0  0  0  0  0  0  0  0  0  0
  1  2  3  0
  2  3  1  0
  3  4  1  0
  4  5  1  0
  5  6  1  0
  4  7  1  0
  7  8  1  0
  8  9  1  0
  7  3  1  0
  1 10  1  0
  3 11  1  0
  4 12  1  0
  5 13  1  0
  5 14  1  0
  6 15  1  0
  7 16  1  0
  9 17  1  0
  9 18  1  0
  9 19  1  0
M  END
