
     RDKit          3D

 18 18  0  0  0  0  0  0  0  0999 V2000
    2.6015   -1.6243   -0.1439 C   0  0  0  0  0  0  0  0  0  0  0  0
    1.8263   -0.6760   -0.1871 C   0  0  0  0  0  0  0  0  0  0  0  0
    0.8988    0.4525   -0.2636 C   0  0  0  0  0  0  0  0  0  0  0  0
    1.3620    1.6930    0.1751 O   0  0  0  0  0  0  0  0  0  0  0  0
   -0.0682    0.4433   -1.3763 C   0  0  0  0  0  0  0  0  0  0  0  0
   -0.5378    0.1176    0.0280 C   0  0  0  0  0  0  0  0  0  0  0  0
   -1.3255    1.1329    0.7921 C   0  0  0  0  0  0  0  0  0  0  0  0
   -0.9361   -1.3416    0.2012 C   0  0  0  0  0  0  0  0  0  0  0  0
    3.2840   -2.4323   -0.0995 H   0  0  0  0  0  0  0  0  0  0  0  0
    1.1076    1.9075    1.0863 H   0  0  0  0  0  0  0  0  0  0  0  0
   -0.0797   -0.3481   -2.1459 H   0  0  0  0  0  0  0  0  0  0  0  0
   -0.4238    1.4427   -1.7329 H   0  0  0  0  0  0  0  0  0  0  0  0
   -0.8775    1.1848    1.8221 H   0  0  0  0  0  0  0  0  0  0  0  0
   -2.4017    0.8775    0.8370 H   0  0  0  0  0  0  0  0  0  0  0  0
   -1.1653    2.1533    0.3392 H   0  0  0  0  0  0  0  0  0  0  0  0
   -0.7308   -1.6287    1.2339 H   0  0  0  0  0  0  0  0  0  0  0  0
   -0.4866   -1.9881   -0.5663 H   0  0  0  0  0  0  0  0  0  0  0  0
   -2.0472   -1.3659    0.0007 H   0  0  0  0  0  0  0  0  0  0  0  0
  1  2  3  0
  2  3  1  0
  3  4  1  0
  3  5  1  0
  5  6  1  0
  6  7  1  0
  6  8  1  0
  6  3  1  0
  1  9  1  0
  4 10  1  0
  5 11  1  0
  5 12  1  0
  7 13  1  0
  7 14  1  0
  7 15  1  0
  8 16  1  0
  8 17  1  0
  8 18  1  0
M  END
