
     RDKit          3D

 19 18  0  0  0  0  0  0  0  0999 V2000
    3.4067   -1.0337   -0.3015 C   0  0  0  0  0  0  0  0  0  0  0  0
    2.2440   -1.0078   -0.6150 C   0  0  0  0  0  0  0  0  0  0  0  0
    0.8156   -0.9961   -0.9835 C   0  0  0  0  0  0  0  0  0  0  0  0
    0.0295   -0.1834    0.0306 C   0  0  0  0  0  0  0  0  0  0  0  0
    0.5359    1.2429    0.0705 C   0  0  0  0  0  0  0  0  0  0  0  0
   -1.4193   -0.2153   -0.4301 C   0  0  0  0  0  0  0  0  0  0  0  0
   -2.3359    0.5450    0.4674 C   0  0  0  0  0  0  0  0  0  0  0  0
    4.4478   -1.0385   -0.0246 H   0  0  0  0  0  0  0  0  0  0  0  0
    0.6553   -0.5668   -1.9897 H   0  0  0  0  0  0  0  0  0  0  0  0
    0.4296   -2.0414   -0.9159 H   0  0  0  0  0  0  0  0  0  0  0  0
    0.1609   -0.6621    1.0223 H   0  0  0  0  0  0  0  0  0  0  0  0
    1.4703    1.2942   -0.5367 H   0  0  0  0  0  0  0  0  0  0  0  0
   -0.2587    1.9134   -0.3718 H   0  0  0  0  0  0  0  0  0  0  0  0
    0.7056    1.5932    1.0989 H   0  0  0  0  0  0  0  0  0  0  0  0
   -1.4137    0.2161   -1.4678 H   0  0  0  0  0  0  0  0  0  0  0  0
   -1.7917   -1.2437   -0.5348 H   0  0  0  0  0  0  0  0  0  0  0  0
   -3.0364    1.1266   -0.1861 H   0  0  0  0  0  0  0  0  0  0  0  0
   -2.9241   -0.1623    1.0873 H   0  0  0  0  0  0  0  0  0  0  0  0
   -1.7213    1.2198    1.1061 H   0  0  0  0  0  0  0  0  0  0  0  0
  1  2  3  0
  2  3  1  0
  3  4  1  0
  4  5  1  0
  4  6  1  0
  6  7  1  0
  1  8  1  0
  3  9  1  0
  3 10  1  0
  4 11  1  0
  5 12  1  0
  5 13  1  0
  5 14  1  0
  6 15  1  0
  6 16  1  0
  7 17  1  0
  7 18  1  0
  7 19  1  0
M  END
