
     RDKit          3D

 17 17  0  0  0  0  0  0  0  0999 V2000
    3.0801   -0.6140    0.4850 C   0  0  0  0  0  0  0  0  0  0  0  0
    1.9551   -0.4747    0.0759 C   0  0  0  0  0  0  0  0  0  0  0  0
    0.5835   -0.2958   -0.3980 C   0  0  0  0  0  0  0  0  0  0  0  0
   -0.3989    0.1905    0.3298 C   0  0  0  0  0  0  0  0  0  0  0  0
   -0.3075    0.6397    1.7380 C   0  0  0  0  0  0  0  0  0  0  0  0
   -1.6760    0.2536   -0.4487 C   0  0  0  0  0  0  0  0  0  0  0  0
   -1.1561    0.1602   -1.8312 C   0  0  0  0  0  0  0  0  0  0  0  0
   -1.6336    0.6295   -2.8244 O   0  0  0  0  0  0  0  0  0  0  0  0
    0.0797   -0.6327   -1.7483 C   0  0  0  0  0  0  0  0  0  0  0  0
    4.0647   -0.7416    0.8613 H   0  0  0  0  0  0  0  0  0  0  0  0
   -0.5896    1.7253    1.7464 H   0  0  0  0  0  0  0  0  0  0  0  0
    0.7437    0.5542    2.0911 H   0  0  0  0  0  0  0  0  0  0  0  0
   -0.9899    0.0752    2.3928 H   0  0  0  0  0  0  0  0  0  0  0  0
   -2.3392   -0.5983   -0.2296 H   0  0  0  0  0  0  0  0  0  0  0  0
   -2.1284    1.2376   -0.2202 H   0  0  0  0  0  0  0  0  0  0  0  0
    0.8149   -0.3805   -2.5442 H   0  0  0  0  0  0  0  0  0  0  0  0
   -0.1024   -1.7281   -1.7423 H   0  0  0  0  0  0  0  0  0  0  0  0
  1  2  3  0
  2  3  1  0
  3  4  2  0
  4  5  1  0
  4  6  1  0
  6  7  1  0
  7  8  2  0
  7  9  1  0
  9  3  1  0
  1 10  1  0
  5 11  1  0
  5 12  1  0
  5 13  1  0
  6 14  1  0
  6 15  1  0
  9 16  1  0
  9 17  1  0
M  END
