
     RDKit          3D

 18 18  0  0  0  0  0  0  0  0999 V2000
    1.8132    2.0690   -0.2592 C   0  0  0  0  0  0  0  0  0  0  0  0
    1.3046    1.0223   -0.6260 C   0  0  0  0  0  0  0  0  0  0  0  0
    0.6874   -0.2973   -1.0982 C   0  0  0  0  0  0  0  0  0  0  0  0
   -0.7246    0.1330   -1.4479 C   0  0  0  0  0  0  0  0  0  0  0  0
   -1.6004    0.2525   -0.4962 C   0  0  0  0  0  0  0  0  0  0  0  0
   -1.2702   -0.0193    0.9387 C   0  0  0  0  0  0  0  0  0  0  0  0
    0.0354   -0.5928    1.2616 C   0  0  0  0  0  0  0  0  0  0  0  0
    0.7364   -1.2223    0.0460 C   0  0  0  0  0  0  0  0  0  0  0  0
    2.2499    2.9969    0.0579 H   0  0  0  0  0  0  0  0  0  0  0  0
    1.1864   -0.6668   -1.9673 H   0  0  0  0  0  0  0  0  0  0  0  0
   -0.9436    0.3529   -2.4597 H   0  0  0  0  0  0  0  0  0  0  0  0
   -2.6378    0.5796   -0.6923 H   0  0  0  0  0  0  0  0  0  0  0  0
   -2.0844   -0.7363    1.2491 H   0  0  0  0  0  0  0  0  0  0  0  0
   -1.4940    0.9363    1.4845 H   0  0  0  0  0  0  0  0  0  0  0  0
   -0.0906   -1.3766    2.0466 H   0  0  0  0  0  0  0  0  0  0  0  0
    0.7540    0.1280    1.7569 H   0  0  0  0  0  0  0  0  0  0  0  0
    0.2405   -2.2033   -0.0875 H   0  0  0  0  0  0  0  0  0  0  0  0
    1.8376   -1.3558    0.2929 H   0  0  0  0  0  0  0  0  0  0  0  0
  1  2  3  0
  2  3  1  0
  3  4  1  0
  4  5  2  0
  5  6  1  0
  6  7  1  0
  7  8  1  0
  8  3  1  0
  1  9  1  0
  3 10  1  0
  4 11  1  0
  5 12  1  0
  6 13  1  0
  6 14  1  0
  7 15  1  0
  7 16  1  0
  8 17  1  0
  8 18  1  0
M  END
