
     RDKit          3D

 18 18  0  0  0  0  0  0  0  0999 V2000
    1.9410    2.2926    0.0607 C   0  0  0  0  0  0  0  0  0  0  0  0
    1.1990    1.2780   -0.0261 C   0  0  0  0  0  0  0  0  0  0  0  0
    0.3873    0.1400   -0.1049 C   0  0  0  0  0  0  0  0  0  0  0  0
    1.1489   -1.1693   -0.0939 C   0  0  0  0  0  0  0  0  0  0  0  0
   -0.7323    0.1469    0.9073 C   0  0  0  0  0  0  0  0  0  0  0  0
   -1.7340   -0.7527    0.2249 C   0  0  0  0  0  0  0  0  0  0  0  0
   -1.3708   -0.8740   -1.1193 O   0  0  0  0  0  0  0  0  0  0  0  0
   -0.5075    0.1931   -1.3662 C   0  0  0  0  0  0  0  0  0  0  0  0
    2.5662    3.1625    0.1332 H   0  0  0  0  0  0  0  0  0  0  0  0
    2.2053   -0.9302   -0.3276 H   0  0  0  0  0  0  0  0  0  0  0  0
    0.6875   -1.8618   -0.8563 H   0  0  0  0  0  0  0  0  0  0  0  0
    1.0694   -1.6874    0.8693 H   0  0  0  0  0  0  0  0  0  0  0  0
   -0.3009   -0.2873    1.8315 H   0  0  0  0  0  0  0  0  0  0  0  0
   -1.1143    1.1794    1.0826 H   0  0  0  0  0  0  0  0  0  0  0  0
   -2.7327   -0.2081    0.2994 H   0  0  0  0  0  0  0  0  0  0  0  0
   -1.8557   -1.7185    0.7123 H   0  0  0  0  0  0  0  0  0  0  0  0
   -0.9878    1.1488   -1.5161 H   0  0  0  0  0  0  0  0  0  0  0  0
    0.1315   -0.0520   -2.2092 H   0  0  0  0  0  0  0  0  0  0  0  0
  1  2  3  0
  2  3  1  0
  3  4  1  0
  3  5  1  0
  5  6  1  0
  6  7  1  0
  7  8  1  0
  8  3  1  0
  1  9  1  0
  4 10  1  0
  4 11  1  0
  4 12  1  0
  5 13  1  0
  5 14  1  0
  6 15  1  0
  6 16  1  0
  8 17  1  0
  8 18  1  0
M  END
