
     RDKit          3D

 17 17  0  0  0  0  0  0  0  0999 V2000
    3.1458   -0.4852   -1.5399 C   0  0  0  0  0  0  0  0  0  0  0  0
    2.0371   -0.6907   -1.1097 C   0  0  0  0  0  0  0  0  0  0  0  0
    0.7068   -0.9170   -0.5962 C   0  0  0  0  0  0  0  0  0  0  0  0
    0.1997   -2.0572   -0.8542 O   0  0  0  0  0  0  0  0  0  0  0  0
    0.0045    0.1110    0.1688 C   0  0  0  0  0  0  0  0  0  0  0  0
    0.7526    1.2495    0.3155 O   0  0  0  0  0  0  0  0  0  0  0  0
   -0.6331   -0.3618    1.4725 C   0  0  0  0  0  0  0  0  0  0  0  0
   -1.7703    0.6232    1.1698 C   0  0  0  0  0  0  0  0  0  0  0  0
   -1.4181    0.4172   -0.3107 C   0  0  0  0  0  0  0  0  0  0  0  0
    4.1252   -0.2875   -1.9206 H   0  0  0  0  0  0  0  0  0  0  0  0
    1.4872    1.0956    0.9812 H   0  0  0  0  0  0  0  0  0  0  0  0
   -0.0374   -0.0759    2.3498 H   0  0  0  0  0  0  0  0  0  0  0  0
   -0.9924   -1.3956    1.4676 H   0  0  0  0  0  0  0  0  0  0  0  0
   -2.7608    0.2752    1.4595 H   0  0  0  0  0  0  0  0  0  0  0  0
   -1.4897    1.6548    1.4834 H   0  0  0  0  0  0  0  0  0  0  0  0
   -1.8560   -0.4982   -0.7398 H   0  0  0  0  0  0  0  0  0  0  0  0
   -1.5013    1.3425   -0.8752 H   0  0  0  0  0  0  0  0  0  0  0  0
  1  2  3  0
  2  3  1  0
  3  4  2  0
  3  5  1  0
  5  6  1  0
  5  7  1  0
  7  8  1  0
  8  9  1  0
  9  5  1  0
  1 10  1  0
  6 11  1  0
  7 12  1  0
  7 13  1  0
  8 14  1  0
  8 15  1  0
  9 16  1  0
  9 17  1  0
M  END
