
     RDKit          3D

 17 16  0  0  0  0  0  0  0  0999 V2000
    0.9439   -2.1552    2.1927 C   0  0  0  0  0  0  0  0  0  0  0  0
    0.7271   -1.2537    1.2287 C   0  0  0  0  0  0  0  0  0  0  0  0
    0.4921   -0.3166    0.2560 C   0  0  0  0  0  0  0  0  0  0  0  0
   -0.5188   -0.7724   -0.7652 C   0  0  0  0  0  0  0  0  0  0  0  0
   -0.7369    0.2905   -1.8287 C   0  0  0  0  0  0  0  0  0  0  0  0
    0.1456    1.0350    0.8718 C   0  0  0  0  0  0  0  0  0  0  0  0
   -0.0883    2.0074   -0.0632 O   0  0  0  0  0  0  0  0  0  0  0  0
    1.1125   -2.8105    2.9115 H   0  0  0  0  0  0  0  0  0  0  0  0
    1.4366   -0.1157   -0.3485 H   0  0  0  0  0  0  0  0  0  0  0  0
   -0.1531   -1.6713   -1.3512 H   0  0  0  0  0  0  0  0  0  0  0  0
   -1.4644   -1.1168   -0.3152 H   0  0  0  0  0  0  0  0  0  0  0  0
   -1.0112   -0.1570   -2.7960 H   0  0  0  0  0  0  0  0  0  0  0  0
    0.1746    0.9162   -2.0122 H   0  0  0  0  0  0  0  0  0  0  0  0
   -1.5569    0.9661   -1.5089 H   0  0  0  0  0  0  0  0  0  0  0  0
    1.0882    1.3378    1.4225 H   0  0  0  0  0  0  0  0  0  0  0  0
   -0.6699    0.9175    1.5942 H   0  0  0  0  0  0  0  0  0  0  0  0
    0.0789    2.8988    0.3099 H   0  0  0  0  0  0  0  0  0  0  0  0
  1  2  3  0
  2  3  1  0
  3  4  1  0
  4  5  1  0
  3  6  1  0
  6  7  1  0
  1  8  1  0
  3  9  1  0
  4 10  1  0
  4 11  1  0
  5 12  1  0
  5 13  1  0
  5 14  1  0
  6 15  1  0
  6 16  1  0
  7 17  1  0
M  END
