
     RDKit          3D

 19 20  0  0  0  0  0  0  0  0999 V2000
    1.8940   -0.8957   -1.9800 C   0  0  0  0  0  0  0  0  0  0  0  0
    1.1647   -0.6156   -1.3515 C   0  0  0  0  0  0  0  0  0  0  0  0
    0.1502   -0.2387   -0.5078 C   0  0  0  0  0  0  0  0  0  0  0  0
    0.4459   -0.6015    0.9962 C   0  0  0  0  0  0  0  0  0  0  0  0
    0.9824    0.7738    1.3689 C   0  0  0  0  0  0  0  0  0  0  0  0
    0.0488    1.6699    0.8419 O   0  0  0  0  0  0  0  0  0  0  0  0
   -0.3774    1.1129   -0.4032 C   0  0  0  0  0  0  0  0  0  0  0  0
   -1.7802    0.5752   -0.2679 C   0  0  0  0  0  0  0  0  0  0  0  0
   -1.2650   -0.7961   -0.8125 C   0  0  0  0  0  0  0  0  0  0  0  0
    2.8427   -1.2743   -2.8246 H   0  0  0  0  0  0  0  0  0  0  0  0
    1.2402   -1.3357    0.9891 H   0  0  0  0  0  0  0  0  0  0  0  0
   -0.4620   -0.8590    1.4716 H   0  0  0  0  0  0  0  0  0  0  0  0
    1.0695    0.7854    2.4622 H   0  0  0  0  0  0  0  0  0  0  0  0
    1.9528    0.9622    0.9268 H   0  0  0  0  0  0  0  0  0  0  0  0
   -0.1933    1.8250   -1.2389 H   0  0  0  0  0  0  0  0  0  0  0  0
   -2.5091    0.9771   -1.0239 H   0  0  0  0  0  0  0  0  0  0  0  0
   -2.2120    0.5141    0.7209 H   0  0  0  0  0  0  0  0  0  0  0  0
   -1.5146   -0.9397   -1.8454 H   0  0  0  0  0  0  0  0  0  0  0  0
   -1.4774   -1.6392   -0.1292 H   0  0  0  0  0  0  0  0  0  0  0  0
  1  2  3  0
  2  3  1  0
  3  4  1  0
  4  5  1  0
  5  6  1  0
  6  7  1  0
  7  8  1  0
  8  9  1  0
  7  3  1  0
  9  3  1  0
  1 10  1  0
  4 11  1  0
  4 12  1  0
  5 13  1  0
  5 14  1  0
  7 15  1  0
  8 16  1  0
  8 17  1  0
  9 18  1  0
  9 19  1  0
M  END
