
     RDKit          3D

 19 20  0  0  0  0  0  0  0  0999 V2000
    3.5436    1.7422   -0.0037 C   0  0  0  0  0  0  0  0  0  0  0  0
    2.5281    1.1079    0.6047 C   0  0  0  0  0  0  0  0  0  0  0  0
    1.4594    0.4493    1.2688 C   0  0  0  0  0  0  0  0  0  0  0  0
    0.3285    0.5359    0.0670 C   0  0  0  0  0  0  0  0  0  0  0  0
    0.9127   -0.4195   -1.0105 O   0  0  0  0  0  0  0  0  0  0  0  0
   -0.3139   -0.4489   -0.4995 C   0  0  0  0  0  0  0  0  0  0  0  0
   -1.1248   -1.4968    0.1831 C   0  0  0  0  0  0  0  0  0  0  0  0
   -2.3446   -0.5379   -0.0918 C   0  0  0  0  0  0  0  0  0  0  0  0
   -1.5694   -0.2364   -1.4336 C   0  0  0  0  0  0  0  0  0  0  0  0
    4.3171    2.2085   -0.4512 H   0  0  0  0  0  0  0  0  0  0  0  0
    1.5767   -0.5864    1.4930 H   0  0  0  0  0  0  0  0  0  0  0  0
    0.9864    1.0741    2.0238 H   0  0  0  0  0  0  0  0  0  0  0  0
    0.5710    1.5838   -0.4227 H   0  0  0  0  0  0  0  0  0  0  0  0
   -0.8394   -1.5284    1.2382 H   0  0  0  0  0  0  0  0  0  0  0  0
   -1.1937   -2.4045   -0.3922 H   0  0  0  0  0  0  0  0  0  0  0  0
   -3.2222   -1.1108   -0.2882 H   0  0  0  0  0  0  0  0  0  0  0  0
   -2.3451    0.3009    0.6006 H   0  0  0  0  0  0  0  0  0  0  0  0
   -1.6288    0.7906   -1.7709 H   0  0  0  0  0  0  0  0  0  0  0  0
   -1.6417   -1.0236   -2.1592 H   0  0  0  0  0  0  0  0  0  0  0  0
  1  2  3  0
  2  3  1  0
  3  4  1  0
  4  5  1  0
  5  6  1  0
  6  7  1  0
  7  8  1  0
  8  9  1  0
  6  4  1  0
  9  6  1  0
  1 10  1  0
  3 11  1  0
  3 12  1  0
  4 13  1  0
  7 14  1  0
  7 15  1  0
  8 16  1  0
  8 17  1  0
  9 18  1  0
  9 19  1  0
M  END
