
     RDKit          3D

 21 20  0  0  0  0  0  0  0  0999 V2000
    2.1999    2.7673    1.3139 C   0  0  0  0  0  0  0  0  0  0  0  0
    1.4561    1.7873    1.2527 C   0  0  0  0  0  0  0  0  0  0  0  0
    0.5457    0.6290    1.1865 C   0  0  0  0  0  0  0  0  0  0  0  0
    1.3973   -0.5490    1.6962 C   0  0  0  0  0  0  0  0  0  0  0  0
    0.1931    0.4051   -0.2345 C   0  0  0  0  0  0  0  0  0  0  0  0
    0.6301    1.1521   -1.0893 O   0  0  0  0  0  0  0  0  0  0  0  0
   -0.6887   -0.7284   -0.5931 C   0  0  0  0  0  0  0  0  0  0  0  0
   -2.0350   -0.6789    0.0423 C   0  0  0  0  0  0  0  0  0  0  0  0
   -0.8887   -0.7934   -2.1120 C   0  0  0  0  0  0  0  0  0  0  0  0
    2.8354    3.6096    1.3482 H   0  0  0  0  0  0  0  0  0  0  0  0
   -0.3165    0.8249    1.8176 H   0  0  0  0  0  0  0  0  0  0  0  0
    1.9225   -0.1671    2.5914 H   0  0  0  0  0  0  0  0  0  0  0  0
    2.1427   -0.7139    0.8690 H   0  0  0  0  0  0  0  0  0  0  0  0
    0.8112   -1.4587    1.8360 H   0  0  0  0  0  0  0  0  0  0  0  0
   -0.1302   -1.6741   -0.3524 H   0  0  0  0  0  0  0  0  0  0  0  0
   -2.4289   -1.6992    0.2934 H   0  0  0  0  0  0  0  0  0  0  0  0
   -1.9539   -0.1376    1.0029 H   0  0  0  0  0  0  0  0  0  0  0  0
   -2.8184   -0.2320   -0.6259 H   0  0  0  0  0  0  0  0  0  0  0  0
    0.0738   -0.6461   -2.6504 H   0  0  0  0  0  0  0  0  0  0  0  0
   -1.5766    0.0615   -2.3443 H   0  0  0  0  0  0  0  0  0  0  0  0
   -1.3709   -1.7587   -2.3577 H   0  0  0  0  0  0  0  0  0  0  0  0
  1  2  3  0
  2  3  1  0
  3  4  1  0
  3  5  1  0
  5  6  2  0
  5  7  1  0
  7  8  1  0
  7  9  1  0
  1 10  1  0
  3 11  1  0
  4 12  1  0
  4 13  1  0
  4 14  1  0
  7 15  1  0
  8 16  1  0
  8 17  1  0
  8 18  1  0
  9 19  1  0
  9 20  1  0
  9 21  1  0
M  END
