
     RDKit          3D

 17 17  0  0  0  0  0  0  0  0999 V2000
    4.6193    0.1920   -0.3350 C   0  0  0  0  0  0  0  0  0  0  0  0
    3.3139    0.0163   -0.2466 C   0  0  0  0  0  0  0  0  0  0  0  0
    1.8135   -0.2088   -0.1546 C   0  0  0  0  0  0  0  0  0  0  0  0
    0.7601   -0.3745   -0.0773 C   0  0  0  0  0  0  0  0  0  0  0  0
   -0.5171   -0.5957    0.0045 C   0  0  0  0  0  0  0  0  0  0  0  0
   -1.2957   -0.5505   -1.3818 C   0  0  0  0  0  0  0  0  0  0  0  0
   -2.2474    0.2007   -0.7614 O   0  0  0  0  0  0  0  0  0  0  0  0
   -1.7299    0.0349    0.4674 C   0  0  0  0  0  0  0  0  0  0  0  0
   -1.4916    1.0773    1.4657 C   0  0  0  0  0  0  0  0  0  0  0  0
    5.6106    0.3429   -0.4013 H   0  0  0  0  0  0  0  0  0  0  0  0
   -0.6546   -1.8725    0.2759 H   0  0  0  0  0  0  0  0  0  0  0  0
   -1.4219   -1.5845   -1.7346 H   0  0  0  0  0  0  0  0  0  0  0  0
   -0.6143    0.0819   -2.0525 H   0  0  0  0  0  0  0  0  0  0  0  0
   -2.4070   -0.8455    0.8939 H   0  0  0  0  0  0  0  0  0  0  0  0
   -2.1978    1.7727    1.8231 H   0  0  0  0  0  0  0  0  0  0  0  0
   -0.9926    0.5728    2.3657 H   0  0  0  0  0  0  0  0  0  0  0  0
   -0.5473    1.7406    1.0712 H   0  0  0  0  0  0  0  0  0  0  0  0
  1  2  3  0
  2  3  1  0
  3  4  3  0
  4  5  1  0
  5  6  1  0
  6  7  1  0
  7  8  1  0
  8  9  1  0
  8  5  1  0
  1 10  1  0
  5 11  1  0
  6 12  1  0
  6 13  1  0
  8 14  1  0
  9 15  1  0
  9 16  1  0
  9 17  1  0
M  END
