
     RDKit          3D

 17 18  0  0  0  0  0  0  0  0999 V2000
    3.5233    0.6398   -0.6804 C   0  0  0  0  0  0  0  0  0  0  0  0
    2.3789    0.4398   -0.3522 C   0  0  0  0  0  0  0  0  0  0  0  0
    1.0302    0.1811    0.0459 C   0  0  0  0  0  0  0  0  0  0  0  0
    0.5101   -0.0712    1.2427 C   0  0  0  0  0  0  0  0  0  0  0  0
   -0.9354   -0.1917    0.9631 C   0  0  0  0  0  0  0  0  0  0  0  0
   -1.1306    0.9722   -0.0234 C   0  0  0  0  0  0  0  0  0  0  0  0
   -0.1325    0.1381   -0.8415 C   0  0  0  0  0  0  0  0  0  0  0  0
   -0.9205   -1.0534   -0.2846 C   0  0  0  0  0  0  0  0  0  0  0  0
   -2.1637   -1.1077   -0.8666 O   0  0  0  0  0  0  0  0  0  0  0  0
    4.5427    0.8171   -0.9784 H   0  0  0  0  0  0  0  0  0  0  0  0
    1.0350   -0.1623    2.1819 H   0  0  0  0  0  0  0  0  0  0  0  0
   -1.6421   -0.3444    1.7151 H   0  0  0  0  0  0  0  0  0  0  0  0
   -0.6871    1.8874    0.3864 H   0  0  0  0  0  0  0  0  0  0  0  0
   -2.1332    1.0285   -0.4405 H   0  0  0  0  0  0  0  0  0  0  0  0
   -0.0780    0.2801   -1.8736 H   0  0  0  0  0  0  0  0  0  0  0  0
   -0.3415   -1.9806   -0.2226 H   0  0  0  0  0  0  0  0  0  0  0  0
   -2.8554   -1.4730   -0.2691 H   0  0  0  0  0  0  0  0  0  0  0  0
  1  2  3  0
  2  3  1  0
  3  4  2  0
  4  5  1  0
  5  6  1  0
  6  7  1  0
  7  8  1  0
  8  9  1  0
  7  3  1  0
  8  5  1  0
  1 10  1  0
  4 11  1  0
  5 12  1  0
  6 13  1  0
  6 14  1  0
  7 15  1  0
  8 16  1  0
  9 17  1  0
M  END
