
     RDKit          3D

 21 21  0  0  0  0  0  0  0  0999 V2000
    3.0225    0.7597   -1.6395 C   0  0  0  0  0  0  0  0  0  0  0  0
    1.8305    0.1999   -1.5165 C   0  0  0  0  0  0  0  0  0  0  0  0
    0.5377   -0.3959   -1.3799 C   0  0  0  0  0  0  0  0  0  0  0  0
   -0.1442    0.0891   -0.1407 C   0  0  0  0  0  0  0  0  0  0  0  0
   -0.3430    1.5620   -0.1079 C   0  0  0  0  0  0  0  0  0  0  0  0
   -1.4688   -0.6477    0.1107 C   0  0  0  0  0  0  0  0  0  0  0  0
   -1.4509   -0.6793    1.6199 C   0  0  0  0  0  0  0  0  0  0  0  0
   -0.2568   -0.1081    2.0597 O   0  0  0  0  0  0  0  0  0  0  0  0
    0.6305   -0.4874    1.0431 C   0  0  0  0  0  0  0  0  0  0  0  0
    3.7848    1.1157   -1.7037 H   0  0  0  0  0  0  0  0  0  0  0  0
    0.7102   -1.5236   -1.1787 H   0  0  0  0  0  0  0  0  0  0  0  0
   -0.1036   -0.3132   -2.2879 H   0  0  0  0  0  0  0  0  0  0  0  0
   -0.4566    1.9921    0.8931 H   0  0  0  0  0  0  0  0  0  0  0  0
    0.3862    2.0999   -0.6881 H   0  0  0  0  0  0  0  0  0  0  0  0
   -1.3490    1.6959   -0.6470 H   0  0  0  0  0  0  0  0  0  0  0  0
   -1.4441   -1.6751   -0.2681 H   0  0  0  0  0  0  0  0  0  0  0  0
   -2.2891   -0.0425   -0.2782 H   0  0  0  0  0  0  0  0  0  0  0  0
   -1.4826   -1.7439    1.9900 H   0  0  0  0  0  0  0  0  0  0  0  0
   -2.3262   -0.1699    2.0775 H   0  0  0  0  0  0  0  0  0  0  0  0
    1.6335   -0.1151    1.1515 H   0  0  0  0  0  0  0  0  0  0  0  0
    0.5789   -1.6127    0.8908 H   0  0  0  0  0  0  0  0  0  0  0  0
  1  2  3  0
  2  3  1  0
  3  4  1  0
  4  5  1  0
  4  6  1  0
  6  7  1  0
  7  8  1  0
  8  9  1  0
  9  4  1  0
  1 10  1  0
  3 11  1  0
  3 12  1  0
  5 13  1  0
  5 14  1  0
  5 15  1  0
  6 16  1  0
  6 17  1  0
  7 18  1  0
  7 19  1  0
  9 20  1  0
  9 21  1  0
M  END
