
     RDKit          3D

 20 20  0  0  0  0  0  0  0  0999 V2000
    1.9319   -2.1654    0.2159 C   0  0  0  0  0  0  0  0  0  0  0  0
    1.4615   -1.0583    0.2967 C   0  0  0  0  0  0  0  0  0  0  0  0
    0.8900    0.2960    0.3700 C   0  0  0  0  0  0  0  0  0  0  0  0
    1.5868    1.1769   -0.6355 C   0  0  0  0  0  0  0  0  0  0  0  0
   -0.5904    0.1532    0.0788 C   0  0  0  0  0  0  0  0  0  0  0  0
   -0.9539   -0.4285   -1.2694 C   0  0  0  0  0  0  0  0  0  0  0  0
   -1.4050   -0.3752    1.2456 C   0  0  0  0  0  0  0  0  0  0  0  0
   -1.5674    1.0278    0.7617 C   0  0  0  0  0  0  0  0  0  0  0  0
    2.3526   -3.1444    0.1425 H   0  0  0  0  0  0  0  0  0  0  0  0
    1.0721    0.7155    1.3787 H   0  0  0  0  0  0  0  0  0  0  0  0
    1.4707    2.2569   -0.4251 H   0  0  0  0  0  0  0  0  0  0  0  0
    1.1770    1.0139   -1.6734 H   0  0  0  0  0  0  0  0  0  0  0  0
    2.6658    0.9293   -0.7098 H   0  0  0  0  0  0  0  0  0  0  0  0
   -0.4772   -1.4193   -1.3345 H   0  0  0  0  0  0  0  0  0  0  0  0
   -2.0582   -0.6051   -1.2996 H   0  0  0  0  0  0  0  0  0  0  0  0
   -0.6920    0.2474   -2.1057 H   0  0  0  0  0  0  0  0  0  0  0  0
   -0.8968   -0.5520    2.2079 H   0  0  0  0  0  0  0  0  0  0  0  0
   -2.2178   -1.1027    1.0435 H   0  0  0  0  0  0  0  0  0  0  0  0
   -2.5228    1.2293    0.2361 H   0  0  0  0  0  0  0  0  0  0  0  0
   -1.2269    1.8048    1.4754 H   0  0  0  0  0  0  0  0  0  0  0  0
  1  2  3  0
  2  3  1  0
  3  4  1  0
  3  5  1  0
  5  6  1  0
  5  7  1  0
  7  8  1  0
  8  5  1  0
  1  9  1  0
  3 10  1  0
  4 11  1  0
  4 12  1  0
  4 13  1  0
  6 14  1  0
  6 15  1  0
  6 16  1  0
  7 17  1  0
  7 18  1  0
  8 19  1  0
  8 20  1  0
M  END
