
     RDKit          3D

 15 14  0  0  0  0  0  0  0  0999 V2000
    3.2410    0.6465   -2.6765 C   0  0  0  0  0  0  0  0  0  0  0  0
    2.3013    0.1770   -2.0830 C   0  0  0  0  0  0  0  0  0  0  0  0
    1.1763   -0.3586   -1.3774 C   0  0  0  0  0  0  0  0  0  0  0  0
    0.7484   -1.4872   -1.7243 O   0  0  0  0  0  0  0  0  0  0  0  0
    0.5213    0.3801   -0.2677 C   0  0  0  0  0  0  0  0  0  0  0  0
   -0.5619   -0.3470    0.2713 O   0  0  0  0  0  0  0  0  0  0  0  0
   -1.2730    0.2126    1.3147 C   0  0  0  0  0  0  0  0  0  0  0  0
   -2.4245   -0.4994    1.9282 C   0  0  0  0  0  0  0  0  0  0  0  0
   -0.9351    1.3439    1.7481 O   0  0  0  0  0  0  0  0  0  0  0  0
    4.0850    1.0486   -3.1992 H   0  0  0  0  0  0  0  0  0  0  0  0
    1.2594    0.6199    0.5411 H   0  0  0  0  0  0  0  0  0  0  0  0
    0.1108    1.3394   -0.6955 H   0  0  0  0  0  0  0  0  0  0  0  0
   -3.2147   -0.7450    1.1583 H   0  0  0  0  0  0  0  0  0  0  0  0
   -2.9345    0.1735    2.6495 H   0  0  0  0  0  0  0  0  0  0  0  0
   -2.0998   -1.4576    2.4124 H   0  0  0  0  0  0  0  0  0  0  0  0
  1  2  3  0
  2  3  1  0
  3  4  2  0
  3  5  1  0
  5  6  1  0
  6  7  1  0
  7  8  1  0
  7  9  2  0
  1 10  1  0
  5 11  1  0
  5 12  1  0
  8 13  1  0
  8 14  1  0
  8 15  1  0
M  END
