
     RDKit          3D

 19 18  0  0  0  0  0  0  0  0999 V2000
    5.5453   -0.9170   -0.0937 C   0  0  0  0  0  0  0  0  0  0  0  0
    4.4096   -0.5376   -0.3463 C   0  0  0  0  0  0  0  0  0  0  0  0
    3.0986   -0.0838   -0.6189 C   0  0  0  0  0  0  0  0  0  0  0  0
    1.9765    0.3085   -0.8317 C   0  0  0  0  0  0  0  0  0  0  0  0
    0.6101    0.7770   -1.0659 C   0  0  0  0  0  0  0  0  0  0  0  0
   -0.1785    0.3182    0.0032 O   0  0  0  0  0  0  0  0  0  0  0  0
   -1.4709    0.7774   -0.2451 C   0  0  0  0  0  0  0  0  0  0  0  0
   -2.4387    0.3553    0.8346 C   0  0  0  0  0  0  0  0  0  0  0  0
   -2.4748   -1.1478    0.9048 C   0  0  0  0  0  0  0  0  0  0  0  0
    6.5292   -1.2429    0.1234 H   0  0  0  0  0  0  0  0  0  0  0  0
    0.1989    0.3805   -2.0369 H   0  0  0  0  0  0  0  0  0  0  0  0
    0.5457    1.8866   -1.0520 H   0  0  0  0  0  0  0  0  0  0  0  0
   -1.4168    1.8673   -0.3669 H   0  0  0  0  0  0  0  0  0  0  0  0
   -1.8024    0.3195   -1.2051 H   0  0  0  0  0  0  0  0  0  0  0  0
   -2.1298    0.7909    1.8167 H   0  0  0  0  0  0  0  0  0  0  0  0
   -3.4176    0.8109    0.5977 H   0  0  0  0  0  0  0  0  0  0  0  0
   -3.5271   -1.5269    0.7632 H   0  0  0  0  0  0  0  0  0  0  0  0
   -2.1629   -1.5403    1.8961 H   0  0  0  0  0  0  0  0  0  0  0  0
   -1.8941   -1.5958    0.0712 H   0  0  0  0  0  0  0  0  0  0  0  0
  1  2  3  0
  2  3  1  0
  3  4  3  0
  4  5  1  0
  5  6  1  0
  6  7  1  0
  7  8  1  0
  8  9  1  0
  1 10  1  0
  5 11  1  0
  5 12  1  0
  7 13  1  0
  7 14  1  0
  8 15  1  0
  8 16  1  0
  9 17  1  0
  9 18  1  0
  9 19  1  0
M  END
