
     RDKit          3D

 14 13  0  0  0  0  0  0  0  0999 V2000
    1.4731   -1.0385   -2.1332 C   0  0  0  0  0  0  0  0  0  0  0  0
    1.0577   -0.5186   -1.1957 C   0  0  0  0  0  0  0  0  0  0  0  0
    0.5314    0.1820    0.0389 C   0  0  0  0  0  0  0  0  0  0  0  0
    0.2642    1.5778   -0.2282 C   0  0  0  0  0  0  0  0  0  0  0  0
    0.7113    2.5454    0.3320 O   0  0  0  0  0  0  0  0  0  0  0  0
   -0.6526   -0.6456    0.4520 C   0  0  0  0  0  0  0  0  0  0  0  0
   -1.3851   -0.1858    1.6200 C   0  0  0  0  0  0  0  0  0  0  0  0
   -0.9846    0.8190    2.1831 O   0  0  0  0  0  0  0  0  0  0  0  0
    1.8570   -1.5497   -3.0292 H   0  0  0  0  0  0  0  0  0  0  0  0
    1.3118    0.1027    0.8307 H   0  0  0  0  0  0  0  0  0  0  0  0
   -0.4507    1.8595   -1.0625 H   0  0  0  0  0  0  0  0  0  0  0  0
   -0.2370   -1.6730    0.6834 H   0  0  0  0  0  0  0  0  0  0  0  0
   -1.2491   -0.7803   -0.4787 H   0  0  0  0  0  0  0  0  0  0  0  0
   -2.2473   -0.6948    1.9872 H   0  0  0  0  0  0  0  0  0  0  0  0
  1  2  3  0
  2  3  1  0
  3  4  1  0
  4  5  2  0
  3  6  1  0
  6  7  1  0
  7  8  2  0
  1  9  1  0
  3 10  1  0
  4 11  1  0
  6 12  1  0
  6 13  1  0
  7 14  1  0
M  END
