
     RDKit          3D

 19 19  0  0  0  0  0  0  0  0999 V2000
   -2.0077    2.7470   -0.3731 C   0  0  0  0  0  0  0  0  0  0  0  0
   -1.4821    1.6071   -0.4249 C   0  0  0  0  0  0  0  0  0  0  0  0
   -0.8896    0.3423   -0.4596 C   0  0  0  0  0  0  0  0  0  0  0  0
   -1.6908   -0.7331   -0.0903 C   0  0  0  0  0  0  0  0  0  0  0  0
   -0.9218   -1.9661   -0.2290 C   0  0  0  0  0  0  0  0  0  0  0  0
    0.0728   -1.5824   -1.1917 O   0  0  0  0  0  0  0  0  0  0  0  0
    0.3741   -0.2450   -0.7740 C   0  0  0  0  0  0  0  0  0  0  0  0
    1.4345   -0.4101    0.2632 C   0  0  0  0  0  0  0  0  0  0  0  0
    1.9284    0.7965    0.9417 C   0  0  0  0  0  0  0  0  0  0  0  0
   -2.4922    3.7810   -0.3123 H   0  0  0  0  0  0  0  0  0  0  0  0
   -2.7092   -0.6999    0.2556 H   0  0  0  0  0  0  0  0  0  0  0  0
   -0.5189   -2.3154    0.6923 H   0  0  0  0  0  0  0  0  0  0  0  0
   -1.5159   -2.7669   -0.7685 H   0  0  0  0  0  0  0  0  0  0  0  0
    0.7433    0.2785   -1.6964 H   0  0  0  0  0  0  0  0  0  0  0  0
    2.2942   -1.0106   -0.2383 H   0  0  0  0  0  0  0  0  0  0  0  0
    1.0882   -1.1805    1.0477 H   0  0  0  0  0  0  0  0  0  0  0  0
    1.3765    1.0001    1.8980 H   0  0  0  0  0  0  0  0  0  0  0  0
    3.0077    0.6695    1.1982 H   0  0  0  0  0  0  0  0  0  0  0  0
    1.9085    1.6880    0.2613 H   0  0  0  0  0  0  0  0  0  0  0  0
  1  2  3  0
  2  3  1  0
  3  4  2  0
  4  5  1  0
  5  6  1  0
  6  7  1  0
  7  8  1  0
  8  9  1  0
  7  3  1  0
  1 10  1  0
  4 11  1  0
  5 12  1  0
  5 13  1  0
  7 14  1  0
  8 15  1  0
  8 16  1  0
  9 17  1  0
  9 18  1  0
  9 19  1  0
M  END
