
     RDKit          3D

 19 18  0  0  0  0  0  0  0  0999 V2000
    3.0270   -1.4178    0.5221 C   0  0  0  0  0  0  0  0  0  0  0  0
    1.9021   -0.9886    0.7312 C   0  0  0  0  0  0  0  0  0  0  0  0
    0.5336   -0.4482    0.9699 C   0  0  0  0  0  0  0  0  0  0  0  0
    0.6533    0.7945    1.8648 C   0  0  0  0  0  0  0  0  0  0  0  0
    0.0266   -0.0265   -0.3808 C   0  0  0  0  0  0  0  0  0  0  0  0
   -1.3463    0.5824   -0.2806 C   0  0  0  0  0  0  0  0  0  0  0  0
   -1.8172    0.9884   -1.5687 O   0  0  0  0  0  0  0  0  0  0  0  0
   -2.0627    0.1253   -2.5615 C   0  0  0  0  0  0  0  0  0  0  0  0
   -1.8880   -1.1495   -2.3361 O   0  0  0  0  0  0  0  0  0  0  0  0
    4.0323   -1.7914    0.3273 H   0  0  0  0  0  0  0  0  0  0  0  0
   -0.0825   -1.2341    1.3959 H   0  0  0  0  0  0  0  0  0  0  0  0
   -0.0797    0.6974    2.6650 H   0  0  0  0  0  0  0  0  0  0  0  0
    0.5051    1.7103    1.2355 H   0  0  0  0  0  0  0  0  0  0  0  0
    1.6966    0.8187    2.2292 H   0  0  0  0  0  0  0  0  0  0  0  0
   -0.0734   -0.9681   -1.0083 H   0  0  0  0  0  0  0  0  0  0  0  0
    0.7271    0.6449   -0.9316 H   0  0  0  0  0  0  0  0  0  0  0  0
   -1.3378    1.4869    0.3820 H   0  0  0  0  0  0  0  0  0  0  0  0
   -2.0184   -0.1904    0.1441 H   0  0  0  0  0  0  0  0  0  0  0  0
   -2.3977    0.3658   -3.5836 H   0  0  0  0  0  0  0  0  0  0  0  0
  1  2  3  0
  2  3  1  0
  3  4  1  0
  3  5  1  0
  5  6  1  0
  6  7  1  0
  7  8  1  0
  8  9  2  0
  1 10  1  0
  3 11  1  0
  4 12  1  0
  4 13  1  0
  4 14  1  0
  5 15  1  0
  5 16  1  0
  6 17  1  0
  6 18  1  0
  8 19  1  0
M  END
