
     RDKit          3D

 16 16  0  0  0  0  0  0  0  0999 V2000
   -2.4432   -2.0640   -0.4061 C   0  0  0  0  0  0  0  0  0  0  0  0
   -1.4430   -1.0112   -0.4115 C   0  0  0  0  0  0  0  0  0  0  0  0
   -0.3110    0.2033   -0.3980 C   0  0  0  0  0  0  0  0  0  0  0  0
    0.8951   -0.0665   -0.4858 O   0  0  0  0  0  0  0  0  0  0  0  0
    2.0433   -0.2578   -1.0740 C   0  0  0  0  0  0  0  0  0  0  0  0
   -0.8903    1.4236    0.1515 C   0  0  0  0  0  0  0  0  0  0  0  0
   -1.3964    0.6446    1.2318 O   0  0  0  0  0  0  0  0  0  0  0  0
   -0.1938    0.0136    1.3934 C   0  0  0  0  0  0  0  0  0  0  0  0
   -2.9948   -2.6554   -0.4086 H   0  0  0  0  0  0  0  0  0  0  0  0
    2.4052    0.4213   -1.8798 H   0  0  0  0  0  0  0  0  0  0  0  0
    2.6426   -1.1202   -0.8751 H   0  0  0  0  0  0  0  0  0  0  0  0
    2.6392    0.6201   -0.2688 H   0  0  0  0  0  0  0  0  0  0  0  0
   -1.6202    2.0538   -0.1907 H   0  0  0  0  0  0  0  0  0  0  0  0
   -0.0034    2.1582    0.5172 H   0  0  0  0  0  0  0  0  0  0  0  0
    0.6632    0.6628    1.6344 H   0  0  0  0  0  0  0  0  0  0  0  0
    0.0074   -1.0262    1.4701 H   0  0  0  0  0  0  0  0  0  0  0  0
  1  2  3  0
  2  3  1  0
  3  4  1  0
  4  5  1  0
  3  6  1  0
  6  7  1  0
  7  8  1  0
  8  3  1  0
  1  9  1  0
  5 10  1  0
  5 11  1  0
  5 12  1  0
  6 13  1  0
  6 14  1  0
  8 15  1  0
  8 16  1  0
M  END
