
     RDKit          3D

 21 20  0  0  0  0  0  0  0  0999 V2000
   -1.9259    2.1528    1.7100 C   0  0  0  0  0  0  0  0  0  0  0  0
   -0.9526    2.2931    0.9195 C   0  0  0  0  0  0  0  0  0  0  0  0
    0.0428    2.4377    0.1390 C   0  0  0  0  0  0  0  0  0  0  0  0
    0.2932    1.1607   -0.7127 C   0  0  0  0  0  0  0  0  0  0  0  0
    0.4632   -0.0550    0.1854 C   0  0  0  0  0  0  0  0  0  0  0  0
   -0.6989   -0.1936    0.9874 O   0  0  0  0  0  0  0  0  0  0  0  0
    0.3320   -1.2303   -0.7896 C   0  0  0  0  0  0  0  0  0  0  0  0
    0.5563   -2.5667   -0.1630 C   0  0  0  0  0  0  0  0  0  0  0  0
    0.4030   -3.5384   -1.1791 O   0  0  0  0  0  0  0  0  0  0  0  0
   -2.9441    1.9926    2.5148 H   0  0  0  0  0  0  0  0  0  0  0  0
   -0.5218    3.0309   -0.8759 H   0  0  0  0  0  0  0  0  0  0  0  0
    0.8278    3.1765    0.2061 H   0  0  0  0  0  0  0  0  0  0  0  0
   -0.5875    1.0669   -1.3903 H   0  0  0  0  0  0  0  0  0  0  0  0
    1.2064    1.2697   -1.3073 H   0  0  0  0  0  0  0  0  0  0  0  0
    1.3341   -0.0454    0.7916 H   0  0  0  0  0  0  0  0  0  0  0  0
   -0.3808   -0.2378    1.9168 H   0  0  0  0  0  0  0  0  0  0  0  0
    0.9376   -1.0464   -1.6562 H   0  0  0  0  0  0  0  0  0  0  0  0
   -0.7643   -1.1855   -1.1177 H   0  0  0  0  0  0  0  0  0  0  0  0
   -0.1687   -2.8108    0.6064 H   0  0  0  0  0  0  0  0  0  0  0  0
    1.6205   -2.6211    0.1591 H   0  0  0  0  0  0  0  0  0  0  0  0
    0.9278   -4.3556   -0.9444 H   0  0  0  0  0  0  0  0  0  0  0  0
  1  2  3  0
  2  3  1  0
  3  4  1  0
  4  5  1  0
  5  6  1  0
  5  7  1  0
  7  8  1  0
  8  9  1  0
  1 10  1  0
  3 11  1  0
  3 12  1  0
  4 13  1  0
  4 14  1  0
  5 15  1  0
  6 16  1  0
  7 17  1  0
  7 18  1  0
  8 19  1  0
  8 20  1  0
  9 21  1  0
M  END
