
     RDKit          3D

 15 14  0  0  0  0  0  0  0  0999 V2000
    2.4913    0.7258   -1.4490 C   0  0  0  0  0  0  0  0  0  0  0  0
    1.7685   -0.0496   -0.8792 C   0  0  0  0  0  0  0  0  0  0  0  0
    1.1502   -0.6949   -0.4109 C   0  0  0  0  0  0  0  0  0  0  0  0
    0.1038   -0.5193    0.4544 O   0  0  0  0  0  0  0  0  0  0  0  0
   -1.2267    0.3010    0.2185 C   0  0  0  0  0  0  0  0  0  0  0  0
   -1.9169   -0.7551    0.1600 C   0  0  0  0  0  0  0  0  0  0  0  0
   -2.5716   -1.7402    0.1238 C   0  0  0  0  0  0  0  0  0  0  0  0
   -0.8729    1.3596    1.0339 C   0  0  0  0  0  0  0  0  0  0  0  0
   -0.6603    2.0033    1.5408 C   0  0  0  0  0  0  0  0  0  0  0  0
    3.5635    1.8356   -2.2656 H   0  0  0  0  0  0  0  0  0  0  0  0
    1.1304   -1.9324   -0.7474 H   0  0  0  0  0  0  0  0  0  0  0  0
    1.8862   -1.3647    0.5503 H   0  0  0  0  0  0  0  0  0  0  0  0
   -1.1022    0.6902   -0.9049 H   0  0  0  0  0  0  0  0  0  0  0  0
   -3.4802   -3.0876    0.0957 H   0  0  0  0  0  0  0  0  0  0  0  0
   -0.2631    3.2282    2.5078 H   0  0  0  0  0  0  0  0  0  0  0  0
  1  2  3  0
  2  3  1  0
  3  4  1  0
  4  5  1  0
  5  6  1  0
  6  7  3  0
  5  8  1  0
  8  9  3  0
  1 10  1  0
  3 11  1  0
  3 12  1  0
  5 13  1  0
  7 14  1  0
  9 15  1  0
M  END
