
     RDKit          3D

 17 17  0  0  0  0  0  0  0  0999 V2000
   -2.5137    2.2123    1.0514 C   0  0  0  0  0  0  0  0  0  0  0  0
   -2.0638    1.1879    0.5940 C   0  0  0  0  0  0  0  0  0  0  0  0
   -1.5504   -0.0404    0.0469 C   0  0  0  0  0  0  0  0  0  0  0  0
   -2.2061   -0.5715   -0.8835 O   0  0  0  0  0  0  0  0  0  0  0  0
   -0.2872   -0.6291    0.5888 C   0  0  0  0  0  0  0  0  0  0  0  0
    0.8349    0.3907    0.3872 C   0  0  0  0  0  0  0  0  0  0  0  0
    1.2441   -0.3663   -0.8351 C   0  0  0  0  0  0  0  0  0  0  0  0
    2.6099   -0.5787   -0.8755 O   0  0  0  0  0  0  0  0  0  0  0  0
    0.4366   -1.5484   -0.3590 C   0  0  0  0  0  0  0  0  0  0  0  0
   -2.9143    3.1190    1.4675 H   0  0  0  0  0  0  0  0  0  0  0  0
   -0.3823   -0.9555    1.6220 H   0  0  0  0  0  0  0  0  0  0  0  0
    0.4810    1.4256    0.2151 H   0  0  0  0  0  0  0  0  0  0  0  0
    1.5482    0.3268    1.2577 H   0  0  0  0  0  0  0  0  0  0  0  0
    0.9027    0.1106   -1.7674 H   0  0  0  0  0  0  0  0  0  0  0  0
    3.0504    0.2163   -0.5055 H   0  0  0  0  0  0  0  0  0  0  0  0
   -0.2236   -2.0051   -1.1200 H   0  0  0  0  0  0  0  0  0  0  0  0
    1.0334   -2.2942    0.1900 H   0  0  0  0  0  0  0  0  0  0  0  0
  1  2  3  0
  2  3  1  0
  3  4  2  0
  3  5  1  0
  5  6  1  0
  6  7  1  0
  7  8  1  0
  7  9  1  0
  9  5  1  0
  1 10  1  0
  5 11  1  0
  6 12  1  0
  6 13  1  0
  7 14  1  0
  8 15  1  0
  9 16  1  0
  9 17  1  0
M  END
