
     RDKit          3D

 17 18  0  0  0  0  0  0  0  0999 V2000
    2.9763   -1.0026    0.5317 C   0  0  0  0  0  0  0  0  0  0  0  0
    1.8814   -0.5542    0.2818 C   0  0  0  0  0  0  0  0  0  0  0  0
    0.6171   -0.0161   -0.0118 C   0  0  0  0  0  0  0  0  0  0  0  0
    0.1254    1.0666    0.9366 C   0  0  0  0  0  0  0  0  0  0  0  0
   -1.2637    1.0641    0.8191 O   0  0  0  0  0  0  0  0  0  0  0  0
   -1.5925    0.0945   -0.1194 C   0  0  0  0  0  0  0  0  0  0  0  0
   -1.0041    0.5417   -1.4382 C   0  0  0  0  0  0  0  0  0  0  0  0
    0.3823    0.3722   -1.3060 O   0  0  0  0  0  0  0  0  0  0  0  0
   -0.5528   -0.9951    0.2101 C   0  0  0  0  0  0  0  0  0  0  0  0
    3.9449   -1.4061    0.7482 H   0  0  0  0  0  0  0  0  0  0  0  0
    0.5836    2.0366    0.7494 H   0  0  0  0  0  0  0  0  0  0  0  0
    0.3428    0.6697    1.9689 H   0  0  0  0  0  0  0  0  0  0  0  0
   -2.5958   -0.2462   -0.1273 H   0  0  0  0  0  0  0  0  0  0  0  0
   -1.2763    1.5650   -1.7168 H   0  0  0  0  0  0  0  0  0  0  0  0
   -1.3490   -0.1227   -2.2619 H   0  0  0  0  0  0  0  0  0  0  0  0
   -0.5596   -1.7983   -0.5181 H   0  0  0  0  0  0  0  0  0  0  0  0
   -0.6598   -1.2689    1.2536 H   0  0  0  0  0  0  0  0  0  0  0  0
  1  2  3  0
  2  3  1  0
  3  4  1  0
  4  5  1  0
  5  6  1  0
  6  7  1  0
  7  8  1  0
  6  9  1  0
  8  3  1  0
  9  3  1  0
  1 10  1  0
  4 11  1  0
  4 12  1  0
  6 13  1  0
  7 14  1  0
  7 15  1  0
  9 16  1  0
  9 17  1  0
M  END
