
     RDKit          3D

 15 15  0  0  0  0  0  0  0  0999 V2000
    1.8287    0.7405    2.3265 C   0  0  0  0  0  0  0  0  0  0  0  0
    1.2722    0.3890    1.4175 C   0  0  0  0  0  0  0  0  0  0  0  0
    0.5507   -0.0883    0.1908 C   0  0  0  0  0  0  0  0  0  0  0  0
   -0.6578    0.2705   -0.1260 C   0  0  0  0  0  0  0  0  0  0  0  0
   -1.5929    1.1580    0.5491 C   0  0  0  0  0  0  0  0  0  0  0  0
   -2.7111    1.3716    0.0383 O   0  0  0  0  0  0  0  0  0  0  0  0
   -0.9510   -0.4599   -1.4238 C   0  0  0  0  0  0  0  0  0  0  0  0
    0.3402   -0.5233   -1.9464 O   0  0  0  0  0  0  0  0  0  0  0  0
    1.0482   -1.0093   -0.8256 C   0  0  0  0  0  0  0  0  0  0  0  0
    2.3454    1.0534    3.1374 H   0  0  0  0  0  0  0  0  0  0  0  0
   -1.3339    1.6245    1.4724 H   0  0  0  0  0  0  0  0  0  0  0  0
   -1.2238   -1.5288   -1.1809 H   0  0  0  0  0  0  0  0  0  0  0  0
   -1.6727    0.0622   -2.0408 H   0  0  0  0  0  0  0  0  0  0  0  0
    2.1352   -1.0416   -0.9824 H   0  0  0  0  0  0  0  0  0  0  0  0
    0.6228   -2.0185   -0.6061 H   0  0  0  0  0  0  0  0  0  0  0  0
  1  2  3  0
  2  3  1  0
  3  4  2  0
  4  5  1  0
  5  6  2  0
  4  7  1  0
  7  8  1  0
  8  9  1  0
  9  3  1  0
  1 10  1  0
  5 11  1  0
  7 12  1  0
  7 13  1  0
  9 14  1  0
  9 15  1  0
M  END
