
     RDKit          3D

 19 19  0  0  0  0  0  0  0  0999 V2000
   -1.2044    1.2314   -2.6661 C   0  0  0  0  0  0  0  0  0  0  0  0
   -0.9431    0.9224   -1.7532 C   0  0  0  0  0  0  0  0  0  0  0  0
   -0.5486    0.4710   -0.4401 C   0  0  0  0  0  0  0  0  0  0  0  0
   -1.2010    1.1137    0.5645 O   0  0  0  0  0  0  0  0  0  0  0  0
    1.0075    0.8822   -0.3673 C   0  0  0  0  0  0  0  0  0  0  0  0
    1.6377    0.3172    0.8691 C   0  0  0  0  0  0  0  0  0  0  0  0
   -0.5518   -1.0106   -0.4263 C   0  0  0  0  0  0  0  0  0  0  0  0
   -0.9140   -1.9767    0.6503 C   0  0  0  0  0  0  0  0  0  0  0  0
   -1.6676   -1.8510   -0.5183 O   0  0  0  0  0  0  0  0  0  0  0  0
   -1.5549    1.6121   -3.8461 H   0  0  0  0  0  0  0  0  0  0  0  0
   -0.6856    1.1748    1.4316 H   0  0  0  0  0  0  0  0  0  0  0  0
    1.4148    0.4304   -1.2755 H   0  0  0  0  0  0  0  0  0  0  0  0
    1.0173    1.9689   -0.3762 H   0  0  0  0  0  0  0  0  0  0  0  0
    1.8272    1.0946    1.6442 H   0  0  0  0  0  0  0  0  0  0  0  0
    2.6333   -0.1511    0.6580 H   0  0  0  0  0  0  0  0  0  0  0  0
    1.0126   -0.4693    1.3188 H   0  0  0  0  0  0  0  0  0  0  0  0
    0.3291   -1.4395   -1.0996 H   0  0  0  0  0  0  0  0  0  0  0  0
   -0.2639   -2.8478    0.7372 H   0  0  0  0  0  0  0  0  0  0  0  0
   -1.3445   -1.4727    1.5569 H   0  0  0  0  0  0  0  0  0  0  0  0
  1  2  3  0
  2  3  1  0
  3  4  1  0
  3  5  1  0
  5  6  1  0
  3  7  1  0
  7  8  1  0
  8  9  1  0
  9  7  1  0
  1 10  1  0
  4 11  1  0
  5 12  1  0
  5 13  1  0
  6 14  1  0
  6 15  1  0
  6 16  1  0
  7 17  1  0
  8 18  1  0
  8 19  1  0
M  END
