
     RDKit          3D

 17 18  0  0  0  0  0  0  0  0999 V2000
   -0.1299    1.8295    2.2145 C   0  0  0  0  0  0  0  0  0  0  0  0
   -0.6545    1.0563    1.2340 C   0  0  0  0  0  0  0  0  0  0  0  0
   -1.1723    0.2507    0.2352 C   0  0  0  0  0  0  0  0  0  0  0  0
   -0.3780    0.8981   -1.0655 C   0  0  0  0  0  0  0  0  0  0  0  0
    0.9180    1.3299   -0.4966 O   0  0  0  0  0  0  0  0  0  0  0  0
   -0.3040   -0.4519   -1.5723 C   0  0  0  0  0  0  0  0  0  0  0  0
   -1.0323   -1.5721   -1.3067 O   0  0  0  0  0  0  0  0  0  0  0  0
   -0.3590   -0.9607   -0.2724 C   0  0  0  0  0  0  0  0  0  0  0  0
    0.7458   -1.5988    0.4451 C   0  0  0  0  0  0  0  0  0  0  0  0
    0.3124    2.4511    3.0299 H   0  0  0  0  0  0  0  0  0  0  0  0
   -2.2093    0.3198    0.0122 H   0  0  0  0  0  0  0  0  0  0  0  0
   -0.9478    1.6816   -1.4992 H   0  0  0  0  0  0  0  0  0  0  0  0
    1.5724    0.7220   -0.9519 H   0  0  0  0  0  0  0  0  0  0  0  0
    0.6096   -0.6879   -2.2849 H   0  0  0  0  0  0  0  0  0  0  0  0
    1.6273   -0.9216    0.6373 H   0  0  0  0  0  0  0  0  0  0  0  0
    1.0470   -2.5867    0.1141 H   0  0  0  0  0  0  0  0  0  0  0  0
    0.3546   -1.7592    1.5272 H   0  0  0  0  0  0  0  0  0  0  0  0
  1  2  3  0
  2  3  1  0
  3  4  1  0
  4  5  1  0
  4  6  1  0
  6  7  1  0
  7  8  1  0
  8  9  1  0
  8  3  1  0
  8  6  1  0
  1 10  1  0
  3 11  1  0
  4 12  1  0
  5 13  1  0
  6 14  1  0
  9 15  1  0
  9 16  1  0
  9 17  1  0
M  END
