
     RDKit          3D

 19 20  0  0  0  0  0  0  0  0999 V2000
    3.3197   -0.3455    2.0206 C   0  0  0  0  0  0  0  0  0  0  0  0
    1.9589    0.1030    1.0280 C   0  0  0  0  0  0  0  0  0  0  0  0
    1.1520    0.3824    0.4504 C   0  0  0  0  0  0  0  0  0  0  0  0
   -0.1968   -0.5193    0.7303 C   0  0  0  0  0  0  0  0  0  0  0  0
   -0.4735   -0.0557   -0.6212 C   0  0  0  0  0  0  0  0  0  0  0  0
   -1.6161   -0.4904   -1.3445 C   0  0  0  0  0  0  0  0  0  0  0  0
   -2.1828    0.6581   -0.3800 C   0  0  0  0  0  0  0  0  0  0  0  0
   -1.0478    1.3030   -0.6754 O   0  0  0  0  0  0  0  0  0  0  0  0
    0.9674   -0.1059   -0.9520 C   0  0  0  0  0  0  0  0  0  0  0  0
    4.0655   -0.5839    2.5823 H   0  0  0  0  0  0  0  0  0  0  0  0
    0.7513    1.5036    0.6131 H   0  0  0  0  0  0  0  0  0  0  0  0
   -0.5962   -0.1358    1.7691 H   0  0  0  0  0  0  0  0  0  0  0  0
    0.1337   -1.5949    0.9450 H   0  0  0  0  0  0  0  0  0  0  0  0
   -2.1402   -1.4061   -1.0732 H   0  0  0  0  0  0  0  0  0  0  0  0
   -1.8636   -0.0414   -2.3725 H   0  0  0  0  0  0  0  0  0  0  0  0
   -2.1152    0.1811    0.6482 H   0  0  0  0  0  0  0  0  0  0  0  0
   -3.1360    1.0902   -0.7514 H   0  0  0  0  0  0  0  0  0  0  0  0
    1.6454   -1.0103   -0.8891 H   0  0  0  0  0  0  0  0  0  0  0  0
    1.3743    0.6466   -1.7274 H   0  0  0  0  0  0  0  0  0  0  0  0
  1  2  3  0
  2  3  1  0
  3  4  1  0
  4  5  1  0
  5  6  1  0
  6  7  1  0
  7  8  1  0
  5  9  1  0
  9  3  1  0
  8  5  1  0
  1 10  1  0
  3 11  1  0
  4 12  1  0
  4 13  1  0
  6 14  1  0
  6 15  1  0
  7 16  1  0
  7 17  1  0
  9 18  1  0
  9 19  1  0
M  END
