
     RDKit          3D

 19 19  0  0  0  0  0  0  0  0999 V2000
    2.8597   -1.6741   -2.1707 C   0  0  0  0  0  0  0  0  0  0  0  0
    2.1891   -1.4182   -1.1566 C   0  0  0  0  0  0  0  0  0  0  0  0
    1.4050   -1.1406    0.0341 C   0  0  0  0  0  0  0  0  0  0  0  0
   -0.0345   -0.8922   -0.3370 C   0  0  0  0  0  0  0  0  0  0  0  0
   -0.9418   -0.5898    0.8278 C   0  0  0  0  0  0  0  0  0  0  0  0
   -1.3577    0.5011   -0.1113 C   0  0  0  0  0  0  0  0  0  0  0  0
   -1.3482    1.8471    0.5610 C   0  0  0  0  0  0  0  0  0  0  0  0
   -1.3168    2.8799   -0.3632 O   0  0  0  0  0  0  0  0  0  0  0  0
   -0.1966    0.3652   -0.8902 O   0  0  0  0  0  0  0  0  0  0  0  0
    3.4297   -1.9063   -3.0222 H   0  0  0  0  0  0  0  0  0  0  0  0
    1.4731   -2.0095    0.7533 H   0  0  0  0  0  0  0  0  0  0  0  0
    1.7995   -0.2522    0.5867 H   0  0  0  0  0  0  0  0  0  0  0  0
   -0.3742   -1.6795   -1.0338 H   0  0  0  0  0  0  0  0  0  0  0  0
   -1.7346   -1.3478    0.9937 H   0  0  0  0  0  0  0  0  0  0  0  0
   -0.3978   -0.2725    1.7421 H   0  0  0  0  0  0  0  0  0  0  0  0
   -2.2970    0.2531   -0.6582 H   0  0  0  0  0  0  0  0  0  0  0  0
   -2.1783    1.9164    1.2688 H   0  0  0  0  0  0  0  0  0  0  0  0
   -0.3966    1.9083    1.1355 H   0  0  0  0  0  0  0  0  0  0  0  0
   -0.5822    3.5114   -0.2146 H   0  0  0  0  0  0  0  0  0  0  0  0
  1  2  3  0
  2  3  1  0
  3  4  1  0
  4  5  1  0
  5  6  1  0
  6  7  1  0
  7  8  1  0
  6  9  1  0
  9  4  1  0
  1 10  1  0
  3 11  1  0
  3 12  1  0
  4 13  1  0
  5 14  1  0
  5 15  1  0
  6 16  1  0
  7 17  1  0
  7 18  1  0
  8 19  1  0
M  END
