
     RDKit          3D

 13 14  0  0  0  0  0  0  0  0999 V2000
    2.6789    0.3270    0.8468 C   0  0  0  0  0  0  0  0  0  0  0  0
    1.5392    0.3285    0.3421 C   0  0  0  0  0  0  0  0  0  0  0  0
    0.2928    0.3339   -0.1845 C   0  0  0  0  0  0  0  0  0  0  0  0
    0.0175   -0.0734   -1.4966 O   0  0  0  0  0  0  0  0  0  0  0  0
   -1.2348    0.1299   -0.9705 C   0  0  0  0  0  0  0  0  0  0  0  0
   -0.6195    1.3737   -0.3399 C   0  0  0  0  0  0  0  0  0  0  0  0
   -1.2097    2.4479   -0.3345 O   0  0  0  0  0  0  0  0  0  0  0  0
   -0.7856   -0.6083    0.2384 C   0  0  0  0  0  0  0  0  0  0  0  0
   -0.5365   -1.9405    0.0292 O   0  0  0  0  0  0  0  0  0  0  0  0
    3.5706    0.3252    1.2604 H   0  0  0  0  0  0  0  0  0  0  0  0
   -2.1122    0.1218   -1.4496 H   0  0  0  0  0  0  0  0  0  0  0  0
   -1.2630   -0.3472    1.1989 H   0  0  0  0  0  0  0  0  0  0  0  0
   -0.3378   -2.4184    0.8598 H   0  0  0  0  0  0  0  0  0  0  0  0
  1  2  3  0
  2  3  1  0
  3  4  1  0
  4  5  1  0
  5  6  1  0
  6  7  2  0
  5  8  1  0
  8  9  1  0
  6  3  1  0
  8  3  1  0
  1 10  1  0
  5 11  1  0
  8 12  1  0
  9 13  1  0
M  END
