
     RDKit          3D

 17 18  0  0  0  0  0  0  0  0999 V2000
    3.1046    0.0962    0.1691 C   0  0  0  0  0  0  0  0  0  0  0  0
    1.6915    0.3683   -0.3647 C   0  0  0  0  0  0  0  0  0  0  0  0
    0.6278    0.5743   -0.7494 C   0  0  0  0  0  0  0  0  0  0  0  0
   -0.2541    1.1687    0.5113 C   0  0  0  0  0  0  0  0  0  0  0  0
    0.1188   -0.0833    1.2500 C   0  0  0  0  0  0  0  0  0  0  0  0
    0.0274   -1.0664    0.4615 C   0  0  0  0  0  0  0  0  0  0  0  0
   -0.4079   -0.6234   -0.9173 C   0  0  0  0  0  0  0  0  0  0  0  0
   -1.9338   -0.4671   -0.7625 C   0  0  0  0  0  0  0  0  0  0  0  0
   -0.0063    0.2317   -1.8157 O   0  0  0  0  0  0  0  0  0  0  0  0
    4.2114   -0.1069    0.5946 H   0  0  0  0  0  0  0  0  0  0  0  0
    0.3545    2.0950    0.7126 H   0  0  0  0  0  0  0  0  0  0  0  0
   -1.1849    1.4081    0.1245 H   0  0  0  0  0  0  0  0  0  0  0  0
    0.4862    0.0322    2.3131 H   0  0  0  0  0  0  0  0  0  0  0  0
    0.3141   -2.0946    0.7603 H   0  0  0  0  0  0  0  0  0  0  0  0
   -2.3112   -0.2049    0.1955 H   0  0  0  0  0  0  0  0  0  0  0  0
   -2.4100    0.1903   -1.5239 H   0  0  0  0  0  0  0  0  0  0  0  0
   -2.4282   -1.5182   -0.9588 H   0  0  0  0  0  0  0  0  0  0  0  0
  1  2  3  0
  2  3  1  0
  3  4  1  0
  4  5  1  0
  5  6  2  0
  6  7  1  0
  7  8  1  0
  7  9  1  0
  7  3  1  0
  9  3  1  0
  1 10  1  0
  4 11  1  0
  4 12  1  0
  5 13  1  0
  6 14  1  0
  8 15  1  0
  8 16  1  0
  8 17  1  0
M  END
