
     RDKit          3D

 19 19  0  0  0  0  0  0  0  0999 V2000
    1.9214    0.2414    1.9170 C   0  0  0  0  0  0  0  0  0  0  0  0
    1.2815   -0.1959    0.9919 C   0  0  0  0  0  0  0  0  0  0  0  0
    0.5167   -0.7471   -0.1293 C   0  0  0  0  0  0  0  0  0  0  0  0
    1.1406   -1.8502   -0.6666 O   0  0  0  0  0  0  0  0  0  0  0  0
    0.4896    0.3168   -1.2170 C   0  0  0  0  0  0  0  0  0  0  0  0
   -0.3913    1.4431   -0.7464 C   0  0  0  0  0  0  0  0  0  0  0  0
   -1.6609    0.9726   -0.4753 O   0  0  0  0  0  0  0  0  0  0  0  0
   -1.7050    0.1306    0.6254 C   0  0  0  0  0  0  0  0  0  0  0  0
   -0.8782   -1.0830    0.3131 C   0  0  0  0  0  0  0  0  0  0  0  0
    2.4949    0.6135    2.7473 H   0  0  0  0  0  0  0  0  0  0  0  0
    1.8684   -1.5755   -1.2855 H   0  0  0  0  0  0  0  0  0  0  0  0
    1.5486    0.7006   -1.2835 H   0  0  0  0  0  0  0  0  0  0  0  0
    0.1323   -0.0763   -2.1797 H   0  0  0  0  0  0  0  0  0  0  0  0
   -0.4800    2.1591   -1.5915 H   0  0  0  0  0  0  0  0  0  0  0  0
    0.0885    1.9208    0.1436 H   0  0  0  0  0  0  0  0  0  0  0  0
   -2.7781   -0.2149    0.7010 H   0  0  0  0  0  0  0  0  0  0  0  0
   -1.3865    0.6436    1.5565 H   0  0  0  0  0  0  0  0  0  0  0  0
   -0.8252   -1.8023    1.1291 H   0  0  0  0  0  0  0  0  0  0  0  0
   -1.3775   -1.5968   -0.5502 H   0  0  0  0  0  0  0  0  0  0  0  0
  1  2  3  0
  2  3  1  0
  3  4  1  0
  3  5  1  0
  5  6  1  0
  6  7  1  0
  7  8  1  0
  8  9  1  0
  9  3  1  0
  1 10  1  0
  4 11  1  0
  5 12  1  0
  5 13  1  0
  6 14  1  0
  6 15  1  0
  8 16  1  0
  8 17  1  0
  9 18  1  0
  9 19  1  0
M  END
