
     RDKit          3D

 21 21  0  0  0  0  0  0  0  0999 V2000
    1.5067    2.4109   -2.6262 C   0  0  0  0  0  0  0  0  0  0  0  0
    1.0023    2.4333   -1.5774 C   0  0  0  0  0  0  0  0  0  0  0  0
    0.3671    2.4854   -0.2629 C   0  0  0  0  0  0  0  0  0  0  0  0
    0.5028    1.1388    0.4209 C   0  0  0  0  0  0  0  0  0  0  0  0
   -0.1524    0.0552   -0.4297 C   0  0  0  0  0  0  0  0  0  0  0  0
   -0.0211   -1.2349    0.3081 C   0  0  0  0  0  0  0  0  0  0  0  0
   -0.7234   -1.1013    1.6217 O   0  0  0  0  0  0  0  0  0  0  0  0
   -1.0983   -2.1327    0.5989 C   0  0  0  0  0  0  0  0  0  0  0  0
   -0.7823   -3.4987    1.1466 C   0  0  0  0  0  0  0  0  0  0  0  0
    2.0013    2.4082   -3.6414 H   0  0  0  0  0  0  0  0  0  0  0  0
   -0.7296    2.6866   -0.3741 H   0  0  0  0  0  0  0  0  0  0  0  0
    0.8049    3.2441    0.3847 H   0  0  0  0  0  0  0  0  0  0  0  0
    1.5402    0.8976    0.6372 H   0  0  0  0  0  0  0  0  0  0  0  0
   -0.1787    1.1912    1.3138 H   0  0  0  0  0  0  0  0  0  0  0  0
   -1.2060    0.4169   -0.5684 H   0  0  0  0  0  0  0  0  0  0  0  0
    0.2949    0.0551   -1.4261 H   0  0  0  0  0  0  0  0  0  0  0  0
    1.0157   -1.6124    0.4384 H   0  0  0  0  0  0  0  0  0  0  0  0
   -2.1344   -1.9821    0.2250 H   0  0  0  0  0  0  0  0  0  0  0  0
   -1.6718   -4.1654    1.2473 H   0  0  0  0  0  0  0  0  0  0  0  0
   -0.1088   -4.1091    0.4445 H   0  0  0  0  0  0  0  0  0  0  0  0
   -0.2291   -3.4951    2.1189 H   0  0  0  0  0  0  0  0  0  0  0  0
  1  2  3  0
  2  3  1  0
  3  4  1  0
  4  5  1  0
  5  6  1  0
  6  7  1  0
  7  8  1  0
  8  9  1  0
  8  6  1  0
  1 10  1  0
  3 11  1  0
  3 12  1  0
  4 13  1  0
  4 14  1  0
  5 15  1  0
  5 16  1  0
  6 17  1  0
  8 18  1  0
  9 19  1  0
  9 20  1  0
  9 21  1  0
M  END
