
     RDKit          3D

 21 21  0  0  0  0  0  0  0  0999 V2000
    2.9627    0.4231    1.8485 C   0  0  0  0  0  0  0  0  0  0  0  0
    1.6788    0.3974    1.5008 C   0  0  0  0  0  0  0  0  0  0  0  0
    0.5890    0.3866    1.2154 C   0  0  0  0  0  0  0  0  0  0  0  0
   -0.0639   -0.9827    0.8754 C   0  0  0  0  0  0  0  0  0  0  0  0
   -0.2386   -0.9877   -0.5817 C   0  0  0  0  0  0  0  0  0  0  0  0
   -1.5326   -0.4422   -1.1436 C   0  0  0  0  0  0  0  0  0  0  0  0
   -1.8418    0.9755   -0.7857 C   0  0  0  0  0  0  0  0  0  0  0  0
    0.9208    0.0183   -0.9116 C   0  0  0  0  0  0  0  0  0  0  0  0
    0.4713    1.1051   -0.1044 O   0  0  0  0  0  0  0  0  0  0  0  0
    4.3601    0.4763    2.2281 H   0  0  0  0  0  0  0  0  0  0  0  0
   -0.1379    0.9792    1.8829 H   0  0  0  0  0  0  0  0  0  0  0  0
    0.5794   -1.7883    1.2852 H   0  0  0  0  0  0  0  0  0  0  0  0
   -0.9916   -0.9536    1.4995 H   0  0  0  0  0  0  0  0  0  0  0  0
   -0.0221   -1.9523   -1.0710 H   0  0  0  0  0  0  0  0  0  0  0  0
   -2.3615   -1.0910   -1.0600 H   0  0  0  0  0  0  0  0  0  0  0  0
   -1.2942   -0.3575   -2.2897 H   0  0  0  0  0  0  0  0  0  0  0  0
   -2.9271    1.2545   -1.0647 H   0  0  0  0  0  0  0  0  0  0  0  0
   -1.8004    1.1083    0.3066 H   0  0  0  0  0  0  0  0  0  0  0  0
   -1.1799    1.7042   -1.2747 H   0  0  0  0  0  0  0  0  0  0  0  0
    1.7757   -0.4408   -0.3771 H   0  0  0  0  0  0  0  0  0  0  0  0
    1.0537    0.1677   -1.9226 H   0  0  0  0  0  0  0  0  0  0  0  0
  1  2  3  0
  2  3  1  0
  3  4  1  0
  4  5  1  0
  5  6  1  0
  6  7  1  0
  5  8  1  0
  8  9  1  0
  9  3  1  0
  1 10  1  0
  3 11  1  0
  4 12  1  0
  4 13  1  0
  5 14  1  0
  6 15  1  0
  6 16  1  0
  7 17  1  0
  7 18  1  0
  7 19  1  0
  8 20  1  0
  8 21  1  0
M  END
