
     RDKit          3D

 21 22  0  0  0  0  0  0  0  0999 V2000
   -0.3274    2.0169    3.2709 C   0  0  0  0  0  0  0  0  0  0  0  0
    0.1285    1.7897    2.2663 C   0  0  0  0  0  0  0  0  0  0  0  0
    0.7781    1.4875    0.8862 C   0  0  0  0  0  0  0  0  0  0  0  0
    0.4802    0.0328    0.6032 C   0  0  0  0  0  0  0  0  0  0  0  0
    0.9959   -0.6076   -0.5925 C   0  0  0  0  0  0  0  0  0  0  0  0
    0.6798   -2.0378   -0.9010 C   0  0  0  0  0  0  0  0  0  0  0  0
   -0.8024   -1.7658   -0.6210 C   0  0  0  0  0  0  0  0  0  0  0  0
   -0.4500   -0.3362   -0.4949 C   0  0  0  0  0  0  0  0  0  0  0  0
   -0.9660    0.6732   -1.4985 C   0  0  0  0  0  0  0  0  0  0  0  0
   -0.7826    2.2413    4.2291 H   0  0  0  0  0  0  0  0  0  0  0  0
    1.8442    1.6649    1.0925 H   0  0  0  0  0  0  0  0  0  0  0  0
    0.3380    2.1887    0.1962 H   0  0  0  0  0  0  0  0  0  0  0  0
    0.3424   -0.5819    1.5136 H   0  0  0  0  0  0  0  0  0  0  0  0
    1.6625   -0.0306   -1.2784 H   0  0  0  0  0  0  0  0  0  0  0  0
    1.1057   -2.8222   -0.2540 H   0  0  0  0  0  0  0  0  0  0  0  0
    0.8510   -2.2975   -1.9683 H   0  0  0  0  0  0  0  0  0  0  0  0
   -1.1453   -2.2357    0.3096 H   0  0  0  0  0  0  0  0  0  0  0  0
   -1.4419   -2.0729   -1.4832 H   0  0  0  0  0  0  0  0  0  0  0  0
   -0.1538    1.3322   -1.8564 H   0  0  0  0  0  0  0  0  0  0  0  0
   -1.3541    0.1256   -2.3760 H   0  0  0  0  0  0  0  0  0  0  0  0
   -1.7827    1.2353   -1.0433 H   0  0  0  0  0  0  0  0  0  0  0  0
  1  2  3  0
  2  3  1  0
  3  4  1  0
  4  5  1  0
  5  6  1  0
  6  7  1  0
  7  8  1  0
  8  9  1  0
  8  4  1  0
  8  5  1  0
  1 10  1  0
  3 11  1  0
  3 12  1  0
  4 13  1  0
  5 14  1  0
  6 15  1  0
  6 16  1  0
  7 17  1  0
  7 18  1  0
  9 19  1  0
  9 20  1  0
  9 21  1  0
M  END
