
     RDKit          3D

 17 16  0  0  0  0  0  0  0  0999 V2000
    2.5549   -0.7383   -0.4501 C   0  0  0  0  0  0  0  0  0  0  0  0
    1.5567   -0.1027   -0.2055 C   0  0  0  0  0  0  0  0  0  0  0  0
    0.3249    0.6652    0.0725 C   0  0  0  0  0  0  0  0  0  0  0  0
   -0.1770    1.2132   -1.1007 O   0  0  0  0  0  0  0  0  0  0  0  0
    0.5843    1.7154    1.0928 C   0  0  0  0  0  0  0  0  0  0  0  0
    1.0272    1.3576    2.1671 O   0  0  0  0  0  0  0  0  0  0  0  0
   -0.7009   -0.2715    0.6248 C   0  0  0  0  0  0  0  0  0  0  0  0
   -1.0563   -1.3961   -0.3112 C   0  0  0  0  0  0  0  0  0  0  0  0
   -1.5708   -0.8770   -1.5030 O   0  0  0  0  0  0  0  0  0  0  0  0
    3.4409   -1.2809   -0.6617 H   0  0  0  0  0  0  0  0  0  0  0  0
    0.2653    2.0917   -1.2763 H   0  0  0  0  0  0  0  0  0  0  0  0
    0.3677    2.7426    0.8321 H   0  0  0  0  0  0  0  0  0  0  0  0
   -0.3870   -0.7229    1.6006 H   0  0  0  0  0  0  0  0  0  0  0  0
   -1.6210    0.2970    0.8359 H   0  0  0  0  0  0  0  0  0  0  0  0
   -1.8577   -1.9898    0.1967 H   0  0  0  0  0  0  0  0  0  0  0  0
   -0.2235   -2.0649   -0.5478 H   0  0  0  0  0  0  0  0  0  0  0  0
   -2.5275   -0.6388   -1.3661 H   0  0  0  0  0  0  0  0  0  0  0  0
  1  2  3  0
  2  3  1  0
  3  4  1  0
  3  5  1  0
  5  6  2  0
  3  7  1  0
  7  8  1  0
  8  9  1  0
  1 10  1  0
  4 11  1  0
  5 12  1  0
  7 13  1  0
  7 14  1  0
  8 15  1  0
  8 16  1  0
  9 17  1  0
M  END
