
     RDKit          3D

 21 20  0  0  0  0  0  0  0  0999 V2000
    3.5759    0.8546   -0.5902 C   0  0  0  0  0  0  0  0  0  0  0  0
    2.2713    0.4815   -0.7117 C   0  0  0  0  0  0  0  0  0  0  0  0
    0.8771    0.0607   -0.8538 C   0  0  0  0  0  0  0  0  0  0  0  0
    0.2824    0.8307   -2.0255 C   0  0  0  0  0  0  0  0  0  0  0  0
    0.1818    0.5754    0.4247 C   0  0  0  0  0  0  0  0  0  0  0  0
    1.0205    0.0518    1.5728 C   0  0  0  0  0  0  0  0  0  0  0  0
   -1.1112   -0.1954    0.4978 C   0  0  0  0  0  0  0  0  0  0  0  0
   -2.1058   -0.7670    0.5452 C   0  0  0  0  0  0  0  0  0  0  0  0
   -3.4031   -1.5326    0.6274 C   0  0  0  0  0  0  0  0  0  0  0  0
    4.3853    1.0783   -0.5023 H   0  0  0  0  0  0  0  0  0  0  0  0
    0.8120   -0.9937   -0.9282 H   0  0  0  0  0  0  0  0  0  0  0  0
    0.5884    1.9301   -1.8590 H   0  0  0  0  0  0  0  0  0  0  0  0
    0.7523    0.5660   -2.9836 H   0  0  0  0  0  0  0  0  0  0  0  0
   -0.8007    0.8116   -2.0697 H   0  0  0  0  0  0  0  0  0  0  0  0
    0.0712    1.6255    0.4453 H   0  0  0  0  0  0  0  0  0  0  0  0
    1.9657    0.6540    1.5715 H   0  0  0  0  0  0  0  0  0  0  0  0
    1.1495   -1.0342    1.5645 H   0  0  0  0  0  0  0  0  0  0  0  0
    0.4772    0.2750    2.5475 H   0  0  0  0  0  0  0  0  0  0  0  0
   -4.1799   -0.8346    0.8785 H   0  0  0  0  0  0  0  0  0  0  0  0
   -3.5195   -2.2158   -0.2036 H   0  0  0  0  0  0  0  0  0  0  0  0
   -3.2902   -2.2219    1.5334 H   0  0  0  0  0  0  0  0  0  0  0  0
  1  2  3  0
  2  3  1  0
  3  4  1  0
  3  5  1  0
  5  6  1  0
  5  7  1  0
  7  8  3  0
  8  9  1  0
  1 10  1  0
  3 11  1  0
  4 12  1  0
  4 13  1  0
  4 14  1  0
  5 15  1  0
  6 16  1  0
  6 17  1  0
  6 18  1  0
  9 19  1  0
  9 20  1  0
  9 21  1  0
M  END
