
     RDKit          3D

 15 16  0  0  0  0  0  0  0  0999 V2000
    3.4640    1.0927    0.2360 C   0  0  0  0  0  0  0  0  0  0  0  0
    2.3527    0.6217    0.3284 C   0  0  0  0  0  0  0  0  0  0  0  0
    1.0238    0.0769    0.4569 C   0  0  0  0  0  0  0  0  0  0  0  0
   -0.0193    1.0194    0.2945 O   0  0  0  0  0  0  0  0  0  0  0  0
   -0.7305    0.0255   -0.3109 C   0  0  0  0  0  0  0  0  0  0  0  0
   -1.9827    0.1408   -0.9935 C   0  0  0  0  0  0  0  0  0  0  0  0
   -1.8708   -0.6639    0.3058 C   0  0  0  0  0  0  0  0  0  0  0  0
    0.4862   -0.6060   -0.7574 C   0  0  0  0  0  0  0  0  0  0  0  0
    0.9678   -1.3101   -1.6004 O   0  0  0  0  0  0  0  0  0  0  0  0
    4.4363    1.5075    0.1681 H   0  0  0  0  0  0  0  0  0  0  0  0
    0.8515   -0.4906    1.4002 H   0  0  0  0  0  0  0  0  0  0  0  0
   -2.6343    1.0138   -0.9001 H   0  0  0  0  0  0  0  0  0  0  0  0
   -2.1882   -0.4623   -1.9063 H   0  0  0  0  0  0  0  0  0  0  0  0
   -1.8928   -1.7660    0.2079 H   0  0  0  0  0  0  0  0  0  0  0  0
   -2.2635   -0.1992    1.2386 H   0  0  0  0  0  0  0  0  0  0  0  0
  1  2  3  0
  2  3  1  0
  3  4  1  0
  4  5  1  0
  5  6  1  0
  6  7  1  0
  5  8  1  0
  8  9  2  0
  8  3  1  0
  7  5  1  0
  1 10  1  0
  3 11  1  0
  6 12  1  0
  6 13  1  0
  7 14  1  0
  7 15  1  0
M  END
