
     RDKit          3D

 18 18  0  0  0  0  0  0  0  0999 V2000
    2.9839    0.2806    0.8129 C   0  0  0  0  0  0  0  0  0  0  0  0
    1.8144    0.0253    0.7872 C   0  0  0  0  0  0  0  0  0  0  0  0
    0.4204   -0.2959    0.7512 C   0  0  0  0  0  0  0  0  0  0  0  0
    0.0907   -1.6580    0.1488 C   0  0  0  0  0  0  0  0  0  0  0  0
   -1.2164   -0.9968   -0.2970 C   0  0  0  0  0  0  0  0  0  0  0  0
   -0.3806    0.2847   -0.3991 C   0  0  0  0  0  0  0  0  0  0  0  0
   -1.1421    1.5380   -0.0534 C   0  0  0  0  0  0  0  0  0  0  0  0
    0.3306    0.3851   -1.5699 O   0  0  0  0  0  0  0  0  0  0  0  0
    4.0351    0.5147    0.8178 H   0  0  0  0  0  0  0  0  0  0  0  0
   -0.1357   -0.2098    1.7197 H   0  0  0  0  0  0  0  0  0  0  0  0
   -0.0263   -2.4672    0.8750 H   0  0  0  0  0  0  0  0  0  0  0  0
    0.7113   -1.8728   -0.7464 H   0  0  0  0  0  0  0  0  0  0  0  0
   -1.6232   -1.3581   -1.2399 H   0  0  0  0  0  0  0  0  0  0  0  0
   -1.9410   -0.8529    0.5410 H   0  0  0  0  0  0  0  0  0  0  0  0
   -1.9145    1.3536    0.7156 H   0  0  0  0  0  0  0  0  0  0  0  0
   -1.6380    1.8958   -0.9735 H   0  0  0  0  0  0  0  0  0  0  0  0
   -0.3937    2.2986    0.2461 H   0  0  0  0  0  0  0  0  0  0  0  0
    0.0251    1.1353   -2.1363 H   0  0  0  0  0  0  0  0  0  0  0  0
  1  2  3  0
  2  3  1  0
  3  4  1  0
  4  5  1  0
  5  6  1  0
  6  7  1  0
  6  8  1  0
  6  3  1  0
  1  9  1  0
  3 10  1  0
  4 11  1  0
  4 12  1  0
  5 13  1  0
  5 14  1  0
  7 15  1  0
  7 16  1  0
  7 17  1  0
  8 18  1  0
M  END
