
     RDKit          3D

 19 20  0  0  0  0  0  0  0  0999 V2000
    3.1577    0.8944    0.3124 C   0  0  0  0  0  0  0  0  0  0  0  0
    2.0371    0.4803    0.4945 C   0  0  0  0  0  0  0  0  0  0  0  0
    0.6750   -0.0398    0.6980 C   0  0  0  0  0  0  0  0  0  0  0  0
    0.5420   -1.3585   -0.0070 C   0  0  0  0  0  0  0  0  0  0  0  0
   -0.7327   -1.6789   -0.3758 O   0  0  0  0  0  0  0  0  0  0  0  0
   -1.7260   -0.9492    0.2250 C   0  0  0  0  0  0  0  0  0  0  0  0
   -1.6195    0.5132   -0.1585 C   0  0  0  0  0  0  0  0  0  0  0  0
   -0.6644    0.9046   -1.2261 C   0  0  0  0  0  0  0  0  0  0  0  0
   -0.2778    1.0060    0.1971 C   0  0  0  0  0  0  0  0  0  0  0  0
    4.1517    1.2511    0.1619 H   0  0  0  0  0  0  0  0  0  0  0  0
    0.5389   -0.1900    1.7885 H   0  0  0  0  0  0  0  0  0  0  0  0
    1.0290   -2.1498    0.5992 H   0  0  0  0  0  0  0  0  0  0  0  0
    1.1546   -1.2838   -0.9531 H   0  0  0  0  0  0  0  0  0  0  0  0
   -1.7528   -1.0512    1.3262 H   0  0  0  0  0  0  0  0  0  0  0  0
   -2.7012   -1.3323   -0.1650 H   0  0  0  0  0  0  0  0  0  0  0  0
   -2.5373    1.0831   -0.0138 H   0  0  0  0  0  0  0  0  0  0  0  0
   -0.2103    0.1046   -1.8394 H   0  0  0  0  0  0  0  0  0  0  0  0
   -0.8475    1.8322   -1.8008 H   0  0  0  0  0  0  0  0  0  0  0  0
   -0.2167    1.9641    0.7369 H   0  0  0  0  0  0  0  0  0  0  0  0
  1  2  3  0
  2  3  1  0
  3  4  1  0
  4  5  1  0
  5  6  1  0
  6  7  1  0
  7  8  1  0
  8  9  1  0
  9  3  1  0
  9  7  1  0
  1 10  1  0
  3 11  1  0
  4 12  1  0
  4 13  1  0
  6 14  1  0
  6 15  1  0
  7 16  1  0
  8 17  1  0
  8 18  1  0
  9 19  1  0
M  END
