
     RDKit          3D

 19 19  0  0  0  0  0  0  0  0999 V2000
    2.6681    0.0560   -1.3103 C   0  0  0  0  0  0  0  0  0  0  0  0
    1.9210    0.0056   -0.3633 C   0  0  0  0  0  0  0  0  0  0  0  0
    1.0299   -0.0560    0.8078 C   0  0  0  0  0  0  0  0  0  0  0  0
    0.1211   -1.2702    0.6358 C   0  0  0  0  0  0  0  0  0  0  0  0
   -0.3766   -1.3425   -0.6762 O   0  0  0  0  0  0  0  0  0  0  0  0
   -1.6345   -0.7409   -0.7076 C   0  0  0  0  0  0  0  0  0  0  0  0
   -1.4658    0.7463   -0.5130 C   0  0  0  0  0  0  0  0  0  0  0  0
   -1.1169    0.9737    0.8025 O   0  0  0  0  0  0  0  0  0  0  0  0
    0.2426    1.2178    0.9538 C   0  0  0  0  0  0  0  0  0  0  0  0
    3.3483    0.0990   -2.1425 H   0  0  0  0  0  0  0  0  0  0  0  0
    1.6248   -0.2245    1.7158 H   0  0  0  0  0  0  0  0  0  0  0  0
    0.7987   -2.1673    0.7426 H   0  0  0  0  0  0  0  0  0  0  0  0
   -0.6799   -1.2594    1.3745 H   0  0  0  0  0  0  0  0  0  0  0  0
   -2.2938   -1.1115    0.1101 H   0  0  0  0  0  0  0  0  0  0  0  0
   -2.0936   -0.9308   -1.7132 H   0  0  0  0  0  0  0  0  0  0  0  0
   -0.6312    1.0819   -1.1740 H   0  0  0  0  0  0  0  0  0  0  0  0
   -2.4248    1.2824   -0.7599 H   0  0  0  0  0  0  0  0  0  0  0  0
    0.5937    1.9895    0.2354 H   0  0  0  0  0  0  0  0  0  0  0  0
    0.3688    1.6511    1.9818 H   0  0  0  0  0  0  0  0  0  0  0  0
  1  2  3  0
  2  3  1  0
  3  4  1  0
  4  5  1  0
  5  6  1  0
  6  7  1  0
  7  8  1  0
  8  9  1  0
  9  3  1  0
  1 10  1  0
  3 11  1  0
  4 12  1  0
  4 13  1  0
  6 14  1  0
  6 15  1  0
  7 16  1  0
  7 17  1  0
  9 18  1  0
  9 19  1  0
M  END
