
     RDKit          3D

 17 18  0  0  0  0  0  0  0  0999 V2000
   -2.2241   -1.5502   -0.8452 C   0  0  0  0  0  0  0  0  0  0  0  0
   -1.5285   -0.6946   -0.3900 C   0  0  0  0  0  0  0  0  0  0  0  0
   -0.7066    0.3482    0.1719 C   0  0  0  0  0  0  0  0  0  0  0  0
   -0.4724    1.6306   -0.6027 C   0  0  0  0  0  0  0  0  0  0  0  0
    0.9913    1.2632   -0.6068 C   0  0  0  0  0  0  0  0  0  0  0  0
    1.9219    1.7601   -1.2003 O   0  0  0  0  0  0  0  0  0  0  0  0
    0.7514    0.1640    0.3316 C   0  0  0  0  0  0  0  0  0  0  0  0
    1.4096   -1.1705    0.0929 C   0  0  0  0  0  0  0  0  0  0  0  0
   -0.1154    0.2842    1.5066 C   0  0  0  0  0  0  0  0  0  0  0  0
   -2.8354   -2.3307   -1.2576 H   0  0  0  0  0  0  0  0  0  0  0  0
   -0.6311    2.5260    0.0230 H   0  0  0  0  0  0  0  0  0  0  0  0
   -0.9406    1.6626   -1.5836 H   0  0  0  0  0  0  0  0  0  0  0  0
    2.4785   -1.0835    0.4044 H   0  0  0  0  0  0  0  0  0  0  0  0
    0.9693   -1.9674    0.6922 H   0  0  0  0  0  0  0  0  0  0  0  0
    1.3655   -1.4901   -0.9687 H   0  0  0  0  0  0  0  0  0  0  0  0
   -0.2380   -0.5962    2.1376 H   0  0  0  0  0  0  0  0  0  0  0  0
   -0.1954    1.2442    2.0947 H   0  0  0  0  0  0  0  0  0  0  0  0
  1  2  3  0
  2  3  1  0
  3  4  1  0
  4  5  1  0
  5  6  2  0
  5  7  1  0
  7  8  1  0
  7  9  1  0
  7  3  1  0
  9  3  1  0
  1 10  1  0
  4 11  1  0
  4 12  1  0
  8 13  1  0
  8 14  1  0
  8 15  1  0
  9 16  1  0
  9 17  1  0
M  END
