
     RDKit          3D

 19 18  0  0  0  0  0  0  0  0999 V2000
    3.3521    1.2118   -0.4425 C   0  0  0  0  0  0  0  0  0  0  0  0
    2.8563    0.3457   -1.0630 C   0  0  0  0  0  0  0  0  0  0  0  0
    2.2444   -0.7663   -1.8400 C   0  0  0  0  0  0  0  0  0  0  0  0
    1.3861   -1.5747   -0.8383 C   0  0  0  0  0  0  0  0  0  0  0  0
    0.2583   -0.7213   -0.4258 C   0  0  0  0  0  0  0  0  0  0  0  0
   -0.6516   -0.0130   -0.1039 C   0  0  0  0  0  0  0  0  0  0  0  0
   -1.7563    0.8395    0.3109 C   0  0  0  0  0  0  0  0  0  0  0  0
   -2.6825    0.1220    1.2882 C   0  0  0  0  0  0  0  0  0  0  0  0
   -3.7247    1.0236    1.6010 O   0  0  0  0  0  0  0  0  0  0  0  0
    3.8155    2.0059    0.1278 H   0  0  0  0  0  0  0  0  0  0  0  0
    1.4851   -0.3011   -2.5315 H   0  0  0  0  0  0  0  0  0  0  0  0
    2.9510   -1.4445   -2.2921 H   0  0  0  0  0  0  0  0  0  0  0  0
    2.0515   -1.7203    0.0964 H   0  0  0  0  0  0  0  0  0  0  0  0
    1.0625   -2.5253   -1.1722 H   0  0  0  0  0  0  0  0  0  0  0  0
   -2.2656    1.2494   -0.5620 H   0  0  0  0  0  0  0  0  0  0  0  0
   -1.3206    1.7161    0.9125 H   0  0  0  0  0  0  0  0  0  0  0  0
   -2.0663    0.0151    2.2248 H   0  0  0  0  0  0  0  0  0  0  0  0
   -3.0167   -0.8421    0.9289 H   0  0  0  0  0  0  0  0  0  0  0  0
   -3.9783    1.3797    0.6800 H   0  0  0  0  0  0  0  0  0  0  0  0
  1  2  3  0
  2  3  1  0
  3  4  1  0
  4  5  1  0
  5  6  3  0
  6  7  1  0
  7  8  1  0
  8  9  1  0
  1 10  1  0
  3 11  1  0
  3 12  1  0
  4 13  1  0
  4 14  1  0
  7 15  1  0
  7 16  1  0
  8 17  1  0
  8 18  1  0
  9 19  1  0
M  END
