
     RDKit          3D

 19 19  0  0  0  0  0  0  0  0999 V2000
    3.0443   -0.3757   -0.5089 C   0  0  0  0  0  0  0  0  0  0  0  0
    1.9634    0.1895   -0.3845 C   0  0  0  0  0  0  0  0  0  0  0  0
    0.7181    0.8381   -0.2165 C   0  0  0  0  0  0  0  0  0  0  0  0
    0.3169    1.3324    1.1433 C   0  0  0  0  0  0  0  0  0  0  0  0
   -1.0846    0.7862    0.8250 C   0  0  0  0  0  0  0  0  0  0  0  0
   -1.9352    1.7802    0.4000 O   0  0  0  0  0  0  0  0  0  0  0  0
   -0.4887   -0.0783   -0.2511 C   0  0  0  0  0  0  0  0  0  0  0  0
   -0.2658   -1.3771    0.1938 O   0  0  0  0  0  0  0  0  0  0  0  0
   -0.6699   -2.2391   -0.8297 C   0  0  0  0  0  0  0  0  0  0  0  0
    4.0083   -0.8701   -0.6042 H   0  0  0  0  0  0  0  0  0  0  0  0
    0.5907    1.6735   -0.9715 H   0  0  0  0  0  0  0  0  0  0  0  0
    0.7232    0.7804    2.0028 H   0  0  0  0  0  0  0  0  0  0  0  0
    0.2992    2.4540    1.2490 H   0  0  0  0  0  0  0  0  0  0  0  0
   -1.5225    0.2358    1.7018 H   0  0  0  0  0  0  0  0  0  0  0  0
   -2.3172    2.2380    1.2334 H   0  0  0  0  0  0  0  0  0  0  0  0
   -0.9753   -0.0543   -1.2406 H   0  0  0  0  0  0  0  0  0  0  0  0
   -0.0302   -2.0535   -1.7457 H   0  0  0  0  0  0  0  0  0  0  0  0
   -1.7173   -1.9792   -1.1686 H   0  0  0  0  0  0  0  0  0  0  0  0
   -0.6573   -3.2809   -0.5070 H   0  0  0  0  0  0  0  0  0  0  0  0
  1  2  3  0
  2  3  1  0
  3  4  1  0
  4  5  1  0
  5  6  1  0
  5  7  1  0
  7  8  1  0
  8  9  1  0
  7  3  1  0
  1 10  1  0
  3 11  1  0
  4 12  1  0
  4 13  1  0
  5 14  1  0
  6 15  1  0
  7 16  1  0
  9 17  1  0
  9 18  1  0
  9 19  1  0
M  END
