
     RDKit          3D

 18 17  0  0  0  0  0  0  0  0999 V2000
    2.7775   -1.6711   -1.2113 C   0  0  0  0  0  0  0  0  0  0  0  0
    1.9434   -0.7419   -1.0830 C   0  0  0  0  0  0  0  0  0  0  0  0
    1.1582    0.1560   -0.9468 C   0  0  0  0  0  0  0  0  0  0  0  0
   -0.3201    0.0868   -0.5567 C   0  0  0  0  0  0  0  0  0  0  0  0
   -0.7119    1.6602   -0.7881 C   0  0  0  0  0  0  0  0  0  0  0  0
   -0.7465   -0.2686    0.6574 C   0  0  0  0  0  0  0  0  0  0  0  0
   -1.7040   -0.8331    1.6505 C   0  0  0  0  0  0  0  0  0  0  0  0
    0.2672    0.1161    1.6309 O   0  0  0  0  0  0  0  0  0  0  0  0
    3.5547   -2.5613   -1.3458 H   0  0  0  0  0  0  0  0  0  0  0  0
    1.5121    1.1206   -0.3183 H   0  0  0  0  0  0  0  0  0  0  0  0
    1.0182    0.8427   -1.9817 H   0  0  0  0  0  0  0  0  0  0  0  0
   -0.8871   -0.3976   -1.4106 H   0  0  0  0  0  0  0  0  0  0  0  0
   -1.7562    1.7489   -0.8970 H   0  0  0  0  0  0  0  0  0  0  0  0
   -0.1282    2.0842   -0.0125 H   0  0  0  0  0  0  0  0  0  0  0  0
   -0.1791    1.8953   -1.7755 H   0  0  0  0  0  0  0  0  0  0  0  0
   -1.0907   -1.5653    2.2735 H   0  0  0  0  0  0  0  0  0  0  0  0
   -2.2764   -0.1401    2.2543 H   0  0  0  0  0  0  0  0  0  0  0  0
   -2.4310   -1.5317    1.1445 H   0  0  0  0  0  0  0  0  0  0  0  0
  1  2  3  0
  2  3  1  0
  3  4  1  0
  4  5  1  0
  4  6  1  0
  6  7  1  0
  6  8  2  0
  1  9  1  0
  3 10  1  0
  3 11  1  0
  4 12  1  0
  5 13  1  0
  5 14  1  0
  5 15  1  0
  7 16  1  0
  7 17  1  0
  7 18  1  0
M  END
