
     RDKit          3D

 17 18  0  0  0  0  0  0  0  0999 V2000
    3.3033   -0.4607   -1.8434 C   0  0  0  0  0  0  0  0  0  0  0  0
    2.2413   -0.6427   -0.9203 C   0  0  0  0  0  0  0  0  0  0  0  0
    1.4645   -0.7673   -0.2330 C   0  0  0  0  0  0  0  0  0  0  0  0
    0.0138   -0.6256   -0.6047 C   0  0  0  0  0  0  0  0  0  0  0  0
   -0.9881   -0.6609    0.4373 C   0  0  0  0  0  0  0  0  0  0  0  0
   -1.2292    0.2686    1.4199 O   0  0  0  0  0  0  0  0  0  0  0  0
   -2.1230    1.1398    0.8247 C   0  0  0  0  0  0  0  0  0  0  0  0
   -2.0588    0.9020   -0.5977 O   0  0  0  0  0  0  0  0  0  0  0  0
   -0.7470    0.5527   -0.5934 C   0  0  0  0  0  0  0  0  0  0  0  0
    4.2645   -0.3174   -2.6795 H   0  0  0  0  0  0  0  0  0  0  0  0
    1.5260    0.2252    0.7048 H   0  0  0  0  0  0  0  0  0  0  0  0
    1.5329   -1.5307    0.6936 H   0  0  0  0  0  0  0  0  0  0  0  0
   -0.1754   -1.3137   -1.4826 H   0  0  0  0  0  0  0  0  0  0  0  0
   -1.8636   -1.3023    0.2333 H   0  0  0  0  0  0  0  0  0  0  0  0
   -1.8618    2.2261    0.9911 H   0  0  0  0  0  0  0  0  0  0  0  0
   -3.1240    0.8456    1.1515 H   0  0  0  0  0  0  0  0  0  0  0  0
   -0.1753    1.4614   -0.1867 H   0  0  0  0  0  0  0  0  0  0  0  0
  1  2  3  0
  2  3  1  0
  3  4  1  0
  4  5  1  0
  5  6  1  0
  6  7  1  0
  7  8  1  0
  8  9  1  0
  9  4  1  0
  9  5  1  0
  1 10  1  0
  3 11  1  0
  3 12  1  0
  4 13  1  0
  5 14  1  0
  7 15  1  0
  7 16  1  0
  9 17  1  0
M  END
