
     RDKit          3D

 14 14  0  0  0  0  0  0  0  0999 V2000
    2.6224   -0.2821    0.2167 C   0  0  0  0  0  0  0  0  0  0  0  0
    1.4519   -0.5269   -0.0814 C   0  0  0  0  0  0  0  0  0  0  0  0
    0.0461   -0.7945   -0.4379 C   0  0  0  0  0  0  0  0  0  0  0  0
   -0.8514   -0.4399    0.7591 C   0  0  0  0  0  0  0  0  0  0  0  0
   -0.9398    1.0723    0.5580 C   0  0  0  0  0  0  0  0  0  0  0  0
   -1.0590    1.1961   -0.8488 O   0  0  0  0  0  0  0  0  0  0  0  0
   -0.4299    0.1253   -1.4678 C   0  0  0  0  0  0  0  0  0  0  0  0
   -0.3477    0.0715   -2.7392 O   0  0  0  0  0  0  0  0  0  0  0  0
    3.6200   -0.0781    0.4887 H   0  0  0  0  0  0  0  0  0  0  0  0
   -0.0906   -1.8551   -0.6363 H   0  0  0  0  0  0  0  0  0  0  0  0
   -1.8604   -0.8344    0.5810 H   0  0  0  0  0  0  0  0  0  0  0  0
   -0.3806   -0.7159    1.6986 H   0  0  0  0  0  0  0  0  0  0  0  0
    0.0200    1.5509    0.8302 H   0  0  0  0  0  0  0  0  0  0  0  0
   -1.8009    1.5109    1.0792 H   0  0  0  0  0  0  0  0  0  0  0  0
  1  2  3  0
  2  3  1  0
  3  4  1  0
  4  5  1  0
  5  6  1  0
  6  7  1  0
  7  8  2  0
  7  3  1  0
  1  9  1  0
  3 10  1  0
  4 11  1  0
  4 12  1  0
  5 13  1  0
  5 14  1  0
M  END
