
     RDKit          3D

 21 20  0  0  0  0  0  0  0  0999 V2000
    4.1720   -1.1233    1.6471 C   0  0  0  0  0  0  0  0  0  0  0  0
    3.0621   -0.5595    1.3324 C   0  0  0  0  0  0  0  0  0  0  0  0
    1.8804    0.0176    0.9876 C   0  0  0  0  0  0  0  0  0  0  0  0
    0.8892   -0.7726    0.1271 C   0  0  0  0  0  0  0  0  0  0  0  0
    1.4559   -1.1023   -1.2404 C   0  0  0  0  0  0  0  0  0  0  0  0
   -0.3009   -0.1676    0.1802 C   0  0  0  0  0  0  0  0  0  0  0  0
   -1.5208    0.4435    0.2121 C   0  0  0  0  0  0  0  0  0  0  0  0
   -2.8041    1.0813    0.2697 C   0  0  0  0  0  0  0  0  0  0  0  0
   -3.5535    0.8095   -1.0303 C   0  0  0  0  0  0  0  0  0  0  0  0
    5.0904   -1.5937    1.9270 H   0  0  0  0  0  0  0  0  0  0  0  0
    1.3091    0.4257    1.8911 H   0  0  0  0  0  0  0  0  0  0  0  0
    2.1149    0.9347    0.3169 H   0  0  0  0  0  0  0  0  0  0  0  0
    0.8901   -1.7968    0.6651 H   0  0  0  0  0  0  0  0  0  0  0  0
    2.1510   -1.9636   -1.2029 H   0  0  0  0  0  0  0  0  0  0  0  0
    1.8620   -0.2176   -1.7378 H   0  0  0  0  0  0  0  0  0  0  0  0
    0.5750   -1.4512   -1.8535 H   0  0  0  0  0  0  0  0  0  0  0  0
   -2.6602    2.1977    0.3865 H   0  0  0  0  0  0  0  0  0  0  0  0
   -3.4176    0.7573    1.1218 H   0  0  0  0  0  0  0  0  0  0  0  0
   -4.5564    1.3097   -0.9740 H   0  0  0  0  0  0  0  0  0  0  0  0
   -2.9502    1.2208   -1.8745 H   0  0  0  0  0  0  0  0  0  0  0  0
   -3.6881   -0.2644   -1.1511 H   0  0  0  0  0  0  0  0  0  0  0  0
  1  2  3  0
  2  3  1  0
  3  4  1  0
  4  5  1  0
  4  6  1  0
  6  7  3  0
  7  8  1  0
  8  9  1  0
  1 10  1  0
  3 11  1  0
  3 12  1  0
  4 13  1  0
  5 14  1  0
  5 15  1  0
  5 16  1  0
  8 17  1  0
  8 18  1  0
  9 19  1  0
  9 20  1  0
  9 21  1  0
M  END
