
     RDKit          3D

 14 14  0  0  0  0  0  0  0  0999 V2000
    3.0977    0.3530    0.8276 C   0  0  0  0  0  0  0  0  0  0  0  0
    1.9385    0.2714    0.5067 C   0  0  0  0  0  0  0  0  0  0  0  0
    0.5275    0.1765    0.1422 C   0  0  0  0  0  0  0  0  0  0  0  0
   -0.3637    1.1245    0.2670 C   0  0  0  0  0  0  0  0  0  0  0  0
   -1.6575    0.6661   -0.1978 C   0  0  0  0  0  0  0  0  0  0  0  0
   -2.7853    1.2074    0.0429 O   0  0  0  0  0  0  0  0  0  0  0  0
   -1.4049   -0.5537   -1.0059 C   0  0  0  0  0  0  0  0  0  0  0  0
   -0.0863   -1.0253   -0.4266 C   0  0  0  0  0  0  0  0  0  0  0  0
    4.1128    0.4348    1.1248 H   0  0  0  0  0  0  0  0  0  0  0  0
   -0.1578    2.1407    0.6732 H   0  0  0  0  0  0  0  0  0  0  0  0
   -1.3097   -0.2853   -2.0742 H   0  0  0  0  0  0  0  0  0  0  0  0
   -2.2319   -1.2701   -0.8210 H   0  0  0  0  0  0  0  0  0  0  0  0
   -0.2486   -1.7532    0.4112 H   0  0  0  0  0  0  0  0  0  0  0  0
    0.5692   -1.4866   -1.2095 H   0  0  0  0  0  0  0  0  0  0  0  0
  1  2  3  0
  2  3  1  0
  3  4  2  0
  4  5  1  0
  5  6  2  0
  5  7  1  0
  7  8  1  0
  8  3  1  0
  1  9  1  0
  4 10  1  0
  7 11  1  0
  7 12  1  0
  8 13  1  0
  8 14  1  0
M  END
