
     RDKit          3D

 17 16  0  0  0  0  0  0  0  0999 V2000
   -3.1797   -1.9392    1.5939 C   0  0  0  0  0  0  0  0  0  0  0  0
   -3.0225   -1.1058    0.7061 C   0  0  0  0  0  0  0  0  0  0  0  0
   -2.8111   -0.1214   -0.3536 C   0  0  0  0  0  0  0  0  0  0  0  0
   -1.4253    0.3150   -0.3091 C   0  0  0  0  0  0  0  0  0  0  0  0
   -0.2541    0.6686   -0.2785 C   0  0  0  0  0  0  0  0  0  0  0  0
    1.1503    1.0783   -0.2604 C   0  0  0  0  0  0  0  0  0  0  0  0
    1.9236    0.0044    0.4786 C   0  0  0  0  0  0  0  0  0  0  0  0
    3.3775    0.3682    0.5302 C   0  0  0  0  0  0  0  0  0  0  0  0
    3.8129    1.3877    0.0358 O   0  0  0  0  0  0  0  0  0  0  0  0
   -3.3169   -2.6589    2.3574 H   0  0  0  0  0  0  0  0  0  0  0  0
   -3.4676    0.7786   -0.1921 H   0  0  0  0  0  0  0  0  0  0  0  0
   -3.0696   -0.5894   -1.3422 H   0  0  0  0  0  0  0  0  0  0  0  0
    1.5828    1.1741   -1.2776 H   0  0  0  0  0  0  0  0  0  0  0  0
    1.2968    2.0252    0.2885 H   0  0  0  0  0  0  0  0  0  0  0  0
    1.7720   -0.9652   -0.0362 H   0  0  0  0  0  0  0  0  0  0  0  0
    1.5706   -0.1122    1.5212 H   0  0  0  0  0  0  0  0  0  0  0  0
    4.0604   -0.3079    1.0287 H   0  0  0  0  0  0  0  0  0  0  0  0
  1  2  3  0
  2  3  1  0
  3  4  1  0
  4  5  3  0
  5  6  1  0
  6  7  1  0
  7  8  1  0
  8  9  2  0
  1 10  1  0
  3 11  1  0
  3 12  1  0
  6 13  1  0
  6 14  1  0
  7 15  1  0
  7 16  1  0
  8 17  1  0
M  END
