
     RDKit          3D

 17 17  0  0  0  0  0  0  0  0999 V2000
    2.8997    2.6029   -0.0035 C   0  0  0  0  0  0  0  0  0  0  0  0
    2.3830    1.5134   -0.0012 C   0  0  0  0  0  0  0  0  0  0  0  0
    1.7609    0.1775    0.0248 C   0  0  0  0  0  0  0  0  0  0  0  0
    0.2992    0.1659    0.1445 C   0  0  0  0  0  0  0  0  0  0  0  0
   -0.9197    0.1353    0.2484 C   0  0  0  0  0  0  0  0  0  0  0  0
   -2.3841    0.1176    0.3561 C   0  0  0  0  0  0  0  0  0  0  0  0
   -2.8976   -1.0320   -0.4553 C   0  0  0  0  0  0  0  0  0  0  0  0
    2.4081   -0.9469   -0.5492 C   0  0  0  0  0  0  0  0  0  0  0  0
    2.4631   -0.7168    0.9194 O   0  0  0  0  0  0  0  0  0  0  0  0
    3.3772    3.5700   -0.0015 H   0  0  0  0  0  0  0  0  0  0  0  0
   -2.7122    0.0171    1.4173 H   0  0  0  0  0  0  0  0  0  0  0  0
   -2.8131    1.0892    0.0076 H   0  0  0  0  0  0  0  0  0  0  0  0
   -3.7486   -0.7534   -1.1086 H   0  0  0  0  0  0  0  0  0  0  0  0
   -3.2752   -1.8021    0.2447 H   0  0  0  0  0  0  0  0  0  0  0  0
   -2.1036   -1.4198   -1.1260 H   0  0  0  0  0  0  0  0  0  0  0  0
    1.8260   -1.8638   -0.7780 H   0  0  0  0  0  0  0  0  0  0  0  0
    3.4368   -0.8543   -0.9800 H   0  0  0  0  0  0  0  0  0  0  0  0
  1  2  3  0
  2  3  1  0
  3  4  1  0
  4  5  3  0
  5  6  1  0
  6  7  1  0
  3  8  1  0
  8  9  1  0
  9  3  1  0
  1 10  1  0
  6 11  1  0
  6 12  1  0
  7 13  1  0
  7 14  1  0
  7 15  1  0
  8 16  1  0
  8 17  1  0
M  END
