
     RDKit          3D

 12 11  0  0  0  0  0  0  0  0999 V2000
    3.1878    0.4522   -1.4985 C   0  0  0  0  0  0  0  0  0  0  0  0
    2.0634    0.0490   -1.4561 C   0  0  0  0  0  0  0  0  0  0  0  0
    0.6755   -0.4238   -1.3920 C   0  0  0  0  0  0  0  0  0  0  0  0
    0.1630   -0.9629   -2.4034 O   0  0  0  0  0  0  0  0  0  0  0  0
   -0.2206   -0.3200   -0.2668 C   0  0  0  0  0  0  0  0  0  0  0  0
   -0.0644   -1.3846    0.5743 O   0  0  0  0  0  0  0  0  0  0  0  0
   -1.1664    0.5748    0.1525 O   0  0  0  0  0  0  0  0  0  0  0  0
   -2.0127    0.3928    1.3271 C   0  0  0  0  0  0  0  0  0  0  0  0
    4.1559    0.8142   -1.5439 H   0  0  0  0  0  0  0  0  0  0  0  0
   -1.9868    1.0854    2.1349 H   0  0  0  0  0  0  0  0  0  0  0  0
   -1.7119   -0.6458    1.6205 H   0  0  0  0  0  0  0  0  0  0  0  0
   -3.0830    0.3688    0.8951 H   0  0  0  0  0  0  0  0  0  0  0  0
  1  2  3  0
  2  3  1  0
  3  4  2  0
  3  5  1  0
  5  6  2  0
  5  7  1  0
  7  8  1  0
  1  9  1  0
  8 10  1  0
  8 11  1  0
  8 12  1  0
M  END
