
     RDKit          3D

 19 19  0  0  0  0  0  0  0  0999 V2000
    4.7703    0.8620   -0.1765 C   0  0  0  0  0  0  0  0  0  0  0  0
    3.5879    0.6040   -0.1437 C   0  0  0  0  0  0  0  0  0  0  0  0
    2.2110    0.2892   -0.1253 C   0  0  0  0  0  0  0  0  0  0  0  0
    1.0328    0.0025   -0.0974 C   0  0  0  0  0  0  0  0  0  0  0  0
   -0.3963   -0.3268   -0.0483 C   0  0  0  0  0  0  0  0  0  0  0  0
   -0.6383   -1.7722   -0.3352 C   0  0  0  0  0  0  0  0  0  0  0  0
   -1.0592    0.2160    1.1949 C   0  0  0  0  0  0  0  0  0  0  0  0
   -2.1964    0.7328    0.3137 C   0  0  0  0  0  0  0  0  0  0  0  0
   -1.2373    0.6402   -0.8514 C   0  0  0  0  0  0  0  0  0  0  0  0
    5.8207    1.0937   -0.2023 H   0  0  0  0  0  0  0  0  0  0  0  0
   -1.4271   -1.8482   -1.1231 H   0  0  0  0  0  0  0  0  0  0  0  0
   -0.9642   -2.3426    0.5615 H   0  0  0  0  0  0  0  0  0  0  0  0
    0.2766   -2.2174   -0.7549 H   0  0  0  0  0  0  0  0  0  0  0  0
   -1.3527   -0.5702    1.9055 H   0  0  0  0  0  0  0  0  0  0  0  0
   -0.5476    1.0704    1.6641 H   0  0  0  0  0  0  0  0  0  0  0  0
   -3.0552    0.0647    0.2198 H   0  0  0  0  0  0  0  0  0  0  0  0
   -2.4919    1.7677    0.5266 H   0  0  0  0  0  0  0  0  0  0  0  0
   -0.6982    1.5666   -1.1009 H   0  0  0  0  0  0  0  0  0  0  0  0
   -1.6349    0.1676   -1.7605 H   0  0  0  0  0  0  0  0  0  0  0  0
  1  2  3  0
  2  3  1  0
  3  4  3  0
  4  5  1  0
  5  6  1  0
  5  7  1  0
  7  8  1  0
  8  9  1  0
  9  5  1  0
  1 10  1  0
  6 11  1  0
  6 12  1  0
  6 13  1  0
  7 14  1  0
  7 15  1  0
  8 16  1  0
  8 17  1  0
  9 18  1  0
  9 19  1  0
M  END
