
     RDKit          3D

 23 23  0  0  0  0  0  0  0  0999 V2000
    2.9641    1.2637    0.4218 C   0  0  0  0  0  0  0  0  0  0  0  0
    2.4676    0.1739    0.2682 C   0  0  0  0  0  0  0  0  0  0  0  0
    1.8691   -1.1491    0.0769 C   0  0  0  0  0  0  0  0  0  0  0  0
    1.1203   -1.6804    1.3282 C   0  0  0  0  0  0  0  0  0  0  0  0
    0.3649   -1.2898    0.1417 C   0  0  0  0  0  0  0  0  0  0  0  0
   -0.3793    0.0034    0.0166 C   0  0  0  0  0  0  0  0  0  0  0  0
   -0.0252    0.6154   -1.3233 C   0  0  0  0  0  0  0  0  0  0  0  0
   -1.8693   -0.1470    0.0855 C   0  0  0  0  0  0  0  0  0  0  0  0
   -2.4582    1.2620   -0.0585 C   0  0  0  0  0  0  0  0  0  0  0  0
    3.4187    2.2285    0.5485 H   0  0  0  0  0  0  0  0  0  0  0  0
    2.4603   -1.8872   -0.4988 H   0  0  0  0  0  0  0  0  0  0  0  0
    1.0666   -1.0000    2.2012 H   0  0  0  0  0  0  0  0  0  0  0  0
    1.2840   -2.7638    1.5109 H   0  0  0  0  0  0  0  0  0  0  0  0
   -0.0166   -2.1110   -0.5088 H   0  0  0  0  0  0  0  0  0  0  0  0
   -0.0542    0.6699    0.8495 H   0  0  0  0  0  0  0  0  0  0  0  0
    0.9666    0.3080   -1.6820 H   0  0  0  0  0  0  0  0  0  0  0  0
   -0.7971    0.2273   -2.0512 H   0  0  0  0  0  0  0  0  0  0  0  0
   -0.1734    1.7124   -1.2901 H   0  0  0  0  0  0  0  0  0  0  0  0
   -2.2261   -0.6490    0.9963 H   0  0  0  0  0  0  0  0  0  0  0  0
   -2.2680   -0.7193   -0.7735 H   0  0  0  0  0  0  0  0  0  0  0  0
   -3.3613    1.3897    0.5666 H   0  0  0  0  0  0  0  0  0  0  0  0
   -2.6279    1.5100   -1.1299 H   0  0  0  0  0  0  0  0  0  0  0  0
   -1.7257    2.0324    0.3043 H   0  0  0  0  0  0  0  0  0  0  0  0
  1  2  3  0
  2  3  1  0
  3  4  1  0
  4  5  1  0
  5  6  1  0
  6  7  1  0
  6  8  1  0
  8  9  1  0
  5  3  1  0
  1 10  1  0
  3 11  1  0
  4 12  1  0
  4 13  1  0
  5 14  1  0
  6 15  1  0
  7 16  1  0
  7 17  1  0
  7 18  1  0
  8 19  1  0
  8 20  1  0
  9 21  1  0
  9 22  1  0
  9 23  1  0
M  END
