
     RDKit          3D

 19 19  0  0  0  0  0  0  0  0999 V2000
    2.2447   -1.5986   -0.4658 C   0  0  0  0  0  0  0  0  0  0  0  0
    1.8009   -0.4676   -0.5463 C   0  0  0  0  0  0  0  0  0  0  0  0
    1.2582    0.9528   -0.6476 C   0  0  0  0  0  0  0  0  0  0  0  0
    1.8948    1.8018    0.1503 O   0  0  0  0  0  0  0  0  0  0  0  0
   -0.1389    0.4778   -0.0124 C   0  0  0  0  0  0  0  0  0  0  0  0
    0.1935   -0.1105    1.2534 O   0  0  0  0  0  0  0  0  0  0  0  0
   -1.4710    0.9017   -0.2563 C   0  0  0  0  0  0  0  0  0  0  0  0
   -1.9119   -0.6085   -0.2617 C   0  0  0  0  0  0  0  0  0  0  0  0
   -0.4967   -0.8015   -0.8987 C   0  0  0  0  0  0  0  0  0  0  0  0
    2.7117   -2.8322   -0.3952 H   0  0  0  0  0  0  0  0  0  0  0  0
    1.1401    1.0981   -1.6887 H   0  0  0  0  0  0  0  0  0  0  0  0
    2.2798    2.6042   -0.3125 H   0  0  0  0  0  0  0  0  0  0  0  0
   -0.5380   -0.0879    1.8918 H   0  0  0  0  0  0  0  0  0  0  0  0
   -1.7283    1.2758   -1.2688 H   0  0  0  0  0  0  0  0  0  0  0  0
   -2.0559    1.4574    0.5531 H   0  0  0  0  0  0  0  0  0  0  0  0
   -2.7555   -0.8284   -0.9562 H   0  0  0  0  0  0  0  0  0  0  0  0
   -1.9601   -0.9810    0.7599 H   0  0  0  0  0  0  0  0  0  0  0  0
    0.0146   -1.6942   -0.4836 H   0  0  0  0  0  0  0  0  0  0  0  0
   -0.4819   -0.5590   -1.9469 H   0  0  0  0  0  0  0  0  0  0  0  0
  1  2  3  0
  2  3  1  0
  3  4  1  0
  3  5  1  0
  5  6  1  0
  5  7  1  0
  7  8  1  0
  8  9  1  0
  9  5  1  0
  1 10  1  0
  3 11  1  0
  4 12  1  0
  6 13  1  0
  7 14  1  0
  7 15  1  0
  8 16  1  0
  8 17  1  0
  9 18  1  0
  9 19  1  0
M  END
