
     RDKit          3D

 17 18  0  0  0  0  0  0  0  0999 V2000
    1.6887   -2.1612    0.7843 C   0  0  0  0  0  0  0  0  0  0  0  0
    1.1162   -1.2131    0.3134 C   0  0  0  0  0  0  0  0  0  0  0  0
    0.4232   -0.0715   -0.2756 C   0  0  0  0  0  0  0  0  0  0  0  0
   -0.3017   -0.3356   -1.5481 C   0  0  0  0  0  0  0  0  0  0  0  0
   -1.3633    0.5599   -1.5670 O   0  0  0  0  0  0  0  0  0  0  0  0
   -1.8654    0.4434   -0.2576 C   0  0  0  0  0  0  0  0  0  0  0  0
   -0.6262    0.5147    0.6220 C   0  0  0  0  0  0  0  0  0  0  0  0
    0.0319    1.7443    0.5185 O   0  0  0  0  0  0  0  0  0  0  0  0
    1.1290    1.2401   -0.1787 C   0  0  0  0  0  0  0  0  0  0  0  0
    2.1831   -2.9983    1.2096 H   0  0  0  0  0  0  0  0  0  0  0  0
   -0.6289   -1.3921   -1.5528 H   0  0  0  0  0  0  0  0  0  0  0  0
    0.4063   -0.1190   -2.3985 H   0  0  0  0  0  0  0  0  0  0  0  0
   -2.4927    1.3130   -0.0637 H   0  0  0  0  0  0  0  0  0  0  0  0
   -2.3486   -0.5282   -0.1355 H   0  0  0  0  0  0  0  0  0  0  0  0
   -0.7236    0.0977    1.6230 H   0  0  0  0  0  0  0  0  0  0  0  0
    1.3511    1.7173   -1.1357 H   0  0  0  0  0  0  0  0  0  0  0  0
    2.0208    1.1884    0.5005 H   0  0  0  0  0  0  0  0  0  0  0  0
  1  2  3  0
  2  3  1  0
  3  4  1  0
  4  5  1  0
  5  6  1  0
  6  7  1  0
  7  8  1  0
  8  9  1  0
  7  3  1  0
  9  3  1  0
  1 10  1  0
  4 11  1  0
  4 12  1  0
  6 13  1  0
  6 14  1  0
  7 15  1  0
  9 16  1  0
  9 17  1  0
M  END
