
     RDKit          3D

 17 18  0  0  0  0  0  0  0  0999 V2000
    3.6059   -0.2223    0.3340 C   0  0  0  0  0  0  0  0  0  0  0  0
    2.4678   -0.1879   -0.0666 C   0  0  0  0  0  0  0  0  0  0  0  0
    1.0792   -0.1641   -0.5360 C   0  0  0  0  0  0  0  0  0  0  0  0
    0.2480    0.9835   -0.1125 C   0  0  0  0  0  0  0  0  0  0  0  0
   -1.0473    1.2575   -0.7553 C   0  0  0  0  0  0  0  0  0  0  0  0
   -1.8891    0.2445   -0.6116 C   0  0  0  0  0  0  0  0  0  0  0  0
   -1.2792   -0.8663    0.1539 C   0  0  0  0  0  0  0  0  0  0  0  0
   -2.0065   -1.2468    1.2587 O   0  0  0  0  0  0  0  0  0  0  0  0
    0.0296   -0.2895    0.6077 C   0  0  0  0  0  0  0  0  0  0  0  0
    4.6145   -0.2457    0.6955 H   0  0  0  0  0  0  0  0  0  0  0  0
    0.8453   -0.6681   -1.4820 H   0  0  0  0  0  0  0  0  0  0  0  0
    0.7890    1.8346    0.3467 H   0  0  0  0  0  0  0  0  0  0  0  0
   -1.3023    2.1685   -1.2859 H   0  0  0  0  0  0  0  0  0  0  0  0
   -2.9239    0.1798   -0.9914 H   0  0  0  0  0  0  0  0  0  0  0  0
   -1.0556   -1.7456   -0.5081 H   0  0  0  0  0  0  0  0  0  0  0  0
   -2.5926   -0.5674    1.6260 H   0  0  0  0  0  0  0  0  0  0  0  0
    0.4173   -0.4648    1.6142 H   0  0  0  0  0  0  0  0  0  0  0  0
  1  2  3  0
  2  3  1  0
  3  4  1  0
  4  5  1  0
  5  6  2  0
  6  7  1  0
  7  8  1  0
  7  9  1  0
  9  3  1  0
  9  4  1  0
  1 10  1  0
  3 11  1  0
  4 12  1  0
  5 13  1  0
  6 14  1  0
  7 15  1  0
  8 16  1  0
  9 17  1  0
M  END
