
     RDKit          3D

 19 20  0  0  0  0  0  0  0  0999 V2000
    2.6821    1.0337   -1.7903 C   0  0  0  0  0  0  0  0  0  0  0  0
    1.5102    1.0523   -1.4618 C   0  0  0  0  0  0  0  0  0  0  0  0
    0.1010    1.0793   -1.0927 C   0  0  0  0  0  0  0  0  0  0  0  0
   -0.7326   -0.1119   -1.4328 C   0  0  0  0  0  0  0  0  0  0  0  0
   -0.3575    0.2018    0.0037 C   0  0  0  0  0  0  0  0  0  0  0  0
   -1.4518    0.6715    0.9305 C   0  0  0  0  0  0  0  0  0  0  0  0
    0.5821   -0.8211    0.6119 C   0  0  0  0  0  0  0  0  0  0  0  0
    0.0174   -1.6276    1.7006 C   0  0  0  0  0  0  0  0  0  0  0  0
    1.0665   -0.6323    1.9008 O   0  0  0  0  0  0  0  0  0  0  0  0
    3.6916    1.0053   -2.0811 H   0  0  0  0  0  0  0  0  0  0  0  0
   -0.4431    2.0569   -1.1728 H   0  0  0  0  0  0  0  0  0  0  0  0
   -1.8113   -0.0031   -1.6395 H   0  0  0  0  0  0  0  0  0  0  0  0
   -0.2756   -0.9635   -1.9521 H   0  0  0  0  0  0  0  0  0  0  0  0
   -1.7960    1.6916    0.6580 H   0  0  0  0  0  0  0  0  0  0  0  0
   -2.3139   -0.0111    0.7964 H   0  0  0  0  0  0  0  0  0  0  0  0
   -1.0768    0.7242    1.9622 H   0  0  0  0  0  0  0  0  0  0  0  0
    1.2081   -1.3769   -0.1195 H   0  0  0  0  0  0  0  0  0  0  0  0
    0.2950   -2.6628    1.9163 H   0  0  0  0  0  0  0  0  0  0  0  0
   -0.8952   -1.3061    2.2622 H   0  0  0  0  0  0  0  0  0  0  0  0
  1  2  3  0
  2  3  1  0
  3  4  1  0
  4  5  1  0
  5  6  1  0
  5  7  1  0
  7  8  1  0
  8  9  1  0
  5  3  1  0
  9  7  1  0
  1 10  1  0
  3 11  1  0
  4 12  1  0
  4 13  1  0
  6 14  1  0
  6 15  1  0
  6 16  1  0
  7 17  1  0
  8 18  1  0
  8 19  1  0
M  END
