
     RDKit          3D

 21 21  0  0  0  0  0  0  0  0999 V2000
    1.3449    1.1371   -2.9248 C   0  0  0  0  0  0  0  0  0  0  0  0
    1.1678    0.6758   -1.7841 C   0  0  0  0  0  0  0  0  0  0  0  0
    0.9441    0.1314   -0.4772 C   0  0  0  0  0  0  0  0  0  0  0  0
    1.4772   -1.2557   -0.1881 C   0  0  0  0  0  0  0  0  0  0  0  0
    0.0910   -1.7820   -0.5102 C   0  0  0  0  0  0  0  0  0  0  0  0
   -0.4305   -0.3983   -0.1970 C   0  0  0  0  0  0  0  0  0  0  0  0
   -0.9822   -0.2832    1.1869 C   0  0  0  0  0  0  0  0  0  0  0  0
   -1.1279    1.1415    1.6235 C   0  0  0  0  0  0  0  0  0  0  0  0
   -1.9419    1.8837    0.7920 O   0  0  0  0  0  0  0  0  0  0  0  0
    1.5111    1.5262   -3.9227 H   0  0  0  0  0  0  0  0  0  0  0  0
    1.2886    0.8507    0.3332 H   0  0  0  0  0  0  0  0  0  0  0  0
    1.8060   -1.4182    0.8543 H   0  0  0  0  0  0  0  0  0  0  0  0
    2.1544   -1.6089   -0.9973 H   0  0  0  0  0  0  0  0  0  0  0  0
   -0.1587   -2.5452    0.2869 H   0  0  0  0  0  0  0  0  0  0  0  0
   -0.0941   -2.1092   -1.5624 H   0  0  0  0  0  0  0  0  0  0  0  0
   -1.1403   -0.0915   -1.0114 H   0  0  0  0  0  0  0  0  0  0  0  0
   -1.9913   -0.7706    1.2319 H   0  0  0  0  0  0  0  0  0  0  0  0
   -0.2609   -0.7692    1.8904 H   0  0  0  0  0  0  0  0  0  0  0  0
   -0.1928    1.6906    1.8017 H   0  0  0  0  0  0  0  0  0  0  0  0
   -1.6512    1.1556    2.6326 H   0  0  0  0  0  0  0  0  0  0  0  0
   -1.8135    2.8393    0.9418 H   0  0  0  0  0  0  0  0  0  0  0  0
  1  2  3  0
  2  3  1  0
  3  4  1  0
  4  5  1  0
  5  6  1  0
  6  7  1  0
  7  8  1  0
  8  9  1  0
  6  3  1  0
  1 10  1  0
  3 11  1  0
  4 12  1  0
  4 13  1  0
  5 14  1  0
  5 15  1  0
  6 16  1  0
  7 17  1  0
  7 18  1  0
  8 19  1  0
  8 20  1  0
  9 21  1  0
M  END
