
     RDKit          3D

 19 19  0  0  0  0  0  0  0  0999 V2000
    3.1182   -0.3574    0.2930 C   0  0  0  0  0  0  0  0  0  0  0  0
    1.9319   -0.2886    0.4772 C   0  0  0  0  0  0  0  0  0  0  0  0
    0.5616   -0.1902    0.6746 C   0  0  0  0  0  0  0  0  0  0  0  0
    0.1427   -0.4086    2.0292 O   0  0  0  0  0  0  0  0  0  0  0  0
   -0.1807   -1.2893   -0.1005 C   0  0  0  0  0  0  0  0  0  0  0  0
   -1.5710   -0.6877   -0.3903 C   0  0  0  0  0  0  0  0  0  0  0  0
   -1.4210    0.7935   -0.3713 C   0  0  0  0  0  0  0  0  0  0  0  0
   -0.0622    1.1298    0.2646 C   0  0  0  0  0  0  0  0  0  0  0  0
    0.6391    1.8990   -0.6201 O   0  0  0  0  0  0  0  0  0  0  0  0
    4.2958   -0.4289    0.0898 H   0  0  0  0  0  0  0  0  0  0  0  0
   -0.8532   -0.1292    1.9310 H   0  0  0  0  0  0  0  0  0  0  0  0
   -0.3233   -2.1697    0.5809 H   0  0  0  0  0  0  0  0  0  0  0  0
    0.3017   -1.5168   -1.0497 H   0  0  0  0  0  0  0  0  0  0  0  0
   -2.2691   -1.0140    0.4163 H   0  0  0  0  0  0  0  0  0  0  0  0
   -1.9707   -1.0615   -1.3435 H   0  0  0  0  0  0  0  0  0  0  0  0
   -1.4347    1.1400   -1.4386 H   0  0  0  0  0  0  0  0  0  0  0  0
   -2.2080    1.3133    0.1536 H   0  0  0  0  0  0  0  0  0  0  0  0
   -0.2519    1.7862    1.1849 H   0  0  0  0  0  0  0  0  0  0  0  0
    1.5551    1.4801   -0.7147 H   0  0  0  0  0  0  0  0  0  0  0  0
  1  2  3  0
  2  3  1  0
  3  4  1  0
  3  5  1  0
  5  6  1  0
  6  7  1  0
  7  8  1  0
  8  9  1  0
  8  3  1  0
  1 10  1  0
  4 11  1  0
  5 12  1  0
  5 13  1  0
  6 14  1  0
  6 15  1  0
  7 16  1  0
  7 17  1  0
  8 18  1  0
  9 19  1  0
M  END
