
     RDKit          3D

 21 21  0  0  0  0  0  0  0  0999 V2000
   -2.7697    1.9998    0.6483 C   0  0  0  0  0  0  0  0  0  0  0  0
   -1.9413    1.1740    0.3737 C   0  0  0  0  0  0  0  0  0  0  0  0
   -0.9493    0.1613    0.0350 C   0  0  0  0  0  0  0  0  0  0  0  0
   -1.2430   -0.3051   -1.3705 C   0  0  0  0  0  0  0  0  0  0  0  0
   -1.1772   -1.0261    0.9580 C   0  0  0  0  0  0  0  0  0  0  0  0
    0.3195    0.6982    0.1734 O   0  0  0  0  0  0  0  0  0  0  0  0
    1.3273   -0.1865   -0.1258 C   0  0  0  0  0  0  0  0  0  0  0  0
    2.5971    0.3364   -0.6873 C   0  0  0  0  0  0  0  0  0  0  0  0
    2.5720   -0.0178    0.7418 C   0  0  0  0  0  0  0  0  0  0  0  0
   -3.4952    2.7416    0.8791 H   0  0  0  0  0  0  0  0  0  0  0  0
   -0.8094    0.4264   -2.0849 H   0  0  0  0  0  0  0  0  0  0  0  0
   -2.3664   -0.3249   -1.4599 H   0  0  0  0  0  0  0  0  0  0  0  0
   -0.9040   -1.3285   -1.5208 H   0  0  0  0  0  0  0  0  0  0  0  0
   -1.6643   -1.8740    0.4295 H   0  0  0  0  0  0  0  0  0  0  0  0
   -1.8386   -0.7355    1.8262 H   0  0  0  0  0  0  0  0  0  0  0  0
   -0.2342   -1.3807    1.4243 H   0  0  0  0  0  0  0  0  0  0  0  0
    1.0768   -1.2312   -0.4461 H   0  0  0  0  0  0  0  0  0  0  0  0
    3.2415   -0.3193   -1.3312 H   0  0  0  0  0  0  0  0  0  0  0  0
    2.6264    1.3913   -1.0349 H   0  0  0  0  0  0  0  0  0  0  0  0
    3.0403   -0.9697    1.0664 H   0  0  0  0  0  0  0  0  0  0  0  0
    2.5915    0.7702    1.5056 H   0  0  0  0  0  0  0  0  0  0  0  0
  1  2  3  0
  2  3  1  0
  3  4  1  0
  3  5  1  0
  3  6  1  0
  6  7  1  0
  7  8  1  0
  8  9  1  0
  9  7  1  0
  1 10  1  0
  4 11  1  0
  4 12  1  0
  4 13  1  0
  5 14  1  0
  5 15  1  0
  5 16  1  0
  7 17  1  0
  8 18  1  0
  8 19  1  0
  9 20  1  0
  9 21  1  0
M  END
