
     RDKit          3D

 17 17  0  0  0  0  0  0  0  0999 V2000
   -2.7253    1.3018   -1.1183 C   0  0  0  0  0  0  0  0  0  0  0  0
   -1.9141    0.2516   -0.6172 C   0  0  0  0  0  0  0  0  0  0  0  0
   -1.1927   -0.6864   -0.1934 C   0  0  0  0  0  0  0  0  0  0  0  0
    0.3128   -0.6663   -0.3757 C   0  0  0  0  0  0  0  0  0  0  0  0
    0.8892   -1.9665    0.1387 C   0  0  0  0  0  0  0  0  0  0  0  0
    0.2673   -2.9019    0.3453 O   0  0  0  0  0  0  0  0  0  0  0  0
    1.0846    0.4089    0.2590 C   0  0  0  0  0  0  0  0  0  0  0  0
    1.0299    1.8310    0.1001 C   0  0  0  0  0  0  0  0  0  0  0  0
    2.1600    0.9904   -0.5083 O   0  0  0  0  0  0  0  0  0  0  0  0
   -3.3157    2.0372   -1.4731 H   0  0  0  0  0  0  0  0  0  0  0  0
   -1.4226   -1.7125   -0.8376 H   0  0  0  0  0  0  0  0  0  0  0  0
   -1.4922   -1.1510    0.8192 H   0  0  0  0  0  0  0  0  0  0  0  0
    0.5176   -0.6729   -1.4538 H   0  0  0  0  0  0  0  0  0  0  0  0
    1.9935   -1.9495    0.2994 H   0  0  0  0  0  0  0  0  0  0  0  0
    1.5724    0.0578    1.2515 H   0  0  0  0  0  0  0  0  0  0  0  0
    1.5668    2.4577    0.9003 H   0  0  0  0  0  0  0  0  0  0  0  0
    0.6688    2.3705   -0.7835 H   0  0  0  0  0  0  0  0  0  0  0  0
  1  2  3  0
  2  3  1  0
  3  4  1  0
  4  5  1  0
  5  6  2  0
  4  7  1  0
  7  8  1  0
  8  9  1  0
  9  7  1  0
  1 10  1  0
  3 11  1  0
  3 12  1  0
  4 13  1  0
  5 14  1  0
  7 15  1  0
  8 16  1  0
  8 17  1  0
M  END
