
     RDKit          3D

 23 22  0  0  0  0  0  0  0  0999 V2000
   -1.5028    0.8011   -2.7357 C   0  0  0  0  0  0  0  0  0  0  0  0
   -0.7890    0.5431   -1.7746 C   0  0  0  0  0  0  0  0  0  0  0  0
    0.0565    0.2117   -0.6251 C   0  0  0  0  0  0  0  0  0  0  0  0
    0.3851    1.4896    0.1237 C   0  0  0  0  0  0  0  0  0  0  0  0
    1.2490    1.2411    1.3179 C   0  0  0  0  0  0  0  0  0  0  0  0
    2.5778    0.6004    0.9136 C   0  0  0  0  0  0  0  0  0  0  0  0
   -0.7731   -0.6557    0.3074 C   0  0  0  0  0  0  0  0  0  0  0  0
   -1.1889   -1.8290   -0.3257 O   0  0  0  0  0  0  0  0  0  0  0  0
   -1.9383   -2.5381    0.6271 C   0  0  0  0  0  0  0  0  0  0  0  0
   -2.1237    1.0398   -3.5575 H   0  0  0  0  0  0  0  0  0  0  0  0
    0.9552   -0.3088   -0.9749 H   0  0  0  0  0  0  0  0  0  0  0  0
    0.9543    2.1567   -0.5711 H   0  0  0  0  0  0  0  0  0  0  0  0
   -0.5222    2.0154    0.4530 H   0  0  0  0  0  0  0  0  0  0  0  0
    0.7640    0.6716    2.1157 H   0  0  0  0  0  0  0  0  0  0  0  0
    1.5191    2.2447    1.7361 H   0  0  0  0  0  0  0  0  0  0  0  0
    2.9394    1.0043   -0.0370 H   0  0  0  0  0  0  0  0  0  0  0  0
    3.2969    0.8605    1.7173 H   0  0  0  0  0  0  0  0  0  0  0  0
    2.3923   -0.4906    0.8962 H   0  0  0  0  0  0  0  0  0  0  0  0
   -1.6965   -0.0714    0.5261 H   0  0  0  0  0  0  0  0  0  0  0  0
   -0.2273   -0.8793    1.2365 H   0  0  0  0  0  0  0  0  0  0  0  0
   -2.3147   -3.4862    0.2238 H   0  0  0  0  0  0  0  0  0  0  0  0
   -2.7616   -1.9012    1.0374 H   0  0  0  0  0  0  0  0  0  0  0  0
   -1.2515   -2.7199    1.4796 H   0  0  0  0  0  0  0  0  0  0  0  0
  1  2  3  0
  2  3  1  0
  3  4  1  0
  4  5  1  0
  5  6  1  0
  3  7  1  0
  7  8  1  0
  8  9  1  0
  1 10  1  0
  3 11  1  0
  4 12  1  0
  4 13  1  0
  5 14  1  0
  5 15  1  0
  6 16  1  0
  6 17  1  0
  6 18  1  0
  7 19  1  0
  7 20  1  0
  9 21  1  0
  9 22  1  0
  9 23  1  0
M  END
