
     RDKit          3D

 19 20  0  0  0  0  0  0  0  0999 V2000
    3.1716   -1.6381    0.0337 C   0  0  0  0  0  0  0  0  0  0  0  0
    2.2699   -0.9130   -0.1962 C   0  0  0  0  0  0  0  0  0  0  0  0
    1.1634    0.0027   -0.4978 C   0  0  0  0  0  0  0  0  0  0  0  0
    0.0706   -0.5883   -1.1233 O   0  0  0  0  0  0  0  0  0  0  0  0
   -0.6941    0.3800   -0.4756 C   0  0  0  0  0  0  0  0  0  0  0  0
   -0.9141    1.6996   -1.1587 C   0  0  0  0  0  0  0  0  0  0  0  0
   -1.0514    0.0886    0.8964 C   0  0  0  0  0  0  0  0  0  0  0  0
   -1.3980   -1.3660    1.2102 C   0  0  0  0  0  0  0  0  0  0  0  0
    0.3566    0.4650    0.6556 C   0  0  0  0  0  0  0  0  0  0  0  0
    4.0061   -2.2849    0.2428 H   0  0  0  0  0  0  0  0  0  0  0  0
    1.5129    0.8624   -1.1418 H   0  0  0  0  0  0  0  0  0  0  0  0
   -1.8443    2.2061   -0.8713 H   0  0  0  0  0  0  0  0  0  0  0  0
   -0.9881    1.4921   -2.2485 H   0  0  0  0  0  0  0  0  0  0  0  0
   -0.0227    2.3814   -1.0631 H   0  0  0  0  0  0  0  0  0  0  0  0
   -1.7450    0.7915    1.3980 H   0  0  0  0  0  0  0  0  0  0  0  0
   -0.7343   -2.0631    0.6767 H   0  0  0  0  0  0  0  0  0  0  0  0
   -2.4742   -1.5104    0.9960 H   0  0  0  0  0  0  0  0  0  0  0  0
   -1.3187   -1.4768    2.3306 H   0  0  0  0  0  0  0  0  0  0  0  0
    0.6338    1.4712    1.0301 H   0  0  0  0  0  0  0  0  0  0  0  0
  1  2  3  0
  2  3  1  0
  3  4  1  0
  4  5  1  0
  5  6  1  0
  5  7  1  0
  7  8  1  0
  7  9  1  0
  9  3  1  0
  9  5  1  0
  1 10  1  0
  3 11  1  0
  6 12  1  0
  6 13  1  0
  6 14  1  0
  7 15  1  0
  8 16  1  0
  8 17  1  0
  8 18  1  0
  9 19  1  0
M  END
