
     RDKit          3D

 21 20  0  0  0  0  0  0  0  0999 V2000
    2.0212    1.8404    1.6900 C   0  0  0  0  0  0  0  0  0  0  0  0
    1.6038    1.2342    0.7223 C   0  0  0  0  0  0  0  0  0  0  0  0
    1.1179    0.4888   -0.4581 C   0  0  0  0  0  0  0  0  0  0  0  0
    2.1593   -0.4741   -0.7897 C   0  0  0  0  0  0  0  0  0  0  0  0
    3.0422   -1.2992   -1.0800 C   0  0  0  0  0  0  0  0  0  0  0  0
   -0.1412   -0.2365   -0.0461 C   0  0  0  0  0  0  0  0  0  0  0  0
   -0.6322   -1.0028   -1.2695 C   0  0  0  0  0  0  0  0  0  0  0  0
   -1.1969    0.6858    0.4771 C   0  0  0  0  0  0  0  0  0  0  0  0
   -2.4192   -0.0883    0.8803 C   0  0  0  0  0  0  0  0  0  0  0  0
    2.3779    2.3858    2.5361 H   0  0  0  0  0  0  0  0  0  0  0  0
    0.9213    1.1906   -1.2916 H   0  0  0  0  0  0  0  0  0  0  0  0
    3.7736   -2.0025   -1.3129 H   0  0  0  0  0  0  0  0  0  0  0  0
    0.1425   -1.0066    0.6989 H   0  0  0  0  0  0  0  0  0  0  0  0
   -1.7095   -1.1943   -1.2431 H   0  0  0  0  0  0  0  0  0  0  0  0
   -0.4381   -0.4309   -2.2008 H   0  0  0  0  0  0  0  0  0  0  0  0
   -0.1134   -1.9804   -1.3492 H   0  0  0  0  0  0  0  0  0  0  0  0
   -1.5011    1.3665   -0.3711 H   0  0  0  0  0  0  0  0  0  0  0  0
   -0.8393    1.3617    1.2672 H   0  0  0  0  0  0  0  0  0  0  0  0
   -3.0193    0.5564    1.5555 H   0  0  0  0  0  0  0  0  0  0  0  0
   -3.0417   -0.4403    0.0556 H   0  0  0  0  0  0  0  0  0  0  0  0
   -2.1078   -0.9543    1.5292 H   0  0  0  0  0  0  0  0  0  0  0  0
  1  2  3  0
  2  3  1  0
  3  4  1  0
  4  5  3  0
  3  6  1  0
  6  7  1  0
  6  8  1  0
  8  9  1  0
  1 10  1  0
  3 11  1  0
  5 12  1  0
  6 13  1  0
  7 14  1  0
  7 15  1  0
  7 16  1  0
  8 17  1  0
  8 18  1  0
  9 19  1  0
  9 20  1  0
  9 21  1  0
M  END
