
     RDKit          3D

 19 19  0  0  0  0  0  0  0  0999 V2000
    3.1425   -0.3214   -0.1537 C   0  0  0  0  0  0  0  0  0  0  0  0
    1.9544   -0.4527   -0.1909 C   0  0  0  0  0  0  0  0  0  0  0  0
    0.5253   -0.6124   -0.2145 C   0  0  0  0  0  0  0  0  0  0  0  0
   -0.0095   -1.6324    0.5476 O   0  0  0  0  0  0  0  0  0  0  0  0
   -0.1268   -0.5990   -1.5837 C   0  0  0  0  0  0  0  0  0  0  0  0
   -1.2698    0.1803   -0.9174 C   0  0  0  0  0  0  0  0  0  0  0  0
   -1.8288    1.1613   -1.7151 O   0  0  0  0  0  0  0  0  0  0  0  0
   -0.2102    0.7107    0.0440 C   0  0  0  0  0  0  0  0  0  0  0  0
   -0.6255    0.7906    1.4737 C   0  0  0  0  0  0  0  0  0  0  0  0
    4.2098   -0.1845   -0.1214 H   0  0  0  0  0  0  0  0  0  0  0  0
    0.5911   -1.8086    1.3157 H   0  0  0  0  0  0  0  0  0  0  0  0
    0.3753    0.0193   -2.3361 H   0  0  0  0  0  0  0  0  0  0  0  0
   -0.4918   -1.5855   -1.9391 H   0  0  0  0  0  0  0  0  0  0  0  0
   -1.9561   -0.4806   -0.3782 H   0  0  0  0  0  0  0  0  0  0  0  0
   -2.4362    0.7140   -2.3564 H   0  0  0  0  0  0  0  0  0  0  0  0
    0.2941    1.5879   -0.3676 H   0  0  0  0  0  0  0  0  0  0  0  0
   -1.7132    0.9578    1.6109 H   0  0  0  0  0  0  0  0  0  0  0  0
   -0.0716    1.6511    1.9434 H   0  0  0  0  0  0  0  0  0  0  0  0
   -0.3530   -0.0959    2.0439 H   0  0  0  0  0  0  0  0  0  0  0  0
  1  2  3  0
  2  3  1  0
  3  4  1  0
  3  5  1  0
  5  6  1  0
  6  7  1  0
  6  8  1  0
  8  9  1  0
  8  3  1  0
  1 10  1  0
  4 11  1  0
  5 12  1  0
  5 13  1  0
  6 14  1  0
  7 15  1  0
  8 16  1  0
  9 17  1  0
  9 18  1  0
  9 19  1  0
M  END
