
     RDKit          3D

 19 19  0  0  0  0  0  0  0  0999 V2000
    2.8380   -0.3201    0.9118 C   0  0  0  0  0  0  0  0  0  0  0  0
    1.8029    0.1490    0.5723 C   0  0  0  0  0  0  0  0  0  0  0  0
    0.5364    0.6975    0.1699 C   0  0  0  0  0  0  0  0  0  0  0  0
    0.3168    0.6691   -1.3276 C   0  0  0  0  0  0  0  0  0  0  0  0
   -0.0137   -0.7657   -1.5318 C   0  0  0  0  0  0  0  0  0  0  0  0
   -0.5703   -1.2384   -0.4209 C   0  0  0  0  0  0  0  0  0  0  0  0
   -0.6510   -0.1496    0.6067 C   0  0  0  0  0  0  0  0  0  0  0  0
   -1.9375    0.6006    0.5698 C   0  0  0  0  0  0  0  0  0  0  0  0
   -0.3909   -0.7340    1.8434 O   0  0  0  0  0  0  0  0  0  0  0  0
    3.7868   -0.7578    1.2055 H   0  0  0  0  0  0  0  0  0  0  0  0
    0.4011    1.7257    0.5648 H   0  0  0  0  0  0  0  0  0  0  0  0
   -0.4686    1.3509   -1.6567 H   0  0  0  0  0  0  0  0  0  0  0  0
    1.2915    0.8394   -1.8310 H   0  0  0  0  0  0  0  0  0  0  0  0
    0.1511   -1.3662   -2.4154 H   0  0  0  0  0  0  0  0  0  0  0  0
   -0.9212   -2.2652   -0.2660 H   0  0  0  0  0  0  0  0  0  0  0  0
   -2.7630   -0.0992    0.3484 H   0  0  0  0  0  0  0  0  0  0  0  0
   -2.1097    1.0108    1.6035 H   0  0  0  0  0  0  0  0  0  0  0  0
   -1.8819    1.3896   -0.1829 H   0  0  0  0  0  0  0  0  0  0  0  0
    0.5832   -0.7361    2.0498 H   0  0  0  0  0  0  0  0  0  0  0  0
  1  2  3  0
  2  3  1  0
  3  4  1  0
  4  5  1  0
  5  6  2  0
  6  7  1  0
  7  8  1  0
  7  9  1  0
  7  3  1  0
  1 10  1  0
  3 11  1  0
  4 12  1  0
  4 13  1  0
  5 14  1  0
  6 15  1  0
  8 16  1  0
  8 17  1  0
  8 18  1  0
  9 19  1  0
M  END
