
     RDKit          3D

 11 10  0  0  0  0  0  0  0  0999 V2000
    1.0624   -2.0837    0.9368 C   0  0  0  0  0  0  0  0  0  0  0  0
    0.5924   -0.9767    0.8597 C   0  0  0  0  0  0  0  0  0  0  0  0
    0.0431    0.3811    0.7604 C   0  0  0  0  0  0  0  0  0  0  0  0
   -1.2340    0.2694    0.0369 C   0  0  0  0  0  0  0  0  0  0  0  0
   -2.2850    0.1959   -0.5558 C   0  0  0  0  0  0  0  0  0  0  0  0
    0.9754    1.2546    0.0246 C   0  0  0  0  0  0  0  0  0  0  0  0
    1.9521    0.7570   -0.4988 O   0  0  0  0  0  0  0  0  0  0  0  0
    1.4652   -3.0602    1.0181 H   0  0  0  0  0  0  0  0  0  0  0  0
   -0.1017    0.7963    1.7776 H   0  0  0  0  0  0  0  0  0  0  0  0
   -3.2209    0.1492   -1.0845 H   0  0  0  0  0  0  0  0  0  0  0  0
    0.7510    2.3170   -0.0209 H   0  0  0  0  0  0  0  0  0  0  0  0
  1  2  3  0
  2  3  1  0
  3  4  1  0
  4  5  3  0
  3  6  1  0
  6  7  2  0
  1  8  1  0
  3  9  1  0
  5 10  1  0
  6 11  1  0
M  END
