
     RDKit          3D

 21 20  0  0  0  0  0  0  0  0999 V2000
   -2.7761    1.6257    0.0773 C   0  0  0  0  0  0  0  0  0  0  0  0
   -2.3516    0.4975   -0.0417 C   0  0  0  0  0  0  0  0  0  0  0  0
   -1.8260   -0.8697   -0.1627 C   0  0  0  0  0  0  0  0  0  0  0  0
   -2.1122   -1.4384   -1.3729 O   0  0  0  0  0  0  0  0  0  0  0  0
   -0.3305   -0.8941    0.1418 C   0  0  0  0  0  0  0  0  0  0  0  0
    0.4395   -0.0198   -0.8015 C   0  0  0  0  0  0  0  0  0  0  0  0
    1.9050   -0.0892   -0.4551 C   0  0  0  0  0  0  0  0  0  0  0  0
    2.1726    0.3808    0.9539 C   0  0  0  0  0  0  0  0  0  0  0  0
    1.7610    1.7013    1.1263 O   0  0  0  0  0  0  0  0  0  0  0  0
   -3.1644    2.6083    0.1752 H   0  0  0  0  0  0  0  0  0  0  0  0
   -2.3158   -1.4752    0.6289 H   0  0  0  0  0  0  0  0  0  0  0  0
   -2.9609   -1.9462   -1.3207 H   0  0  0  0  0  0  0  0  0  0  0  0
   -0.0245   -1.9568    0.0611 H   0  0  0  0  0  0  0  0  0  0  0  0
   -0.2489   -0.5343    1.1877 H   0  0  0  0  0  0  0  0  0  0  0  0
    0.1305    1.0486   -0.6009 H   0  0  0  0  0  0  0  0  0  0  0  0
    0.2518   -0.2124   -1.8514 H   0  0  0  0  0  0  0  0  0  0  0  0
    2.5330    0.4899   -1.1664 H   0  0  0  0  0  0  0  0  0  0  0  0
    2.2778   -1.1495   -0.5020 H   0  0  0  0  0  0  0  0  0  0  0  0
    3.2816    0.3503    1.1648 H   0  0  0  0  0  0  0  0  0  0  0  0
    1.6946   -0.2683    1.6876 H   0  0  0  0  0  0  0  0  0  0  0  0
    1.6635    2.1513    0.2569 H   0  0  0  0  0  0  0  0  0  0  0  0
  1  2  3  0
  2  3  1  0
  3  4  1  0
  3  5  1  0
  5  6  1  0
  6  7  1  0
  7  8  1  0
  8  9  1  0
  1 10  1  0
  3 11  1  0
  4 12  1  0
  5 13  1  0
  5 14  1  0
  6 15  1  0
  6 16  1  0
  7 17  1  0
  7 18  1  0
  8 19  1  0
  8 20  1  0
  9 21  1  0
M  END
