
     RDKit          3D

 16 16  0  0  0  0  0  0  0  0999 V2000
    2.2571   -1.1973   -1.3549 C   0  0  0  0  0  0  0  0  0  0  0  0
    1.6597   -0.3613   -0.7214 C   0  0  0  0  0  0  0  0  0  0  0  0
    0.9233    0.6480    0.0755 C   0  0  0  0  0  0  0  0  0  0  0  0
    1.2443    0.4577    1.3949 O   0  0  0  0  0  0  0  0  0  0  0  0
   -0.5494    0.5027   -0.2004 C   0  0  0  0  0  0  0  0  0  0  0  0
   -1.0716   -0.8503    0.1607 C   0  0  0  0  0  0  0  0  0  0  0  0
   -1.4148   -0.3556    1.4133 O   0  0  0  0  0  0  0  0  0  0  0  0
   -1.4614    0.9293    0.9088 C   0  0  0  0  0  0  0  0  0  0  0  0
    2.7761   -1.9398   -1.9169 H   0  0  0  0  0  0  0  0  0  0  0  0
    1.2344    1.6378   -0.2772 H   0  0  0  0  0  0  0  0  0  0  0  0
    0.9131   -0.4548    1.6629 H   0  0  0  0  0  0  0  0  0  0  0  0
   -0.8124    0.8579   -1.2024 H   0  0  0  0  0  0  0  0  0  0  0  0
   -0.3076   -1.6567    0.1558 H   0  0  0  0  0  0  0  0  0  0  0  0
   -1.9948   -1.1355   -0.3825 H   0  0  0  0  0  0  0  0  0  0  0  0
   -2.4400    1.2809    0.5580 H   0  0  0  0  0  0  0  0  0  0  0  0
   -0.9561    1.6369    1.5920 H   0  0  0  0  0  0  0  0  0  0  0  0
  1  2  3  0
  2  3  1  0
  3  4  1  0
  3  5  1  0
  5  6  1  0
  6  7  1  0
  7  8  1  0
  8  5  1  0
  1  9  1  0
  3 10  1  0
  4 11  1  0
  5 12  1  0
  6 13  1  0
  6 14  1  0
  8 15  1  0
  8 16  1  0
M  END
