
     RDKit          3D

 19 19  0  0  0  0  0  0  0  0999 V2000
    3.4188   -1.0059   -0.4939 C   0  0  0  0  0  0  0  0  0  0  0  0
    2.3802   -1.0420   -0.8046 C   0  0  0  0  0  0  0  0  0  0  0  0
    0.8905   -1.1186   -1.2626 C   0  0  0  0  0  0  0  0  0  0  0  0
    0.1595   -0.2785   -0.5155 C   0  0  0  0  0  0  0  0  0  0  0  0
    0.4751    0.6415    0.4442 C   0  0  0  0  0  0  0  0  0  0  0  0
   -0.7421    1.3296    0.9906 C   0  0  0  0  0  0  0  0  0  0  0  0
   -0.7504    1.7623    2.2699 O   0  0  0  0  0  0  0  0  0  0  0  0
   -1.8018    0.2260    0.7844 C   0  0  0  0  0  0  0  0  0  0  0  0
   -1.4014   -0.3676   -0.5065 C   0  0  0  0  0  0  0  0  0  0  0  0
    4.6593   -0.9502   -0.1407 H   0  0  0  0  0  0  0  0  0  0  0  0
    0.9217   -1.2648   -2.3350 H   0  0  0  0  0  0  0  0  0  0  0  0
    0.7111   -2.2394   -0.8729 H   0  0  0  0  0  0  0  0  0  0  0  0
    1.5097    0.8115    0.6954 H   0  0  0  0  0  0  0  0  0  0  0  0
   -1.0564    2.1235    0.2333 H   0  0  0  0  0  0  0  0  0  0  0  0
   -1.3643    2.6107    2.3004 H   0  0  0  0  0  0  0  0  0  0  0  0
   -2.8276    0.6362    0.7145 H   0  0  0  0  0  0  0  0  0  0  0  0
   -1.7731   -0.4601    1.6875 H   0  0  0  0  0  0  0  0  0  0  0  0
   -1.7889    0.0709   -1.4168 H   0  0  0  0  0  0  0  0  0  0  0  0
   -1.6199   -1.4850   -0.5293 H   0  0  0  0  0  0  0  0  0  0  0  0
  1  2  3  0
  2  3  1  0
  3  4  1  0
  4  5  2  0
  5  6  1  0
  6  7  1  0
  6  8  1  0
  8  9  1  0
  9  4  1  0
  1 10  1  0
  3 11  1  0
  3 12  1  0
  5 13  1  0
  6 14  1  0
  7 15  1  0
  8 16  1  0
  8 17  1  0
  9 18  1  0
  9 19  1  0
M  END
