
     RDKit          3D

 21 20  0  0  0  0  0  0  0  0999 V2000
    3.0453    0.6909   -0.6310 C   0  0  0  0  0  0  0  0  0  0  0  0
    2.2724   -0.0482   -0.0795 C   0  0  0  0  0  0  0  0  0  0  0  0
    1.3349   -0.9303    0.5831 C   0  0  0  0  0  0  0  0  0  0  0  0
   -0.0619   -0.8512    0.0156 C   0  0  0  0  0  0  0  0  0  0  0  0
   -0.1329   -1.2106   -1.4262 C   0  0  0  0  0  0  0  0  0  0  0  0
   -0.9254   -1.7845    0.8776 C   0  0  0  0  0  0  0  0  0  0  0  0
   -0.6150    0.4908    0.2119 C   0  0  0  0  0  0  0  0  0  0  0  0
   -1.0586    1.6184    0.3845 C   0  0  0  0  0  0  0  0  0  0  0  0
   -1.5798    2.9733    0.5747 C   0  0  0  0  0  0  0  0  0  0  0  0
    3.7263    1.3538   -1.1217 H   0  0  0  0  0  0  0  0  0  0  0  0
    1.2367   -0.6578    1.6745 H   0  0  0  0  0  0  0  0  0  0  0  0
    1.7136   -1.9539    0.5513 H   0  0  0  0  0  0  0  0  0  0  0  0
   -0.6700   -0.4270   -2.0125 H   0  0  0  0  0  0  0  0  0  0  0  0
    0.9095   -1.2685   -1.8373 H   0  0  0  0  0  0  0  0  0  0  0  0
   -0.6023   -2.1866   -1.6383 H   0  0  0  0  0  0  0  0  0  0  0  0
   -0.4494   -2.7505    1.0396 H   0  0  0  0  0  0  0  0  0  0  0  0
   -1.9099   -1.8282    0.3726 H   0  0  0  0  0  0  0  0  0  0  0  0
   -1.0884   -1.2290    1.8298 H   0  0  0  0  0  0  0  0  0  0  0  0
   -1.1140    3.4813    1.4367 H   0  0  0  0  0  0  0  0  0  0  0  0
   -1.3447    3.6260   -0.3143 H   0  0  0  0  0  0  0  0  0  0  0  0
   -2.6863    2.8918    0.7033 H   0  0  0  0  0  0  0  0  0  0  0  0
  1  2  3  0
  2  3  1  0
  3  4  1  0
  4  5  1  0
  4  6  1  0
  4  7  1  0
  7  8  3  0
  8  9  1  0
  1 10  1  0
  3 11  1  0
  3 12  1  0
  5 13  1  0
  5 14  1  0
  5 15  1  0
  6 16  1  0
  6 17  1  0
  6 18  1  0
  9 19  1  0
  9 20  1  0
  9 21  1  0
M  END
