
     RDKit          3D

 12 11  0  0  0  0  0  0  0  0999 V2000
    3.0804    0.2839   -0.8074 C   0  0  0  0  0  0  0  0  0  0  0  0
    1.8673   -0.0637   -0.5051 C   0  0  0  0  0  0  0  0  0  0  0  0
    0.6564   -0.4100   -0.2268 C   0  0  0  0  0  0  0  0  0  0  0  0
    0.1951   -1.6017   -0.5178 O   0  0  0  0  0  0  0  0  0  0  0  0
   -0.4224    0.4366    0.4617 C   0  0  0  0  0  0  0  0  0  0  0  0
   -0.5063    1.6282   -0.2193 O   0  0  0  0  0  0  0  0  0  0  0  0
   -1.5582   -0.3364    0.5308 C   0  0  0  0  0  0  0  0  0  0  0  0
   -2.6084   -1.0530    0.5756 C   0  0  0  0  0  0  0  0  0  0  0  0
    4.1181    0.6001   -1.0746 H   0  0  0  0  0  0  0  0  0  0  0  0
   -0.0204    0.6394    1.5283 H   0  0  0  0  0  0  0  0  0  0  0  0
   -1.2750    1.5570   -0.8829 H   0  0  0  0  0  0  0  0  0  0  0  0
   -3.5268   -1.6803    0.6254 H   0  0  0  0  0  0  0  0  0  0  0  0
  1  2  3  0
  2  3  1  0
  3  4  2  0
  3  5  1  0
  5  6  1  0
  5  7  1  0
  7  8  3  0
  1  9  1  0
  5 10  1  0
  6 11  1  0
  8 12  1  0
M  END
