
     RDKit          3D

 16 16  0  0  0  0  0  0  0  0999 V2000
    2.8480   -0.3041   -0.3348 C   0  0  0  0  0  0  0  0  0  0  0  0
    1.6584   -0.4642   -0.2202 C   0  0  0  0  0  0  0  0  0  0  0  0
    0.2204   -0.6730   -0.0609 C   0  0  0  0  0  0  0  0  0  0  0  0
   -0.1682   -1.9999    0.0995 O   0  0  0  0  0  0  0  0  0  0  0  0
   -0.5591    0.0487   -1.1277 C   0  0  0  0  0  0  0  0  0  0  0  0
   -1.5132    0.5796   -0.0540 C   0  0  0  0  0  0  0  0  0  0  0  0
   -0.4278    0.2387    0.9627 C   0  0  0  0  0  0  0  0  0  0  0  0
    0.3317    1.3566    1.2976 O   0  0  0  0  0  0  0  0  0  0  0  0
    3.9130   -0.1585   -0.4190 H   0  0  0  0  0  0  0  0  0  0  0  0
   -0.6068   -2.1030    1.0007 H   0  0  0  0  0  0  0  0  0  0  0  0
   -0.0302    0.8107   -1.6990 H   0  0  0  0  0  0  0  0  0  0  0  0
   -1.1258   -0.6644   -1.7741 H   0  0  0  0  0  0  0  0  0  0  0  0
   -1.6731    1.6494   -0.1773 H   0  0  0  0  0  0  0  0  0  0  0  0
   -2.3945   -0.0361    0.1141 H   0  0  0  0  0  0  0  0  0  0  0  0
   -0.7855   -0.2999    1.8573 H   0  0  0  0  0  0  0  0  0  0  0  0
    0.3127    2.0194    0.5352 H   0  0  0  0  0  0  0  0  0  0  0  0
  1  2  3  0
  2  3  1  0
  3  4  1  0
  3  5  1  0
  5  6  1  0
  6  7  1  0
  7  8  1  0
  7  3  1  0
  1  9  1  0
  4 10  1  0
  5 11  1  0
  5 12  1  0
  6 13  1  0
  6 14  1  0
  7 15  1  0
  8 16  1  0
M  END
