
     RDKit          3D

 17 17  0  0  0  0  0  0  0  0999 V2000
    3.4453    1.0980   -0.2759 C   0  0  0  0  0  0  0  0  0  0  0  0
    2.7113    0.3303   -0.0324 C   0  0  0  0  0  0  0  0  0  0  0  0
    1.7096   -0.7555    0.3025 C   0  0  0  0  0  0  0  0  0  0  0  0
    0.3556   -0.1616    0.3438 C   0  0  0  0  0  0  0  0  0  0  0  0
   -0.7700   -1.0376    0.6023 O   0  0  0  0  0  0  0  0  0  0  0  0
   -1.4698    0.1137    0.0119 C   0  0  0  0  0  0  0  0  0  0  0  0
   -2.8036   -0.1810   -0.5465 C   0  0  0  0  0  0  0  0  0  0  0  0
   -0.3407    0.0561   -0.9171 C   0  0  0  0  0  0  0  0  0  0  0  0
   -0.1000    0.1331   -2.1086 O   0  0  0  0  0  0  0  0  0  0  0  0
    4.2860    1.9703   -0.5754 H   0  0  0  0  0  0  0  0  0  0  0  0
    1.8239   -1.6087   -0.3455 H   0  0  0  0  0  0  0  0  0  0  0  0
    2.0061   -1.0786    1.3505 H   0  0  0  0  0  0  0  0  0  0  0  0
    0.1653    0.7007    1.0258 H   0  0  0  0  0  0  0  0  0  0  0  0
   -1.4349    0.8865    0.8071 H   0  0  0  0  0  0  0  0  0  0  0  0
   -2.7776   -0.1574   -1.6633 H   0  0  0  0  0  0  0  0  0  0  0  0
   -3.4589    0.7156   -0.3130 H   0  0  0  0  0  0  0  0  0  0  0  0
   -3.3476   -1.0239   -0.1471 H   0  0  0  0  0  0  0  0  0  0  0  0
  1  2  3  0
  2  3  1  0
  3  4  1  0
  4  5  1  0
  5  6  1  0
  6  7  1  0
  6  8  1  0
  8  9  2  0
  8  4  1  0
  1 10  1  0
  3 11  1  0
  3 12  1  0
  4 13  1  0
  6 14  1  0
  7 15  1  0
  7 16  1  0
  7 17  1  0
M  END
