
     RDKit          3D

 21 21  0  0  0  0  0  0  0  0999 V2000
    1.8035   -1.7376    1.9310 C   0  0  0  0  0  0  0  0  0  0  0  0
    1.0123   -2.0143    1.3122 C   0  0  0  0  0  0  0  0  0  0  0  0
   -0.1873   -2.4142    0.3542 C   0  0  0  0  0  0  0  0  0  0  0  0
   -0.9876   -1.3255    0.3606 O   0  0  0  0  0  0  0  0  0  0  0  0
   -0.1656   -0.1260    0.0710 C   0  0  0  0  0  0  0  0  0  0  0  0
   -0.8362    0.9727    0.7935 C   0  0  0  0  0  0  0  0  0  0  0  0
   -1.3174    1.5271   -0.4976 C   0  0  0  0  0  0  0  0  0  0  0  0
   -0.3757    0.5484   -1.2300 C   0  0  0  0  0  0  0  0  0  0  0  0
    0.8128    1.3944   -1.6938 C   0  0  0  0  0  0  0  0  0  0  0  0
    2.8002   -1.3709    2.6962 H   0  0  0  0  0  0  0  0  0  0  0  0
   -0.5598   -3.3139    0.7188 H   0  0  0  0  0  0  0  0  0  0  0  0
    0.3266   -2.5261   -0.6471 H   0  0  0  0  0  0  0  0  0  0  0  0
    0.8302   -0.4891    0.2065 H   0  0  0  0  0  0  0  0  0  0  0  0
   -1.7587    0.6887    1.4046 H   0  0  0  0  0  0  0  0  0  0  0  0
   -0.1556    1.5871    1.4552 H   0  0  0  0  0  0  0  0  0  0  0  0
   -1.1890    2.5745   -0.7318 H   0  0  0  0  0  0  0  0  0  0  0  0
   -2.4030    1.2593   -0.7175 H   0  0  0  0  0  0  0  0  0  0  0  0
   -0.8899   -0.0031   -2.0158 H   0  0  0  0  0  0  0  0  0  0  0  0
    1.3320    0.8273   -2.4490 H   0  0  0  0  0  0  0  0  0  0  0  0
    0.4495    2.3364   -2.1128 H   0  0  0  0  0  0  0  0  0  0  0  0
    1.4587    1.6048   -0.8237 H   0  0  0  0  0  0  0  0  0  0  0  0
  1  2  3  0
  2  3  1  0
  3  4  1  0
  4  5  1  0
  5  6  1  0
  6  7  1  0
  7  8  1  0
  8  9  1  0
  8  5  1  0
  1 10  1  0
  3 11  1  0
  3 12  1  0
  5 13  1  0
  6 14  1  0
  6 15  1  0
  7 16  1  0
  7 17  1  0
  8 18  1  0
  9 19  1  0
  9 20  1  0
  9 21  1  0
M  END
