
     RDKit          3D

 17 17  0  0  0  0  0  0  0  0999 V2000
    2.6509    0.9455   -1.0544 C   0  0  0  0  0  0  0  0  0  0  0  0
    1.6625    0.1905   -0.9937 C   0  0  0  0  0  0  0  0  0  0  0  0
    0.5161   -0.7070   -0.9102 C   0  0  0  0  0  0  0  0  0  0  0  0
   -0.2211   -0.6497   -2.1000 O   0  0  0  0  0  0  0  0  0  0  0  0
   -0.4141   -0.2184    0.1912 C   0  0  0  0  0  0  0  0  0  0  0  0
   -0.9821    1.1126    0.0539 C   0  0  0  0  0  0  0  0  0  0  0  0
   -1.4386    2.1984   -0.0447 C   0  0  0  0  0  0  0  0  0  0  0  0
    0.0412   -0.5076    1.6258 C   0  0  0  0  0  0  0  0  0  0  0  0
   -1.0696   -1.2489    0.9934 C   0  0  0  0  0  0  0  0  0  0  0  0
    3.4582    1.5661   -1.0864 H   0  0  0  0  0  0  0  0  0  0  0  0
    0.8584   -1.7359   -0.6698 H   0  0  0  0  0  0  0  0  0  0  0  0
   -0.9381   -0.0013   -2.0172 H   0  0  0  0  0  0  0  0  0  0  0  0
   -1.8723    3.1822   -0.1382 H   0  0  0  0  0  0  0  0  0  0  0  0
   -0.2851    0.1839    2.4377 H   0  0  0  0  0  0  0  0  0  0  0  0
    1.0467   -0.9187    1.6992 H   0  0  0  0  0  0  0  0  0  0  0  0
   -2.1177   -1.0733    1.3091 H   0  0  0  0  0  0  0  0  0  0  0  0
   -0.8953   -2.3184    0.7043 H   0  0  0  0  0  0  0  0  0  0  0  0
  1  2  3  0
  2  3  1  0
  3  4  1  0
  3  5  1  0
  5  6  1  0
  6  7  3  0
  5  8  1  0
  8  9  1  0
  9  5  1  0
  1 10  1  0
  3 11  1  0
  4 12  1  0
  7 13  1  0
  8 14  1  0
  8 15  1  0
  9 16  1  0
  9 17  1  0
M  END
