
     RDKit          3D

 19 18  0  0  0  0  0  0  0  0999 V2000
    4.7585    1.6993    0.6560 C   0  0  0  0  0  0  0  0  0  0  0  0
    3.6908    1.1226    0.6207 C   0  0  0  0  0  0  0  0  0  0  0  0
    2.4487    0.4365    0.5587 C   0  0  0  0  0  0  0  0  0  0  0  0
    1.3834   -0.1374    0.5215 C   0  0  0  0  0  0  0  0  0  0  0  0
    0.0863   -0.8148    0.4937 C   0  0  0  0  0  0  0  0  0  0  0  0
    0.1284   -1.8335   -0.6114 C   0  0  0  0  0  0  0  0  0  0  0  0
   -1.0134    0.2036    0.2712 C   0  0  0  0  0  0  0  0  0  0  0  0
   -2.2634   -0.3741    0.2349 O   0  0  0  0  0  0  0  0  0  0  0  0
   -3.1868    0.6634    0.0254 C   0  0  0  0  0  0  0  0  0  0  0  0
    5.7012    2.1913    0.6876 H   0  0  0  0  0  0  0  0  0  0  0  0
   -0.0797   -1.3844    1.4426 H   0  0  0  0  0  0  0  0  0  0  0  0
    0.6742   -2.7393   -0.2685 H   0  0  0  0  0  0  0  0  0  0  0  0
    0.5487   -1.4450   -1.5563 H   0  0  0  0  0  0  0  0  0  0  0  0
   -0.9264   -2.1496   -0.7969 H   0  0  0  0  0  0  0  0  0  0  0  0
   -0.8030    0.7096   -0.6900 H   0  0  0  0  0  0  0  0  0  0  0  0
   -0.9402    0.9676    1.0705 H   0  0  0  0  0  0  0  0  0  0  0  0
   -4.2255    0.2913   -0.0183 H   0  0  0  0  0  0  0  0  0  0  0  0
   -2.9594    1.1988   -0.9133 H   0  0  0  0  0  0  0  0  0  0  0  0
   -3.0224    1.3938    0.8528 H   0  0  0  0  0  0  0  0  0  0  0  0
  1  2  3  0
  2  3  1  0
  3  4  3  0
  4  5  1  0
  5  6  1  0
  5  7  1  0
  7  8  1  0
  8  9  1  0
  1 10  1  0
  5 11  1  0
  6 12  1  0
  6 13  1  0
  6 14  1  0
  7 15  1  0
  7 16  1  0
  9 17  1  0
  9 18  1  0
  9 19  1  0
M  END
