
     RDKit          3D

 19 19  0  0  0  0  0  0  0  0999 V2000
    3.1338   -1.2775    0.2925 C   0  0  0  0  0  0  0  0  0  0  0  0
    1.8888   -1.2621   -0.1088 C   0  0  0  0  0  0  0  0  0  0  0  0
    0.9183   -1.2606   -0.4070 C   0  0  0  0  0  0  0  0  0  0  0  0
    0.0278    0.0266    0.1099 C   0  0  0  0  0  0  0  0  0  0  0  0
    0.7891    0.9958   -0.3383 C   0  0  0  0  0  0  0  0  0  0  0  0
    1.8551    2.3581   -0.9665 C   0  0  0  0  0  0  0  0  0  0  0  0
   -1.2807   -0.2602   -0.8953 C   0  0  0  0  0  0  0  0  0  0  0  0
   -1.3784    0.4269    0.3223 C   0  0  0  0  0  0  0  0  0  0  0  0
   -2.2301    0.2743    1.5307 C   0  0  0  0  0  0  0  0  0  0  0  0
    4.5184   -1.2725    0.7256 H   0  0  0  0  0  0  0  0  0  0  0  0
    0.8087   -0.9344   -1.6285 H   0  0  0  0  0  0  0  0  0  0  0  0
    0.1555   -2.1105   -0.3683 H   0  0  0  0  0  0  0  0  0  0  0  0
    2.3057    2.9343   -1.2198 H   0  0  0  0  0  0  0  0  0  0  0  0
   -1.0379    0.1849   -1.9075 H   0  0  0  0  0  0  0  0  0  0  0  0
   -1.5628   -1.3088   -0.9219 H   0  0  0  0  0  0  0  0  0  0  0  0
   -1.5067    1.6392    0.0555 H   0  0  0  0  0  0  0  0  0  0  0  0
   -3.3404    0.0922    1.3158 H   0  0  0  0  0  0  0  0  0  0  0  0
   -1.8462   -0.4698    2.2385 H   0  0  0  0  0  0  0  0  0  0  0  0
   -2.2177    1.2242    2.1710 H   0  0  0  0  0  0  0  0  0  0  0  0
  1  2  3  0
  2  3  1  0
  3  4  1  0
  4  5  1  0
  5  6  3  0
  4  7  1  0
  7  8  1  0
  8  9  1  0
  8  4  1  0
  1 10  1  0
  3 11  1  0
  3 12  1  0
  6 13  1  0
  7 14  1  0
  7 15  1  0
  8 16  1  0
  9 17  1  0
  9 18  1  0
  9 19  1  0
M  END
