
     RDKit          3D

 19 18  0  0  0  0  0  0  0  0999 V2000
   -2.8794    2.2221    2.4350 C   0  0  0  0  0  0  0  0  0  0  0  0
   -2.1574    1.1858    2.5096 C   0  0  0  0  0  0  0  0  0  0  0  0
   -1.3334    0.0146    2.6112 C   0  0  0  0  0  0  0  0  0  0  0  0
   -0.5372   -0.0526    1.3622 C   0  0  0  0  0  0  0  0  0  0  0  0
    0.1447   -0.1177    0.2743 C   0  0  0  0  0  0  0  0  0  0  0  0
    0.8766   -0.1679   -0.9169 C   0  0  0  0  0  0  0  0  0  0  0  0
    1.9753   -1.2059   -0.8655 C   0  0  0  0  0  0  0  0  0  0  0  0
    0.0066   -0.4016   -2.1575 C   0  0  0  0  0  0  0  0  0  0  0  0
    1.4447    1.1194   -1.1277 O   0  0  0  0  0  0  0  0  0  0  0  0
   -3.4725    3.0693    2.3559 H   0  0  0  0  0  0  0  0  0  0  0  0
   -1.9721   -0.9289    2.6632 H   0  0  0  0  0  0  0  0  0  0  0  0
   -0.6531   -0.0693    3.4577 H   0  0  0  0  0  0  0  0  0  0  0  0
    2.9487   -0.7697   -0.4970 H   0  0  0  0  0  0  0  0  0  0  0  0
    1.6679   -2.0314   -0.2117 H   0  0  0  0  0  0  0  0  0  0  0  0
    2.0775   -1.6530   -1.8862 H   0  0  0  0  0  0  0  0  0  0  0  0
   -0.4959    0.5640   -2.3230 H   0  0  0  0  0  0  0  0  0  0  0  0
   -0.7712   -1.1274   -1.8950 H   0  0  0  0  0  0  0  0  0  0  0  0
    0.7102   -0.6889   -2.9433 H   0  0  0  0  0  0  0  0  0  0  0  0
    2.4200    1.0389   -1.1499 H   0  0  0  0  0  0  0  0  0  0  0  0
  1  2  3  0
  2  3  1  0
  3  4  1  0
  4  5  3  0
  5  6  1  0
  6  7  1  0
  6  8  1  0
  6  9  1  0
  1 10  1  0
  3 11  1  0
  3 12  1  0
  7 13  1  0
  7 14  1  0
  7 15  1  0
  8 16  1  0
  8 17  1  0
  8 18  1  0
  9 19  1  0
M  END
