
     RDKit          3D

 19 18  0  0  0  0  0  0  0  0999 V2000
   -2.9928    0.6259    0.6757 C   0  0  0  0  0  0  0  0  0  0  0  0
   -2.1088    0.7269    0.1104 C   0  0  0  0  0  0  0  0  0  0  0  0
   -0.8178    0.8688   -0.7050 C   0  0  0  0  0  0  0  0  0  0  0  0
   -0.2720    2.1155   -0.4417 O   0  0  0  0  0  0  0  0  0  0  0  0
    0.0677   -0.2647   -0.3382 C   0  0  0  0  0  0  0  0  0  0  0  0
    1.3720   -0.1966   -1.1037 C   0  0  0  0  0  0  0  0  0  0  0  0
    0.3356   -0.2937    1.1360 C   0  0  0  0  0  0  0  0  0  0  0  0
    1.1821   -1.3772    1.6622 C   0  0  0  0  0  0  0  0  0  0  0  0
   -0.1279    0.5422    1.8610 O   0  0  0  0  0  0  0  0  0  0  0  0
   -3.9599    0.4955    1.2919 H   0  0  0  0  0  0  0  0  0  0  0  0
   -1.1124    0.7756   -1.7705 H   0  0  0  0  0  0  0  0  0  0  0  0
   -0.4176    2.7417   -1.1928 H   0  0  0  0  0  0  0  0  0  0  0  0
   -0.4876   -1.2086   -0.6145 H   0  0  0  0  0  0  0  0  0  0  0  0
    1.3426   -0.8833   -1.9742 H   0  0  0  0  0  0  0  0  0  0  0  0
    1.5836    0.8345   -1.4702 H   0  0  0  0  0  0  0  0  0  0  0  0
    2.2269   -0.5278   -0.4941 H   0  0  0  0  0  0  0  0  0  0  0  0
    2.2393   -1.0327    1.6621 H   0  0  0  0  0  0  0  0  0  0  0  0
    0.8236   -1.6212    2.7112 H   0  0  0  0  0  0  0  0  0  0  0  0
    1.1234   -2.3207    1.0628 H   0  0  0  0  0  0  0  0  0  0  0  0
  1  2  3  0
  2  3  1  0
  3  4  1  0
  3  5  1  0
  5  6  1  0
  5  7  1  0
  7  8  1  0
  7  9  2  0
  1 10  1  0
  3 11  1  0
  4 12  1  0
  5 13  1  0
  6 14  1  0
  6 15  1  0
  6 16  1  0
  8 17  1  0
  8 18  1  0
  8 19  1  0
M  END
