
     RDKit          3D

 17 16  0  0  0  0  0  0  0  0999 V2000
    3.7176    2.4606    0.8910 C   0  0  0  0  0  0  0  0  0  0  0  0
    3.0784    1.5054    0.5649 C   0  0  0  0  0  0  0  0  0  0  0  0
    2.3300    0.3448    0.1641 C   0  0  0  0  0  0  0  0  0  0  0  0
    2.9235   -0.6652   -0.2871 O   0  0  0  0  0  0  0  0  0  0  0  0
    0.8529    0.3707    0.2961 C   0  0  0  0  0  0  0  0  0  0  0  0
    0.3108   -0.9616   -0.1901 C   0  0  0  0  0  0  0  0  0  0  0  0
   -1.1481   -0.9028   -0.0466 C   0  0  0  0  0  0  0  0  0  0  0  0
   -2.3352   -0.8757    0.0688 C   0  0  0  0  0  0  0  0  0  0  0  0
   -3.8133   -0.8627    0.1992 C   0  0  0  0  0  0  0  0  0  0  0  0
    4.3007    3.3087    1.1972 H   0  0  0  0  0  0  0  0  0  0  0  0
    0.4075    1.2186   -0.3021 H   0  0  0  0  0  0  0  0  0  0  0  0
    0.5349    0.5680    1.3410 H   0  0  0  0  0  0  0  0  0  0  0  0
    0.7470   -1.7357    0.4631 H   0  0  0  0  0  0  0  0  0  0  0  0
    0.6363   -1.1656   -1.2181 H   0  0  0  0  0  0  0  0  0  0  0  0
   -4.1113    0.0230    0.7984 H   0  0  0  0  0  0  0  0  0  0  0  0
   -4.1556   -1.8006    0.6827 H   0  0  0  0  0  0  0  0  0  0  0  0
   -4.2762   -0.8301   -0.8292 H   0  0  0  0  0  0  0  0  0  0  0  0
  1  2  3  0
  2  3  1  0
  3  4  2  0
  3  5  1  0
  5  6  1  0
  6  7  1  0
  7  8  3  0
  8  9  1  0
  1 10  1  0
  5 11  1  0
  5 12  1  0
  6 13  1  0
  6 14  1  0
  9 15  1  0
  9 16  1  0
  9 17  1  0
M  END
