
     RDKit          3D

 16 16  0  0  0  0  0  0  0  0999 V2000
    3.1560    0.3985    0.9266 C   0  0  0  0  0  0  0  0  0  0  0  0
    2.0419    0.3054    0.4805 C   0  0  0  0  0  0  0  0  0  0  0  0
    0.7022    0.2118   -0.0369 C   0  0  0  0  0  0  0  0  0  0  0  0
   -0.0214   -1.0537    0.4318 C   0  0  0  0  0  0  0  0  0  0  0  0
   -1.3880   -0.9894   -0.2162 C   0  0  0  0  0  0  0  0  0  0  0  0
   -1.5359    0.1053   -1.0470 O   0  0  0  0  0  0  0  0  0  0  0  0
   -1.2425    1.3097   -0.4667 C   0  0  0  0  0  0  0  0  0  0  0  0
   -0.1100    1.2754    0.3445 O   0  0  0  0  0  0  0  0  0  0  0  0
    4.1381    0.4956    1.3088 H   0  0  0  0  0  0  0  0  0  0  0  0
    0.6837    0.1463   -1.1618 H   0  0  0  0  0  0  0  0  0  0  0  0
    0.5400   -1.9657    0.1677 H   0  0  0  0  0  0  0  0  0  0  0  0
   -0.1650   -1.0463    1.5209 H   0  0  0  0  0  0  0  0  0  0  0  0
   -1.4550   -1.8991   -0.8832 H   0  0  0  0  0  0  0  0  0  0  0  0
   -2.2133   -1.0686    0.4946 H   0  0  0  0  0  0  0  0  0  0  0  0
   -2.1085    1.7390    0.1119 H   0  0  0  0  0  0  0  0  0  0  0  0
   -1.0222    2.0360   -1.2804 H   0  0  0  0  0  0  0  0  0  0  0  0
  1  2  3  0
  2  3  1  0
  3  4  1  0
  4  5  1  0
  5  6  1  0
  6  7  1  0
  7  8  1  0
  8  3  1  0
  1  9  1  0
  3 10  1  0
  4 11  1  0
  4 12  1  0
  5 13  1  0
  5 14  1  0
  7 15  1  0
  7 16  1  0
M  END
