
     RDKit          3D

 21 20  0  0  0  0  0  0  0  0999 V2000
    0.0816    2.7875   -0.0212 C   0  0  0  0  0  0  0  0  0  0  0  0
    0.3775    1.2835    0.0114 C   0  0  0  0  0  0  0  0  0  0  0  0
    0.6371    0.0515    0.0403 C   0  0  0  0  0  0  0  0  0  0  0  0
    1.3774   -0.6740   -1.0327 C   0  0  0  0  0  0  0  0  0  0  0  0
    2.6664   -0.0540   -1.5554 C   0  0  0  0  0  0  0  0  0  0  0  0
   -0.8843   -0.6192   -0.2240 C   0  0  0  0  0  0  0  0  0  0  0  0
   -1.6447   -0.1428    0.9833 C   0  0  0  0  0  0  0  0  0  0  0  0
   -3.1186   -0.6671    0.7813 C   0  0  0  0  0  0  0  0  0  0  0  0
   -3.8048   -0.5021    1.8094 O   0  0  0  0  0  0  0  0  0  0  0  0
   -0.1621    4.0147   -0.0499 H   0  0  0  0  0  0  0  0  0  0  0  0
    0.7833   -0.3660    1.1076 H   0  0  0  0  0  0  0  0  0  0  0  0
    0.8862   -1.4724   -1.4737 H   0  0  0  0  0  0  0  0  0  0  0  0
    2.1055   -1.3646   -0.1585 H   0  0  0  0  0  0  0  0  0  0  0  0
    2.5745    0.7850   -2.2049 H   0  0  0  0  0  0  0  0  0  0  0  0
    3.2497    0.2938   -0.5799 H   0  0  0  0  0  0  0  0  0  0  0  0
    3.2781   -0.9358   -1.9705 H   0  0  0  0  0  0  0  0  0  0  0  0
   -0.7568   -1.6174   -0.4289 H   0  0  0  0  0  0  0  0  0  0  0  0
   -1.1578   -0.0119   -1.1531 H   0  0  0  0  0  0  0  0  0  0  0  0
   -1.7553    0.8967    1.1252 H   0  0  0  0  0  0  0  0  0  0  0  0
   -1.2846   -0.6046    1.9562 H   0  0  0  0  0  0  0  0  0  0  0  0
   -3.4484   -1.0807   -0.1189 H   0  0  0  0  0  0  0  0  0  0  0  0
  1  2  3  0
  2  3  1  0
  3  4  1  0
  4  5  1  0
  3  6  1  0
  6  7  1  0
  7  8  1  0
  8  9  2  0
  1 10  1  0
  3 11  1  0
  4 12  1  0
  4 13  1  0
  5 14  1  0
  5 15  1  0
  5 16  1  0
  6 17  1  0
  6 18  1  0
  7 19  1  0
  7 20  1  0
  8 21  1  0
M  END
