
     RDKit          3D

 17 16  0  0  0  0  0  0  0  0999 V2000
   -2.1431   -0.1767    1.7725 C   0  0  0  0  0  0  0  0  0  0  0  0
   -1.0834   -0.1496    0.9561 C   0  0  0  0  0  0  0  0  0  0  0  0
    0.1296   -0.1242   -0.0066 C   0  0  0  0  0  0  0  0  0  0  0  0
    1.0004   -0.9342    0.4419 C   0  0  0  0  0  0  0  0  0  0  0  0
    1.7996   -1.6818    0.8331 C   0  0  0  0  0  0  0  0  0  0  0  0
   -0.5450   -0.5976   -1.3133 C   0  0  0  0  0  0  0  0  0  0  0  0
    0.3299   -0.6202   -2.3829 O   0  0  0  0  0  0  0  0  0  0  0  0
    0.5360    1.3334   -0.0616 C   0  0  0  0  0  0  0  0  0  0  0  0
    0.9570    1.7165    1.2375 O   0  0  0  0  0  0  0  0  0  0  0  0
   -3.2015   -0.2037    2.6169 H   0  0  0  0  0  0  0  0  0  0  0  0
    2.7661   -2.5573    1.3123 H   0  0  0  0  0  0  0  0  0  0  0  0
   -1.5289   -0.3078   -1.4268 H   0  0  0  0  0  0  0  0  0  0  0  0
   -0.6713   -1.7671   -1.0677 H   0  0  0  0  0  0  0  0  0  0  0  0
   -0.2180   -0.2860   -3.1879 H   0  0  0  0  0  0  0  0  0  0  0  0
    1.3410    1.5907   -0.7398 H   0  0  0  0  0  0  0  0  0  0  0  0
   -0.3479    2.0175   -0.2626 H   0  0  0  0  0  0  0  0  0  0  0  0
    0.8792    2.7483    1.2790 H   0  0  0  0  0  0  0  0  0  0  0  0
  1  2  3  0
  2  3  1  0
  3  4  1  0
  4  5  3  0
  3  6  1  0
  6  7  1  0
  3  8  1  0
  8  9  1  0
  1 10  1  0
  5 11  1  0
  6 12  1  0
  6 13  1  0
  7 14  1  0
  8 15  1  0
  8 16  1  0
  9 17  1  0
M  END
