
     RDKit          3D

 21 21  0  0  0  0  0  0  0  0999 V2000
   -2.7402    2.1798   -1.3930 C   0  0  0  0  0  0  0  0  0  0  0  0
   -2.4126    1.4151   -0.7654 C   0  0  0  0  0  0  0  0  0  0  0  0
   -1.9103    0.2414    0.1631 C   0  0  0  0  0  0  0  0  0  0  0  0
   -1.5909   -0.9654   -0.5766 C   0  0  0  0  0  0  0  0  0  0  0  0
   -0.4463   -0.0577    0.0124 C   0  0  0  0  0  0  0  0  0  0  0  0
    0.3571    0.5165   -1.1707 C   0  0  0  0  0  0  0  0  0  0  0  0
    0.1671   -0.5419    1.0824 O   0  0  0  0  0  0  0  0  0  0  0  0
    1.3671   -1.0077    1.2723 C   0  0  0  0  0  0  0  0  0  0  0  0
    2.6178   -0.2692    1.0335 C   0  0  0  0  0  0  0  0  0  0  0  0
   -3.1388    3.1052   -2.1809 H   0  0  0  0  0  0  0  0  0  0  0  0
   -2.3211    0.2745    1.1545 H   0  0  0  0  0  0  0  0  0  0  0  0
   -1.5943   -1.9630   -0.2467 H   0  0  0  0  0  0  0  0  0  0  0  0
   -1.6428   -0.9345   -1.7231 H   0  0  0  0  0  0  0  0  0  0  0  0
    0.5246    1.5797   -1.1502 H   0  0  0  0  0  0  0  0  0  0  0  0
    1.2461   -0.1173   -1.4288 H   0  0  0  0  0  0  0  0  0  0  0  0
   -0.2974    0.3553   -2.1052 H   0  0  0  0  0  0  0  0  0  0  0  0
    1.4332   -2.0651    0.7865 H   0  0  0  0  0  0  0  0  0  0  0  0
    1.4163   -1.3415    2.3811 H   0  0  0  0  0  0  0  0  0  0  0  0
    3.2903   -0.9285    0.3602 H   0  0  0  0  0  0  0  0  0  0  0  0
    2.4686    0.6506    0.4514 H   0  0  0  0  0  0  0  0  0  0  0  0
    3.2067   -0.1263    1.9697 H   0  0  0  0  0  0  0  0  0  0  0  0
  1  2  3  0
  2  3  1  0
  3  4  1  0
  4  5  1  0
  5  6  1  0
  5  7  1  0
  7  8  1  0
  8  9  1  0
  5  3  1  0
  1 10  1  0
  3 11  1  0
  4 12  1  0
  4 13  1  0
  6 14  1  0
  6 15  1  0
  6 16  1  0
  8 17  1  0
  8 18  1  0
  9 19  1  0
  9 20  1  0
  9 21  1  0
M  END
