
     RDKit          3D

 19 20  0  0  0  0  0  0  0  0999 V2000
   -1.3389    2.4466    0.1094 C   0  0  0  0  0  0  0  0  0  0  0  0
   -1.1542    1.2503    0.0962 C   0  0  0  0  0  0  0  0  0  0  0  0
   -0.9152   -0.2053    0.1013 C   0  0  0  0  0  0  0  0  0  0  0  0
   -2.1096   -1.0838    0.4078 C   0  0  0  0  0  0  0  0  0  0  0  0
    0.3825   -0.6841    0.5487 C   0  0  0  0  0  0  0  0  0  0  0  0
    1.6109    0.1800    0.6073 C   0  0  0  0  0  0  0  0  0  0  0  0
    2.0090    0.4158   -0.8325 C   0  0  0  0  0  0  0  0  0  0  0  0
    0.8418    0.2419   -1.5341 O   0  0  0  0  0  0  0  0  0  0  0  0
    0.0867   -0.7247   -0.9295 C   0  0  0  0  0  0  0  0  0  0  0  0
   -1.5137    3.4909    0.1286 H   0  0  0  0  0  0  0  0  0  0  0  0
   -2.9268   -0.9218   -0.3392 H   0  0  0  0  0  0  0  0  0  0  0  0
   -1.8138   -2.1334    0.3430 H   0  0  0  0  0  0  0  0  0  0  0  0
   -2.5000   -0.8250    1.4334 H   0  0  0  0  0  0  0  0  0  0  0  0
    0.4512   -1.7074    1.0031 H   0  0  0  0  0  0  0  0  0  0  0  0
    2.4094   -0.3706    1.1725 H   0  0  0  0  0  0  0  0  0  0  0  0
    1.3850    1.1251    1.1489 H   0  0  0  0  0  0  0  0  0  0  0  0
    2.3928    1.4624   -0.8877 H   0  0  0  0  0  0  0  0  0  0  0  0
    2.8204   -0.2797   -1.1511 H   0  0  0  0  0  0  0  0  0  0  0  0
   -0.1176   -1.6773   -1.4261 H   0  0  0  0  0  0  0  0  0  0  0  0
  1  2  3  0
  2  3  1  0
  3  4  1  0
  3  5  1  0
  5  6  1  0
  6  7  1  0
  7  8  1  0
  8  9  1  0
  9  3  1  0
  9  5  1  0
  1 10  1  0
  4 11  1  0
  4 12  1  0
  4 13  1  0
  5 14  1  0
  6 15  1  0
  6 16  1  0
  7 17  1  0
  7 18  1  0
  9 19  1  0
M  END
