
     RDKit          3D

 19 20  0  0  0  0  0  0  0  0999 V2000
    1.8667    1.6317    1.4513 C   0  0  0  0  0  0  0  0  0  0  0  0
    1.2760    1.0770    0.5809 C   0  0  0  0  0  0  0  0  0  0  0  0
    0.5198    0.3806   -0.4890 C   0  0  0  0  0  0  0  0  0  0  0  0
    0.9415    0.6730   -1.9064 C   0  0  0  0  0  0  0  0  0  0  0  0
   -0.9429    0.2996   -0.3022 C   0  0  0  0  0  0  0  0  0  0  0  0
   -1.3804    0.1727    1.1332 C   0  0  0  0  0  0  0  0  0  0  0  0
   -0.8153   -1.2190    1.1002 C   0  0  0  0  0  0  0  0  0  0  0  0
   -0.0665   -0.8993   -0.1613 C   0  0  0  0  0  0  0  0  0  0  0  0
   -0.0537   -1.9201   -1.0924 O   0  0  0  0  0  0  0  0  0  0  0  0
    2.4058    2.1537    2.2377 H   0  0  0  0  0  0  0  0  0  0  0  0
    1.6780    1.5379   -1.9247 H   0  0  0  0  0  0  0  0  0  0  0  0
    1.3387   -0.2010   -2.4273 H   0  0  0  0  0  0  0  0  0  0  0  0
    0.0498    1.1311   -2.4217 H   0  0  0  0  0  0  0  0  0  0  0  0
   -1.6675    0.3617   -1.1167 H   0  0  0  0  0  0  0  0  0  0  0  0
   -2.4750    0.2617    1.2567 H   0  0  0  0  0  0  0  0  0  0  0  0
   -0.8186    0.8250    1.7973 H   0  0  0  0  0  0  0  0  0  0  0  0
   -0.2405   -1.5326    1.9699 H   0  0  0  0  0  0  0  0  0  0  0  0
   -1.6356   -1.9545    0.8807 H   0  0  0  0  0  0  0  0  0  0  0  0
    0.0198   -2.7794   -0.5662 H   0  0  0  0  0  0  0  0  0  0  0  0
  1  2  3  0
  2  3  1  0
  3  4  1  0
  3  5  1  0
  5  6  1  0
  6  7  1  0
  7  8  1  0
  8  9  1  0
  8  3  1  0
  8  5  1  0
  1 10  1  0
  4 11  1  0
  4 12  1  0
  4 13  1  0
  5 14  1  0
  6 15  1  0
  6 16  1  0
  7 17  1  0
  7 18  1  0
  9 19  1  0
M  END
