
     RDKit          3D

 19 20  0  0  0  0  0  0  0  0999 V2000
    1.2045    2.0382    1.8210 C   0  0  0  0  0  0  0  0  0  0  0  0
    0.7221    1.2330    1.2976 C   0  0  0  0  0  0  0  0  0  0  0  0
    0.0568    0.1220    0.6010 C   0  0  0  0  0  0  0  0  0  0  0  0
    1.0873   -0.7454   -0.0816 C   0  0  0  0  0  0  0  0  0  0  0  0
    0.7105   -1.9308   -0.8444 C   0  0  0  0  0  0  0  0  0  0  0  0
    1.2329   -0.7247   -1.5703 C   0  0  0  0  0  0  0  0  0  0  0  0
   -1.1546    0.4360   -0.1695 C   0  0  0  0  0  0  0  0  0  0  0  0
   -2.4092    0.9775    0.4323 C   0  0  0  0  0  0  0  0  0  0  0  0
   -2.2697   -0.3943    0.1284 O   0  0  0  0  0  0  0  0  0  0  0  0
    1.7429    2.9372    2.4292 H   0  0  0  0  0  0  0  0  0  0  0  0
   -0.2896   -0.5378    1.5025 H   0  0  0  0  0  0  0  0  0  0  0  0
    2.0790   -0.7745    0.4462 H   0  0  0  0  0  0  0  0  0  0  0  0
    1.3952   -2.8235   -0.7511 H   0  0  0  0  0  0  0  0  0  0  0  0
   -0.2824   -2.2526   -1.1358 H   0  0  0  0  0  0  0  0  0  0  0  0
    2.2225   -0.9046   -2.0589 H   0  0  0  0  0  0  0  0  0  0  0  0
    0.5337   -0.0900   -2.1343 H   0  0  0  0  0  0  0  0  0  0  0  0
   -1.0187    0.7321   -1.2398 H   0  0  0  0  0  0  0  0  0  0  0  0
   -2.4178    1.2233    1.5176 H   0  0  0  0  0  0  0  0  0  0  0  0
   -3.1452    1.4788   -0.1900 H   0  0  0  0  0  0  0  0  0  0  0  0
  1  2  3  0
  2  3  1  0
  3  4  1  0
  4  5  1  0
  5  6  1  0
  3  7  1  0
  7  8  1  0
  8  9  1  0
  6  4  1  0
  9  7  1  0
  1 10  1  0
  3 11  1  0
  4 12  1  0
  5 13  1  0
  5 14  1  0
  6 15  1  0
  6 16  1  0
  7 17  1  0
  8 18  1  0
  8 19  1  0
M  END
