
     RDKit          3D

 17 16  0  0  0  0  0  0  0  0999 V2000
    1.1438    1.7222   -1.6080 C   0  0  0  0  0  0  0  0  0  0  0  0
    0.7343    0.8626   -0.9120 C   0  0  0  0  0  0  0  0  0  0  0  0
    0.2523   -0.2072   -0.0551 C   0  0  0  0  0  0  0  0  0  0  0  0
    0.4426   -1.5536   -0.7512 C   0  0  0  0  0  0  0  0  0  0  0  0
    1.0663   -0.2601    1.1907 C   0  0  0  0  0  0  0  0  0  0  0  0
    2.0647   -0.9564    1.2285 O   0  0  0  0  0  0  0  0  0  0  0  0
   -1.2084   -0.0722    0.2508 C   0  0  0  0  0  0  0  0  0  0  0  0
   -1.5753    1.1624    0.9344 C   0  0  0  0  0  0  0  0  0  0  0  0
   -0.7631    2.0120    1.2316 O   0  0  0  0  0  0  0  0  0  0  0  0
    1.5098    2.4991   -2.2586 H   0  0  0  0  0  0  0  0  0  0  0  0
   -0.3612   -1.6904   -1.4916 H   0  0  0  0  0  0  0  0  0  0  0  0
    1.4492   -1.6280   -1.2080 H   0  0  0  0  0  0  0  0  0  0  0  0
    0.3696   -2.3902   -0.0247 H   0  0  0  0  0  0  0  0  0  0  0  0
    0.7550    0.3172    2.0287 H   0  0  0  0  0  0  0  0  0  0  0  0
   -1.8002   -0.2246   -0.6728 H   0  0  0  0  0  0  0  0  0  0  0  0
   -1.4735   -0.9382    0.9229 H   0  0  0  0  0  0  0  0  0  0  0  0
   -2.6059    1.3454    1.1946 H   0  0  0  0  0  0  0  0  0  0  0  0
  1  2  3  0
  2  3  1  0
  3  4  1  0
  3  5  1  0
  5  6  2  0
  3  7  1  0
  7  8  1  0
  8  9  2  0
  1 10  1  0
  4 11  1  0
  4 12  1  0
  4 13  1  0
  5 14  1  0
  7 15  1  0
  7 16  1  0
  8 17  1  0
M  END
