
     RDKit          3D

 16 16  0  0  0  0  0  0  0  0999 V2000
    2.7435   -1.1484    1.3617 C   0  0  0  0  0  0  0  0  0  0  0  0
    1.6346   -0.7949    1.0403 C   0  0  0  0  0  0  0  0  0  0  0  0
    0.2922   -0.3673    0.6248 C   0  0  0  0  0  0  0  0  0  0  0  0
    0.1700    0.8192   -0.2697 C   0  0  0  0  0  0  0  0  0  0  0  0
   -1.0592    1.6940   -0.2161 C   0  0  0  0  0  0  0  0  0  0  0  0
    0.0267   -0.5348   -0.8695 C   0  0  0  0  0  0  0  0  0  0  0  0
   -1.2950   -1.0933   -1.1730 C   0  0  0  0  0  0  0  0  0  0  0  0
   -1.4240   -1.8771   -2.0956 O   0  0  0  0  0  0  0  0  0  0  0  0
    3.7110   -1.4744    1.6454 H   0  0  0  0  0  0  0  0  0  0  0  0
   -0.5110   -0.6205    1.3398 H   0  0  0  0  0  0  0  0  0  0  0  0
    1.1029    1.3824   -0.4426 H   0  0  0  0  0  0  0  0  0  0  0  0
   -0.9240    2.5489    0.4765 H   0  0  0  0  0  0  0  0  0  0  0  0
   -1.9408    1.0853    0.0324 H   0  0  0  0  0  0  0  0  0  0  0  0
   -1.2214    2.0754   -1.2658 H   0  0  0  0  0  0  0  0  0  0  0  0
    0.8729   -0.8567   -1.5072 H   0  0  0  0  0  0  0  0  0  0  0  0
   -2.1785   -0.8376   -0.6058 H   0  0  0  0  0  0  0  0  0  0  0  0
  1  2  3  0
  2  3  1  0
  3  4  1  0
  4  5  1  0
  4  6  1  0
  6  7  1  0
  7  8  2  0
  6  3  1  0
  1  9  1  0
  3 10  1  0
  4 11  1  0
  5 12  1  0
  5 13  1  0
  5 14  1  0
  6 15  1  0
  7 16  1  0
M  END
