
     RDKit          3D

 19 19  0  0  0  0  0  0  0  0999 V2000
    3.1035   -0.7095   -0.6460 C   0  0  0  0  0  0  0  0  0  0  0  0
    2.0685   -0.4394   -0.0892 C   0  0  0  0  0  0  0  0  0  0  0  0
    0.8090   -0.0950    0.6139 C   0  0  0  0  0  0  0  0  0  0  0  0
    0.4820    1.3449    0.4256 C   0  0  0  0  0  0  0  0  0  0  0  0
   -0.8833    1.6410   -0.0258 C   0  0  0  0  0  0  0  0  0  0  0  0
   -1.8829    0.7825    0.1043 C   0  0  0  0  0  0  0  0  0  0  0  0
   -1.5792   -0.5279    0.7376 C   0  0  0  0  0  0  0  0  0  0  0  0
   -0.2513   -1.0592    0.1837 C   0  0  0  0  0  0  0  0  0  0  0  0
   -0.3286   -1.2154   -1.1967 O   0  0  0  0  0  0  0  0  0  0  0  0
    4.0137   -0.9431   -1.1443 H   0  0  0  0  0  0  0  0  0  0  0  0
    1.0286   -0.3272    1.6968 H   0  0  0  0  0  0  0  0  0  0  0  0
    1.1817    1.8002   -0.3377 H   0  0  0  0  0  0  0  0  0  0  0  0
    0.7274    1.8813    1.3705 H   0  0  0  0  0  0  0  0  0  0  0  0
   -1.0762    2.6047   -0.4844 H   0  0  0  0  0  0  0  0  0  0  0  0
   -2.8624    1.0642   -0.2492 H   0  0  0  0  0  0  0  0  0  0  0  0
   -1.4513   -0.3535    1.8177 H   0  0  0  0  0  0  0  0  0  0  0  0
   -2.4025   -1.2424    0.5389 H   0  0  0  0  0  0  0  0  0  0  0  0
   -0.1150   -2.0475    0.6300 H   0  0  0  0  0  0  0  0  0  0  0  0
   -0.5816   -2.1586   -1.4452 H   0  0  0  0  0  0  0  0  0  0  0  0
  1  2  3  0
  2  3  1  0
  3  4  1  0
  4  5  1  0
  5  6  2  0
  6  7  1  0
  7  8  1  0
  8  9  1  0
  8  3  1  0
  1 10  1  0
  3 11  1  0
  4 12  1  0
  4 13  1  0
  5 14  1  0
  6 15  1  0
  7 16  1  0
  7 17  1  0
  8 18  1  0
  9 19  1  0
M  END
