
     RDKit          3D

 17 18  0  0  0  0  0  0  0  0999 V2000
    2.3876   -1.7166    0.9301 C   0  0  0  0  0  0  0  0  0  0  0  0
    1.7600   -0.9134    0.2977 C   0  0  0  0  0  0  0  0  0  0  0  0
    0.9727    0.0877   -0.4662 C   0  0  0  0  0  0  0  0  0  0  0  0
   -0.0146   -0.6194   -1.4023 C   0  0  0  0  0  0  0  0  0  0  0  0
   -1.0795   -0.5955   -0.3724 C   0  0  0  0  0  0  0  0  0  0  0  0
   -0.8829   -0.5801    1.0776 C   0  0  0  0  0  0  0  0  0  0  0  0
   -0.2219    0.5141    0.3282 C   0  0  0  0  0  0  0  0  0  0  0  0
   -0.7736    1.8438    0.2489 C   0  0  0  0  0  0  0  0  0  0  0  0
   -1.2185    2.9601    0.1791 C   0  0  0  0  0  0  0  0  0  0  0  0
    2.9463   -2.4536    1.4889 H   0  0  0  0  0  0  0  0  0  0  0  0
    1.5907    0.8451   -0.9369 H   0  0  0  0  0  0  0  0  0  0  0  0
   -0.2087    0.0859   -2.2688 H   0  0  0  0  0  0  0  0  0  0  0  0
    0.3309   -1.5752   -1.7961 H   0  0  0  0  0  0  0  0  0  0  0  0
   -2.0786   -0.2624   -0.7307 H   0  0  0  0  0  0  0  0  0  0  0  0
   -1.7245   -0.2700    1.7137 H   0  0  0  0  0  0  0  0  0  0  0  0
   -0.1747   -1.2925    1.5895 H   0  0  0  0  0  0  0  0  0  0  0  0
   -1.6108    3.9419    0.1197 H   0  0  0  0  0  0  0  0  0  0  0  0
  1  2  3  0
  2  3  1  0
  3  4  1  0
  4  5  1  0
  5  6  1  0
  6  7  1  0
  7  8  1  0
  8  9  3  0
  7  3  1  0
  7  5  1  0
  1 10  1  0
  3 11  1  0
  4 12  1  0
  4 13  1  0
  5 14  1  0
  6 15  1  0
  6 16  1  0
  9 17  1  0
M  END
