
     RDKit          3D

 17 16  0  0  0  0  0  0  0  0999 V2000
    2.9664    0.1996    0.0033 C   0  0  0  0  0  0  0  0  0  0  0  0
    1.8681    0.0572   -0.4770 C   0  0  0  0  0  0  0  0  0  0  0  0
    0.5758   -0.0919   -1.0594 C   0  0  0  0  0  0  0  0  0  0  0  0
    0.4519   -0.0835   -2.3008 O   0  0  0  0  0  0  0  0  0  0  0  0
   -0.6227   -0.2567   -0.2126 C   0  0  0  0  0  0  0  0  0  0  0  0
   -0.3678   -1.4846    0.6658 C   0  0  0  0  0  0  0  0  0  0  0  0
   -1.7717   -0.3846   -0.9509 O   0  0  0  0  0  0  0  0  0  0  0  0
   -0.7319    0.9834    0.6595 C   0  0  0  0  0  0  0  0  0  0  0  0
   -0.8968    2.0770   -0.1709 O   0  0  0  0  0  0  0  0  0  0  0  0
    3.9231    0.3192    0.4356 H   0  0  0  0  0  0  0  0  0  0  0  0
    0.3909   -2.1547    0.1970 H   0  0  0  0  0  0  0  0  0  0  0  0
   -1.3138   -2.0529    0.7516 H   0  0  0  0  0  0  0  0  0  0  0  0
    0.0447   -1.1741    1.6433 H   0  0  0  0  0  0  0  0  0  0  0  0
   -1.6227   -0.6030   -1.8894 H   0  0  0  0  0  0  0  0  0  0  0  0
    0.2474    1.0755    1.1922 H   0  0  0  0  0  0  0  0  0  0  0  0
   -1.5067    0.9034    1.4215 H   0  0  0  0  0  0  0  0  0  0  0  0
   -1.6341    2.6707    0.0911 H   0  0  0  0  0  0  0  0  0  0  0  0
  1  2  3  0
  2  3  1  0
  3  4  2  0
  3  5  1  0
  5  6  1  0
  5  7  1  0
  5  8  1  0
  8  9  1  0
  1 10  1  0
  6 11  1  0
  6 12  1  0
  6 13  1  0
  7 14  1  0
  8 15  1  0
  8 16  1  0
  9 17  1  0
M  END
