
     RDKit          3D

 14 13  0  0  0  0  0  0  0  0999 V2000
    2.8881   -0.2239    1.1455 C   0  0  0  0  0  0  0  0  0  0  0  0
    1.7963   -0.4536    0.6336 C   0  0  0  0  0  0  0  0  0  0  0  0
    0.4991   -0.7081    0.0467 C   0  0  0  0  0  0  0  0  0  0  0  0
   -0.3472   -1.2046    1.0240 O   0  0  0  0  0  0  0  0  0  0  0  0
   -0.1465    0.5610   -0.5046 C   0  0  0  0  0  0  0  0  0  0  0  0
   -0.3358    1.4871    0.5307 O   0  0  0  0  0  0  0  0  0  0  0  0
   -1.3607    0.2422   -1.1752 C   0  0  0  0  0  0  0  0  0  0  0  0
   -2.4664   -0.0325   -1.7650 C   0  0  0  0  0  0  0  0  0  0  0  0
    3.8268   -0.0317    1.5918 H   0  0  0  0  0  0  0  0  0  0  0  0
    0.5591   -1.3935   -0.8419 H   0  0  0  0  0  0  0  0  0  0  0  0
   -1.2886   -1.2484    0.7314 H   0  0  0  0  0  0  0  0  0  0  0  0
    0.5555    1.0136   -1.2815 H   0  0  0  0  0  0  0  0  0  0  0  0
   -0.8091    2.2452    0.1184 H   0  0  0  0  0  0  0  0  0  0  0  0
   -3.3705   -0.2529   -2.2619 H   0  0  0  0  0  0  0  0  0  0  0  0
  1  2  3  0
  2  3  1  0
  3  4  1  0
  3  5  1  0
  5  6  1  0
  5  7  1  0
  7  8  3  0
  1  9  1  0
  3 10  1  0
  4 11  1  0
  5 12  1  0
  6 13  1  0
  8 14  1  0
M  END
