
     RDKit          3D

 18 18  0  0  0  0  0  0  0  0999 V2000
    1.4505    2.4980    0.1475 C   0  0  0  0  0  0  0  0  0  0  0  0
    1.1789    0.9994   -0.1405 C   0  0  0  0  0  0  0  0  0  0  0  0
    0.9597   -0.2269   -0.3819 C   0  0  0  0  0  0  0  0  0  0  0  0
    1.0620   -0.8582    0.7978 O   0  0  0  0  0  0  0  0  0  0  0  0
    1.1546   -1.4331    1.8472 C   0  0  0  0  0  0  0  0  0  0  0  0
   -0.6851   -0.5633   -0.6848 C   0  0  0  0  0  0  0  0  0  0  0  0
   -1.4662    0.0623    0.3375 C   0  0  0  0  0  0  0  0  0  0  0  0
   -1.4923    0.5491   -1.1378 C   0  0  0  0  0  0  0  0  0  0  0  0
    1.6584    3.5603    0.3402 H   0  0  0  0  0  0  0  0  0  0  0  0
    1.3132   -0.7147   -1.2927 H   0  0  0  0  0  0  0  0  0  0  0  0
    1.4704   -0.6278    2.7287 H   0  0  0  0  0  0  0  0  0  0  0  0
    0.0977   -1.6002    2.4512 H   0  0  0  0  0  0  0  0  0  0  0  0
    1.5808   -2.4018    2.0740 H   0  0  0  0  0  0  0  0  0  0  0  0
   -0.6670   -1.5622   -1.0175 H   0  0  0  0  0  0  0  0  0  0  0  0
   -2.5131   -0.4476    0.4329 H   0  0  0  0  0  0  0  0  0  0  0  0
   -1.4309    0.8757    1.0571 H   0  0  0  0  0  0  0  0  0  0  0  0
   -2.5502    0.3734   -1.6512 H   0  0  0  0  0  0  0  0  0  0  0  0
   -1.1216    1.5176   -1.4142 H   0  0  0  0  0  0  0  0  0  0  0  0
  1  2  3  0
  2  3  1  0
  3  4  1  0
  4  5  1  0
  3  6  1  0
  6  7  1  0
  7  8  1  0
  8  6  1  0
  1  9  1  0
  3 10  1  0
  5 11  1  0
  5 12  1  0
  5 13  1  0
  6 14  1  0
  7 15  1  0
  7 16  1  0
  8 17  1  0
  8 18  1  0
M  END
