
     RDKit          3D

 17 19  0  0  0  0  0  0  0  0999 V2000
    3.1354    0.6280    0.8365 C   0  0  0  0  0  0  0  0  0  0  0  0
    1.9373    0.5848    0.7721 C   0  0  0  0  0  0  0  0  0  0  0  0
    0.5021    0.5478    0.6938 C   0  0  0  0  0  0  0  0  0  0  0  0
   -0.1055   -0.8356    0.5586 C   0  0  0  0  0  0  0  0  0  0  0  0
    0.5700   -0.8732   -0.7836 C   0  0  0  0  0  0  0  0  0  0  0  0
   -0.0467    0.5073   -0.7212 C   0  0  0  0  0  0  0  0  0  0  0  0
   -1.2239   -0.1321   -0.1262 C   0  0  0  0  0  0  0  0  0  0  0  0
   -2.4244    0.2432    0.3191 C   0  0  0  0  0  0  0  0  0  0  0  0
   -2.2202   -0.7535   -0.7946 O   0  0  0  0  0  0  0  0  0  0  0  0
    4.2032    0.6822    0.9040 H   0  0  0  0  0  0  0  0  0  0  0  0
   -0.0661    1.1866    1.3929 H   0  0  0  0  0  0  0  0  0  0  0  0
   -0.1277   -1.5446    1.2582 H   0  0  0  0  0  0  0  0  0  0  0  0
    1.6750   -0.8099   -0.7308 H   0  0  0  0  0  0  0  0  0  0  0  0
    0.1418   -1.5385   -1.5370 H   0  0  0  0  0  0  0  0  0  0  0  0
    0.0482    1.2296   -1.4046 H   0  0  0  0  0  0  0  0  0  0  0  0
   -2.9771   -0.2353    1.1723 H   0  0  0  0  0  0  0  0  0  0  0  0
   -3.0215    1.1131   -0.0795 H   0  0  0  0  0  0  0  0  0  0  0  0
  1  2  3  0
  2  3  1  0
  3  4  1  0
  4  5  1  0
  5  6  1  0
  6  7  1  0
  7  8  1  0
  8  9  1  0
  6  3  1  0
  9  7  1  0
  7  4  1  0
  1 10  1  0
  3 11  1  0
  4 12  1  0
  5 13  1  0
  5 14  1  0
  6 15  1  0
  8 16  1  0
  8 17  1  0
M  END
