
     RDKit          3D

 18 18  0  0  0  0  0  0  0  0999 V2000
    0.2682    2.7901   -0.5663 C   0  0  0  0  0  0  0  0  0  0  0  0
    0.2313    1.6886   -0.1159 C   0  0  0  0  0  0  0  0  0  0  0  0
    0.1915    0.3171    0.4179 C   0  0  0  0  0  0  0  0  0  0  0  0
   -0.9878   -0.5213    0.0191 C   0  0  0  0  0  0  0  0  0  0  0  0
   -0.9632   -0.6302   -1.4874 C   0  0  0  0  0  0  0  0  0  0  0  0
   -0.9450   -1.7786    0.6002 O   0  0  0  0  0  0  0  0  0  0  0  0
    0.9476   -0.0068    1.6181 C   0  0  0  0  0  0  0  0  0  0  0  0
    1.5752   -0.3872    0.3061 C   0  0  0  0  0  0  0  0  0  0  0  0
    0.2980    3.7922   -0.9684 H   0  0  0  0  0  0  0  0  0  0  0  0
   -1.9093   -0.0144    0.3842 H   0  0  0  0  0  0  0  0  0  0  0  0
   -0.2832   -1.4384   -1.8294 H   0  0  0  0  0  0  0  0  0  0  0  0
   -0.6301    0.3046   -1.9574 H   0  0  0  0  0  0  0  0  0  0  0  0
   -1.9983   -0.8643   -1.8757 H   0  0  0  0  0  0  0  0  0  0  0  0
   -1.8157   -2.0480    1.0210 H   0  0  0  0  0  0  0  0  0  0  0  0
    1.3606    0.8444    2.1989 H   0  0  0  0  0  0  0  0  0  0  0  0
    0.6857   -0.8717    2.2587 H   0  0  0  0  0  0  0  0  0  0  0  0
    1.5332   -1.4226   -0.0448 H   0  0  0  0  0  0  0  0  0  0  0  0
    2.4412    0.2465    0.0212 H   0  0  0  0  0  0  0  0  0  0  0  0
  1  2  3  0
  2  3  1  0
  3  4  1  0
  4  5  1  0
  4  6  1  0
  3  7  1  0
  7  8  1  0
  8  3  1  0
  1  9  1  0
  4 10  1  0
  5 11  1  0
  5 12  1  0
  5 13  1  0
  6 14  1  0
  7 15  1  0
  7 16  1  0
  8 17  1  0
  8 18  1  0
M  END
