
     RDKit          3D

 19 20  0  0  0  0  0  0  0  0999 V2000
    3.4563    1.3760   -0.0660 C   0  0  0  0  0  0  0  0  0  0  0  0
    2.3747    0.8368   -0.0785 C   0  0  0  0  0  0  0  0  0  0  0  0
    1.0793    0.2150   -0.0928 C   0  0  0  0  0  0  0  0  0  0  0  0
    0.6684   -0.7255    0.7716 C   0  0  0  0  0  0  0  0  0  0  0  0
   -0.6510   -1.2542    0.3350 C   0  0  0  0  0  0  0  0  0  0  0  0
   -1.6837   -0.2255    0.6706 C   0  0  0  0  0  0  0  0  0  0  0  0
   -1.2035    0.9664   -0.1704 C   0  0  0  0  0  0  0  0  0  0  0  0
   -0.0581    0.4414   -1.0084 C   0  0  0  0  0  0  0  0  0  0  0  0
   -0.5226   -1.0152   -1.1816 C   0  0  0  0  0  0  0  0  0  0  0  0
    4.4146    1.8486   -0.0428 H   0  0  0  0  0  0  0  0  0  0  0  0
    1.2364   -1.0321    1.6484 H   0  0  0  0  0  0  0  0  0  0  0  0
   -0.8597   -2.2654    0.5968 H   0  0  0  0  0  0  0  0  0  0  0  0
   -1.7489    0.0244    1.7354 H   0  0  0  0  0  0  0  0  0  0  0  0
   -2.6922   -0.4892    0.2351 H   0  0  0  0  0  0  0  0  0  0  0  0
   -2.0031    1.4189   -0.7483 H   0  0  0  0  0  0  0  0  0  0  0  0
   -0.7390    1.6705    0.5682 H   0  0  0  0  0  0  0  0  0  0  0  0
    0.1397    0.9519   -1.9166 H   0  0  0  0  0  0  0  0  0  0  0  0
   -1.4790   -1.0813   -1.6897 H   0  0  0  0  0  0  0  0  0  0  0  0
    0.2713   -1.6615   -1.5449 H   0  0  0  0  0  0  0  0  0  0  0  0
  1  2  3  0
  2  3  1  0
  3  4  2  0
  4  5  1  0
  5  6  1  0
  6  7  1  0
  7  8  1  0
  8  9  1  0
  8  3  1  0
  9  5  1  0
  1 10  1  0
  4 11  1  0
  5 12  1  0
  6 13  1  0
  6 14  1  0
  7 15  1  0
  7 16  1  0
  8 17  1  0
  9 18  1  0
  9 19  1  0
M  END
