
     RDKit          3D

 15 15  0  0  0  0  0  0  0  0999 V2000
    2.5773   -0.9647   -1.5301 C   0  0  0  0  0  0  0  0  0  0  0  0
    1.4360   -1.0311   -1.0737 C   0  0  0  0  0  0  0  0  0  0  0  0
    0.0588   -1.1358   -0.5312 C   0  0  0  0  0  0  0  0  0  0  0  0
   -0.6672   -0.1024   -1.1086 O   0  0  0  0  0  0  0  0  0  0  0  0
   -1.5096    0.4764   -0.1977 C   0  0  0  0  0  0  0  0  0  0  0  0
   -0.6812    1.2923    0.8143 C   0  0  0  0  0  0  0  0  0  0  0  0
    0.2248    0.2980    1.4444 C   0  0  0  0  0  0  0  0  0  0  0  0
    0.9222    0.6051    2.4201 O   0  0  0  0  0  0  0  0  0  0  0  0
    0.2287   -0.9594    0.8736 O   0  0  0  0  0  0  0  0  0  0  0  0
    3.5541   -0.8964   -1.9055 H   0  0  0  0  0  0  0  0  0  0  0  0
   -0.3708   -2.1152   -0.7547 H   0  0  0  0  0  0  0  0  0  0  0  0
   -1.9907   -0.3344    0.3871 H   0  0  0  0  0  0  0  0  0  0  0  0
   -2.2925    1.1118   -0.6518 H   0  0  0  0  0  0  0  0  0  0  0  0
   -0.0819    2.0476    0.2845 H   0  0  0  0  0  0  0  0  0  0  0  0
   -1.4082    1.7080    1.5294 H   0  0  0  0  0  0  0  0  0  0  0  0
  1  2  3  0
  2  3  1  0
  3  4  1  0
  4  5  1  0
  5  6  1  0
  6  7  1  0
  7  8  2  0
  7  9  1  0
  9  3  1  0
  1 10  1  0
  3 11  1  0
  5 12  1  0
  5 13  1  0
  6 14  1  0
  6 15  1  0
M  END
