
     RDKit          3D

 17 18  0  0  0  0  0  0  0  0999 V2000
    2.7909   -0.9270    0.4553 C   0  0  0  0  0  0  0  0  0  0  0  0
    1.8888   -0.2387    0.0966 C   0  0  0  0  0  0  0  0  0  0  0  0
    0.8021    0.5866   -0.3576 C   0  0  0  0  0  0  0  0  0  0  0  0
   -0.0861   -0.1236   -1.3958 C   0  0  0  0  0  0  0  0  0  0  0  0
   -0.4118   -1.5128   -1.1450 C   0  0  0  0  0  0  0  0  0  0  0  0
    0.4578   -2.2531   -0.7037 O   0  0  0  0  0  0  0  0  0  0  0  0
   -1.0224    0.9526   -0.9233 C   0  0  0  0  0  0  0  0  0  0  0  0
   -1.7307    1.0792    0.2992 C   0  0  0  0  0  0  0  0  0  0  0  0
   -0.4565    0.4513    0.4728 C   0  0  0  0  0  0  0  0  0  0  0  0
    3.6019   -1.5520    0.7974 H   0  0  0  0  0  0  0  0  0  0  0  0
    1.0312    1.6004   -0.6780 H   0  0  0  0  0  0  0  0  0  0  0  0
    0.2366    0.0239   -2.4406 H   0  0  0  0  0  0  0  0  0  0  0  0
   -1.3857   -1.9666   -1.3189 H   0  0  0  0  0  0  0  0  0  0  0  0
   -0.5577    1.9432   -1.2522 H   0  0  0  0  0  0  0  0  0  0  0  0
   -2.7182    0.5279    0.3621 H   0  0  0  0  0  0  0  0  0  0  0  0
   -1.8594    2.0684    0.8352 H   0  0  0  0  0  0  0  0  0  0  0  0
   -0.5807   -0.6596    0.6638 H   0  0  0  0  0  0  0  0  0  0  0  0
  1  2  3  0
  2  3  1  0
  3  4  1  0
  4  5  1  0
  5  6  2  0
  4  7  1  0
  7  8  1  0
  8  9  1  0
  9  3  1  0
  9  7  1  0
  1 10  1  0
  3 11  1  0
  4 12  1  0
  5 13  1  0
  7 14  1  0
  8 15  1  0
  8 16  1  0
  9 17  1  0
M  END
