
     RDKit          3D

 19 20  0  0  0  0  0  0  0  0999 V2000
   -2.0423    2.6144    0.5810 C   0  0  0  0  0  0  0  0  0  0  0  0
   -1.6185    1.5373    0.2638 C   0  0  0  0  0  0  0  0  0  0  0  0
   -1.0814    0.2180   -0.1064 C   0  0  0  0  0  0  0  0  0  0  0  0
   -1.9384   -0.9036    0.4943 C   0  0  0  0  0  0  0  0  0  0  0  0
   -0.9386    0.1165   -1.4709 O   0  0  0  0  0  0  0  0  0  0  0  0
    0.2376   -0.6001   -1.2536 C   0  0  0  0  0  0  0  0  0  0  0  0
    1.4102    0.2139   -0.8614 C   0  0  0  0  0  0  0  0  0  0  0  0
    2.7465   -0.4320   -0.6245 C   0  0  0  0  0  0  0  0  0  0  0  0
    0.3744    0.0188    0.1527 C   0  0  0  0  0  0  0  0  0  0  0  0
   -2.4126    3.5887    0.8530 H   0  0  0  0  0  0  0  0  0  0  0  0
   -2.8830   -0.8894   -0.0753 H   0  0  0  0  0  0  0  0  0  0  0  0
   -2.0633   -0.6519    1.5642 H   0  0  0  0  0  0  0  0  0  0  0  0
   -1.4128   -1.8713    0.3400 H   0  0  0  0  0  0  0  0  0  0  0  0
    0.2267   -1.6868   -1.2444 H   0  0  0  0  0  0  0  0  0  0  0  0
    1.4538    1.2274   -1.3567 H   0  0  0  0  0  0  0  0  0  0  0  0
    2.8964   -1.3554   -1.2357 H   0  0  0  0  0  0  0  0  0  0  0  0
    3.5972    0.2777   -0.8062 H   0  0  0  0  0  0  0  0  0  0  0  0
    2.8428   -0.7544    0.4345 H   0  0  0  0  0  0  0  0  0  0  0  0
    0.6054   -0.6678    0.9917 H   0  0  0  0  0  0  0  0  0  0  0  0
  1  2  3  0
  2  3  1  0
  3  4  1  0
  3  5  1  0
  5  6  1  0
  6  7  1  0
  7  8  1  0
  7  9  1  0
  9  3  1  0
  9  6  1  0
  1 10  1  0
  4 11  1  0
  4 12  1  0
  4 13  1  0
  6 14  1  0
  7 15  1  0
  8 16  1  0
  8 17  1  0
  8 18  1  0
  9 19  1  0
M  END
