
     RDKit          3D

 19 19  0  0  0  0  0  0  0  0999 V2000
    3.9914   -1.5228   -0.4186 C   0  0  0  0  0  0  0  0  0  0  0  0
    2.9626   -0.8729   -0.5327 C   0  0  0  0  0  0  0  0  0  0  0  0
    1.7188   -0.1110   -0.6851 C   0  0  0  0  0  0  0  0  0  0  0  0
    0.7608   -0.6157    0.3819 C   0  0  0  0  0  0  0  0  0  0  0  0
   -0.5323    0.1562    0.2451 C   0  0  0  0  0  0  0  0  0  0  0  0
   -1.5273   -0.2815    1.2595 C   0  0  0  0  0  0  0  0  0  0  0  0
   -2.7133   -0.1385    0.6854 C   0  0  0  0  0  0  0  0  0  0  0  0
   -2.4674    0.3892   -0.6907 C   0  0  0  0  0  0  0  0  0  0  0  0
   -1.1915   -0.1697   -0.9398 O   0  0  0  0  0  0  0  0  0  0  0  0
    4.8774   -2.0999   -0.3307 H   0  0  0  0  0  0  0  0  0  0  0  0
    1.9152    0.9704   -0.5631 H   0  0  0  0  0  0  0  0  0  0  0  0
    1.3222   -0.2630   -1.6886 H   0  0  0  0  0  0  0  0  0  0  0  0
    0.5775   -1.6890    0.3017 H   0  0  0  0  0  0  0  0  0  0  0  0
    1.1577   -0.3977    1.3894 H   0  0  0  0  0  0  0  0  0  0  0  0
   -0.3402    1.2465    0.2921 H   0  0  0  0  0  0  0  0  0  0  0  0
   -1.3020   -0.6373    2.2501 H   0  0  0  0  0  0  0  0  0  0  0  0
   -3.6606   -0.3671    1.1466 H   0  0  0  0  0  0  0  0  0  0  0  0
   -3.2167    0.0081   -1.3944 H   0  0  0  0  0  0  0  0  0  0  0  0
   -2.3324    1.4704   -0.7080 H   0  0  0  0  0  0  0  0  0  0  0  0
  1  2  3  0
  2  3  1  0
  3  4  1  0
  4  5  1  0
  5  6  1  0
  6  7  2  0
  7  8  1  0
  8  9  1  0
  9  5  1  0
  1 10  1  0
  3 11  1  0
  3 12  1  0
  4 13  1  0
  4 14  1  0
  5 15  1  0
  6 16  1  0
  7 17  1  0
  8 18  1  0
  8 19  1  0
M  END
