
     RDKit          3D

 23 22  0  0  0  0  0  0  0  0999 V2000
   -2.0649    2.0901    0.9865 C   0  0  0  0  0  0  0  0  0  0  0  0
   -1.5800    0.9963    1.1848 C   0  0  0  0  0  0  0  0  0  0  0  0
   -0.9778   -0.3096    1.4368 C   0  0  0  0  0  0  0  0  0  0  0  0
   -1.9993   -1.3078    1.9017 C   0  0  0  0  0  0  0  0  0  0  0  0
   -0.2539   -0.7490    0.1897 C   0  0  0  0  0  0  0  0  0  0  0  0
    0.3544   -1.9726    0.3133 O   0  0  0  0  0  0  0  0  0  0  0  0
    0.7098    0.3513   -0.1969 C   0  0  0  0  0  0  0  0  0  0  0  0
    1.4877   -0.0017   -1.4470 C   0  0  0  0  0  0  0  0  0  0  0  0
    2.4336    1.1298   -1.7884 C   0  0  0  0  0  0  0  0  0  0  0  0
   -2.4760    3.0530    0.8030 H   0  0  0  0  0  0  0  0  0  0  0  0
   -0.2214   -0.1626    2.2343 H   0  0  0  0  0  0  0  0  0  0  0  0
   -1.6908   -1.8421    2.8206 H   0  0  0  0  0  0  0  0  0  0  0  0
   -2.9366   -0.7575    2.1204 H   0  0  0  0  0  0  0  0  0  0  0  0
   -2.2534   -2.0644    1.1328 H   0  0  0  0  0  0  0  0  0  0  0  0
   -1.0084   -0.8197   -0.6226 H   0  0  0  0  0  0  0  0  0  0  0  0
   -0.1171   -2.5908    0.8962 H   0  0  0  0  0  0  0  0  0  0  0  0
    0.1705    1.3103   -0.3294 H   0  0  0  0  0  0  0  0  0  0  0  0
    1.4567    0.5060    0.6083 H   0  0  0  0  0  0  0  0  0  0  0  0
    2.1177   -0.9020   -1.2979 H   0  0  0  0  0  0  0  0  0  0  0  0
    0.8195   -0.1693   -2.3121 H   0  0  0  0  0  0  0  0  0  0  0  0
    3.3545    0.9799   -1.1940 H   0  0  0  0  0  0  0  0  0  0  0  0
    2.6829    1.1200   -2.8775 H   0  0  0  0  0  0  0  0  0  0  0  0
    1.9923    2.1124   -1.4747 H   0  0  0  0  0  0  0  0  0  0  0  0
  1  2  3  0
  2  3  1  0
  3  4  1  0
  3  5  1  0
  5  6  1  0
  5  7  1  0
  7  8  1  0
  8  9  1  0
  1 10  1  0
  3 11  1  0
  4 12  1  0
  4 13  1  0
  4 14  1  0
  5 15  1  0
  6 16  1  0
  7 17  1  0
  7 18  1  0
  8 19  1  0
  8 20  1  0
  9 21  1  0
  9 22  1  0
  9 23  1  0
M  END
