
     RDKit          3D

 17 17  0  0  0  0  0  0  0  0999 V2000
    3.1122   -0.2709    0.0823 C   0  0  0  0  0  0  0  0  0  0  0  0
    1.9235   -0.2017    0.2924 C   0  0  0  0  0  0  0  0  0  0  0  0
    0.5041   -0.1283    0.5609 C   0  0  0  0  0  0  0  0  0  0  0  0
   -0.3296   -0.8942   -0.4436 C   0  0  0  0  0  0  0  0  0  0  0  0
   -0.8452   -2.0722    0.0463 O   0  0  0  0  0  0  0  0  0  0  0  0
   -1.3546    0.2451   -0.3452 C   0  0  0  0  0  0  0  0  0  0  0  0
   -2.2223    0.0155    0.7209 O   0  0  0  0  0  0  0  0  0  0  0  0
   -0.1790    1.1404    0.0532 C   0  0  0  0  0  0  0  0  0  0  0  0
   -0.4663    2.0612    1.0398 O   0  0  0  0  0  0  0  0  0  0  0  0
    4.1647   -0.3494   -0.0969 H   0  0  0  0  0  0  0  0  0  0  0  0
    0.1904   -0.3907    1.5869 H   0  0  0  0  0  0  0  0  0  0  0  0
    0.0834   -0.9283   -1.4630 H   0  0  0  0  0  0  0  0  0  0  0  0
   -0.4521   -2.3196    0.9092 H   0  0  0  0  0  0  0  0  0  0  0  0
   -1.8450    0.5057   -1.2814 H   0  0  0  0  0  0  0  0  0  0  0  0
   -2.8594   -0.6898    0.4500 H   0  0  0  0  0  0  0  0  0  0  0  0
    0.3150    1.5284   -0.8578 H   0  0  0  0  0  0  0  0  0  0  0  0
    0.2603    2.7488    1.0068 H   0  0  0  0  0  0  0  0  0  0  0  0
  1  2  3  0
  2  3  1  0
  3  4  1  0
  4  5  1  0
  4  6  1  0
  6  7  1  0
  6  8  1  0
  8  9  1  0
  8  3  1  0
  1 10  1  0
  3 11  1  0
  4 12  1  0
  5 13  1  0
  6 14  1  0
  7 15  1  0
  8 16  1  0
  9 17  1  0
M  END
