
     RDKit          3D

 17 17  0  0  0  0  0  0  0  0999 V2000
   -1.5298    2.3378   -0.1040 C   0  0  0  0  0  0  0  0  0  0  0  0
   -1.1124    1.2087   -0.1572 C   0  0  0  0  0  0  0  0  0  0  0  0
   -0.6250   -0.1568   -0.2405 C   0  0  0  0  0  0  0  0  0  0  0  0
   -1.5936   -1.1365   -0.8973 C   0  0  0  0  0  0  0  0  0  0  0  0
    0.1463   -0.6921    0.8847 C   0  0  0  0  0  0  0  0  0  0  0  0
    0.7906   -0.3886   -0.4885 C   0  0  0  0  0  0  0  0  0  0  0  0
    1.1490   -1.5391   -1.2220 O   0  0  0  0  0  0  0  0  0  0  0  0
    1.7766    0.6815   -0.5371 C   0  0  0  0  0  0  0  0  0  0  0  0
    2.5773    1.5810   -0.5805 C   0  0  0  0  0  0  0  0  0  0  0  0
   -1.9168    3.3442   -0.0688 H   0  0  0  0  0  0  0  0  0  0  0  0
   -1.6903   -2.0603   -0.2912 H   0  0  0  0  0  0  0  0  0  0  0  0
   -1.2643   -1.3802   -1.9468 H   0  0  0  0  0  0  0  0  0  0  0  0
   -2.6124   -0.6880   -0.9344 H   0  0  0  0  0  0  0  0  0  0  0  0
    0.0903   -1.7595    1.1687 H   0  0  0  0  0  0  0  0  0  0  0  0
    0.4309    0.0069    1.7094 H   0  0  0  0  0  0  0  0  0  0  0  0
    2.0874   -1.7355   -1.0035 H   0  0  0  0  0  0  0  0  0  0  0  0
    3.2963    2.3765   -0.6024 H   0  0  0  0  0  0  0  0  0  0  0  0
  1  2  3  0
  2  3  1  0
  3  4  1  0
  3  5  1  0
  5  6  1  0
  6  7  1  0
  6  8  1  0
  8  9  3  0
  6  3  1  0
  1 10  1  0
  4 11  1  0
  4 12  1  0
  4 13  1  0
  5 14  1  0
  5 15  1  0
  7 16  1  0
  9 17  1  0
M  END
