
     RDKit          3D

 17 18  0  0  0  0  0  0  0  0999 V2000
    1.9940    1.7260   -1.3653 C   0  0  0  0  0  0  0  0  0  0  0  0
    1.8787    0.5488   -1.1647 C   0  0  0  0  0  0  0  0  0  0  0  0
    1.7580   -0.8653   -0.9196 C   0  0  0  0  0  0  0  0  0  0  0  0
    1.6528   -1.2593    0.3969 O   0  0  0  0  0  0  0  0  0  0  0  0
    0.5248   -1.4635   -0.5107 C   0  0  0  0  0  0  0  0  0  0  0  0
   -0.6808   -0.7300   -0.0348 C   0  0  0  0  0  0  0  0  0  0  0  0
   -1.0613   -1.2239    1.3198 O   0  0  0  0  0  0  0  0  0  0  0  0
   -0.7233    0.1935    1.0473 C   0  0  0  0  0  0  0  0  0  0  0  0
   -1.9740    1.0222    1.2441 C   0  0  0  0  0  0  0  0  0  0  0  0
    2.1050    2.7876   -1.5286 H   0  0  0  0  0  0  0  0  0  0  0  0
    2.4526   -1.4880   -1.5552 H   0  0  0  0  0  0  0  0  0  0  0  0
    0.4065   -2.5750   -0.6414 H   0  0  0  0  0  0  0  0  0  0  0  0
   -1.5532   -0.7931   -0.7242 H   0  0  0  0  0  0  0  0  0  0  0  0
    0.1465    0.5401    1.6204 H   0  0  0  0  0  0  0  0  0  0  0  0
   -2.7454    0.8080    0.4732 H   0  0  0  0  0  0  0  0  0  0  0  0
   -2.4305    0.6709    2.2157 H   0  0  0  0  0  0  0  0  0  0  0  0
   -1.7505    2.1010    1.2958 H   0  0  0  0  0  0  0  0  0  0  0  0
  1  2  3  0
  2  3  1  0
  3  4  1  0
  4  5  1  0
  5  6  1  0
  6  7  1  0
  7  8  1  0
  8  9  1  0
  5  3  1  0
  8  6  1  0
  1 10  1  0
  3 11  1  0
  5 12  1  0
  6 13  1  0
  8 14  1  0
  9 15  1  0
  9 16  1  0
  9 17  1  0
M  END
