
     RDKit          3D

 15 15  0  0  0  0  0  0  0  0999 V2000
    2.5620    2.3727   -0.4213 C   0  0  0  0  0  0  0  0  0  0  0  0
    2.1146    1.2607   -0.2793 C   0  0  0  0  0  0  0  0  0  0  0  0
    1.5688   -0.0638   -0.1006 C   0  0  0  0  0  0  0  0  0  0  0  0
    1.2704   -0.4787    1.2348 O   0  0  0  0  0  0  0  0  0  0  0  0
    0.1636   -0.2509    0.4183 C   0  0  0  0  0  0  0  0  0  0  0  0
   -0.6482   -1.4084   -0.0627 C   0  0  0  0  0  0  0  0  0  0  0  0
   -1.7147   -0.9539   -0.8616 O   0  0  0  0  0  0  0  0  0  0  0  0
   -2.6709   -0.1211   -0.3147 C   0  0  0  0  0  0  0  0  0  0  0  0
   -2.5771    0.2160    0.8876 O   0  0  0  0  0  0  0  0  0  0  0  0
    2.9467    3.3563   -0.5343 H   0  0  0  0  0  0  0  0  0  0  0  0
    1.9660   -0.8595   -0.7680 H   0  0  0  0  0  0  0  0  0  0  0  0
   -0.3591    0.7253    0.5442 H   0  0  0  0  0  0  0  0  0  0  0  0
   -1.0919   -1.9175    0.8362 H   0  0  0  0  0  0  0  0  0  0  0  0
   -0.0115   -2.1373   -0.6143 H   0  0  0  0  0  0  0  0  0  0  0  0
   -3.5188    0.2601   -0.9007 H   0  0  0  0  0  0  0  0  0  0  0  0
  1  2  3  0
  2  3  1  0
  3  4  1  0
  4  5  1  0
  5  6  1  0
  6  7  1  0
  7  8  1  0
  8  9  2  0
  5  3  1  0
  1 10  1  0
  3 11  1  0
  5 12  1  0
  6 13  1  0
  6 14  1  0
  8 15  1  0
M  END
