
     RDKit          3D

 15 14  0  0  0  0  0  0  0  0999 V2000
   -2.4527   -0.1578   -0.7313 C   0  0  0  0  0  0  0  0  0  0  0  0
   -1.5051   -0.0274    0.0461 C   0  0  0  0  0  0  0  0  0  0  0  0
   -0.3114    0.1181    1.0049 C   0  0  0  0  0  0  0  0  0  0  0  0
   -0.4984   -0.9821    1.9625 C   0  0  0  0  0  0  0  0  0  0  0  0
   -0.1298   -1.1383    3.0936 O   0  0  0  0  0  0  0  0  0  0  0  0
    0.8846   -0.1039    0.1124 C   0  0  0  0  0  0  0  0  0  0  0  0
    0.8617    0.8465   -0.8206 O   0  0  0  0  0  0  0  0  0  0  0  0
    1.6006    1.1938   -1.9093 C   0  0  0  0  0  0  0  0  0  0  0  0
    2.5530    0.4950   -2.2351 O   0  0  0  0  0  0  0  0  0  0  0  0
   -3.2955   -0.2547   -1.4253 H   0  0  0  0  0  0  0  0  0  0  0  0
   -0.3698    1.1252    1.3643 H   0  0  0  0  0  0  0  0  0  0  0  0
   -1.1051   -1.8790    1.5890 H   0  0  0  0  0  0  0  0  0  0  0  0
    1.8317   -0.2146    0.6974 H   0  0  0  0  0  0  0  0  0  0  0  0
    0.6916   -1.1504   -0.3458 H   0  0  0  0  0  0  0  0  0  0  0  0
    1.2446    2.1296   -2.4028 H   0  0  0  0  0  0  0  0  0  0  0  0
  1  2  3  0
  2  3  1  0
  3  4  1  0
  4  5  2  0
  3  6  1  0
  6  7  1  0
  7  8  1  0
  8  9  2  0
  1 10  1  0
  3 11  1  0
  4 12  1  0
  6 13  1  0
  6 14  1  0
  8 15  1  0
M  END
