
     RDKit          3D

 19 20  0  0  0  0  0  0  0  0999 V2000
    2.9249    0.5970   -0.9636 C   0  0  0  0  0  0  0  0  0  0  0  0
    1.8743    0.2836   -0.4608 C   0  0  0  0  0  0  0  0  0  0  0  0
    0.6006   -0.0881    0.1617 C   0  0  0  0  0  0  0  0  0  0  0  0
   -0.6110   -0.0625   -0.7473 C   0  0  0  0  0  0  0  0  0  0  0  0
   -0.5620   -0.8967   -1.8379 O   0  0  0  0  0  0  0  0  0  0  0  0
   -1.9889   -0.0305   -0.0676 C   0  0  0  0  0  0  0  0  0  0  0  0
   -1.3990    1.1886   -0.7252 C   0  0  0  0  0  0  0  0  0  0  0  0
    0.6289   -1.0377    1.3051 C   0  0  0  0  0  0  0  0  0  0  0  0
    0.4596    0.4147    1.5809 C   0  0  0  0  0  0  0  0  0  0  0  0
    3.8633    0.8934   -1.4036 H   0  0  0  0  0  0  0  0  0  0  0  0
   -0.0739   -0.5339   -2.6128 H   0  0  0  0  0  0  0  0  0  0  0  0
   -2.8483   -0.4495   -0.6318 H   0  0  0  0  0  0  0  0  0  0  0  0
   -2.0515   -0.1278    1.0126 H   0  0  0  0  0  0  0  0  0  0  0  0
   -1.8176    1.5556   -1.6811 H   0  0  0  0  0  0  0  0  0  0  0  0
   -1.1094    1.9775   -0.0339 H   0  0  0  0  0  0  0  0  0  0  0  0
   -0.2876   -1.6558    1.5084 H   0  0  0  0  0  0  0  0  0  0  0  0
    1.5510   -1.5778    1.5893 H   0  0  0  0  0  0  0  0  0  0  0  0
   -0.4927    0.7995    1.9426 H   0  0  0  0  0  0  0  0  0  0  0  0
    1.3393    0.9174    2.0650 H   0  0  0  0  0  0  0  0  0  0  0  0
  1  2  3  0
  2  3  1  0
  3  4  1  0
  4  5  1  0
  4  6  1  0
  6  7  1  0
  3  8  1  0
  8  9  1  0
  9  3  1  0
  7  4  1  0
  1 10  1  0
  5 11  1  0
  6 12  1  0
  6 13  1  0
  7 14  1  0
  7 15  1  0
  8 16  1  0
  8 17  1  0
  9 18  1  0
  9 19  1  0
M  END
