
     RDKit          3D

 20 20  0  0  0  0  0  0  0  0999 V2000
    3.6717   -0.1952    0.1297 C   0  0  0  0  0  0  0  0  0  0  0  0
    2.5417   -0.0713    0.5341 C   0  0  0  0  0  0  0  0  0  0  0  0
    1.1533    0.0992    1.0154 C   0  0  0  0  0  0  0  0  0  0  0  0
    0.2944    0.3893   -0.1931 C   0  0  0  0  0  0  0  0  0  0  0  0
   -1.1801    0.5917    0.1457 C   0  0  0  0  0  0  0  0  0  0  0  0
   -1.8011    1.7696   -0.5820 C   0  0  0  0  0  0  0  0  0  0  0  0
   -0.7276   -0.5863   -0.6406 C   0  0  0  0  0  0  0  0  0  0  0  0
   -0.7518   -1.9627   -0.0192 C   0  0  0  0  0  0  0  0  0  0  0  0
    4.6792   -0.2962   -0.2188 H   0  0  0  0  0  0  0  0  0  0  0  0
    1.1481    0.9944    1.6501 H   0  0  0  0  0  0  0  0  0  0  0  0
    0.8455   -0.7957    1.5703 H   0  0  0  0  0  0  0  0  0  0  0  0
    0.7574    1.0187   -0.9544 H   0  0  0  0  0  0  0  0  0  0  0  0
   -1.5339    0.3882    1.1591 H   0  0  0  0  0  0  0  0  0  0  0  0
   -2.7071    1.4694   -1.1441 H   0  0  0  0  0  0  0  0  0  0  0  0
   -1.1032    2.2282   -1.3160 H   0  0  0  0  0  0  0  0  0  0  0  0
   -2.0365    2.5431    0.1793 H   0  0  0  0  0  0  0  0  0  0  0  0
   -1.0077   -0.5689   -1.7138 H   0  0  0  0  0  0  0  0  0  0  0  0
   -1.3960   -2.0107    0.8811 H   0  0  0  0  0  0  0  0  0  0  0  0
   -1.1386   -2.7355   -0.7151 H   0  0  0  0  0  0  0  0  0  0  0  0
    0.2925   -2.2693    0.2322 H   0  0  0  0  0  0  0  0  0  0  0  0
  1  2  3  0
  2  3  1  0
  3  4  1  0
  4  5  1  0
  5  6  1  0
  5  7  1  0
  7  8  1  0
  7  4  1  0
  1  9  1  0
  3 10  1  0
  3 11  1  0
  4 12  1  0
  5 13  1  0
  6 14  1  0
  6 15  1  0
  6 16  1  0
  7 17  1  0
  8 18  1  0
  8 19  1  0
  8 20  1  0
M  END
