
     RDKit          3D

 19 19  0  0  0  0  0  0  0  0999 V2000
    4.0677    1.5487    1.5116 C   0  0  0  0  0  0  0  0  0  0  0  0
    2.9000    1.2394    0.6069 C   0  0  0  0  0  0  0  0  0  0  0  0
    1.8975    0.9920   -0.1522 C   0  0  0  0  0  0  0  0  0  0  0  0
    0.8379    0.2185    0.5497 C   0  0  0  0  0  0  0  0  0  0  0  0
    0.6948    0.0599    1.7332 O   0  0  0  0  0  0  0  0  0  0  0  0
   -0.1884   -0.4876   -0.3592 C   0  0  0  0  0  0  0  0  0  0  0  0
   -0.9009   -1.6455    0.2471 C   0  0  0  0  0  0  0  0  0  0  0  0
   -1.5734   -0.2747   -0.0700 C   0  0  0  0  0  0  0  0  0  0  0  0
   -2.8165   -0.3393   -0.7965 C   0  0  0  0  0  0  0  0  0  0  0  0
    4.9726    1.7786    2.1903 H   0  0  0  0  0  0  0  0  0  0  0  0
    1.4332    2.0214   -0.2917 H   0  0  0  0  0  0  0  0  0  0  0  0
    2.1759    0.4337   -1.0937 H   0  0  0  0  0  0  0  0  0  0  0  0
    0.0752   -0.4386   -1.4541 H   0  0  0  0  0  0  0  0  0  0  0  0
   -1.2309   -2.0330    1.1479 H   0  0  0  0  0  0  0  0  0  0  0  0
   -0.8688   -2.4747   -0.5426 H   0  0  0  0  0  0  0  0  0  0  0  0
   -1.6751    0.3901    0.9162 H   0  0  0  0  0  0  0  0  0  0  0  0
   -3.7243    0.0170   -0.1586 H   0  0  0  0  0  0  0  0  0  0  0  0
   -2.9372    0.3490   -1.6891 H   0  0  0  0  0  0  0  0  0  0  0  0
   -3.1391   -1.3548   -1.0512 H   0  0  0  0  0  0  0  0  0  0  0  0
  1  2  3  0
  2  3  1  0
  3  4  1  0
  4  5  2  0
  4  6  1  0
  6  7  1  0
  7  8  1  0
  8  9  1  0
  8  6  1  0
  1 10  1  0
  3 11  1  0
  3 12  1  0
  6 13  1  0
  7 14  1  0
  7 15  1  0
  8 16  1  0
  9 17  1  0
  9 18  1  0
  9 19  1  0
M  END
