
     RDKit          3D

 17 17  0  0  0  0  0  0  0  0999 V2000
    2.0803    1.9167    1.4085 C   0  0  0  0  0  0  0  0  0  0  0  0
    1.4058    0.9120    1.2506 C   0  0  0  0  0  0  0  0  0  0  0  0
    0.6393   -0.2704    1.0770 C   0  0  0  0  0  0  0  0  0  0  0  0
    0.5571   -1.1393    1.9845 O   0  0  0  0  0  0  0  0  0  0  0  0
   -0.0966   -0.5471   -0.1713 C   0  0  0  0  0  0  0  0  0  0  0  0
   -0.0796    0.4276   -1.1315 O   0  0  0  0  0  0  0  0  0  0  0  0
   -0.6765    1.6139   -0.8360 C   0  0  0  0  0  0  0  0  0  0  0  0
    0.1257   -2.0064   -0.6389 C   0  0  0  0  0  0  0  0  0  0  0  0
   -1.2144   -1.5270   -0.1903 C   0  0  0  0  0  0  0  0  0  0  0  0
    2.6538    2.7972    1.5437 H   0  0  0  0  0  0  0  0  0  0  0  0
   -0.5717    2.3197   -1.7147 H   0  0  0  0  0  0  0  0  0  0  0  0
   -0.3686    2.1478    0.0535 H   0  0  0  0  0  0  0  0  0  0  0  0
   -1.7884    1.4364   -0.8166 H   0  0  0  0  0  0  0  0  0  0  0  0
    0.6141   -2.7153    0.0419 H   0  0  0  0  0  0  0  0  0  0  0  0
    0.3320   -2.1587   -1.7108 H   0  0  0  0  0  0  0  0  0  0  0  0
   -2.0041   -1.3490   -0.9453 H   0  0  0  0  0  0  0  0  0  0  0  0
   -1.6082   -1.8581    0.7959 H   0  0  0  0  0  0  0  0  0  0  0  0
  1  2  3  0
  2  3  1  0
  3  4  2  0
  3  5  1  0
  5  6  1  0
  6  7  1  0
  5  8  1  0
  8  9  1  0
  9  5  1  0
  1 10  1  0
  7 11  1  0
  7 12  1  0
  7 13  1  0
  8 14  1  0
  8 15  1  0
  9 16  1  0
  9 17  1  0
M  END
