
     RDKit          3D

 17 17  0  0  0  0  0  0  0  0999 V2000
    2.8055   -0.8579    0.2188 C   0  0  0  0  0  0  0  0  0  0  0  0
    1.7031   -0.3562    0.1119 C   0  0  0  0  0  0  0  0  0  0  0  0
    0.3623    0.2270   -0.0236 C   0  0  0  0  0  0  0  0  0  0  0  0
    0.5222    1.6862   -0.4649 C   0  0  0  0  0  0  0  0  0  0  0  0
   -0.3693    0.1078    1.2383 C   0  0  0  0  0  0  0  0  0  0  0  0
   -1.5092   -0.5389    1.0734 C   0  0  0  0  0  0  0  0  0  0  0  0
   -1.6728   -0.9374   -0.3632 C   0  0  0  0  0  0  0  0  0  0  0  0
   -0.4440   -0.5059   -1.0373 C   0  0  0  0  0  0  0  0  0  0  0  0
   -0.1769   -0.7269   -2.2031 O   0  0  0  0  0  0  0  0  0  0  0  0
    3.7739   -1.2958    0.2979 H   0  0  0  0  0  0  0  0  0  0  0  0
   -0.4833    2.0710   -0.6228 H   0  0  0  0  0  0  0  0  0  0  0  0
    1.0809    1.6593   -1.4115 H   0  0  0  0  0  0  0  0  0  0  0  0
    1.0874    2.2217    0.3309 H   0  0  0  0  0  0  0  0  0  0  0  0
   -0.0367    0.4922    2.1911 H   0  0  0  0  0  0  0  0  0  0  0  0
   -2.2304   -0.7604    1.8369 H   0  0  0  0  0  0  0  0  0  0  0  0
   -1.8207   -2.0475   -0.3980 H   0  0  0  0  0  0  0  0  0  0  0  0
   -2.5921   -0.4385   -0.7748 H   0  0  0  0  0  0  0  0  0  0  0  0
  1  2  3  0
  2  3  1  0
  3  4  1  0
  3  5  1  0
  5  6  2  0
  6  7  1  0
  7  8  1  0
  8  9  2  0
  8  3  1  0
  1 10  1  0
  4 11  1  0
  4 12  1  0
  4 13  1  0
  5 14  1  0
  6 15  1  0
  7 16  1  0
  7 17  1  0
M  END
