
     RDKit          3D

 19 20  0  0  0  0  0  0  0  0999 V2000
    2.9105    1.0391    0.9875 C   0  0  0  0  0  0  0  0  0  0  0  0
    1.7897    0.3294    1.1154 C   0  0  0  0  0  0  0  0  0  0  0  0
    0.6142   -0.4424    1.2493 C   0  0  0  0  0  0  0  0  0  0  0  0
    0.7032   -1.1954   -0.1429 C   0  0  0  0  0  0  0  0  0  0  0  0
    0.7121    0.1272   -0.8707 O   0  0  0  0  0  0  0  0  0  0  0  0
   -0.5948    0.3219   -0.6269 C   0  0  0  0  0  0  0  0  0  0  0  0
   -1.3247   -0.7318   -1.4428 C   0  0  0  0  0  0  0  0  0  0  0  0
   -1.5274    1.0427    0.1129 C   0  0  0  0  0  0  0  0  0  0  0  0
   -0.5458    0.4602    0.8862 C   0  0  0  0  0  0  0  0  0  0  0  0
    3.9663    1.7307    0.8766 H   0  0  0  0  0  0  0  0  0  0  0  0
    0.7252   -1.0240    2.0973 H   0  0  0  0  0  0  0  0  0  0  0  0
   -0.1269   -1.7381   -0.3024 H   0  0  0  0  0  0  0  0  0  0  0  0
    1.7202   -1.5057   -0.3670 H   0  0  0  0  0  0  0  0  0  0  0  0
   -0.7591   -1.2904   -2.1662 H   0  0  0  0  0  0  0  0  0  0  0  0
   -2.1501   -0.1576   -1.9929 H   0  0  0  0  0  0  0  0  0  0  0  0
   -1.9567   -1.3808   -0.7741 H   0  0  0  0  0  0  0  0  0  0  0  0
   -2.5975    0.7529    0.2293 H   0  0  0  0  0  0  0  0  0  0  0  0
   -1.5661    2.1664   -0.1648 H   0  0  0  0  0  0  0  0  0  0  0  0
    0.0076    1.4957    1.2961 H   0  0  0  0  0  0  0  0  0  0  0  0
  1  2  3  0
  2  3  1  0
  3  4  1  0
  4  5  1  0
  5  6  1  0
  6  7  1  0
  6  8  1  0
  8  9  1  0
  9  3  1  0
  9  6  1  0
  1 10  1  0
  3 11  1  0
  4 12  1  0
  4 13  1  0
  7 14  1  0
  7 15  1  0
  7 16  1  0
  8 17  1  0
  8 18  1  0
  9 19  1  0
M  END
