
     RDKit          3D

 21 20  0  0  0  0  0  0  0  0999 V2000
    3.0894    0.9185    1.2427 C   0  0  0  0  0  0  0  0  0  0  0  0
    2.3636    0.0364    0.8421 C   0  0  0  0  0  0  0  0  0  0  0  0
    1.4945   -1.0552    0.3584 C   0  0  0  0  0  0  0  0  0  0  0  0
    2.1961   -1.9432   -0.4342 O   0  0  0  0  0  0  0  0  0  0  0  0
    0.3789   -0.3626   -0.4371 C   0  0  0  0  0  0  0  0  0  0  0  0
   -0.4794   -1.3580   -0.9015 O   0  0  0  0  0  0  0  0  0  0  0  0
   -0.3089    0.5881    0.4948 C   0  0  0  0  0  0  0  0  0  0  0  0
   -1.4379    1.3456   -0.1629 C   0  0  0  0  0  0  0  0  0  0  0  0
   -2.4540    0.3354   -0.6526 C   0  0  0  0  0  0  0  0  0  0  0  0
    3.7323    1.6893    1.5766 H   0  0  0  0  0  0  0  0  0  0  0  0
    1.0770   -1.5483    1.2598 H   0  0  0  0  0  0  0  0  0  0  0  0
    1.5528   -2.3866   -1.0710 H   0  0  0  0  0  0  0  0  0  0  0  0
    0.8138    0.1265   -1.3111 H   0  0  0  0  0  0  0  0  0  0  0  0
   -0.5749   -2.0175   -0.1681 H   0  0  0  0  0  0  0  0  0  0  0  0
    0.3991    1.3505    0.8793 H   0  0  0  0  0  0  0  0  0  0  0  0
   -0.6462    0.0124    1.3727 H   0  0  0  0  0  0  0  0  0  0  0  0
   -1.9680    1.9818    0.5809 H   0  0  0  0  0  0  0  0  0  0  0  0
   -1.1053    2.0104   -0.9599 H   0  0  0  0  0  0  0  0  0  0  0  0
   -2.4698   -0.5559    0.0119 H   0  0  0  0  0  0  0  0  0  0  0  0
   -3.4593    0.8283   -0.6472 H   0  0  0  0  0  0  0  0  0  0  0  0
   -2.1939    0.0039   -1.7013 H   0  0  0  0  0  0  0  0  0  0  0  0
  1  2  3  0
  2  3  1  0
  3  4  1  0
  3  5  1  0
  5  6  1  0
  5  7  1  0
  7  8  1  0
  8  9  1  0
  1 10  1  0
  3 11  1  0
  4 12  1  0
  5 13  1  0
  6 14  1  0
  7 15  1  0
  7 16  1  0
  8 17  1  0
  8 18  1  0
  9 19  1  0
  9 20  1  0
  9 21  1  0
M  END
