
     RDKit          3D

 19 18  0  0  0  0  0  0  0  0999 V2000
   -2.0130    2.7835    0.3750 C   0  0  0  0  0  0  0  0  0  0  0  0
   -1.4789    1.8541   -0.1793 C   0  0  0  0  0  0  0  0  0  0  0  0
   -0.8359    0.6943   -0.8472 C   0  0  0  0  0  0  0  0  0  0  0  0
   -0.1898   -0.1705    0.2008 C   0  0  0  0  0  0  0  0  0  0  0  0
   -1.3494   -0.6063    1.1264 C   0  0  0  0  0  0  0  0  0  0  0  0
    0.3842   -1.2529   -0.4045 O   0  0  0  0  0  0  0  0  0  0  0  0
    1.6802   -1.5307   -0.0944 C   0  0  0  0  0  0  0  0  0  0  0  0
    2.6666   -0.4807   -0.3948 C   0  0  0  0  0  0  0  0  0  0  0  0
    2.4156    0.5974   -0.8888 O   0  0  0  0  0  0  0  0  0  0  0  0
   -2.4871    3.5973    0.8681 H   0  0  0  0  0  0  0  0  0  0  0  0
   -1.6784    0.1732   -1.3570 H   0  0  0  0  0  0  0  0  0  0  0  0
   -0.1618    1.0153   -1.6617 H   0  0  0  0  0  0  0  0  0  0  0  0
    0.4722    0.3925    0.8706 H   0  0  0  0  0  0  0  0  0  0  0  0
   -0.9650   -0.9772    2.0776 H   0  0  0  0  0  0  0  0  0  0  0  0
   -1.9905    0.2953    1.2432 H   0  0  0  0  0  0  0  0  0  0  0  0
   -1.9495   -1.3467    0.5529 H   0  0  0  0  0  0  0  0  0  0  0  0
    1.8049   -1.9339    0.9537 H   0  0  0  0  0  0  0  0  0  0  0  0
    1.9724   -2.4168   -0.7339 H   0  0  0  0  0  0  0  0  0  0  0  0
    3.7033   -0.6870   -0.1552 H   0  0  0  0  0  0  0  0  0  0  0  0
  1  2  3  0
  2  3  1  0
  3  4  1  0
  4  5  1  0
  4  6  1  0
  6  7  1  0
  7  8  1  0
  8  9  2  0
  1 10  1  0
  3 11  1  0
  3 12  1  0
  4 13  1  0
  5 14  1  0
  5 15  1  0
  5 16  1  0
  7 17  1  0
  7 18  1  0
  8 19  1  0
M  END
