
     RDKit          3D

 19 19  0  0  0  0  0  0  0  0999 V2000
    3.7104    0.3771   -0.3644 C   0  0  0  0  0  0  0  0  0  0  0  0
    2.6100   -0.0876   -0.1858 C   0  0  0  0  0  0  0  0  0  0  0  0
    1.2867   -0.6710    0.0418 C   0  0  0  0  0  0  0  0  0  0  0  0
    0.6466   -0.0206    1.2390 C   0  0  0  0  0  0  0  0  0  0  0  0
   -0.7396   -0.2806    1.1351 O   0  0  0  0  0  0  0  0  0  0  0  0
   -1.2200    0.5310    0.1346 C   0  0  0  0  0  0  0  0  0  0  0  0
   -2.7010    0.2701   -0.0112 C   0  0  0  0  0  0  0  0  0  0  0  0
   -0.4558    0.3136   -1.1238 C   0  0  0  0  0  0  0  0  0  0  0  0
    0.4927   -0.6729   -1.0718 O   0  0  0  0  0  0  0  0  0  0  0  0
    4.6774    0.8022   -0.5325 H   0  0  0  0  0  0  0  0  0  0  0  0
    1.4597   -1.7500    0.3279 H   0  0  0  0  0  0  0  0  0  0  0  0
    0.7489    1.0864    1.1455 H   0  0  0  0  0  0  0  0  0  0  0  0
    1.0083   -0.4233    2.1859 H   0  0  0  0  0  0  0  0  0  0  0  0
   -1.1039    1.5857    0.4783 H   0  0  0  0  0  0  0  0  0  0  0  0
   -2.9188   -0.8016   -0.1993 H   0  0  0  0  0  0  0  0  0  0  0  0
   -3.1723    0.8806   -0.8059 H   0  0  0  0  0  0  0  0  0  0  0  0
   -3.1612    0.4921    0.9884 H   0  0  0  0  0  0  0  0  0  0  0  0
    0.0314    1.2677   -1.4597 H   0  0  0  0  0  0  0  0  0  0  0  0
   -1.1995    0.0376   -1.9220 H   0  0  0  0  0  0  0  0  0  0  0  0
  1  2  3  0
  2  3  1  0
  3  4  1  0
  4  5  1  0
  5  6  1  0
  6  7  1  0
  6  8  1  0
  8  9  1  0
  9  3  1  0
  1 10  1  0
  3 11  1  0
  4 12  1  0
  4 13  1  0
  6 14  1  0
  7 15  1  0
  7 16  1  0
  7 17  1  0
  8 18  1  0
  8 19  1  0
M  END
