
     RDKit          3D

 21 21  0  0  0  0  0  0  0  0999 V2000
    2.7482   -0.1292   -3.0331 C   0  0  0  0  0  0  0  0  0  0  0  0
    2.0267    0.5277   -2.2640 C   0  0  0  0  0  0  0  0  0  0  0  0
    1.0998    1.3380   -1.2998 C   0  0  0  0  0  0  0  0  0  0  0  0
    0.1633    0.4703   -1.0469 O   0  0  0  0  0  0  0  0  0  0  0  0
   -0.9116    0.4600   -0.2475 C   0  0  0  0  0  0  0  0  0  0  0  0
   -2.1006   -0.3968   -0.5040 C   0  0  0  0  0  0  0  0  0  0  0  0
   -1.1078   -0.9398    0.4003 C   0  0  0  0  0  0  0  0  0  0  0  0
   -0.9782   -0.8423    1.8749 C   0  0  0  0  0  0  0  0  0  0  0  0
    0.4054   -0.2123    2.1730 C   0  0  0  0  0  0  0  0  0  0  0  0
    3.3665   -0.7093   -3.7189 H   0  0  0  0  0  0  0  0  0  0  0  0
    0.8236    2.2644   -1.8591 H   0  0  0  0  0  0  0  0  0  0  0  0
    1.7202    1.6142   -0.4476 H   0  0  0  0  0  0  0  0  0  0  0  0
   -1.1218    1.3553    0.3683 H   0  0  0  0  0  0  0  0  0  0  0  0
   -2.0710   -0.7785   -1.5932 H   0  0  0  0  0  0  0  0  0  0  0  0
   -3.0887   -0.0080   -0.2775 H   0  0  0  0  0  0  0  0  0  0  0  0
   -0.4462   -1.7715   -0.0098 H   0  0  0  0  0  0  0  0  0  0  0  0
   -1.7128   -0.3283    2.4401 H   0  0  0  0  0  0  0  0  0  0  0  0
   -0.9096   -1.8962    2.3153 H   0  0  0  0  0  0  0  0  0  0  0  0
    0.8447    0.1502    1.2159 H   0  0  0  0  0  0  0  0  0  0  0  0
    0.1922    0.6953    2.7725 H   0  0  0  0  0  0  0  0  0  0  0  0
    1.0575   -0.8631    2.7411 H   0  0  0  0  0  0  0  0  0  0  0  0
  1  2  3  0
  2  3  1  0
  3  4  1  0
  4  5  1  0
  5  6  1  0
  6  7  1  0
  7  8  1  0
  8  9  1  0
  7  5  1  0
  1 10  1  0
  3 11  1  0
  3 12  1  0
  5 13  1  0
  6 14  1  0
  6 15  1  0
  7 16  1  0
  8 17  1  0
  8 18  1  0
  9 19  1  0
  9 20  1  0
  9 21  1  0
M  END
