
     RDKit          3D

 13 13  0  0  0  0  0  0  0  0999 V2000
    2.6460   -0.4346   -0.3299 C   0  0  0  0  0  0  0  0  0  0  0  0
    1.5040   -0.3489    0.0696 C   0  0  0  0  0  0  0  0  0  0  0  0
    0.1150   -0.2436    0.5290 C   0  0  0  0  0  0  0  0  0  0  0  0
   -0.3784   -1.4325    1.0948 O   0  0  0  0  0  0  0  0  0  0  0  0
   -0.4300    1.0446    0.9328 C   0  0  0  0  0  0  0  0  0  0  0  0
   -0.7852    0.5024   -0.4329 C   0  0  0  0  0  0  0  0  0  0  0  0
   -2.1094    0.0678   -0.5796 O   0  0  0  0  0  0  0  0  0  0  0  0
    3.6476   -0.4952   -0.6686 H   0  0  0  0  0  0  0  0  0  0  0  0
   -0.6666   -2.0542    0.3863 H   0  0  0  0  0  0  0  0  0  0  0  0
   -1.2370    1.0127    1.7175 H   0  0  0  0  0  0  0  0  0  0  0  0
    0.1756    1.9692    1.0130 H   0  0  0  0  0  0  0  0  0  0  0  0
   -0.3337    0.9874   -1.3210 H   0  0  0  0  0  0  0  0  0  0  0  0
   -2.1477   -0.5752   -1.3311 H   0  0  0  0  0  0  0  0  0  0  0  0
  1  2  3  0
  2  3  1  0
  3  4  1  0
  3  5  1  0
  5  6  1  0
  6  7  1  0
  6  3  1  0
  1  8  1  0
  4  9  1  0
  5 10  1  0
  5 11  1  0
  6 12  1  0
  7 13  1  0
M  END
