
     RDKit          3D

 15 16  0  0  0  0  0  0  0  0999 V2000
   -1.5581    2.2435    0.3740 C   0  0  0  0  0  0  0  0  0  0  0  0
   -1.5965    0.8294   -0.2193 C   0  0  0  0  0  0  0  0  0  0  0  0
   -1.6065   -0.2479   -0.6794 C   0  0  0  0  0  0  0  0  0  0  0  0
   -0.5439   -0.7970   -1.4528 O   0  0  0  0  0  0  0  0  0  0  0  0
    0.1875   -0.1358   -0.2133 C   0  0  0  0  0  0  0  0  0  0  0  0
    1.2181    0.1421   -0.4321 C   0  0  0  0  0  0  0  0  0  0  0  0
    2.8957    0.5641   -0.7809 C   0  0  0  0  0  0  0  0  0  0  0  0
    0.6702   -1.3490    0.6280 C   0  0  0  0  0  0  0  0  0  0  0  0
   -0.6964   -1.0206    0.5879 C   0  0  0  0  0  0  0  0  0  0  0  0
   -1.5204    3.5113    0.9320 H   0  0  0  0  0  0  0  0  0  0  0  0
   -2.5413   -0.9624   -0.6989 H   0  0  0  0  0  0  0  0  0  0  0  0
    3.9886    0.8322   -0.9975 H   0  0  0  0  0  0  0  0  0  0  0  0
    0.8478   -2.3947    0.2360 H   0  0  0  0  0  0  0  0  0  0  0  0
    1.2352   -0.9631    1.5285 H   0  0  0  0  0  0  0  0  0  0  0  0
   -0.9801   -0.2520    1.6540 H   0  0  0  0  0  0  0  0  0  0  0  0
  1  2  3  0
  2  3  1  0
  3  4  1  0
  4  5  1  0
  5  6  1  0
  6  7  3  0
  5  8  1  0
  8  9  1  0
  9  3  1  0
  9  5  1  0
  1 10  1  0
  3 11  1  0
  7 12  1  0
  8 13  1  0
  8 14  1  0
  9 15  1  0
M  END
