
     RDKit          3D

 16 16  0  0  0  0  0  0  0  0999 V2000
   -3.0111    1.6376   -1.0021 C   0  0  0  0  0  0  0  0  0  0  0  0
   -2.1030    0.8388   -0.8435 C   0  0  0  0  0  0  0  0  0  0  0  0
   -1.0051   -0.1136   -0.6763 C   0  0  0  0  0  0  0  0  0  0  0  0
   -0.5335   -0.1679    0.7341 C   0  0  0  0  0  0  0  0  0  0  0  0
    0.7779   -0.3110    0.6739 C   0  0  0  0  0  0  0  0  0  0  0  0
    1.7267   -0.4153    1.8503 C   0  0  0  0  0  0  0  0  0  0  0  0
    1.1291   -0.3627   -0.7622 C   0  0  0  0  0  0  0  0  0  0  0  0
    0.1339    0.4043   -1.3502 O   0  0  0  0  0  0  0  0  0  0  0  0
   -3.7958    2.3391   -1.1235 H   0  0  0  0  0  0  0  0  0  0  0  0
   -1.2382   -1.1051   -1.0886 H   0  0  0  0  0  0  0  0  0  0  0  0
   -1.1303   -0.1044    1.6163 H   0  0  0  0  0  0  0  0  0  0  0  0
    2.0765   -1.4520    1.9909 H   0  0  0  0  0  0  0  0  0  0  0  0
    2.6083    0.2026    1.6453 H   0  0  0  0  0  0  0  0  0  0  0  0
    1.2441    0.0029    2.7585 H   0  0  0  0  0  0  0  0  0  0  0  0
    2.1444    0.0122   -0.9786 H   0  0  0  0  0  0  0  0  0  0  0  0
    0.9760   -1.4053   -1.1086 H   0  0  0  0  0  0  0  0  0  0  0  0
  1  2  3  0
  2  3  1  0
  3  4  1  0
  4  5  2  0
  5  6  1  0
  5  7  1  0
  7  8  1  0
  8  3  1  0
  1  9  1  0
  3 10  1  0
  4 11  1  0
  6 12  1  0
  6 13  1  0
  6 14  1  0
  7 15  1  0
  7 16  1  0
M  END
