
     RDKit          3D

 21 20  0  0  0  0  0  0  0  0999 V2000
    2.0406    2.7950   -0.2718 C   0  0  0  0  0  0  0  0  0  0  0  0
    1.4981    1.6945    0.2410 C   0  0  0  0  0  0  0  0  0  0  0  0
    0.9934    0.6173    0.7393 C   0  0  0  0  0  0  0  0  0  0  0  0
   -0.1159   -0.1749    0.0867 C   0  0  0  0  0  0  0  0  0  0  0  0
   -1.3469    0.6374   -0.0748 C   0  0  0  0  0  0  0  0  0  0  0  0
   -0.3236   -1.3841    1.0505 C   0  0  0  0  0  0  0  0  0  0  0  0
   -0.6851   -0.8324    2.2513 O   0  0  0  0  0  0  0  0  0  0  0  0
    0.2957   -0.7850   -1.2357 C   0  0  0  0  0  0  0  0  0  0  0  0
   -0.8342   -1.5141   -1.6802 O   0  0  0  0  0  0  0  0  0  0  0  0
    2.4716    3.6451   -0.6803 H   0  0  0  0  0  0  0  0  0  0  0  0
    0.6959    0.6852    1.8584 H   0  0  0  0  0  0  0  0  0  0  0  0
    1.8955   -0.1839    0.8696 H   0  0  0  0  0  0  0  0  0  0  0  0
   -2.1510    0.1367    0.5009 H   0  0  0  0  0  0  0  0  0  0  0  0
   -1.2117    1.6894    0.3704 H   0  0  0  0  0  0  0  0  0  0  0  0
   -1.6550    0.7886   -1.1334 H   0  0  0  0  0  0  0  0  0  0  0  0
    0.6662   -1.8980    1.0310 H   0  0  0  0  0  0  0  0  0  0  0  0
   -1.1123   -2.0159    0.6704 H   0  0  0  0  0  0  0  0  0  0  0  0
   -1.3179   -1.4455    2.6880 H   0  0  0  0  0  0  0  0  0  0  0  0
    1.1100   -1.4817   -1.1158 H   0  0  0  0  0  0  0  0  0  0  0  0
    0.5782   -0.0439   -1.9574 H   0  0  0  0  0  0  0  0  0  0  0  0
   -1.4914   -0.9297   -2.2015 H   0  0  0  0  0  0  0  0  0  0  0  0
  1  2  3  0
  2  3  1  0
  3  4  1  0
  4  5  1  0
  4  6  1  0
  6  7  1  0
  4  8  1  0
  8  9  1  0
  1 10  1  0
  3 11  1  0
  3 12  1  0
  5 13  1  0
  5 14  1  0
  5 15  1  0
  6 16  1  0
  6 17  1  0
  7 18  1  0
  8 19  1  0
  8 20  1  0
  9 21  1  0
M  END
