
     RDKit          3D

 18 18  0  0  0  0  0  0  0  0999 V2000
    2.0098    1.9610   -1.1111 C   0  0  0  0  0  0  0  0  0  0  0  0
    1.5529    0.9987   -1.0854 C   0  0  0  0  0  0  0  0  0  0  0  0
    0.9047   -0.4291   -1.0418 C   0  0  0  0  0  0  0  0  0  0  0  0
   -0.4147   -0.1605   -0.3305 C   0  0  0  0  0  0  0  0  0  0  0  0
   -1.1634    0.7486   -1.0683 O   0  0  0  0  0  0  0  0  0  0  0  0
   -1.1257   -1.3479    0.2186 C   0  0  0  0  0  0  0  0  0  0  0  0
   -0.9066   -0.8035    1.6203 C   0  0  0  0  0  0  0  0  0  0  0  0
   -0.2246    0.4186    1.0677 C   0  0  0  0  0  0  0  0  0  0  0  0
    2.4753    2.9784   -1.1388 H   0  0  0  0  0  0  0  0  0  0  0  0
    0.7442   -0.7171   -2.0543 H   0  0  0  0  0  0  0  0  0  0  0  0
    1.5841   -1.0822   -0.4979 H   0  0  0  0  0  0  0  0  0  0  0  0
   -0.6125    1.2782   -1.6681 H   0  0  0  0  0  0  0  0  0  0  0  0
   -0.5939   -2.3292    0.1267 H   0  0  0  0  0  0  0  0  0  0  0  0
   -2.1853   -1.4035   -0.0513 H   0  0  0  0  0  0  0  0  0  0  0  0
   -1.8565   -0.5596    2.1561 H   0  0  0  0  0  0  0  0  0  0  0  0
   -0.2953   -1.4440    2.2710 H   0  0  0  0  0  0  0  0  0  0  0  0
    0.8474    0.5170    1.3238 H   0  0  0  0  0  0  0  0  0  0  0  0
   -0.7401    1.3760    1.2631 H   0  0  0  0  0  0  0  0  0  0  0  0
  1  2  3  0
  2  3  1  0
  3  4  1  0
  4  5  1  0
  4  6  1  0
  6  7  1  0
  7  8  1  0
  8  4  1  0
  1  9  1  0
  3 10  1  0
  3 11  1  0
  5 12  1  0
  6 13  1  0
  6 14  1  0
  7 15  1  0
  7 16  1  0
  8 17  1  0
  8 18  1  0
M  END
