
     RDKit          3D

 19 20  0  0  0  0  0  0  0  0999 V2000
    3.6655    0.6679   -0.1846 C   0  0  0  0  0  0  0  0  0  0  0  0
    2.4580    0.5938   -0.1821 C   0  0  0  0  0  0  0  0  0  0  0  0
    0.9963    0.5091   -0.1541 C   0  0  0  0  0  0  0  0  0  0  0  0
    0.4329    0.2075    1.2526 C   0  0  0  0  0  0  0  0  0  0  0  0
   -0.7391   -0.2311    0.3758 C   0  0  0  0  0  0  0  0  0  0  0  0
   -1.2661    0.9102   -0.1685 O   0  0  0  0  0  0  0  0  0  0  0  0
   -2.3537    0.6711   -0.9743 C   0  0  0  0  0  0  0  0  0  0  0  0
   -0.8470   -1.4096   -0.3948 C   0  0  0  0  0  0  0  0  0  0  0  0
    0.5000   -0.9061   -0.3488 C   0  0  0  0  0  0  0  0  0  0  0  0
    4.7209    0.7450   -0.1739 H   0  0  0  0  0  0  0  0  0  0  0  0
    0.5197    1.3035   -0.7011 H   0  0  0  0  0  0  0  0  0  0  0  0
    0.2182    1.0803    1.8506 H   0  0  0  0  0  0  0  0  0  0  0  0
    0.9883   -0.5938    1.7298 H   0  0  0  0  0  0  0  0  0  0  0  0
   -2.7843    1.6637   -1.3578 H   0  0  0  0  0  0  0  0  0  0  0  0
   -3.1961    0.1420   -0.4953 H   0  0  0  0  0  0  0  0  0  0  0  0
   -2.0917    0.0726   -1.9019 H   0  0  0  0  0  0  0  0  0  0  0  0
   -1.2264   -1.5507   -1.4236 H   0  0  0  0  0  0  0  0  0  0  0  0
   -1.1441   -2.3402    0.2005 H   0  0  0  0  0  0  0  0  0  0  0  0
    1.1489   -1.5352    0.3473 H   0  0  0  0  0  0  0  0  0  0  0  0
  1  2  3  0
  2  3  1  0
  3  4  1  0
  4  5  1  0
  5  6  1  0
  6  7  1  0
  5  8  1  0
  8  9  1  0
  9  3  1  0
  9  5  1  0
  1 10  1  0
  3 11  1  0
  4 12  1  0
  4 13  1  0
  7 14  1  0
  7 15  1  0
  7 16  1  0
  8 17  1  0
  8 18  1  0
  9 19  1  0
M  END
