
     RDKit          3D

 15 16  0  0  0  0  0  0  0  0999 V2000
    3.1677   -0.2743    0.4887 C   0  0  0  0  0  0  0  0  0  0  0  0
    1.9556   -0.1626    0.4167 C   0  0  0  0  0  0  0  0  0  0  0  0
    0.5243   -0.0112    0.3421 C   0  0  0  0  0  0  0  0  0  0  0  0
   -0.2333    0.7398    1.1104 C   0  0  0  0  0  0  0  0  0  0  0  0
   -1.6544    0.6550    0.7532 C   0  0  0  0  0  0  0  0  0  0  0  0
   -2.3025   -0.5615    0.6812 O   0  0  0  0  0  0  0  0  0  0  0  0
   -1.6699   -0.1616   -0.4987 C   0  0  0  0  0  0  0  0  0  0  0  0
   -0.2937   -0.7309   -0.6716 C   0  0  0  0  0  0  0  0  0  0  0  0
    0.2038   -0.6001   -1.9524 O   0  0  0  0  0  0  0  0  0  0  0  0
    4.2236   -0.3882    0.5431 H   0  0  0  0  0  0  0  0  0  0  0  0
    0.1517    1.3504    1.9148 H   0  0  0  0  0  0  0  0  0  0  0  0
   -2.2623    1.5908    0.7806 H   0  0  0  0  0  0  0  0  0  0  0  0
   -2.2515    0.1795   -1.3558 H   0  0  0  0  0  0  0  0  0  0  0  0
   -0.2888   -1.8277   -0.4379 H   0  0  0  0  0  0  0  0  0  0  0  0
    0.7298    0.2029   -2.1143 H   0  0  0  0  0  0  0  0  0  0  0  0
  1  2  3  0
  2  3  1  0
  3  4  2  0
  4  5  1  0
  5  6  1  0
  6  7  1  0
  7  8  1  0
  8  9  1  0
  8  3  1  0
  7  5  1  0
  1 10  1  0
  4 11  1  0
  5 12  1  0
  7 13  1  0
  8 14  1  0
  9 15  1  0
M  END
