
     RDKit          3D

 17 17  0  0  0  0  0  0  0  0999 V2000
   -0.5581    2.2792   -2.0583 C   0  0  0  0  0  0  0  0  0  0  0  0
   -0.5117    1.1952   -1.5332 C   0  0  0  0  0  0  0  0  0  0  0  0
   -0.4804   -0.1387   -0.8849 C   0  0  0  0  0  0  0  0  0  0  0  0
   -1.5136   -0.1547    0.2092 C   0  0  0  0  0  0  0  0  0  0  0  0
    0.9180   -0.3840   -0.3138 C   0  0  0  0  0  0  0  0  0  0  0  0
    1.1808    0.6358    0.6329 O   0  0  0  0  0  0  0  0  0  0  0  0
    1.3056   -0.3150    1.6444 C   0  0  0  0  0  0  0  0  0  0  0  0
    0.9721   -1.4201    0.7256 C   0  0  0  0  0  0  0  0  0  0  0  0
    0.8104   -2.6137    0.7623 O   0  0  0  0  0  0  0  0  0  0  0  0
   -0.5952    3.2236   -2.5346 H   0  0  0  0  0  0  0  0  0  0  0  0
   -0.7416   -0.8939   -1.6272 H   0  0  0  0  0  0  0  0  0  0  0  0
   -1.5473    0.8153    0.7089 H   0  0  0  0  0  0  0  0  0  0  0  0
   -2.5279   -0.3945   -0.1667 H   0  0  0  0  0  0  0  0  0  0  0  0
   -1.2753   -0.9131    1.0111 H   0  0  0  0  0  0  0  0  0  0  0  0
    1.7028   -0.3871   -1.0669 H   0  0  0  0  0  0  0  0  0  0  0  0
    0.5225   -0.1682    2.4155 H   0  0  0  0  0  0  0  0  0  0  0  0
    2.3389   -0.3661    2.0755 H   0  0  0  0  0  0  0  0  0  0  0  0
  1  2  3  0
  2  3  1  0
  3  4  1  0
  3  5  1  0
  5  6  1  0
  6  7  1  0
  7  8  1  0
  8  9  2  0
  8  5  1  0
  1 10  1  0
  3 11  1  0
  4 12  1  0
  4 13  1  0
  4 14  1  0
  5 15  1  0
  7 16  1  0
  7 17  1  0
M  END
