
     RDKit          3D

 19 18  0  0  0  0  0  0  0  0999 V2000
    3.9083   -0.1539   -0.2842 C   0  0  0  0  0  0  0  0  0  0  0  0
    3.1655   -0.2506   -0.3760 C   0  0  0  0  0  0  0  0  0  0  0  0
    1.6797   -0.4439   -0.5474 C   0  0  0  0  0  0  0  0  0  0  0  0
    0.6537   -0.5625   -0.6718 C   0  0  0  0  0  0  0  0  0  0  0  0
   -0.5431   -0.7041   -0.8158 C   0  0  0  0  0  0  0  0  0  0  0  0
   -0.3978    1.0552    0.3047 C   0  0  0  0  0  0  0  0  0  0  0  0
   -0.8505    0.5872   -2.0081 C   0  0  0  0  0  0  0  0  0  0  0  0
   -1.8412   -0.4589   -0.2648 O   0  0  0  0  0  0  0  0  0  0  0  0
   -1.9071   -0.9831    0.9920 C   0  0  0  0  0  0  0  0  0  0  0  0
    5.5603    0.0829   -0.0913 H   0  0  0  0  0  0  0  0  0  0  0  0
   -1.3771    1.2156    0.0576 H   0  0  0  0  0  0  0  0  0  0  0  0
    0.4027    1.2983   -0.3250 H   0  0  0  0  0  0  0  0  0  0  0  0
   -0.0865    0.3829    1.1139 H   0  0  0  0  0  0  0  0  0  0  0  0
    0.1918    1.0846   -1.8791 H   0  0  0  0  0  0  0  0  0  0  0  0
   -1.0340    0.1306   -2.8626 H   0  0  0  0  0  0  0  0  0  0  0  0
   -1.4807    1.2999   -1.4975 H   0  0  0  0  0  0  0  0  0  0  0  0
   -1.6984   -2.1212    1.0738 H   0  0  0  0  0  0  0  0  0  0  0  0
   -3.0196   -0.9327    1.3313 H   0  0  0  0  0  0  0  0  0  0  0  0
   -1.3259   -0.5263    1.8284 H   0  0  0  0  0  0  0  0  0  0  0  0
  1  2  3  0
  2  3  1  0
  3  4  3  0
  4  5  1  0
  5  6  1  0
  5  7  1  0
  5  8  1  0
  8  9  1  0
  1 10  1  0
  6 11  1  0
  6 12  1  0
  6 13  1  0
  7 14  1  0
  7 15  1  0
  7 16  1  0
  9 17  1  0
  9 18  1  0
  9 19  1  0
M  END
