
     RDKit          3D

 20 19  0  0  0  0  0  0  0  0999 V2000
    3.8045    1.7480    0.6918 C   0  0  0  0  0  0  0  0  0  0  0  0
    2.5445    0.1459    1.4246 C   0  0  0  0  0  0  0  0  0  0  0  0
    1.9155   -0.6613    1.8087 C   0  0  0  0  0  0  0  0  0  0  0  0
    0.9285   -0.3288    0.6154 C   0  0  0  0  0  0  0  0  0  0  0  0
    0.3926   -0.1819   -0.6435 C   0  0  0  0  0  0  0  0  0  0  0  0
   -0.7400    0.6596   -0.8674 O   0  0  0  0  0  0  0  0  0  0  0  0
   -1.8517    0.0828   -0.5151 C   0  0  0  0  0  0  0  0  0  0  0  0
   -3.1563    0.6801   -1.0547 C   0  0  0  0  0  0  0  0  0  0  0  0
    4.6491    2.8131    0.1972 H   0  0  0  0  0  0  0  0  0  0  0  0
    1.6013   -0.8803    2.7548 H   0  0  0  0  0  0  0  0  0  0  0  0
    2.4523   -1.6636    1.2631 H   0  0  0  0  0  0  0  0  0  0  0  0
    1.3914   -1.6670    0.1659 H   0  0  0  0  0  0  0  0  0  0  0  0
    0.0475   -0.9586    1.1799 H   0  0  0  0  0  0  0  0  0  0  0  0
    1.0934   -0.0781   -1.5187 H   0  0  0  0  0  0  0  0  0  0  0  0
   -0.2386   -1.1388   -0.9532 H   0  0  0  0  0  0  0  0  0  0  0  0
   -2.0165   -1.0827   -0.9664 H   0  0  0  0  0  0  0  0  0  0  0  0
   -2.2102   -0.1923    0.5446 H   0  0  0  0  0  0  0  0  0  0  0  0
   -3.5902    1.3078    0.0232 H   0  0  0  0  0  0  0  0  0  0  0  0
   -3.9728   -0.0332   -1.1069 H   0  0  0  0  0  0  0  0  0  0  0  0
   -3.0442    1.4293   -1.7776 H   0  0  0  0  0  0  0  0  0  0  0  0
  1  2  3  0
  2  3  1  0
  3  4  1  0
  4  5  1  0
  5  6  1  0
  6  7  1  0
  7  8  1  0
  1  9  1  0
  3 10  1  0
  3 11  1  0
  4 12  1  0
  4 13  1  0
  5 14  1  0
  5 15  1  0
  7 16  1  0
  7 17  1  0
  8 18  1  0
  8 19  1  0
  8 20  1  0
M  END
