
     RDKit          3D

 21 22  0  0  0  0  0  0  0  0999 V2000
    3.0514   -0.4903    1.0942 C   0  0  0  0  0  0  0  0  0  0  0  0
    2.0894    0.1216    0.7019 C   0  0  0  0  0  0  0  0  0  0  0  0
    0.9220    0.8646    0.1985 C   0  0  0  0  0  0  0  0  0  0  0  0
    0.0941    1.3380    1.3802 C   0  0  0  0  0  0  0  0  0  0  0  0
   -0.7372    0.0644    1.2023 C   0  0  0  0  0  0  0  0  0  0  0  0
   -0.2178    0.0442   -0.1844 C   0  0  0  0  0  0  0  0  0  0  0  0
   -1.1304    0.4909   -1.2796 C   0  0  0  0  0  0  0  0  0  0  0  0
   -1.4528   -0.9881   -1.4461 C   0  0  0  0  0  0  0  0  0  0  0  0
   -0.0559   -1.2450   -0.8770 C   0  0  0  0  0  0  0  0  0  0  0  0
    3.9173   -1.0220    1.4543 H   0  0  0  0  0  0  0  0  0  0  0  0
    1.2350    1.6914   -0.4956 H   0  0  0  0  0  0  0  0  0  0  0  0
   -0.5749    2.1999    1.0981 H   0  0  0  0  0  0  0  0  0  0  0  0
    0.6146    1.4282    2.3294 H   0  0  0  0  0  0  0  0  0  0  0  0
   -1.8140    0.2086    1.3579 H   0  0  0  0  0  0  0  0  0  0  0  0
   -0.2807   -0.7369    1.8408 H   0  0  0  0  0  0  0  0  0  0  0  0
   -1.9764    1.1289   -1.0063 H   0  0  0  0  0  0  0  0  0  0  0  0
   -0.5324    0.8225   -2.1631 H   0  0  0  0  0  0  0  0  0  0  0  0
   -2.2396   -1.2645   -0.7171 H   0  0  0  0  0  0  0  0  0  0  0  0
   -1.6076   -1.3272   -2.4715 H   0  0  0  0  0  0  0  0  0  0  0  0
    0.0310   -2.1594   -0.2849 H   0  0  0  0  0  0  0  0  0  0  0  0
    0.6647   -1.1700   -1.7319 H   0  0  0  0  0  0  0  0  0  0  0  0
  1  2  3  0
  2  3  1  0
  3  4  1  0
  4  5  1  0
  5  6  1  0
  6  7  1  0
  7  8  1  0
  8  9  1  0
  6  3  1  0
  9  6  1  0
  1 10  1  0
  3 11  1  0
  4 12  1  0
  4 13  1  0
  5 14  1  0
  5 15  1  0
  7 16  1  0
  7 17  1  0
  8 18  1  0
  8 19  1  0
  9 20  1  0
  9 21  1  0
M  END
