
     RDKit          3D

 15 16  0  0  0  0  0  0  0  0999 V2000
    2.3972    0.1413    1.6118 C   0  0  0  0  0  0  0  0  0  0  0  0
    1.4324   -0.2371    0.9783 C   0  0  0  0  0  0  0  0  0  0  0  0
    0.2578   -0.7023    0.2357 C   0  0  0  0  0  0  0  0  0  0  0  0
    0.2207   -0.2979   -1.2055 C   0  0  0  0  0  0  0  0  0  0  0  0
   -1.2787   -0.4047   -1.0939 C   0  0  0  0  0  0  0  0  0  0  0  0
   -0.8485    0.3528    0.1378 C   0  0  0  0  0  0  0  0  0  0  0  0
   -1.5682    0.7347    1.0909 O   0  0  0  0  0  0  0  0  0  0  0  0
    0.0594    1.0784   -0.7231 C   0  0  0  0  0  0  0  0  0  0  0  0
    0.4320    2.2123   -0.8933 O   0  0  0  0  0  0  0  0  0  0  0  0
    3.2310    0.4716    2.1793 H   0  0  0  0  0  0  0  0  0  0  0  0
   -0.0917   -1.7081    0.4831 H   0  0  0  0  0  0  0  0  0  0  0  0
    0.7911   -0.6355   -1.9543 H   0  0  0  0  0  0  0  0  0  0  0  0
   -1.6635   -1.4106   -0.9420 H   0  0  0  0  0  0  0  0  0  0  0  0
   -1.8539    0.2311   -1.8057 H   0  0  0  0  0  0  0  0  0  0  0  0
   -1.5168    0.1740    1.9009 H   0  0  0  0  0  0  0  0  0  0  0  0
  1  2  3  0
  2  3  1  0
  3  4  1  0
  4  5  1  0
  5  6  1  0
  6  7  1  0
  6  8  1  0
  8  9  2  0
  6  3  1  0
  8  4  1  0
  1 10  1  0
  3 11  1  0
  4 12  1  0
  5 13  1  0
  5 14  1  0
  7 15  1  0
M  END
