
     RDKit          3D

 17 18  0  0  0  0  0  0  0  0999 V2000
    2.5527    0.9289    1.3675 C   0  0  0  0  0  0  0  0  0  0  0  0
    1.7589    0.4676    0.5731 C   0  0  0  0  0  0  0  0  0  0  0  0
    0.8092   -0.1011   -0.3853 C   0  0  0  0  0  0  0  0  0  0  0  0
    1.2809   -1.0514   -1.2594 O   0  0  0  0  0  0  0  0  0  0  0  0
   -0.3726    0.6757   -0.7842 C   0  0  0  0  0  0  0  0  0  0  0  0
   -1.1166    1.5020    0.2268 C   0  0  0  0  0  0  0  0  0  0  0  0
   -1.0437    0.4901    1.1853 O   0  0  0  0  0  0  0  0  0  0  0  0
   -0.5581   -0.3565    0.2182 C   0  0  0  0  0  0  0  0  0  0  0  0
   -1.1262   -1.6994    0.0024 C   0  0  0  0  0  0  0  0  0  0  0  0
    3.2370    1.3471    2.0639 H   0  0  0  0  0  0  0  0  0  0  0  0
    1.9637   -0.6939   -1.8717 H   0  0  0  0  0  0  0  0  0  0  0  0
   -0.8431    0.5476   -1.7802 H   0  0  0  0  0  0  0  0  0  0  0  0
   -0.5973    2.4300    0.5625 H   0  0  0  0  0  0  0  0  0  0  0  0
   -2.1628    1.7495   -0.0459 H   0  0  0  0  0  0  0  0  0  0  0  0
   -0.7794   -2.3666    0.8389 H   0  0  0  0  0  0  0  0  0  0  0  0
   -2.2372   -1.7456    0.0452 H   0  0  0  0  0  0  0  0  0  0  0  0
   -0.7655   -2.1239   -0.9571 H   0  0  0  0  0  0  0  0  0  0  0  0
  1  2  3  0
  2  3  1  0
  3  4  1  0
  3  5  1  0
  5  6  1  0
  6  7  1  0
  7  8  1  0
  8  9  1  0
  8  3  1  0
  8  5  1  0
  1 10  1  0
  4 11  1  0
  5 12  1  0
  6 13  1  0
  6 14  1  0
  9 15  1  0
  9 16  1  0
  9 17  1  0
M  END
