
     RDKit          3D

 19 19  0  0  0  0  0  0  0  0999 V2000
    4.6377   -0.2217   -0.5323 C   0  0  0  0  0  0  0  0  0  0  0  0
    3.4959   -0.4124   -0.2255 C   0  0  0  0  0  0  0  0  0  0  0  0
    2.1536   -0.6491    0.1519 C   0  0  0  0  0  0  0  0  0  0  0  0
    0.9966   -0.8549    0.4912 C   0  0  0  0  0  0  0  0  0  0  0  0
   -0.3784   -1.1248    0.9015 C   0  0  0  0  0  0  0  0  0  0  0  0
   -1.3445   -1.0660   -0.2236 C   0  0  0  0  0  0  0  0  0  0  0  0
   -1.5000    0.2288   -0.9244 C   0  0  0  0  0  0  0  0  0  0  0  0
   -1.9672    1.4546   -0.2264 C   0  0  0  0  0  0  0  0  0  0  0  0
   -0.5819    1.3549   -0.7550 C   0  0  0  0  0  0  0  0  0  0  0  0
    5.6522   -0.0530   -0.8095 H   0  0  0  0  0  0  0  0  0  0  0  0
   -0.6584   -0.4347    1.7307 H   0  0  0  0  0  0  0  0  0  0  0  0
   -0.4038   -2.1604    1.3459 H   0  0  0  0  0  0  0  0  0  0  0  0
   -0.9951   -1.8319   -0.9833 H   0  0  0  0  0  0  0  0  0  0  0  0
   -2.3611   -1.4022    0.1456 H   0  0  0  0  0  0  0  0  0  0  0  0
   -1.9308    0.1239   -1.9683 H   0  0  0  0  0  0  0  0  0  0  0  0
   -2.6523    2.1553   -0.7469 H   0  0  0  0  0  0  0  0  0  0  0  0
   -2.0769    1.4920    0.8674 H   0  0  0  0  0  0  0  0  0  0  0  0
   -0.3198    1.9788   -1.6634 H   0  0  0  0  0  0  0  0  0  0  0  0
    0.2341    1.4228   -0.0125 H   0  0  0  0  0  0  0  0  0  0  0  0
  1  2  3  0
  2  3  1  0
  3  4  3  0
  4  5  1  0
  5  6  1  0
  6  7  1  0
  7  8  1  0
  8  9  1  0
  9  7  1  0
  1 10  1  0
  5 11  1  0
  5 12  1  0
  6 13  1  0
  6 14  1  0
  7 15  1  0
  8 16  1  0
  8 17  1  0
  9 18  1  0
  9 19  1  0
M  END
