
     RDKit          3D

 23 23  0  0  0  0  0  0  0  0999 V2000
    2.8258    1.6484   -0.1531 C   0  0  0  0  0  0  0  0  0  0  0  0
    2.2712    0.9472   -0.9025 C   0  0  0  0  0  0  0  0  0  0  0  0
    1.5558    0.0109   -1.8689 C   0  0  0  0  0  0  0  0  0  0  0  0
    0.4952   -0.7969   -1.2233 C   0  0  0  0  0  0  0  0  0  0  0  0
   -0.4813    0.1316   -0.4937 C   0  0  0  0  0  0  0  0  0  0  0  0
   -1.7557   -0.6138   -0.1728 C   0  0  0  0  0  0  0  0  0  0  0  0
   -2.1456   -0.0117    1.2088 C   0  0  0  0  0  0  0  0  0  0  0  0
   -0.7934   -0.2913    1.8679 C   0  0  0  0  0  0  0  0  0  0  0  0
    0.1829    0.3036    0.9088 C   0  0  0  0  0  0  0  0  0  0  0  0
    3.3841    2.3575    0.6279 H   0  0  0  0  0  0  0  0  0  0  0  0
    1.2693    0.6270   -2.7398 H   0  0  0  0  0  0  0  0  0  0  0  0
    2.3309   -0.7059   -2.2930 H   0  0  0  0  0  0  0  0  0  0  0  0
    1.0087   -1.4723   -0.4270 H   0  0  0  0  0  0  0  0  0  0  0  0
   -0.0104   -1.4548   -1.9193 H   0  0  0  0  0  0  0  0  0  0  0  0
   -0.6218    1.0894   -0.9521 H   0  0  0  0  0  0  0  0  0  0  0  0
   -2.5675   -0.3187   -0.9054 H   0  0  0  0  0  0  0  0  0  0  0  0
   -1.6297   -1.6899   -0.0067 H   0  0  0  0  0  0  0  0  0  0  0  0
   -2.9710   -0.6027    1.5784 H   0  0  0  0  0  0  0  0  0  0  0  0
   -2.2854    1.0539    1.1411 H   0  0  0  0  0  0  0  0  0  0  0  0
   -0.7444    0.0346    2.9070 H   0  0  0  0  0  0  0  0  0  0  0  0
   -0.6789   -1.4224    1.7437 H   0  0  0  0  0  0  0  0  0  0  0  0
    1.1402   -0.2234    0.9746 H   0  0  0  0  0  0  0  0  0  0  0  0
    0.2211    1.3998    1.0993 H   0  0  0  0  0  0  0  0  0  0  0  0
  1  2  3  0
  2  3  1  0
  3  4  1  0
  4  5  1  0
  5  6  1  0
  6  7  1  0
  7  8  1  0
  8  9  1  0
  9  5  1  0
  1 10  1  0
  3 11  1  0
  3 12  1  0
  4 13  1  0
  4 14  1  0
  5 15  1  0
  6 16  1  0
  6 17  1  0
  7 18  1  0
  7 19  1  0
  8 20  1  0
  8 21  1  0
  9 22  1  0
  9 23  1  0
M  END
