
     RDKit          3D

 15 15  0  0  0  0  0  0  0  0999 V2000
    1.7081    2.0829   -0.3762 C   0  0  0  0  0  0  0  0  0  0  0  0
    1.0119    1.0952   -0.2025 C   0  0  0  0  0  0  0  0  0  0  0  0
    0.2041   -0.0932   -0.0031 C   0  0  0  0  0  0  0  0  0  0  0  0
    0.6965   -1.3076   -0.6241 C   0  0  0  0  0  0  0  0  0  0  0  0
    1.1156   -2.3195   -1.1445 C   0  0  0  0  0  0  0  0  0  0  0  0
   -1.2421    0.1466   -0.3527 C   0  0  0  0  0  0  0  0  0  0  0  0
   -1.4302    0.5997    1.0718 C   0  0  0  0  0  0  0  0  0  0  0  0
   -2.1565    1.3305    1.7042 O   0  0  0  0  0  0  0  0  0  0  0  0
   -0.2708   -0.2830    1.4191 C   0  0  0  0  0  0  0  0  0  0  0  0
    2.3229    2.9361   -0.5321 H   0  0  0  0  0  0  0  0  0  0  0  0
    1.4687   -3.2180   -1.6100 H   0  0  0  0  0  0  0  0  0  0  0  0
   -1.4576    0.9567   -1.0438 H   0  0  0  0  0  0  0  0  0  0  0  0
   -1.7974   -0.7903   -0.4956 H   0  0  0  0  0  0  0  0  0  0  0  0
   -0.5308   -1.3311    1.5965 H   0  0  0  0  0  0  0  0  0  0  0  0
    0.3573    0.1950    2.1677 H   0  0  0  0  0  0  0  0  0  0  0  0
  1  2  3  0
  2  3  1  0
  3  4  1  0
  4  5  3  0
  3  6  1  0
  6  7  1  0
  7  8  2  0
  7  9  1  0
  9  3  1  0
  1 10  1  0
  5 11  1  0
  6 12  1  0
  6 13  1  0
  9 14  1  0
  9 15  1  0
M  END
