
     RDKit          3D

 21 20  0  0  0  0  0  0  0  0999 V2000
    1.0846    1.3959    1.8774 C   0  0  0  0  0  0  0  0  0  0  0  0
   -0.0812    1.1449    1.0175 C   0  0  0  0  0  0  0  0  0  0  0  0
   -1.1010    0.9366    0.2422 C   0  0  0  0  0  0  0  0  0  0  0  0
   -0.6532    2.0024   -0.9797 C   0  0  0  0  0  0  0  0  0  0  0  0
    0.0752    2.7598   -0.8622 O   0  0  0  0  0  0  0  0  0  0  0  0
   -0.4760   -0.2929   -0.6558 C   0  0  0  0  0  0  0  0  0  0  0  0
    0.7171    0.3577   -1.4584 C   0  0  0  0  0  0  0  0  0  0  0  0
    0.2652   -1.2244    0.2163 C   0  0  0  0  0  0  0  0  0  0  0  0
   -0.4702   -2.0287    1.2068 C   0  0  0  0  0  0  0  0  0  0  0  0
    1.9224    1.5954    2.4935 H   0  0  0  0  0  0  0  0  0  0  0  0
   -2.0384    0.8186    0.3811 H   0  0  0  0  0  0  0  0  0  0  0  0
   -1.2874    1.6864   -1.8894 H   0  0  0  0  0  0  0  0  0  0  0  0
   -1.2088   -0.5568   -1.3282 H   0  0  0  0  0  0  0  0  0  0  0  0
    1.2994   -0.5762   -1.7861 H   0  0  0  0  0  0  0  0  0  0  0  0
    1.2913    0.9859   -0.7664 H   0  0  0  0  0  0  0  0  0  0  0  0
    0.3429    0.8029   -2.3590 H   0  0  0  0  0  0  0  0  0  0  0  0
    1.1432   -0.6574    0.7311 H   0  0  0  0  0  0  0  0  0  0  0  0
    0.8875   -1.9217   -0.4504 H   0  0  0  0  0  0  0  0  0  0  0  0
    0.0218   -1.9920    2.2261 H   0  0  0  0  0  0  0  0  0  0  0  0
   -1.5469   -2.0809    1.2067 H   0  0  0  0  0  0  0  0  0  0  0  0
   -0.1877   -3.1554    0.9370 H   0  0  0  0  0  0  0  0  0  0  0  0
  1  2  3  0
  2  3  1  0
  3  4  1  0
  4  5  2  0
  3  6  1  0
  6  7  1  0
  6  8  1  0
  8  9  1  0
  1 10  1  0
  3 11  1  0
  4 12  1  0
  6 13  1  0
  7 14  1  0
  7 15  1  0
  7 16  1  0
  8 17  1  0
  8 18  1  0
  9 19  1  0
  9 20  1  0
  9 21  1  0
M  END
