
     RDKit          3D

 21 21  0  0  0  0  0  0  0  0999 V2000
    3.2220   -1.1101    0.7743 C   0  0  0  0  0  0  0  0  0  0  0  0
    2.2208   -0.4170    0.7104 C   0  0  0  0  0  0  0  0  0  0  0  0
    1.0101    0.4038    0.6312 C   0  0  0  0  0  0  0  0  0  0  0  0
   -0.1547   -0.4656    0.2888 C   0  0  0  0  0  0  0  0  0  0  0  0
   -0.3640   -1.4572    1.2379 O   0  0  0  0  0  0  0  0  0  0  0  0
   -0.0303   -0.9871   -1.1261 C   0  0  0  0  0  0  0  0  0  0  0  0
   -1.0433    0.0382   -1.5556 C   0  0  0  0  0  0  0  0  0  0  0  0
   -1.4234    0.2145   -0.1068 C   0  0  0  0  0  0  0  0  0  0  0  0
   -1.4783    1.6522    0.3634 C   0  0  0  0  0  0  0  0  0  0  0  0
    4.0974   -1.7135    0.8279 H   0  0  0  0  0  0  0  0  0  0  0  0
    1.1964    1.1506   -0.1838 H   0  0  0  0  0  0  0  0  0  0  0  0
    0.8753    0.9235    1.6145 H   0  0  0  0  0  0  0  0  0  0  0  0
    0.3504   -1.5386    1.8960 H   0  0  0  0  0  0  0  0  0  0  0  0
   -0.3790   -2.0338   -1.1807 H   0  0  0  0  0  0  0  0  0  0  0  0
    0.9615   -0.8340   -1.5865 H   0  0  0  0  0  0  0  0  0  0  0  0
   -0.5409    0.9160   -2.0181 H   0  0  0  0  0  0  0  0  0  0  0  0
   -1.8195   -0.4089   -2.1922 H   0  0  0  0  0  0  0  0  0  0  0  0
   -2.3201   -0.3496    0.1775 H   0  0  0  0  0  0  0  0  0  0  0  0
   -1.2263    1.6597    1.4371 H   0  0  0  0  0  0  0  0  0  0  0  0
   -0.7074    2.2272   -0.1826 H   0  0  0  0  0  0  0  0  0  0  0  0
   -2.4469    2.1297    0.1734 H   0  0  0  0  0  0  0  0  0  0  0  0
  1  2  3  0
  2  3  1  0
  3  4  1  0
  4  5  1  0
  4  6  1  0
  6  7  1  0
  7  8  1  0
  8  9  1  0
  8  4  1  0
  1 10  1  0
  3 11  1  0
  3 12  1  0
  5 13  1  0
  6 14  1  0
  6 15  1  0
  7 16  1  0
  7 17  1  0
  8 18  1  0
  9 19  1  0
  9 20  1  0
  9 21  1  0
M  END
