
     RDKit          3D

 19 20  0  0  0  0  0  0  0  0999 V2000
    3.1443    0.2440   -0.6842 C   0  0  0  0  0  0  0  0  0  0  0  0
    1.9775    0.1100   -0.4232 C   0  0  0  0  0  0  0  0  0  0  0  0
    0.6316   -0.0409   -0.0977 C   0  0  0  0  0  0  0  0  0  0  0  0
    0.0842    0.5741    1.1719 C   0  0  0  0  0  0  0  0  0  0  0  0
   -0.9930   -0.5077    1.0089 C   0  0  0  0  0  0  0  0  0  0  0  0
   -1.6726   -0.1240   -0.2602 C   0  0  0  0  0  0  0  0  0  0  0  0
   -0.4406    0.2876   -1.0943 C   0  0  0  0  0  0  0  0  0  0  0  0
   -0.4472    1.6811   -1.2928 O   0  0  0  0  0  0  0  0  0  0  0  0
    0.1619   -1.3761    0.4909 C   0  0  0  0  0  0  0  0  0  0  0  0
    4.1914    0.3460   -0.9226 H   0  0  0  0  0  0  0  0  0  0  0  0
   -0.3136    1.6030    1.0391 H   0  0  0  0  0  0  0  0  0  0  0  0
    0.6466    0.3743    2.0845 H   0  0  0  0  0  0  0  0  0  0  0  0
   -1.5167   -0.8269    1.8632 H   0  0  0  0  0  0  0  0  0  0  0  0
   -2.0821   -1.0272   -0.7570 H   0  0  0  0  0  0  0  0  0  0  0  0
   -2.3940    0.6892   -0.1735 H   0  0  0  0  0  0  0  0  0  0  0  0
   -0.3699   -0.2789   -2.0208 H   0  0  0  0  0  0  0  0  0  0  0  0
   -1.3018    2.0902   -1.0282 H   0  0  0  0  0  0  0  0  0  0  0  0
    0.8135   -1.6827    1.3318 H   0  0  0  0  0  0  0  0  0  0  0  0
   -0.1195   -2.1352   -0.2359 H   0  0  0  0  0  0  0  0  0  0  0  0
  1  2  3  0
  2  3  1  0
  3  4  1  0
  4  5  1  0
  5  6  1  0
  6  7  1  0
  7  8  1  0
  5  9  1  0
  7  3  1  0
  9  3  1  0
  1 10  1  0
  4 11  1  0
  4 12  1  0
  5 13  1  0
  6 14  1  0
  6 15  1  0
  7 16  1  0
  8 17  1  0
  9 18  1  0
  9 19  1  0
M  END
