
     RDKit          3D

 17 17  0  0  0  0  0  0  0  0999 V2000
   -3.2087    2.3177    0.5140 C   0  0  0  0  0  0  0  0  0  0  0  0
   -2.1234    1.1230    0.7477 C   0  0  0  0  0  0  0  0  0  0  0  0
   -1.2255    0.1671    0.9451 C   0  0  0  0  0  0  0  0  0  0  0  0
   -1.2666   -0.8154   -0.1161 O   0  0  0  0  0  0  0  0  0  0  0  0
   -1.1667    0.2982   -0.9839 C   0  0  0  0  0  0  0  0  0  0  0  0
   -0.0308    0.8336   -0.0286 C   0  0  0  0  0  0  0  0  0  0  0  0
    1.0003   -0.1209   -0.1469 C   0  0  0  0  0  0  0  0  0  0  0  0
    1.9961   -1.0112   -0.2637 C   0  0  0  0  0  0  0  0  0  0  0  0
    3.1234   -2.0504   -0.3858 C   0  0  0  0  0  0  0  0  0  0  0  0
   -3.7881    2.9552    0.3941 H   0  0  0  0  0  0  0  0  0  0  0  0
   -0.7339   -0.0724    1.8508 H   0  0  0  0  0  0  0  0  0  0  0  0
   -2.0112    0.9233   -1.1037 H   0  0  0  0  0  0  0  0  0  0  0  0
   -0.6928    0.0127   -1.9568 H   0  0  0  0  0  0  0  0  0  0  0  0
    0.0788    1.8390    0.0562 H   0  0  0  0  0  0  0  0  0  0  0  0
    3.9579   -1.4367    0.1139 H   0  0  0  0  0  0  0  0  0  0  0  0
    3.2767   -2.1327   -1.4748 H   0  0  0  0  0  0  0  0  0  0  0  0
    2.8145   -2.8299    0.2484 H   0  0  0  0  0  0  0  0  0  0  0  0
  1  2  3  0
  2  3  1  0
  3  4  1  0
  4  5  1  0
  5  6  1  0
  6  7  1  0
  7  8  3  0
  8  9  1  0
  6  3  1  0
  1 10  1  0
  3 11  1  0
  5 12  1  0
  5 13  1  0
  6 14  1  0
  9 15  1  0
  9 16  1  0
  9 17  1  0
M  END
