
     RDKit          3D

 23 22  0  0  0  0  0  0  0  0999 V2000
    3.0541    2.9283   -0.2219 C   0  0  0  0  0  0  0  0  0  0  0  0
    2.1841    2.1272    0.3185 C   0  0  0  0  0  0  0  0  0  0  0  0
    1.2386    1.2880    0.8878 C   0  0  0  0  0  0  0  0  0  0  0  0
    0.5251    0.4513   -0.1805 C   0  0  0  0  0  0  0  0  0  0  0  0
   -0.5310   -0.4481    0.3819 C   0  0  0  0  0  0  0  0  0  0  0  0
   -1.1516   -1.1823   -0.8310 C   0  0  0  0  0  0  0  0  0  0  0  0
   -1.7607   -0.1917   -1.7851 C   0  0  0  0  0  0  0  0  0  0  0  0
    0.0310   -1.4899    1.3232 C   0  0  0  0  0  0  0  0  0  0  0  0
   -1.0329   -2.2620    1.7860 O   0  0  0  0  0  0  0  0  0  0  0  0
    3.7708    3.5973   -0.6629 H   0  0  0  0  0  0  0  0  0  0  0  0
    1.6704    0.6163    1.6753 H   0  0  0  0  0  0  0  0  0  0  0  0
    0.4612    1.8741    1.4492 H   0  0  0  0  0  0  0  0  0  0  0  0
    1.3621   -0.1971   -0.6024 H   0  0  0  0  0  0  0  0  0  0  0  0
    0.1820    1.1584   -0.9536 H   0  0  0  0  0  0  0  0  0  0  0  0
   -1.3528    0.0763    0.8720 H   0  0  0  0  0  0  0  0  0  0  0  0
   -1.8456   -1.9440   -0.4462 H   0  0  0  0  0  0  0  0  0  0  0  0
   -0.3282   -1.7243   -1.3643 H   0  0  0  0  0  0  0  0  0  0  0  0
   -2.5947   -0.6190   -2.3756 H   0  0  0  0  0  0  0  0  0  0  0  0
   -2.2231    0.6745   -1.2223 H   0  0  0  0  0  0  0  0  0  0  0  0
   -0.9682    0.2561   -2.4005 H   0  0  0  0  0  0  0  0  0  0  0  0
    0.6350   -2.1621    0.6606 H   0  0  0  0  0  0  0  0  0  0  0  0
    0.5891   -0.9967    2.1122 H   0  0  0  0  0  0  0  0  0  0  0  0
   -1.9146   -1.8305    1.5796 H   0  0  0  0  0  0  0  0  0  0  0  0
  1  2  3  0
  2  3  1  0
  3  4  1  0
  4  5  1  0
  5  6  1  0
  6  7  1  0
  5  8  1  0
  8  9  1  0
  1 10  1  0
  3 11  1  0
  3 12  1  0
  4 13  1  0
  4 14  1  0
  5 15  1  0
  6 16  1  0
  6 17  1  0
  7 18  1  0
  7 19  1  0
  7 20  1  0
  8 21  1  0
  8 22  1  0
  9 23  1  0
M  END
