
     RDKit          3D

 17 17  0  0  0  0  0  0  0  0999 V2000
    2.5184    0.0573    0.7519 C   0  0  0  0  0  0  0  0  0  0  0  0
    1.4889   -0.2879    0.2078 C   0  0  0  0  0  0  0  0  0  0  0  0
    0.2627   -0.6994   -0.4589 C   0  0  0  0  0  0  0  0  0  0  0  0
   -0.6467   -1.3002    0.5910 C   0  0  0  0  0  0  0  0  0  0  0  0
   -1.2806   -0.0686    1.1966 C   0  0  0  0  0  0  0  0  0  0  0  0
   -0.8266    1.0214    0.4986 O   0  0  0  0  0  0  0  0  0  0  0  0
   -0.5193    0.5725   -0.7713 C   0  0  0  0  0  0  0  0  0  0  0  0
    0.2816    1.5366   -1.5490 C   0  0  0  0  0  0  0  0  0  0  0  0
    0.5983    1.2202   -2.6846 O   0  0  0  0  0  0  0  0  0  0  0  0
    3.4060    0.3681    1.2384 H   0  0  0  0  0  0  0  0  0  0  0  0
    0.4099   -1.3357   -1.3283 H   0  0  0  0  0  0  0  0  0  0  0  0
   -1.3841   -1.9400    0.0611 H   0  0  0  0  0  0  0  0  0  0  0  0
   -0.0654   -1.8735    1.3550 H   0  0  0  0  0  0  0  0  0  0  0  0
   -1.0101    0.0665    2.2635 H   0  0  0  0  0  0  0  0  0  0  0  0
   -2.3864   -0.1239    1.1096 H   0  0  0  0  0  0  0  0  0  0  0  0
   -1.4580    0.2870   -1.2846 H   0  0  0  0  0  0  0  0  0  0  0  0
    0.6112    2.4999   -1.1968 H   0  0  0  0  0  0  0  0  0  0  0  0
  1  2  3  0
  2  3  1  0
  3  4  1  0
  4  5  1  0
  5  6  1  0
  6  7  1  0
  7  8  1  0
  8  9  2  0
  7  3  1  0
  1 10  1  0
  3 11  1  0
  4 12  1  0
  4 13  1  0
  5 14  1  0
  5 15  1  0
  7 16  1  0
  8 17  1  0
M  END
