
     RDKit          3D

 21 21  0  0  0  0  0  0  0  0999 V2000
    3.9595   -0.1742   -1.4877 C   0  0  0  0  0  0  0  0  0  0  0  0
    2.8785    0.0206   -0.9348 C   0  0  0  0  0  0  0  0  0  0  0  0
    1.5925    0.2695   -0.2943 C   0  0  0  0  0  0  0  0  0  0  0  0
    0.6944    1.2573   -1.0751 C   0  0  0  0  0  0  0  0  0  0  0  0
    0.3743   -0.2240   -0.9434 C   0  0  0  0  0  0  0  0  0  0  0  0
   -0.8794   -0.5231   -0.1780 C   0  0  0  0  0  0  0  0  0  0  0  0
   -0.7019   -1.5933    0.8647 C   0  0  0  0  0  0  0  0  0  0  0  0
   -1.2851    0.6295    0.5329 O   0  0  0  0  0  0  0  0  0  0  0  0
   -2.5558    0.9554    0.0495 C   0  0  0  0  0  0  0  0  0  0  0  0
    4.9117   -0.3445   -1.9551 H   0  0  0  0  0  0  0  0  0  0  0  0
    1.6355    0.4251    0.8067 H   0  0  0  0  0  0  0  0  0  0  0  0
    0.1630    1.9813   -0.4590 H   0  0  0  0  0  0  0  0  0  0  0  0
    1.0465    1.5825   -2.0756 H   0  0  0  0  0  0  0  0  0  0  0  0
    0.4776   -0.8393   -1.8773 H   0  0  0  0  0  0  0  0  0  0  0  0
   -1.6510   -0.8561   -0.8971 H   0  0  0  0  0  0  0  0  0  0  0  0
    0.3954   -1.8127    0.9052 H   0  0  0  0  0  0  0  0  0  0  0  0
   -1.0674   -1.3048    1.8655 H   0  0  0  0  0  0  0  0  0  0  0  0
   -1.2528   -2.4948    0.5282 H   0  0  0  0  0  0  0  0  0  0  0  0
   -3.2582    0.0897    0.2237 H   0  0  0  0  0  0  0  0  0  0  0  0
   -2.4697    1.1616   -1.0158 H   0  0  0  0  0  0  0  0  0  0  0  0
   -3.0076    1.7942    0.6367 H   0  0  0  0  0  0  0  0  0  0  0  0
  1  2  3  0
  2  3  1  0
  3  4  1  0
  4  5  1  0
  5  6  1  0
  6  7  1  0
  6  8  1  0
  8  9  1  0
  5  3  1  0
  1 10  1  0
  3 11  1  0
  4 12  1  0
  4 13  1  0
  5 14  1  0
  6 15  1  0
  7 16  1  0
  7 17  1  0
  7 18  1  0
  9 19  1  0
  9 20  1  0
  9 21  1  0
M  END
