
     RDKit          3D

 19 20  0  0  0  0  0  0  0  0999 V2000
    3.1657    1.2885    2.2037 C   0  0  0  0  0  0  0  0  0  0  0  0
    2.0120    1.1287    1.9079 C   0  0  0  0  0  0  0  0  0  0  0  0
    0.6037    0.9470    1.5697 C   0  0  0  0  0  0  0  0  0  0  0  0
    0.4739   -0.3977    0.8676 C   0  0  0  0  0  0  0  0  0  0  0  0
    1.2639   -0.3793   -0.2845 O   0  0  0  0  0  0  0  0  0  0  0  0
    0.1793   -0.8361   -1.0072 C   0  0  0  0  0  0  0  0  0  0  0  0
   -1.0056    0.0818   -1.2111 C   0  0  0  0  0  0  0  0  0  0  0  0
   -2.0294   -0.4691   -2.1658 C   0  0  0  0  0  0  0  0  0  0  0  0
   -0.7829   -0.5919    0.0871 C   0  0  0  0  0  0  0  0  0  0  0  0
    4.1998    1.4380    2.4665 H   0  0  0  0  0  0  0  0  0  0  0  0
   -0.0363    1.0250    2.4542 H   0  0  0  0  0  0  0  0  0  0  0  0
    0.2820    1.7497    0.8640 H   0  0  0  0  0  0  0  0  0  0  0  0
    0.7929   -1.2374    1.5198 H   0  0  0  0  0  0  0  0  0  0  0  0
    0.1920   -1.8279   -1.4645 H   0  0  0  0  0  0  0  0  0  0  0  0
   -0.8089    1.1766   -1.2638 H   0  0  0  0  0  0  0  0  0  0  0  0
   -1.5996   -0.9226   -3.0712 H   0  0  0  0  0  0  0  0  0  0  0  0
   -2.6594   -1.1920   -1.5797 H   0  0  0  0  0  0  0  0  0  0  0  0
   -2.7259    0.3769   -2.4098 H   0  0  0  0  0  0  0  0  0  0  0  0
   -1.5171   -1.3582    0.4129 H   0  0  0  0  0  0  0  0  0  0  0  0
  1  2  3  0
  2  3  1  0
  3  4  1  0
  4  5  1  0
  5  6  1  0
  6  7  1  0
  7  8  1  0
  7  9  1  0
  9  4  1  0
  9  6  1  0
  1 10  1  0
  3 11  1  0
  3 12  1  0
  4 13  1  0
  6 14  1  0
  7 15  1  0
  8 16  1  0
  8 17  1  0
  8 18  1  0
  9 19  1  0
M  END
