
     RDKit          3D

 23 22  0  0  0  0  0  0  0  0999 V2000
   -1.4013   -2.3826   -2.0341 C   0  0  0  0  0  0  0  0  0  0  0  0
   -1.3128   -1.1935   -2.0612 C   0  0  0  0  0  0  0  0  0  0  0  0
   -1.1817    0.2375   -2.0972 C   0  0  0  0  0  0  0  0  0  0  0  0
   -2.3333    0.8233   -1.3333 C   0  0  0  0  0  0  0  0  0  0  0  0
    0.1823    0.6905   -1.5522 C   0  0  0  0  0  0  0  0  0  0  0  0
    0.4892    0.3458   -0.3647 O   0  0  0  0  0  0  0  0  0  0  0  0
    0.2684    0.3389    0.8771 C   0  0  0  0  0  0  0  0  0  0  0  0
    1.3084   -0.5110    1.6612 C   0  0  0  0  0  0  0  0  0  0  0  0
    2.7074    0.0068    1.4643 C   0  0  0  0  0  0  0  0  0  0  0  0
   -1.4977   -3.4438   -2.0066 H   0  0  0  0  0  0  0  0  0  0  0  0
   -1.3198    0.6434   -3.1456 H   0  0  0  0  0  0  0  0  0  0  0  0
   -2.6664    1.8008   -1.8035 H   0  0  0  0  0  0  0  0  0  0  0  0
   -3.2069    0.0978   -1.4789 H   0  0  0  0  0  0  0  0  0  0  0  0
   -2.0933    0.9669   -0.2916 H   0  0  0  0  0  0  0  0  0  0  0  0
    0.2136    1.7842   -1.8194 H   0  0  0  0  0  0  0  0  0  0  0  0
    0.9113    0.2028   -2.3019 H   0  0  0  0  0  0  0  0  0  0  0  0
    0.1525    1.3206    1.4376 H   0  0  0  0  0  0  0  0  0  0  0  0
   -0.7046   -0.2127    1.1372 H   0  0  0  0  0  0  0  0  0  0  0  0
    1.0267   -0.4618    2.7299 H   0  0  0  0  0  0  0  0  0  0  0  0
    1.2404   -1.5082    1.2064 H   0  0  0  0  0  0  0  0  0  0  0  0
    2.9944    0.5905    2.3842 H   0  0  0  0  0  0  0  0  0  0  0  0
    2.7919    0.7118    0.6235 H   0  0  0  0  0  0  0  0  0  0  0  0
    3.4313   -0.8482    1.3729 H   0  0  0  0  0  0  0  0  0  0  0  0
  1  2  3  0
  2  3  1  0
  3  4  1  0
  3  5  1  0
  5  6  1  0
  6  7  1  0
  7  8  1  0
  8  9  1  0
  1 10  1  0
  3 11  1  0
  4 12  1  0
  4 13  1  0
  4 14  1  0
  5 15  1  0
  5 16  1  0
  7 17  1  0
  7 18  1  0
  8 19  1  0
  8 20  1  0
  9 21  1  0
  9 22  1  0
  9 23  1  0
M  END
