
     RDKit          3D

 15 14  0  0  0  0  0  0  0  0999 V2000
    4.2239    2.6237   -0.0353 C   0  0  0  0  0  0  0  0  0  0  0  0
    3.4056    1.9271    0.2078 C   0  0  0  0  0  0  0  0  0  0  0  0
    2.3607    1.0295    0.5442 C   0  0  0  0  0  0  0  0  0  0  0  0
    1.4533    0.2455    0.8342 C   0  0  0  0  0  0  0  0  0  0  0  0
    0.4758   -0.6257    1.1410 C   0  0  0  0  0  0  0  0  0  0  0  0
   -0.4123   -1.3672    1.3280 O   0  0  0  0  0  0  0  0  0  0  0  0
   -0.2915   -0.3249   -0.4335 O   0  0  0  0  0  0  0  0  0  0  0  0
   -1.4999   -1.0026   -0.4868 C   0  0  0  0  0  0  0  0  0  0  0  0
   -2.6364   -0.6569    0.3761 C   0  0  0  0  0  0  0  0  0  0  0  0
    4.9833    3.2866   -0.2500 H   0  0  0  0  0  0  0  0  0  0  0  0
   -1.3259   -2.1642   -0.3903 H   0  0  0  0  0  0  0  0  0  0  0  0
   -1.7224   -0.9168   -1.6188 H   0  0  0  0  0  0  0  0  0  0  0  0
   -2.9114   -1.6526    0.9005 H   0  0  0  0  0  0  0  0  0  0  0  0
   -3.6234   -0.5090   -0.2314 H   0  0  0  0  0  0  0  0  0  0  0  0
   -2.4794    0.1077    1.0650 H   0  0  0  0  0  0  0  0  0  0  0  0
  1  2  3  0
  2  3  1  0
  3  4  3  0
  4  5  1  0
  5  6  2  0
  5  7  1  0
  7  8  1  0
  8  9  1  0
  1 10  1  0
  8 11  1  0
  8 12  1  0
  9 13  1  0
  9 14  1  0
  9 15  1  0
M  END
