
     RDKit          3D

 19 19  0  0  0  0  0  0  0  0999 V2000
    2.1947   -0.7981    2.3472 C   0  0  0  0  0  0  0  0  0  0  0  0
    1.1056   -0.5126    1.7389 C   0  0  0  0  0  0  0  0  0  0  0  0
   -0.1106   -0.1767    1.0368 C   0  0  0  0  0  0  0  0  0  0  0  0
    0.1435   -0.1128   -0.4778 C   0  0  0  0  0  0  0  0  0  0  0  0
    1.1655    0.9281   -0.7757 C   0  0  0  0  0  0  0  0  0  0  0  0
    0.6081   -1.3931   -0.8299 O   0  0  0  0  0  0  0  0  0  0  0  0
   -1.1774    0.0793   -1.1538 C   0  0  0  0  0  0  0  0  0  0  0  0
   -2.3807    0.0811   -0.2894 C   0  0  0  0  0  0  0  0  0  0  0  0
   -1.8698    1.2748   -0.9851 O   0  0  0  0  0  0  0  0  0  0  0  0
    3.0506   -1.0158    2.8061 H   0  0  0  0  0  0  0  0  0  0  0  0
   -0.5296    0.7767    1.3968 H   0  0  0  0  0  0  0  0  0  0  0  0
   -0.8710   -0.9941    1.2457 H   0  0  0  0  0  0  0  0  0  0  0  0
    2.1611    0.4399   -0.8411 H   0  0  0  0  0  0  0  0  0  0  0  0
    0.9521    1.4933   -1.7173 H   0  0  0  0  0  0  0  0  0  0  0  0
    1.2255    1.7210    0.0237 H   0  0  0  0  0  0  0  0  0  0  0  0
    1.3586   -1.3639   -1.4579 H   0  0  0  0  0  0  0  0  0  0  0  0
   -1.2988   -0.4234   -2.1265 H   0  0  0  0  0  0  0  0  0  0  0  0
   -3.3361   -0.2862   -0.7185 H   0  0  0  0  0  0  0  0  0  0  0  0
   -2.3913    0.2826    0.7778 H   0  0  0  0  0  0  0  0  0  0  0  0
  1  2  3  0
  2  3  1  0
  3  4  1  0
  4  5  1  0
  4  6  1  0
  4  7  1  0
  7  8  1  0
  8  9  1  0
  9  7  1  0
  1 10  1  0
  3 11  1  0
  3 12  1  0
  5 13  1  0
  5 14  1  0
  5 15  1  0
  6 16  1  0
  7 17  1  0
  8 18  1  0
  8 19  1  0
M  END
