
     RDKit          3D

 17 18  0  0  0  0  0  0  0  0999 V2000
   -1.4930    2.4222    0.2579 C   0  0  0  0  0  0  0  0  0  0  0  0
   -0.8371    1.4241    0.1883 C   0  0  0  0  0  0  0  0  0  0  0  0
   -0.0602    0.2131    0.0849 C   0  0  0  0  0  0  0  0  0  0  0  0
    1.4316    0.3588    0.1857 C   0  0  0  0  0  0  0  0  0  0  0  0
    1.9348    1.1827   -0.8175 O   0  0  0  0  0  0  0  0  0  0  0  0
   -0.5607   -0.8803    1.0231 C   0  0  0  0  0  0  0  0  0  0  0  0
   -0.8448   -1.7033   -0.2419 C   0  0  0  0  0  0  0  0  0  0  0  0
   -1.7407   -1.1567   -1.1248 O   0  0  0  0  0  0  0  0  0  0  0  0
   -0.4428   -0.6896   -1.0652 C   0  0  0  0  0  0  0  0  0  0  0  0
   -2.0877    3.2989    0.3283 H   0  0  0  0  0  0  0  0  0  0  0  0
    1.7647    0.7152    1.1788 H   0  0  0  0  0  0  0  0  0  0  0  0
    1.8676   -0.6582    0.0606 H   0  0  0  0  0  0  0  0  0  0  0  0
    2.8514    0.8440   -1.0253 H   0  0  0  0  0  0  0  0  0  0  0  0
    0.2400   -1.3506    1.6417 H   0  0  0  0  0  0  0  0  0  0  0  0
   -1.4741   -0.6216    1.5795 H   0  0  0  0  0  0  0  0  0  0  0  0
   -0.6191   -2.7747   -0.2303 H   0  0  0  0  0  0  0  0  0  0  0  0
    0.0700   -0.6240   -2.0237 H   0  0  0  0  0  0  0  0  0  0  0  0
  1  2  3  0
  2  3  1  0
  3  4  1  0
  4  5  1  0
  3  6  1  0
  6  7  1  0
  7  8  1  0
  8  9  1  0
  9  3  1  0
  9  7  1  0
  1 10  1  0
  4 11  1  0
  4 12  1  0
  5 13  1  0
  6 14  1  0
  6 15  1  0
  7 16  1  0
  9 17  1  0
M  END
