
     RDKit          3D

 16 16  0  0  0  0  0  0  0  0999 V2000
    2.1069    1.6276   -1.5463 C   0  0  0  0  0  0  0  0  0  0  0  0
    1.3374    0.9842   -0.8592 C   0  0  0  0  0  0  0  0  0  0  0  0
    0.4128    0.2029   -0.0597 C   0  0  0  0  0  0  0  0  0  0  0  0
    0.8263    0.0607    1.2580 O   0  0  0  0  0  0  0  0  0  0  0  0
    0.1892   -1.1488   -0.7175 C   0  0  0  0  0  0  0  0  0  0  0  0
   -1.1766   -1.4721   -0.1785 C   0  0  0  0  0  0  0  0  0  0  0  0
   -1.8183   -0.3686    0.1471 C   0  0  0  0  0  0  0  0  0  0  0  0
   -0.9514    0.8077   -0.1392 C   0  0  0  0  0  0  0  0  0  0  0  0
    2.7890    2.1858   -2.1338 H   0  0  0  0  0  0  0  0  0  0  0  0
    1.8345    0.0843    1.2696 H   0  0  0  0  0  0  0  0  0  0  0  0
    0.0973   -1.0431   -1.7969 H   0  0  0  0  0  0  0  0  0  0  0  0
    0.9553   -1.8509   -0.3675 H   0  0  0  0  0  0  0  0  0  0  0  0
   -1.5144   -2.5030   -0.1000 H   0  0  0  0  0  0  0  0  0  0  0  0
   -2.8186   -0.3627    0.5559 H   0  0  0  0  0  0  0  0  0  0  0  0
   -1.1217    1.6306    0.5849 H   0  0  0  0  0  0  0  0  0  0  0  0
   -1.1476    1.1655   -1.1860 H   0  0  0  0  0  0  0  0  0  0  0  0
  1  2  3  0
  2  3  1  0
  3  4  1  0
  3  5  1  0
  5  6  1  0
  6  7  2  0
  7  8  1  0
  8  3  1  0
  1  9  1  0
  4 10  1  0
  5 11  1  0
  5 12  1  0
  6 13  1  0
  7 14  1  0
  8 15  1  0
  8 16  1  0
M  END
