
     RDKit          3D

 17 18  0  0  0  0  0  0  0  0999 V2000
    2.6859   -0.1447    1.8443 C   0  0  0  0  0  0  0  0  0  0  0  0
    1.8558    0.0241    0.9849 C   0  0  0  0  0  0  0  0  0  0  0  0
    0.8557    0.2350   -0.0186 C   0  0  0  0  0  0  0  0  0  0  0  0
    0.8776    1.0306   -1.1023 C   0  0  0  0  0  0  0  0  0  0  0  0
   -0.4911    0.7527   -1.6601 C   0  0  0  0  0  0  0  0  0  0  0  0
   -1.3866    0.7984   -0.4677 C   0  0  0  0  0  0  0  0  0  0  0  0
   -0.4980   -0.3757   -0.1388 C   0  0  0  0  0  0  0  0  0  0  0  0
   -0.9255   -1.3839    0.7905 C   0  0  0  0  0  0  0  0  0  0  0  0
   -0.5223   -0.6548   -1.5251 O   0  0  0  0  0  0  0  0  0  0  0  0
    3.4179   -0.2752    2.6057 H   0  0  0  0  0  0  0  0  0  0  0  0
    1.6555    1.6826   -1.4676 H   0  0  0  0  0  0  0  0  0  0  0  0
   -0.7619    1.1792   -2.5822 H   0  0  0  0  0  0  0  0  0  0  0  0
   -2.4176    0.5376   -0.7391 H   0  0  0  0  0  0  0  0  0  0  0  0
   -1.2574    1.6582    0.2115 H   0  0  0  0  0  0  0  0  0  0  0  0
   -1.5376   -0.9748    1.6234 H   0  0  0  0  0  0  0  0  0  0  0  0
   -1.5065   -2.2203    0.3490 H   0  0  0  0  0  0  0  0  0  0  0  0
   -0.0439   -1.8690    1.2920 H   0  0  0  0  0  0  0  0  0  0  0  0
  1  2  3  0
  2  3  1  0
  3  4  2  0
  4  5  1  0
  5  6  1  0
  6  7  1  0
  7  8  1  0
  7  9  1  0
  7  3  1  0
  9  5  1  0
  1 10  1  0
  4 11  1  0
  5 12  1  0
  6 13  1  0
  6 14  1  0
  8 15  1  0
  8 16  1  0
  8 17  1  0
M  END
