
     RDKit          3D

 19 20  0  0  0  0  0  0  0  0999 V2000
    3.8507   -0.6129   -0.2325 C   0  0  0  0  0  0  0  0  0  0  0  0
    2.6527   -0.7072   -0.0963 C   0  0  0  0  0  0  0  0  0  0  0  0
    1.1872   -0.7994    0.0815 C   0  0  0  0  0  0  0  0  0  0  0  0
    0.5546    0.3900    0.6880 C   0  0  0  0  0  0  0  0  0  0  0  0
   -0.8244    0.2235    1.2909 C   0  0  0  0  0  0  0  0  0  0  0  0
   -1.7095    0.6158    0.1312 C   0  0  0  0  0  0  0  0  0  0  0  0
   -3.0342    0.3146    0.3223 O   0  0  0  0  0  0  0  0  0  0  0  0
   -1.0820   -0.1997   -1.0022 C   0  0  0  0  0  0  0  0  0  0  0  0
    0.3737    0.0799   -0.8085 C   0  0  0  0  0  0  0  0  0  0  0  0
    4.9012   -0.5204   -0.3674 H   0  0  0  0  0  0  0  0  0  0  0  0
    0.8084   -1.7963    0.3953 H   0  0  0  0  0  0  0  0  0  0  0  0
    1.1433    1.3015    0.9457 H   0  0  0  0  0  0  0  0  0  0  0  0
   -0.8988    0.9157    2.1488 H   0  0  0  0  0  0  0  0  0  0  0  0
   -1.0311   -0.8361    1.5648 H   0  0  0  0  0  0  0  0  0  0  0  0
   -1.5261    1.6700   -0.1055 H   0  0  0  0  0  0  0  0  0  0  0  0
   -3.4802    0.2468   -0.5776 H   0  0  0  0  0  0  0  0  0  0  0  0
   -1.3341   -1.2709   -0.9012 H   0  0  0  0  0  0  0  0  0  0  0  0
   -1.4495    0.2509   -1.9435 H   0  0  0  0  0  0  0  0  0  0  0  0
    0.8982    0.7341   -1.5339 H   0  0  0  0  0  0  0  0  0  0  0  0
  1  2  3  0
  2  3  1  0
  3  4  1  0
  4  5  1  0
  5  6  1  0
  6  7  1  0
  6  8  1  0
  8  9  1  0
  9  3  1  0
  9  4  1  0
  1 10  1  0
  3 11  1  0
  4 12  1  0
  5 13  1  0
  5 14  1  0
  6 15  1  0
  7 16  1  0
  8 17  1  0
  8 18  1  0
  9 19  1  0
M  END
