
     RDKit          3D

 17 17  0  0  0  0  0  0  0  0999 V2000
    3.4372   -1.1784    0.1907 C   0  0  0  0  0  0  0  0  0  0  0  0
    2.3975   -0.5211    0.2352 C   0  0  0  0  0  0  0  0  0  0  0  0
    1.1554    0.2345    0.2842 C   0  0  0  0  0  0  0  0  0  0  0  0
    1.1230    1.5363   -0.3845 C   0  0  0  0  0  0  0  0  0  0  0  0
    1.1056    2.6287   -0.9509 C   0  0  0  0  0  0  0  0  0  0  0  0
    0.4278    0.1950    1.4717 O   0  0  0  0  0  0  0  0  0  0  0  0
   -0.1440   -0.5256    0.4253 C   0  0  0  0  0  0  0  0  0  0  0  0
   -1.2992    0.0536   -0.3273 C   0  0  0  0  0  0  0  0  0  0  0  0
   -2.5563   -0.7748   -0.1278 C   0  0  0  0  0  0  0  0  0  0  0  0
    4.3350   -1.7674    0.1565 H   0  0  0  0  0  0  0  0  0  0  0  0
    1.0787    3.5609   -1.4438 H   0  0  0  0  0  0  0  0  0  0  0  0
   -0.0335   -1.6302    0.5105 H   0  0  0  0  0  0  0  0  0  0  0  0
   -1.0654    0.0260   -1.4130 H   0  0  0  0  0  0  0  0  0  0  0  0
   -1.4608    1.0940    0.0351 H   0  0  0  0  0  0  0  0  0  0  0  0
   -2.3396   -1.4622    0.7340 H   0  0  0  0  0  0  0  0  0  0  0  0
   -2.7781   -1.3611   -1.0324 H   0  0  0  0  0  0  0  0  0  0  0  0
   -3.3833   -0.1081    0.1997 H   0  0  0  0  0  0  0  0  0  0  0  0
  1  2  3  0
  2  3  1  0
  3  4  1  0
  4  5  3  0
  3  6  1  0
  6  7  1  0
  7  8  1  0
  8  9  1  0
  7  3  1  0
  1 10  1  0
  5 11  1  0
  7 12  1  0
  8 13  1  0
  8 14  1  0
  9 15  1  0
  9 16  1  0
  9 17  1  0
M  END
