
     RDKit          3D

 19 20  0  0  0  0  0  0  0  0999 V2000
    2.1533    1.1930    1.4634 C   0  0  0  0  0  0  0  0  0  0  0  0
    1.8501    0.5283    0.5082 C   0  0  0  0  0  0  0  0  0  0  0  0
    1.4649   -0.2574   -0.6339 C   0  0  0  0  0  0  0  0  0  0  0  0
    0.1051   -0.8189   -0.5706 C   0  0  0  0  0  0  0  0  0  0  0  0
   -0.0594   -1.7344    0.6289 C   0  0  0  0  0  0  0  0  0  0  0  0
   -1.4015   -1.2920    0.6873 O   0  0  0  0  0  0  0  0  0  0  0  0
   -0.9984   -0.1434    0.0760 C   0  0  0  0  0  0  0  0  0  0  0  0
   -1.1438    1.1711    0.6114 C   0  0  0  0  0  0  0  0  0  0  0  0
   -1.8610    0.7693   -0.6673 C   0  0  0  0  0  0  0  0  0  0  0  0
    2.4073    1.7776    2.3205 H   0  0  0  0  0  0  0  0  0  0  0  0
    2.1872   -1.1081   -0.7228 H   0  0  0  0  0  0  0  0  0  0  0  0
    1.5726    0.3002   -1.6039 H   0  0  0  0  0  0  0  0  0  0  0  0
   -0.1589   -1.3637   -1.4986 H   0  0  0  0  0  0  0  0  0  0  0  0
    0.0614   -2.8050    0.4321 H   0  0  0  0  0  0  0  0  0  0  0  0
    0.5078   -1.3222    1.4842 H   0  0  0  0  0  0  0  0  0  0  0  0
   -1.8425    1.3075    1.4899 H   0  0  0  0  0  0  0  0  0  0  0  0
   -0.4624    2.0185    0.4974 H   0  0  0  0  0  0  0  0  0  0  0  0
   -1.4377    1.1597   -1.6347 H   0  0  0  0  0  0  0  0  0  0  0  0
   -2.9442    0.6199   -0.6596 H   0  0  0  0  0  0  0  0  0  0  0  0
  1  2  3  0
  2  3  1  0
  3  4  1  0
  4  5  1  0
  5  6  1  0
  6  7  1  0
  7  8  1  0
  8  9  1  0
  7  4  1  0
  9  7  1  0
  1 10  1  0
  3 11  1  0
  3 12  1  0
  4 13  1  0
  5 14  1  0
  5 15  1  0
  8 16  1  0
  8 17  1  0
  9 18  1  0
  9 19  1  0
M  END
