
     RDKit          3D

 21 20  0  0  0  0  0  0  0  0999 V2000
    4.0600    0.3109    0.1556 C   0  0  0  0  0  0  0  0  0  0  0  0
    3.0233   -0.1178    0.6673 C   0  0  0  0  0  0  0  0  0  0  0  0
    1.8096   -0.6462    1.2736 C   0  0  0  0  0  0  0  0  0  0  0  0
    0.7336   -0.6324    0.3937 O   0  0  0  0  0  0  0  0  0  0  0  0
    0.5277    0.6754   -0.0132 C   0  0  0  0  0  0  0  0  0  0  0  0
   -0.6493    0.7846   -0.9491 C   0  0  0  0  0  0  0  0  0  0  0  0
   -1.9171    0.3453   -0.2957 C   0  0  0  0  0  0  0  0  0  0  0  0
   -1.9269   -1.0718    0.1850 C   0  0  0  0  0  0  0  0  0  0  0  0
   -3.0076    0.4920   -1.1659 O   0  0  0  0  0  0  0  0  0  0  0  0
    4.9579    0.6629   -0.2885 H   0  0  0  0  0  0  0  0  0  0  0  0
    1.4955   -0.0388    2.1662 H   0  0  0  0  0  0  0  0  0  0  0  0
    2.0345   -1.6909    1.6136 H   0  0  0  0  0  0  0  0  0  0  0  0
    0.3315    1.3383    0.8632 H   0  0  0  0  0  0  0  0  0  0  0  0
    1.4350    1.1284   -0.5035 H   0  0  0  0  0  0  0  0  0  0  0  0
   -0.4204    0.1956   -1.8630 H   0  0  0  0  0  0  0  0  0  0  0  0
   -0.7748    1.8326   -1.2953 H   0  0  0  0  0  0  0  0  0  0  0  0
   -2.1188    1.0295    0.5723 H   0  0  0  0  0  0  0  0  0  0  0  0
   -2.9811   -1.4168    0.4030 H   0  0  0  0  0  0  0  0  0  0  0  0
   -1.3804   -1.2186    1.1331 H   0  0  0  0  0  0  0  0  0  0  0  0
   -1.5255   -1.7760   -0.5710 H   0  0  0  0  0  0  0  0  0  0  0  0
   -3.7069   -0.1861   -0.9835 H   0  0  0  0  0  0  0  0  0  0  0  0
  1  2  3  0
  2  3  1  0
  3  4  1  0
  4  5  1  0
  5  6  1  0
  6  7  1  0
  7  8  1  0
  7  9  1  0
  1 10  1  0
  3 11  1  0
  3 12  1  0
  5 13  1  0
  5 14  1  0
  6 15  1  0
  6 16  1  0
  7 17  1  0
  8 18  1  0
  8 19  1  0
  8 20  1  0
  9 21  1  0
M  END
