
     RDKit          3D

 19 20  0  0  0  0  0  0  0  0999 V2000
    1.6552    0.6472    3.1050 C   0  0  0  0  0  0  0  0  0  0  0  0
    1.5160    0.2087    2.0156 C   0  0  0  0  0  0  0  0  0  0  0  0
    1.3525   -0.3110    0.6631 C   0  0  0  0  0  0  0  0  0  0  0  0
    0.3336   -1.4631    0.5133 C   0  0  0  0  0  0  0  0  0  0  0  0
    0.1302   -0.1742   -0.0880 C   0  0  0  0  0  0  0  0  0  0  0  0
   -0.9654    0.7724    0.1310 C   0  0  0  0  0  0  0  0  0  0  0  0
   -1.2482    0.6980   -1.3757 C   0  0  0  0  0  0  0  0  0  0  0  0
   -2.1802   -0.2751   -1.6448 O   0  0  0  0  0  0  0  0  0  0  0  0
    0.1606    0.1348   -1.5413 C   0  0  0  0  0  0  0  0  0  0  0  0
    1.7639    1.0450    4.1017 H   0  0  0  0  0  0  0  0  0  0  0  0
    2.3036   -0.4120    0.0815 H   0  0  0  0  0  0  0  0  0  0  0  0
   -0.2461   -1.7311    1.4120 H   0  0  0  0  0  0  0  0  0  0  0  0
    0.6379   -2.3213   -0.1080 H   0  0  0  0  0  0  0  0  0  0  0  0
   -1.8009    0.3602    0.7412 H   0  0  0  0  0  0  0  0  0  0  0  0
   -0.7217    1.7784    0.4903 H   0  0  0  0  0  0  0  0  0  0  0  0
   -1.3592    1.6671   -1.8650 H   0  0  0  0  0  0  0  0  0  0  0  0
   -2.4299   -0.8236   -0.8715 H   0  0  0  0  0  0  0  0  0  0  0  0
    0.8717    0.9444   -1.8507 H   0  0  0  0  0  0  0  0  0  0  0  0
    0.2263   -0.7447   -2.2050 H   0  0  0  0  0  0  0  0  0  0  0  0
  1  2  3  0
  2  3  1  0
  3  4  1  0
  4  5  1  0
  5  6  1  0
  6  7  1  0
  7  8  1  0
  7  9  1  0
  5  3  1  0
  9  5  1  0
  1 10  1  0
  3 11  1  0
  4 12  1  0
  4 13  1  0
  6 14  1  0
  6 15  1  0
  7 16  1  0
  8 17  1  0
  9 18  1  0
  9 19  1  0
M  END
