
     RDKit          3D

 19 19  0  0  0  0  0  0  0  0999 V2000
    2.8543   -0.9258   -1.2587 C   0  0  0  0  0  0  0  0  0  0  0  0
    1.7473   -0.9542   -0.8213 C   0  0  0  0  0  0  0  0  0  0  0  0
    0.3966   -0.9891   -0.2603 C   0  0  0  0  0  0  0  0  0  0  0  0
    0.3604   -0.7004    1.2072 C   0  0  0  0  0  0  0  0  0  0  0  0
    0.9720   -1.0918    2.1891 O   0  0  0  0  0  0  0  0  0  0  0  0
   -0.7443    0.2807    1.0083 C   0  0  0  0  0  0  0  0  0  0  0  0
   -2.1337   -0.2521    1.2486 C   0  0  0  0  0  0  0  0  0  0  0  0
   -0.3722    0.2914   -0.4797 C   0  0  0  0  0  0  0  0  0  0  0  0
    0.4526    1.4982   -0.8370 C   0  0  0  0  0  0  0  0  0  0  0  0
    3.8510   -0.9066   -1.6712 H   0  0  0  0  0  0  0  0  0  0  0  0
   -0.1503   -1.9199   -0.5116 H   0  0  0  0  0  0  0  0  0  0  0  0
   -0.5181    1.2314    1.5134 H   0  0  0  0  0  0  0  0  0  0  0  0
   -2.8230    0.3734    0.6423 H   0  0  0  0  0  0  0  0  0  0  0  0
   -2.3943   -0.2202    2.3075 H   0  0  0  0  0  0  0  0  0  0  0  0
   -2.1815   -1.2786    0.8159 H   0  0  0  0  0  0  0  0  0  0  0  0
   -1.2637    0.1139   -1.1063 H   0  0  0  0  0  0  0  0  0  0  0  0
   -0.0311    2.4451   -0.5317 H   0  0  0  0  0  0  0  0  0  0  0  0
    0.5159    1.5252   -1.9582 H   0  0  0  0  0  0  0  0  0  0  0  0
    1.4620    1.4795   -0.4293 H   0  0  0  0  0  0  0  0  0  0  0  0
  1  2  3  0
  2  3  1  0
  3  4  1  0
  4  5  2  0
  4  6  1  0
  6  7  1  0
  6  8  1  0
  8  9  1  0
  8  3  1  0
  1 10  1  0
  3 11  1  0
  6 12  1  0
  7 13  1  0
  7 14  1  0
  7 15  1  0
  8 16  1  0
  9 17  1  0
  9 18  1  0
  9 19  1  0
M  END
