
     RDKit          3D

 16 15  0  0  0  0  0  0  0  0999 V2000
   -1.5589    2.5508    0.7267 C   0  0  0  0  0  0  0  0  0  0  0  0
   -1.1705    1.4093    0.5703 C   0  0  0  0  0  0  0  0  0  0  0  0
   -0.6892    0.0338    0.3587 C   0  0  0  0  0  0  0  0  0  0  0  0
   -1.8006   -0.7451   -0.2884 C   0  0  0  0  0  0  0  0  0  0  0  0
    0.4472    0.0581   -0.4444 O   0  0  0  0  0  0  0  0  0  0  0  0
    1.4807   -0.5235    0.2873 C   0  0  0  0  0  0  0  0  0  0  0  0
    2.7383   -0.5388   -0.4992 C   0  0  0  0  0  0  0  0  0  0  0  0
    2.7580   -0.0801   -1.6235 O   0  0  0  0  0  0  0  0  0  0  0  0
   -1.9165    3.5449    0.8638 H   0  0  0  0  0  0  0  0  0  0  0  0
   -0.4884   -0.4344    1.3610 H   0  0  0  0  0  0  0  0  0  0  0  0
   -2.3789   -1.3295    0.4841 H   0  0  0  0  0  0  0  0  0  0  0  0
   -1.3883   -1.4921   -1.0220 H   0  0  0  0  0  0  0  0  0  0  0  0
   -2.4494   -0.0420   -0.8438 H   0  0  0  0  0  0  0  0  0  0  0  0
    1.1869   -1.5642    0.6136 H   0  0  0  0  0  0  0  0  0  0  0  0
    1.5775    0.1031    1.2203 H   0  0  0  0  0  0  0  0  0  0  0  0
    3.6519   -0.9503   -0.1006 H   0  0  0  0  0  0  0  0  0  0  0  0
  1  2  3  0
  2  3  1  0
  3  4  1  0
  3  5  1  0
  5  6  1  0
  6  7  1  0
  7  8  2  0
  1  9  1  0
  3 10  1  0
  4 11  1  0
  4 12  1  0
  4 13  1  0
  6 14  1  0
  6 15  1  0
  7 16  1  0
M  END
