
     RDKit          3D

 19 20  0  0  0  0  0  0  0  0999 V2000
    1.4362   -2.7100   -0.9343 C   0  0  0  0  0  0  0  0  0  0  0  0
    1.1725   -1.6345   -0.4573 C   0  0  0  0  0  0  0  0  0  0  0  0
    0.8341   -0.3280    0.1332 C   0  0  0  0  0  0  0  0  0  0  0  0
    1.9170    0.7213    0.1492 C   0  0  0  0  0  0  0  0  0  0  0  0
   -0.0609   -0.3623    1.3961 C   0  0  0  0  0  0  0  0  0  0  0  0
   -0.5855    0.0265    0.1121 C   0  0  0  0  0  0  0  0  0  0  0  0
   -1.1412    1.3239   -0.2801 C   0  0  0  0  0  0  0  0  0  0  0  0
   -2.3196    0.4245   -0.6019 C   0  0  0  0  0  0  0  0  0  0  0  0
   -1.4449   -0.6648   -0.6759 O   0  0  0  0  0  0  0  0  0  0  0  0
    1.6559   -3.6515   -1.3671 H   0  0  0  0  0  0  0  0  0  0  0  0
    1.4480    1.6683    0.5269 H   0  0  0  0  0  0  0  0  0  0  0  0
    2.2800    0.8968   -0.8868 H   0  0  0  0  0  0  0  0  0  0  0  0
    2.7625    0.4601    0.8051 H   0  0  0  0  0  0  0  0  0  0  0  0
   -0.2356   -1.3703    1.8107 H   0  0  0  0  0  0  0  0  0  0  0  0
    0.1313    0.4076    2.1667 H   0  0  0  0  0  0  0  0  0  0  0  0
   -0.7050    1.8535   -1.1333 H   0  0  0  0  0  0  0  0  0  0  0  0
   -1.3702    1.9674    0.6143 H   0  0  0  0  0  0  0  0  0  0  0  0
   -3.0358    0.2778    0.2140 H   0  0  0  0  0  0  0  0  0  0  0  0
   -2.7388    0.6936   -1.5916 H   0  0  0  0  0  0  0  0  0  0  0  0
  1  2  3  0
  2  3  1  0
  3  4  1  0
  3  5  1  0
  5  6  1  0
  6  7  1  0
  7  8  1  0
  8  9  1  0
  6  3  1  0
  9  6  1  0
  1 10  1  0
  4 11  1  0
  4 12  1  0
  4 13  1  0
  5 14  1  0
  5 15  1  0
  7 16  1  0
  7 17  1  0
  8 18  1  0
  8 19  1  0
M  END
