
     RDKit          3D

 16 17  0  0  0  0  0  0  0  0999 V2000
    2.4144    0.9332    0.0587 C   0  0  0  0  0  0  0  0  0  0  0  0
    1.3798    0.3180    0.2836 C   0  0  0  0  0  0  0  0  0  0  0  0
    0.1291   -0.4410    0.5797 C   0  0  0  0  0  0  0  0  0  0  0  0
    0.3496   -1.8580    0.6957 C   0  0  0  0  0  0  0  0  0  0  0  0
   -0.2659   -1.4917   -0.5352 C   0  0  0  0  0  0  0  0  0  0  0  0
   -0.1408   -0.3279   -1.2901 O   0  0  0  0  0  0  0  0  0  0  0  0
   -0.9824    0.1952   -0.2697 C   0  0  0  0  0  0  0  0  0  0  0  0
   -0.9851    1.6920   -0.2113 C   0  0  0  0  0  0  0  0  0  0  0  0
    3.3007    1.4749   -0.1487 H   0  0  0  0  0  0  0  0  0  0  0  0
    1.3907   -2.3014    0.6733 H   0  0  0  0  0  0  0  0  0  0  0  0
   -0.2246   -2.3556    1.5346 H   0  0  0  0  0  0  0  0  0  0  0  0
   -1.3703   -1.7559   -0.5686 H   0  0  0  0  0  0  0  0  0  0  0  0
   -1.9639   -0.2490   -0.1743 H   0  0  0  0  0  0  0  0  0  0  0  0
   -1.4260    2.0498   -1.1865 H   0  0  0  0  0  0  0  0  0  0  0  0
   -1.6308    2.0053    0.6090 H   0  0  0  0  0  0  0  0  0  0  0  0
    0.0257    2.1122   -0.0503 H   0  0  0  0  0  0  0  0  0  0  0  0
  1  2  3  0
  2  3  1  0
  3  4  1  0
  4  5  1  0
  5  6  1  0
  6  7  1  0
  7  8  1  0
  5  3  1  0
  7  3  1  0
  1  9  1  0
  4 10  1  0
  4 11  1  0
  5 12  1  0
  7 13  1  0
  8 14  1  0
  8 15  1  0
  8 16  1  0
M  END
