
     RDKit          3D

 19 18  0  0  0  0  0  0  0  0999 V2000
    4.1761    0.3427    0.3970 C   0  0  0  0  0  0  0  0  0  0  0  0
    2.6752    0.4982   -0.1447 C   0  0  0  0  0  0  0  0  0  0  0  0
    1.5981    0.6122   -0.5197 C   0  0  0  0  0  0  0  0  0  0  0  0
    0.5926    0.1759    0.1273 O   0  0  0  0  0  0  0  0  0  0  0  0
   -0.4380   -0.2696    0.7925 C   0  0  0  0  0  0  0  0  0  0  0  0
   -0.4141   -1.7036    1.3103 C   0  0  0  0  0  0  0  0  0  0  0  0
   -1.7092   -0.0915   -0.0725 C   0  0  0  0  0  0  0  0  0  0  0  0
   -2.2226    0.7804   -0.3945 C   0  0  0  0  0  0  0  0  0  0  0  0
   -2.9745    2.0520   -0.8832 C   0  0  0  0  0  0  0  0  0  0  0  0
    5.2082    0.2375    0.7549 H   0  0  0  0  0  0  0  0  0  0  0  0
    1.4944    1.7293   -1.0456 H   0  0  0  0  0  0  0  0  0  0  0  0
    1.5943    0.0268   -1.7069 H   0  0  0  0  0  0  0  0  0  0  0  0
   -0.7830    0.4526    1.6796 H   0  0  0  0  0  0  0  0  0  0  0  0
    0.5125   -2.2401    1.2220 H   0  0  0  0  0  0  0  0  0  0  0  0
   -0.4807   -1.5604    2.4823 H   0  0  0  0  0  0  0  0  0  0  0  0
   -1.4018   -2.1170    1.0889 H   0  0  0  0  0  0  0  0  0  0  0  0
   -1.4664   -0.9800   -0.9109 H   0  0  0  0  0  0  0  0  0  0  0  0
   -2.4505   -0.8802    0.6890 H   0  0  0  0  0  0  0  0  0  0  0  0
   -3.5107    2.9347   -1.2331 H   0  0  0  0  0  0  0  0  0  0  0  0
  1  2  3  0
  2  3  1  0
  3  4  1  0
  4  5  1  0
  5  6  1  0
  5  7  1  0
  7  8  1  0
  8  9  3  0
  1 10  1  0
  3 11  1  0
  3 12  1  0
  5 13  1  0
  6 14  1  0
  6 15  1  0
  6 16  1  0
  7 17  1  0
  7 18  1  0
  9 19  1  0
M  END
