
     RDKit          3D

 17 17  0  0  0  0  0  0  0  0999 V2000
   -0.2849    3.2180    0.0925 C   0  0  0  0  0  0  0  0  0  0  0  0
   -0.3741    2.0070    0.2578 C   0  0  0  0  0  0  0  0  0  0  0  0
   -0.4758    0.6000    0.4650 C   0  0  0  0  0  0  0  0  0  0  0  0
   -1.6640    0.0240   -0.3569 C   0  0  0  0  0  0  0  0  0  0  0  0
   -0.7064    0.0849   -1.4848 C   0  0  0  0  0  0  0  0  0  0  0  0
   -0.7457    0.3247   -2.6596 O   0  0  0  0  0  0  0  0  0  0  0  0
    0.3275   -0.2896   -0.4938 C   0  0  0  0  0  0  0  0  0  0  0  0
    0.3080   -1.6358   -0.1410 O   0  0  0  0  0  0  0  0  0  0  0  0
    1.5838   -2.1216   -0.1033 C   0  0  0  0  0  0  0  0  0  0  0  0
   -0.1882    4.2942   -0.0626 H   0  0  0  0  0  0  0  0  0  0  0  0
   -0.4654    0.2049    1.4692 H   0  0  0  0  0  0  0  0  0  0  0  0
   -2.4404    0.8259   -0.4948 H   0  0  0  0  0  0  0  0  0  0  0  0
   -2.0135   -0.9494   -0.0240 H   0  0  0  0  0  0  0  0  0  0  0  0
    1.2893    0.1688   -0.6882 H   0  0  0  0  0  0  0  0  0  0  0  0
    2.1147   -2.0472   -1.0825 H   0  0  0  0  0  0  0  0  0  0  0  0
    2.1384   -1.5298    0.6859 H   0  0  0  0  0  0  0  0  0  0  0  0
    1.5966   -3.1789    0.2053 H   0  0  0  0  0  0  0  0  0  0  0  0
  1  2  3  0
  2  3  1  0
  3  4  1  0
  4  5  1  0
  5  6  2  0
  5  7  1  0
  7  8  1  0
  8  9  1  0
  7  3  1  0
  1 10  1  0
  3 11  1  0
  4 12  1  0
  4 13  1  0
  7 14  1  0
  9 15  1  0
  9 16  1  0
  9 17  1  0
M  END
