
     RDKit          3D

 19 20  0  0  0  0  0  0  0  0999 V2000
    3.6116    0.8537   -0.0124 C   0  0  0  0  0  0  0  0  0  0  0  0
    2.4966    0.5091    0.2479 C   0  0  0  0  0  0  0  0  0  0  0  0
    1.1592    0.1077    0.5791 C   0  0  0  0  0  0  0  0  0  0  0  0
    0.6172   -1.0830   -0.1323 C   0  0  0  0  0  0  0  0  0  0  0  0
   -0.7674   -1.2023    0.5033 C   0  0  0  0  0  0  0  0  0  0  0  0
   -1.1871    0.2651    0.2859 C   0  0  0  0  0  0  0  0  0  0  0  0
   -2.2621    0.3417   -0.7449 C   0  0  0  0  0  0  0  0  0  0  0  0
    0.1189    0.7479   -0.3147 C   0  0  0  0  0  0  0  0  0  0  0  0
    0.4298   -0.2415   -1.2379 O   0  0  0  0  0  0  0  0  0  0  0  0
    4.5945    1.1628   -0.2598 H   0  0  0  0  0  0  0  0  0  0  0  0
    0.8598    0.1358    1.6392 H   0  0  0  0  0  0  0  0  0  0  0  0
    1.1930   -1.9657   -0.2506 H   0  0  0  0  0  0  0  0  0  0  0  0
   -1.4147   -1.8929   -0.0166 H   0  0  0  0  0  0  0  0  0  0  0  0
   -0.6651   -1.3334    1.5756 H   0  0  0  0  0  0  0  0  0  0  0  0
   -1.4302    0.7592    1.2342 H   0  0  0  0  0  0  0  0  0  0  0  0
   -2.3510   -0.6419   -1.2377 H   0  0  0  0  0  0  0  0  0  0  0  0
   -3.2344    0.5749   -0.2577 H   0  0  0  0  0  0  0  0  0  0  0  0
   -1.9890    1.1311   -1.4965 H   0  0  0  0  0  0  0  0  0  0  0  0
    0.2202    1.7717   -0.5777 H   0  0  0  0  0  0  0  0  0  0  0  0
  1  2  3  0
  2  3  1  0
  3  4  1  0
  4  5  1  0
  5  6  1  0
  6  7  1  0
  6  8  1  0
  8  9  1  0
  8  3  1  0
  9  4  1  0
  1 10  1  0
  3 11  1  0
  4 12  1  0
  5 13  1  0
  5 14  1  0
  6 15  1  0
  7 16  1  0
  7 17  1  0
  7 18  1  0
  8 19  1  0
M  END
