
     RDKit          3D

 19 18  0  0  0  0  0  0  0  0999 V2000
    4.9208    0.3309    1.0057 C   0  0  0  0  0  0  0  0  0  0  0  0
    4.0610    0.0026    0.7295 C   0  0  0  0  0  0  0  0  0  0  0  0
    2.8407   -0.4509    0.3175 C   0  0  0  0  0  0  0  0  0  0  0  0
    1.5768   -0.9208   -0.0835 C   0  0  0  0  0  0  0  0  0  0  0  0
    0.3902   -1.3526   -0.4368 C   0  0  0  0  0  0  0  0  0  0  0  0
   -0.4414   -0.5716   -1.2539 O   0  0  0  0  0  0  0  0  0  0  0  0
   -1.1983    0.2381   -0.3690 C   0  0  0  0  0  0  0  0  0  0  0  0
   -2.6598   -0.4211   -0.4367 C   0  0  0  0  0  0  0  0  0  0  0  0
   -1.3870    1.6624   -0.7117 C   0  0  0  0  0  0  0  0  0  0  0  0
    6.0317    0.7761    1.3546 H   0  0  0  0  0  0  0  0  0  0  0  0
   -0.3023   -1.4404    0.5505 H   0  0  0  0  0  0  0  0  0  0  0  0
    0.3718   -2.4339   -0.7955 H   0  0  0  0  0  0  0  0  0  0  0  0
   -0.8707    0.1001    0.6940 H   0  0  0  0  0  0  0  0  0  0  0  0
   -3.0953   -0.0391   -1.3967 H   0  0  0  0  0  0  0  0  0  0  0  0
   -3.2029   -0.0992    0.4446 H   0  0  0  0  0  0  0  0  0  0  0  0
   -2.4934   -1.5322   -0.4840 H   0  0  0  0  0  0  0  0  0  0  0  0
   -2.5181    1.8950   -0.7045 H   0  0  0  0  0  0  0  0  0  0  0  0
   -1.0407    1.8433   -1.7427 H   0  0  0  0  0  0  0  0  0  0  0  0
   -0.9832    2.4134    0.0283 H   0  0  0  0  0  0  0  0  0  0  0  0
  1  2  3  0
  2  3  1  0
  3  4  3  0
  4  5  1  0
  5  6  1  0
  6  7  1  0
  7  8  1  0
  7  9  1  0
  1 10  1  0
  5 11  1  0
  5 12  1  0
  7 13  1  0
  8 14  1  0
  8 15  1  0
  8 16  1  0
  9 17  1  0
  9 18  1  0
  9 19  1  0
M  END
