
     RDKit          3D

 17 17  0  0  0  0  0  0  0  0999 V2000
    3.8596    0.6958   -1.1049 C   0  0  0  0  0  0  0  0  0  0  0  0
    2.8803    0.1002   -0.6433 C   0  0  0  0  0  0  0  0  0  0  0  0
    1.7491   -0.6074   -0.1245 C   0  0  0  0  0  0  0  0  0  0  0  0
    1.9652   -1.6478    0.5422 O   0  0  0  0  0  0  0  0  0  0  0  0
    0.3932   -0.0874   -0.3932 C   0  0  0  0  0  0  0  0  0  0  0  0
   -0.6656   -0.9470    0.2719 C   0  0  0  0  0  0  0  0  0  0  0  0
   -2.0078   -0.3264   -0.0626 C   0  0  0  0  0  0  0  0  0  0  0  0
   -2.2705    1.0935    0.3666 C   0  0  0  0  0  0  0  0  0  0  0  0
   -2.8623   -0.0738    1.0551 O   0  0  0  0  0  0  0  0  0  0  0  0
    4.6795    1.2016   -1.4746 H   0  0  0  0  0  0  0  0  0  0  0  0
    0.2938    0.9284    0.0218 H   0  0  0  0  0  0  0  0  0  0  0  0
    0.2316   -0.1496   -1.4883 H   0  0  0  0  0  0  0  0  0  0  0  0
   -0.6288   -1.9849   -0.0846 H   0  0  0  0  0  0  0  0  0  0  0  0
   -0.4943   -0.8397    1.3665 H   0  0  0  0  0  0  0  0  0  0  0  0
   -2.5172   -0.6235   -1.0041 H   0  0  0  0  0  0  0  0  0  0  0  0
   -3.0202    1.6819   -0.1907 H   0  0  0  0  0  0  0  0  0  0  0  0
   -1.5856    1.5860    1.0654 H   0  0  0  0  0  0  0  0  0  0  0  0
  1  2  3  0
  2  3  1  0
  3  4  2  0
  3  5  1  0
  5  6  1  0
  6  7  1  0
  7  8  1  0
  8  9  1  0
  9  7  1  0
  1 10  1  0
  5 11  1  0
  5 12  1  0
  6 13  1  0
  6 14  1  0
  7 15  1  0
  8 16  1  0
  8 17  1  0
M  END
