
     RDKit          3D

 21 20  0  0  0  0  0  0  0  0999 V2000
    2.8983    1.3844    1.5669 C   0  0  0  0  0  0  0  0  0  0  0  0
    2.0379    1.1893    0.5840 C   0  0  0  0  0  0  0  0  0  0  0  0
    1.1116    0.9865   -0.4867 C   0  0  0  0  0  0  0  0  0  0  0  0
    1.5851    0.6217   -1.6443 O   0  0  0  0  0  0  0  0  0  0  0  0
   -0.0904    0.1865    0.1390 C   0  0  0  0  0  0  0  0  0  0  0  0
   -1.2071    0.5061   -0.8902 C   0  0  0  0  0  0  0  0  0  0  0  0
   -2.5386   -0.1092   -0.4408 C   0  0  0  0  0  0  0  0  0  0  0  0
    0.0492   -1.0181    0.4602 O   0  0  0  0  0  0  0  0  0  0  0  0
    0.1927   -2.1434    0.8763 C   0  0  0  0  0  0  0  0  0  0  0  0
    3.6138    1.5341    2.3860 H   0  0  0  0  0  0  0  0  0  0  0  0
    0.6599    2.1322   -0.6347 H   0  0  0  0  0  0  0  0  0  0  0  0
    2.3715    1.2084   -1.9408 H   0  0  0  0  0  0  0  0  0  0  0  0
   -0.2936    0.8708    1.0797 H   0  0  0  0  0  0  0  0  0  0  0  0
   -0.8901    0.1127   -1.8865 H   0  0  0  0  0  0  0  0  0  0  0  0
   -1.2993    1.5667   -0.9769 H   0  0  0  0  0  0  0  0  0  0  0  0
   -3.3028    0.6327   -0.2099 H   0  0  0  0  0  0  0  0  0  0  0  0
   -2.2724   -0.7123    0.5015 H   0  0  0  0  0  0  0  0  0  0  0  0
   -2.9321   -0.8381   -1.1770 H   0  0  0  0  0  0  0  0  0  0  0  0
   -0.4588   -2.5301    1.7006 H   0  0  0  0  0  0  0  0  0  0  0  0
    1.1558   -2.6394    0.9592 H   0  0  0  0  0  0  0  0  0  0  0  0
   -0.3909   -2.9415    0.0342 H   0  0  0  0  0  0  0  0  0  0  0  0
  1  2  3  0
  2  3  1  0
  3  4  1  0
  3  5  1  0
  5  6  1  0
  6  7  1  0
  5  8  1  0
  8  9  1  0
  1 10  1  0
  3 11  1  0
  4 12  1  0
  5 13  1  0
  6 14  1  0
  6 15  1  0
  7 16  1  0
  7 17  1  0
  7 18  1  0
  9 19  1  0
  9 20  1  0
  9 21  1  0
M  END
