
     RDKit          3D

 17 18  0  0  0  0  0  0  0  0999 V2000
    3.1011   -1.0312   -0.9366 C   0  0  0  0  0  0  0  0  0  0  0  0
    2.0214   -0.6528   -0.5488 C   0  0  0  0  0  0  0  0  0  0  0  0
    0.7227   -0.1976   -0.1059 C   0  0  0  0  0  0  0  0  0  0  0  0
   -0.1567   -1.2450    0.5008 C   0  0  0  0  0  0  0  0  0  0  0  0
   -1.3471   -0.8137    0.9315 C   0  0  0  0  0  0  0  0  0  0  0  0
   -1.5856    0.6453    0.8794 C   0  0  0  0  0  0  0  0  0  0  0  0
   -0.4425    1.3222    0.1687 C   0  0  0  0  0  0  0  0  0  0  0  0
   -0.0819    0.6019   -1.0939 C   0  0  0  0  0  0  0  0  0  0  0  0
    0.8068    0.9259    0.6880 O   0  0  0  0  0  0  0  0  0  0  0  0
    4.0536   -1.3506   -1.2904 H   0  0  0  0  0  0  0  0  0  0  0  0
    0.1247   -2.2674    0.5934 H   0  0  0  0  0  0  0  0  0  0  0  0
   -2.1219   -1.4654    1.3058 H   0  0  0  0  0  0  0  0  0  0  0  0
   -2.4938    0.8083    0.2609 H   0  0  0  0  0  0  0  0  0  0  0  0
   -1.6923    1.0834    1.9043 H   0  0  0  0  0  0  0  0  0  0  0  0
   -0.5124    2.4144    0.1025 H   0  0  0  0  0  0  0  0  0  0  0  0
    0.5362    1.1804   -1.7988 H   0  0  0  0  0  0  0  0  0  0  0  0
   -0.9324    0.0420   -1.5609 H   0  0  0  0  0  0  0  0  0  0  0  0
  1  2  3  0
  2  3  1  0
  3  4  1  0
  4  5  2  0
  5  6  1  0
  6  7  1  0
  7  8  1  0
  7  9  1  0
  8  3  1  0
  9  3  1  0
  1 10  1  0
  4 11  1  0
  5 12  1  0
  6 13  1  0
  6 14  1  0
  7 15  1  0
  8 16  1  0
  8 17  1  0
M  END
