
     RDKit          3D

 21 21  0  0  0  0  0  0  0  0999 V2000
    1.9309    1.4442    2.0901 C   0  0  0  0  0  0  0  0  0  0  0  0
    1.8183    0.7589    1.1033 C   0  0  0  0  0  0  0  0  0  0  0  0
    1.6780   -0.0875   -0.1050 C   0  0  0  0  0  0  0  0  0  0  0  0
    1.0553   -1.4150    0.2565 C   0  0  0  0  0  0  0  0  0  0  0  0
   -0.3763   -1.3707   -0.2481 C   0  0  0  0  0  0  0  0  0  0  0  0
   -0.6305    0.0982   -0.2042 C   0  0  0  0  0  0  0  0  0  0  0  0
   -1.9100    0.5617   -0.7858 C   0  0  0  0  0  0  0  0  0  0  0  0
   -3.0407    0.0462   -0.1975 O   0  0  0  0  0  0  0  0  0  0  0  0
    0.5910    0.6031   -0.9429 C   0  0  0  0  0  0  0  0  0  0  0  0
    2.0480    2.0484    2.9544 H   0  0  0  0  0  0  0  0  0  0  0  0
    2.6189   -0.1778   -0.6495 H   0  0  0  0  0  0  0  0  0  0  0  0
    1.0474   -1.4944    1.3746 H   0  0  0  0  0  0  0  0  0  0  0  0
    1.6106   -2.2812   -0.1449 H   0  0  0  0  0  0  0  0  0  0  0  0
   -1.0658   -1.9363    0.4056 H   0  0  0  0  0  0  0  0  0  0  0  0
   -0.4563   -1.7780   -1.2882 H   0  0  0  0  0  0  0  0  0  0  0  0
   -0.5254    0.4303    0.8505 H   0  0  0  0  0  0  0  0  0  0  0  0
   -1.8941    0.3439   -1.8866 H   0  0  0  0  0  0  0  0  0  0  0  0
   -1.9595    1.6657   -0.6696 H   0  0  0  0  0  0  0  0  0  0  0  0
   -3.7900    0.6630   -0.4030 H   0  0  0  0  0  0  0  0  0  0  0  0
    0.6962    1.6866   -0.9310 H   0  0  0  0  0  0  0  0  0  0  0  0
    0.5539    0.1907   -1.9701 H   0  0  0  0  0  0  0  0  0  0  0  0
  1  2  3  0
  2  3  1  0
  3  4  1  0
  4  5  1  0
  5  6  1  0
  6  7  1  0
  7  8  1  0
  6  9  1  0
  9  3  1  0
  1 10  1  0
  3 11  1  0
  4 12  1  0
  4 13  1  0
  5 14  1  0
  5 15  1  0
  6 16  1  0
  7 17  1  0
  7 18  1  0
  8 19  1  0
  9 20  1  0
  9 21  1  0
M  END
