
     RDKit          3D

 23 22  0  0  0  0  0  0  0  0999 V2000
    3.0391   -0.5238    1.4382 C   0  0  0  0  0  0  0  0  0  0  0  0
    2.4629   -0.8547    0.4363 C   0  0  0  0  0  0  0  0  0  0  0  0
    1.7761   -1.2591   -0.7978 C   0  0  0  0  0  0  0  0  0  0  0  0
    1.2129   -0.0639   -1.5036 C   0  0  0  0  0  0  0  0  0  0  0  0
    0.2961    0.6666   -0.8008 O   0  0  0  0  0  0  0  0  0  0  0  0
   -0.8302   -0.0244   -0.4403 C   0  0  0  0  0  0  0  0  0  0  0  0
   -2.0938    0.5303   -1.0584 C   0  0  0  0  0  0  0  0  0  0  0  0
   -1.0280   -0.1090    1.0532 C   0  0  0  0  0  0  0  0  0  0  0  0
   -1.1573    1.2143    1.7221 C   0  0  0  0  0  0  0  0  0  0  0  0
    3.5438   -0.2338    2.3285 H   0  0  0  0  0  0  0  0  0  0  0  0
    2.5052   -1.7448   -1.4972 H   0  0  0  0  0  0  0  0  0  0  0  0
    1.0234   -2.0426   -0.5845 H   0  0  0  0  0  0  0  0  0  0  0  0
    0.7919   -0.4483   -2.4796 H   0  0  0  0  0  0  0  0  0  0  0  0
    2.0906    0.5777   -1.7896 H   0  0  0  0  0  0  0  0  0  0  0  0
   -0.7371   -1.0644   -0.8151 H   0  0  0  0  0  0  0  0  0  0  0  0
   -2.3700    1.5013   -0.6131 H   0  0  0  0  0  0  0  0  0  0  0  0
   -1.9903    0.6990   -2.1472 H   0  0  0  0  0  0  0  0  0  0  0  0
   -2.8875   -0.2441   -0.9258 H   0  0  0  0  0  0  0  0  0  0  0  0
   -0.2257   -0.7000    1.4835 H   0  0  0  0  0  0  0  0  0  0  0  0
   -1.9790   -0.6854    1.2507 H   0  0  0  0  0  0  0  0  0  0  0  0
   -0.5715    1.2704    2.6850 H   0  0  0  0  0  0  0  0  0  0  0  0
   -2.1736    1.5143    1.9688 H   0  0  0  0  0  0  0  0  0  0  0  0
   -0.6980    2.0243    1.0866 H   0  0  0  0  0  0  0  0  0  0  0  0
  1  2  3  0
  2  3  1  0
  3  4  1  0
  4  5  1  0
  5  6  1  0
  6  7  1  0
  6  8  1  0
  8  9  1  0
  1 10  1  0
  3 11  1  0
  3 12  1  0
  4 13  1  0
  4 14  1  0
  6 15  1  0
  7 16  1  0
  7 17  1  0
  7 18  1  0
  8 19  1  0
  8 20  1  0
  9 21  1  0
  9 22  1  0
  9 23  1  0
M  END
