
     RDKit          3D

 19 20  0  0  0  0  0  0  0  0999 V2000
   -1.0399    1.6854    2.7738 C   0  0  0  0  0  0  0  0  0  0  0  0
   -0.8046    0.8822    1.8763 C   0  0  0  0  0  0  0  0  0  0  0  0
   -0.5364   -0.0736    0.8445 C   0  0  0  0  0  0  0  0  0  0  0  0
    0.6752   -0.9186    1.0745 C   0  0  0  0  0  0  0  0  0  0  0  0
    0.8817   -1.4690   -0.3452 C   0  0  0  0  0  0  0  0  0  0  0  0
    0.6639   -0.2801   -1.2366 C   0  0  0  0  0  0  0  0  0  0  0  0
   -0.6995    0.1315   -1.6609 C   0  0  0  0  0  0  0  0  0  0  0  0
   -0.7420    1.0297   -2.7397 O   0  0  0  0  0  0  0  0  0  0  0  0
   -0.1246    0.7032   -0.4148 C   0  0  0  0  0  0  0  0  0  0  0  0
   -1.2534    2.3754    3.5707 H   0  0  0  0  0  0  0  0  0  0  0  0
   -1.4062   -0.7467    0.6394 H   0  0  0  0  0  0  0  0  0  0  0  0
    1.5132   -0.2442    1.3559 H   0  0  0  0  0  0  0  0  0  0  0  0
    0.5287   -1.7557    1.7788 H   0  0  0  0  0  0  0  0  0  0  0  0
    1.9170   -1.8852   -0.4588 H   0  0  0  0  0  0  0  0  0  0  0  0
    0.1277   -2.2621   -0.5106 H   0  0  0  0  0  0  0  0  0  0  0  0
    1.5426    0.1614   -1.7688 H   0  0  0  0  0  0  0  0  0  0  0  0
   -1.5262   -0.6003   -1.6016 H   0  0  0  0  0  0  0  0  0  0  0  0
    0.1166    1.5132   -2.8356 H   0  0  0  0  0  0  0  0  0  0  0  0
    0.1661    1.7535   -0.3413 H   0  0  0  0  0  0  0  0  0  0  0  0
  1  2  3  0
  2  3  1  0
  3  4  1  0
  4  5  1  0
  5  6  1  0
  6  7  1  0
  7  8  1  0
  7  9  1  0
  9  3  1  0
  9  6  1  0
  1 10  1  0
  3 11  1  0
  4 12  1  0
  4 13  1  0
  5 14  1  0
  5 15  1  0
  6 16  1  0
  7 17  1  0
  8 18  1  0
  9 19  1  0
M  END
