
     RDKit          3D

 17 18  0  0  0  0  0  0  0  0999 V2000
    3.6102   -0.2398   -0.0453 C   0  0  0  0  0  0  0  0  0  0  0  0
    2.4289   -0.3117    0.2157 C   0  0  0  0  0  0  0  0  0  0  0  0
    0.9960   -0.3752    0.5411 C   0  0  0  0  0  0  0  0  0  0  0  0
    0.0556   -0.0389   -0.6447 C   0  0  0  0  0  0  0  0  0  0  0  0
   -1.2707   -0.7030   -0.5689 C   0  0  0  0  0  0  0  0  0  0  0  0
   -2.0385    0.0142    0.5112 C   0  0  0  0  0  0  0  0  0  0  0  0
   -1.0950    0.9967    1.1076 C   0  0  0  0  0  0  0  0  0  0  0  0
   -1.4220    1.7627    1.9977 O   0  0  0  0  0  0  0  0  0  0  0  0
    0.2248    0.8957    0.4794 C   0  0  0  0  0  0  0  0  0  0  0  0
    4.6449   -0.1887   -0.2594 H   0  0  0  0  0  0  0  0  0  0  0  0
    0.6989   -1.1863    1.2059 H   0  0  0  0  0  0  0  0  0  0  0  0
    0.5333    0.2196   -1.6038 H   0  0  0  0  0  0  0  0  0  0  0  0
   -1.7986   -0.6714   -1.5493 H   0  0  0  0  0  0  0  0  0  0  0  0
   -1.1068   -1.7833   -0.3160 H   0  0  0  0  0  0  0  0  0  0  0  0
   -2.9367    0.4935    0.0737 H   0  0  0  0  0  0  0  0  0  0  0  0
   -2.3549   -0.6945    1.3117 H   0  0  0  0  0  0  0  0  0  0  0  0
    0.8306    1.8106    0.3567 H   0  0  0  0  0  0  0  0  0  0  0  0
  1  2  3  0
  2  3  1  0
  3  4  1  0
  4  5  1  0
  5  6  1  0
  6  7  1  0
  7  8  2  0
  7  9  1  0
  9  3  1  0
  9  4  1  0
  1 10  1  0
  3 11  1  0
  4 12  1  0
  5 13  1  0
  5 14  1  0
  6 15  1  0
  6 16  1  0
  9 17  1  0
M  END
