
     RDKit          3D

 23 23  0  0  0  0  0  0  0  0999 V2000
   -1.9488    1.8507    1.2472 C   0  0  0  0  0  0  0  0  0  0  0  0
   -1.1304    1.0936    0.4800 C   0  0  0  0  0  0  0  0  0  0  0  0
   -0.3179    0.3365   -0.2563 C   0  0  0  0  0  0  0  0  0  0  0  0
   -0.7463   -1.0094   -0.3685 C   0  0  0  0  0  0  0  0  0  0  0  0
   -2.0653   -1.1646   -1.1754 C   0  0  0  0  0  0  0  0  0  0  0  0
    0.5645    1.4600   -0.7473 C   0  0  0  0  0  0  0  0  0  0  0  0
    1.8016    0.6903   -0.7212 C   0  0  0  0  0  0  0  0  0  0  0  0
    1.1417    0.2273    0.6924 C   0  0  0  0  0  0  0  0  0  0  0  0
    1.7775   -0.9800    1.0483 C   0  0  0  0  0  0  0  0  0  0  0  0
   -2.7450    2.5880    1.9979 H   0  0  0  0  0  0  0  0  0  0  0  0
   -1.2978   -1.1829    0.7791 H   0  0  0  0  0  0  0  0  0  0  0  0
   -0.3080   -2.0251   -0.2941 H   0  0  0  0  0  0  0  0  0  0  0  0
   -2.9827   -1.1351   -0.5731 H   0  0  0  0  0  0  0  0  0  0  0  0
   -2.0637   -0.4117   -1.9588 H   0  0  0  0  0  0  0  0  0  0  0  0
   -2.0101   -2.1823   -1.6757 H   0  0  0  0  0  0  0  0  0  0  0  0
    0.6679    2.1650    0.2886 H   0  0  0  0  0  0  0  0  0  0  0  0
    0.1863    2.1221   -1.4254 H   0  0  0  0  0  0  0  0  0  0  0  0
    1.8495   -0.2218   -1.3499 H   0  0  0  0  0  0  0  0  0  0  0  0
    2.7756    1.1338   -0.5749 H   0  0  0  0  0  0  0  0  0  0  0  0
    1.2577    1.1030    1.2598 H   0  0  0  0  0  0  0  0  0  0  0  0
    0.9961   -1.8245    0.7789 H   0  0  0  0  0  0  0  0  0  0  0  0
    2.6717   -1.3213    0.4533 H   0  0  0  0  0  0  0  0  0  0  0  0
    1.9259   -1.3116    2.0952 H   0  0  0  0  0  0  0  0  0  0  0  0
  1  2  3  0
  2  3  1  0
  3  4  1  0
  4  5  1  0
  3  6  1  0
  6  7  1  0
  7  8  1  0
  8  9  1  0
  8  3  1  0
  1 10  1  0
  4 11  1  0
  4 12  1  0
  5 13  1  0
  5 14  1  0
  5 15  1  0
  6 16  1  0
  6 17  1  0
  7 18  1  0
  7 19  1  0
  8 20  1  0
  9 21  1  0
  9 22  1  0
  9 23  1  0
M  END
