
     RDKit          3D

 19 18  0  0  0  0  0  0  0  0999 V2000
    2.5192    1.5107   -0.4559 C   0  0  0  0  0  0  0  0  0  0  0  0
    1.5055    1.1349   -0.9806 C   0  0  0  0  0  0  0  0  0  0  0  0
    0.2379    0.6919   -1.6256 C   0  0  0  0  0  0  0  0  0  0  0  0
   -0.5958    0.0469   -0.5503 C   0  0  0  0  0  0  0  0  0  0  0  0
    0.1492   -1.0657   -0.0990 O   0  0  0  0  0  0  0  0  0  0  0  0
   -0.5828   -2.2541   -0.1801 C   0  0  0  0  0  0  0  0  0  0  0  0
   -0.8352    0.9535    0.6091 C   0  0  0  0  0  0  0  0  0  0  0  0
   -0.2903    0.5500    1.9065 C   0  0  0  0  0  0  0  0  0  0  0  0
   -1.4557    1.9693    0.4337 O   0  0  0  0  0  0  0  0  0  0  0  0
    3.4252    1.8410    0.0297 H   0  0  0  0  0  0  0  0  0  0  0  0
   -0.2058    1.5504   -2.1059 H   0  0  0  0  0  0  0  0  0  0  0  0
    0.4345   -0.0870   -2.4203 H   0  0  0  0  0  0  0  0  0  0  0  0
   -1.5617   -0.2952   -0.9127 H   0  0  0  0  0  0  0  0  0  0  0  0
    0.0798   -3.0861    0.0960 H   0  0  0  0  0  0  0  0  0  0  0  0
   -1.3883   -2.2580    0.6146 H   0  0  0  0  0  0  0  0  0  0  0  0
   -1.0714   -2.4430   -1.1201 H   0  0  0  0  0  0  0  0  0  0  0  0
   -0.7007   -0.4147    2.2641 H   0  0  0  0  0  0  0  0  0  0  0  0
   -0.4750    1.2714    2.7271 H   0  0  0  0  0  0  0  0  0  0  0  0
    0.8114    0.3837    1.7697 H   0  0  0  0  0  0  0  0  0  0  0  0
  1  2  3  0
  2  3  1  0
  3  4  1  0
  4  5  1  0
  5  6  1  0
  4  7  1  0
  7  8  1  0
  7  9  2  0
  1 10  1  0
  3 11  1  0
  3 12  1  0
  4 13  1  0
  6 14  1  0
  6 15  1  0
  6 16  1  0
  8 17  1  0
  8 18  1  0
  8 19  1  0
M  END
