
     RDKit          3D

 19 20  0  0  0  0  0  0  0  0999 V2000
   -1.9816   -2.0223    1.9925 C   0  0  0  0  0  0  0  0  0  0  0  0
   -1.4715   -1.1970    1.2760 C   0  0  0  0  0  0  0  0  0  0  0  0
   -0.8555   -0.1697    0.4106 C   0  0  0  0  0  0  0  0  0  0  0  0
   -1.5237    1.1652    0.5079 C   0  0  0  0  0  0  0  0  0  0  0  0
   -0.5466   -0.6220   -1.0183 C   0  0  0  0  0  0  0  0  0  0  0  0
    0.5391   -0.3532    0.0119 C   0  0  0  0  0  0  0  0  0  0  0  0
    1.4601    0.7776   -0.3113 C   0  0  0  0  0  0  0  0  0  0  0  0
    2.8241    0.4589   -0.6938 C   0  0  0  0  0  0  0  0  0  0  0  0
    1.8050    0.7363   -1.7584 O   0  0  0  0  0  0  0  0  0  0  0  0
   -2.4372   -2.7723    2.6187 H   0  0  0  0  0  0  0  0  0  0  0  0
   -0.8397    2.0171    0.4966 H   0  0  0  0  0  0  0  0  0  0  0  0
   -2.1774    1.2678   -0.4035 H   0  0  0  0  0  0  0  0  0  0  0  0
   -2.2099    1.2433    1.3713 H   0  0  0  0  0  0  0  0  0  0  0  0
   -0.7053    0.1080   -1.8303 H   0  0  0  0  0  0  0  0  0  0  0  0
   -0.7874   -1.6772   -1.2790 H   0  0  0  0  0  0  0  0  0  0  0  0
    1.0377   -1.2872    0.3973 H   0  0  0  0  0  0  0  0  0  0  0  0
    1.1186    1.7684   -0.0163 H   0  0  0  0  0  0  0  0  0  0  0  0
    3.1190   -0.6155   -0.6967 H   0  0  0  0  0  0  0  0  0  0  0  0
    3.6321    1.1738   -0.8209 H   0  0  0  0  0  0  0  0  0  0  0  0
  1  2  3  0
  2  3  1  0
  3  4  1  0
  3  5  1  0
  5  6  1  0
  6  7  1  0
  7  8  1  0
  8  9  1  0
  6  3  1  0
  9  7  1  0
  1 10  1  0
  4 11  1  0
  4 12  1  0
  4 13  1  0
  5 14  1  0
  5 15  1  0
  6 16  1  0
  7 17  1  0
  8 18  1  0
  8 19  1  0
M  END
