
     RDKit          3D

 21 21  0  0  0  0  0  0  0  0999 V2000
   -1.1275    3.4592    0.2245 C   0  0  0  0  0  0  0  0  0  0  0  0
   -0.9275    2.2621    0.0515 C   0  0  0  0  0  0  0  0  0  0  0  0
   -0.7011    0.8070   -0.1382 C   0  0  0  0  0  0  0  0  0  0  0  0
    0.7396    0.5064   -0.0664 C   0  0  0  0  0  0  0  0  0  0  0  0
    1.1949   -0.8730   -0.2275 C   0  0  0  0  0  0  0  0  0  0  0  0
    2.7298   -0.8706   -0.1042 C   0  0  0  0  0  0  0  0  0  0  0  0
   -1.3183    0.4271   -1.4094 O   0  0  0  0  0  0  0  0  0  0  0  0
   -1.8200   -0.0245   -0.0824 C   0  0  0  0  0  0  0  0  0  0  0  0
   -1.9475   -1.4986   -0.1117 C   0  0  0  0  0  0  0  0  0  0  0  0
   -1.2882    4.4870    0.3876 H   0  0  0  0  0  0  0  0  0  0  0  0
    1.2646    1.1500   -0.8332 H   0  0  0  0  0  0  0  0  0  0  0  0
    1.1205    0.9041    0.9145 H   0  0  0  0  0  0  0  0  0  0  0  0
    1.0060   -1.2886   -1.2376 H   0  0  0  0  0  0  0  0  0  0  0  0
    0.8505   -1.5095    0.5999 H   0  0  0  0  0  0  0  0  0  0  0  0
    3.0919   -1.9289   -0.1678 H   0  0  0  0  0  0  0  0  0  0  0  0
    3.0504   -0.3869    0.8331 H   0  0  0  0  0  0  0  0  0  0  0  0
    3.1061   -0.3507   -1.0087 H   0  0  0  0  0  0  0  0  0  0  0  0
   -2.8220    0.4463    0.1638 H   0  0  0  0  0  0  0  0  0  0  0  0
   -1.1588   -2.0651   -0.5786 H   0  0  0  0  0  0  0  0  0  0  0  0
   -2.1561   -1.9044    0.9159 H   0  0  0  0  0  0  0  0  0  0  0  0
   -2.8873   -1.7482   -0.6902 H   0  0  0  0  0  0  0  0  0  0  0  0
  1  2  3  0
  2  3  1  0
  3  4  1  0
  4  5  1  0
  5  6  1  0
  3  7  1  0
  7  8  1  0
  8  9  1  0
  8  3  1  0
  1 10  1  0
  4 11  1  0
  4 12  1  0
  5 13  1  0
  5 14  1  0
  6 15  1  0
  6 16  1  0
  6 17  1  0
  8 18  1  0
  9 19  1  0
  9 20  1  0
  9 21  1  0
M  END
