
     RDKit          3D

 15 16  0  0  0  0  0  0  0  0999 V2000
    2.9307   -1.2374   -0.3582 C   0  0  0  0  0  0  0  0  0  0  0  0
    1.7276   -1.3019   -0.2976 C   0  0  0  0  0  0  0  0  0  0  0  0
    0.2963   -1.3795   -0.2004 C   0  0  0  0  0  0  0  0  0  0  0  0
   -0.2928   -2.4749    0.0061 O   0  0  0  0  0  0  0  0  0  0  0  0
   -0.4929   -0.1336   -0.3488 C   0  0  0  0  0  0  0  0  0  0  0  0
    0.1756    1.1734   -0.3663 C   0  0  0  0  0  0  0  0  0  0  0  0
   -0.5147    0.7805    0.9209 C   0  0  0  0  0  0  0  0  0  0  0  0
   -2.0100    0.6077    0.8498 C   0  0  0  0  0  0  0  0  0  0  0  0
   -1.8696   -0.2074   -0.2555 O   0  0  0  0  0  0  0  0  0  0  0  0
    4.0044   -1.1614   -0.4139 H   0  0  0  0  0  0  0  0  0  0  0  0
   -0.3269    2.0208   -0.8868 H   0  0  0  0  0  0  0  0  0  0  0  0
    1.2581    1.2386   -0.2899 H   0  0  0  0  0  0  0  0  0  0  0  0
    0.0586    0.4103    1.7731 H   0  0  0  0  0  0  0  0  0  0  0  0
   -2.5342    1.5569    0.5716 H   0  0  0  0  0  0  0  0  0  0  0  0
   -2.4102    0.1078    1.7560 H   0  0  0  0  0  0  0  0  0  0  0  0
  1  2  3  0
  2  3  1  0
  3  4  2  0
  3  5  1  0
  5  6  1  0
  6  7  1  0
  7  8  1  0
  8  9  1  0
  7  5  1  0
  9  5  1  0
  1 10  1  0
  6 11  1  0
  6 12  1  0
  7 13  1  0
  8 14  1  0
  8 15  1  0
M  END
