
     RDKit          3D

 13 13  0  0  0  0  0  0  0  0999 V2000
    2.4322   -0.9771    1.2704 C   0  0  0  0  0  0  0  0  0  0  0  0
    1.4165   -0.4926    0.9730 C   0  0  0  0  0  0  0  0  0  0  0  0
    0.1438    0.1342    0.5791 C   0  0  0  0  0  0  0  0  0  0  0  0
   -0.7542   -0.7631   -0.1765 C   0  0  0  0  0  0  0  0  0  0  0  0
   -0.7183   -1.9376   -0.2828 O   0  0  0  0  0  0  0  0  0  0  0  0
   -1.7188    0.1902   -0.7779 C   0  0  0  0  0  0  0  0  0  0  0  0
   -0.8530    1.2252   -1.1904 O   0  0  0  0  0  0  0  0  0  0  0  0
    0.3494    1.1809   -0.4519 C   0  0  0  0  0  0  0  0  0  0  0  0
    1.3966    1.8570   -0.5962 O   0  0  0  0  0  0  0  0  0  0  0  0
    3.3597   -1.3991    1.5407 H   0  0  0  0  0  0  0  0  0  0  0  0
   -0.3729    0.6101    1.4187 H   0  0  0  0  0  0  0  0  0  0  0  0
   -2.3678   -0.2107   -1.5425 H   0  0  0  0  0  0  0  0  0  0  0  0
   -2.3132    0.5826    0.0979 H   0  0  0  0  0  0  0  0  0  0  0  0
  1  2  3  0
  2  3  1  0
  3  4  1  0
  4  5  2  0
  4  6  1  0
  6  7  1  0
  7  8  1  0
  8  9  2  0
  8  3  1  0
  1 10  1  0
  3 11  1  0
  6 12  1  0
  6 13  1  0
M  END
