
     RDKit          3D

 20 19  0  0  0  0  0  0  0  0999 V2000
    2.8845   -0.0022   -0.0315 C   0  0  0  0  0  0  0  0  0  0  0  0
    2.0510   -0.6304   -0.0851 C   0  0  0  0  0  0  0  0  0  0  0  0
    0.8204   -1.5415   -0.1404 C   0  0  0  0  0  0  0  0  0  0  0  0
   -0.3487   -0.5619   -0.0223 C   0  0  0  0  0  0  0  0  0  0  0  0
   -0.3412    0.3886   -1.1814 C   0  0  0  0  0  0  0  0  0  0  0  0
   -1.4976   -1.3290   -0.0326 O   0  0  0  0  0  0  0  0  0  0  0  0
   -0.2220    0.2473    1.2509 C   0  0  0  0  0  0  0  0  0  0  0  0
   -1.2845    1.2555    1.4069 C   0  0  0  0  0  0  0  0  0  0  0  0
    3.7812    0.6968    0.0237 H   0  0  0  0  0  0  0  0  0  0  0  0
    0.8303   -2.2467    0.6257 H   0  0  0  0  0  0  0  0  0  0  0  0
    0.7737   -1.9018   -1.1644 H   0  0  0  0  0  0  0  0  0  0  0  0
   -1.2682    0.1840   -1.7957 H   0  0  0  0  0  0  0  0  0  0  0  0
    0.5203    0.1218   -1.8754 H   0  0  0  0  0  0  0  0  0  0  0  0
   -0.2565    1.4508   -0.8666 H   0  0  0  0  0  0  0  0  0  0  0  0
   -2.1269   -0.9441    0.6495 H   0  0  0  0  0  0  0  0  0  0  0  0
   -0.2510   -0.4975    2.1304 H   0  0  0  0  0  0  0  0  0  0  0  0
    0.7705    0.7183    1.2827 H   0  0  0  0  0  0  0  0  0  0  0  0
   -0.8806    2.2260    1.7862 H   0  0  0  0  0  0  0  0  0  0  0  0
   -2.0516    0.9577    2.2008 H   0  0  0  0  0  0  0  0  0  0  0  0
   -1.9032    1.4081    0.4732 H   0  0  0  0  0  0  0  0  0  0  0  0
  1  2  3  0
  2  3  1  0
  3  4  1  0
  4  5  1  0
  4  6  1  0
  4  7  1  0
  7  8  1  0
  1  9  1  0
  3 10  1  0
  3 11  1  0
  5 12  1  0
  5 13  1  0
  5 14  1  0
  6 15  1  0
  7 16  1  0
  7 17  1  0
  8 18  1  0
  8 19  1  0
  8 20  1  0
M  END
