
     RDKit          3D

 17 18  0  0  0  0  0  0  0  0999 V2000
    2.2040    1.9631   -0.7489 C   0  0  0  0  0  0  0  0  0  0  0  0
    1.5757    0.8888   -0.7731 C   0  0  0  0  0  0  0  0  0  0  0  0
    0.8232   -0.3513   -0.7919 C   0  0  0  0  0  0  0  0  0  0  0  0
    1.3372   -1.3406   -1.6335 O   0  0  0  0  0  0  0  0  0  0  0  0
   -0.6452   -0.2314   -0.6943 C   0  0  0  0  0  0  0  0  0  0  0  0
   -1.2835    0.7198    0.2580 C   0  0  0  0  0  0  0  0  0  0  0  0
   -0.5663    0.0239    1.3962 C   0  0  0  0  0  0  0  0  0  0  0  0
   -1.4886   -0.7298    2.1316 O   0  0  0  0  0  0  0  0  0  0  0  0
    0.1396   -0.8526    0.4242 C   0  0  0  0  0  0  0  0  0  0  0  0
    2.7418    2.8752   -0.7458 H   0  0  0  0  0  0  0  0  0  0  0  0
    1.7586   -2.0720   -1.1337 H   0  0  0  0  0  0  0  0  0  0  0  0
   -1.2423   -0.8677   -1.3711 H   0  0  0  0  0  0  0  0  0  0  0  0
   -0.9635    1.7825    0.2165 H   0  0  0  0  0  0  0  0  0  0  0  0
   -2.3934    0.6051    0.2439 H   0  0  0  0  0  0  0  0  0  0  0  0
    0.0628    0.6786    2.0278 H   0  0  0  0  0  0  0  0  0  0  0  0
   -2.1206   -1.1216    1.4755 H   0  0  0  0  0  0  0  0  0  0  0  0
    0.0605   -1.9700    0.5655 H   0  0  0  0  0  0  0  0  0  0  0  0
  1  2  3  0
  2  3  1  0
  3  4  1  0
  3  5  1  0
  5  6  1  0
  6  7  1  0
  7  8  1  0
  7  9  1  0
  9  3  1  0
  9  5  1  0
  1 10  1  0
  4 11  1  0
  5 12  1  0
  6 13  1  0
  6 14  1  0
  7 15  1  0
  8 16  1  0
  9 17  1  0
M  END
