
     RDKit          3D

 17 18  0  0  0  0  0  0  0  0999 V2000
    2.8035    0.5458   -0.7610 C   0  0  0  0  0  0  0  0  0  0  0  0
    1.7445   -0.0015   -0.6295 C   0  0  0  0  0  0  0  0  0  0  0  0
    0.4913   -0.6773   -0.4744 C   0  0  0  0  0  0  0  0  0  0  0  0
   -0.6323    0.2785   -0.9251 C   0  0  0  0  0  0  0  0  0  0  0  0
   -1.7955   -0.4601   -0.3202 C   0  0  0  0  0  0  0  0  0  0  0  0
   -1.2986   -1.1480    0.7983 O   0  0  0  0  0  0  0  0  0  0  0  0
   -0.0069   -0.6650    0.9822 C   0  0  0  0  0  0  0  0  0  0  0  0
   -0.1202    0.8279    1.1648 C   0  0  0  0  0  0  0  0  0  0  0  0
   -0.3346    1.3757   -0.1100 O   0  0  0  0  0  0  0  0  0  0  0  0
    3.7584    1.0362   -0.8607 H   0  0  0  0  0  0  0  0  0  0  0  0
    0.4046   -1.6539   -0.9290 H   0  0  0  0  0  0  0  0  0  0  0  0
   -0.6557    0.4628   -1.9697 H   0  0  0  0  0  0  0  0  0  0  0  0
   -2.1582   -1.2111   -1.0672 H   0  0  0  0  0  0  0  0  0  0  0  0
   -2.6161    0.1772    0.0088 H   0  0  0  0  0  0  0  0  0  0  0  0
    0.6089   -1.1936    1.6629 H   0  0  0  0  0  0  0  0  0  0  0  0
   -0.9978    1.0412    1.8342 H   0  0  0  0  0  0  0  0  0  0  0  0
    0.8047    1.2653    1.5954 H   0  0  0  0  0  0  0  0  0  0  0  0
  1  2  3  0
  2  3  1  0
  3  4  1  0
  4  5  1  0
  5  6  1  0
  6  7  1  0
  7  8  1  0
  8  9  1  0
  7  3  1  0
  9  4  1  0
  1 10  1  0
  3 11  1  0
  4 12  1  0
  5 13  1  0
  5 14  1  0
  7 15  1  0
  8 16  1  0
  8 17  1  0
M  END
