
     RDKit          3D

 15 15  0  0  0  0  0  0  0  0999 V2000
    2.9368   -0.5512   -0.6341 C   0  0  0  0  0  0  0  0  0  0  0  0
    1.9720   -0.9135   -0.0065 C   0  0  0  0  0  0  0  0  0  0  0  0
    0.7757   -1.3464    0.7440 C   0  0  0  0  0  0  0  0  0  0  0  0
   -0.3224   -1.7871   -0.1189 O   0  0  0  0  0  0  0  0  0  0  0  0
   -0.4115   -0.5520    0.6201 C   0  0  0  0  0  0  0  0  0  0  0  0
   -0.4256    0.6546   -0.2944 C   0  0  0  0  0  0  0  0  0  0  0  0
   -1.8039    1.2776   -0.2100 C   0  0  0  0  0  0  0  0  0  0  0  0
    3.7873   -0.2363   -1.1819 H   0  0  0  0  0  0  0  0  0  0  0  0
    0.8898   -2.0513    1.5737 H   0  0  0  0  0  0  0  0  0  0  0  0
   -1.1447   -0.5595    1.4573 H   0  0  0  0  0  0  0  0  0  0  0  0
    0.2889    1.4242    0.0724 H   0  0  0  0  0  0  0  0  0  0  0  0
   -0.1401    0.3941   -1.3352 H   0  0  0  0  0  0  0  0  0  0  0  0
   -2.0169    1.7292   -1.2007 H   0  0  0  0  0  0  0  0  0  0  0  0
   -1.8651    2.0573    0.5679 H   0  0  0  0  0  0  0  0  0  0  0  0
   -2.5203    0.4604    0.0030 H   0  0  0  0  0  0  0  0  0  0  0  0
  1  2  3  0
  2  3  1  0
  3  4  1  0
  4  5  1  0
  5  6  1  0
  6  7  1  0
  5  3  1  0
  1  8  1  0
  3  9  1  0
  5 10  1  0
  6 11  1  0
  6 12  1  0
  7 13  1  0
  7 14  1  0
  7 15  1  0
M  END
