
     RDKit          3D

 21 21  0  0  0  0  0  0  0  0999 V2000
    3.1199    0.1149   -1.1845 C   0  0  0  0  0  0  0  0  0  0  0  0
    2.0900    0.1445   -0.5505 C   0  0  0  0  0  0  0  0  0  0  0  0
    0.8431    0.1878    0.2444 C   0  0  0  0  0  0  0  0  0  0  0  0
    0.6237    1.4620    0.9696 C   0  0  0  0  0  0  0  0  0  0  0  0
    0.8898   -0.9105    1.1408 O   0  0  0  0  0  0  0  0  0  0  0  0
    0.6299   -1.6888   -0.0122 C   0  0  0  0  0  0  0  0  0  0  0  0
   -0.2668   -0.5087   -0.4360 C   0  0  0  0  0  0  0  0  0  0  0  0
   -1.5845   -0.6087    0.2343 C   0  0  0  0  0  0  0  0  0  0  0  0
   -2.2730    0.6804    0.5531 C   0  0  0  0  0  0  0  0  0  0  0  0
    4.0191    0.1006   -1.7530 H   0  0  0  0  0  0  0  0  0  0  0  0
   -0.1145    1.3165    1.7639 H   0  0  0  0  0  0  0  0  0  0  0  0
    0.4320    2.3122    0.2850 H   0  0  0  0  0  0  0  0  0  0  0  0
    1.5936    1.7379    1.4869 H   0  0  0  0  0  0  0  0  0  0  0  0
    1.4589   -1.7720   -0.7205 H   0  0  0  0  0  0  0  0  0  0  0  0
    0.0919   -2.6181    0.1730 H   0  0  0  0  0  0  0  0  0  0  0  0
   -0.2959   -0.3968   -1.5500 H   0  0  0  0  0  0  0  0  0  0  0  0
   -1.4686   -1.2536    1.1598 H   0  0  0  0  0  0  0  0  0  0  0  0
   -2.2446   -1.2574   -0.4221 H   0  0  0  0  0  0  0  0  0  0  0  0
   -3.3308    0.6096    0.1406 H   0  0  0  0  0  0  0  0  0  0  0  0
   -2.4179    0.7975    1.6665 H   0  0  0  0  0  0  0  0  0  0  0  0
   -1.7953    1.5506    0.0835 H   0  0  0  0  0  0  0  0  0  0  0  0
  1  2  3  0
  2  3  1  0
  3  4  1  0
  3  5  1  0
  5  6  1  0
  6  7  1  0
  7  8  1  0
  8  9  1  0
  7  3  1  0
  1 10  1  0
  4 11  1  0
  4 12  1  0
  4 13  1  0
  6 14  1  0
  6 15  1  0
  7 16  1  0
  8 17  1  0
  8 18  1  0
  9 19  1  0
  9 20  1  0
  9 21  1  0
M  END
