
     RDKit          3D

 21 20  0  0  0  0  0  0  0  0999 V2000
    3.0572   -0.1562    0.7637 C   0  0  0  0  0  0  0  0  0  0  0  0
    1.9675    0.3211    0.6086 C   0  0  0  0  0  0  0  0  0  0  0  0
    0.6200    0.8850    0.4271 C   0  0  0  0  0  0  0  0  0  0  0  0
    0.2238    1.4258    1.6360 O   0  0  0  0  0  0  0  0  0  0  0  0
   -0.3170   -0.2631    0.0871 C   0  0  0  0  0  0  0  0  0  0  0  0
   -0.3555   -1.2990    1.1803 C   0  0  0  0  0  0  0  0  0  0  0  0
    0.0141   -0.8610   -1.2650 C   0  0  0  0  0  0  0  0  0  0  0  0
   -1.7091    0.3618   -0.0523 C   0  0  0  0  0  0  0  0  0  0  0  0
   -1.6090    1.2985   -1.0786 O   0  0  0  0  0  0  0  0  0  0  0  0
    4.0307   -0.5994    0.8922 H   0  0  0  0  0  0  0  0  0  0  0  0
    0.6207    1.5905   -0.4016 H   0  0  0  0  0  0  0  0  0  0  0  0
    0.4784    2.3818    1.7204 H   0  0  0  0  0  0  0  0  0  0  0  0
    0.0919   -0.8859    2.1086 H   0  0  0  0  0  0  0  0  0  0  0  0
   -1.4110   -1.5811    1.3795 H   0  0  0  0  0  0  0  0  0  0  0  0
    0.2506   -2.1914    0.8831 H   0  0  0  0  0  0  0  0  0  0  0  0
    0.4863   -1.8612   -1.0795 H   0  0  0  0  0  0  0  0  0  0  0  0
   -0.9025   -1.0767   -1.8522 H   0  0  0  0  0  0  0  0  0  0  0  0
    0.6975   -0.2104   -1.8476 H   0  0  0  0  0  0  0  0  0  0  0  0
   -2.4835   -0.3946   -0.2398 H   0  0  0  0  0  0  0  0  0  0  0  0
   -1.9078    0.8997    0.9183 H   0  0  0  0  0  0  0  0  0  0  0  0
   -1.8435    2.2158   -0.7907 H   0  0  0  0  0  0  0  0  0  0  0  0
  1  2  3  0
  2  3  1  0
  3  4  1  0
  3  5  1  0
  5  6  1  0
  5  7  1  0
  5  8  1  0
  8  9  1  0
  1 10  1  0
  3 11  1  0
  4 12  1  0
  6 13  1  0
  6 14  1  0
  6 15  1  0
  7 16  1  0
  7 17  1  0
  7 18  1  0
  8 19  1  0
  8 20  1  0
  9 21  1  0
M  END
