
     RDKit          3D

 17 18  0  0  0  0  0  0  0  0999 V2000
    2.2418    0.7318   -1.1487 C   0  0  0  0  0  0  0  0  0  0  0  0
    1.4286   -0.0309   -0.7401 C   0  0  0  0  0  0  0  0  0  0  0  0
    0.4042   -0.9742   -0.2520 C   0  0  0  0  0  0  0  0  0  0  0  0
    0.6777   -1.3453    1.1075 C   0  0  0  0  0  0  0  0  0  0  0  0
   -0.5030   -0.5861    0.9347 C   0  0  0  0  0  0  0  0  0  0  0  0
   -1.5527   -1.5023    1.2778 O   0  0  0  0  0  0  0  0  0  0  0  0
   -1.0668    0.2427   -0.1651 C   0  0  0  0  0  0  0  0  0  0  0  0
   -0.6076    1.6173   -0.3876 C   0  0  0  0  0  0  0  0  0  0  0  0
   -0.7298   -0.8135   -0.9664 O   0  0  0  0  0  0  0  0  0  0  0  0
    2.9801    1.4131   -1.5347 H   0  0  0  0  0  0  0  0  0  0  0  0
    0.8123   -2.4604    1.2457 H   0  0  0  0  0  0  0  0  0  0  0  0
    1.4698   -0.8415    1.7455 H   0  0  0  0  0  0  0  0  0  0  0  0
   -1.7214   -1.9959    0.4351 H   0  0  0  0  0  0  0  0  0  0  0  0
   -2.2047    0.2868   -0.2238 H   0  0  0  0  0  0  0  0  0  0  0  0
   -0.3609    1.8509   -1.4539 H   0  0  0  0  0  0  0  0  0  0  0  0
   -1.4288    2.3975   -0.2102 H   0  0  0  0  0  0  0  0  0  0  0  0
    0.1613    2.0102    0.3362 H   0  0  0  0  0  0  0  0  0  0  0  0
  1  2  3  0
  2  3  1  0
  3  4  1  0
  4  5  1  0
  5  6  1  0
  5  7  1  0
  7  8  1  0
  7  9  1  0
  5  3  1  0
  9  3  1  0
  1 10  1  0
  4 11  1  0
  4 12  1  0
  6 13  1  0
  7 14  1  0
  8 15  1  0
  8 16  1  0
  8 17  1  0
M  END
