
     RDKit          3D

 15 16  0  0  0  0  0  0  0  0999 V2000
    2.2199   -0.5392   -1.0820 C   0  0  0  0  0  0  0  0  0  0  0  0
    1.3531   -0.2624   -1.1248 C   0  0  0  0  0  0  0  0  0  0  0  0
   -0.2240    0.2254   -1.1864 C   0  0  0  0  0  0  0  0  0  0  0  0
   -1.0277   -0.8329   -1.3309 O   0  0  0  0  0  0  0  0  0  0  0  0
   -1.4663   -0.7354    0.0175 C   0  0  0  0  0  0  0  0  0  0  0  0
   -0.2366   -1.1154    0.9256 C   0  0  0  0  0  0  0  0  0  0  0  0
   -0.5852    0.1623    0.5025 C   0  0  0  0  0  0  0  0  0  0  0  0
   -0.4252    1.5156    0.9363 C   0  0  0  0  0  0  0  0  0  0  0  0
   -0.3287    2.4223    1.2401 C   0  0  0  0  0  0  0  0  0  0  0  0
    3.5260   -0.9693   -0.9974 H   0  0  0  0  0  0  0  0  0  0  0  0
   -0.3966    1.1216   -1.5126 H   0  0  0  0  0  0  0  0  0  0  0  0
   -2.4397   -1.1679    0.2470 H   0  0  0  0  0  0  0  0  0  0  0  0
   -0.5175   -1.9774    1.4691 H   0  0  0  0  0  0  0  0  0  0  0  0
    0.7318   -1.4490    0.2498 H   0  0  0  0  0  0  0  0  0  0  0  0
   -0.1833    3.6018    1.6461 H   0  0  0  0  0  0  0  0  0  0  0  0
  1  2  3  0
  2  3  1  0
  3  4  1  0
  4  5  1  0
  5  6  1  0
  6  7  1  0
  7  8  1  0
  8  9  3  0
  7  3  1  0
  7  5  1  0
  1 10  1  0
  3 11  1  0
  5 12  1  0
  6 13  1  0
  6 14  1  0
  9 15  1  0
M  END
