
     RDKit          3D

 23 22  0  0  0  0  0  0  0  0999 V2000
    0.8403    0.3850    3.1036 C   0  0  0  0  0  0  0  0  0  0  0  0
    0.7020    0.2831    1.8536 C   0  0  0  0  0  0  0  0  0  0  0  0
    0.5118    0.1603    0.3721 C   0  0  0  0  0  0  0  0  0  0  0  0
    1.4927   -0.6882   -0.2844 C   0  0  0  0  0  0  0  0  0  0  0  0
    2.8777   -0.0351    0.0056 C   0  0  0  0  0  0  0  0  0  0  0  0
   -0.9692   -0.3308    0.2832 C   0  0  0  0  0  0  0  0  0  0  0  0
   -0.9937   -0.8053   -1.3994 C   0  0  0  0  0  0  0  0  0  0  0  0
   -1.6540    0.7963   -0.0011 O   0  0  0  0  0  0  0  0  0  0  0  0
   -2.8716    0.9105   -0.4700 C   0  0  0  0  0  0  0  0  0  0  0  0
    0.9687    0.4611    4.1130 H   0  0  0  0  0  0  0  0  0  0  0  0
    0.5080    1.2165   -0.0049 H   0  0  0  0  0  0  0  0  0  0  0  0
    1.5644   -1.7031    0.0865 H   0  0  0  0  0  0  0  0  0  0  0  0
    1.4594   -0.6522   -1.4110 H   0  0  0  0  0  0  0  0  0  0  0  0
    2.8249    0.6833    0.8139 H   0  0  0  0  0  0  0  0  0  0  0  0
    3.6308   -0.8195    0.2108 H   0  0  0  0  0  0  0  0  0  0  0  0
    3.2432    0.4817   -0.9331 H   0  0  0  0  0  0  0  0  0  0  0  0
   -1.2637   -1.2220    0.5402 H   0  0  0  0  0  0  0  0  0  0  0  0
   -0.2939   -1.6201   -1.3969 H   0  0  0  0  0  0  0  0  0  0  0  0
   -2.0326   -1.1599   -1.3946 H   0  0  0  0  0  0  0  0  0  0  0  0
   -0.8279    0.0993   -1.9056 H   0  0  0  0  0  0  0  0  0  0  0  0
   -2.9667    2.1508   -0.5247 H   0  0  0  0  0  0  0  0  0  0  0  0
   -2.9063    0.7002   -1.6076 H   0  0  0  0  0  0  0  0  0  0  0  0
   -3.8443    0.7080   -0.0491 H   0  0  0  0  0  0  0  0  0  0  0  0
  1  2  3  0
  2  3  1  0
  3  4  1  0
  4  5  1  0
  3  6  1  0
  6  7  1  0
  6  8  1  0
  8  9  1  0
  1 10  1  0
  3 11  1  0
  4 12  1  0
  4 13  1  0
  5 14  1  0
  5 15  1  0
  5 16  1  0
  6 17  1  0
  7 18  1  0
  7 19  1  0
  7 20  1  0
  9 21  1  0
  9 22  1  0
  9 23  1  0
M  END
