
     RDKit          3D

 19 19  0  0  0  0  0  0  0  0999 V2000
    2.1478    1.8767    1.2352 C   0  0  0  0  0  0  0  0  0  0  0  0
    1.4958    0.8978    1.0863 C   0  0  0  0  0  0  0  0  0  0  0  0
    0.6933   -0.3005    0.9290 C   0  0  0  0  0  0  0  0  0  0  0  0
   -0.7419   -0.0753    1.4215 C   0  0  0  0  0  0  0  0  0  0  0  0
   -1.1530   -1.0290    0.3008 C   0  0  0  0  0  0  0  0  0  0  0  0
    0.1111   -0.5475   -0.4223 C   0  0  0  0  0  0  0  0  0  0  0  0
    0.6625   -1.5886   -1.1391 O   0  0  0  0  0  0  0  0  0  0  0  0
   -0.1387    0.6775   -1.2675 C   0  0  0  0  0  0  0  0  0  0  0  0
   -1.0142    0.4144   -2.3152 O   0  0  0  0  0  0  0  0  0  0  0  0
    2.7425    2.7691    1.3528 H   0  0  0  0  0  0  0  0  0  0  0  0
    1.0912   -1.2259    1.3828 H   0  0  0  0  0  0  0  0  0  0  0  0
   -0.9030   -0.4543    2.4277 H   0  0  0  0  0  0  0  0  0  0  0  0
   -1.0867    0.9322    1.1759 H   0  0  0  0  0  0  0  0  0  0  0  0
   -1.0974   -2.0903    0.6198 H   0  0  0  0  0  0  0  0  0  0  0  0
   -2.0930   -0.7744   -0.1921 H   0  0  0  0  0  0  0  0  0  0  0  0
    0.3377   -1.5340   -2.0750 H   0  0  0  0  0  0  0  0  0  0  0  0
   -0.4259    1.5565   -0.6730 H   0  0  0  0  0  0  0  0  0  0  0  0
    0.8431    0.9341   -1.7415 H   0  0  0  0  0  0  0  0  0  0  0  0
   -1.4714   -0.4386   -2.1059 H   0  0  0  0  0  0  0  0  0  0  0  0
  1  2  3  0
  2  3  1  0
  3  4  1  0
  4  5  1  0
  5  6  1  0
  6  7  1  0
  6  8  1  0
  8  9  1  0
  6  3  1  0
  1 10  1  0
  3 11  1  0
  4 12  1  0
  4 13  1  0
  5 14  1  0
  5 15  1  0
  7 16  1  0
  8 17  1  0
  8 18  1  0
  9 19  1  0
M  END
