
     RDKit          3D

 19 20  0  0  0  0  0  0  0  0999 V2000
    3.2135   -0.5962   -1.0210 C   0  0  0  0  0  0  0  0  0  0  0  0
    2.2479   -0.4686   -0.3250 C   0  0  0  0  0  0  0  0  0  0  0  0
    1.0794   -0.2956    0.4978 C   0  0  0  0  0  0  0  0  0  0  0  0
    0.0095   -1.3759    0.2836 C   0  0  0  0  0  0  0  0  0  0  0  0
   -0.9981   -0.2486    0.5477 C   0  0  0  0  0  0  0  0  0  0  0  0
   -2.2480   -0.3413   -0.2596 C   0  0  0  0  0  0  0  0  0  0  0  0
    0.0591    0.6891    0.0661 C   0  0  0  0  0  0  0  0  0  0  0  0
    0.0352    2.0495    0.0732 C   0  0  0  0  0  0  0  0  0  0  0  0
    0.0291    1.2460   -1.1794 O   0  0  0  0  0  0  0  0  0  0  0  0
    4.0853   -0.6958   -1.6352 H   0  0  0  0  0  0  0  0  0  0  0  0
    1.2817   -0.2093    1.5909 H   0  0  0  0  0  0  0  0  0  0  0  0
    0.0099   -2.1765    1.0172 H   0  0  0  0  0  0  0  0  0  0  0  0
   -0.0329   -1.6501   -0.7797 H   0  0  0  0  0  0  0  0  0  0  0  0
   -1.1628   -0.1732    1.6503 H   0  0  0  0  0  0  0  0  0  0  0  0
   -2.0264   -0.0388   -1.2883 H   0  0  0  0  0  0  0  0  0  0  0  0
   -2.6199   -1.3964   -0.2508 H   0  0  0  0  0  0  0  0  0  0  0  0
   -2.9991    0.3411    0.1979 H   0  0  0  0  0  0  0  0  0  0  0  0
   -0.9015    2.6417    0.1264 H   0  0  0  0  0  0  0  0  0  0  0  0
    0.9382    2.6990    0.1052 H   0  0  0  0  0  0  0  0  0  0  0  0
  1  2  3  0
  2  3  1  0
  3  4  1  0
  4  5  1  0
  5  6  1  0
  5  7  1  0
  7  8  1  0
  8  9  1  0
  7  3  1  0
  9  7  1  0
  1 10  1  0
  3 11  1  0
  4 12  1  0
  4 13  1  0
  5 14  1  0
  6 15  1  0
  6 16  1  0
  6 17  1  0
  8 18  1  0
  8 19  1  0
M  END
