
     RDKit          3D

 17 17  0  0  0  0  0  0  0  0999 V2000
    1.0571   -1.8281    2.3141 C   0  0  0  0  0  0  0  0  0  0  0  0
    1.2493   -1.5816    1.2126 C   0  0  0  0  0  0  0  0  0  0  0  0
    1.5204   -1.2702   -0.1955 C   0  0  0  0  0  0  0  0  0  0  0  0
    0.6205   -1.7970   -1.1286 O   0  0  0  0  0  0  0  0  0  0  0  0
    0.7819   -0.3370   -0.9428 C   0  0  0  0  0  0  0  0  0  0  0  0
   -0.5070    0.3068   -0.6191 C   0  0  0  0  0  0  0  0  0  0  0  0
   -0.5120    1.1477    0.6323 C   0  0  0  0  0  0  0  0  0  0  0  0
   -1.8846    1.7436    0.8331 C   0  0  0  0  0  0  0  0  0  0  0  0
   -1.9992    2.4539    1.8198 O   0  0  0  0  0  0  0  0  0  0  0  0
    0.8462   -2.0710    3.4107 H   0  0  0  0  0  0  0  0  0  0  0  0
    2.5773   -1.4849   -0.4867 H   0  0  0  0  0  0  0  0  0  0  0  0
    1.2787    0.0964   -1.8715 H   0  0  0  0  0  0  0  0  0  0  0  0
   -0.8255    0.9482   -1.4677 H   0  0  0  0  0  0  0  0  0  0  0  0
   -1.3300   -0.4630   -0.4557 H   0  0  0  0  0  0  0  0  0  0  0  0
   -0.3362    0.5456    1.5382 H   0  0  0  0  0  0  0  0  0  0  0  0
    0.1737    2.0110    0.5790 H   0  0  0  0  0  0  0  0  0  0  0  0
   -2.7106    1.5796    0.1875 H   0  0  0  0  0  0  0  0  0  0  0  0
  1  2  3  0
  2  3  1  0
  3  4  1  0
  4  5  1  0
  5  6  1  0
  6  7  1  0
  7  8  1  0
  8  9  2  0
  5  3  1  0
  1 10  1  0
  3 11  1  0
  5 12  1  0
  6 13  1  0
  6 14  1  0
  7 15  1  0
  7 16  1  0
  8 17  1  0
M  END
