
     RDKit          3D

 16 16  0  0  0  0  0  0  0  0999 V2000
   -2.5854    0.8212   -1.8935 C   0  0  0  0  0  0  0  0  0  0  0  0
   -1.5788    0.2394   -1.3690 C   0  0  0  0  0  0  0  0  0  0  0  0
   -0.4140   -0.4322   -0.7757 C   0  0  0  0  0  0  0  0  0  0  0  0
   -0.6609   -1.6810   -0.2488 O   0  0  0  0  0  0  0  0  0  0  0  0
    0.9063   -0.1276   -1.4601 C   0  0  0  0  0  0  0  0  0  0  0  0
    0.5486    0.4900   -0.1200 C   0  0  0  0  0  0  0  0  0  0  0  0
    1.3849    0.0509    1.0303 C   0  0  0  0  0  0  0  0  0  0  0  0
    0.5989   -0.3424    2.1058 O   0  0  0  0  0  0  0  0  0  0  0  0
   -3.3538    1.2740   -2.2789 H   0  0  0  0  0  0  0  0  0  0  0  0
   -1.6330   -1.8631   -0.2470 H   0  0  0  0  0  0  0  0  0  0  0  0
    1.6019   -0.9712   -1.5225 H   0  0  0  0  0  0  0  0  0  0  0  0
    0.8894    0.5574   -2.3405 H   0  0  0  0  0  0  0  0  0  0  0  0
    0.2289    1.5651   -0.0873 H   0  0  0  0  0  0  0  0  0  0  0  0
    2.0352   -0.8290    0.7908 H   0  0  0  0  0  0  0  0  0  0  0  0
    2.0732    0.8616    1.3340 H   0  0  0  0  0  0  0  0  0  0  0  0
   -0.0414    0.3871    2.3915 H   0  0  0  0  0  0  0  0  0  0  0  0
  1  2  3  0
  2  3  1  0
  3  4  1  0
  3  5  1  0
  5  6  1  0
  6  7  1  0
  7  8  1  0
  6  3  1  0
  1  9  1  0
  4 10  1  0
  5 11  1  0
  5 12  1  0
  6 13  1  0
  7 14  1  0
  7 15  1  0
  8 16  1  0
M  END
