
     RDKit          3D

 15 15  0  0  0  0  0  0  0  0999 V2000
   -0.1537   -1.7249    1.8512 C   0  0  0  0  0  0  0  0  0  0  0  0
    0.1398   -1.2665    0.5450 C   0  0  0  0  0  0  0  0  0  0  0  0
    0.3641   -0.8886   -0.5201 C   0  0  0  0  0  0  0  0  0  0  0  0
    1.5857    0.2238   -0.5637 C   0  0  0  0  0  0  0  0  0  0  0  0
    1.0189    1.3285   -0.0327 C   0  0  0  0  0  0  0  0  0  0  0  0
   -0.3461    1.1077    0.3132 C   0  0  0  0  0  0  0  0  0  0  0  0
   -1.0924    1.4151    1.2201 O   0  0  0  0  0  0  0  0  0  0  0  0
   -0.7556    0.2375   -0.9144 C   0  0  0  0  0  0  0  0  0  0  0  0
   -2.0298   -0.2726   -0.6693 O   0  0  0  0  0  0  0  0  0  0  0  0
   -0.3811   -2.1171    2.9256 H   0  0  0  0  0  0  0  0  0  0  0  0
    0.4435   -1.3788   -1.5350 H   0  0  0  0  0  0  0  0  0  0  0  0
    2.4613    0.0189   -0.9712 H   0  0  0  0  0  0  0  0  0  0  0  0
    1.7007    2.2078    0.1598 H   0  0  0  0  0  0  0  0  0  0  0  0
   -0.4810    0.6477   -1.7802 H   0  0  0  0  0  0  0  0  0  0  0  0
   -2.4744    0.4614   -0.0282 H   0  0  0  0  0  0  0  0  0  0  0  0
  1  2  3  0
  2  3  1  0
  3  4  1  0
  4  5  2  0
  5  6  1  0
  6  7  2  0
  6  8  1  0
  8  9  1  0
  8  3  1  0
  1 10  1  0
  3 11  1  0
  4 12  1  0
  5 13  1  0
  8 14  1  0
  9 15  1  0
M  END
