
     RDKit          3D

 15 16  0  0  0  0  0  0  0  0999 V2000
    2.4082    0.8810   -1.0829 C   0  0  0  0  0  0  0  0  0  0  0  0
    1.2031    0.5037   -1.1605 C   0  0  0  0  0  0  0  0  0  0  0  0
   -0.1789    0.0806   -1.2316 C   0  0  0  0  0  0  0  0  0  0  0  0
   -0.5838   -0.8665   -0.1978 C   0  0  0  0  0  0  0  0  0  0  0  0
    0.0611   -1.1137    1.0577 C   0  0  0  0  0  0  0  0  0  0  0  0
   -0.1539    0.0296    1.8239 O   0  0  0  0  0  0  0  0  0  0  0  0
   -0.8801    0.9590    1.1444 C   0  0  0  0  0  0  0  0  0  0  0  0
   -1.3405    2.0284    1.7420 O   0  0  0  0  0  0  0  0  0  0  0  0
   -1.0180    0.5634   -0.1844 C   0  0  0  0  0  0  0  0  0  0  0  0
    3.4158    1.1887   -1.0332 H   0  0  0  0  0  0  0  0  0  0  0  0
   -0.5415   -0.1182   -2.2433 H   0  0  0  0  0  0  0  0  0  0  0  0
   -1.2348   -1.6729   -0.5522 H   0  0  0  0  0  0  0  0  0  0  0  0
   -0.2800   -2.0618    1.5753 H   0  0  0  0  0  0  0  0  0  0  0  0
    1.1922   -1.2256    0.9065 H   0  0  0  0  0  0  0  0  0  0  0  0
   -2.0687    0.8244   -0.5638 H   0  0  0  0  0  0  0  0  0  0  0  0
  1  2  3  0
  2  3  1  0
  3  4  1  0
  4  5  1  0
  5  6  1  0
  6  7  1  0
  7  8  2  0
  7  9  1  0
  9  3  1  0
  9  4  1  0
  1 10  1  0
  3 11  1  0
  4 12  1  0
  5 13  1  0
  5 14  1  0
  9 15  1  0
M  END
