
     RDKit          3D

 17 17  0  0  0  0  0  0  0  0999 V2000
    2.7277    0.2066   -0.9042 C   0  0  0  0  0  0  0  0  0  0  0  0
    1.8487   -0.5536   -0.5123 C   0  0  0  0  0  0  0  0  0  0  0  0
    0.8182   -1.4219   -0.0393 C   0  0  0  0  0  0  0  0  0  0  0  0
    1.0963   -2.6530    0.0819 O   0  0  0  0  0  0  0  0  0  0  0  0
   -0.5251   -0.8846    0.2941 C   0  0  0  0  0  0  0  0  0  0  0  0
   -0.4569    0.1457    1.3720 C   0  0  0  0  0  0  0  0  0  0  0  0
   -0.5898    1.4033    0.6111 C   0  0  0  0  0  0  0  0  0  0  0  0
   -0.9626    1.2316   -0.6396 C   0  0  0  0  0  0  0  0  0  0  0  0
   -1.1391   -0.2100   -0.9040 C   0  0  0  0  0  0  0  0  0  0  0  0
    3.5093    0.8595   -1.2433 H   0  0  0  0  0  0  0  0  0  0  0  0
   -1.2100   -1.7413    0.5746 H   0  0  0  0  0  0  0  0  0  0  0  0
    0.4841    0.1066    1.9622 H   0  0  0  0  0  0  0  0  0  0  0  0
   -1.3539    0.0412    2.0389 H   0  0  0  0  0  0  0  0  0  0  0  0
   -0.3936    2.3955    1.0549 H   0  0  0  0  0  0  0  0  0  0  0  0
   -1.1182    2.0572   -1.3815 H   0  0  0  0  0  0  0  0  0  0  0  0
   -2.2054   -0.4912   -1.0470 H   0  0  0  0  0  0  0  0  0  0  0  0
   -0.5297   -0.4917   -1.7925 H   0  0  0  0  0  0  0  0  0  0  0  0
  1  2  3  0
  2  3  1  0
  3  4  2  0
  3  5  1  0
  5  6  1  0
  6  7  1  0
  7  8  2  0
  8  9  1  0
  9  5  1  0
  1 10  1  0
  5 11  1  0
  6 12  1  0
  6 13  1  0
  7 14  1  0
  8 15  1  0
  9 16  1  0
  9 17  1  0
M  END
