
     RDKit          3D

 19 20  0  0  0  0  0  0  0  0999 V2000
    3.7178   -0.4277    0.2301 C   0  0  0  0  0  0  0  0  0  0  0  0
    2.6931   -0.1420   -0.3348 C   0  0  0  0  0  0  0  0  0  0  0  0
    1.4453    0.2071   -0.9941 C   0  0  0  0  0  0  0  0  0  0  0  0
    0.4644   -0.9712   -1.1046 C   0  0  0  0  0  0  0  0  0  0  0  0
   -0.3747   -0.2222   -0.0620 C   0  0  0  0  0  0  0  0  0  0  0  0
   -1.8513   -0.2049   -0.1903 C   0  0  0  0  0  0  0  0  0  0  0  0
   -2.3999    0.6110    0.9821 C   0  0  0  0  0  0  0  0  0  0  0  0
    0.2596   -0.1201    1.1540 O   0  0  0  0  0  0  0  0  0  0  0  0
    0.4852    0.8002    0.0044 C   0  0  0  0  0  0  0  0  0  0  0  0
    4.6289   -0.6969    0.7409 H   0  0  0  0  0  0  0  0  0  0  0  0
    1.5203    0.8318   -1.8751 H   0  0  0  0  0  0  0  0  0  0  0  0
    0.9254   -1.8779   -0.6942 H   0  0  0  0  0  0  0  0  0  0  0  0
   -0.0113   -1.0450   -2.0887 H   0  0  0  0  0  0  0  0  0  0  0  0
   -2.1679    0.2239   -1.1634 H   0  0  0  0  0  0  0  0  0  0  0  0
   -2.2525   -1.2432   -0.0694 H   0  0  0  0  0  0  0  0  0  0  0  0
   -1.9102    0.3097    1.9057 H   0  0  0  0  0  0  0  0  0  0  0  0
   -2.2516    1.7040    0.7843 H   0  0  0  0  0  0  0  0  0  0  0  0
   -3.4870    0.4602    1.0796 H   0  0  0  0  0  0  0  0  0  0  0  0
    0.5663    1.8031    0.3773 H   0  0  0  0  0  0  0  0  0  0  0  0
  1  2  3  0
  2  3  1  0
  3  4  1  0
  4  5  1  0
  5  6  1  0
  6  7  1  0
  5  8  1  0
  8  9  1  0
  9  3  1  0
  9  5  1  0
  1 10  1  0
  3 11  1  0
  4 12  1  0
  4 13  1  0
  6 14  1  0
  6 15  1  0
  7 16  1  0
  7 17  1  0
  7 18  1  0
  9 19  1  0
M  END
