
     RDKit          3D

 14 15  0  0  0  0  0  0  0  0999 V2000
    2.6410   -0.1546    0.4748 C   0  0  0  0  0  0  0  0  0  0  0  0
    1.5592    0.0537   -0.0173 C   0  0  0  0  0  0  0  0  0  0  0  0
    0.2656    0.3099   -0.6041 C   0  0  0  0  0  0  0  0  0  0  0  0
   -0.5677   -0.7360   -1.1855 C   0  0  0  0  0  0  0  0  0  0  0  0
   -0.9227   -0.1854    0.1300 C   0  0  0  0  0  0  0  0  0  0  0  0
   -0.7946   -0.9970    1.2541 O   0  0  0  0  0  0  0  0  0  0  0  0
   -1.0760    1.2711    0.4003 C   0  0  0  0  0  0  0  0  0  0  0  0
   -0.2191    1.6126   -0.6698 O   0  0  0  0  0  0  0  0  0  0  0  0
    3.5946   -0.3484    0.8923 H   0  0  0  0  0  0  0  0  0  0  0  0
   -1.1596   -0.4353   -2.0973 H   0  0  0  0  0  0  0  0  0  0  0  0
   -0.1694   -1.7707   -1.2021 H   0  0  0  0  0  0  0  0  0  0  0  0
   -0.4665   -1.8923    1.0603 H   0  0  0  0  0  0  0  0  0  0  0  0
   -0.6177    1.5584    1.3722 H   0  0  0  0  0  0  0  0  0  0  0  0
   -2.0669    1.7139    0.1921 H   0  0  0  0  0  0  0  0  0  0  0  0
  1  2  3  0
  2  3  1  0
  3  4  1  0
  4  5  1  0
  5  6  1  0
  5  7  1  0
  7  8  1  0
  5  3  1  0
  8  3  1  0
  1  9  1  0
  4 10  1  0
  4 11  1  0
  6 12  1  0
  7 13  1  0
  7 14  1  0
M  END
