
     RDKit          3D

 19 20  0  0  0  0  0  0  0  0999 V2000
    2.3210    2.0877   -1.3429 C   0  0  0  0  0  0  0  0  0  0  0  0
    1.4117    1.3689   -0.9553 C   0  0  0  0  0  0  0  0  0  0  0  0
    0.3330    0.5424   -0.4857 C   0  0  0  0  0  0  0  0  0  0  0  0
    0.4400   -0.7249   -0.1270 C   0  0  0  0  0  0  0  0  0  0  0  0
    1.7169   -1.5094   -0.1532 C   0  0  0  0  0  0  0  0  0  0  0  0
   -0.8543   -1.2809    0.3054 C   0  0  0  0  0  0  0  0  0  0  0  0
   -1.8405   -0.1859    0.0141 C   0  0  0  0  0  0  0  0  0  0  0  0
   -1.7663    0.9903    0.9443 C   0  0  0  0  0  0  0  0  0  0  0  0
   -1.0671    1.0226   -0.3429 C   0  0  0  0  0  0  0  0  0  0  0  0
    3.1130    2.7168   -1.6618 H   0  0  0  0  0  0  0  0  0  0  0  0
    2.3710   -1.0662   -0.9581 H   0  0  0  0  0  0  0  0  0  0  0  0
    2.2303   -1.4707    0.8409 H   0  0  0  0  0  0  0  0  0  0  0  0
    1.5492   -2.5471   -0.4369 H   0  0  0  0  0  0  0  0  0  0  0  0
   -0.8202   -1.5004    1.3923 H   0  0  0  0  0  0  0  0  0  0  0  0
   -1.0911   -2.2295   -0.2281 H   0  0  0  0  0  0  0  0  0  0  0  0
   -2.7342   -0.3844   -0.5870 H   0  0  0  0  0  0  0  0  0  0  0  0
   -2.6727    1.6033    1.0363 H   0  0  0  0  0  0  0  0  0  0  0  0
   -1.1718    0.8636    1.8956 H   0  0  0  0  0  0  0  0  0  0  0  0
   -1.4678    1.7039   -1.1426 H   0  0  0  0  0  0  0  0  0  0  0  0
  1  2  3  0
  2  3  1  0
  3  4  2  0
  4  5  1  0
  4  6  1  0
  6  7  1  0
  7  8  1  0
  8  9  1  0
  9  3  1  0
  9  7  1  0
  1 10  1  0
  5 11  1  0
  5 12  1  0
  5 13  1  0
  6 14  1  0
  6 15  1  0
  7 16  1  0
  8 17  1  0
  8 18  1  0
  9 19  1  0
M  END
