
     RDKit          3D

 17 18  0  0  0  0  0  0  0  0999 V2000
    1.4333   -1.1769    3.2039 C   0  0  0  0  0  0  0  0  0  0  0  0
    1.3669   -0.8221    2.1633 C   0  0  0  0  0  0  0  0  0  0  0  0
    1.2975   -0.2936    0.6419 C   0  0  0  0  0  0  0  0  0  0  0  0
    2.3379   -0.5758    0.1464 O   0  0  0  0  0  0  0  0  0  0  0  0
    0.0828    0.3234    0.3711 C   0  0  0  0  0  0  0  0  0  0  0  0
   -0.0720    1.0738   -0.9376 C   0  0  0  0  0  0  0  0  0  0  0  0
   -1.5375    0.8836   -0.7759 C   0  0  0  0  0  0  0  0  0  0  0  0
   -1.0075   -0.4230   -0.3916 C   0  0  0  0  0  0  0  0  0  0  0  0
   -0.1126   -0.3099   -1.5746 C   0  0  0  0  0  0  0  0  0  0  0  0
    1.5068   -1.4843    4.0993 H   0  0  0  0  0  0  0  0  0  0  0  0
   -0.4309    0.9080    1.1981 H   0  0  0  0  0  0  0  0  0  0  0  0
    0.4693    1.8399   -1.2375 H   0  0  0  0  0  0  0  0  0  0  0  0
   -2.0692    0.8724   -1.7729 H   0  0  0  0  0  0  0  0  0  0  0  0
   -2.0038    1.5462   -0.0407 H   0  0  0  0  0  0  0  0  0  0  0  0
   -1.4656   -1.2654   -0.0181 H   0  0  0  0  0  0  0  0  0  0  0  0
    0.8655   -0.7922   -1.5737 H   0  0  0  0  0  0  0  0  0  0  0  0
   -0.6609   -0.3042   -2.5347 H   0  0  0  0  0  0  0  0  0  0  0  0
  1  2  3  0
  2  3  1  0
  3  4  2  0
  3  5  1  0
  5  6  1  0
  6  7  1  0
  7  8  1  0
  8  9  1  0
  8  5  1  0
  9  6  1  0
  1 10  1  0
  5 11  1  0
  6 12  1  0
  7 13  1  0
  7 14  1  0
  8 15  1  0
  9 16  1  0
  9 17  1  0
M  END
