
     RDKit          3D

 17 18  0  0  0  0  0  0  0  0999 V2000
    2.8261   -1.3710   -0.6427 C   0  0  0  0  0  0  0  0  0  0  0  0
    1.7356   -0.8564   -0.6413 C   0  0  0  0  0  0  0  0  0  0  0  0
    0.4228   -0.2483   -0.6166 C   0  0  0  0  0  0  0  0  0  0  0  0
    0.3734    1.0934    0.1492 C   0  0  0  0  0  0  0  0  0  0  0  0
    0.6025    2.1964   -0.6384 O   0  0  0  0  0  0  0  0  0  0  0  0
   -1.1014    0.6968    0.1747 C   0  0  0  0  0  0  0  0  0  0  0  0
   -1.7290   -0.3326    0.9248 C   0  0  0  0  0  0  0  0  0  0  0  0
   -2.7214   -1.1759    0.3613 O   0  0  0  0  0  0  0  0  0  0  0  0
   -0.3837   -0.6501    0.6215 C   0  0  0  0  0  0  0  0  0  0  0  0
    3.7822   -1.8312   -0.6475 H   0  0  0  0  0  0  0  0  0  0  0  0
   -0.1211   -0.2526   -1.5534 H   0  0  0  0  0  0  0  0  0  0  0  0
    0.8585    1.0319    1.1160 H   0  0  0  0  0  0  0  0  0  0  0  0
    1.5349    2.4668   -0.6047 H   0  0  0  0  0  0  0  0  0  0  0  0
   -1.4256    0.6924   -0.9171 H   0  0  0  0  0  0  0  0  0  0  0  0
   -2.0437   -0.0694    1.9799 H   0  0  0  0  0  0  0  0  0  0  0  0
   -2.9444   -0.8786   -0.5582 H   0  0  0  0  0  0  0  0  0  0  0  0
    0.3345   -0.5119    1.4926 H   0  0  0  0  0  0  0  0  0  0  0  0
  1  2  3  0
  2  3  1  0
  3  4  1  0
  4  5  1  0
  4  6  1  0
  6  7  1  0
  7  8  1  0
  7  9  1  0
  9  3  1  0
  9  6  1  0
  1 10  1  0
  3 11  1  0
  4 12  1  0
  5 13  1  0
  6 14  1  0
  7 15  1  0
  8 16  1  0
  9 17  1  0
M  END
