
     RDKit          3D

 17 16  0  0  0  0  0  0  0  0999 V2000
   -0.8628    3.0348    0.4369 C   0  0  0  0  0  0  0  0  0  0  0  0
   -0.8151    1.8705    0.1408 C   0  0  0  0  0  0  0  0  0  0  0  0
   -0.7752    0.4513   -0.2153 C   0  0  0  0  0  0  0  0  0  0  0  0
   -1.9618   -0.2035    0.4639 C   0  0  0  0  0  0  0  0  0  0  0  0
   -0.9418    0.2546   -1.5860 O   0  0  0  0  0  0  0  0  0  0  0  0
    0.4878   -0.1810    0.2135 C   0  0  0  0  0  0  0  0  0  0  0  0
    0.8983   -0.1640    1.3966 O   0  0  0  0  0  0  0  0  0  0  0  0
    1.3017   -0.8447   -0.7116 O   0  0  0  0  0  0  0  0  0  0  0  0
    2.5174   -1.4574   -0.3185 C   0  0  0  0  0  0  0  0  0  0  0  0
   -0.8879    4.0817    0.6967 H   0  0  0  0  0  0  0  0  0  0  0  0
   -1.8989   -1.2951    0.2074 H   0  0  0  0  0  0  0  0  0  0  0  0
   -2.9179    0.2240    0.1617 H   0  0  0  0  0  0  0  0  0  0  0  0
   -1.7672   -0.1506    1.5563 H   0  0  0  0  0  0  0  0  0  0  0  0
   -0.9621   -0.7286   -1.7193 H   0  0  0  0  0  0  0  0  0  0  0  0
    3.2771   -0.7146    0.0120 H   0  0  0  0  0  0  0  0  0  0  0  0
    2.9375   -1.9637   -1.2113 H   0  0  0  0  0  0  0  0  0  0  0  0
    2.3710   -2.2136    0.4763 H   0  0  0  0  0  0  0  0  0  0  0  0
  1  2  3  0
  2  3  1  0
  3  4  1  0
  3  5  1  0
  3  6  1  0
  6  7  2  0
  6  8  1  0
  8  9  1  0
  1 10  1  0
  4 11  1  0
  4 12  1  0
  4 13  1  0
  5 14  1  0
  9 15  1  0
  9 16  1  0
  9 17  1  0
M  END
