
     RDKit          3D

 15 16  0  0  0  0  0  0  0  0999 V2000
    0.2109    2.3870    1.1699 C   0  0  0  0  0  0  0  0  0  0  0  0
    0.1660    1.2153    0.8825 C   0  0  0  0  0  0  0  0  0  0  0  0
    0.1306   -0.2072    0.5478 C   0  0  0  0  0  0  0  0  0  0  0  0
   -0.5857   -1.0868    1.3327 O   0  0  0  0  0  0  0  0  0  0  0  0
   -1.4742   -1.3802    0.3223 C   0  0  0  0  0  0  0  0  0  0  0  0
   -0.7331   -0.5807   -0.6975 C   0  0  0  0  0  0  0  0  0  0  0  0
    0.7480   -0.6832   -0.7408 C   0  0  0  0  0  0  0  0  0  0  0  0
    1.5510    0.3451   -1.4404 C   0  0  0  0  0  0  0  0  0  0  0  0
    2.6022    0.0298   -1.9516 O   0  0  0  0  0  0  0  0  0  0  0  0
    0.2338    3.4136    1.4303 H   0  0  0  0  0  0  0  0  0  0  0  0
   -2.4776   -0.9069    0.5366 H   0  0  0  0  0  0  0  0  0  0  0  0
   -1.5388   -2.4757    0.1482 H   0  0  0  0  0  0  0  0  0  0  0  0
   -1.2094    0.2856   -1.1966 H   0  0  0  0  0  0  0  0  0  0  0  0
    1.1621   -1.7204   -0.7195 H   0  0  0  0  0  0  0  0  0  0  0  0
    1.2142    1.3646   -1.5002 H   0  0  0  0  0  0  0  0  0  0  0  0
  1  2  3  0
  2  3  1  0
  3  4  1  0
  4  5  1  0
  5  6  1  0
  6  7  1  0
  7  8  1  0
  8  9  2  0
  6  3  1  0
  7  3  1  0
  1 10  1  0
  5 11  1  0
  5 12  1  0
  6 13  1  0
  7 14  1  0
  8 15  1  0
M  END
