
     RDKit          3D

 19 19  0  0  0  0  0  0  0  0999 V2000
    2.2399    2.0169    0.7913 C   0  0  0  0  0  0  0  0  0  0  0  0
    1.4795    0.6506    0.4904 C   0  0  0  0  0  0  0  0  0  0  0  0
    0.9588   -0.3013    0.2956 C   0  0  0  0  0  0  0  0  0  0  0  0
    1.8959   -1.4173   -0.4494 C   0  0  0  0  0  0  0  0  0  0  0  0
    0.0117   -1.0810    1.1907 C   0  0  0  0  0  0  0  0  0  0  0  0
   -1.2450   -0.6024    0.9656 C   0  0  0  0  0  0  0  0  0  0  0  0
   -1.0295    0.4986   -0.0523 C   0  0  0  0  0  0  0  0  0  0  0  0
   -2.3395    0.9180   -0.6726 C   0  0  0  0  0  0  0  0  0  0  0  0
   -0.1090   -0.1866   -0.8795 O   0  0  0  0  0  0  0  0  0  0  0  0
    2.7915    3.0312    1.0163 H   0  0  0  0  0  0  0  0  0  0  0  0
    1.1585   -2.2077   -0.8162 H   0  0  0  0  0  0  0  0  0  0  0  0
    2.6342   -1.7002    0.2875 H   0  0  0  0  0  0  0  0  0  0  0  0
    2.1769   -0.8931   -1.4148 H   0  0  0  0  0  0  0  0  0  0  0  0
    0.3002   -1.8541    1.8424 H   0  0  0  0  0  0  0  0  0  0  0  0
   -2.1236   -1.0452    1.4413 H   0  0  0  0  0  0  0  0  0  0  0  0
   -0.4878    1.3111    0.4981 H   0  0  0  0  0  0  0  0  0  0  0  0
   -2.7089    0.2380   -1.4473 H   0  0  0  0  0  0  0  0  0  0  0  0
   -3.0966    0.6590    0.2558 H   0  0  0  0  0  0  0  0  0  0  0  0
   -2.5070    1.9653   -0.6120 H   0  0  0  0  0  0  0  0  0  0  0  0
  1  2  3  0
  2  3  1  0
  3  4  1  0
  3  5  1  0
  5  6  2  0
  6  7  1  0
  7  8  1  0
  7  9  1  0
  9  3  1  0
  1 10  1  0
  4 11  1  0
  4 12  1  0
  4 13  1  0
  5 14  1  0
  6 15  1  0
  7 16  1  0
  8 17  1  0
  8 18  1  0
  8 19  1  0
M  END
