
     RDKit          3D

 17 17  0  0  0  0  0  0  0  0999 V2000
    3.2394    0.2300    0.2679 C   0  0  0  0  0  0  0  0  0  0  0  0
    2.2394   -0.4447    0.2339 C   0  0  0  0  0  0  0  0  0  0  0  0
    1.0138   -1.2763    0.2014 C   0  0  0  0  0  0  0  0  0  0  0  0
   -0.0169   -0.4974   -0.5560 C   0  0  0  0  0  0  0  0  0  0  0  0
   -0.3189    0.8468    0.1189 C   0  0  0  0  0  0  0  0  0  0  0  0
   -1.7267    0.6094   -0.4361 C   0  0  0  0  0  0  0  0  0  0  0  0
   -2.7463    1.1054    0.3267 O   0  0  0  0  0  0  0  0  0  0  0  0
   -1.4350   -0.8459   -0.2659 C   0  0  0  0  0  0  0  0  0  0  0  0
   -2.1354   -1.7930   -0.0058 O   0  0  0  0  0  0  0  0  0  0  0  0
    4.1200    0.8114    0.2825 H   0  0  0  0  0  0  0  0  0  0  0  0
    0.6954   -1.4923    1.2231 H   0  0  0  0  0  0  0  0  0  0  0  0
    1.2703   -2.1918   -0.3506 H   0  0  0  0  0  0  0  0  0  0  0  0
    0.1699   -0.4308   -1.6338 H   0  0  0  0  0  0  0  0  0  0  0  0
   -0.3025    0.7064    1.2121 H   0  0  0  0  0  0  0  0  0  0  0  0
    0.2082    1.7008   -0.2955 H   0  0  0  0  0  0  0  0  0  0  0  0
   -1.7256    0.8859   -1.5150 H   0  0  0  0  0  0  0  0  0  0  0  0
   -2.5489    2.0760    0.5054 H   0  0  0  0  0  0  0  0  0  0  0  0
  1  2  3  0
  2  3  1  0
  3  4  1  0
  4  5  1  0
  5  6  1  0
  6  7  1  0
  6  8  1  0
  8  9  2  0
  8  4  1  0
  1 10  1  0
  3 11  1  0
  3 12  1  0
  4 13  1  0
  5 14  1  0
  5 15  1  0
  6 16  1  0
  7 17  1  0
M  END
