
     RDKit          3D

 19 19  0  0  0  0  0  0  0  0999 V2000
    3.1461    1.0790   -0.9317 C   0  0  0  0  0  0  0  0  0  0  0  0
    2.3028    0.2279   -0.7843 C   0  0  0  0  0  0  0  0  0  0  0  0
    1.2779   -0.7820   -0.5936 C   0  0  0  0  0  0  0  0  0  0  0  0
    0.2424   -0.3581    0.4033 C   0  0  0  0  0  0  0  0  0  0  0  0
   -0.5194    0.8916    0.0694 C   0  0  0  0  0  0  0  0  0  0  0  0
   -0.2839    1.9760    0.8947 O   0  0  0  0  0  0  0  0  0  0  0  0
   -1.7798    0.1595    0.5564 C   0  0  0  0  0  0  0  0  0  0  0  0
   -1.0551   -1.1273    0.1525 C   0  0  0  0  0  0  0  0  0  0  0  0
   -1.2091   -1.3192   -1.2080 O   0  0  0  0  0  0  0  0  0  0  0  0
    3.8841    1.8444   -1.0613 H   0  0  0  0  0  0  0  0  0  0  0  0
    0.7530   -1.0507   -1.5392 H   0  0  0  0  0  0  0  0  0  0  0  0
    1.7542   -1.7103   -0.1956 H   0  0  0  0  0  0  0  0  0  0  0  0
    0.5225   -0.3970    1.4596 H   0  0  0  0  0  0  0  0  0  0  0  0
   -0.6465    1.1122   -1.0000 H   0  0  0  0  0  0  0  0  0  0  0  0
   -0.6033    2.7923    0.4219 H   0  0  0  0  0  0  0  0  0  0  0  0
   -2.6840    0.3764   -0.0075 H   0  0  0  0  0  0  0  0  0  0  0  0
   -1.9043    0.1823    1.6558 H   0  0  0  0  0  0  0  0  0  0  0  0
   -1.2248   -1.9838    0.7952 H   0  0  0  0  0  0  0  0  0  0  0  0
   -1.9731   -1.9133   -1.3866 H   0  0  0  0  0  0  0  0  0  0  0  0
  1  2  3  0
  2  3  1  0
  3  4  1  0
  4  5  1  0
  5  6  1  0
  5  7  1  0
  7  8  1  0
  8  9  1  0
  8  4  1  0
  1 10  1  0
  3 11  1  0
  3 12  1  0
  4 13  1  0
  5 14  1  0
  6 15  1  0
  7 16  1  0
  7 17  1  0
  8 18  1  0
  9 19  1  0
M  END
