
     RDKit          3D

 21 21  0  0  0  0  0  0  0  0999 V2000
    3.7955   -0.4347    0.0551 C   0  0  0  0  0  0  0  0  0  0  0  0
    2.5919   -0.2821    0.1503 C   0  0  0  0  0  0  0  0  0  0  0  0
    1.1714   -0.0785    0.2574 C   0  0  0  0  0  0  0  0  0  0  0  0
    0.7398    1.2667   -0.2092 C   0  0  0  0  0  0  0  0  0  0  0  0
   -0.5003    1.7280   -0.2071 C   0  0  0  0  0  0  0  0  0  0  0  0
   -1.7333    1.0738    0.2339 C   0  0  0  0  0  0  0  0  0  0  0  0
   -1.9451   -0.2795   -0.3966 C   0  0  0  0  0  0  0  0  0  0  0  0
   -0.9373   -1.3012    0.0498 C   0  0  0  0  0  0  0  0  0  0  0  0
    0.4207   -1.0992   -0.5723 C   0  0  0  0  0  0  0  0  0  0  0  0
    4.8512   -0.5528   -0.0301 H   0  0  0  0  0  0  0  0  0  0  0  0
    0.8055   -0.1645    1.3221 H   0  0  0  0  0  0  0  0  0  0  0  0
    1.5087    1.9470   -0.5917 H   0  0  0  0  0  0  0  0  0  0  0  0
   -0.6032    2.7313   -0.5877 H   0  0  0  0  0  0  0  0  0  0  0  0
   -1.6919    0.9710    1.3381 H   0  0  0  0  0  0  0  0  0  0  0  0
   -2.6319    1.6822    0.0076 H   0  0  0  0  0  0  0  0  0  0  0  0
   -2.9451   -0.6430   -0.0523 H   0  0  0  0  0  0  0  0  0  0  0  0
   -1.9666   -0.1959   -1.4841 H   0  0  0  0  0  0  0  0  0  0  0  0
   -0.8560   -1.3440    1.1402 H   0  0  0  0  0  0  0  0  0  0  0  0
   -1.3115   -2.2960   -0.2994 H   0  0  0  0  0  0  0  0  0  0  0  0
    0.9877   -2.0447   -0.6861 H   0  0  0  0  0  0  0  0  0  0  0  0
    0.2497   -0.6839   -1.6031 H   0  0  0  0  0  0  0  0  0  0  0  0
  1  2  3  0
  2  3  1  0
  3  4  1  0
  4  5  2  0
  5  6  1  0
  6  7  1  0
  7  8  1  0
  8  9  1  0
  9  3  1  0
  1 10  1  0
  3 11  1  0
  4 12  1  0
  5 13  1  0
  6 14  1  0
  6 15  1  0
  7 16  1  0
  7 17  1  0
  8 18  1  0
  8 19  1  0
  9 20  1  0
  9 21  1  0
M  END
