
     RDKit          3D

 17 16  0  0  0  0  0  0  0  0999 V2000
    3.4752   -0.2824   -1.4304 C   0  0  0  0  0  0  0  0  0  0  0  0
    2.7835   -0.1856   -0.4639 C   0  0  0  0  0  0  0  0  0  0  0  0
    1.9146   -0.0702    0.7124 C   0  0  0  0  0  0  0  0  0  0  0  0
    0.4795   -0.0094    0.2975 C   0  0  0  0  0  0  0  0  0  0  0  0
    0.1792   -0.0807   -0.9376 O   0  0  0  0  0  0  0  0  0  0  0  0
   -0.5151    0.1305    1.3391 C   0  0  0  0  0  0  0  0  0  0  0  0
   -0.1534    0.2045    2.5366 O   0  0  0  0  0  0  0  0  0  0  0  0
   -1.9407    0.1902    1.0515 C   0  0  0  0  0  0  0  0  0  0  0  0
   -2.3089    0.0124   -0.4023 C   0  0  0  0  0  0  0  0  0  0  0  0
    4.0940   -0.3653   -2.3262 H   0  0  0  0  0  0  0  0  0  0  0  0
    2.0600   -0.9674    1.3602 H   0  0  0  0  0  0  0  0  0  0  0  0
    2.1301    0.8330    1.3132 H   0  0  0  0  0  0  0  0  0  0  0  0
   -2.5573   -0.5166    1.6454 H   0  0  0  0  0  0  0  0  0  0  0  0
   -2.3181    1.2031    1.3289 H   0  0  0  0  0  0  0  0  0  0  0  0
   -1.9442    0.8284   -1.0543 H   0  0  0  0  0  0  0  0  0  0  0  0
   -3.4327    0.0580   -0.5204 H   0  0  0  0  0  0  0  0  0  0  0  0
   -1.9456   -0.9825   -0.7611 H   0  0  0  0  0  0  0  0  0  0  0  0
  1  2  3  0
  2  3  1  0
  3  4  1  0
  4  5  2  0
  4  6  1  0
  6  7  2  0
  6  8  1  0
  8  9  1  0
  1 10  1  0
  3 11  1  0
  3 12  1  0
  8 13  1  0
  8 14  1  0
  9 15  1  0
  9 16  1  0
  9 17  1  0
M  END
