
     RDKit          3D

 19 18  0  0  0  0  0  0  0  0999 V2000
   -4.0498    1.4046    0.2330 C   0  0  0  0  0  0  0  0  0  0  0  0
   -2.9247    1.1975    0.6645 C   0  0  0  0  0  0  0  0  0  0  0  0
   -1.5804    0.9730    1.1907 C   0  0  0  0  0  0  0  0  0  0  0  0
   -0.6430    0.5445    0.1460 C   0  0  0  0  0  0  0  0  0  0  0  0
   -0.1809    1.4128   -0.5703 O   0  0  0  0  0  0  0  0  0  0  0  0
   -0.2441   -0.8604   -0.0721 C   0  0  0  0  0  0  0  0  0  0  0  0
    0.6419   -1.0767   -1.0803 O   0  0  0  0  0  0  0  0  0  0  0  0
    1.8672   -0.4842   -1.0077 C   0  0  0  0  0  0  0  0  0  0  0  0
    2.6978   -0.8702    0.1972 C   0  0  0  0  0  0  0  0  0  0  0  0
   -5.0259    1.5890   -0.1518 H   0  0  0  0  0  0  0  0  0  0  0  0
   -1.6396    0.2453    2.0457 H   0  0  0  0  0  0  0  0  0  0  0  0
   -1.1758    1.9095    1.6625 H   0  0  0  0  0  0  0  0  0  0  0  0
   -1.1455   -1.5104   -0.2822 H   0  0  0  0  0  0  0  0  0  0  0  0
    0.1610   -1.2366    0.9112 H   0  0  0  0  0  0  0  0  0  0  0  0
    2.4557   -0.8990   -1.8859 H   0  0  0  0  0  0  0  0  0  0  0  0
    1.9051    0.6045   -1.1670 H   0  0  0  0  0  0  0  0  0  0  0  0
    2.1539   -0.9322    1.1323 H   0  0  0  0  0  0  0  0  0  0  0  0
    3.5417   -0.1440    0.2572 H   0  0  0  0  0  0  0  0  0  0  0  0
    3.1855   -1.8667    0.0110 H   0  0  0  0  0  0  0  0  0  0  0  0
  1  2  3  0
  2  3  1  0
  3  4  1  0
  4  5  2  0
  4  6  1  0
  6  7  1  0
  7  8  1  0
  8  9  1  0
  1 10  1  0
  3 11  1  0
  3 12  1  0
  6 13  1  0
  6 14  1  0
  8 15  1  0
  8 16  1  0
  9 17  1  0
  9 18  1  0
  9 19  1  0
M  END
