
     RDKit          3D

 19 20  0  0  0  0  0  0  0  0999 V2000
    0.1714   -0.8484    2.9665 C   0  0  0  0  0  0  0  0  0  0  0  0
    0.0032   -0.3182    1.9745 C   0  0  0  0  0  0  0  0  0  0  0  0
   -0.1756    0.3211    0.7774 C   0  0  0  0  0  0  0  0  0  0  0  0
    1.0875    0.8646    0.2130 C   0  0  0  0  0  0  0  0  0  0  0  0
    1.7067   -0.4625   -0.3309 C   0  0  0  0  0  0  0  0  0  0  0  0
    0.5989   -1.0458   -0.8714 C   0  0  0  0  0  0  0  0  0  0  0  0
   -0.4715   -0.2087   -0.6653 C   0  0  0  0  0  0  0  0  0  0  0  0
   -0.8107    0.7970   -1.7941 C   0  0  0  0  0  0  0  0  0  0  0  0
   -1.5069   -0.1047    0.2950 C   0  0  0  0  0  0  0  0  0  0  0  0
    0.3462   -1.4384    4.0266 H   0  0  0  0  0  0  0  0  0  0  0  0
    0.9948    1.5527   -0.6292 H   0  0  0  0  0  0  0  0  0  0  0  0
    1.8037    1.2597    0.9136 H   0  0  0  0  0  0  0  0  0  0  0  0
    2.7104   -0.7342   -0.2438 H   0  0  0  0  0  0  0  0  0  0  0  0
    0.7320   -2.0419   -1.3602 H   0  0  0  0  0  0  0  0  0  0  0  0
   -0.8914    1.8300   -1.4409 H   0  0  0  0  0  0  0  0  0  0  0  0
   -1.8913    0.5152   -2.0773 H   0  0  0  0  0  0  0  0  0  0  0  0
   -0.2232    0.7054   -2.6838 H   0  0  0  0  0  0  0  0  0  0  0  0
   -1.8360   -1.1828    0.6157 H   0  0  0  0  0  0  0  0  0  0  0  0
   -2.3483    0.5398    0.3148 H   0  0  0  0  0  0  0  0  0  0  0  0
  1  2  3  0
  2  3  1  0
  3  4  1  0
  4  5  1  0
  5  6  2  0
  6  7  1  0
  7  8  1  0
  7  9  1  0
  7  3  1  0
  9  3  1  0
  1 10  1  0
  4 11  1  0
  4 12  1  0
  5 13  1  0
  6 14  1  0
  8 15  1  0
  8 16  1  0
  8 17  1  0
  9 18  1  0
  9 19  1  0
M  END
