
     RDKit          3D

 19 18  0  0  0  0  0  0  0  0999 V2000
    1.4745   -0.0941    2.2956 C   0  0  0  0  0  0  0  0  0  0  0  0
    0.6693   -0.0506    1.3819 C   0  0  0  0  0  0  0  0  0  0  0  0
   -0.2806    0.0258    0.3061 C   0  0  0  0  0  0  0  0  0  0  0  0
   -0.9630   -1.2708    0.1601 C   0  0  0  0  0  0  0  0  0  0  0  0
   -1.5091   -2.3470    0.0481 C   0  0  0  0  0  0  0  0  0  0  0  0
    0.4040    0.3725   -0.9868 C   0  0  0  0  0  0  0  0  0  0  0  0
    1.4358   -0.6657   -1.3484 C   0  0  0  0  0  0  0  0  0  0  0  0
   -1.3484    1.1047    0.5311 C   0  0  0  0  0  0  0  0  0  0  0  0
   -0.7811    2.3479    0.6480 O   0  0  0  0  0  0  0  0  0  0  0  0
    2.1596   -0.1488    3.0807 H   0  0  0  0  0  0  0  0  0  0  0  0
   -1.9806   -3.2934   -0.0343 H   0  0  0  0  0  0  0  0  0  0  0  0
    0.9215    1.3398   -0.8568 H   0  0  0  0  0  0  0  0  0  0  0  0
   -0.3304    0.5240   -1.8053 H   0  0  0  0  0  0  0  0  0  0  0  0
    1.9603   -0.3246   -2.2667 H   0  0  0  0  0  0  0  0  0  0  0  0
    1.0281   -1.6610   -1.5087 H   0  0  0  0  0  0  0  0  0  0  0  0
    2.1917   -0.6597   -0.5096 H   0  0  0  0  0  0  0  0  0  0  0  0
   -2.0102    1.0430   -0.3831 H   0  0  0  0  0  0  0  0  0  0  0  0
   -2.0127    0.8191    1.3756 H   0  0  0  0  0  0  0  0  0  0  0  0
   -1.0286    2.9388   -0.1275 H   0  0  0  0  0  0  0  0  0  0  0  0
  1  2  3  0
  2  3  1  0
  3  4  1  0
  4  5  3  0
  3  6  1  0
  6  7  1  0
  3  8  1  0
  8  9  1  0
  1 10  1  0
  5 11  1  0
  6 12  1  0
  6 13  1  0
  7 14  1  0
  7 15  1  0
  7 16  1  0
  8 17  1  0
  8 18  1  0
  9 19  1  0
M  END
