
     RDKit          3D

 18 18  0  0  0  0  0  0  0  0999 V2000
    2.7427    0.9109    0.6485 C   0  0  0  0  0  0  0  0  0  0  0  0
    2.0129    0.4163    0.9310 C   0  0  0  0  0  0  0  0  0  0  0  0
    0.6300   -0.4859    1.4706 C   0  0  0  0  0  0  0  0  0  0  0  0
    0.2195   -0.5352    0.0050 C   0  0  0  0  0  0  0  0  0  0  0  0
    1.0195   -1.0908   -0.9890 O   0  0  0  0  0  0  0  0  0  0  0  0
   -1.2272   -0.9504   -0.0344 C   0  0  0  0  0  0  0  0  0  0  0  0
   -0.7636    0.4820   -0.1967 C   0  0  0  0  0  0  0  0  0  0  0  0
   -1.5570    1.1815   -1.2256 C   0  0  0  0  0  0  0  0  0  0  0  0
    4.0397    1.7672    0.1361 H   0  0  0  0  0  0  0  0  0  0  0  0
    0.2397    0.4892    1.9854 H   0  0  0  0  0  0  0  0  0  0  0  0
    1.0790   -1.0764    2.0563 H   0  0  0  0  0  0  0  0  0  0  0  0
    1.5870   -0.3311   -1.3662 H   0  0  0  0  0  0  0  0  0  0  0  0
   -1.6114   -1.3939   -1.0074 H   0  0  0  0  0  0  0  0  0  0  0  0
   -1.5436   -1.4901    0.8933 H   0  0  0  0  0  0  0  0  0  0  0  0
   -0.9985    1.0764    0.8616 H   0  0  0  0  0  0  0  0  0  0  0  0
   -2.6771    1.0562   -0.7807 H   0  0  0  0  0  0  0  0  0  0  0  0
   -1.5019    2.2996   -1.2016 H   0  0  0  0  0  0  0  0  0  0  0  0
   -1.6898    0.7386   -2.1863 H   0  0  0  0  0  0  0  0  0  0  0  0
  1  2  3  0
  2  3  1  0
  3  4  1  0
  4  5  1  0
  4  6  1  0
  6  7  1  0
  7  8  1  0
  7  4  1  0
  1  9  1  0
  3 10  1  0
  3 11  1  0
  5 12  1  0
  6 13  1  0
  6 14  1  0
  7 15  1  0
  8 16  1  0
  8 17  1  0
  8 18  1  0
M  END
