
     RDKit          3D

 15 16  0  0  0  0  0  0  0  0999 V2000
    2.4882    1.2380    0.1734 C   0  0  0  0  0  0  0  0  0  0  0  0
    1.6599    0.3985   -0.0933 C   0  0  0  0  0  0  0  0  0  0  0  0
    0.6394   -0.6296   -0.3947 C   0  0  0  0  0  0  0  0  0  0  0  0
    1.0512   -1.9360   -0.4787 O   0  0  0  0  0  0  0  0  0  0  0  0
   -0.5234   -0.1872   -1.1986 C   0  0  0  0  0  0  0  0  0  0  0  0
   -0.9740    1.1202   -1.0494 O   0  0  0  0  0  0  0  0  0  0  0  0
   -1.0893    1.0472    0.3408 C   0  0  0  0  0  0  0  0  0  0  0  0
   -0.6700   -0.3909    0.2546 C   0  0  0  0  0  0  0  0  0  0  0  0
   -1.4784   -1.4047    0.6881 O   0  0  0  0  0  0  0  0  0  0  0  0
    3.2084    1.9863    0.3947 H   0  0  0  0  0  0  0  0  0  0  0  0
    1.3201   -2.2281    0.4432 H   0  0  0  0  0  0  0  0  0  0  0  0
   -1.0032   -0.8563   -1.9382 H   0  0  0  0  0  0  0  0  0  0  0  0
   -2.0821    1.2550    0.7538 H   0  0  0  0  0  0  0  0  0  0  0  0
   -0.3173    1.6285    0.8960 H   0  0  0  0  0  0  0  0  0  0  0  0
   -2.2294   -1.0409    1.2083 H   0  0  0  0  0  0  0  0  0  0  0  0
  1  2  3  0
  2  3  1  0
  3  4  1  0
  3  5  1  0
  5  6  1  0
  6  7  1  0
  7  8  1  0
  8  9  1  0
  8  3  1  0
  8  5  1  0
  1 10  1  0
  4 11  1  0
  5 12  1  0
  7 13  1  0
  7 14  1  0
  9 15  1  0
M  END
