
     RDKit          3D

 17 18  0  0  0  0  0  0  0  0999 V2000
    3.4476    0.9567    0.0352 C   0  0  0  0  0  0  0  0  0  0  0  0
    2.2296    0.3608    0.2537 C   0  0  0  0  0  0  0  0  0  0  0  0
    1.0086   -0.2297    0.4959 C   0  0  0  0  0  0  0  0  0  0  0  0
   -0.2066    0.6027    0.1990 C   0  0  0  0  0  0  0  0  0  0  0  0
   -1.5078   -0.1046    0.6474 C   0  0  0  0  0  0  0  0  0  0  0  0
   -2.5848    0.6411    0.8804 O   0  0  0  0  0  0  0  0  0  0  0  0
   -1.3526   -0.9381   -0.5886 C   0  0  0  0  0  0  0  0  0  0  0  0
    0.1191   -0.6117   -0.6258 C   0  0  0  0  0  0  0  0  0  0  0  0
    0.6061   -0.3966   -1.9254 O   0  0  0  0  0  0  0  0  0  0  0  0
    4.1887    1.3034   -0.0986 H   0  0  0  0  0  0  0  0  0  0  0  0
    0.8607   -0.7875    1.4920 H   0  0  0  0  0  0  0  0  0  0  0  0
   -0.2276    1.5756   -0.2622 H   0  0  0  0  0  0  0  0  0  0  0  0
   -1.1906   -0.7842    1.5186 H   0  0  0  0  0  0  0  0  0  0  0  0
   -2.9571    0.3494    1.7873 H   0  0  0  0  0  0  0  0  0  0  0  0
   -1.9064   -0.4191   -1.4330 H   0  0  0  0  0  0  0  0  0  0  0  0
   -1.6057   -2.0020   -0.4688 H   0  0  0  0  0  0  0  0  0  0  0  0
    1.0789    0.4838   -1.9071 H   0  0  0  0  0  0  0  0  0  0  0  0
  1  2  3  0
  2  3  1  0
  3  4  1  0
  4  5  1  0
  5  6  1  0
  5  7  1  0
  7  8  1  0
  8  9  1  0
  8  3  1  0
  8  4  1  0
  1 10  1  0
  3 11  1  0
  4 12  1  0
  5 13  1  0
  6 14  1  0
  7 15  1  0
  7 16  1  0
  9 17  1  0
M  END
