
     RDKit          3D

 21 21  0  0  0  0  0  0  0  0999 V2000
   -0.8501    0.0685   -2.9443 C   0  0  0  0  0  0  0  0  0  0  0  0
   -0.5879    0.3628   -1.7093 C   0  0  0  0  0  0  0  0  0  0  0  0
   -0.3100    0.7114   -0.3321 C   0  0  0  0  0  0  0  0  0  0  0  0
    1.1144    1.0130   -0.0366 C   0  0  0  0  0  0  0  0  0  0  0  0
    2.0066    0.0516   -0.2697 O   0  0  0  0  0  0  0  0  0  0  0  0
    2.0282   -1.1437    0.3359 C   0  0  0  0  0  0  0  0  0  0  0  0
   -0.9022   -0.3147    0.5948 C   0  0  0  0  0  0  0  0  0  0  0  0
   -0.6415   -0.0644    2.0818 C   0  0  0  0  0  0  0  0  0  0  0  0
   -2.0337    0.0670    1.4869 C   0  0  0  0  0  0  0  0  0  0  0  0
   -1.0469   -0.1305   -3.8449 H   0  0  0  0  0  0  0  0  0  0  0  0
   -0.8889    1.7063   -0.1799 H   0  0  0  0  0  0  0  0  0  0  0  0
    1.3743    1.8736   -0.7650 H   0  0  0  0  0  0  0  0  0  0  0  0
    1.1917    1.4738    0.9970 H   0  0  0  0  0  0  0  0  0  0  0  0
    2.9675   -1.6700   -0.0654 H   0  0  0  0  0  0  0  0  0  0  0  0
    1.2203   -1.8763    0.0681 H   0  0  0  0  0  0  0  0  0  0  0  0
    2.1504   -1.0338    1.4213 H   0  0  0  0  0  0  0  0  0  0  0  0
   -0.9571   -1.3372    0.2023 H   0  0  0  0  0  0  0  0  0  0  0  0
   -0.4214   -0.9511    2.7133 H   0  0  0  0  0  0  0  0  0  0  0  0
   -0.1688    0.8906    2.3602 H   0  0  0  0  0  0  0  0  0  0  0  0
   -2.7395   -0.7521    1.7452 H   0  0  0  0  0  0  0  0  0  0  0  0
   -2.5053    1.0551    1.4330 H   0  0  0  0  0  0  0  0  0  0  0  0
  1  2  3  0
  2  3  1  0
  3  4  1  0
  4  5  1  0
  5  6  1  0
  3  7  1  0
  7  8  1  0
  8  9  1  0
  9  7  1  0
  1 10  1  0
  3 11  1  0
  4 12  1  0
  4 13  1  0
  6 14  1  0
  6 15  1  0
  6 16  1  0
  7 17  1  0
  8 18  1  0
  8 19  1  0
  9 20  1  0
  9 21  1  0
M  END
