
     RDKit          3D

 15 15  0  0  0  0  0  0  0  0999 V2000
   -0.8430    2.0723   -1.1524 C   0  0  0  0  0  0  0  0  0  0  0  0
   -0.5041    1.0099   -0.7579 C   0  0  0  0  0  0  0  0  0  0  0  0
   -0.0882   -0.2945   -0.3003 C   0  0  0  0  0  0  0  0  0  0  0  0
   -0.4838   -0.6191    0.9984 O   0  0  0  0  0  0  0  0  0  0  0  0
    0.0514    0.2959    1.9033 C   0  0  0  0  0  0  0  0  0  0  0  0
   -0.4242   -1.3943   -1.2714 C   0  0  0  0  0  0  0  0  0  0  0  0
    0.7915   -1.9828   -0.8213 O   0  0  0  0  0  0  0  0  0  0  0  0
    1.2780   -0.6873   -0.6565 C   0  0  0  0  0  0  0  0  0  0  0  0
    2.4303   -0.2177   -0.7937 O   0  0  0  0  0  0  0  0  0  0  0  0
   -1.1386    3.0412   -1.5254 H   0  0  0  0  0  0  0  0  0  0  0  0
   -0.2329    0.0800    2.9296 H   0  0  0  0  0  0  0  0  0  0  0  0
   -0.2852    1.3210    1.6419 H   0  0  0  0  0  0  0  0  0  0  0  0
    1.1622    0.2989    1.7789 H   0  0  0  0  0  0  0  0  0  0  0  0
   -0.3686   -1.0079   -2.3158 H   0  0  0  0  0  0  0  0  0  0  0  0
   -1.3448   -1.9154   -1.0271 H   0  0  0  0  0  0  0  0  0  0  0  0
  1  2  3  0
  2  3  1  0
  3  4  1  0
  4  5  1  0
  3  6  1  0
  6  7  1  0
  7  8  1  0
  8  9  2  0
  8  3  1  0
  1 10  1  0
  5 11  1  0
  5 12  1  0
  5 13  1  0
  6 14  1  0
  6 15  1  0
M  END
