
     RDKit          3D

 19 20  0  0  0  0  0  0  0  0999 V2000
    2.7603   -1.4399    1.8143 C   0  0  0  0  0  0  0  0  0  0  0  0
    1.9950   -0.5574    1.5830 C   0  0  0  0  0  0  0  0  0  0  0  0
    0.9873    0.6395    1.2571 C   0  0  0  0  0  0  0  0  0  0  0  0
    0.1497   -0.0908    0.2115 C   0  0  0  0  0  0  0  0  0  0  0  0
    0.3684   -0.3031   -1.1910 C   0  0  0  0  0  0  0  0  0  0  0  0
   -0.9894    0.4436   -1.5839 C   0  0  0  0  0  0  0  0  0  0  0  0
   -1.5134    1.5158   -0.6403 C   0  0  0  0  0  0  0  0  0  0  0  0
   -1.2382    0.2429   -0.0190 C   0  0  0  0  0  0  0  0  0  0  0  0
   -2.2442   -0.7772    0.1534 O   0  0  0  0  0  0  0  0  0  0  0  0
    3.6247   -2.4225    2.0516 H   0  0  0  0  0  0  0  0  0  0  0  0
    0.3633    0.5619    2.1613 H   0  0  0  0  0  0  0  0  0  0  0  0
    1.5836    1.3923    1.0911 H   0  0  0  0  0  0  0  0  0  0  0  0
    0.0923   -1.3343    0.6286 H   0  0  0  0  0  0  0  0  0  0  0  0
    1.2402    0.2989   -1.6682 H   0  0  0  0  0  0  0  0  0  0  0  0
    0.3072   -1.3193   -1.7116 H   0  0  0  0  0  0  0  0  0  0  0  0
   -1.5710   -0.0309   -2.2786 H   0  0  0  0  0  0  0  0  0  0  0  0
   -2.4696    1.8800   -0.9307 H   0  0  0  0  0  0  0  0  0  0  0  0
   -0.7969    2.3136   -0.2520 H   0  0  0  0  0  0  0  0  0  0  0  0
   -2.6490   -1.1055   -0.6766 H   0  0  0  0  0  0  0  0  0  0  0  0
  1  2  3  0
  2  3  1  0
  3  4  1  0
  4  5  1  0
  5  6  1  0
  6  7  1  0
  7  8  1  0
  8  9  1  0
  8  4  1  0
  8  6  1  0
  1 10  1  0
  3 11  1  0
  3 12  1  0
  4 13  1  0
  5 14  1  0
  5 15  1  0
  6 16  1  0
  7 17  1  0
  7 18  1  0
  9 19  1  0
M  END
