
     RDKit          3D

 19 19  0  0  0  0  0  0  0  0999 V2000
    3.1071    0.1655   -0.4707 C   0  0  0  0  0  0  0  0  0  0  0  0
    2.1739   -0.1174    0.5071 C   0  0  0  0  0  0  0  0  0  0  0  0
    1.6227   -0.2780    1.0848 C   0  0  0  0  0  0  0  0  0  0  0  0
    0.1658   -0.8226    1.0053 C   0  0  0  0  0  0  0  0  0  0  0  0
   -0.0427   -1.8437    1.5565 O   0  0  0  0  0  0  0  0  0  0  0  0
   -0.7461   -0.0464    0.2991 C   0  0  0  0  0  0  0  0  0  0  0  0
   -0.7201    1.4096    0.7260 C   0  0  0  0  0  0  0  0  0  0  0  0
   -1.1447   -0.3407   -1.1172 C   0  0  0  0  0  0  0  0  0  0  0  0
   -2.1178   -0.6209   -0.0492 C   0  0  0  0  0  0  0  0  0  0  0  0
    4.0213    0.4635   -1.4361 H   0  0  0  0  0  0  0  0  0  0  0  0
    1.3927    0.3481    2.2227 H   0  0  0  0  0  0  0  0  0  0  0  0
    1.9626   -1.2670    2.0103 H   0  0  0  0  0  0  0  0  0  0  0  0
   -1.2854    2.1006    0.1046 H   0  0  0  0  0  0  0  0  0  0  0  0
   -1.3469    1.3732    1.7300 H   0  0  0  0  0  0  0  0  0  0  0  0
    0.2667    1.7702    0.9657 H   0  0  0  0  0  0  0  0  0  0  0  0
   -0.5746   -1.0999   -1.6319 H   0  0  0  0  0  0  0  0  0  0  0  0
   -1.4245    0.5080   -1.7942 H   0  0  0  0  0  0  0  0  0  0  0  0
   -3.0107    0.0068    0.1307 H   0  0  0  0  0  0  0  0  0  0  0  0
   -2.2993   -1.7089    0.2233 H   0  0  0  0  0  0  0  0  0  0  0  0
  1  2  3  0
  2  3  1  0
  3  4  1  0
  4  5  2  0
  4  6  1  0
  6  7  1  0
  6  8  1  0
  8  9  1  0
  9  6  1  0
  1 10  1  0
  3 11  1  0
  3 12  1  0
  7 13  1  0
  7 14  1  0
  7 15  1  0
  8 16  1  0
  8 17  1  0
  9 18  1  0
  9 19  1  0
M  END
