
     RDKit          3D

 17 18  0  0  0  0  0  0  0  0999 V2000
   -1.9201    1.8797   -1.8710 C   0  0  0  0  0  0  0  0  0  0  0  0
   -1.2862    1.0546   -1.2747 C   0  0  0  0  0  0  0  0  0  0  0  0
   -0.4975    0.0613   -0.5651 C   0  0  0  0  0  0  0  0  0  0  0  0
   -0.6255   -1.2839   -0.8766 O   0  0  0  0  0  0  0  0  0  0  0  0
   -1.2358   -0.9393    0.2996 C   0  0  0  0  0  0  0  0  0  0  0  0
   -0.5569   -0.7612    1.5748 C   0  0  0  0  0  0  0  0  0  0  0  0
    0.5323   -0.0281    1.5369 C   0  0  0  0  0  0  0  0  0  0  0  0
    0.7481    0.4125    0.1476 C   0  0  0  0  0  0  0  0  0  0  0  0
    1.9072   -0.4589   -0.3718 C   0  0  0  0  0  0  0  0  0  0  0  0
   -2.4839    2.6149   -2.3826 H   0  0  0  0  0  0  0  0  0  0  0  0
   -2.3476   -0.9675    0.2457 H   0  0  0  0  0  0  0  0  0  0  0  0
   -0.9187   -1.2050    2.5204 H   0  0  0  0  0  0  0  0  0  0  0  0
    1.1974    0.2306    2.3971 H   0  0  0  0  0  0  0  0  0  0  0  0
    1.0405    1.4796    0.0723 H   0  0  0  0  0  0  0  0  0  0  0  0
    1.9033   -0.4695   -1.4725 H   0  0  0  0  0  0  0  0  0  0  0  0
    1.6733   -1.5067   -0.0258 H   0  0  0  0  0  0  0  0  0  0  0  0
    2.8701   -0.1131    0.0461 H   0  0  0  0  0  0  0  0  0  0  0  0
  1  2  3  0
  2  3  1  0
  3  4  1  0
  4  5  1  0
  5  6  1  0
  6  7  2  0
  7  8  1  0
  8  9  1  0
  5  3  1  0
  8  3  1  0
  1 10  1  0
  5 11  1  0
  6 12  1  0
  7 13  1  0
  8 14  1  0
  9 15  1  0
  9 16  1  0
  9 17  1  0
M  END
