
     RDKit          3D

 17 17  0  0  0  0  0  0  0  0999 V2000
    2.7982   -0.7935   -0.2079 C   0  0  0  0  0  0  0  0  0  0  0  0
    1.7310   -0.2675   -0.4827 C   0  0  0  0  0  0  0  0  0  0  0  0
    0.4382    0.3414   -0.8158 C   0  0  0  0  0  0  0  0  0  0  0  0
   -0.6327   -0.6854   -0.7213 C   0  0  0  0  0  0  0  0  0  0  0  0
   -1.1325   -0.9562    0.6557 C   0  0  0  0  0  0  0  0  0  0  0  0
   -1.4419    0.3400    1.3060 C   0  0  0  0  0  0  0  0  0  0  0  0
   -2.5442    0.4882    1.9206 O   0  0  0  0  0  0  0  0  0  0  0  0
   -0.4913    1.3324    1.2028 O   0  0  0  0  0  0  0  0  0  0  0  0
    0.2542    1.5399    0.0393 C   0  0  0  0  0  0  0  0  0  0  0  0
    3.7324   -1.2342    0.0284 H   0  0  0  0  0  0  0  0  0  0  0  0
    0.4629    0.6964   -1.8885 H   0  0  0  0  0  0  0  0  0  0  0  0
   -0.2106   -1.6453   -1.1381 H   0  0  0  0  0  0  0  0  0  0  0  0
   -1.4688   -0.4305   -1.4216 H   0  0  0  0  0  0  0  0  0  0  0  0
   -2.0747   -1.5511    0.5608 H   0  0  0  0  0  0  0  0  0  0  0  0
   -0.3664   -1.5337    1.2236 H   0  0  0  0  0  0  0  0  0  0  0  0
   -0.2754    2.3543   -0.5377 H   0  0  0  0  0  0  0  0  0  0  0  0
    1.2216    2.0048    0.3522 H   0  0  0  0  0  0  0  0  0  0  0  0
  1  2  3  0
  2  3  1  0
  3  4  1  0
  4  5  1  0
  5  6  1  0
  6  7  2  0
  6  8  1  0
  8  9  1  0
  9  3  1  0
  1 10  1  0
  3 11  1  0
  4 12  1  0
  4 13  1  0
  5 14  1  0
  5 15  1  0
  9 16  1  0
  9 17  1  0
M  END
