
     RDKit          3D

 16 17  0  0  0  0  0  0  0  0999 V2000
    2.5504   -1.3720    0.7935 C   0  0  0  0  0  0  0  0  0  0  0  0
    1.6919   -0.7917    0.1777 C   0  0  0  0  0  0  0  0  0  0  0  0
    0.6769   -0.0764   -0.5683 C   0  0  0  0  0  0  0  0  0  0  0  0
    0.6374    1.4541   -0.4561 C   0  0  0  0  0  0  0  0  0  0  0  0
   -0.8877    1.2970   -0.3926 C   0  0  0  0  0  0  0  0  0  0  0  0
   -0.6548   -0.1985   -0.4016 C   0  0  0  0  0  0  0  0  0  0  0  0
   -1.5010   -1.0536    0.4773 C   0  0  0  0  0  0  0  0  0  0  0  0
   -0.0659   -0.6949   -1.5388 O   0  0  0  0  0  0  0  0  0  0  0  0
    3.3143   -1.8882    1.3239 H   0  0  0  0  0  0  0  0  0  0  0  0
    1.0082    1.9684   -1.3420 H   0  0  0  0  0  0  0  0  0  0  0  0
    1.0969    1.7256    0.5192 H   0  0  0  0  0  0  0  0  0  0  0  0
   -1.3475    1.6299   -1.3191 H   0  0  0  0  0  0  0  0  0  0  0  0
   -1.2804    1.6983    0.5559 H   0  0  0  0  0  0  0  0  0  0  0  0
   -2.5700   -1.0067    0.1234 H   0  0  0  0  0  0  0  0  0  0  0  0
   -1.5420   -0.6161    1.5149 H   0  0  0  0  0  0  0  0  0  0  0  0
   -1.1265   -2.0752    0.5326 H   0  0  0  0  0  0  0  0  0  0  0  0
  1  2  3  0
  2  3  1  0
  3  4  1  0
  4  5  1  0
  5  6  1  0
  6  7  1  0
  6  8  1  0
  6  3  1  0
  8  3  1  0
  1  9  1  0
  4 10  1  0
  4 11  1  0
  5 12  1  0
  5 13  1  0
  7 14  1  0
  7 15  1  0
  7 16  1  0
M  END
