
     RDKit          3D

 13 12  0  0  0  0  0  0  0  0999 V2000
   -3.2814   -0.6845   -0.1812 C   0  0  0  0  0  0  0  0  0  0  0  0
   -2.8168   -0.8582    0.2572 C   0  0  0  0  0  0  0  0  0  0  0  0
   -1.4220   -1.3543    1.5330 C   0  0  0  0  0  0  0  0  0  0  0  0
   -0.5122   -0.7848    1.0869 C   0  0  0  0  0  0  0  0  0  0  0  0
    0.3596   -0.2444    0.6416 C   0  0  0  0  0  0  0  0  0  0  0  0
    1.4362    0.4473    0.1000 C   0  0  0  0  0  0  0  0  0  0  0  0
    2.5799    1.1814   -0.5014 C   0  0  0  0  0  0  0  0  0  0  0  0
    3.4004    1.6952   -0.9135 C   0  0  0  0  0  0  0  0  0  0  0  0
    4.5190    2.4963   -0.4377 O   0  0  0  0  0  0  0  0  0  0  0  0
   -4.1512   -0.3377   -0.9988 H   0  0  0  0  0  0  0  0  0  0  0  0
   -1.7928   -2.4296    1.3390 H   0  0  0  0  0  0  0  0  0  0  0  0
   -2.2020   -0.9900    2.3079 H   0  0  0  0  0  0  0  0  0  0  0  0
    3.8834    1.8634   -2.1032 H   0  0  0  0  0  0  0  0  0  0  0  0
  1  2  3  0
  2  3  1  0
  3  4  1  0
  4  5  3  0
  5  6  1  0
  6  7  3  0
  7  8  1  0
  8  9  2  0
  1 10  1  0
  3 11  1  0
  3 12  1  0
  8 13  1  0
M  END
