
     RDKit          3D

 17 17  0  0  0  0  0  0  0  0999 V2000
    3.2808   -0.5599    1.4324 C   0  0  0  0  0  0  0  0  0  0  0  0
    2.1531   -0.1808    1.1657 C   0  0  0  0  0  0  0  0  0  0  0  0
    0.8037    0.2546    0.8287 C   0  0  0  0  0  0  0  0  0  0  0  0
   -0.1561   -0.4745    1.6072 O   0  0  0  0  0  0  0  0  0  0  0  0
   -0.4511   -1.3831    0.5815 C   0  0  0  0  0  0  0  0  0  0  0  0
   -1.0371   -2.4934    0.6490 O   0  0  0  0  0  0  0  0  0  0  0  0
    0.1919   -0.4486   -0.3509 C   0  0  0  0  0  0  0  0  0  0  0  0
   -0.7512    0.4284   -1.1420 C   0  0  0  0  0  0  0  0  0  0  0  0
   -1.9023    0.9148   -0.2836 C   0  0  0  0  0  0  0  0  0  0  0  0
    4.2660   -0.8717    1.6640 H   0  0  0  0  0  0  0  0  0  0  0  0
    0.6037    1.3274    0.9251 H   0  0  0  0  0  0  0  0  0  0  0  0
    0.9311   -0.9314   -0.9868 H   0  0  0  0  0  0  0  0  0  0  0  0
   -0.2082    1.2965   -1.5644 H   0  0  0  0  0  0  0  0  0  0  0  0
   -1.1923   -0.1482   -1.9812 H   0  0  0  0  0  0  0  0  0  0  0  0
   -2.3394    1.8458   -0.7398 H   0  0  0  0  0  0  0  0  0  0  0  0
   -1.4748    1.2240    0.6954 H   0  0  0  0  0  0  0  0  0  0  0  0
   -2.7178    0.2002   -0.1907 H   0  0  0  0  0  0  0  0  0  0  0  0
  1  2  3  0
  2  3  1  0
  3  4  1  0
  4  5  1  0
  5  6  2  0
  5  7  1  0
  7  8  1  0
  8  9  1  0
  7  3  1  0
  1 10  1  0
  3 11  1  0
  7 12  1  0
  8 13  1  0
  8 14  1  0
  9 15  1  0
  9 16  1  0
  9 17  1  0
M  END
