
     RDKit          3D

 19 19  0  0  0  0  0  0  0  0999 V2000
    3.2092   -0.7544    1.1814 C   0  0  0  0  0  0  0  0  0  0  0  0
    2.0176   -0.4916    0.4963 C   0  0  0  0  0  0  0  0  0  0  0  0
    0.8244   -0.2329   -0.2137 C   0  0  0  0  0  0  0  0  0  0  0  0
    0.2713   -1.3863   -1.0088 C   0  0  0  0  0  0  0  0  0  0  0  0
    0.5059    1.1243   -0.5924 C   0  0  0  0  0  0  0  0  0  0  0  0
    1.3458    2.1771   -0.4174 O   0  0  0  0  0  0  0  0  0  0  0  0
   -0.2734    0.5442    0.6218 C   0  0  0  0  0  0  0  0  0  0  0  0
   -1.4697    0.2824    0.4677 O   0  0  0  0  0  0  0  0  0  0  0  0
   -2.6863    0.0195    0.3175 C   0  0  0  0  0  0  0  0  0  0  0  0
    3.9560   -0.9066    1.5999 H   0  0  0  0  0  0  0  0  0  0  0  0
   -0.7537   -1.2808   -1.3513 H   0  0  0  0  0  0  0  0  0  0  0  0
    0.9654   -1.5374   -1.8783 H   0  0  0  0  0  0  0  0  0  0  0  0
    0.4568   -2.3597   -0.4275 H   0  0  0  0  0  0  0  0  0  0  0  0
   -0.2069    1.2299   -1.5048 H   0  0  0  0  0  0  0  0  0  0  0  0
    1.1001    2.6867    0.4422 H   0  0  0  0  0  0  0  0  0  0  0  0
    0.2303    0.9088    1.6159 H   0  0  0  0  0  0  0  0  0  0  0  0
   -3.2677    1.0532    0.1502 H   0  0  0  0  0  0  0  0  0  0  0  0
   -2.8989   -0.5992   -0.5993 H   0  0  0  0  0  0  0  0  0  0  0  0
   -3.3261   -0.4770    1.1005 H   0  0  0  0  0  0  0  0  0  0  0  0
  1  2  3  0
  2  3  1  0
  3  4  1  0
  3  5  1  0
  5  6  1  0
  5  7  1  0
  7  8  1  0
  8  9  1  0
  7  3  1  0
  1 10  1  0
  4 11  1  0
  4 12  1  0
  4 13  1  0
  5 14  1  0
  6 15  1  0
  7 16  1  0
  9 17  1  0
  9 18  1  0
  9 19  1  0
M  END
