
     RDKit          3D

 17 18  0  0  0  0  0  0  0  0999 V2000
    3.0428   -0.1723   -0.7605 C   0  0  0  0  0  0  0  0  0  0  0  0
    1.9431    0.0565   -0.3240 C   0  0  0  0  0  0  0  0  0  0  0  0
    0.6003    0.3452    0.2140 C   0  0  0  0  0  0  0  0  0  0  0  0
   -0.0638    1.5029   -0.4234 C   0  0  0  0  0  0  0  0  0  0  0  0
   -1.2647    1.1513   -0.8200 C   0  0  0  0  0  0  0  0  0  0  0  0
   -1.5549   -0.2703   -0.5027 C   0  0  0  0  0  0  0  0  0  0  0  0
   -0.2960   -0.8384    0.0352 C   0  0  0  0  0  0  0  0  0  0  0  0
   -0.2605   -0.8541    1.5225 C   0  0  0  0  0  0  0  0  0  0  0  0
    0.5311    0.2815    1.5902 O   0  0  0  0  0  0  0  0  0  0  0  0
    4.0230   -0.3621   -1.1405 H   0  0  0  0  0  0  0  0  0  0  0  0
    0.4110    2.4653   -0.5211 H   0  0  0  0  0  0  0  0  0  0  0  0
   -1.9507    1.8316   -1.3190 H   0  0  0  0  0  0  0  0  0  0  0  0
   -1.9706   -0.8051   -1.3736 H   0  0  0  0  0  0  0  0  0  0  0  0
   -2.3326   -0.2669    0.2949 H   0  0  0  0  0  0  0  0  0  0  0  0
    0.1429   -1.7058   -0.4920 H   0  0  0  0  0  0  0  0  0  0  0  0
   -1.2412   -0.6389    2.0164 H   0  0  0  0  0  0  0  0  0  0  0  0
    0.2408   -1.7205    2.0036 H   0  0  0  0  0  0  0  0  0  0  0  0
  1  2  3  0
  2  3  1  0
  3  4  1  0
  4  5  2  0
  5  6  1  0
  6  7  1  0
  7  8  1  0
  8  9  1  0
  7  3  1  0
  9  3  1  0
  1 10  1  0
  4 11  1  0
  5 12  1  0
  6 13  1  0
  6 14  1  0
  7 15  1  0
  8 16  1  0
  8 17  1  0
M  END
