
     RDKit          3D

 20 20  0  0  0  0  0  0  0  0999 V2000
    1.2372    2.9967    0.7734 C   0  0  0  0  0  0  0  0  0  0  0  0
    0.5642    1.8872    0.5828 C   0  0  0  0  0  0  0  0  0  0  0  0
   -0.1510    0.7452    0.3982 C   0  0  0  0  0  0  0  0  0  0  0  0
   -1.1887    0.4042    1.4382 C   0  0  0  0  0  0  0  0  0  0  0  0
   -0.5262    0.3838   -1.0326 C   0  0  0  0  0  0  0  0  0  0  0  0
    0.4294   -0.7320   -1.0042 C   0  0  0  0  0  0  0  0  0  0  0  0
   -0.1297   -2.1432   -1.1485 C   0  0  0  0  0  0  0  0  0  0  0  0
    0.8940   -0.4323    0.3924 C   0  0  0  0  0  0  0  0  0  0  0  0
    1.8015    3.9225    0.9138 H   0  0  0  0  0  0  0  0  0  0  0  0
   -2.2018    0.5497    1.0313 H   0  0  0  0  0  0  0  0  0  0  0  0
   -1.0715    1.0935    2.2800 H   0  0  0  0  0  0  0  0  0  0  0  0
   -1.0416   -0.6562    1.7778 H   0  0  0  0  0  0  0  0  0  0  0  0
   -0.2325    1.2691   -1.6547 H   0  0  0  0  0  0  0  0  0  0  0  0
   -1.6079    0.1776   -1.1137 H   0  0  0  0  0  0  0  0  0  0  0  0
    1.2751   -0.6179   -1.7375 H   0  0  0  0  0  0  0  0  0  0  0  0
   -0.9007   -2.2564   -1.8916 H   0  0  0  0  0  0  0  0  0  0  0  0
   -0.4790   -2.4725   -0.1523 H   0  0  0  0  0  0  0  0  0  0  0  0
    0.7196   -2.8295   -1.4667 H   0  0  0  0  0  0  0  0  0  0  0  0
    0.6702   -1.2099    1.1227 H   0  0  0  0  0  0  0  0  0  0  0  0
    1.9393   -0.0795    0.4913 H   0  0  0  0  0  0  0  0  0  0  0  0
  1  2  3  0
  2  3  1  0
  3  4  1  0
  3  5  1  0
  5  6  1  0
  6  7  1  0
  6  8  1  0
  8  3  1  0
  1  9  1  0
  4 10  1  0
  4 11  1  0
  4 12  1  0
  5 13  1  0
  5 14  1  0
  6 15  1  0
  7 16  1  0
  7 17  1  0
  7 18  1  0
  8 19  1  0
  8 20  1  0
M  END
