
     RDKit          3D

 19 20  0  0  0  0  0  0  0  0999 V2000
    2.8363   -1.1830    1.3064 C   0  0  0  0  0  0  0  0  0  0  0  0
    2.0412   -0.5503    0.6642 C   0  0  0  0  0  0  0  0  0  0  0  0
    1.0651    0.1997   -0.1003 C   0  0  0  0  0  0  0  0  0  0  0  0
    0.4899   -0.5319   -1.2593 C   0  0  0  0  0  0  0  0  0  0  0  0
   -0.9856   -0.6632   -1.0101 C   0  0  0  0  0  0  0  0  0  0  0  0
   -1.3404    0.2036    0.1499 C   0  0  0  0  0  0  0  0  0  0  0  0
   -2.4869   -0.0602    0.8657 O   0  0  0  0  0  0  0  0  0  0  0  0
   -0.9804    1.6862    0.0855 C   0  0  0  0  0  0  0  0  0  0  0  0
   -0.0967    0.6654    0.7514 C   0  0  0  0  0  0  0  0  0  0  0  0
    3.5412   -1.7603    1.8820 H   0  0  0  0  0  0  0  0  0  0  0  0
    1.5950    1.1103   -0.4890 H   0  0  0  0  0  0  0  0  0  0  0  0
    0.6133    0.0498   -2.2199 H   0  0  0  0  0  0  0  0  0  0  0  0
    1.0059   -1.5182   -1.3468 H   0  0  0  0  0  0  0  0  0  0  0  0
   -1.5838   -0.3774   -1.9093 H   0  0  0  0  0  0  0  0  0  0  0  0
   -1.1890   -1.7190   -0.7178 H   0  0  0  0  0  0  0  0  0  0  0  0
   -2.3719   -0.6928    1.6113 H   0  0  0  0  0  0  0  0  0  0  0  0
   -0.7176    2.0973   -0.9007 H   0  0  0  0  0  0  0  0  0  0  0  0
   -1.4855    2.3639    0.7921 H   0  0  0  0  0  0  0  0  0  0  0  0
    0.0500    0.6802    1.8450 H   0  0  0  0  0  0  0  0  0  0  0  0
  1  2  3  0
  2  3  1  0
  3  4  1  0
  4  5  1  0
  5  6  1  0
  6  7  1  0
  6  8  1  0
  8  9  1  0
  9  3  1  0
  9  6  1  0
  1 10  1  0
  3 11  1  0
  4 12  1  0
  4 13  1  0
  5 14  1  0
  5 15  1  0
  7 16  1  0
  8 17  1  0
  8 18  1  0
  9 19  1  0
M  END
