
     RDKit          3D

 16 17  0  0  0  0  0  0  0  0999 V2000
    3.4374   -0.7166   -0.8888 C   0  0  0  0  0  0  0  0  0  0  0  0
    2.2737   -0.3948   -0.9497 C   0  0  0  0  0  0  0  0  0  0  0  0
    0.8559    0.0160   -1.0414 C   0  0  0  0  0  0  0  0  0  0  0  0
   -0.1080   -1.0217   -0.4605 C   0  0  0  0  0  0  0  0  0  0  0  0
   -1.4454   -0.7514   -0.4083 O   0  0  0  0  0  0  0  0  0  0  0  0
   -1.2849    0.5192    0.1754 C   0  0  0  0  0  0  0  0  0  0  0  0
   -1.9776    0.6725    1.5150 C   0  0  0  0  0  0  0  0  0  0  0  0
    0.1801    0.2491    0.2402 C   0  0  0  0  0  0  0  0  0  0  0  0
    4.4573   -0.9992   -0.8172 H   0  0  0  0  0  0  0  0  0  0  0  0
    0.5192    0.5883   -1.9064 H   0  0  0  0  0  0  0  0  0  0  0  0
    0.3132   -1.9863   -0.1139 H   0  0  0  0  0  0  0  0  0  0  0  0
   -1.5880    1.2856   -0.5741 H   0  0  0  0  0  0  0  0  0  0  0  0
   -2.9628    1.1650    1.3936 H   0  0  0  0  0  0  0  0  0  0  0  0
   -1.3561    1.4107    2.0976 H   0  0  0  0  0  0  0  0  0  0  0  0
   -2.0382   -0.3055    2.0375 H   0  0  0  0  0  0  0  0  0  0  0  0
    0.7244    0.2691    1.2031 H   0  0  0  0  0  0  0  0  0  0  0  0
  1  2  3  0
  2  3  1  0
  3  4  1  0
  4  5  1  0
  5  6  1  0
  6  7  1  0
  6  8  1  0
  8  3  1  0
  8  4  1  0
  1  9  1  0
  3 10  1  0
  4 11  1  0
  6 12  1  0
  7 13  1  0
  7 14  1  0
  7 15  1  0
  8 16  1  0
M  END
