
     RDKit          3D

 17 17  0  0  0  0  0  0  0  0999 V2000
    2.6954   -1.1859    0.4829 C   0  0  0  0  0  0  0  0  0  0  0  0
    1.7288   -0.9124   -0.1731 C   0  0  0  0  0  0  0  0  0  0  0  0
    0.5764   -0.5783   -0.9854 C   0  0  0  0  0  0  0  0  0  0  0  0
   -0.3416   -1.6572   -1.0144 O   0  0  0  0  0  0  0  0  0  0  0  0
   -0.8147   -1.2063    0.2079 C   0  0  0  0  0  0  0  0  0  0  0  0
   -1.2869   -1.6761    1.2685 O   0  0  0  0  0  0  0  0  0  0  0  0
   -0.5225    0.1673   -0.2612 C   0  0  0  0  0  0  0  0  0  0  0  0
    0.0617    1.0550    0.8118 C   0  0  0  0  0  0  0  0  0  0  0  0
   -1.5446    0.8233   -1.1087 C   0  0  0  0  0  0  0  0  0  0  0  0
    3.5712   -1.4382    1.0567 H   0  0  0  0  0  0  0  0  0  0  0  0
    0.7759   -0.2398   -2.0119 H   0  0  0  0  0  0  0  0  0  0  0  0
    0.7621    1.8135    0.4018 H   0  0  0  0  0  0  0  0  0  0  0  0
    0.5365    0.4415    1.6078 H   0  0  0  0  0  0  0  0  0  0  0  0
   -0.7965    1.5791    1.2968 H   0  0  0  0  0  0  0  0  0  0  0  0
   -2.5442    0.7572   -0.6261 H   0  0  0  0  0  0  0  0  0  0  0  0
   -1.3061    1.9059   -1.1747 H   0  0  0  0  0  0  0  0  0  0  0  0
   -1.5508    0.3513   -2.1226 H   0  0  0  0  0  0  0  0  0  0  0  0
  1  2  3  0
  2  3  1  0
  3  4  1  0
  4  5  1  0
  5  6  2  0
  5  7  1  0
  7  8  1  0
  7  9  1  0
  7  3  1  0
  1 10  1  0
  3 11  1  0
  8 12  1  0
  8 13  1  0
  8 14  1  0
  9 15  1  0
  9 16  1  0
  9 17  1  0
M  END
