
     RDKit          3D

 25 24  0  0  0  0  0  0  0  0999 V2000
    3.6447   -0.1512    0.0328 C   0  0  0  0  0  0  0  0  0  0  0  0
    2.8242    0.0804   -0.9038 C   0  0  0  0  0  0  0  0  0  0  0  0
    1.4632    0.4257   -2.4365 C   0  0  0  0  0  0  0  0  0  0  0  0
    0.5157    0.4995   -1.2915 C   0  0  0  0  0  0  0  0  0  0  0  0
    0.5214   -0.4469   -0.1565 C   0  0  0  0  0  0  0  0  0  0  0  0
   -0.7811   -0.4038    0.5713 C   0  0  0  0  0  0  0  0  0  0  0  0
   -0.7016   -1.1175    1.9115 C   0  0  0  0  0  0  0  0  0  0  0  0
   -1.8856    0.4032    0.2976 C   0  0  0  0  0  0  0  0  0  0  0  0
   -2.0667    1.8888    0.2994 C   0  0  0  0  0  0  0  0  0  0  0  0
    4.5403   -0.3923    1.0286 H   0  0  0  0  0  0  0  0  0  0  0  0
    2.2559    1.2038   -2.4537 H   0  0  0  0  0  0  0  0  0  0  0  0
    1.9108   -0.6218   -2.5551 H   0  0  0  0  0  0  0  0  0  0  0  0
    0.9824    1.5113   -0.7359 H   0  0  0  0  0  0  0  0  0  0  0  0
   -0.5312    0.8533   -1.5389 H   0  0  0  0  0  0  0  0  0  0  0  0
    1.3282   -0.2774    0.6519 H   0  0  0  0  0  0  0  0  0  0  0  0
    0.7927   -1.5201   -0.4608 H   0  0  0  0  0  0  0  0  0  0  0  0
   -1.2209   -1.4864   -0.0170 H   0  0  0  0  0  0  0  0  0  0  0  0
   -1.0216   -2.1285    1.9115 H   0  0  0  0  0  0  0  0  0  0  0  0
   -1.3635   -0.4720    2.5785 H   0  0  0  0  0  0  0  0  0  0  0  0
    0.3725   -1.0387    2.3156 H   0  0  0  0  0  0  0  0  0  0  0  0
   -2.3252    0.1081   -0.8398 H   0  0  0  0  0  0  0  0  0  0  0  0
   -2.7913   -0.0019    0.8669 H   0  0  0  0  0  0  0  0  0  0  0  0
   -1.9072    2.3567   -0.7140 H   0  0  0  0  0  0  0  0  0  0  0  0
   -1.4077    2.3935    1.0208 H   0  0  0  0  0  0  0  0  0  0  0  0
   -3.1481    2.1234    0.6170 H   0  0  0  0  0  0  0  0  0  0  0  0
  1  2  3  0
  2  3  1  0
  3  4  1  0
  4  5  1  0
  5  6  1  0
  6  7  1  0
  6  8  1  0
  8  9  1  0
  1 10  1  0
  3 11  1  0
  3 12  1  0
  4 13  1  0
  4 14  1  0
  5 15  1  0
  5 16  1  0
  6 17  1  0
  7 18  1  0
  7 19  1  0
  7 20  1  0
  8 21  1  0
  8 22  1  0
  9 23  1  0
  9 24  1  0
  9 25  1  0
M  END
