
     RDKit          3D

 17 17  0  0  0  0  0  0  0  0999 V2000
   -4.1635   -0.5295    0.2009 C   0  0  0  0  0  0  0  0  0  0  0  0
   -3.3731   -1.0955   -0.3610 C   0  0  0  0  0  0  0  0  0  0  0  0
   -2.3008   -1.8666   -1.1001 C   0  0  0  0  0  0  0  0  0  0  0  0
   -1.1327   -0.8357   -0.8837 C   0  0  0  0  0  0  0  0  0  0  0  0
   -0.2429   -0.0775   -0.7256 C   0  0  0  0  0  0  0  0  0  0  0  0
    0.9106    0.9236   -0.5424 C   0  0  0  0  0  0  0  0  0  0  0  0
    0.9403    1.2080    0.9135 O   0  0  0  0  0  0  0  0  0  0  0  0
    2.0160    0.4564    0.2195 C   0  0  0  0  0  0  0  0  0  0  0  0
    3.3063    1.1379    0.5080 C   0  0  0  0  0  0  0  0  0  0  0  0
   -4.9966    0.0776    0.8025 H   0  0  0  0  0  0  0  0  0  0  0  0
   -1.9328   -2.7023   -0.5125 H   0  0  0  0  0  0  0  0  0  0  0  0
   -2.4905   -1.9552   -2.1234 H   0  0  0  0  0  0  0  0  0  0  0  0
    0.7188    1.8680   -1.0309 H   0  0  0  0  0  0  0  0  0  0  0  0
    1.9794   -0.5850    0.6316 H   0  0  0  0  0  0  0  0  0  0  0  0
    3.2054    1.5341    1.5798 H   0  0  0  0  0  0  0  0  0  0  0  0
    4.1278    0.4268    0.5094 H   0  0  0  0  0  0  0  0  0  0  0  0
    3.4284    2.0149   -0.1751 H   0  0  0  0  0  0  0  0  0  0  0  0
  1  2  3  0
  2  3  1  0
  3  4  1  0
  4  5  3  0
  5  6  1  0
  6  7  1  0
  7  8  1  0
  8  9  1  0
  8  6  1  0
  1 10  1  0
  3 11  1  0
  3 12  1  0
  6 13  1  0
  8 14  1  0
  9 15  1  0
  9 16  1  0
  9 17  1  0
M  END
