
     RDKit          3D

 19 19  0  0  0  0  0  0  0  0999 V2000
    3.7387   -1.0312    0.8191 C   0  0  0  0  0  0  0  0  0  0  0  0
    2.5709   -1.0534    0.5215 C   0  0  0  0  0  0  0  0  0  0  0  0
    1.1314   -1.0649    0.1641 C   0  0  0  0  0  0  0  0  0  0  0  0
    0.5513    0.2563    0.5251 C   0  0  0  0  0  0  0  0  0  0  0  0
    1.1762    1.2985   -0.1526 O   0  0  0  0  0  0  0  0  0  0  0  0
    0.0278    1.4817   -0.8813 C   0  0  0  0  0  0  0  0  0  0  0  0
   -0.7961    0.5951   -0.0106 C   0  0  0  0  0  0  0  0  0  0  0  0
   -1.4784   -0.4275   -0.6523 O   0  0  0  0  0  0  0  0  0  0  0  0
   -2.8128   -0.3630   -0.2536 C   0  0  0  0  0  0  0  0  0  0  0  0
    4.7632   -0.9934    1.0798 H   0  0  0  0  0  0  0  0  0  0  0  0
    1.0393   -1.2192   -0.9377 H   0  0  0  0  0  0  0  0  0  0  0  0
    0.6181   -1.9146    0.6368 H   0  0  0  0  0  0  0  0  0  0  0  0
    0.5740    0.4338    1.6354 H   0  0  0  0  0  0  0  0  0  0  0  0
   -0.2578    2.5736   -0.8488 H   0  0  0  0  0  0  0  0  0  0  0  0
    0.1531    1.1607   -1.9354 H   0  0  0  0  0  0  0  0  0  0  0  0
   -1.4412    1.2280    0.6641 H   0  0  0  0  0  0  0  0  0  0  0  0
   -3.2140    0.6467   -0.5568 H   0  0  0  0  0  0  0  0  0  0  0  0
   -2.9251   -0.4202    0.8520 H   0  0  0  0  0  0  0  0  0  0  0  0
   -3.4185   -1.1869   -0.6691 H   0  0  0  0  0  0  0  0  0  0  0  0
  1  2  3  0
  2  3  1  0
  3  4  1  0
  4  5  1  0
  5  6  1  0
  6  7  1  0
  7  8  1  0
  8  9  1  0
  7  4  1  0
  1 10  1  0
  3 11  1  0
  3 12  1  0
  4 13  1  0
  6 14  1  0
  6 15  1  0
  7 16  1  0
  9 17  1  0
  9 18  1  0
  9 19  1  0
M  END
