
     RDKit          3D

 17 18  0  0  0  0  0  0  0  0999 V2000
   -0.8342   -2.6852   -0.6282 C   0  0  0  0  0  0  0  0  0  0  0  0
   -0.6192   -1.7282   -0.1280 C   0  0  0  0  0  0  0  0  0  0  0  0
   -0.3559   -0.5403    0.4800 C   0  0  0  0  0  0  0  0  0  0  0  0
    0.6856    0.2959   -0.1934 C   0  0  0  0  0  0  0  0  0  0  0  0
    2.0814   -0.1329   -0.6104 C   0  0  0  0  0  0  0  0  0  0  0  0
    0.2463    1.5210   -0.3761 C   0  0  0  0  0  0  0  0  0  0  0  0
   -1.1217    1.6785    0.1392 C   0  0  0  0  0  0  0  0  0  0  0  0
   -1.3055    1.4711    1.5195 O   0  0  0  0  0  0  0  0  0  0  0  0
   -1.5331    0.4345    0.6045 C   0  0  0  0  0  0  0  0  0  0  0  0
   -1.0950   -3.7967   -1.2322 H   0  0  0  0  0  0  0  0  0  0  0  0
   -0.0217   -0.6711    1.5862 H   0  0  0  0  0  0  0  0  0  0  0  0
    2.1808   -1.2516   -0.5725 H   0  0  0  0  0  0  0  0  0  0  0  0
    2.8131    0.3711    0.0805 H   0  0  0  0  0  0  0  0  0  0  0  0
    2.3379    0.1863   -1.6305 H   0  0  0  0  0  0  0  0  0  0  0  0
    0.8144    2.3552   -0.8832 H   0  0  0  0  0  0  0  0  0  0  0  0
   -1.7429    2.4805   -0.3128 H   0  0  0  0  0  0  0  0  0  0  0  0
   -2.5304    0.0121    0.5270 H   0  0  0  0  0  0  0  0  0  0  0  0
  1  2  3  0
  2  3  1  0
  3  4  1  0
  4  5  1  0
  4  6  2  0
  6  7  1  0
  7  8  1  0
  8  9  1  0
  9  3  1  0
  9  7  1  0
  1 10  1  0
  3 11  1  0
  5 12  1  0
  5 13  1  0
  5 14  1  0
  6 15  1  0
  7 16  1  0
  9 17  1  0
M  END
