
     RDKit          3D

 19 19  0  0  0  0  0  0  0  0999 V2000
    2.6514   -1.7041    0.1606 C   0  0  0  0  0  0  0  0  0  0  0  0
    1.8504   -0.9748   -0.2890 C   0  0  0  0  0  0  0  0  0  0  0  0
    0.8223   -0.0732   -0.8524 C   0  0  0  0  0  0  0  0  0  0  0  0
    0.2783    0.6988    0.4687 C   0  0  0  0  0  0  0  0  0  0  0  0
   -0.0992    2.1265    0.4403 C   0  0  0  0  0  0  0  0  0  0  0  0
   -0.5393   -0.3946   -0.1341 C   0  0  0  0  0  0  0  0  0  0  0  0
   -1.7464   -0.0282   -0.9422 C   0  0  0  0  0  0  0  0  0  0  0  0
   -0.6714   -1.5624    0.7936 C   0  0  0  0  0  0  0  0  0  0  0  0
    0.2020   -2.4021    0.7244 O   0  0  0  0  0  0  0  0  0  0  0  0
    3.5526   -2.4943    0.6628 H   0  0  0  0  0  0  0  0  0  0  0  0
    0.8970    0.4153   -1.6807 H   0  0  0  0  0  0  0  0  0  0  0  0
    0.7327    0.4086    1.4604 H   0  0  0  0  0  0  0  0  0  0  0  0
    0.8526    2.7323    0.5215 H   0  0  0  0  0  0  0  0  0  0  0  0
   -0.6545    2.4239    1.3777 H   0  0  0  0  0  0  0  0  0  0  0  0
   -0.6578    2.4205   -0.4597 H   0  0  0  0  0  0  0  0  0  0  0  0
   -2.1313    0.9778   -0.8171 H   0  0  0  0  0  0  0  0  0  0  0  0
   -2.5328   -0.8187   -0.9206 H   0  0  0  0  0  0  0  0  0  0  0  0
   -1.3715   -0.0839   -2.0272 H   0  0  0  0  0  0  0  0  0  0  0  0
   -1.4353   -1.6674    1.5131 H   0  0  0  0  0  0  0  0  0  0  0  0
  1  2  3  0
  2  3  1  0
  3  4  1  0
  4  5  1  0
  4  6  1  0
  6  7  1  0
  6  8  1  0
  8  9  2  0
  6  3  1  0
  1 10  1  0
  3 11  1  0
  4 12  1  0
  5 13  1  0
  5 14  1  0
  5 15  1  0
  7 16  1  0
  7 17  1  0
  7 18  1  0
  8 19  1  0
M  END
