
     RDKit          3D

 17 16  0  0  0  0  0  0  0  0999 V2000
   -4.5444   -0.2418    0.6824 C   0  0  0  0  0  0  0  0  0  0  0  0
   -3.3684    0.0250    0.7250 C   0  0  0  0  0  0  0  0  0  0  0  0
   -1.9405    0.3639    0.7559 C   0  0  0  0  0  0  0  0  0  0  0  0
   -1.2466   -0.2753   -0.4283 C   0  0  0  0  0  0  0  0  0  0  0  0
    0.1834    0.0176   -0.4603 C   0  0  0  0  0  0  0  0  0  0  0  0
    1.3701    0.2689   -0.5026 C   0  0  0  0  0  0  0  0  0  0  0  0
    2.7840    0.5769   -0.5521 C   0  0  0  0  0  0  0  0  0  0  0  0
    3.7344   -0.3177    0.1823 C   0  0  0  0  0  0  0  0  0  0  0  0
    3.2421    1.5663   -1.1879 O   0  0  0  0  0  0  0  0  0  0  0  0
   -5.5917   -0.4969    0.6366 H   0  0  0  0  0  0  0  0  0  0  0  0
   -1.5208    0.0113    1.7113 H   0  0  0  0  0  0  0  0  0  0  0  0
   -1.8618    1.4571    0.7582 H   0  0  0  0  0  0  0  0  0  0  0  0
   -1.7769    0.0780   -1.3340 H   0  0  0  0  0  0  0  0  0  0  0  0
   -1.3919   -1.3673   -0.3718 H   0  0  0  0  0  0  0  0  0  0  0  0
    3.4044   -0.4599    1.2489 H   0  0  0  0  0  0  0  0  0  0  0  0
    4.7400    0.1150    0.1990 H   0  0  0  0  0  0  0  0  0  0  0  0
    3.7846   -1.3210   -0.2817 H   0  0  0  0  0  0  0  0  0  0  0  0
  1  2  3  0
  2  3  1  0
  3  4  1  0
  4  5  1  0
  5  6  3  0
  6  7  1  0
  7  8  1  0
  7  9  2  0
  1 10  1  0
  3 11  1  0
  3 12  1  0
  4 13  1  0
  4 14  1  0
  8 15  1  0
  8 16  1  0
  8 17  1  0
M  END
