
     RDKit          3D

 21 21  0  0  0  0  0  0  0  0999 V2000
    3.2919    0.8130    0.3028 C   0  0  0  0  0  0  0  0  0  0  0  0
    2.1121    0.7612    0.0581 C   0  0  0  0  0  0  0  0  0  0  0  0
    0.6643    0.6751   -0.2498 C   0  0  0  0  0  0  0  0  0  0  0  0
    0.5106   -0.0131   -1.5529 C   0  0  0  0  0  0  0  0  0  0  0  0
    0.3805   -1.3048   -1.3455 C   0  0  0  0  0  0  0  0  0  0  0  0
    0.4345   -1.6068    0.1265 C   0  0  0  0  0  0  0  0  0  0  0  0
   -0.0209   -0.2548    0.6998 C   0  0  0  0  0  0  0  0  0  0  0  0
   -1.5093   -0.1917    0.4493 C   0  0  0  0  0  0  0  0  0  0  0  0
   -2.0648    1.1930    0.6534 C   0  0  0  0  0  0  0  0  0  0  0  0
    4.3347    0.8423    0.5121 H   0  0  0  0  0  0  0  0  0  0  0  0
    0.2209    1.6902   -0.2472 H   0  0  0  0  0  0  0  0  0  0  0  0
    0.5137    0.5330   -2.5102 H   0  0  0  0  0  0  0  0  0  0  0  0
    0.2520   -2.0674   -2.0937 H   0  0  0  0  0  0  0  0  0  0  0  0
   -0.3429   -2.3677    0.3411 H   0  0  0  0  0  0  0  0  0  0  0  0
    1.4330   -1.8778    0.4693 H   0  0  0  0  0  0  0  0  0  0  0  0
    0.2512   -0.1449    1.7451 H   0  0  0  0  0  0  0  0  0  0  0  0
   -2.0335   -0.8659    1.1574 H   0  0  0  0  0  0  0  0  0  0  0  0
   -1.7308   -0.4891   -0.5925 H   0  0  0  0  0  0  0  0  0  0  0  0
   -1.8087    1.8891   -0.1821 H   0  0  0  0  0  0  0  0  0  0  0  0
   -3.1729    1.1247    0.6654 H   0  0  0  0  0  0  0  0  0  0  0  0
   -1.7158    1.6625    1.5937 H   0  0  0  0  0  0  0  0  0  0  0  0
  1  2  3  0
  2  3  1  0
  3  4  1  0
  4  5  2  0
  5  6  1  0
  6  7  1  0
  7  8  1  0
  8  9  1  0
  7  3  1  0
  1 10  1  0
  3 11  1  0
  4 12  1  0
  5 13  1  0
  6 14  1  0
  6 15  1  0
  7 16  1  0
  8 17  1  0
  8 18  1  0
  9 19  1  0
  9 20  1  0
  9 21  1  0
M  END
