
     RDKit          3D

 19 19  0  0  0  0  0  0  0  0999 V2000
    3.4303    0.7133   -0.4649 C   0  0  0  0  0  0  0  0  0  0  0  0
    2.4601    0.0077   -0.3065 C   0  0  0  0  0  0  0  0  0  0  0  0
    1.3098   -0.8539   -0.1058 C   0  0  0  0  0  0  0  0  0  0  0  0
    0.2230   -0.1681    0.6516 C   0  0  0  0  0  0  0  0  0  0  0  0
   -0.9593   -1.1163    0.8341 C   0  0  0  0  0  0  0  0  0  0  0  0
   -1.5912   -0.5018   -0.3966 C   0  0  0  0  0  0  0  0  0  0  0  0
   -0.6921    0.7161   -0.1583 C   0  0  0  0  0  0  0  0  0  0  0  0
   -1.4372    1.7100    0.6451 C   0  0  0  0  0  0  0  0  0  0  0  0
   -2.2329    2.4328    0.0909 O   0  0  0  0  0  0  0  0  0  0  0  0
    4.2805    1.3351   -0.6225 H   0  0  0  0  0  0  0  0  0  0  0  0
    1.5803   -1.7820    0.4734 H   0  0  0  0  0  0  0  0  0  0  0  0
    0.9275   -1.2176   -1.0911 H   0  0  0  0  0  0  0  0  0  0  0  0
    0.5439    0.2987    1.5821 H   0  0  0  0  0  0  0  0  0  0  0  0
   -1.5218   -0.9811    1.7623 H   0  0  0  0  0  0  0  0  0  0  0  0
   -0.7195   -2.1806    0.6246 H   0  0  0  0  0  0  0  0  0  0  0  0
   -2.6640   -0.3153   -0.2190 H   0  0  0  0  0  0  0  0  0  0  0  0
   -1.3528   -1.0034   -1.3483 H   0  0  0  0  0  0  0  0  0  0  0  0
   -0.2985    1.1051   -1.0968 H   0  0  0  0  0  0  0  0  0  0  0  0
   -1.2860    1.8013    1.7043 H   0  0  0  0  0  0  0  0  0  0  0  0
  1  2  3  0
  2  3  1  0
  3  4  1  0
  4  5  1  0
  5  6  1  0
  6  7  1  0
  7  8  1  0
  8  9  2  0
  7  4  1  0
  1 10  1  0
  3 11  1  0
  3 12  1  0
  4 13  1  0
  5 14  1  0
  5 15  1  0
  6 16  1  0
  6 17  1  0
  7 18  1  0
  8 19  1  0
M  END
