
     RDKit          3D

 17 18  0  0  0  0  0  0  0  0999 V2000
   -0.7908    2.0991    1.1669 C   0  0  0  0  0  0  0  0  0  0  0  0
   -0.6449    1.2048    0.3389 C   0  0  0  0  0  0  0  0  0  0  0  0
   -0.4464    0.1310   -0.6749 C   0  0  0  0  0  0  0  0  0  0  0  0
   -1.6668   -0.7995   -0.5730 C   0  0  0  0  0  0  0  0  0  0  0  0
   -1.0308   -0.9958    0.7939 C   0  0  0  0  0  0  0  0  0  0  0  0
   -1.3775   -0.9725    1.9449 O   0  0  0  0  0  0  0  0  0  0  0  0
    0.1586   -1.2117   -0.0790 C   0  0  0  0  0  0  0  0  0  0  0  0
    0.9134   -0.2621   -0.8244 C   0  0  0  0  0  0  0  0  0  0  0  0
    2.0364    0.4631   -0.0616 C   0  0  0  0  0  0  0  0  0  0  0  0
   -0.9155    2.8788    1.8675 H   0  0  0  0  0  0  0  0  0  0  0  0
   -2.6023   -0.2607   -0.4960 H   0  0  0  0  0  0  0  0  0  0  0  0
   -1.6208   -1.6759   -1.2188 H   0  0  0  0  0  0  0  0  0  0  0  0
   -0.0953   -2.1390   -0.6900 H   0  0  0  0  0  0  0  0  0  0  0  0
    1.2643   -0.4614   -1.8810 H   0  0  0  0  0  0  0  0  0  0  0  0
    1.9420    0.2834    1.0123 H   0  0  0  0  0  0  0  0  0  0  0  0
    3.0212    0.1595   -0.4085 H   0  0  0  0  0  0  0  0  0  0  0  0
    1.8552    1.5587   -0.2171 H   0  0  0  0  0  0  0  0  0  0  0  0
  1  2  3  0
  2  3  1  0
  3  4  1  0
  4  5  1  0
  5  6  2  0
  5  7  1  0
  7  8  1  0
  8  9  1  0
  7  3  1  0
  8  3  1  0
  1 10  1  0
  4 11  1  0
  4 12  1  0
  7 13  1  0
  8 14  1  0
  9 15  1  0
  9 16  1  0
  9 17  1  0
M  END
