
     RDKit          3D

 15 16  0  0  0  0  0  0  0  0999 V2000
    2.4296   -1.8243    1.6834 C   0  0  0  0  0  0  0  0  0  0  0  0
    1.9046   -1.2090    0.7863 C   0  0  0  0  0  0  0  0  0  0  0  0
    1.2994   -0.4632   -0.2670 C   0  0  0  0  0  0  0  0  0  0  0  0
    1.8139   -0.4741   -1.4014 O   0  0  0  0  0  0  0  0  0  0  0  0
    0.0736    0.3221   -0.0384 C   0  0  0  0  0  0  0  0  0  0  0  0
   -0.4616    1.0571   -1.2210 C   0  0  0  0  0  0  0  0  0  0  0  0
   -1.7955    1.0711   -0.5539 C   0  0  0  0  0  0  0  0  0  0  0  0
   -1.2197   -0.3098   -0.4130 C   0  0  0  0  0  0  0  0  0  0  0  0
   -0.8239   -0.1871   -1.7374 O   0  0  0  0  0  0  0  0  0  0  0  0
    2.8934   -2.3720    2.4869 H   0  0  0  0  0  0  0  0  0  0  0  0
    0.0299    0.8513    0.9370 H   0  0  0  0  0  0  0  0  0  0  0  0
   -0.0211    1.8045   -1.7322 H   0  0  0  0  0  0  0  0  0  0  0  0
   -1.7702    1.6880    0.3597 H   0  0  0  0  0  0  0  0  0  0  0  0
   -2.6807    1.1507   -1.1872 H   0  0  0  0  0  0  0  0  0  0  0  0
   -1.6714   -1.1054    0.0092 H   0  0  0  0  0  0  0  0  0  0  0  0
  1  2  3  0
  2  3  1  0
  3  4  2  0
  3  5  1  0
  5  6  1  0
  6  7  1  0
  7  8  1  0
  8  9  1  0
  8  5  1  0
  9  6  1  0
  1 10  1  0
  5 11  1  0
  6 12  1  0
  7 13  1  0
  7 14  1  0
  8 15  1  0
M  END
