
     RDKit          3D

 19 20  0  0  0  0  0  0  0  0999 V2000
    3.5267   -0.4400   -0.0464 C   0  0  0  0  0  0  0  0  0  0  0  0
    2.5998    0.3221    0.0780 C   0  0  0  0  0  0  0  0  0  0  0  0
    1.4643    1.2455    0.2538 C   0  0  0  0  0  0  0  0  0  0  0  0
    0.2393    0.3875    0.4763 C   0  0  0  0  0  0  0  0  0  0  0  0
   -0.0276   -0.5296   -0.6902 C   0  0  0  0  0  0  0  0  0  0  0  0
   -1.5250   -0.5712   -0.7321 C   0  0  0  0  0  0  0  0  0  0  0  0
   -2.2514   -0.8254    0.5503 C   0  0  0  0  0  0  0  0  0  0  0  0
   -1.9602    0.5503    0.0981 C   0  0  0  0  0  0  0  0  0  0  0  0
   -0.8537    1.2312    0.5448 O   0  0  0  0  0  0  0  0  0  0  0  0
    4.3521   -1.0984   -0.1471 H   0  0  0  0  0  0  0  0  0  0  0  0
    1.3403    1.8775   -0.6487 H   0  0  0  0  0  0  0  0  0  0  0  0
    1.6330    1.9115    1.1041 H   0  0  0  0  0  0  0  0  0  0  0  0
    0.3980   -0.1835    1.4099 H   0  0  0  0  0  0  0  0  0  0  0  0
    0.4147   -1.5423   -0.5360 H   0  0  0  0  0  0  0  0  0  0  0  0
    0.3967   -0.1540   -1.6449 H   0  0  0  0  0  0  0  0  0  0  0  0
   -2.0570   -0.9086   -1.6373 H   0  0  0  0  0  0  0  0  0  0  0  0
   -3.2867   -1.2069    0.5123 H   0  0  0  0  0  0  0  0  0  0  0  0
   -1.6355   -1.2729    1.3468 H   0  0  0  0  0  0  0  0  0  0  0  0
   -2.7677    1.2072   -0.2919 H   0  0  0  0  0  0  0  0  0  0  0  0
  1  2  3  0
  2  3  1  0
  3  4  1  0
  4  5  1  0
  5  6  1  0
  6  7  1  0
  7  8  1  0
  8  9  1  0
  9  4  1  0
  8  6  1  0
  1 10  1  0
  3 11  1  0
  3 12  1  0
  4 13  1  0
  5 14  1  0
  5 15  1  0
  6 16  1  0
  7 17  1  0
  7 18  1  0
  8 19  1  0
M  END
