
     RDKit          3D

 15 16  0  0  0  0  0  0  0  0999 V2000
    2.3936    1.7491    0.5814 C   0  0  0  0  0  0  0  0  0  0  0  0
    1.4195    1.1685    0.2211 C   0  0  0  0  0  0  0  0  0  0  0  0
    0.2175    0.4239   -0.2380 C   0  0  0  0  0  0  0  0  0  0  0  0
    0.4508   -0.7869   -1.0526 C   0  0  0  0  0  0  0  0  0  0  0  0
   -0.0172   -0.8753    0.3855 C   0  0  0  0  0  0  0  0  0  0  0  0
   -1.5153   -1.0199    0.5140 C   0  0  0  0  0  0  0  0  0  0  0  0
   -2.0710    0.2562    0.2429 O   0  0  0  0  0  0  0  0  0  0  0  0
   -1.0800    1.1097   -0.2205 C   0  0  0  0  0  0  0  0  0  0  0  0
   -1.3129    2.2954   -0.5642 O   0  0  0  0  0  0  0  0  0  0  0  0
    3.2933    2.2669    0.9067 H   0  0  0  0  0  0  0  0  0  0  0  0
    1.5109   -1.0193   -1.2937 H   0  0  0  0  0  0  0  0  0  0  0  0
   -0.2430   -1.0763   -1.8726 H   0  0  0  0  0  0  0  0  0  0  0  0
    0.6506   -1.3709    1.0910 H   0  0  0  0  0  0  0  0  0  0  0  0
   -1.8550   -1.7145   -0.2784 H   0  0  0  0  0  0  0  0  0  0  0  0
   -1.8416   -1.4066    1.4754 H   0  0  0  0  0  0  0  0  0  0  0  0
  1  2  3  0
  2  3  1  0
  3  4  1  0
  4  5  1  0
  5  6  1  0
  6  7  1  0
  7  8  1  0
  8  9  2  0
  5  3  1  0
  8  3  1  0
  1 10  1  0
  4 11  1  0
  4 12  1  0
  5 13  1  0
  6 14  1  0
  6 15  1  0
M  END
