
     RDKit          3D

 15 15  0  0  0  0  0  0  0  0999 V2000
   -0.8055    2.6676   -0.3550 C   0  0  0  0  0  0  0  0  0  0  0  0
   -0.5501    1.4907   -0.2854 C   0  0  0  0  0  0  0  0  0  0  0  0
   -0.2406    0.0572   -0.1765 C   0  0  0  0  0  0  0  0  0  0  0  0
   -1.4736   -0.7870    0.0867 C   0  0  0  0  0  0  0  0  0  0  0  0
    0.9137   -0.2504    0.7429 C   0  0  0  0  0  0  0  0  0  0  0  0
    1.5901   -0.8926   -0.4664 C   0  0  0  0  0  0  0  0  0  0  0  0
    0.5382   -0.4179   -1.2475 O   0  0  0  0  0  0  0  0  0  0  0  0
   -1.0325    3.7186   -0.4150 H   0  0  0  0  0  0  0  0  0  0  0  0
   -1.2943   -1.7649   -0.4041 H   0  0  0  0  0  0  0  0  0  0  0  0
   -2.3697   -0.2711   -0.3146 H   0  0  0  0  0  0  0  0  0  0  0  0
   -1.5894   -0.9339    1.1652 H   0  0  0  0  0  0  0  0  0  0  0  0
    1.3968    0.6957    1.0746 H   0  0  0  0  0  0  0  0  0  0  0  0
    0.6972   -0.9479    1.5734 H   0  0  0  0  0  0  0  0  0  0  0  0
    1.6471   -1.9718   -0.3231 H   0  0  0  0  0  0  0  0  0  0  0  0
    2.5726   -0.3923   -0.6550 H   0  0  0  0  0  0  0  0  0  0  0  0
  1  2  3  0
  2  3  1  0
  3  4  1  0
  3  5  1  0
  5  6  1  0
  6  7  1  0
  7  3  1  0
  1  8  1  0
  4  9  1  0
  4 10  1  0
  4 11  1  0
  5 12  1  0
  5 13  1  0
  6 14  1  0
  6 15  1  0
M  END
