
     RDKit          3D

 15 14  0  0  0  0  0  0  0  0999 V2000
    3.3991    1.1558    1.6461 C   0  0  0  0  0  0  0  0  0  0  0  0
    2.6735    0.2258    1.1220 C   0  0  0  0  0  0  0  0  0  0  0  0
    1.9055   -0.7348    0.5765 C   0  0  0  0  0  0  0  0  0  0  0  0
    0.6371   -0.7040    0.1550 C   0  0  0  0  0  0  0  0  0  0  0  0
   -0.5492   -0.6554   -0.2364 C   0  0  0  0  0  0  0  0  0  0  0  0
   -1.9513   -0.5722   -0.6964 C   0  0  0  0  0  0  0  0  0  0  0  0
   -2.3903    0.8468   -0.5759 C   0  0  0  0  0  0  0  0  0  0  0  0
    3.9578    1.8945    2.0605 H   0  0  0  0  0  0  0  0  0  0  0  0
    2.5720   -1.2348   -0.3407 H   0  0  0  0  0  0  0  0  0  0  0  0
    2.0670   -1.7418    1.2592 H   0  0  0  0  0  0  0  0  0  0  0  0
   -1.9958   -0.8890   -1.7631 H   0  0  0  0  0  0  0  0  0  0  0  0
   -2.6032   -1.2078   -0.0597 H   0  0  0  0  0  0  0  0  0  0  0  0
   -2.0089    1.5014   -1.4195 H   0  0  0  0  0  0  0  0  0  0  0  0
   -3.5073    0.8184   -0.7032 H   0  0  0  0  0  0  0  0  0  0  0  0
   -2.2059    1.2969    0.3967 H   0  0  0  0  0  0  0  0  0  0  0  0
  1  2  3  0
  2  3  1  0
  3  4  1  0
  4  5  3  0
  5  6  1  0
  6  7  1  0
  1  8  1  0
  3  9  1  0
  3 10  1  0
  6 11  1  0
  6 12  1  0
  7 13  1  0
  7 14  1  0
  7 15  1  0
M  END
