
     RDKit          3D

 15 16  0  0  0  0  0  0  0  0999 V2000
   -3.6882    1.0926    0.1409 C   0  0  0  0  0  0  0  0  0  0  0  0
   -2.3408    0.0831    0.2095 C   0  0  0  0  0  0  0  0  0  0  0  0
   -1.4458   -0.5731    0.2623 C   0  0  0  0  0  0  0  0  0  0  0  0
   -0.5661   -0.7363   -0.7657 O   0  0  0  0  0  0  0  0  0  0  0  0
    0.8147   -0.5999   -0.5982 C   0  0  0  0  0  0  0  0  0  0  0  0
    1.6758    0.5483   -0.4061 C   0  0  0  0  0  0  0  0  0  0  0  0
    3.0725    0.2888   -0.2649 O   0  0  0  0  0  0  0  0  0  0  0  0
    0.9197   -0.0212    0.7728 C   0  0  0  0  0  0  0  0  0  0  0  0
   -0.3012    0.6282    0.9069 O   0  0  0  0  0  0  0  0  0  0  0  0
   -4.3255    1.5554    0.1145 H   0  0  0  0  0  0  0  0  0  0  0  0
   -1.2016   -1.0289    1.2979 H   0  0  0  0  0  0  0  0  0  0  0  0
    1.3427   -1.5182   -0.9879 H   0  0  0  0  0  0  0  0  0  0  0  0
    1.4122    1.5949   -0.6040 H   0  0  0  0  0  0  0  0  0  0  0  0
    3.0900   -0.6539    0.1705 H   0  0  0  0  0  0  0  0  0  0  0  0
    1.5416   -0.6597    1.4645 H   0  0  0  0  0  0  0  0  0  0  0  0
  1  2  3  0
  2  3  1  0
  3  4  1  0
  4  5  1  0
  5  6  1  0
  6  7  1  0
  6  8  1  0
  8  9  1  0
  9  3  1  0
  8  5  1  0
  1 10  1  0
  3 11  1  0
  5 12  1  0
  6 13  1  0
  7 14  1  0
  8 15  1  0
M  END
