
     RDKit          3D

 15 16  0  0  0  0  0  0  0  0999 V2000
    2.0705   -0.8940   -1.4440 C   0  0  0  0  0  0  0  0  0  0  0  0
    1.3219   -0.7891   -0.4954 C   0  0  0  0  0  0  0  0  0  0  0  0
    0.4227   -0.6440    0.6207 C   0  0  0  0  0  0  0  0  0  0  0  0
    0.6456   -1.4542    1.7024 O   0  0  0  0  0  0  0  0  0  0  0  0
    0.0366    0.7346    1.0205 C   0  0  0  0  0  0  0  0  0  0  0  0
   -1.1749    0.2008    1.4363 O   0  0  0  0  0  0  0  0  0  0  0  0
   -0.9968   -0.4288    0.1980 C   0  0  0  0  0  0  0  0  0  0  0  0
   -0.6077    0.9057   -0.3192 C   0  0  0  0  0  0  0  0  0  0  0  0
   -1.6086    1.8739   -0.3769 O   0  0  0  0  0  0  0  0  0  0  0  0
    2.7176   -1.0032   -2.2687 H   0  0  0  0  0  0  0  0  0  0  0  0
   -0.1889   -1.9779    1.8741 H   0  0  0  0  0  0  0  0  0  0  0  0
    0.5923    1.4172    1.5169 H   0  0  0  0  0  0  0  0  0  0  0  0
   -1.6215   -1.1043   -0.2072 H   0  0  0  0  0  0  0  0  0  0  0  0
    0.0413    0.9112   -1.1983 H   0  0  0  0  0  0  0  0  0  0  0  0
   -1.6502    2.2520   -1.2974 H   0  0  0  0  0  0  0  0  0  0  0  0
  1  2  3  0
  2  3  1  0
  3  4  1  0
  3  5  1  0
  5  6  1  0
  6  7  1  0
  7  8  1  0
  8  9  1  0
  7  3  1  0
  8  5  1  0
  1 10  1  0
  4 11  1  0
  5 12  1  0
  7 13  1  0
  8 14  1  0
  9 15  1  0
M  END
