
     RDKit          3D

 21 22  0  0  0  0  0  0  0  0999 V2000
    1.4621    0.7000    2.0399 C   0  0  0  0  0  0  0  0  0  0  0  0
    1.3291    0.4361    1.2815 C   0  0  0  0  0  0  0  0  0  0  0  0
    1.0710   -0.0496   -0.1300 C   0  0  0  0  0  0  0  0  0  0  0  0
    1.0097    0.4686   -1.3576 C   0  0  0  0  0  0  0  0  0  0  0  0
   -0.1359   -0.6074   -1.4091 C   0  0  0  0  0  0  0  0  0  0  0  0
    0.8402   -1.3937   -0.4947 C   0  0  0  0  0  0  0  0  0  0  0  0
   -0.5930    0.0208   -0.2004 C   0  0  0  0  0  0  0  0  0  0  0  0
   -1.2380   -0.8692    0.8245 C   0  0  0  0  0  0  0  0  0  0  0  0
   -1.0541    1.4472   -0.1088 C   0  0  0  0  0  0  0  0  0  0  0  0
    1.6998    1.2317    3.5293 H   0  0  0  0  0  0  0  0  0  0  0  0
    1.7571    0.1496   -2.1438 H   0  0  0  0  0  0  0  0  0  0  0  0
    0.6132    1.4713   -1.6354 H   0  0  0  0  0  0  0  0  0  0  0  0
   -0.4566   -0.9474   -2.2767 H   0  0  0  0  0  0  0  0  0  0  0  0
    0.2540   -2.1513    0.1079 H   0  0  0  0  0  0  0  0  0  0  0  0
    1.5537   -1.9543   -1.1647 H   0  0  0  0  0  0  0  0  0  0  0  0
   -1.6612   -1.8179    0.3849 H   0  0  0  0  0  0  0  0  0  0  0  0
   -2.1613   -0.4046    1.2924 H   0  0  0  0  0  0  0  0  0  0  0  0
   -0.5336   -1.1330    1.6028 H   0  0  0  0  0  0  0  0  0  0  0  0
   -1.5805    1.7956   -1.0652 H   0  0  0  0  0  0  0  0  0  0  0  0
   -0.3287    2.1595    0.2389 H   0  0  0  0  0  0  0  0  0  0  0  0
   -1.8471    1.4480    0.6842 H   0  0  0  0  0  0  0  0  0  0  0  0
  1  2  3  0
  2  3  1  0
  3  4  1  0
  4  5  1  0
  5  6  1  0
  5  7  1  0
  7  8  1  0
  7  9  1  0
  6  3  1  0
  7  3  1  0
  1 10  1  0
  4 11  1  0
  4 12  1  0
  5 13  1  0
  6 14  1  0
  6 15  1  0
  8 16  1  0
  8 17  1  0
  8 18  1  0
  9 19  1  0
  9 20  1  0
  9 21  1  0
M  END
