
     RDKit          3D

 15 16  0  0  0  0  0  0  0  0999 V2000
    1.3210    0.2199   -2.5744 C   0  0  0  0  0  0  0  0  0  0  0  0
    0.7029    0.2096   -1.5531 C   0  0  0  0  0  0  0  0  0  0  0  0
    0.0280    0.1813   -0.4071 C   0  0  0  0  0  0  0  0  0  0  0  0
   -1.3783   -0.3125   -0.2147 C   0  0  0  0  0  0  0  0  0  0  0  0
   -0.9056    0.1412    1.1548 C   0  0  0  0  0  0  0  0  0  0  0  0
   -0.3183    1.2846    0.4627 C   0  0  0  0  0  0  0  0  0  0  0  0
   -0.2552    2.4693    0.6642 O   0  0  0  0  0  0  0  0  0  0  0  0
    0.3690   -0.5931    0.8274 C   0  0  0  0  0  0  0  0  0  0  0  0
    1.4549   -0.1930    1.5510 O   0  0  0  0  0  0  0  0  0  0  0  0
    1.8883    0.2183   -3.4976 H   0  0  0  0  0  0  0  0  0  0  0  0
   -2.1342    0.3562   -0.6159 H   0  0  0  0  0  0  0  0  0  0  0  0
   -1.5075   -1.3900   -0.3337 H   0  0  0  0  0  0  0  0  0  0  0  0
   -1.4294    0.0992    2.0022 H   0  0  0  0  0  0  0  0  0  0  0  0
    0.2592   -1.6790    0.6315 H   0  0  0  0  0  0  0  0  0  0  0  0
    1.9052   -1.0121    1.9026 H   0  0  0  0  0  0  0  0  0  0  0  0
  1  2  3  0
  2  3  1  0
  3  4  1  0
  4  5  1  0
  5  6  1  0
  6  7  2  0
  5  8  1  0
  8  9  1  0
  6  3  1  0
  8  3  1  0
  1 10  1  0
  4 11  1  0
  4 12  1  0
  5 13  1  0
  8 14  1  0
  9 15  1  0
M  END
