
     RDKit          3D

 17 18  0  0  0  0  0  0  0  0999 V2000
    2.2404    1.1861    2.1171 C   0  0  0  0  0  0  0  0  0  0  0  0
    1.2663    0.6118    1.7644 C   0  0  0  0  0  0  0  0  0  0  0  0
    0.0615   -0.0730    1.3448 C   0  0  0  0  0  0  0  0  0  0  0  0
   -0.1948   -0.0733   -0.1559 C   0  0  0  0  0  0  0  0  0  0  0  0
   -0.3973   -1.3393   -0.6915 O   0  0  0  0  0  0  0  0  0  0  0  0
    0.3124   -1.4444   -1.8618 C   0  0  0  0  0  0  0  0  0  0  0  0
   -1.5124    0.6302    0.1447 C   0  0  0  0  0  0  0  0  0  0  0  0
   -2.3476    0.0885    1.1087 O   0  0  0  0  0  0  0  0  0  0  0  0
   -1.2025    0.7892    1.4551 C   0  0  0  0  0  0  0  0  0  0  0  0
    3.1228    1.7204    2.4252 H   0  0  0  0  0  0  0  0  0  0  0  0
   -0.0934   -1.0820    1.8129 H   0  0  0  0  0  0  0  0  0  0  0  0
    0.4711    0.5949   -0.7393 H   0  0  0  0  0  0  0  0  0  0  0  0
    0.1661   -2.4635   -2.3189 H   0  0  0  0  0  0  0  0  0  0  0  0
    1.3964   -1.2565   -1.6849 H   0  0  0  0  0  0  0  0  0  0  0  0
   -0.0396   -0.6817   -2.5856 H   0  0  0  0  0  0  0  0  0  0  0  0
   -2.0190    1.2023   -0.6281 H   0  0  0  0  0  0  0  0  0  0  0  0
   -1.2307    1.5903    2.1859 H   0  0  0  0  0  0  0  0  0  0  0  0
  1  2  3  0
  2  3  1  0
  3  4  1  0
  4  5  1  0
  5  6  1  0
  4  7  1  0
  7  8  1  0
  8  9  1  0
  9  3  1  0
  9  7  1  0
  1 10  1  0
  3 11  1  0
  4 12  1  0
  6 13  1  0
  6 14  1  0
  6 15  1  0
  7 16  1  0
  9 17  1  0
M  END
