
     RDKit          3D

 19 18  0  0  0  0  0  0  0  0999 V2000
    3.3386   -1.1911   -0.5264 C   0  0  0  0  0  0  0  0  0  0  0  0
    2.3719   -0.2028   -0.4530 C   0  0  0  0  0  0  0  0  0  0  0  0
    1.5535    0.6070   -0.3845 C   0  0  0  0  0  0  0  0  0  0  0  0
   -0.0108    0.1752   -0.9048 C   0  0  0  0  0  0  0  0  0  0  0  0
   -0.5902    1.3395   -0.9557 C   0  0  0  0  0  0  0  0  0  0  0  0
   -1.1224    2.4428   -0.9967 C   0  0  0  0  0  0  0  0  0  0  0  0
   -0.3661   -0.4363    0.5196 C   0  0  0  0  0  0  0  0  0  0  0  0
   -1.6907   -0.9113    0.7290 C   0  0  0  0  0  0  0  0  0  0  0  0
   -1.7203   -1.5949    2.0030 O   0  0  0  0  0  0  0  0  0  0  0  0
    4.2734   -2.1243   -0.5882 H   0  0  0  0  0  0  0  0  0  0  0  0
    1.2096    0.6301    0.9043 H   0  0  0  0  0  0  0  0  0  0  0  0
    1.6863    1.7734   -0.5558 H   0  0  0  0  0  0  0  0  0  0  0  0
    0.1674   -0.5834   -1.5072 H   0  0  0  0  0  0  0  0  0  0  0  0
   -1.7623    3.7120   -1.0451 H   0  0  0  0  0  0  0  0  0  0  0  0
    0.4104   -0.7045    1.1716 H   0  0  0  0  0  0  0  0  0  0  0  0
   -0.5030    0.7253    1.0288 H   0  0  0  0  0  0  0  0  0  0  0  0
   -2.4634   -0.0086    1.0713 H   0  0  0  0  0  0  0  0  0  0  0  0
   -2.2854   -1.4130   -0.0202 H   0  0  0  0  0  0  0  0  0  0  0  0
   -2.4965   -2.2351    1.9245 H   0  0  0  0  0  0  0  0  0  0  0  0
  1  2  3  0
  2  3  1  0
  3  4  1  0
  4  5  1  0
  5  6  3  0
  4  7  1  0
  7  8  1  0
  8  9  1  0
  1 10  1  0
  3 11  1  0
  3 12  1  0
  4 13  1  0
  6 14  1  0
  7 15  1  0
  7 16  1  0
  8 17  1  0
  8 18  1  0
  9 19  1  0
M  END
