
     RDKit          3D

 17 17  0  0  0  0  0  0  0  0999 V2000
    1.7618   -1.9791    1.4664 C   0  0  0  0  0  0  0  0  0  0  0  0
    1.5137   -1.1965    0.5755 C   0  0  0  0  0  0  0  0  0  0  0  0
    1.2031   -0.2489   -0.5167 C   0  0  0  0  0  0  0  0  0  0  0  0
    0.2115   -0.7419   -1.3365 O   0  0  0  0  0  0  0  0  0  0  0  0
   -1.0318   -0.7787   -0.7348 C   0  0  0  0  0  0  0  0  0  0  0  0
   -1.5309    0.5716   -0.3201 C   0  0  0  0  0  0  0  0  0  0  0  0
   -0.5034    1.4456    0.3135 C   0  0  0  0  0  0  0  0  0  0  0  0
    0.8908    1.0845    0.0263 C   0  0  0  0  0  0  0  0  0  0  0  0
    1.7681    1.8869    0.2391 O   0  0  0  0  0  0  0  0  0  0  0  0
    1.9853   -2.6525    2.2526 H   0  0  0  0  0  0  0  0  0  0  0  0
    2.1403   -0.2160   -1.1359 H   0  0  0  0  0  0  0  0  0  0  0  0
   -1.7448   -1.1622   -1.5189 H   0  0  0  0  0  0  0  0  0  0  0  0
   -1.0627   -1.5378    0.0735 H   0  0  0  0  0  0  0  0  0  0  0  0
   -2.3348    0.3917    0.4531 H   0  0  0  0  0  0  0  0  0  0  0  0
   -1.9714    1.0906   -1.2015 H   0  0  0  0  0  0  0  0  0  0  0  0
   -0.6416    2.5037   -0.0591 H   0  0  0  0  0  0  0  0  0  0  0  0
   -0.6533    1.5392    1.4236 H   0  0  0  0  0  0  0  0  0  0  0  0
  1  2  3  0
  2  3  1  0
  3  4  1  0
  4  5  1  0
  5  6  1  0
  6  7  1  0
  7  8  1  0
  8  9  2  0
  8  3  1  0
  1 10  1  0
  3 11  1  0
  5 12  1  0
  5 13  1  0
  6 14  1  0
  6 15  1  0
  7 16  1  0
  7 17  1  0
M  END
