
     RDKit          3D

 19 19  0  0  0  0  0  0  0  0999 V2000
   -2.1410    2.2322    2.8166 C   0  0  0  0  0  0  0  0  0  0  0  0
   -1.6444    1.2555    2.3100 C   0  0  0  0  0  0  0  0  0  0  0  0
   -1.0193    0.0808    1.6989 C   0  0  0  0  0  0  0  0  0  0  0  0
    0.2971   -0.3401    2.2526 C   0  0  0  0  0  0  0  0  0  0  0  0
    0.2525    0.2719    0.8825 C   0  0  0  0  0  0  0  0  0  0  0  0
    0.4018   -0.5760   -0.1666 O   0  0  0  0  0  0  0  0  0  0  0  0
    0.8398   -0.0151   -1.3401 C   0  0  0  0  0  0  0  0  0  0  0  0
    0.9910   -0.9885   -2.4733 C   0  0  0  0  0  0  0  0  0  0  0  0
   -0.2193   -1.6116   -2.7787 O   0  0  0  0  0  0  0  0  0  0  0  0
   -2.5731    3.0834    3.2780 H   0  0  0  0  0  0  0  0  0  0  0  0
   -1.7479   -0.6795    1.3572 H   0  0  0  0  0  0  0  0  0  0  0  0
    0.4686   -1.4222    2.3194 H   0  0  0  0  0  0  0  0  0  0  0  0
    0.8032    0.2441    3.0308 H   0  0  0  0  0  0  0  0  0  0  0  0
    0.4890    1.3376    0.7258 H   0  0  0  0  0  0  0  0  0  0  0  0
    0.0869    0.7398   -1.6570 H   0  0  0  0  0  0  0  0  0  0  0  0
    1.7985    0.5171   -1.1701 H   0  0  0  0  0  0  0  0  0  0  0  0
    1.3167   -0.4375   -3.3798 H   0  0  0  0  0  0  0  0  0  0  0  0
    1.7319   -1.7781   -2.2974 H   0  0  0  0  0  0  0  0  0  0  0  0
   -0.1321   -1.9137   -3.7322 H   0  0  0  0  0  0  0  0  0  0  0  0
  1  2  3  0
  2  3  1  0
  3  4  1  0
  4  5  1  0
  5  6  1  0
  6  7  1  0
  7  8  1  0
  8  9  1  0
  5  3  1  0
  1 10  1  0
  3 11  1  0
  4 12  1  0
  4 13  1  0
  5 14  1  0
  7 15  1  0
  7 16  1  0
  8 17  1  0
  8 18  1  0
  9 19  1  0
M  END
