
     RDKit          3D

 17 16  0  0  0  0  0  0  0  0999 V2000
    1.0980   -0.6775    2.6346 C   0  0  0  0  0  0  0  0  0  0  0  0
    0.9196   -0.4065    1.6907 C   0  0  0  0  0  0  0  0  0  0  0  0
    0.6506   -0.0383    0.3382 C   0  0  0  0  0  0  0  0  0  0  0  0
    0.9926    1.4499    0.0800 C   0  0  0  0  0  0  0  0  0  0  0  0
    1.2525    2.5304   -0.1239 C   0  0  0  0  0  0  0  0  0  0  0  0
   -0.0807   -0.6126   -0.7051 C   0  0  0  0  0  0  0  0  0  0  0  0
   -0.0214    0.3314   -1.8410 O   0  0  0  0  0  0  0  0  0  0  0  0
   -1.4627   -1.0407   -0.5760 C   0  0  0  0  0  0  0  0  0  0  0  0
   -2.3318    0.0349   -0.3285 O   0  0  0  0  0  0  0  0  0  0  0  0
    1.3199   -0.9869    3.7876 H   0  0  0  0  0  0  0  0  0  0  0  0
    1.8331   -0.4151   -0.1194 H   0  0  0  0  0  0  0  0  0  0  0  0
    1.5097    3.5802   -0.3106 H   0  0  0  0  0  0  0  0  0  0  0  0
    0.5710   -1.4735   -1.1945 H   0  0  0  0  0  0  0  0  0  0  0  0
   -0.9555    0.4432   -2.1622 H   0  0  0  0  0  0  0  0  0  0  0  0
   -1.8019   -1.5245   -1.5710 H   0  0  0  0  0  0  0  0  0  0  0  0
   -1.6721   -1.8621    0.1510 H   0  0  0  0  0  0  0  0  0  0  0  0
   -1.8208    0.6676    0.2502 H   0  0  0  0  0  0  0  0  0  0  0  0
  1  2  3  0
  2  3  1  0
  3  4  1  0
  4  5  3  0
  3  6  1  0
  6  7  1  0
  6  8  1  0
  8  9  1  0
  1 10  1  0
  3 11  1  0
  5 12  1  0
  6 13  1  0
  7 14  1  0
  8 15  1  0
  8 16  1  0
  9 17  1  0
M  END
