
     RDKit          3D

 17 17  0  0  0  0  0  0  0  0999 V2000
   -2.8850    0.5433   -0.0625 C   0  0  0  0  0  0  0  0  0  0  0  0
   -2.0386   -0.3039   -0.2475 C   0  0  0  0  0  0  0  0  0  0  0  0
   -0.9962   -1.3151   -0.4614 C   0  0  0  0  0  0  0  0  0  0  0  0
    0.3140   -0.8053    0.1471 C   0  0  0  0  0  0  0  0  0  0  0  0
    0.2781   -0.6103    1.6088 C   0  0  0  0  0  0  0  0  0  0  0  0
   -0.9251   -0.5409    2.0399 O   0  0  0  0  0  0  0  0  0  0  0  0
    1.4432   -0.9951   -0.5856 O   0  0  0  0  0  0  0  0  0  0  0  0
    0.8895    0.3804   -0.5770 C   0  0  0  0  0  0  0  0  0  0  0  0
    1.8733    1.2822    0.0878 C   0  0  0  0  0  0  0  0  0  0  0  0
   -3.6487    1.3085    0.1240 H   0  0  0  0  0  0  0  0  0  0  0  0
   -1.2727   -2.2242    0.0845 H   0  0  0  0  0  0  0  0  0  0  0  0
   -0.8946   -1.5786   -1.5177 H   0  0  0  0  0  0  0  0  0  0  0  0
    1.0342   -0.5301    2.2809 H   0  0  0  0  0  0  0  0  0  0  0  0
    0.3970    0.7012   -1.4867 H   0  0  0  0  0  0  0  0  0  0  0  0
    2.7630    1.4838   -0.5428 H   0  0  0  0  0  0  0  0  0  0  0  0
    2.2263    0.8868    1.0559 H   0  0  0  0  0  0  0  0  0  0  0  0
    1.4422    2.3173    0.2652 H   0  0  0  0  0  0  0  0  0  0  0  0
  1  2  3  0
  2  3  1  0
  3  4  1  0
  4  5  1  0
  5  6  2  0
  4  7  1  0
  7  8  1  0
  8  9  1  0
  8  4  1  0
  1 10  1  0
  3 11  1  0
  3 12  1  0
  5 13  1  0
  8 14  1  0
  9 15  1  0
  9 16  1  0
  9 17  1  0
M  END
