
     RDKit          3D

 21 21  0  0  0  0  0  0  0  0999 V2000
   -1.3886    2.0316   -1.3659 C   0  0  0  0  0  0  0  0  0  0  0  0
   -1.1953    1.1814   -0.5158 C   0  0  0  0  0  0  0  0  0  0  0  0
   -0.9582    0.1379    0.4920 C   0  0  0  0  0  0  0  0  0  0  0  0
   -1.9689    0.2430    1.5971 C   0  0  0  0  0  0  0  0  0  0  0  0
    0.4607    0.2943    0.9562 C   0  0  0  0  0  0  0  0  0  0  0  0
    1.2058   -0.7499    0.1946 C   0  0  0  0  0  0  0  0  0  0  0  0
    2.2171   -0.1913   -0.7724 C   0  0  0  0  0  0  0  0  0  0  0  0
    0.1531   -1.4675   -0.6006 C   0  0  0  0  0  0  0  0  0  0  0  0
   -1.0790   -1.1102   -0.0857 O   0  0  0  0  0  0  0  0  0  0  0  0
   -1.5656    2.7847   -2.0955 H   0  0  0  0  0  0  0  0  0  0  0  0
   -2.9265    0.7117    1.2289 H   0  0  0  0  0  0  0  0  0  0  0  0
   -2.2626   -0.7235    2.0330 H   0  0  0  0  0  0  0  0  0  0  0  0
   -1.5687    0.9238    2.4008 H   0  0  0  0  0  0  0  0  0  0  0  0
    0.8171    1.3215    0.7944 H   0  0  0  0  0  0  0  0  0  0  0  0
    0.4997    0.0961    2.0467 H   0  0  0  0  0  0  0  0  0  0  0  0
    1.7224   -1.4414    0.8636 H   0  0  0  0  0  0  0  0  0  0  0  0
    2.6459   -1.0468   -1.3352 H   0  0  0  0  0  0  0  0  0  0  0  0
    1.7091    0.4473   -1.5469 H   0  0  0  0  0  0  0  0  0  0  0  0
    3.0329    0.3574   -0.3064 H   0  0  0  0  0  0  0  0  0  0  0  0
    0.2383   -2.5681   -0.4939 H   0  0  0  0  0  0  0  0  0  0  0  0
    0.2112   -1.2320   -1.6950 H   0  0  0  0  0  0  0  0  0  0  0  0
  1  2  3  0
  2  3  1  0
  3  4  1  0
  3  5  1  0
  5  6  1  0
  6  7  1  0
  6  8  1  0
  8  9  1  0
  9  3  1  0
  1 10  1  0
  4 11  1  0
  4 12  1  0
  4 13  1  0
  5 14  1  0
  5 15  1  0
  6 16  1  0
  7 17  1  0
  7 18  1  0
  7 19  1  0
  8 20  1  0
  8 21  1  0
M  END
