
     RDKit          3D

 16 16  0  0  0  0  0  0  0  0999 V2000
    3.2727   -0.6430   -0.9320 C   0  0  0  0  0  0  0  0  0  0  0  0
    2.2474   -0.3957   -0.3555 C   0  0  0  0  0  0  0  0  0  0  0  0
    1.0305   -0.0770    0.3353 C   0  0  0  0  0  0  0  0  0  0  0  0
    0.5007    1.2807   -0.1070 C   0  0  0  0  0  0  0  0  0  0  0  0
   -0.8763    1.0889   -0.3093 O   0  0  0  0  0  0  0  0  0  0  0  0
   -1.1203   -0.0991    0.3641 C   0  0  0  0  0  0  0  0  0  0  0  0
   -2.4435   -0.6599   -0.0971 C   0  0  0  0  0  0  0  0  0  0  0  0
   -0.0465   -0.9029   -0.0189 O   0  0  0  0  0  0  0  0  0  0  0  0
    4.1743   -0.8616   -1.4599 H   0  0  0  0  0  0  0  0  0  0  0  0
    1.1522   -0.0864    1.4259 H   0  0  0  0  0  0  0  0  0  0  0  0
    1.0215    1.5723   -1.0271 H   0  0  0  0  0  0  0  0  0  0  0  0
    0.6061    2.0449    0.6884 H   0  0  0  0  0  0  0  0  0  0  0  0
   -1.0997   -0.0144    1.4499 H   0  0  0  0  0  0  0  0  0  0  0  0
   -2.6292   -1.6777    0.2651 H   0  0  0  0  0  0  0  0  0  0  0  0
   -2.5566   -0.5606   -1.2001 H   0  0  0  0  0  0  0  0  0  0  0  0
   -3.2331   -0.0084    0.3455 H   0  0  0  0  0  0  0  0  0  0  0  0
  1  2  3  0
  2  3  1  0
  3  4  1  0
  4  5  1  0
  5  6  1  0
  6  7  1  0
  6  8  1  0
  8  3  1  0
  1  9  1  0
  3 10  1  0
  4 11  1  0
  4 12  1  0
  6 13  1  0
  7 14  1  0
  7 15  1  0
  7 16  1  0
M  END
