
     RDKit          3D

 23 23  0  0  0  0  0  0  0  0999 V2000
   -2.6984    2.4514    0.5890 C   0  0  0  0  0  0  0  0  0  0  0  0
   -2.0871    1.4738    0.2338 C   0  0  0  0  0  0  0  0  0  0  0  0
   -1.3436    0.2807   -0.1729 C   0  0  0  0  0  0  0  0  0  0  0  0
   -0.7833   -0.6231    0.9303 C   0  0  0  0  0  0  0  0  0  0  0  0
   -0.9972   -2.0813    0.7045 C   0  0  0  0  0  0  0  0  0  0  0  0
    0.1207    0.1887    0.1289 C   0  0  0  0  0  0  0  0  0  0  0  0
    0.7040    1.4673    0.6983 C   0  0  0  0  0  0  0  0  0  0  0  0
    1.0407   -0.5051   -0.8470 C   0  0  0  0  0  0  0  0  0  0  0  0
    2.4741   -0.4920   -0.3622 C   0  0  0  0  0  0  0  0  0  0  0  0
   -3.2326    3.3161    0.8903 H   0  0  0  0  0  0  0  0  0  0  0  0
   -1.6977   -0.1980   -1.1030 H   0  0  0  0  0  0  0  0  0  0  0  0
   -0.9596   -0.2709    1.9831 H   0  0  0  0  0  0  0  0  0  0  0  0
   -0.1220   -2.7118    0.9507 H   0  0  0  0  0  0  0  0  0  0  0  0
   -1.3226   -2.3207   -0.3432 H   0  0  0  0  0  0  0  0  0  0  0  0
   -1.8441   -2.4322    1.3494 H   0  0  0  0  0  0  0  0  0  0  0  0
   -0.0740    1.9618    1.3295 H   0  0  0  0  0  0  0  0  0  0  0  0
    0.8385    2.1563   -0.1845 H   0  0  0  0  0  0  0  0  0  0  0  0
    1.6465    1.3084    1.2378 H   0  0  0  0  0  0  0  0  0  0  0  0
    0.7316   -1.5659   -0.9076 H   0  0  0  0  0  0  0  0  0  0  0  0
    1.0424   -0.0071   -1.8422 H   0  0  0  0  0  0  0  0  0  0  0  0
    2.9709    0.4730   -0.6453 H   0  0  0  0  0  0  0  0  0  0  0  0
    2.5264   -0.5684    0.7593 H   0  0  0  0  0  0  0  0  0  0  0  0
    3.0666   -1.3011   -0.8366 H   0  0  0  0  0  0  0  0  0  0  0  0
  1  2  3  0
  2  3  1  0
  3  4  1  0
  4  5  1  0
  4  6  1  0
  6  7  1  0
  6  8  1  0
  8  9  1  0
  6  3  1  0
  1 10  1  0
  3 11  1  0
  4 12  1  0
  5 13  1  0
  5 14  1  0
  5 15  1  0
  7 16  1  0
  7 17  1  0
  7 18  1  0
  8 19  1  0
  8 20  1  0
  9 21  1  0
  9 22  1  0
  9 23  1  0
M  END
