
     RDKit          3D

 19 19  0  0  0  0  0  0  0  0999 V2000
   -0.6506    2.6953    1.5733 C   0  0  0  0  0  0  0  0  0  0  0  0
   -1.1404    1.6158    1.2572 C   0  0  0  0  0  0  0  0  0  0  0  0
   -1.7045    0.3242    0.8650 C   0  0  0  0  0  0  0  0  0  0  0  0
   -1.8055    0.0478   -0.6306 C   0  0  0  0  0  0  0  0  0  0  0  0
   -0.7879   -0.6371    0.2100 C   0  0  0  0  0  0  0  0  0  0  0  0
   -1.0521   -1.9835    0.4631 O   0  0  0  0  0  0  0  0  0  0  0  0
    0.6781   -0.2492    0.0111 C   0  0  0  0  0  0  0  0  0  0  0  0
    1.1506   -0.9633   -1.0744 O   0  0  0  0  0  0  0  0  0  0  0  0
    2.4693   -0.7051   -1.3635 C   0  0  0  0  0  0  0  0  0  0  0  0
   -0.2426    3.6289    1.8571 H   0  0  0  0  0  0  0  0  0  0  0  0
   -2.5141   -0.0378    1.5142 H   0  0  0  0  0  0  0  0  0  0  0  0
   -2.7340   -0.4561   -0.9354 H   0  0  0  0  0  0  0  0  0  0  0  0
   -1.5359    0.8993   -1.2767 H   0  0  0  0  0  0  0  0  0  0  0  0
   -0.5227   -2.5926   -0.1069 H   0  0  0  0  0  0  0  0  0  0  0  0
    0.6938    0.8359   -0.2442 H   0  0  0  0  0  0  0  0  0  0  0  0
    1.2407   -0.4239    0.9344 H   0  0  0  0  0  0  0  0  0  0  0  0
    2.7453   -1.3264   -2.2463 H   0  0  0  0  0  0  0  0  0  0  0  0
    3.1021   -1.0490   -0.5247 H   0  0  0  0  0  0  0  0  0  0  0  0
    2.6105    0.3769   -1.5651 H   0  0  0  0  0  0  0  0  0  0  0  0
  1  2  3  0
  2  3  1  0
  3  4  1  0
  4  5  1  0
  5  6  1  0
  5  7  1  0
  7  8  1  0
  8  9  1  0
  5  3  1  0
  1 10  1  0
  3 11  1  0
  4 12  1  0
  4 13  1  0
  6 14  1  0
  7 15  1  0
  7 16  1  0
  9 17  1  0
  9 18  1  0
  9 19  1  0
M  END
