
     RDKit          3D

 17 19  0  0  0  0  0  0  0  0999 V2000
    2.9929    0.7136   -0.7336 C   0  0  0  0  0  0  0  0  0  0  0  0
    1.8816    0.2003   -0.7099 C   0  0  0  0  0  0  0  0  0  0  0  0
    0.5553   -0.4387   -0.6905 C   0  0  0  0  0  0  0  0  0  0  0  0
   -0.3800   -0.1933   -1.8030 C   0  0  0  0  0  0  0  0  0  0  0  0
   -0.6138    0.5604   -0.5780 C   0  0  0  0  0  0  0  0  0  0  0  0
   -0.9671   -0.1238    0.7085 C   0  0  0  0  0  0  0  0  0  0  0  0
   -1.4406    0.4601    1.8423 C   0  0  0  0  0  0  0  0  0  0  0  0
   -2.2617   -0.4502    1.0399 O   0  0  0  0  0  0  0  0  0  0  0  0
    0.1061   -1.1576    0.5411 C   0  0  0  0  0  0  0  0  0  0  0  0
    3.9308    1.1602   -0.7401 H   0  0  0  0  0  0  0  0  0  0  0  0
    0.0440    0.3800   -2.6585 H   0  0  0  0  0  0  0  0  0  0  0  0
   -0.9667   -1.0676   -2.1459 H   0  0  0  0  0  0  0  0  0  0  0  0
   -0.3673    1.6177   -0.4790 H   0  0  0  0  0  0  0  0  0  0  0  0
   -1.2185    0.1047    2.8660 H   0  0  0  0  0  0  0  0  0  0  0  0
   -1.8367    1.5210    1.8450 H   0  0  0  0  0  0  0  0  0  0  0  0
   -0.2816   -2.1721    0.2961 H   0  0  0  0  0  0  0  0  0  0  0  0
    0.8235   -1.1150    1.3997 H   0  0  0  0  0  0  0  0  0  0  0  0
  1  2  3  0
  2  3  1  0
  3  4  1  0
  4  5  1  0
  5  6  1  0
  6  7  1  0
  7  8  1  0
  6  9  1  0
  5  3  1  0
  8  6  1  0
  9  3  1  0
  1 10  1  0
  4 11  1  0
  4 12  1  0
  5 13  1  0
  7 14  1  0
  7 15  1  0
  9 16  1  0
  9 17  1  0
M  END
