
     RDKit          3D

 18 17  0  0  0  0  0  0  0  0999 V2000
   -2.5411    2.2841   -1.6229 C   0  0  0  0  0  0  0  0  0  0  0  0
   -1.9107    1.9453   -0.6270 C   0  0  0  0  0  0  0  0  0  0  0  0
   -1.1422    1.5476    0.5503 C   0  0  0  0  0  0  0  0  0  0  0  0
   -0.0995    0.6051    0.1264 C   0  0  0  0  0  0  0  0  0  0  0  0
    0.9417    1.0101   -0.3289 O   0  0  0  0  0  0  0  0  0  0  0  0
   -0.2946   -0.8538    0.2437 C   0  0  0  0  0  0  0  0  0  0  0  0
    0.9336   -1.6011   -0.2640 C   0  0  0  0  0  0  0  0  0  0  0  0
    2.1619   -1.2472    0.5102 C   0  0  0  0  0  0  0  0  0  0  0  0
   -3.0837    2.5700   -2.5058 H   0  0  0  0  0  0  0  0  0  0  0  0
   -1.8686    1.0951    1.2717 H   0  0  0  0  0  0  0  0  0  0  0  0
   -0.6616    2.4304    1.0626 H   0  0  0  0  0  0  0  0  0  0  0  0
   -0.4961   -1.1414    1.3003 H   0  0  0  0  0  0  0  0  0  0  0  0
   -1.1185   -1.1392   -0.4419 H   0  0  0  0  0  0  0  0  0  0  0  0
    0.7282   -2.6755   -0.2094 H   0  0  0  0  0  0  0  0  0  0  0  0
    1.0348   -1.3091   -1.3473 H   0  0  0  0  0  0  0  0  0  0  0  0
    1.9220   -0.5478    1.3541 H   0  0  0  0  0  0  0  0  0  0  0  0
    2.9157   -0.7912   -0.1536 H   0  0  0  0  0  0  0  0  0  0  0  0
    2.5787   -2.1814    0.9807 H   0  0  0  0  0  0  0  0  0  0  0  0
  1  2  3  0
  2  3  1  0
  3  4  1  0
  4  5  2  0
  4  6  1  0
  6  7  1  0
  7  8  1  0
  1  9  1  0
  3 10  1  0
  3 11  1  0
  6 12  1  0
  6 13  1  0
  7 14  1  0
  7 15  1  0
  8 16  1  0
  8 17  1  0
  8 18  1  0
M  END
