
     RDKit          3D

 19 19  0  0  0  0  0  0  0  0999 V2000
   -1.5524    2.6882   -0.3449 C   0  0  0  0  0  0  0  0  0  0  0  0
   -1.0532    1.6151   -0.0843 C   0  0  0  0  0  0  0  0  0  0  0  0
   -0.4493    0.2914    0.2604 C   0  0  0  0  0  0  0  0  0  0  0  0
   -0.9883   -0.1446    1.5668 C   0  0  0  0  0  0  0  0  0  0  0  0
   -1.0116   -0.6175   -0.8074 C   0  0  0  0  0  0  0  0  0  0  0  0
   -1.4522   -1.3548   -1.6425 C   0  0  0  0  0  0  0  0  0  0  0  0
    1.0346    0.3222    0.1297 C   0  0  0  0  0  0  0  0  0  0  0  0
    1.8667   -0.8725    0.4068 C   0  0  0  0  0  0  0  0  0  0  0  0
    1.6516   -0.4237   -1.0285 C   0  0  0  0  0  0  0  0  0  0  0  0
   -2.0006    3.6218   -0.5592 H   0  0  0  0  0  0  0  0  0  0  0  0
   -1.4972   -1.1587    1.5283 H   0  0  0  0  0  0  0  0  0  0  0  0
   -0.2210   -0.1498    2.3811 H   0  0  0  0  0  0  0  0  0  0  0  0
   -1.7933    0.5436    1.8880 H   0  0  0  0  0  0  0  0  0  0  0  0
   -1.8237   -2.0040   -2.3781 H   0  0  0  0  0  0  0  0  0  0  0  0
    1.5152    1.3184    0.3174 H   0  0  0  0  0  0  0  0  0  0  0  0
    2.8859   -0.7230    0.7791 H   0  0  0  0  0  0  0  0  0  0  0  0
    1.3962   -1.8160    0.7676 H   0  0  0  0  0  0  0  0  0  0  0  0
    0.9787   -1.1048   -1.6078 H   0  0  0  0  0  0  0  0  0  0  0  0
    2.5139   -0.0311   -1.5724 H   0  0  0  0  0  0  0  0  0  0  0  0
  1  2  3  0
  2  3  1  0
  3  4  1  0
  3  5  1  0
  5  6  3  0
  3  7  1  0
  7  8  1  0
  8  9  1  0
  9  7  1  0
  1 10  1  0
  4 11  1  0
  4 12  1  0
  4 13  1  0
  6 14  1  0
  7 15  1  0
  8 16  1  0
  8 17  1  0
  9 18  1  0
  9 19  1  0
M  END
