
     RDKit          3D

 17 18  0  0  0  0  0  0  0  0999 V2000
   -3.4869    0.7477   -0.7921 C   0  0  0  0  0  0  0  0  0  0  0  0
   -2.3170    0.5026   -0.9031 C   0  0  0  0  0  0  0  0  0  0  0  0
   -0.9111    0.2178   -1.0132 C   0  0  0  0  0  0  0  0  0  0  0  0
   -0.4061   -0.8952   -0.1421 C   0  0  0  0  0  0  0  0  0  0  0  0
   -0.5986   -0.0431    0.9319 O   0  0  0  0  0  0  0  0  0  0  0  0
   -0.0146    0.8107    0.0221 C   0  0  0  0  0  0  0  0  0  0  0  0
    0.9422   -0.3029   -0.3034 C   0  0  0  0  0  0  0  0  0  0  0  0
    1.9727   -0.6177    0.7394 C   0  0  0  0  0  0  0  0  0  0  0  0
    1.5711   -0.1938    1.9983 O   0  0  0  0  0  0  0  0  0  0  0  0
   -4.5151    0.9662   -0.6763 H   0  0  0  0  0  0  0  0  0  0  0  0
   -0.4492    0.2188   -1.9946 H   0  0  0  0  0  0  0  0  0  0  0  0
   -0.6761   -1.8669   -0.1984 H   0  0  0  0  0  0  0  0  0  0  0  0
    0.2212    1.7818    0.1472 H   0  0  0  0  0  0  0  0  0  0  0  0
    1.3192   -0.2995   -1.3208 H   0  0  0  0  0  0  0  0  0  0  0  0
    2.1333   -1.7135    0.7287 H   0  0  0  0  0  0  0  0  0  0  0  0
    2.9298   -0.1504    0.4272 H   0  0  0  0  0  0  0  0  0  0  0  0
    2.2853    0.3886    2.3493 H   0  0  0  0  0  0  0  0  0  0  0  0
  1  2  3  0
  2  3  1  0
  3  4  1  0
  4  5  1  0
  5  6  1  0
  6  7  1  0
  7  8  1  0
  8  9  1  0
  6  3  1  0
  7  4  1  0
  1 10  1  0
  3 11  1  0
  4 12  1  0
  6 13  1  0
  7 14  1  0
  8 15  1  0
  8 16  1  0
  9 17  1  0
M  END
