
     RDKit          3D

 17 18  0  0  0  0  0  0  0  0999 V2000
    2.4822   -1.5059   -0.4124 C   0  0  0  0  0  0  0  0  0  0  0  0
    1.4159   -0.4982   -0.0943 C   0  0  0  0  0  0  0  0  0  0  0  0
    0.6382    0.2377    0.1570 C   0  0  0  0  0  0  0  0  0  0  0  0
    0.8765    1.7397   -0.2408 C   0  0  0  0  0  0  0  0  0  0  0  0
    1.1076    3.1017   -0.5843 C   0  0  0  0  0  0  0  0  0  0  0  0
   -0.3243    0.0940    1.3339 C   0  0  0  0  0  0  0  0  0  0  0  0
   -0.8730   -1.0891    0.4335 C   0  0  0  0  0  0  0  0  0  0  0  0
   -1.8513   -0.9788   -0.5078 C   0  0  0  0  0  0  0  0  0  0  0  0
   -0.8340    0.0667   -0.6265 C   0  0  0  0  0  0  0  0  0  0  0  0
    3.3077   -2.2620   -0.6467 H   0  0  0  0  0  0  0  0  0  0  0  0
    1.2461    3.8940   -0.7980 H   0  0  0  0  0  0  0  0  0  0  0  0
   -1.1290    0.7951    1.4208 H   0  0  0  0  0  0  0  0  0  0  0  0
    0.1282   -0.3488    2.1889 H   0  0  0  0  0  0  0  0  0  0  0  0
    0.0159   -1.8727    0.2916 H   0  0  0  0  0  0  0  0  0  0  0  0
   -2.9293   -0.6754   -0.3637 H   0  0  0  0  0  0  0  0  0  0  0  0
   -1.8837   -1.7465   -1.3938 H   0  0  0  0  0  0  0  0  0  0  0  0
   -1.3935    1.0484   -0.1574 H   0  0  0  0  0  0  0  0  0  0  0  0
  1  2  3  0
  2  3  1  0
  3  4  1  0
  4  5  3  0
  3  6  1  0
  6  7  1  0
  7  8  1  0
  8  9  1  0
  9  3  1  0
  9  7  1  0
  1 10  1  0
  5 11  1  0
  6 12  1  0
  6 13  1  0
  7 14  1  0
  8 15  1  0
  8 16  1  0
  9 17  1  0
M  END
