
     RDKit          3D

 23 23  0  0  0  0  0  0  0  0999 V2000
   -0.1200    2.5556    0.1794 C   0  0  0  0  0  0  0  0  0  0  0  0
   -0.0187    1.6705   -0.3806 C   0  0  0  0  0  0  0  0  0  0  0  0
    0.0920    0.5482   -1.0710 C   0  0  0  0  0  0  0  0  0  0  0  0
    1.5074   -0.0657   -0.9158 C   0  0  0  0  0  0  0  0  0  0  0  0
    1.6471   -0.7910    0.3704 C   0  0  0  0  0  0  0  0  0  0  0  0
    0.7946   -0.2326    1.4799 C   0  0  0  0  0  0  0  0  0  0  0  0
   -0.6549   -0.2399    1.0858 C   0  0  0  0  0  0  0  0  0  0  0  0
   -0.7341   -0.6307   -0.3813 C   0  0  0  0  0  0  0  0  0  0  0  0
   -2.1048   -0.7379   -0.8827 C   0  0  0  0  0  0  0  0  0  0  0  0
   -0.2329    3.7556    0.9326 H   0  0  0  0  0  0  0  0  0  0  0  0
   -0.2033    0.5081   -2.1518 H   0  0  0  0  0  0  0  0  0  0  0  0
    2.1178    0.9033   -0.8329 H   0  0  0  0  0  0  0  0  0  0  0  0
    1.7452   -0.5613   -1.8169 H   0  0  0  0  0  0  0  0  0  0  0  0
    2.7031   -0.6435    0.7481 H   0  0  0  0  0  0  0  0  0  0  0  0
    1.5009   -1.8581    0.2612 H   0  0  0  0  0  0  0  0  0  0  0  0
    1.1203    0.7577    1.7226 H   0  0  0  0  0  0  0  0  0  0  0  0
    0.8578   -0.8114    2.3946 H   0  0  0  0  0  0  0  0  0  0  0  0
   -1.2319   -0.9848    1.7069 H   0  0  0  0  0  0  0  0  0  0  0  0
   -1.1407    0.7055    1.2998 H   0  0  0  0  0  0  0  0  0  0  0  0
   -0.2010   -1.5553   -0.5372 H   0  0  0  0  0  0  0  0  0  0  0  0
   -2.4872   -1.7884   -0.7650 H   0  0  0  0  0  0  0  0  0  0  0  0
   -2.1202   -0.5100   -1.9857 H   0  0  0  0  0  0  0  0  0  0  0  0
   -2.8365    0.0062   -0.4604 H   0  0  0  0  0  0  0  0  0  0  0  0
  1  2  3  0
  2  3  1  0
  3  4  1  0
  4  5  1  0
  5  6  1  0
  6  7  1  0
  7  8  1  0
  8  9  1  0
  8  3  1  0
  1 10  1  0
  3 11  1  0
  4 12  1  0
  4 13  1  0
  5 14  1  0
  5 15  1  0
  6 16  1  0
  6 17  1  0
  7 18  1  0
  7 19  1  0
  8 20  1  0
  9 21  1  0
  9 22  1  0
  9 23  1  0
M  END
