
     RDKit          3D

 14 14  0  0  0  0  0  0  0  0999 V2000
    2.8367    0.2654    0.0797 C   0  0  0  0  0  0  0  0  0  0  0  0
    1.7491    0.1763    0.4955 C   0  0  0  0  0  0  0  0  0  0  0  0
    0.3553    0.0363    1.0333 C   0  0  0  0  0  0  0  0  0  0  0  0
   -0.5289   -0.4870   -0.0229 C   0  0  0  0  0  0  0  0  0  0  0  0
   -0.7165    0.2288   -1.3021 C   0  0  0  0  0  0  0  0  0  0  0  0
   -1.9499    0.8138   -0.8845 O   0  0  0  0  0  0  0  0  0  0  0  0
   -1.9423   -0.0197    0.2135 C   0  0  0  0  0  0  0  0  0  0  0  0
   -2.8084   -0.2801    1.0815 O   0  0  0  0  0  0  0  0  0  0  0  0
    3.8384    0.3527   -0.3121 H   0  0  0  0  0  0  0  0  0  0  0  0
    0.0413    0.9124    1.5876 H   0  0  0  0  0  0  0  0  0  0  0  0
    0.4809   -0.8010    1.7947 H   0  0  0  0  0  0  0  0  0  0  0  0
   -0.4952   -1.6010   -0.0830 H   0  0  0  0  0  0  0  0  0  0  0  0
    0.0209    0.9389   -1.6610 H   0  0  0  0  0  0  0  0  0  0  0  0
   -0.8813   -0.5359   -2.1308 H   0  0  0  0  0  0  0  0  0  0  0  0
  1  2  3  0
  2  3  1  0
  3  4  1  0
  4  5  1  0
  5  6  1  0
  6  7  1  0
  7  8  2  0
  7  4  1  0
  1  9  1  0
  3 10  1  0
  3 11  1  0
  4 12  1  0
  5 13  1  0
  5 14  1  0
M  END
