
     RDKit          3D

 14 13  0  0  0  0  0  0  0  0999 V2000
    2.4602    0.4776   -1.8916 C   0  0  0  0  0  0  0  0  0  0  0  0
    1.3514    0.1782   -1.5831 C   0  0  0  0  0  0  0  0  0  0  0  0
   -0.0651   -0.2059   -1.1613 C   0  0  0  0  0  0  0  0  0  0  0  0
   -0.2266    0.3323    0.2341 C   0  0  0  0  0  0  0  0  0  0  0  0
   -1.6209   -0.0453    0.7021 C   0  0  0  0  0  0  0  0  0  0  0  0
    0.7571   -0.1875    1.1013 O   0  0  0  0  0  0  0  0  0  0  0  0
    3.4371    0.7399   -2.1497 H   0  0  0  0  0  0  0  0  0  0  0  0
   -0.7454    0.2785   -1.8641 H   0  0  0  0  0  0  0  0  0  0  0  0
   -0.0329   -1.2983   -1.2047 H   0  0  0  0  0  0  0  0  0  0  0  0
   -0.1465    1.4229    0.2302 H   0  0  0  0  0  0  0  0  0  0  0  0
   -2.0440   -0.8325    0.0380 H   0  0  0  0  0  0  0  0  0  0  0  0
   -2.3066    0.8044    0.7654 H   0  0  0  0  0  0  0  0  0  0  0  0
   -1.5018   -0.4708    1.7440 H   0  0  0  0  0  0  0  0  0  0  0  0
    0.6841   -1.1936    1.1285 H   0  0  0  0  0  0  0  0  0  0  0  0
  1  2  3  0
  2  3  1  0
  3  4  1  0
  4  5  1  0
  4  6  1  0
  1  7  1  0
  3  8  1  0
  3  9  1  0
  4 10  1  0
  5 11  1  0
  5 12  1  0
  5 13  1  0
  6 14  1  0
M  END
