
     RDKit          3D

 19 19  0  0  0  0  0  0  0  0999 V2000
    0.3835    2.2345    1.6065 C   0  0  0  0  0  0  0  0  0  0  0  0
    0.4130    1.0381    1.5204 C   0  0  0  0  0  0  0  0  0  0  0  0
    0.4706   -0.4373    1.4288 C   0  0  0  0  0  0  0  0  0  0  0  0
    1.7454   -0.8595    1.8246 O   0  0  0  0  0  0  0  0  0  0  0  0
    0.1200   -0.9632    0.0923 C   0  0  0  0  0  0  0  0  0  0  0  0
   -1.2591   -0.6280   -0.4008 C   0  0  0  0  0  0  0  0  0  0  0  0
   -0.5687    0.2776   -1.4321 C   0  0  0  0  0  0  0  0  0  0  0  0
   -1.0267    0.0001   -2.7100 O   0  0  0  0  0  0  0  0  0  0  0  0
    0.7774   -0.3875   -1.1084 C   0  0  0  0  0  0  0  0  0  0  0  0
    0.3457    3.3133    1.6689 H   0  0  0  0  0  0  0  0  0  0  0  0
   -0.2356   -0.9016    2.1718 H   0  0  0  0  0  0  0  0  0  0  0  0
    2.0949   -0.1606    2.4307 H   0  0  0  0  0  0  0  0  0  0  0  0
    0.2551   -2.0811    0.0971 H   0  0  0  0  0  0  0  0  0  0  0  0
   -1.8050    0.0013    0.3258 H   0  0  0  0  0  0  0  0  0  0  0  0
   -1.8432   -1.4553   -0.8517 H   0  0  0  0  0  0  0  0  0  0  0  0
   -0.6212    1.3469   -1.1783 H   0  0  0  0  0  0  0  0  0  0  0  0
   -1.8918    0.4667   -2.8072 H   0  0  0  0  0  0  0  0  0  0  0  0
    1.0712   -1.1368   -1.8878 H   0  0  0  0  0  0  0  0  0  0  0  0
    1.5744    0.3324   -0.9718 H   0  0  0  0  0  0  0  0  0  0  0  0
  1  2  3  0
  2  3  1  0
  3  4  1  0
  3  5  1  0
  5  6  1  0
  6  7  1  0
  7  8  1  0
  7  9  1  0
  9  5  1  0
  1 10  1  0
  3 11  1  0
  4 12  1  0
  5 13  1  0
  6 14  1  0
  6 15  1  0
  7 16  1  0
  8 17  1  0
  9 18  1  0
  9 19  1  0
M  END
