
     RDKit          3D

 15 15  0  0  0  0  0  0  0  0999 V2000
    5.7687    1.3479    0.8371 C   0  0  0  0  0  0  0  0  0  0  0  0
    4.6201    1.0350    0.7947 C   0  0  0  0  0  0  0  0  0  0  0  0
    3.5531    0.7581    0.7593 C   0  0  0  0  0  0  0  0  0  0  0  0
    2.2970    0.4123    0.7099 C   0  0  0  0  0  0  0  0  0  0  0  0
    0.3940   -0.1249    0.6149 C   0  0  0  0  0  0  0  0  0  0  0  0
   -0.6173   -0.4023    0.5755 C   0  0  0  0  0  0  0  0  0  0  0  0
   -2.2072   -0.8673    0.5062 C   0  0  0  0  0  0  0  0  0  0  0  0
   -2.5753   -1.1917   -0.8428 C   0  0  0  0  0  0  0  0  0  0  0  0
   -3.0159    0.1555   -0.1444 C   0  0  0  0  0  0  0  0  0  0  0  0
    6.6945    1.6036    0.8634 H   0  0  0  0  0  0  0  0  0  0  0  0
   -2.4561   -1.1649    1.5282 H   0  0  0  0  0  0  0  0  0  0  0  0
   -2.0893   -0.8724   -1.8120 H   0  0  0  0  0  0  0  0  0  0  0  0
   -3.4541   -1.8277   -1.0854 H   0  0  0  0  0  0  0  0  0  0  0  0
   -2.7502    1.1103   -0.3765 H   0  0  0  0  0  0  0  0  0  0  0  0
   -4.1620    0.0285    0.1663 H   0  0  0  0  0  0  0  0  0  0  0  0
  1  2  3  0
  2  3  1  0
  3  4  3  0
  4  5  1  0
  5  6  3  0
  6  7  1  0
  7  8  1  0
  8  9  1  0
  9  7  1  0
  1 10  1  0
  7 11  1  0
  8 12  1  0
  8 13  1  0
  9 14  1  0
  9 15  1  0
M  END
