
     RDKit          3D

 15 15  0  0  0  0  0  0  0  0999 V2000
    2.9963   -0.5426   -0.1344 C   0  0  0  0  0  0  0  0  0  0  0  0
    1.7504   -0.5111   -0.0330 C   0  0  0  0  0  0  0  0  0  0  0  0
    0.3370   -0.4996    0.0836 C   0  0  0  0  0  0  0  0  0  0  0  0
   -0.5346    0.4851   -0.0886 C   0  0  0  0  0  0  0  0  0  0  0  0
   -0.0719    1.8152   -0.4535 C   0  0  0  0  0  0  0  0  0  0  0  0
    0.3413    2.9538   -0.7825 C   0  0  0  0  0  0  0  0  0  0  0  0
   -1.9168   -0.0002    0.1071 C   0  0  0  0  0  0  0  0  0  0  0  0
   -1.7460   -1.2091    0.7363 O   0  0  0  0  0  0  0  0  0  0  0  0
   -0.4989   -1.6896    0.4579 C   0  0  0  0  0  0  0  0  0  0  0  0
    4.0655   -0.5867   -0.2264 H   0  0  0  0  0  0  0  0  0  0  0  0
    0.6685    3.8963   -1.0417 H   0  0  0  0  0  0  0  0  0  0  0  0
   -2.5424    0.7128    0.6677 H   0  0  0  0  0  0  0  0  0  0  0  0
   -2.2983   -0.2315   -0.9129 H   0  0  0  0  0  0  0  0  0  0  0  0
   -0.0606   -2.1991    1.3518 H   0  0  0  0  0  0  0  0  0  0  0  0
   -0.4895   -2.3937   -0.3853 H   0  0  0  0  0  0  0  0  0  0  0  0
  1  2  3  0
  2  3  1  0
  3  4  2  0
  4  5  1  0
  5  6  3  0
  4  7  1  0
  7  8  1  0
  8  9  1  0
  9  3  1  0
  1 10  1  0
  6 11  1  0
  7 12  1  0
  7 13  1  0
  9 14  1  0
  9 15  1  0
M  END
