
     RDKit          3D

 14 14  0  0  0  0  0  0  0  0999 V2000
    2.0058   -1.6837    0.3312 C   0  0  0  0  0  0  0  0  0  0  0  0
    1.2096   -0.7813    0.2751 C   0  0  0  0  0  0  0  0  0  0  0  0
    0.2495    0.3376    0.1905 C   0  0  0  0  0  0  0  0  0  0  0  0
    0.8811    1.6290   -0.1184 C   0  0  0  0  0  0  0  0  0  0  0  0
    0.6739    2.6694    0.4800 O   0  0  0  0  0  0  0  0  0  0  0  0
   -0.8748    0.0370   -0.7699 C   0  0  0  0  0  0  0  0  0  0  0  0
   -1.6234   -0.3748    0.4990 C   0  0  0  0  0  0  0  0  0  0  0  0
   -0.6413    0.3193    1.2382 O   0  0  0  0  0  0  0  0  0  0  0  0
    2.7247   -2.4800    0.3955 H   0  0  0  0  0  0  0  0  0  0  0  0
    1.5855    1.6658   -0.9393 H   0  0  0  0  0  0  0  0  0  0  0  0
   -1.3377    0.8832   -1.2701 H   0  0  0  0  0  0  0  0  0  0  0  0
   -0.6849   -0.8047   -1.4737 H   0  0  0  0  0  0  0  0  0  0  0  0
   -2.6278    0.0524    0.5436 H   0  0  0  0  0  0  0  0  0  0  0  0
   -1.5401   -1.4692    0.6182 H   0  0  0  0  0  0  0  0  0  0  0  0
  1  2  3  0
  2  3  1  0
  3  4  1  0
  4  5  2  0
  3  6  1  0
  6  7  1  0
  7  8  1  0
  8  3  1  0
  1  9  1  0
  4 10  1  0
  6 11  1  0
  6 12  1  0
  7 13  1  0
  7 14  1  0
M  END
