
     RDKit          3D

 23 23  0  0  0  0  0  0  0  0999 V2000
    2.9576   -2.3317    0.5719 C   0  0  0  0  0  0  0  0  0  0  0  0
    2.1598   -1.4656    0.2417 C   0  0  0  0  0  0  0  0  0  0  0  0
    1.1900   -0.4351   -0.1391 C   0  0  0  0  0  0  0  0  0  0  0  0
    1.3189    0.7741    0.7610 C   0  0  0  0  0  0  0  0  0  0  0  0
    0.4184    1.8633    0.2482 C   0  0  0  0  0  0  0  0  0  0  0  0
   -0.9342    1.3788   -0.1599 C   0  0  0  0  0  0  0  0  0  0  0  0
   -1.2602   -0.0095    0.2236 C   0  0  0  0  0  0  0  0  0  0  0  0
   -2.4348   -0.4643   -0.6559 C   0  0  0  0  0  0  0  0  0  0  0  0
   -0.1842   -1.0105    0.0822 C   0  0  0  0  0  0  0  0  0  0  0  0
    3.6413   -3.0863    0.8642 H   0  0  0  0  0  0  0  0  0  0  0  0
    1.3282   -0.1762   -1.2094 H   0  0  0  0  0  0  0  0  0  0  0  0
    2.3695    1.1226    0.7293 H   0  0  0  0  0  0  0  0  0  0  0  0
    1.0310    0.4795    1.7684 H   0  0  0  0  0  0  0  0  0  0  0  0
    0.9104    2.2982   -0.6504 H   0  0  0  0  0  0  0  0  0  0  0  0
    0.4001    2.6649    1.0159 H   0  0  0  0  0  0  0  0  0  0  0  0
   -1.1208    1.5272   -1.2560 H   0  0  0  0  0  0  0  0  0  0  0  0
   -1.6856    2.0584    0.3399 H   0  0  0  0  0  0  0  0  0  0  0  0
   -1.6763   -0.0374    1.2724 H   0  0  0  0  0  0  0  0  0  0  0  0
   -2.6345   -1.5358   -0.4483 H   0  0  0  0  0  0  0  0  0  0  0  0
   -2.0318   -0.4085   -1.7067 H   0  0  0  0  0  0  0  0  0  0  0  0
   -3.3030    0.1892   -0.5301 H   0  0  0  0  0  0  0  0  0  0  0  0
   -0.1054   -1.6505    1.0089 H   0  0  0  0  0  0  0  0  0  0  0  0
   -0.3544   -1.7447   -0.7469 H   0  0  0  0  0  0  0  0  0  0  0  0
  1  2  3  0
  2  3  1  0
  3  4  1  0
  4  5  1  0
  5  6  1  0
  6  7  1  0
  7  8  1  0
  7  9  1  0
  9  3  1  0
  1 10  1  0
  3 11  1  0
  4 12  1  0
  4 13  1  0
  5 14  1  0
  5 15  1  0
  6 16  1  0
  6 17  1  0
  7 18  1  0
  8 19  1  0
  8 20  1  0
  8 21  1  0
  9 22  1  0
  9 23  1  0
M  END
