
     RDKit          3D

 20 19  0  0  0  0  0  0  0  0999 V2000
   -1.7677    2.1743   -0.5633 C   0  0  0  0  0  0  0  0  0  0  0  0
   -1.2969    1.1137   -0.2320 C   0  0  0  0  0  0  0  0  0  0  0  0
   -0.7422   -0.1776    0.1894 C   0  0  0  0  0  0  0  0  0  0  0  0
   -1.4977   -0.6029    1.4548 C   0  0  0  0  0  0  0  0  0  0  0  0
   -1.0715   -1.2194   -0.8577 C   0  0  0  0  0  0  0  0  0  0  0  0
    0.5843   -0.1177    0.5141 O   0  0  0  0  0  0  0  0  0  0  0  0
    1.4330    0.2887   -0.4740 C   0  0  0  0  0  0  0  0  0  0  0  0
    2.8468    0.2840    0.0947 C   0  0  0  0  0  0  0  0  0  0  0  0
   -2.2024    3.1135   -0.8493 H   0  0  0  0  0  0  0  0  0  0  0  0
   -0.8537   -0.5127    2.3544 H   0  0  0  0  0  0  0  0  0  0  0  0
   -2.3745    0.0656    1.6349 H   0  0  0  0  0  0  0  0  0  0  0  0
   -1.8287   -1.6482    1.4026 H   0  0  0  0  0  0  0  0  0  0  0  0
   -0.3268   -1.3006   -1.6497 H   0  0  0  0  0  0  0  0  0  0  0  0
   -2.0740   -0.9628   -1.2743 H   0  0  0  0  0  0  0  0  0  0  0  0
   -1.1979   -2.2050   -0.3479 H   0  0  0  0  0  0  0  0  0  0  0  0
    1.2590    1.3188   -0.8455 H   0  0  0  0  0  0  0  0  0  0  0  0
    1.4624   -0.3622   -1.3678 H   0  0  0  0  0  0  0  0  0  0  0  0
    3.4285   -0.6018   -0.2836 H   0  0  0  0  0  0  0  0  0  0  0  0
    2.8282    0.1401    1.2144 H   0  0  0  0  0  0  0  0  0  0  0  0
    3.3918    1.2121   -0.1143 H   0  0  0  0  0  0  0  0  0  0  0  0
  1  2  3  0
  2  3  1  0
  3  4  1  0
  3  5  1  0
  3  6  1  0
  6  7  1  0
  7  8  1  0
  1  9  1  0
  4 10  1  0
  4 11  1  0
  4 12  1  0
  5 13  1  0
  5 14  1  0
  5 15  1  0
  7 16  1  0
  7 17  1  0
  8 18  1  0
  8 19  1  0
  8 20  1  0
M  END
