
     RDKit          3D

 17 17  0  0  0  0  0  0  0  0999 V2000
    4.3861   -0.8529   -1.0407 C   0  0  0  0  0  0  0  0  0  0  0  0
    3.0005   -0.2493   -0.6853 C   0  0  0  0  0  0  0  0  0  0  0  0
    1.9471    0.2175   -0.4329 C   0  0  0  0  0  0  0  0  0  0  0  0
    0.5691    0.8004   -0.1038 C   0  0  0  0  0  0  0  0  0  0  0  0
   -0.4911    1.2694    0.1521 C   0  0  0  0  0  0  0  0  0  0  0  0
   -1.3555    0.7032   -1.1665 C   0  0  0  0  0  0  0  0  0  0  0  0
   -1.6399   -0.6886   -0.9788 C   0  0  0  0  0  0  0  0  0  0  0  0
   -1.5606   -1.0262    0.2923 C   0  0  0  0  0  0  0  0  0  0  0  0
   -1.1754    0.1150    1.1623 C   0  0  0  0  0  0  0  0  0  0  0  0
    5.5106   -1.3534   -1.3467 H   0  0  0  0  0  0  0  0  0  0  0  0
   -0.8184    2.1751    0.4205 H   0  0  0  0  0  0  0  0  0  0  0  0
   -2.2135    1.3623   -1.1987 H   0  0  0  0  0  0  0  0  0  0  0  0
   -0.6344    0.9652   -2.0040 H   0  0  0  0  0  0  0  0  0  0  0  0
   -1.7705   -1.5186   -1.7535 H   0  0  0  0  0  0  0  0  0  0  0  0
   -1.8727   -2.0377    0.6408 H   0  0  0  0  0  0  0  0  0  0  0  0
   -0.1555   -0.3415    1.6399 H   0  0  0  0  0  0  0  0  0  0  0  0
   -1.7260    0.4603    1.9171 H   0  0  0  0  0  0  0  0  0  0  0  0
  1  2  3  0
  2  3  1  0
  3  4  3  0
  4  5  1  0
  5  6  1  0
  6  7  1  0
  7  8  2  0
  8  9  1  0
  9  5  1  0
  1 10  1  0
  5 11  1  0
  6 12  1  0
  6 13  1  0
  7 14  1  0
  8 15  1  0
  9 16  1  0
  9 17  1  0
M  END
