
     RDKit          3D

 17 16  0  0  0  0  0  0  0  0999 V2000
    4.0034    0.1724   -0.0515 C   0  0  0  0  0  0  0  0  0  0  0  0
    3.0242   -0.2555   -0.4793 C   0  0  0  0  0  0  0  0  0  0  0  0
    1.7087   -0.8016   -1.0450 C   0  0  0  0  0  0  0  0  0  0  0  0
    1.7730   -2.1603   -0.8094 O   0  0  0  0  0  0  0  0  0  0  0  0
    0.5652   -0.1278   -0.3856 C   0  0  0  0  0  0  0  0  0  0  0  0
   -0.3222    0.4012    0.1089 C   0  0  0  0  0  0  0  0  0  0  0  0
   -1.5167    1.0854    0.7685 C   0  0  0  0  0  0  0  0  0  0  0  0
   -2.6238    0.3326    0.6283 O   0  0  0  0  0  0  0  0  0  0  0  0
   -3.0760    0.1276   -0.6536 C   0  0  0  0  0  0  0  0  0  0  0  0
    4.9703    0.5762    0.3565 H   0  0  0  0  0  0  0  0  0  0  0  0
    1.7512   -0.5442   -2.0907 H   0  0  0  0  0  0  0  0  0  0  0  0
    2.2954   -2.4031    0.0022 H   0  0  0  0  0  0  0  0  0  0  0  0
   -1.2695    1.0682    1.8969 H   0  0  0  0  0  0  0  0  0  0  0  0
   -1.5734    2.1392    0.5092 H   0  0  0  0  0  0  0  0  0  0  0  0
   -4.0121   -0.4757   -0.5836 H   0  0  0  0  0  0  0  0  0  0  0  0
   -3.3980    1.1570   -1.0270 H   0  0  0  0  0  0  0  0  0  0  0  0
   -2.2997   -0.2918   -1.2888 H   0  0  0  0  0  0  0  0  0  0  0  0
  1  2  3  0
  2  3  1  0
  3  4  1  0
  3  5  1  0
  5  6  3  0
  6  7  1  0
  7  8  1  0
  8  9  1  0
  1 10  1  0
  3 11  1  0
  4 12  1  0
  7 13  1  0
  7 14  1  0
  9 15  1  0
  9 16  1  0
  9 17  1  0
M  END
