
     RDKit          3D

 17 18  0  0  0  0  0  0  0  0999 V2000
    2.2794   -1.3111    1.2374 C   0  0  0  0  0  0  0  0  0  0  0  0
    1.4184   -0.6636    0.7035 C   0  0  0  0  0  0  0  0  0  0  0  0
    0.3623    0.0989    0.0602 C   0  0  0  0  0  0  0  0  0  0  0  0
    0.8760    1.1436   -0.9268 C   0  0  0  0  0  0  0  0  0  0  0  0
    1.5411    2.1542   -0.2331 O   0  0  0  0  0  0  0  0  0  0  0  0
   -0.5152    0.7204    0.9491 O   0  0  0  0  0  0  0  0  0  0  0  0
   -1.5613    0.2019    0.2344 C   0  0  0  0  0  0  0  0  0  0  0  0
   -1.8377   -1.2446    0.3903 C   0  0  0  0  0  0  0  0  0  0  0  0
   -0.7207   -0.7934   -0.4753 C   0  0  0  0  0  0  0  0  0  0  0  0
    3.0483   -1.9006    1.7065 H   0  0  0  0  0  0  0  0  0  0  0  0
    1.6159    0.7010   -1.6277 H   0  0  0  0  0  0  0  0  0  0  0  0
    0.0422    1.5732   -1.4947 H   0  0  0  0  0  0  0  0  0  0  0  0
    0.8290    2.8113    0.0411 H   0  0  0  0  0  0  0  0  0  0  0  0
   -2.2426    0.8722   -0.3015 H   0  0  0  0  0  0  0  0  0  0  0  0
   -1.5669   -1.7445    1.3528 H   0  0  0  0  0  0  0  0  0  0  0  0
   -2.7486   -1.6217   -0.0705 H   0  0  0  0  0  0  0  0  0  0  0  0
   -0.8196   -0.9972   -1.5458 H   0  0  0  0  0  0  0  0  0  0  0  0
  1  2  3  0
  2  3  1  0
  3  4  1  0
  4  5  1  0
  3  6  1  0
  6  7  1  0
  7  8  1  0
  8  9  1  0
  9  3  1  0
  9  7  1  0
  1 10  1  0
  4 11  1  0
  4 12  1  0
  5 13  1  0
  7 14  1  0
  8 15  1  0
  8 16  1  0
  9 17  1  0
M  END
