
     RDKit          3D

 21 21  0  0  0  0  0  0  0  0999 V2000
    2.4292    1.0238    1.7169 C   0  0  0  0  0  0  0  0  0  0  0  0
    1.4144    0.3085    1.6883 C   0  0  0  0  0  0  0  0  0  0  0  0
    0.2685   -0.5290    1.6508 C   0  0  0  0  0  0  0  0  0  0  0  0
   -0.3337   -0.3716    0.2615 C   0  0  0  0  0  0  0  0  0  0  0  0
   -1.5238   -1.2887    0.1431 C   0  0  0  0  0  0  0  0  0  0  0  0
   -0.8121    1.0613    0.1092 C   0  0  0  0  0  0  0  0  0  0  0  0
   -0.5817    1.4884   -1.1123 C   0  0  0  0  0  0  0  0  0  0  0  0
    0.0671    0.4295   -1.9406 C   0  0  0  0  0  0  0  0  0  0  0  0
    0.6202   -0.5024   -0.8611 C   0  0  0  0  0  0  0  0  0  0  0  0
    3.3251    1.6712    1.7564 H   0  0  0  0  0  0  0  0  0  0  0  0
    0.5680   -1.6045    1.7014 H   0  0  0  0  0  0  0  0  0  0  0  0
   -0.5183   -0.2519    2.3758 H   0  0  0  0  0  0  0  0  0  0  0  0
   -1.4891   -2.0747    0.9375 H   0  0  0  0  0  0  0  0  0  0  0  0
   -2.4756   -0.7480    0.0906 H   0  0  0  0  0  0  0  0  0  0  0  0
   -1.4025   -1.8236   -0.8695 H   0  0  0  0  0  0  0  0  0  0  0  0
   -1.2768    1.6285    0.9085 H   0  0  0  0  0  0  0  0  0  0  0  0
   -0.8234    2.5105   -1.4611 H   0  0  0  0  0  0  0  0  0  0  0  0
    0.8950    0.8532   -2.5555 H   0  0  0  0  0  0  0  0  0  0  0  0
   -0.6484   -0.1230   -2.5817 H   0  0  0  0  0  0  0  0  0  0  0  0
    0.6438   -1.5084   -1.3307 H   0  0  0  0  0  0  0  0  0  0  0  0
    1.6538   -0.1488   -0.6275 H   0  0  0  0  0  0  0  0  0  0  0  0
  1  2  3  0
  2  3  1  0
  3  4  1  0
  4  5  1  0
  4  6  1  0
  6  7  2  0
  7  8  1  0
  8  9  1  0
  9  4  1  0
  1 10  1  0
  3 11  1  0
  3 12  1  0
  5 13  1  0
  5 14  1  0
  5 15  1  0
  6 16  1  0
  7 17  1  0
  8 18  1  0
  8 19  1  0
  9 20  1  0
  9 21  1  0
M  END
