
     RDKit          3D

 16 17  0  0  0  0  0  0  0  0999 V2000
    2.1510   -0.9811    1.0938 C   0  0  0  0  0  0  0  0  0  0  0  0
    1.3283   -0.6904    0.3275 C   0  0  0  0  0  0  0  0  0  0  0  0
    0.2213   -0.3068   -0.6668 C   0  0  0  0  0  0  0  0  0  0  0  0
   -0.9535   -1.1058   -0.4357 C   0  0  0  0  0  0  0  0  0  0  0  0
   -1.3525   -0.6746    0.8624 O   0  0  0  0  0  0  0  0  0  0  0  0
   -0.7135    0.5849    1.0609 C   0  0  0  0  0  0  0  0  0  0  0  0
   -0.5018    1.0430   -0.3254 C   0  0  0  0  0  0  0  0  0  0  0  0
    0.5464    0.9427   -1.2784 C   0  0  0  0  0  0  0  0  0  0  0  0
    2.9448   -1.2679    1.8602 H   0  0  0  0  0  0  0  0  0  0  0  0
   -1.8101   -0.7702   -1.0757 H   0  0  0  0  0  0  0  0  0  0  0  0
   -0.8879   -2.1905   -0.5222 H   0  0  0  0  0  0  0  0  0  0  0  0
    0.1729    0.4907    1.6907 H   0  0  0  0  0  0  0  0  0  0  0  0
   -1.5176    1.2046    1.5618 H   0  0  0  0  0  0  0  0  0  0  0  0
   -1.5035    1.2016   -0.7950 H   0  0  0  0  0  0  0  0  0  0  0  0
    0.3717    1.0540   -2.3670 H   0  0  0  0  0  0  0  0  0  0  0  0
    1.5041    1.4657   -0.9909 H   0  0  0  0  0  0  0  0  0  0  0  0
  1  2  3  0
  2  3  1  0
  3  4  1  0
  4  5  1  0
  5  6  1  0
  6  7  1  0
  7  8  1  0
  7  3  1  0
  8  3  1  0
  1  9  1  0
  4 10  1  0
  4 11  1  0
  6 12  1  0
  6 13  1  0
  7 14  1  0
  8 15  1  0
  8 16  1  0
M  END
