
     RDKit          3D

 19 20  0  0  0  0  0  0  0  0999 V2000
    3.5762   -0.7011   -0.3249 C   0  0  0  0  0  0  0  0  0  0  0  0
    2.3699   -0.5670   -0.2756 C   0  0  0  0  0  0  0  0  0  0  0  0
    0.9122   -0.4157   -0.2156 C   0  0  0  0  0  0  0  0  0  0  0  0
    0.3667   -0.3487    1.1682 C   0  0  0  0  0  0  0  0  0  0  0  0
   -1.0982   -0.1501    1.2825 C   0  0  0  0  0  0  0  0  0  0  0  0
   -1.7850    0.5748    0.2004 C   0  0  0  0  0  0  0  0  0  0  0  0
   -1.1726    0.6126   -1.1384 C   0  0  0  0  0  0  0  0  0  0  0  0
    0.2171    0.1143   -1.2550 C   0  0  0  0  0  0  0  0  0  0  0  0
    0.2399   -1.3603   -1.1013 O   0  0  0  0  0  0  0  0  0  0  0  0
    4.6261   -0.8307   -0.3549 H   0  0  0  0  0  0  0  0  0  0  0  0
    0.9350    0.4523    1.6898 H   0  0  0  0  0  0  0  0  0  0  0  0
    0.6852   -1.2971    1.6825 H   0  0  0  0  0  0  0  0  0  0  0  0
   -1.5684   -1.1568    1.4159 H   0  0  0  0  0  0  0  0  0  0  0  0
   -1.2832    0.3526    2.2719 H   0  0  0  0  0  0  0  0  0  0  0  0
   -1.9323    1.6447    0.5390 H   0  0  0  0  0  0  0  0  0  0  0  0
   -2.8260    0.1916    0.1096 H   0  0  0  0  0  0  0  0  0  0  0  0
   -1.1946    1.6521   -1.5887 H   0  0  0  0  0  0  0  0  0  0  0  0
   -1.7860    0.0158   -1.8801 H   0  0  0  0  0  0  0  0  0  0  0  0
    0.7180    0.4066   -2.2253 H   0  0  0  0  0  0  0  0  0  0  0  0
  1  2  3  0
  2  3  1  0
  3  4  1  0
  4  5  1  0
  5  6  1  0
  6  7  1  0
  7  8  1  0
  8  9  1  0
  8  3  1  0
  9  3  1  0
  1 10  1  0
  4 11  1  0
  4 12  1  0
  5 13  1  0
  5 14  1  0
  6 15  1  0
  6 16  1  0
  7 17  1  0
  7 18  1  0
  8 19  1  0
M  END
