
     RDKit          3D

 19 20  0  0  0  0  0  0  0  0999 V2000
    2.0414    1.4812   -0.9331 C   0  0  0  0  0  0  0  0  0  0  0  0
    1.3220    0.6873   -0.3561 C   0  0  0  0  0  0  0  0  0  0  0  0
    0.4563   -0.2672    0.3382 C   0  0  0  0  0  0  0  0  0  0  0  0
    0.9156   -0.5670    1.7290 C   0  0  0  0  0  0  0  0  0  0  0  0
   -0.9931    0.0549    0.1605 C   0  0  0  0  0  0  0  0  0  0  0  0
   -1.3259    1.3394   -0.5277 C   0  0  0  0  0  0  0  0  0  0  0  0
   -1.1140   -1.1617   -0.7331 C   0  0  0  0  0  0  0  0  0  0  0  0
   -0.7863   -2.3838   -0.1630 O   0  0  0  0  0  0  0  0  0  0  0  0
    0.2481   -1.5094   -0.4917 C   0  0  0  0  0  0  0  0  0  0  0  0
    2.6819    2.1704   -1.4322 H   0  0  0  0  0  0  0  0  0  0  0  0
    1.6392    0.2133    2.0366 H   0  0  0  0  0  0  0  0  0  0  0  0
    0.0441   -0.6021    2.4318 H   0  0  0  0  0  0  0  0  0  0  0  0
    1.4016   -1.5732    1.7135 H   0  0  0  0  0  0  0  0  0  0  0  0
   -1.5284   -0.0149    1.1267 H   0  0  0  0  0  0  0  0  0  0  0  0
   -0.7672    1.5170   -1.4543 H   0  0  0  0  0  0  0  0  0  0  0  0
   -1.2010    2.1693    0.2212 H   0  0  0  0  0  0  0  0  0  0  0  0
   -2.4082    1.3241   -0.7793 H   0  0  0  0  0  0  0  0  0  0  0  0
   -1.6412   -1.0919   -1.6793 H   0  0  0  0  0  0  0  0  0  0  0  0
    1.0151   -1.7859   -1.2077 H   0  0  0  0  0  0  0  0  0  0  0  0
  1  2  3  0
  2  3  1  0
  3  4  1  0
  3  5  1  0
  5  6  1  0
  5  7  1  0
  7  8  1  0
  8  9  1  0
  9  3  1  0
  9  7  1  0
  1 10  1  0
  4 11  1  0
  4 12  1  0
  4 13  1  0
  5 14  1  0
  6 15  1  0
  6 16  1  0
  6 17  1  0
  7 18  1  0
  9 19  1  0
M  END
