
     RDKit          3D

 20 19  0  0  0  0  0  0  0  0999 V2000
    4.9003   -0.5233    0.2051 C   0  0  0  0  0  0  0  0  0  0  0  0
    3.7982   -0.1805   -0.0867 C   0  0  0  0  0  0  0  0  0  0  0  0
    2.4761    0.2474   -0.4578 C   0  0  0  0  0  0  0  0  0  0  0  0
    1.4682   -0.3720    0.3188 O   0  0  0  0  0  0  0  0  0  0  0  0
    0.2818    0.1362   -0.1534 C   0  0  0  0  0  0  0  0  0  0  0  0
   -0.9388   -0.3857    0.5314 C   0  0  0  0  0  0  0  0  0  0  0  0
   -2.1405    0.2924   -0.1300 C   0  0  0  0  0  0  0  0  0  0  0  0
   -3.4352   -0.1690    0.4931 C   0  0  0  0  0  0  0  0  0  0  0  0
    5.8927   -0.8136    0.4727 H   0  0  0  0  0  0  0  0  0  0  0  0
    2.2519    0.1217   -1.5319 H   0  0  0  0  0  0  0  0  0  0  0  0
    2.3367    1.3492   -0.2528 H   0  0  0  0  0  0  0  0  0  0  0  0
    0.3085    1.2364   -0.0265 H   0  0  0  0  0  0  0  0  0  0  0  0
    0.2188   -0.1108   -1.2349 H   0  0  0  0  0  0  0  0  0  0  0  0
   -1.0479   -1.4691    0.5008 H   0  0  0  0  0  0  0  0  0  0  0  0
   -0.9779   -0.0771    1.5978 H   0  0  0  0  0  0  0  0  0  0  0  0
   -2.0737    0.0737   -1.2108 H   0  0  0  0  0  0  0  0  0  0  0  0
   -2.0536    1.3846    0.0298 H   0  0  0  0  0  0  0  0  0  0  0  0
   -3.4065    0.1208    1.5573 H   0  0  0  0  0  0  0  0  0  0  0  0
   -3.6105   -1.2482    0.3410 H   0  0  0  0  0  0  0  0  0  0  0  0
   -4.2485    0.3867    0.0016 H   0  0  0  0  0  0  0  0  0  0  0  0
  1  2  3  0
  2  3  1  0
  3  4  1  0
  4  5  1  0
  5  6  1  0
  6  7  1  0
  7  8  1  0
  1  9  1  0
  3 10  1  0
  3 11  1  0
  5 12  1  0
  5 13  1  0
  6 14  1  0
  6 15  1  0
  7 16  1  0
  7 17  1  0
  8 18  1  0
  8 19  1  0
  8 20  1  0
M  END
