
     RDKit          3D

 16 15  0  0  0  0  0  0  0  0999 V2000
    3.5224    1.3164   -0.1953 C   0  0  0  0  0  0  0  0  0  0  0  0
    2.9789    0.2529    0.0147 C   0  0  0  0  0  0  0  0  0  0  0  0
    2.3165   -1.0409    0.2688 C   0  0  0  0  0  0  0  0  0  0  0  0
    0.8785   -0.9556   -0.0467 C   0  0  0  0  0  0  0  0  0  0  0  0
   -0.3014   -0.8856   -0.2857 C   0  0  0  0  0  0  0  0  0  0  0  0
   -1.7500   -0.7811   -0.5618 C   0  0  0  0  0  0  0  0  0  0  0  0
   -2.1340    0.6808   -0.3320 C   0  0  0  0  0  0  0  0  0  0  0  0
   -3.4697    0.9103   -0.5583 O   0  0  0  0  0  0  0  0  0  0  0  0
    4.0106    2.2412   -0.3695 H   0  0  0  0  0  0  0  0  0  0  0  0
    2.4890   -1.2822    1.3374 H   0  0  0  0  0  0  0  0  0  0  0  0
    2.7266   -1.8363   -0.4079 H   0  0  0  0  0  0  0  0  0  0  0  0
   -1.9399   -1.1116   -1.5841 H   0  0  0  0  0  0  0  0  0  0  0  0
   -2.2881   -1.3755    0.2000 H   0  0  0  0  0  0  0  0  0  0  0  0
   -1.4741    1.2934   -0.9941 H   0  0  0  0  0  0  0  0  0  0  0  0
   -1.8044    0.9172    0.7062 H   0  0  0  0  0  0  0  0  0  0  0  0
   -3.7608    1.6564   -0.0050 H   0  0  0  0  0  0  0  0  0  0  0  0
  1  2  3  0
  2  3  1  0
  3  4  1  0
  4  5  3  0
  5  6  1  0
  6  7  1  0
  7  8  1  0
  1  9  1  0
  3 10  1  0
  3 11  1  0
  6 12  1  0
  6 13  1  0
  7 14  1  0
  7 15  1  0
  8 16  1  0
M  END
