
     RDKit          3D

 16 17  0  0  0  0  0  0  0  0999 V2000
    2.7636   -0.9008    0.4248 C   0  0  0  0  0  0  0  0  0  0  0  0
    1.7691   -0.2495    0.5739 C   0  0  0  0  0  0  0  0  0  0  0  0
    0.5581    0.5733    0.7649 C   0  0  0  0  0  0  0  0  0  0  0  0
   -0.7409   -0.0690    0.6377 C   0  0  0  0  0  0  0  0  0  0  0  0
   -0.8024   -1.1720   -0.4219 C   0  0  0  0  0  0  0  0  0  0  0  0
   -0.6579   -0.0835   -1.4458 C   0  0  0  0  0  0  0  0  0  0  0  0
   -0.2032    0.9219   -0.4456 C   0  0  0  0  0  0  0  0  0  0  0  0
   -0.8021    2.1676   -0.4817 O   0  0  0  0  0  0  0  0  0  0  0  0
    3.6540   -1.4763    0.3093 H   0  0  0  0  0  0  0  0  0  0  0  0
    0.6880    1.3507    1.5184 H   0  0  0  0  0  0  0  0  0  0  0  0
   -1.6619    0.2492    1.1255 H   0  0  0  0  0  0  0  0  0  0  0  0
   -1.7378   -1.7391   -0.4284 H   0  0  0  0  0  0  0  0  0  0  0  0
    0.1387   -1.7846   -0.3891 H   0  0  0  0  0  0  0  0  0  0  0  0
   -1.6778    0.1729   -1.8487 H   0  0  0  0  0  0  0  0  0  0  0  0
    0.0455   -0.3101   -2.2815 H   0  0  0  0  0  0  0  0  0  0  0  0
   -1.3330    2.3494    0.3565 H   0  0  0  0  0  0  0  0  0  0  0  0
  1  2  3  0
  2  3  1  0
  3  4  1  0
  4  5  1  0
  5  6  1  0
  6  7  1  0
  7  8  1  0
  7  3  1  0
  7  4  1  0
  1  9  1  0
  3 10  1  0
  4 11  1  0
  5 12  1  0
  5 13  1  0
  6 14  1  0
  6 15  1  0
  8 16  1  0
M  END
