
     RDKit          3D

 17 18  0  0  0  0  0  0  0  0999 V2000
    3.3144   -0.6437   -0.1794 C   0  0  0  0  0  0  0  0  0  0  0  0
    2.2553   -0.2980    0.2771 C   0  0  0  0  0  0  0  0  0  0  0  0
    0.9713    0.1395    0.8534 C   0  0  0  0  0  0  0  0  0  0  0  0
    0.9263    1.5021    1.1438 O   0  0  0  0  0  0  0  0  0  0  0  0
   -0.4053    1.4797    0.7310 C   0  0  0  0  0  0  0  0  0  0  0  0
   -0.0121    0.4076   -0.2650 C   0  0  0  0  0  0  0  0  0  0  0  0
   -1.0523   -0.6834   -0.3670 C   0  0  0  0  0  0  0  0  0  0  0  0
   -2.1117   -0.6804   -1.3472 C   0  0  0  0  0  0  0  0  0  0  0  0
   -0.8891   -1.5155   -1.4901 O   0  0  0  0  0  0  0  0  0  0  0  0
    4.2689   -0.9354   -0.5900 H   0  0  0  0  0  0  0  0  0  0  0  0
    0.5881   -0.5357    1.6261 H   0  0  0  0  0  0  0  0  0  0  0  0
   -0.7806    2.4174    0.2876 H   0  0  0  0  0  0  0  0  0  0  0  0
   -1.0691    1.0203    1.5048 H   0  0  0  0  0  0  0  0  0  0  0  0
    0.4281    0.7552   -1.2008 H   0  0  0  0  0  0  0  0  0  0  0  0
   -1.2493   -1.1914    0.6111 H   0  0  0  0  0  0  0  0  0  0  0  0
   -2.1657    0.0326   -2.1771 H   0  0  0  0  0  0  0  0  0  0  0  0
   -3.0172   -1.2709   -1.1557 H   0  0  0  0  0  0  0  0  0  0  0  0
  1  2  3  0
  2  3  1  0
  3  4  1  0
  4  5  1  0
  5  6  1  0
  6  7  1  0
  7  8  1  0
  8  9  1  0
  6  3  1  0
  9  7  1  0
  1 10  1  0
  3 11  1  0
  5 12  1  0
  5 13  1  0
  6 14  1  0
  7 15  1  0
  8 16  1  0
  8 17  1  0
M  END
