
     RDKit          3D

 22 21  0  0  0  0  0  0  0  0999 V2000
    3.2034    1.9636   -0.5947 C   0  0  0  0  0  0  0  0  0  0  0  0
    2.2553    1.2552   -0.8102 C   0  0  0  0  0  0  0  0  0  0  0  0
    1.0944    0.4147   -1.0756 C   0  0  0  0  0  0  0  0  0  0  0  0
    0.2300    0.2320    0.1373 C   0  0  0  0  0  0  0  0  0  0  0  0
    1.0594   -0.4268    1.2357 C   0  0  0  0  0  0  0  0  0  0  0  0
   -0.9665   -0.6263   -0.1054 C   0  0  0  0  0  0  0  0  0  0  0  0
   -1.9084   -0.1255   -1.1490 C   0  0  0  0  0  0  0  0  0  0  0  0
   -1.7684   -0.7616    1.1902 C   0  0  0  0  0  0  0  0  0  0  0  0
    4.0556    2.5852   -0.3882 H   0  0  0  0  0  0  0  0  0  0  0  0
    0.5687    0.7777   -1.9588 H   0  0  0  0  0  0  0  0  0  0  0  0
    1.5127   -0.5957   -1.3653 H   0  0  0  0  0  0  0  0  0  0  0  0
   -0.0989    1.2425    0.4745 H   0  0  0  0  0  0  0  0  0  0  0  0
    0.8049   -1.5166    1.3118 H   0  0  0  0  0  0  0  0  0  0  0  0
    2.1452   -0.3278    1.0089 H   0  0  0  0  0  0  0  0  0  0  0  0
    0.8791    0.0209    2.2236 H   0  0  0  0  0  0  0  0  0  0  0  0
   -0.6490   -1.6606   -0.3775 H   0  0  0  0  0  0  0  0  0  0  0  0
   -2.3477   -1.0021   -1.6688 H   0  0  0  0  0  0  0  0  0  0  0  0
   -2.7903    0.4015   -0.6901 H   0  0  0  0  0  0  0  0  0  0  0  0
   -1.4418    0.4908   -1.9413 H   0  0  0  0  0  0  0  0  0  0  0  0
   -1.0662   -1.0341    2.0087 H   0  0  0  0  0  0  0  0  0  0  0  0
   -2.5443   -1.5430    1.1118 H   0  0  0  0  0  0  0  0  0  0  0  0
   -2.2272    0.2362    1.4225 H   0  0  0  0  0  0  0  0  0  0  0  0
  1  2  3  0
  2  3  1  0
  3  4  1  0
  4  5  1  0
  4  6  1  0
  6  7  1  0
  6  8  1  0
  1  9  1  0
  3 10  1  0
  3 11  1  0
  4 12  1  0
  5 13  1  0
  5 14  1  0
  5 15  1  0
  6 16  1  0
  7 17  1  0
  7 18  1  0
  7 19  1  0
  8 20  1  0
  8 21  1  0
  8 22  1  0
M  END
