
     RDKit          3D

 23 22  0  0  0  0  0  0  0  0999 V2000
    4.0110    0.7257    0.2207 C   0  0  0  0  0  0  0  0  0  0  0  0
    3.1314   -0.0608    0.2669 C   0  0  0  0  0  0  0  0  0  0  0  0
    2.0121   -1.0595    0.3518 C   0  0  0  0  0  0  0  0  0  0  0  0
    1.0816   -0.6373    1.2870 O   0  0  0  0  0  0  0  0  0  0  0  0
    0.5656    0.6250    0.9888 C   0  0  0  0  0  0  0  0  0  0  0  0
   -0.1113    0.5784   -0.3350 C   0  0  0  0  0  0  0  0  0  0  0  0
   -1.2532   -0.4287   -0.2613 C   0  0  0  0  0  0  0  0  0  0  0  0
   -2.1946    0.0659    0.8141 C   0  0  0  0  0  0  0  0  0  0  0  0
   -2.0791   -0.3520   -1.5620 C   0  0  0  0  0  0  0  0  0  0  0  0
    4.7887    1.4319    0.1813 H   0  0  0  0  0  0  0  0  0  0  0  0
    1.6229   -1.3251   -0.6290 H   0  0  0  0  0  0  0  0  0  0  0  0
    2.5041   -1.9765    0.7565 H   0  0  0  0  0  0  0  0  0  0  0  0
   -0.1403    0.9069    1.7820 H   0  0  0  0  0  0  0  0  0  0  0  0
    1.3854    1.3779    1.0383 H   0  0  0  0  0  0  0  0  0  0  0  0
   -0.6353    1.5509   -0.5828 H   0  0  0  0  0  0  0  0  0  0  0  0
    0.5978    0.3519   -1.1565 H   0  0  0  0  0  0  0  0  0  0  0  0
   -0.9203   -1.4528   -0.0631 H   0  0  0  0  0  0  0  0  0  0  0  0
   -2.0231    1.1353    1.0816 H   0  0  0  0  0  0  0  0  0  0  0  0
   -2.1788   -0.5866    1.7210 H   0  0  0  0  0  0  0  0  0  0  0  0
   -3.2735    0.0446    0.4804 H   0  0  0  0  0  0  0  0  0  0  0  0
   -1.5440   -0.8543   -2.3793 H   0  0  0  0  0  0  0  0  0  0  0  0
   -3.0831   -0.8023   -1.3992 H   0  0  0  0  0  0  0  0  0  0  0  0
   -2.2642    0.7415   -1.7702 H   0  0  0  0  0  0  0  0  0  0  0  0
  1  2  3  0
  2  3  1  0
  3  4  1  0
  4  5  1  0
  5  6  1  0
  6  7  1  0
  7  8  1  0
  7  9  1  0
  1 10  1  0
  3 11  1  0
  3 12  1  0
  5 13  1  0
  5 14  1  0
  6 15  1  0
  6 16  1  0
  7 17  1  0
  8 18  1  0
  8 19  1  0
  8 20  1  0
  9 21  1  0
  9 22  1  0
  9 23  1  0
M  END
