
     RDKit          3D

 21 21  0  0  0  0  0  0  0  0999 V2000
    1.3353    2.0522    1.8918 C   0  0  0  0  0  0  0  0  0  0  0  0
    1.3252    1.7333    0.7229 C   0  0  0  0  0  0  0  0  0  0  0  0
    1.3231    1.3268   -0.6787 C   0  0  0  0  0  0  0  0  0  0  0  0
    0.3910    0.1491   -0.8813 C   0  0  0  0  0  0  0  0  0  0  0  0
    0.8907   -0.9738   -0.0190 C   0  0  0  0  0  0  0  0  0  0  0  0
   -0.0677   -2.0696    0.1809 C   0  0  0  0  0  0  0  0  0  0  0  0
   -1.3380   -1.7844    0.2646 C   0  0  0  0  0  0  0  0  0  0  0  0
   -1.8332   -0.4196    0.1663 C   0  0  0  0  0  0  0  0  0  0  0  0
   -1.0269    0.5290   -0.6505 C   0  0  0  0  0  0  0  0  0  0  0  0
    1.3348    2.3331    2.9170 H   0  0  0  0  0  0  0  0  0  0  0  0
    0.9274    2.1633   -1.3265 H   0  0  0  0  0  0  0  0  0  0  0  0
    2.3400    1.1325   -1.0537 H   0  0  0  0  0  0  0  0  0  0  0  0
    0.5267   -0.1674   -1.9404 H   0  0  0  0  0  0  0  0  0  0  0  0
    1.2204   -0.6144    0.9765 H   0  0  0  0  0  0  0  0  0  0  0  0
    1.8282   -1.3959   -0.4874 H   0  0  0  0  0  0  0  0  0  0  0  0
    0.3202   -3.1017    0.2529 H   0  0  0  0  0  0  0  0  0  0  0  0
   -2.0383   -2.5949    0.4118 H   0  0  0  0  0  0  0  0  0  0  0  0
   -2.8979   -0.4604   -0.2133 H   0  0  0  0  0  0  0  0  0  0  0  0
   -1.9559   -0.0347    1.2233 H   0  0  0  0  0  0  0  0  0  0  0  0
   -1.0495    1.5200   -0.1424 H   0  0  0  0  0  0  0  0  0  0  0  0
   -1.5558    0.6774   -1.6150 H   0  0  0  0  0  0  0  0  0  0  0  0
  1  2  3  0
  2  3  1  0
  3  4  1  0
  4  5  1  0
  5  6  1  0
  6  7  2  0
  7  8  1  0
  8  9  1  0
  9  4  1  0
  1 10  1  0
  3 11  1  0
  3 12  1  0
  4 13  1  0
  5 14  1  0
  5 15  1  0
  6 16  1  0
  7 17  1  0
  8 18  1  0
  8 19  1  0
  9 20  1  0
  9 21  1  0
M  END
