
     RDKit          3D

 21 21  0  0  0  0  0  0  0  0999 V2000
    1.9839   -1.3667   -1.0218 C   0  0  0  0  0  0  0  0  0  0  0  0
    1.3434   -0.7864   -0.7836 C   0  0  0  0  0  0  0  0  0  0  0  0
    0.2024    0.2310   -0.3481 C   0  0  0  0  0  0  0  0  0  0  0  0
   -0.0374    1.1230   -1.5779 C   0  0  0  0  0  0  0  0  0  0  0  0
    1.1263    1.2415    0.4245 C   0  0  0  0  0  0  0  0  0  0  0  0
   -0.8073   -0.4246    0.3486 C   0  0  0  0  0  0  0  0  0  0  0  0
   -2.0526    0.0825    0.9969 C   0  0  0  0  0  0  0  0  0  0  0  0
   -0.3049   -1.7063    1.1280 C   0  0  0  0  0  0  0  0  0  0  0  0
   -1.0182   -1.8027   -0.1453 O   0  0  0  0  0  0  0  0  0  0  0  0
    3.0263   -2.3338   -1.4153 H   0  0  0  0  0  0  0  0  0  0  0  0
   -0.3960    2.1443   -1.1603 H   0  0  0  0  0  0  0  0  0  0  0  0
   -0.5046    0.8726   -2.4831 H   0  0  0  0  0  0  0  0  0  0  0  0
    1.0406    1.5040   -1.9430 H   0  0  0  0  0  0  0  0  0  0  0  0
    1.9705    1.3658   -0.3164 H   0  0  0  0  0  0  0  0  0  0  0  0
    0.5148    2.2021    0.3917 H   0  0  0  0  0  0  0  0  0  0  0  0
    1.2934    0.9832    1.4404 H   0  0  0  0  0  0  0  0  0  0  0  0
   -2.9300   -0.1945    0.3360 H   0  0  0  0  0  0  0  0  0  0  0  0
   -2.0496    1.1833    1.1498 H   0  0  0  0  0  0  0  0  0  0  0  0
   -2.2210   -0.4003    1.9785 H   0  0  0  0  0  0  0  0  0  0  0  0
    0.7601   -1.8901    1.0567 H   0  0  0  0  0  0  0  0  0  0  0  0
   -0.9402   -2.0280    1.9435 H   0  0  0  0  0  0  0  0  0  0  0  0
  1  2  3  0
  2  3  1  0
  3  4  1  0
  3  5  1  0
  3  6  1  0
  6  7  1  0
  6  8  1  0
  8  9  1  0
  9  6  1  0
  1 10  1  0
  4 11  1  0
  4 12  1  0
  4 13  1  0
  5 14  1  0
  5 15  1  0
  5 16  1  0
  7 17  1  0
  7 18  1  0
  7 19  1  0
  8 20  1  0
  8 21  1  0
M  END
