
     RDKit          3D

 17 18  0  0  0  0  0  0  0  0999 V2000
    2.3698   -1.0480    1.8100 C   0  0  0  0  0  0  0  0  0  0  0  0
    1.4705   -0.6271    1.1354 C   0  0  0  0  0  0  0  0  0  0  0  0
    0.4075   -0.1531    0.3559 C   0  0  0  0  0  0  0  0  0  0  0  0
   -0.4453   -1.1177   -0.4264 C   0  0  0  0  0  0  0  0  0  0  0  0
   -1.3980   -0.0859   -1.0672 C   0  0  0  0  0  0  0  0  0  0  0  0
   -0.8710    1.1626   -0.4109 C   0  0  0  0  0  0  0  0  0  0  0  0
    0.6463    1.0028   -0.5916 C   0  0  0  0  0  0  0  0  0  0  0  0
   -0.6305    0.7100    0.9726 C   0  0  0  0  0  0  0  0  0  0  0  0
   -0.9962    0.8623    2.1067 O   0  0  0  0  0  0  0  0  0  0  0  0
    3.1641   -1.4244    2.4286 H   0  0  0  0  0  0  0  0  0  0  0  0
   -1.0284   -1.7879    0.2347 H   0  0  0  0  0  0  0  0  0  0  0  0
    0.1191   -1.6576   -1.2130 H   0  0  0  0  0  0  0  0  0  0  0  0
   -2.4371   -0.3115   -0.8502 H   0  0  0  0  0  0  0  0  0  0  0  0
   -1.2527   -0.0624   -2.1567 H   0  0  0  0  0  0  0  0  0  0  0  0
   -1.2988    2.1030   -0.6129 H   0  0  0  0  0  0  0  0  0  0  0  0
    1.2398    1.7944   -0.1316 H   0  0  0  0  0  0  0  0  0  0  0  0
    0.9411    0.6405   -1.5833 H   0  0  0  0  0  0  0  0  0  0  0  0
  1  2  3  0
  2  3  1  0
  3  4  1  0
  4  5  1  0
  5  6  1  0
  6  7  1  0
  6  8  1  0
  8  9  2  0
  7  3  1  0
  8  3  1  0
  1 10  1  0
  4 11  1  0
  4 12  1  0
  5 13  1  0
  5 14  1  0
  6 15  1  0
  7 16  1  0
  7 17  1  0
M  END
