
     RDKit          3D

 21 21  0  0  0  0  0  0  0  0999 V2000
    3.4183   -0.7067   -0.1349 C   0  0  0  0  0  0  0  0  0  0  0  0
    2.2806   -0.7567   -0.5305 C   0  0  0  0  0  0  0  0  0  0  0  0
    0.9098   -0.8186   -1.0204 C   0  0  0  0  0  0  0  0  0  0  0  0
   -0.0024   -0.0247   -0.0906 C   0  0  0  0  0  0  0  0  0  0  0  0
   -1.4334   -0.0277   -0.5094 C   0  0  0  0  0  0  0  0  0  0  0  0
   -2.0228   -1.4206   -0.5627 C   0  0  0  0  0  0  0  0  0  0  0  0
    0.2992   -0.3076    1.2633 O   0  0  0  0  0  0  0  0  0  0  0  0
    0.5893    0.9934    0.7310 C   0  0  0  0  0  0  0  0  0  0  0  0
   -0.1936    2.0652    1.4178 C   0  0  0  0  0  0  0  0  0  0  0  0
    4.4065   -0.6662    0.1944 H   0  0  0  0  0  0  0  0  0  0  0  0
    0.7958   -0.5334   -2.0705 H   0  0  0  0  0  0  0  0  0  0  0  0
    0.5600   -1.8851   -0.9478 H   0  0  0  0  0  0  0  0  0  0  0  0
   -2.0855    0.6094    0.1153 H   0  0  0  0  0  0  0  0  0  0  0  0
   -1.4800    0.4089   -1.5375 H   0  0  0  0  0  0  0  0  0  0  0  0
   -1.4439   -2.0098   -1.3106 H   0  0  0  0  0  0  0  0  0  0  0  0
   -2.0019   -1.9223    0.4015 H   0  0  0  0  0  0  0  0  0  0  0  0
   -3.0766   -1.3860   -0.9041 H   0  0  0  0  0  0  0  0  0  0  0  0
    1.6614    1.2385    0.5881 H   0  0  0  0  0  0  0  0  0  0  0  0
    0.4235    2.9908    1.6149 H   0  0  0  0  0  0  0  0  0  0  0  0
   -0.5265    1.7425    2.4402 H   0  0  0  0  0  0  0  0  0  0  0  0
   -1.0777    2.4166    0.8525 H   0  0  0  0  0  0  0  0  0  0  0  0
  1  2  3  0
  2  3  1  0
  3  4  1  0
  4  5  1  0
  5  6  1  0
  4  7  1  0
  7  8  1  0
  8  9  1  0
  8  4  1  0
  1 10  1  0
  3 11  1  0
  3 12  1  0
  5 13  1  0
  5 14  1  0
  6 15  1  0
  6 16  1  0
  6 17  1  0
  8 18  1  0
  9 19  1  0
  9 20  1  0
  9 21  1  0
M  END
