
     RDKit          3D

 17 16  0  0  0  0  0  0  0  0999 V2000
   -0.9509    2.6326   -0.5153 C   0  0  0  0  0  0  0  0  0  0  0  0
   -0.8978    1.5854   -0.4950 C   0  0  0  0  0  0  0  0  0  0  0  0
   -0.8092    0.0406   -0.4400 C   0  0  0  0  0  0  0  0  0  0  0  0
   -2.0108   -0.3906    0.3597 C   0  0  0  0  0  0  0  0  0  0  0  0
   -2.0313   -1.7634    0.4774 O   0  0  0  0  0  0  0  0  0  0  0  0
    0.4578   -0.2839    0.2250 C   0  0  0  0  0  0  0  0  0  0  0  0
    0.5882   -0.7104    1.3988 O   0  0  0  0  0  0  0  0  0  0  0  0
    1.6790   -0.1241   -0.4785 O   0  0  0  0  0  0  0  0  0  0  0  0
    2.9330   -0.4320    0.0803 C   0  0  0  0  0  0  0  0  0  0  0  0
   -1.0163    3.7965   -0.5558 H   0  0  0  0  0  0  0  0  0  0  0  0
   -0.9497   -0.3542   -1.4449 H   0  0  0  0  0  0  0  0  0  0  0  0
   -2.9360   -0.0537   -0.2255 H   0  0  0  0  0  0  0  0  0  0  0  0
   -2.0258    0.0661    1.3572 H   0  0  0  0  0  0  0  0  0  0  0  0
   -1.8520   -2.2259   -0.3963 H   0  0  0  0  0  0  0  0  0  0  0  0
    2.7610   -0.9685    1.0399 H   0  0  0  0  0  0  0  0  0  0  0  0
    3.4403   -1.2449   -0.5511 H   0  0  0  0  0  0  0  0  0  0  0  0
    3.6207    0.4303    0.1640 H   0  0  0  0  0  0  0  0  0  0  0  0
  1  2  3  0
  2  3  1  0
  3  4  1  0
  4  5  1  0
  3  6  1  0
  6  7  2  0
  6  8  1  0
  8  9  1  0
  1 10  1  0
  3 11  1  0
  4 12  1  0
  4 13  1  0
  5 14  1  0
  9 15  1  0
  9 16  1  0
  9 17  1  0
M  END
