
     RDKit          3D

 15 15  0  0  0  0  0  0  0  0999 V2000
    2.6787   -1.3120   -0.2913 C   0  0  0  0  0  0  0  0  0  0  0  0
    1.5014   -1.2094   -0.0066 C   0  0  0  0  0  0  0  0  0  0  0  0
    0.0779   -1.0662    0.3549 C   0  0  0  0  0  0  0  0  0  0  0  0
   -0.0587   -0.0562    1.2625 O   0  0  0  0  0  0  0  0  0  0  0  0
    0.0887    1.2207    0.7161 C   0  0  0  0  0  0  0  0  0  0  0  0
   -0.8614    1.2754   -0.4189 C   0  0  0  0  0  0  0  0  0  0  0  0
   -1.0028    2.2658   -1.0643 O   0  0  0  0  0  0  0  0  0  0  0  0
   -1.6035    0.0226   -0.6772 C   0  0  0  0  0  0  0  0  0  0  0  0
   -0.6556   -0.9864   -0.7948 O   0  0  0  0  0  0  0  0  0  0  0  0
    3.7086   -1.3910   -0.5246 H   0  0  0  0  0  0  0  0  0  0  0  0
   -0.2439   -2.0138    0.8794 H   0  0  0  0  0  0  0  0  0  0  0  0
    1.1263    1.4249    0.4414 H   0  0  0  0  0  0  0  0  0  0  0  0
   -0.3056    1.9278    1.4889 H   0  0  0  0  0  0  0  0  0  0  0  0
   -2.2240    0.1314   -1.5855 H   0  0  0  0  0  0  0  0  0  0  0  0
   -2.2262   -0.2336    0.2199 H   0  0  0  0  0  0  0  0  0  0  0  0
  1  2  3  0
  2  3  1  0
  3  4  1  0
  4  5  1  0
  5  6  1  0
  6  7  2  0
  6  8  1  0
  8  9  1  0
  9  3  1  0
  1 10  1  0
  3 11  1  0
  5 12  1  0
  5 13  1  0
  8 14  1  0
  8 15  1  0
M  END
