
     RDKit          3D

 19 21  0  0  0  0  0  0  0  0999 V2000
    2.6826   -1.3075   -0.1120 C   0  0  0  0  0  0  0  0  0  0  0  0
    1.5821   -0.9847   -0.4869 C   0  0  0  0  0  0  0  0  0  0  0  0
    0.2253   -0.5937   -0.9355 C   0  0  0  0  0  0  0  0  0  0  0  0
   -0.7669   -1.1179    0.0362 C   0  0  0  0  0  0  0  0  0  0  0  0
   -2.1372   -0.6093    0.1675 C   0  0  0  0  0  0  0  0  0  0  0  0
   -0.9953   -0.0099    0.9836 C   0  0  0  0  0  0  0  0  0  0  0  0
   -0.4484    1.2560    0.4181 C   0  0  0  0  0  0  0  0  0  0  0  0
    0.9889    1.5107    0.2405 C   0  0  0  0  0  0  0  0  0  0  0  0
    0.1811    0.9137   -0.8762 C   0  0  0  0  0  0  0  0  0  0  0  0
    3.6510   -1.5727    0.2164 H   0  0  0  0  0  0  0  0  0  0  0  0
    0.1234   -0.9822   -1.9650 H   0  0  0  0  0  0  0  0  0  0  0  0
   -0.5124   -2.1223    0.4642 H   0  0  0  0  0  0  0  0  0  0  0  0
   -2.8369   -1.2445    0.7552 H   0  0  0  0  0  0  0  0  0  0  0  0
   -2.6152    0.0169   -0.6132 H   0  0  0  0  0  0  0  0  0  0  0  0
   -0.9470   -0.2268    2.0683 H   0  0  0  0  0  0  0  0  0  0  0  0
   -1.1481    2.1280    0.5096 H   0  0  0  0  0  0  0  0  0  0  0  0
    1.7670    0.8637    0.7426 H   0  0  0  0  0  0  0  0  0  0  0  0
    1.2763    2.5890    0.1571 H   0  0  0  0  0  0  0  0  0  0  0  0
   -0.0703    1.4936   -1.7704 H   0  0  0  0  0  0  0  0  0  0  0  0
  1  2  3  0
  2  3  1  0
  3  4  1  0
  4  5  1  0
  5  6  1  0
  6  7  1  0
  7  8  1  0
  8  9  1  0
  9  3  1  0
  6  4  1  0
  9  7  1  0
  1 10  1  0
  3 11  1  0
  4 12  1  0
  5 13  1  0
  5 14  1  0
  6 15  1  0
  7 16  1  0
  8 17  1  0
  8 18  1  0
  9 19  1  0
M  END
