
     RDKit          3D

 21 20  0  0  0  0  0  0  0  0999 V2000
   -2.2532   -1.7884    0.1256 C   0  0  0  0  0  0  0  0  0  0  0  0
   -1.7434   -0.7024    0.3102 C   0  0  0  0  0  0  0  0  0  0  0  0
   -1.1320    0.6128    0.5393 C   0  0  0  0  0  0  0  0  0  0  0  0
   -0.7967    0.7992    1.8758 O   0  0  0  0  0  0  0  0  0  0  0  0
    0.0567    0.7593   -0.3773 C   0  0  0  0  0  0  0  0  0  0  0  0
   -0.4407    0.6420   -1.7993 C   0  0  0  0  0  0  0  0  0  0  0  0
    1.1067   -0.2851   -0.1346 C   0  0  0  0  0  0  0  0  0  0  0  0
    1.6588   -0.2498    1.2666 C   0  0  0  0  0  0  0  0  0  0  0  0
    2.1734   -0.0634   -1.0039 O   0  0  0  0  0  0  0  0  0  0  0  0
   -2.6893   -2.7423   -0.0205 H   0  0  0  0  0  0  0  0  0  0  0  0
   -1.9107    1.3602    0.2854 H   0  0  0  0  0  0  0  0  0  0  0  0
   -1.5920    1.0680    2.4029 H   0  0  0  0  0  0  0  0  0  0  0  0
    0.5201    1.7498   -0.2168 H   0  0  0  0  0  0  0  0  0  0  0  0
   -0.1157    1.5213   -2.4084 H   0  0  0  0  0  0  0  0  0  0  0  0
   -1.5569    0.6488   -1.8577 H   0  0  0  0  0  0  0  0  0  0  0  0
   -0.1173   -0.3078   -2.2804 H   0  0  0  0  0  0  0  0  0  0  0  0
    0.7416   -1.3137   -0.3302 H   0  0  0  0  0  0  0  0  0  0  0  0
    2.7530   -0.4820    1.2719 H   0  0  0  0  0  0  0  0  0  0  0  0
    1.5359    0.7421    1.7452 H   0  0  0  0  0  0  0  0  0  0  0  0
    1.1800   -1.0469    1.8773 H   0  0  0  0  0  0  0  0  0  0  0  0
    2.6216   -0.9218   -1.2712 H   0  0  0  0  0  0  0  0  0  0  0  0
  1  2  3  0
  2  3  1  0
  3  4  1  0
  3  5  1  0
  5  6  1  0
  5  7  1  0
  7  8  1  0
  7  9  1  0
  1 10  1  0
  3 11  1  0
  4 12  1  0
  5 13  1  0
  6 14  1  0
  6 15  1  0
  6 16  1  0
  7 17  1  0
  8 18  1  0
  8 19  1  0
  8 20  1  0
  9 21  1  0
M  END
