
     RDKit          3D

 17 17  0  0  0  0  0  0  0  0999 V2000
   -0.2769    2.8348   -0.7057 C   0  0  0  0  0  0  0  0  0  0  0  0
   -0.0194    1.6224   -0.3063 C   0  0  0  0  0  0  0  0  0  0  0  0
    0.1701    0.6448    0.0124 C   0  0  0  0  0  0  0  0  0  0  0  0
   -1.0790   -0.3246    0.3294 C   0  0  0  0  0  0  0  0  0  0  0  0
   -1.7967   -1.2406   -0.5640 C   0  0  0  0  0  0  0  0  0  0  0  0
   -1.4343   -0.3142    1.5157 O   0  0  0  0  0  0  0  0  0  0  0  0
    1.3150   -0.1636   -0.7158 C   0  0  0  0  0  0  0  0  0  0  0  0
    1.4321    0.0358    0.7610 C   0  0  0  0  0  0  0  0  0  0  0  0
    1.4304   -1.0937    1.5467 O   0  0  0  0  0  0  0  0  0  0  0  0
   -0.4975    3.9280   -1.0818 H   0  0  0  0  0  0  0  0  0  0  0  0
   -1.2241   -1.5546   -1.4441 H   0  0  0  0  0  0  0  0  0  0  0  0
   -2.7057   -0.6074   -0.8751 H   0  0  0  0  0  0  0  0  0  0  0  0
   -2.2256   -2.0729   -0.0355 H   0  0  0  0  0  0  0  0  0  0  0  0
    1.1672   -1.1947   -1.0870 H   0  0  0  0  0  0  0  0  0  0  0  0
    1.9248    0.5079   -1.3568 H   0  0  0  0  0  0  0  0  0  0  0  0
    2.0479    0.8789    1.1617 H   0  0  0  0  0  0  0  0  0  0  0  0
    1.7717   -1.8863    1.0185 H   0  0  0  0  0  0  0  0  0  0  0  0
  1  2  3  0
  2  3  1  0
  3  4  1  0
  4  5  1  0
  4  6  2  0
  3  7  1  0
  7  8  1  0
  8  9  1  0
  8  3  1  0
  1 10  1  0
  5 11  1  0
  5 12  1  0
  5 13  1  0
  7 14  1  0
  7 15  1  0
  8 16  1  0
  9 17  1  0
M  END
