
     RDKit          3D

 21 21  0  0  0  0  0  0  0  0999 V2000
   -1.3193    2.6677   -0.2799 C   0  0  0  0  0  0  0  0  0  0  0  0
   -0.9849    1.4443    0.1516 C   0  0  0  0  0  0  0  0  0  0  0  0
   -0.6510    0.2129    0.5686 C   0  0  0  0  0  0  0  0  0  0  0  0
    0.1024    0.3280    1.7989 O   0  0  0  0  0  0  0  0  0  0  0  0
   -0.5755   -0.1415    2.8810 C   0  0  0  0  0  0  0  0  0  0  0  0
    0.2328   -0.6254   -0.2838 C   0  0  0  0  0  0  0  0  0  0  0  0
   -0.2038   -0.9938   -1.6699 C   0  0  0  0  0  0  0  0  0  0  0  0
    1.2741   -0.8675   -2.0619 C   0  0  0  0  0  0  0  0  0  0  0  0
    1.4091    0.1178   -0.9248 C   0  0  0  0  0  0  0  0  0  0  0  0
   -1.5920    3.6944   -0.6590 H   0  0  0  0  0  0  0  0  0  0  0  0
   -1.5496   -0.3768    0.9006 H   0  0  0  0  0  0  0  0  0  0  0  0
    0.1408   -0.1050    3.7661 H   0  0  0  0  0  0  0  0  0  0  0  0
   -1.4181    0.5817    3.1658 H   0  0  0  0  0  0  0  0  0  0  0  0
   -0.9613   -1.1432    2.7362 H   0  0  0  0  0  0  0  0  0  0  0  0
    0.6297   -1.4845    0.3176 H   0  0  0  0  0  0  0  0  0  0  0  0
   -0.7797   -0.1846   -2.1450 H   0  0  0  0  0  0  0  0  0  0  0  0
   -0.5954   -2.0150   -1.7847 H   0  0  0  0  0  0  0  0  0  0  0  0
    1.4702   -0.4507   -3.0579 H   0  0  0  0  0  0  0  0  0  0  0  0
    1.8762   -1.8055   -1.8582 H   0  0  0  0  0  0  0  0  0  0  0  0
    1.1879    1.1470   -1.2837 H   0  0  0  0  0  0  0  0  0  0  0  0
    2.3072   -0.0004   -0.2774 H   0  0  0  0  0  0  0  0  0  0  0  0
  1  2  3  0
  2  3  1  0
  3  4  1  0
  4  5  1  0
  3  6  1  0
  6  7  1  0
  7  8  1  0
  8  9  1  0
  9  6  1  0
  1 10  1  0
  3 11  1  0
  5 12  1  0
  5 13  1  0
  5 14  1  0
  6 15  1  0
  7 16  1  0
  7 17  1  0
  8 18  1  0
  8 19  1  0
  9 20  1  0
  9 21  1  0
M  END
