
     RDKit          3D

 19 19  0  0  0  0  0  0  0  0999 V2000
    4.1995    0.8218   -0.0478 C   0  0  0  0  0  0  0  0  0  0  0  0
    3.1991    0.2083    0.2448 C   0  0  0  0  0  0  0  0  0  0  0  0
    1.9808   -0.5260    0.5974 C   0  0  0  0  0  0  0  0  0  0  0  0
    0.9094    0.2031    0.1299 O   0  0  0  0  0  0  0  0  0  0  0  0
   -0.3219   -0.3805    0.3965 C   0  0  0  0  0  0  0  0  0  0  0  0
   -1.0365   -0.6560   -0.9059 C   0  0  0  0  0  0  0  0  0  0  0  0
   -2.0417    0.4856   -0.9427 C   0  0  0  0  0  0  0  0  0  0  0  0
   -2.3142    0.6271    0.5586 C   0  0  0  0  0  0  0  0  0  0  0  0
   -1.0658    0.5343    1.1011 O   0  0  0  0  0  0  0  0  0  0  0  0
    5.0898    1.3590   -0.2899 H   0  0  0  0  0  0  0  0  0  0  0  0
    2.0255   -1.5538    0.1820 H   0  0  0  0  0  0  0  0  0  0  0  0
    1.9315   -0.5314    1.7233 H   0  0  0  0  0  0  0  0  0  0  0  0
   -0.2459   -1.3327    0.9388 H   0  0  0  0  0  0  0  0  0  0  0  0
   -0.3719   -0.6595   -1.7726 H   0  0  0  0  0  0  0  0  0  0  0  0
   -1.6518   -1.5905   -0.8366 H   0  0  0  0  0  0  0  0  0  0  0  0
   -1.5790    1.4151   -1.3002 H   0  0  0  0  0  0  0  0  0  0  0  0
   -2.9861    0.2164   -1.4124 H   0  0  0  0  0  0  0  0  0  0  0  0
   -2.9381   -0.2368    0.8785 H   0  0  0  0  0  0  0  0  0  0  0  0
   -2.7824    1.5964    0.7572 H   0  0  0  0  0  0  0  0  0  0  0  0
  1  2  3  0
  2  3  1  0
  3  4  1  0
  4  5  1  0
  5  6  1  0
  6  7  1  0
  7  8  1  0
  8  9  1  0
  9  5  1  0
  1 10  1  0
  3 11  1  0
  3 12  1  0
  5 13  1  0
  6 14  1  0
  6 15  1  0
  7 16  1  0
  7 17  1  0
  8 18  1  0
  8 19  1  0
M  END
