
     RDKit          3D

 15 15  0  0  0  0  0  0  0  0999 V2000
    0.0931    2.5388    0.1381 C   0  0  0  0  0  0  0  0  0  0  0  0
   -0.2635    1.3817    0.2136 C   0  0  0  0  0  0  0  0  0  0  0  0
   -0.6858   -0.0162    0.3278 C   0  0  0  0  0  0  0  0  0  0  0  0
   -2.1431   -0.2491    0.3079 C   0  0  0  0  0  0  0  0  0  0  0  0
   -3.3327   -0.4543    0.3053 C   0  0  0  0  0  0  0  0  0  0  0  0
    0.0450   -0.7599    1.2732 O   0  0  0  0  0  0  0  0  0  0  0  0
    0.1542   -1.0610   -0.1716 C   0  0  0  0  0  0  0  0  0  0  0  0
    1.5963   -0.8261   -0.5882 C   0  0  0  0  0  0  0  0  0  0  0  0
    1.8938    0.4972   -0.3299 O   0  0  0  0  0  0  0  0  0  0  0  0
    0.4013    3.5521    0.0835 H   0  0  0  0  0  0  0  0  0  0  0  0
   -4.3869   -0.6461    0.2974 H   0  0  0  0  0  0  0  0  0  0  0  0
   -0.2393   -2.0541   -0.4147 H   0  0  0  0  0  0  0  0  0  0  0  0
    2.2523   -1.4438    0.0853 H   0  0  0  0  0  0  0  0  0  0  0  0
    1.7617   -1.0203   -1.6451 H   0  0  0  0  0  0  0  0  0  0  0  0
    2.8536    0.5611   -0.0900 H   0  0  0  0  0  0  0  0  0  0  0  0
  1  2  3  0
  2  3  1  0
  3  4  1  0
  4  5  3  0
  3  6  1  0
  6  7  1  0
  7  8  1  0
  8  9  1  0
  7  3  1  0
  1 10  1  0
  5 11  1  0
  7 12  1  0
  8 13  1  0
  8 14  1  0
  9 15  1  0
M  END
