
     RDKit          3D

 21 21  0  0  0  0  0  0  0  0999 V2000
    2.9605    0.2710    0.4763 C   0  0  0  0  0  0  0  0  0  0  0  0
    1.8530    0.3745    0.0267 C   0  0  0  0  0  0  0  0  0  0  0  0
    0.5232    0.4966   -0.5090 C   0  0  0  0  0  0  0  0  0  0  0  0
   -0.1708    1.7786   -0.0272 C   0  0  0  0  0  0  0  0  0  0  0  0
   -1.6163    1.3515   -0.3087 C   0  0  0  0  0  0  0  0  0  0  0  0
   -1.6766    0.0605    0.1362 O   0  0  0  0  0  0  0  0  0  0  0  0
   -0.4458   -0.5316   -0.0026 C   0  0  0  0  0  0  0  0  0  0  0  0
   -0.4923   -1.7011   -0.9795 C   0  0  0  0  0  0  0  0  0  0  0  0
   -0.0462   -1.0877    1.3510 C   0  0  0  0  0  0  0  0  0  0  0  0
    3.9470    0.1612    0.8841 H   0  0  0  0  0  0  0  0  0  0  0  0
    0.4807    0.4983   -1.6124 H   0  0  0  0  0  0  0  0  0  0  0  0
   -0.0386    1.9070    1.0564 H   0  0  0  0  0  0  0  0  0  0  0  0
    0.1209    2.6500   -0.6255 H   0  0  0  0  0  0  0  0  0  0  0  0
   -1.7227    1.4119   -1.4136 H   0  0  0  0  0  0  0  0  0  0  0  0
   -2.3393    2.0096    0.2145 H   0  0  0  0  0  0  0  0  0  0  0  0
   -1.1389   -2.5123   -0.6011 H   0  0  0  0  0  0  0  0  0  0  0  0
    0.5718   -2.0560   -1.1097 H   0  0  0  0  0  0  0  0  0  0  0  0
   -0.7897   -1.3254   -1.9795 H   0  0  0  0  0  0  0  0  0  0  0  0
   -0.0804   -0.3043    2.1350 H   0  0  0  0  0  0  0  0  0  0  0  0
    0.9179   -1.6031    1.2787 H   0  0  0  0  0  0  0  0  0  0  0  0
   -0.8174   -1.8492    1.6100 H   0  0  0  0  0  0  0  0  0  0  0  0
  1  2  3  0
  2  3  1  0
  3  4  1  0
  4  5  1  0
  5  6  1  0
  6  7  1  0
  7  8  1  0
  7  9  1  0
  7  3  1  0
  1 10  1  0
  3 11  1  0
  4 12  1  0
  4 13  1  0
  5 14  1  0
  5 15  1  0
  8 16  1  0
  8 17  1  0
  8 18  1  0
  9 19  1  0
  9 20  1  0
  9 21  1  0
M  END
