
     RDKit          3D

 13 13  0  0  0  0  0  0  0  0999 V2000
    2.8002    0.8669   -0.8896 C   0  0  0  0  0  0  0  0  0  0  0  0
    1.8468    0.1408   -0.7181 C   0  0  0  0  0  0  0  0  0  0  0  0
    0.7028   -0.7021   -0.5039 C   0  0  0  0  0  0  0  0  0  0  0  0
    0.8298   -1.8828   -0.1400 O   0  0  0  0  0  0  0  0  0  0  0  0
   -0.6385   -0.1140   -0.7325 C   0  0  0  0  0  0  0  0  0  0  0  0
   -1.1324    0.6117    0.5224 C   0  0  0  0  0  0  0  0  0  0  0  0
   -1.5660   -0.7714    0.8527 C   0  0  0  0  0  0  0  0  0  0  0  0
   -1.7179   -1.4077    1.9281 O   0  0  0  0  0  0  0  0  0  0  0  0
   -1.7095   -0.9972   -0.5034 O   0  0  0  0  0  0  0  0  0  0  0  0
    3.6372    1.5230   -1.0303 H   0  0  0  0  0  0  0  0  0  0  0  0
   -0.7281    0.5082   -1.6555 H   0  0  0  0  0  0  0  0  0  0  0  0
   -1.9898    1.2606    0.3460 H   0  0  0  0  0  0  0  0  0  0  0  0
   -0.3343    0.9638    1.1822 H   0  0  0  0  0  0  0  0  0  0  0  0
  1  2  3  0
  2  3  1  0
  3  4  2  0
  3  5  1  0
  5  6  1  0
  6  7  1  0
  7  8  2  0
  7  9  1  0
  9  5  1  0
  1 10  1  0
  5 11  1  0
  6 12  1  0
  6 13  1  0
M  END
