
     RDKit          3D

 19 18  0  0  0  0  0  0  0  0999 V2000
    3.9465    2.2581    0.6948 C   0  0  0  0  0  0  0  0  0  0  0  0
    3.3209    1.2714    0.3755 C   0  0  0  0  0  0  0  0  0  0  0  0
    2.5756    0.0975    0.0211 C   0  0  0  0  0  0  0  0  0  0  0  0
    3.1162   -0.8632   -0.5462 O   0  0  0  0  0  0  0  0  0  0  0  0
    1.1132    0.0353    0.3454 C   0  0  0  0  0  0  0  0  0  0  0  0
    0.5484   -1.1483   -0.0570 O   0  0  0  0  0  0  0  0  0  0  0  0
   -0.7865   -1.2163    0.2364 C   0  0  0  0  0  0  0  0  0  0  0  0
   -1.6390   -0.1577   -0.3918 C   0  0  0  0  0  0  0  0  0  0  0  0
   -3.0809   -0.3932    0.0429 C   0  0  0  0  0  0  0  0  0  0  0  0
    4.4985    3.1177    0.9631 H   0  0  0  0  0  0  0  0  0  0  0  0
    1.0261    0.1695    1.4418 H   0  0  0  0  0  0  0  0  0  0  0  0
    0.6681    0.9390   -0.1322 H   0  0  0  0  0  0  0  0  0  0  0  0
   -0.9673   -1.2107    1.3403 H   0  0  0  0  0  0  0  0  0  0  0  0
   -1.1759   -2.2146   -0.1120 H   0  0  0  0  0  0  0  0  0  0  0  0
   -1.3593    0.8499    0.0095 H   0  0  0  0  0  0  0  0  0  0  0  0
   -1.5621   -0.1520   -1.4782 H   0  0  0  0  0  0  0  0  0  0  0  0
   -3.7323   -0.1183   -0.8206 H   0  0  0  0  0  0  0  0  0  0  0  0
   -3.1972   -1.4787    0.2065 H   0  0  0  0  0  0  0  0  0  0  0  0
   -3.3130    0.2145    0.9392 H   0  0  0  0  0  0  0  0  0  0  0  0
  1  2  3  0
  2  3  1  0
  3  4  2  0
  3  5  1  0
  5  6  1  0
  6  7  1  0
  7  8  1  0
  8  9  1  0
  1 10  1  0
  5 11  1  0
  5 12  1  0
  7 13  1  0
  7 14  1  0
  8 15  1  0
  8 16  1  0
  9 17  1  0
  9 18  1  0
  9 19  1  0
M  END
