
     RDKit          3D

 19 20  0  0  0  0  0  0  0  0999 V2000
    3.3820    1.1977   -0.2101 C   0  0  0  0  0  0  0  0  0  0  0  0
    2.0015    0.0587   -0.0376 C   0  0  0  0  0  0  0  0  0  0  0  0
    1.2590   -0.5408    0.0584 C   0  0  0  0  0  0  0  0  0  0  0  0
    0.8217   -1.5047   -1.2153 C   0  0  0  0  0  0  0  0  0  0  0  0
   -0.3489   -0.4082   -1.2498 C   0  0  0  0  0  0  0  0  0  0  0  0
   -1.3768   -0.8258   -0.2888 C   0  0  0  0  0  0  0  0  0  0  0  0
   -0.2329   -0.0408    0.1274 C   0  0  0  0  0  0  0  0  0  0  0  0
   -0.3498    1.1683    0.7074 O   0  0  0  0  0  0  0  0  0  0  0  0
   -1.7179    1.5535    0.8595 C   0  0  0  0  0  0  0  0  0  0  0  0
    4.0674    1.7682   -0.2929 H   0  0  0  0  0  0  0  0  0  0  0  0
    1.1455   -1.4745    0.9164 H   0  0  0  0  0  0  0  0  0  0  0  0
    0.4743   -2.3999   -1.0289 H   0  0  0  0  0  0  0  0  0  0  0  0
    1.5104   -1.3147   -2.0319 H   0  0  0  0  0  0  0  0  0  0  0  0
   -0.5754    0.0257   -2.1927 H   0  0  0  0  0  0  0  0  0  0  0  0
   -2.4069   -0.4535   -0.5938 H   0  0  0  0  0  0  0  0  0  0  0  0
   -1.4084   -1.8484    0.2226 H   0  0  0  0  0  0  0  0  0  0  0  0
   -1.7958    2.6438    1.1763 H   0  0  0  0  0  0  0  0  0  0  0  0
   -2.1833    1.0391    1.7689 H   0  0  0  0  0  0  0  0  0  0  0  0
   -2.2658    1.3564   -0.0317 H   0  0  0  0  0  0  0  0  0  0  0  0
  1  2  3  0
  2  3  1  0
  3  4  1  0
  4  5  1  0
  5  6  1  0
  6  7  1  0
  7  8  1  0
  8  9  1  0
  7  3  1  0
  7  5  1  0
  1 10  1  0
  3 11  1  0
  4 12  1  0
  4 13  1  0
  5 14  1  0
  6 15  1  0
  6 16  1  0
  9 17  1  0
  9 18  1  0
  9 19  1  0
M  END
