
     RDKit          3D

 21 20  0  0  0  0  0  0  0  0999 V2000
   -2.9865    1.2210    0.5563 C   0  0  0  0  0  0  0  0  0  0  0  0
   -2.3118    0.2507    0.2869 C   0  0  0  0  0  0  0  0  0  0  0  0
   -1.4962   -0.8994   -0.0154 C   0  0  0  0  0  0  0  0  0  0  0  0
   -1.7289   -1.9648    0.8462 O   0  0  0  0  0  0  0  0  0  0  0  0
   -0.0107   -0.5251   -0.0351 C   0  0  0  0  0  0  0  0  0  0  0  0
    0.6903   -1.7245   -0.6901 C   0  0  0  0  0  0  0  0  0  0  0  0
    0.1534    0.5353   -0.9064 O   0  0  0  0  0  0  0  0  0  0  0  0
    0.7912    1.6179   -0.3525 C   0  0  0  0  0  0  0  0  0  0  0  0
    2.1838    1.3061    0.1472 C   0  0  0  0  0  0  0  0  0  0  0  0
   -3.5806    2.0782    0.7997 H   0  0  0  0  0  0  0  0  0  0  0  0
   -1.7590   -1.2337   -1.0617 H   0  0  0  0  0  0  0  0  0  0  0  0
   -1.5976   -2.8028    0.3290 H   0  0  0  0  0  0  0  0  0  0  0  0
    0.3828   -0.3665    0.9676 H   0  0  0  0  0  0  0  0  0  0  0  0
    0.3784   -1.6876   -1.7613 H   0  0  0  0  0  0  0  0  0  0  0  0
    1.7782   -1.5504   -0.6836 H   0  0  0  0  0  0  0  0  0  0  0  0
    0.3735   -2.6421   -0.1795 H   0  0  0  0  0  0  0  0  0  0  0  0
    0.9168    2.3753   -1.1660 H   0  0  0  0  0  0  0  0  0  0  0  0
    0.1997    2.1174    0.4452 H   0  0  0  0  0  0  0  0  0  0  0  0
    2.2306    0.4904    0.8647 H   0  0  0  0  0  0  0  0  0  0  0  0
    2.5451    2.2378    0.6660 H   0  0  0  0  0  0  0  0  0  0  0  0
    2.8476    1.1668   -0.7320 H   0  0  0  0  0  0  0  0  0  0  0  0
  1  2  3  0
  2  3  1  0
  3  4  1  0
  3  5  1  0
  5  6  1  0
  5  7  1  0
  7  8  1  0
  8  9  1  0
  1 10  1  0
  3 11  1  0
  4 12  1  0
  5 13  1  0
  6 14  1  0
  6 15  1  0
  6 16  1  0
  8 17  1  0
  8 18  1  0
  9 19  1  0
  9 20  1  0
  9 21  1  0
M  END
