
     RDKit          3D

 19 19  0  0  0  0  0  0  0  0999 V2000
    3.3888    0.9120    0.6236 C   0  0  0  0  0  0  0  0  0  0  0  0
    2.3362    0.3537    0.4385 C   0  0  0  0  0  0  0  0  0  0  0  0
    1.0541   -0.3554    0.2085 C   0  0  0  0  0  0  0  0  0  0  0  0
    0.6353   -0.1511   -1.2212 C   0  0  0  0  0  0  0  0  0  0  0  0
   -0.7954    0.3362   -1.1654 C   0  0  0  0  0  0  0  0  0  0  0  0
   -1.2130    0.3405    0.2719 C   0  0  0  0  0  0  0  0  0  0  0  0
   -2.0618   -0.8590    0.6238 C   0  0  0  0  0  0  0  0  0  0  0  0
    0.0364    0.3202    1.0396 C   0  0  0  0  0  0  0  0  0  0  0  0
    0.2151    0.7726    2.1555 O   0  0  0  0  0  0  0  0  0  0  0  0
    4.3057    1.4174    0.7815 H   0  0  0  0  0  0  0  0  0  0  0  0
    1.1988   -1.4182    0.4759 H   0  0  0  0  0  0  0  0  0  0  0  0
    1.2932    0.5532   -1.7731 H   0  0  0  0  0  0  0  0  0  0  0  0
    0.6305   -1.1734   -1.7020 H   0  0  0  0  0  0  0  0  0  0  0  0
   -0.8590    1.3741   -1.5993 H   0  0  0  0  0  0  0  0  0  0  0  0
   -1.4806   -0.3174   -1.7791 H   0  0  0  0  0  0  0  0  0  0  0  0
   -1.8136    1.2637    0.4566 H   0  0  0  0  0  0  0  0  0  0  0  0
   -3.0549   -0.7529    0.1295 H   0  0  0  0  0  0  0  0  0  0  0  0
   -2.2581   -0.8226    1.7221 H   0  0  0  0  0  0  0  0  0  0  0  0
   -1.5578   -1.7937    0.3132 H   0  0  0  0  0  0  0  0  0  0  0  0
  1  2  3  0
  2  3  1  0
  3  4  1  0
  4  5  1  0
  5  6  1  0
  6  7  1  0
  6  8  1  0
  8  9  2  0
  8  3  1  0
  1 10  1  0
  3 11  1  0
  4 12  1  0
  4 13  1  0
  5 14  1  0
  5 15  1  0
  6 16  1  0
  7 17  1  0
  7 18  1  0
  7 19  1  0
M  END
