
     RDKit          3D

 15 15  0  0  0  0  0  0  0  0999 V2000
    1.4541    1.5827    1.8466 C   0  0  0  0  0  0  0  0  0  0  0  0
    1.3739    1.0613    0.7349 C   0  0  0  0  0  0  0  0  0  0  0  0
    1.2894    0.4331   -0.5566 C   0  0  0  0  0  0  0  0  0  0  0  0
   -0.0108    0.6942   -1.1538 C   0  0  0  0  0  0  0  0  0  0  0  0
   -0.7935   -0.3357   -0.8821 C   0  0  0  0  0  0  0  0  0  0  0  0
   -2.1764   -0.5475   -1.2554 C   0  0  0  0  0  0  0  0  0  0  0  0
   -2.7931   -1.5849   -0.9240 O   0  0  0  0  0  0  0  0  0  0  0  0
    0.0216   -1.3239   -0.0866 C   0  0  0  0  0  0  0  0  0  0  0  0
    1.3396   -0.9696   -0.4725 O   0  0  0  0  0  0  0  0  0  0  0  0
    1.5426    2.0403    2.8256 H   0  0  0  0  0  0  0  0  0  0  0  0
    2.1457    0.7373   -1.2326 H   0  0  0  0  0  0  0  0  0  0  0  0
   -0.3731    1.5502   -1.7359 H   0  0  0  0  0  0  0  0  0  0  0  0
   -2.7375    0.1895   -1.8409 H   0  0  0  0  0  0  0  0  0  0  0  0
   -0.1728   -2.3575   -0.4116 H   0  0  0  0  0  0  0  0  0  0  0  0
   -0.1096   -1.1694    0.9853 H   0  0  0  0  0  0  0  0  0  0  0  0
  1  2  3  0
  2  3  1  0
  3  4  1  0
  4  5  2  0
  5  6  1  0
  6  7  2  0
  5  8  1  0
  8  9  1  0
  9  3  1  0
  1 10  1  0
  3 11  1  0
  4 12  1  0
  6 13  1  0
  8 14  1  0
  8 15  1  0
M  END
