
     RDKit          3D

 17 18  0  0  0  0  0  0  0  0999 V2000
    2.5657   -0.0879   -1.5962 C   0  0  0  0  0  0  0  0  0  0  0  0
    1.4512   -0.3545   -1.2406 C   0  0  0  0  0  0  0  0  0  0  0  0
    0.0731   -0.7054   -0.7906 C   0  0  0  0  0  0  0  0  0  0  0  0
   -0.8009    0.4944   -0.8101 C   0  0  0  0  0  0  0  0  0  0  0  0
   -1.5008    0.6784    0.5122 C   0  0  0  0  0  0  0  0  0  0  0  0
   -0.6186    0.7843    1.5802 O   0  0  0  0  0  0  0  0  0  0  0  0
    0.4649   -0.1537    1.3957 C   0  0  0  0  0  0  0  0  0  0  0  0
   -0.1401   -1.2296    0.6258 C   0  0  0  0  0  0  0  0  0  0  0  0
    0.0093   -1.9608   -0.4402 O   0  0  0  0  0  0  0  0  0  0  0  0
    3.5485    0.1518   -1.9290 H   0  0  0  0  0  0  0  0  0  0  0  0
   -1.4873    0.5110   -1.6757 H   0  0  0  0  0  0  0  0  0  0  0  0
   -0.1453    1.4358   -0.9514 H   0  0  0  0  0  0  0  0  0  0  0  0
   -1.9337    1.7365    0.4464 H   0  0  0  0  0  0  0  0  0  0  0  0
   -2.3792    0.0638    0.6550 H   0  0  0  0  0  0  0  0  0  0  0  0
    1.2102    0.4624    0.8632 H   0  0  0  0  0  0  0  0  0  0  0  0
    0.9083   -0.4194    2.3638 H   0  0  0  0  0  0  0  0  0  0  0  0
   -1.2254   -1.4071    0.9915 H   0  0  0  0  0  0  0  0  0  0  0  0
  1  2  3  0
  2  3  1  0
  3  4  1  0
  4  5  1  0
  5  6  1  0
  6  7  1  0
  7  8  1  0
  8  9  1  0
  8  3  1  0
  9  3  1  0
  1 10  1  0
  4 11  1  0
  4 12  1  0
  5 13  1  0
  5 14  1  0
  7 15  1  0
  7 16  1  0
  8 17  1  0
M  END
