
     RDKit          3D

 18 19  0  0  0  0  0  0  0  0999 V2000
    3.6206   -0.1189    0.4888 C   0  0  0  0  0  0  0  0  0  0  0  0
    2.5170   -0.3520    0.3666 C   0  0  0  0  0  0  0  0  0  0  0  0
    1.0545   -0.6788    0.2102 C   0  0  0  0  0  0  0  0  0  0  0  0
    0.3151    0.0403   -0.8199 C   0  0  0  0  0  0  0  0  0  0  0  0
   -1.0775   -0.4035   -1.2313 C   0  0  0  0  0  0  0  0  0  0  0  0
   -2.0233    0.3471   -0.2926 C   0  0  0  0  0  0  0  0  0  0  0  0
   -1.2327    0.2688    1.0192 C   0  0  0  0  0  0  0  0  0  0  0  0
    0.1791    0.5681    0.5692 C   0  0  0  0  0  0  0  0  0  0  0  0
    4.7703    0.1359    0.6004 H   0  0  0  0  0  0  0  0  0  0  0  0
    0.7569   -1.5892    0.7372 H   0  0  0  0  0  0  0  0  0  0  0  0
    0.8782    0.6419   -1.5630 H   0  0  0  0  0  0  0  0  0  0  0  0
   -1.1587   -1.4890   -1.1225 H   0  0  0  0  0  0  0  0  0  0  0  0
   -1.3131   -0.1551   -2.2981 H   0  0  0  0  0  0  0  0  0  0  0  0
   -2.1475    1.3905   -0.5710 H   0  0  0  0  0  0  0  0  0  0  0  0
   -2.9511   -0.2118   -0.1379 H   0  0  0  0  0  0  0  0  0  0  0  0
   -1.2723   -0.8143    1.3345 H   0  0  0  0  0  0  0  0  0  0  0  0
   -1.6234    0.9601    1.7698 H   0  0  0  0  0  0  0  0  0  0  0  0
    0.7080    1.4599    0.9404 H   0  0  0  0  0  0  0  0  0  0  0  0
  1  2  3  0
  2  3  1  0
  3  4  1  0
  4  5  1  0
  5  6  1  0
  6  7  1  0
  7  8  1  0
  8  3  1  0
  8  4  1  0
  1  9  1  0
  3 10  1  0
  4 11  1  0
  5 12  1  0
  5 13  1  0
  6 14  1  0
  6 15  1  0
  7 16  1  0
  7 17  1  0
  8 18  1  0
M  END
