
     RDKit          3D

 19 20  0  0  0  0  0  0  0  0999 V2000
    1.1256   -2.9407   -0.7447 C   0  0  0  0  0  0  0  0  0  0  0  0
    0.8634   -1.9684   -0.1923 C   0  0  0  0  0  0  0  0  0  0  0  0
    0.5275   -0.6496    0.5763 C   0  0  0  0  0  0  0  0  0  0  0  0
    1.8836    0.1582    0.2630 C   0  0  0  0  0  0  0  0  0  0  0  0
    1.0069    1.3497    0.3780 C   0  0  0  0  0  0  0  0  0  0  0  0
   -0.1166    0.4023   -0.1970 C   0  0  0  0  0  0  0  0  0  0  0  0
   -1.3997    1.0308    0.1522 C   0  0  0  0  0  0  0  0  0  0  0  0
   -2.7082    0.3016    0.1830 C   0  0  0  0  0  0  0  0  0  0  0  0
   -2.0422    0.7621    1.3721 O   0  0  0  0  0  0  0  0  0  0  0  0
    1.3735   -3.8937   -1.2992 H   0  0  0  0  0  0  0  0  0  0  0  0
    0.4654   -0.7995    1.6260 H   0  0  0  0  0  0  0  0  0  0  0  0
    2.6512   -0.0458    0.9928 H   0  0  0  0  0  0  0  0  0  0  0  0
    2.1755    0.0093   -0.8042 H   0  0  0  0  0  0  0  0  0  0  0  0
    0.8050    1.6042    1.4197 H   0  0  0  0  0  0  0  0  0  0  0  0
    1.2296    2.1963   -0.2519 H   0  0  0  0  0  0  0  0  0  0  0  0
    0.0386    0.2902   -1.3142 H   0  0  0  0  0  0  0  0  0  0  0  0
   -1.5218    2.1420   -0.1064 H   0  0  0  0  0  0  0  0  0  0  0  0
   -2.6954   -0.8109    0.1318 H   0  0  0  0  0  0  0  0  0  0  0  0
   -3.6615    0.8618    0.0116 H   0  0  0  0  0  0  0  0  0  0  0  0
  1  2  3  0
  2  3  1  0
  3  4  1  0
  4  5  1  0
  5  6  1  0
  6  7  1  0
  7  8  1  0
  8  9  1  0
  6  3  1  0
  9  7  1  0
  1 10  1  0
  3 11  1  0
  4 12  1  0
  4 13  1  0
  5 14  1  0
  5 15  1  0
  6 16  1  0
  7 17  1  0
  8 18  1  0
  8 19  1  0
M  END
