
     RDKit          3D

 14 14  0  0  0  0  0  0  0  0999 V2000
   -0.3463    1.9055    1.8537 C   0  0  0  0  0  0  0  0  0  0  0  0
   -0.2444    0.9747    0.9352 C   0  0  0  0  0  0  0  0  0  0  0  0
   -0.1369    0.1172    0.0830 C   0  0  0  0  0  0  0  0  0  0  0  0
    1.3750   -0.0229   -0.0831 C   0  0  0  0  0  0  0  0  0  0  0  0
    2.6453   -0.1620   -0.2157 C   0  0  0  0  0  0  0  0  0  0  0  0
   -1.0156   -0.9878   -0.1542 C   0  0  0  0  0  0  0  0  0  0  0  0
   -0.6712   -0.6248   -1.6727 C   0  0  0  0  0  0  0  0  0  0  0  0
   -0.6161    0.6846   -1.2252 O   0  0  0  0  0  0  0  0  0  0  0  0
   -0.4825    3.0037    2.9242 H   0  0  0  0  0  0  0  0  0  0  0  0
    3.7817   -0.2686   -0.3233 H   0  0  0  0  0  0  0  0  0  0  0  0
   -0.8572   -1.9849    0.1280 H   0  0  0  0  0  0  0  0  0  0  0  0
   -2.1146   -0.5455   -0.0056 H   0  0  0  0  0  0  0  0  0  0  0  0
    0.2697   -1.2164   -1.8546 H   0  0  0  0  0  0  0  0  0  0  0  0
   -1.5869   -0.8727   -2.2245 H   0  0  0  0  0  0  0  0  0  0  0  0
  1  2  3  0
  2  3  1  0
  3  4  1  0
  4  5  3  0
  3  6  1  0
  6  7  1  0
  7  8  1  0
  8  3  1  0
  1  9  1  0
  5 10  1  0
  6 11  1  0
  6 12  1  0
  7 13  1  0
  7 14  1  0
M  END
