
     RDKit          3D

 17 17  0  0  0  0  0  0  0  0999 V2000
    2.6958    1.8275    0.1644 C   0  0  0  0  0  0  0  0  0  0  0  0
    2.2218    0.7720   -0.2805 C   0  0  0  0  0  0  0  0  0  0  0  0
    1.6894   -0.4732   -0.7987 C   0  0  0  0  0  0  0  0  0  0  0  0
    0.4203   -0.8734   -0.1731 C   0  0  0  0  0  0  0  0  0  0  0  0
    0.4872   -1.3769    0.9592 O   0  0  0  0  0  0  0  0  0  0  0  0
   -0.9293   -0.7391   -0.7500 C   0  0  0  0  0  0  0  0  0  0  0  0
   -1.3723    0.6718   -1.0465 C   0  0  0  0  0  0  0  0  0  0  0  0
   -2.6620    0.3115   -0.6303 O   0  0  0  0  0  0  0  0  0  0  0  0
   -2.0208   -0.5456    0.2812 C   0  0  0  0  0  0  0  0  0  0  0  0
    3.1091    2.7164    0.5276 H   0  0  0  0  0  0  0  0  0  0  0  0
    1.6638   -0.4593   -1.9149 H   0  0  0  0  0  0  0  0  0  0  0  0
    2.4609   -1.2498   -0.5219 H   0  0  0  0  0  0  0  0  0  0  0  0
   -1.2152   -1.4726   -1.5054 H   0  0  0  0  0  0  0  0  0  0  0  0
   -0.8841    1.3953   -0.3958 H   0  0  0  0  0  0  0  0  0  0  0  0
   -1.4169    0.9162   -2.1297 H   0  0  0  0  0  0  0  0  0  0  0  0
   -1.6569    0.0398    1.1292 H   0  0  0  0  0  0  0  0  0  0  0  0
   -2.5909   -1.4606    0.5337 H   0  0  0  0  0  0  0  0  0  0  0  0
  1  2  3  0
  2  3  1  0
  3  4  1  0
  4  5  2  0
  4  6  1  0
  6  7  1  0
  7  8  1  0
  8  9  1  0
  9  6  1  0
  1 10  1  0
  3 11  1  0
  3 12  1  0
  6 13  1  0
  7 14  1  0
  7 15  1  0
  9 16  1  0
  9 17  1  0
M  END
