
     RDKit          3D

 17 18  0  0  0  0  0  0  0  0999 V2000
    1.4485   -1.9519   -1.2333 C   0  0  0  0  0  0  0  0  0  0  0  0
    0.5894   -1.3265   -0.6534 C   0  0  0  0  0  0  0  0  0  0  0  0
   -0.3876   -0.6443    0.0017 C   0  0  0  0  0  0  0  0  0  0  0  0
   -1.7120   -1.3792    0.0003 C   0  0  0  0  0  0  0  0  0  0  0  0
   -0.1888   -0.2021    1.3496 O   0  0  0  0  0  0  0  0  0  0  0  0
    0.7369    0.6390    0.7625 C   0  0  0  0  0  0  0  0  0  0  0  0
    0.5672    1.8107   -0.0454 C   0  0  0  0  0  0  0  0  0  0  0  0
    0.4947    3.0272    0.6242 O   0  0  0  0  0  0  0  0  0  0  0  0
   -0.4909    0.8596   -0.2052 C   0  0  0  0  0  0  0  0  0  0  0  0
    2.2647   -2.5615   -1.7713 H   0  0  0  0  0  0  0  0  0  0  0  0
   -1.5799   -2.2734    0.6598 H   0  0  0  0  0  0  0  0  0  0  0  0
   -1.9125   -1.7452   -1.0252 H   0  0  0  0  0  0  0  0  0  0  0  0
   -2.5291   -0.7333    0.3434 H   0  0  0  0  0  0  0  0  0  0  0  0
    1.5590   -0.0203    0.3798 H   0  0  0  0  0  0  0  0  0  0  0  0
    1.1986    1.9434   -0.9842 H   0  0  0  0  0  0  0  0  0  0  0  0
    1.3648    3.3808    0.9170 H   0  0  0  0  0  0  0  0  0  0  0  0
   -1.4229    1.1769    0.3014 H   0  0  0  0  0  0  0  0  0  0  0  0
  1  2  3  0
  2  3  1  0
  3  4  1  0
  3  5  1  0
  5  6  1  0
  6  7  1  0
  7  8  1  0
  7  9  1  0
  9  3  1  0
  9  6  1  0
  1 10  1  0
  4 11  1  0
  4 12  1  0
  4 13  1  0
  6 14  1  0
  7 15  1  0
  8 16  1  0
  9 17  1  0
M  END
