
     RDKit          3D

 19 20  0  0  0  0  0  0  0  0999 V2000
    2.8206    2.1712    1.0532 C   0  0  0  0  0  0  0  0  0  0  0  0
    2.3322    1.1101    0.7155 C   0  0  0  0  0  0  0  0  0  0  0  0
    1.7429   -0.1543    0.3359 C   0  0  0  0  0  0  0  0  0  0  0  0
    0.2831   -0.2501    0.6150 C   0  0  0  0  0  0  0  0  0  0  0  0
   -0.2195   -1.6427    0.1653 C   0  0  0  0  0  0  0  0  0  0  0  0
   -1.5405   -0.8892    0.2355 C   0  0  0  0  0  0  0  0  0  0  0  0
   -2.0304    0.1256   -0.6302 C   0  0  0  0  0  0  0  0  0  0  0  0
   -2.7083    1.2682   -0.1313 O   0  0  0  0  0  0  0  0  0  0  0  0
   -0.6228    0.1409   -0.5551 C   0  0  0  0  0  0  0  0  0  0  0  0
    3.2607    3.0872    1.3393 H   0  0  0  0  0  0  0  0  0  0  0  0
    1.9377   -0.3752   -0.7442 H   0  0  0  0  0  0  0  0  0  0  0  0
    2.2870   -0.9698    0.8953 H   0  0  0  0  0  0  0  0  0  0  0  0
   -0.0564    0.0557    1.5968 H   0  0  0  0  0  0  0  0  0  0  0  0
    0.1617   -1.8506   -0.8333 H   0  0  0  0  0  0  0  0  0  0  0  0
   -0.1261   -2.4216    0.9108 H   0  0  0  0  0  0  0  0  0  0  0  0
   -1.6780   -0.6253    1.3350 H   0  0  0  0  0  0  0  0  0  0  0  0
   -2.5775   -0.2336   -1.5555 H   0  0  0  0  0  0  0  0  0  0  0  0
   -3.1494    1.7742   -0.8289 H   0  0  0  0  0  0  0  0  0  0  0  0
   -0.1168   -0.3207   -1.4661 H   0  0  0  0  0  0  0  0  0  0  0  0
  1  2  3  0
  2  3  1  0
  3  4  1  0
  4  5  1  0
  5  6  1  0
  6  7  1  0
  7  8  1  0
  7  9  1  0
  9  4  1  0
  9  6  1  0
  1 10  1  0
  3 11  1  0
  3 12  1  0
  4 13  1  0
  5 14  1  0
  5 15  1  0
  6 16  1  0
  7 17  1  0
  8 18  1  0
  9 19  1  0
M  END
