
     RDKit          3D

 23 23  0  0  0  0  0  0  0  0999 V2000
    2.4222    0.3256    2.5672 C   0  0  0  0  0  0  0  0  0  0  0  0
    1.3338    0.1830    1.9517 C   0  0  0  0  0  0  0  0  0  0  0  0
    0.1016    0.0015    1.2355 C   0  0  0  0  0  0  0  0  0  0  0  0
   -0.1763   -1.4261    0.7545 C   0  0  0  0  0  0  0  0  0  0  0  0
   -0.6057   -0.8638   -0.6067 C   0  0  0  0  0  0  0  0  0  0  0  0
   -2.1047   -0.7581   -0.6404 C   0  0  0  0  0  0  0  0  0  0  0  0
    0.1351    0.4018   -0.2245 C   0  0  0  0  0  0  0  0  0  0  0  0
    1.5378    0.3686   -0.7736 C   0  0  0  0  0  0  0  0  0  0  0  0
   -0.5783    1.6765   -0.5464 C   0  0  0  0  0  0  0  0  0  0  0  0
    3.3166    0.4502    3.0548 H   0  0  0  0  0  0  0  0  0  0  0  0
   -0.7990    0.3575    1.7799 H   0  0  0  0  0  0  0  0  0  0  0  0
    0.7506   -2.0027    0.6117 H   0  0  0  0  0  0  0  0  0  0  0  0
   -0.9815   -1.9519    1.2926 H   0  0  0  0  0  0  0  0  0  0  0  0
   -0.1841   -1.3673   -1.4758 H   0  0  0  0  0  0  0  0  0  0  0  0
   -2.4701   -1.8169   -0.8335 H   0  0  0  0  0  0  0  0  0  0  0  0
   -2.5541   -0.3516    0.2780 H   0  0  0  0  0  0  0  0  0  0  0  0
   -2.4786   -0.1619   -1.4776 H   0  0  0  0  0  0  0  0  0  0  0  0
    1.4972    0.5726   -1.8839 H   0  0  0  0  0  0  0  0  0  0  0  0
    1.9561   -0.6696   -0.6728 H   0  0  0  0  0  0  0  0  0  0  0  0
    2.1932    1.0643   -0.2536 H   0  0  0  0  0  0  0  0  0  0  0  0
    0.1518    2.4195   -0.9146 H   0  0  0  0  0  0  0  0  0  0  0  0
   -1.1370    2.0358    0.3537 H   0  0  0  0  0  0  0  0  0  0  0  0
   -1.3266    1.5131   -1.3326 H   0  0  0  0  0  0  0  0  0  0  0  0
  1  2  3  0
  2  3  1  0
  3  4  1  0
  4  5  1  0
  5  6  1  0
  5  7  1  0
  7  8  1  0
  7  9  1  0
  7  3  1  0
  1 10  1  0
  3 11  1  0
  4 12  1  0
  4 13  1  0
  5 14  1  0
  6 15  1  0
  6 16  1  0
  6 17  1  0
  8 18  1  0
  8 19  1  0
  8 20  1  0
  9 21  1  0
  9 22  1  0
  9 23  1  0
M  END
