
     RDKit          3D

 16 15  0  0  0  0  0  0  0  0999 V2000
   -2.2013    1.2733    1.1794 C   0  0  0  0  0  0  0  0  0  0  0  0
   -1.6036    0.8490    1.0702 C   0  0  0  0  0  0  0  0  0  0  0  0
   -0.0738   -0.2023    0.7895 C   0  0  0  0  0  0  0  0  0  0  0  0
   -0.6936   -1.5949    0.5955 C   0  0  0  0  0  0  0  0  0  0  0  0
    0.5029    0.4196   -0.2506 C   0  0  0  0  0  0  0  0  0  0  0  0
    1.6170    0.3694   -0.8199 O   0  0  0  0  0  0  0  0  0  0  0  0
    2.5926    0.6451   -1.6068 C   0  0  0  0  0  0  0  0  0  0  0  0
    2.4885    1.6442   -2.3365 O   0  0  0  0  0  0  0  0  0  0  0  0
   -3.2556    1.9943    1.3725 H   0  0  0  0  0  0  0  0  0  0  0  0
    0.2535   -0.2656    1.9161 H   0  0  0  0  0  0  0  0  0  0  0  0
   -1.7043   -1.3327    0.0794 H   0  0  0  0  0  0  0  0  0  0  0  0
   -0.8608   -2.1320    1.6213 H   0  0  0  0  0  0  0  0  0  0  0  0
   -0.1837   -2.2071   -0.0835 H   0  0  0  0  0  0  0  0  0  0  0  0
   -0.3623    1.1343   -0.6967 H   0  0  0  0  0  0  0  0  0  0  0  0
   -0.0529   -0.5922   -1.1632 H   0  0  0  0  0  0  0  0  0  0  0  0
    3.5373   -0.0024   -1.6668 H   0  0  0  0  0  0  0  0  0  0  0  0
  1  2  3  0
  2  3  1  0
  3  4  1  0
  3  5  1  0
  5  6  1  0
  6  7  1  0
  7  8  2  0
  1  9  1  0
  3 10  1  0
  4 11  1  0
  4 12  1  0
  4 13  1  0
  5 14  1  0
  5 15  1  0
  7 16  1  0
M  END
