
     RDKit          3D

 17 17  0  0  0  0  0  0  0  0999 V2000
    2.6552   -1.7888    0.7265 C   0  0  0  0  0  0  0  0  0  0  0  0
    1.7887   -1.3255    0.0287 C   0  0  0  0  0  0  0  0  0  0  0  0
    0.7343   -0.7599   -0.8529 C   0  0  0  0  0  0  0  0  0  0  0  0
   -0.4570   -0.9876   -0.1639 O   0  0  0  0  0  0  0  0  0  0  0  0
   -1.1110    0.2005    0.0132 C   0  0  0  0  0  0  0  0  0  0  0  0
   -2.0416    0.2257    1.1863 C   0  0  0  0  0  0  0  0  0  0  0  0
    0.0156    1.2138    0.1522 C   0  0  0  0  0  0  0  0  0  0  0  0
    0.9281    0.7007   -0.8827 C   0  0  0  0  0  0  0  0  0  0  0  0
    1.6532    1.3323   -1.5795 O   0  0  0  0  0  0  0  0  0  0  0  0
    3.4275   -2.1928    1.3250 H   0  0  0  0  0  0  0  0  0  0  0  0
    0.7740   -1.2446   -1.8275 H   0  0  0  0  0  0  0  0  0  0  0  0
   -1.6468    0.4646   -0.9207 H   0  0  0  0  0  0  0  0  0  0  0  0
   -1.5136    0.5132    2.1065 H   0  0  0  0  0  0  0  0  0  0  0  0
   -2.5736   -0.7393    1.2392 H   0  0  0  0  0  0  0  0  0  0  0  0
   -2.8268    1.0093    0.9617 H   0  0  0  0  0  0  0  0  0  0  0  0
    0.5387    1.1336    1.1204 H   0  0  0  0  0  0  0  0  0  0  0  0
   -0.3448    2.2449   -0.0177 H   0  0  0  0  0  0  0  0  0  0  0  0
  1  2  3  0
  2  3  1  0
  3  4  1  0
  4  5  1  0
  5  6  1  0
  5  7  1  0
  7  8  1  0
  8  9  2  0
  8  3  1  0
  1 10  1  0
  3 11  1  0
  5 12  1  0
  6 13  1  0
  6 14  1  0
  6 15  1  0
  7 16  1  0
  7 17  1  0
M  END
