
     RDKit          3D

  7  6  0  0  0  0  0  0  0  0999 V2000
    1.6440   -0.3400    0.4305 C   0  0  0  0  0  0  0  0  0  0  0  0
    0.4820   -0.0928    0.3012 C   0  0  0  0  0  0  0  0  0  0  0  0
   -0.9479    0.2017    0.1244 C   0  0  0  0  0  0  0  0  0  0  0  0
    2.6569   -0.5491    0.5260 H   0  0  0  0  0  0  0  0  0  0  0  0
   -1.1448    1.2513    0.4409 H   0  0  0  0  0  0  0  0  0  0  0  0
   -1.4855   -0.5298    0.7736 H   0  0  0  0  0  0  0  0  0  0  0  0
   -1.2048    0.0588   -0.9523 H   0  0  0  0  0  0  0  0  0  0  0  0
  1  2  3  0
  2  3  1  0
  1  4  1  0
  3  5  1  0
  3  6  1  0
  3  7  1  0
M  END
