
     RDKit          3D

 18 17  0  0  0  0  0  0  0  0999 V2000
    4.5091   -0.8841   -0.0157 C   0  0  0  0  0  0  0  0  0  0  0  0
    3.3247   -0.6494    0.0133 C   0  0  0  0  0  0  0  0  0  0  0  0
    1.9367   -0.3694    0.0490 C   0  0  0  0  0  0  0  0  0  0  0  0
    0.7395   -0.1352    0.0641 C   0  0  0  0  0  0  0  0  0  0  0  0
   -0.7021    0.1253    0.0679 C   0  0  0  0  0  0  0  0  0  0  0  0
   -0.9437    1.5727    0.4659 C   0  0  0  0  0  0  0  0  0  0  0  0
   -1.2906   -0.1298   -1.2959 C   0  0  0  0  0  0  0  0  0  0  0  0
   -1.3396   -0.7300    1.1161 C   0  0  0  0  0  0  0  0  0  0  0  0
    5.5562   -1.0878   -0.0527 H   0  0  0  0  0  0  0  0  0  0  0  0
   -0.8479    1.6285    1.5747 H   0  0  0  0  0  0  0  0  0  0  0  0
   -0.1359    2.1645    0.0390 H   0  0  0  0  0  0  0  0  0  0  0  0
   -1.9276    1.9138    0.0984 H   0  0  0  0  0  0  0  0  0  0  0  0
   -2.3677   -0.3017   -1.2882 H   0  0  0  0  0  0  0  0  0  0  0  0
   -1.0798    0.7533   -1.9361 H   0  0  0  0  0  0  0  0  0  0  0  0
   -0.8052   -1.0587   -1.7136 H   0  0  0  0  0  0  0  0  0  0  0  0
   -2.4416   -0.7652    0.8796 H   0  0  0  0  0  0  0  0  0  0  0  0
   -0.9239   -1.7632    1.1625 H   0  0  0  0  0  0  0  0  0  0  0  0
   -1.2606   -0.2835    2.1302 H   0  0  0  0  0  0  0  0  0  0  0  0
  1  2  3  0
  2  3  1  0
  3  4  3  0
  4  5  1  0
  5  6  1  0
  5  7  1  0
  5  8  1  0
  1  9  1  0
  6 10  1  0
  6 11  1  0
  6 12  1  0
  7 13  1  0
  7 14  1  0
  7 15  1  0
  8 16  1  0
  8 17  1  0
  8 18  1  0
M  END
