
     RDKit          3D

 19 20  0  0  0  0  0  0  0  0999 V2000
    3.2281    0.3218   -0.5988 C   0  0  0  0  0  0  0  0  0  0  0  0
    2.1958   -0.0751   -0.6950 C   0  0  0  0  0  0  0  0  0  0  0  0
    0.8545   -0.5773   -0.8211 C   0  0  0  0  0  0  0  0  0  0  0  0
    0.0120   -0.9411    0.3471 C   0  0  0  0  0  0  0  0  0  0  0  0
   -1.3049   -1.1549   -0.3747 C   0  0  0  0  0  0  0  0  0  0  0  0
   -1.3317   -0.0116   -1.1996 O   0  0  0  0  0  0  0  0  0  0  0  0
   -0.1569    0.5921   -0.9065 C   0  0  0  0  0  0  0  0  0  0  0  0
   -0.0775    0.5245    0.6390 C   0  0  0  0  0  0  0  0  0  0  0  0
   -1.3523    1.0060    1.2953 C   0  0  0  0  0  0  0  0  0  0  0  0
    4.2969    0.7376   -0.4889 H   0  0  0  0  0  0  0  0  0  0  0  0
    0.7176   -1.2567   -1.7252 H   0  0  0  0  0  0  0  0  0  0  0  0
    0.3234   -1.6176    1.1002 H   0  0  0  0  0  0  0  0  0  0  0  0
   -1.2141   -2.0622   -1.0014 H   0  0  0  0  0  0  0  0  0  0  0  0
   -2.1694   -1.2244    0.2867 H   0  0  0  0  0  0  0  0  0  0  0  0
    0.1711    1.4932   -1.3467 H   0  0  0  0  0  0  0  0  0  0  0  0
    0.8403    0.9925    0.9917 H   0  0  0  0  0  0  0  0  0  0  0  0
   -2.2429    0.8551    0.6435 H   0  0  0  0  0  0  0  0  0  0  0  0
   -1.2732    2.0415    1.6594 H   0  0  0  0  0  0  0  0  0  0  0  0
   -1.5169    0.3566    2.1951 H   0  0  0  0  0  0  0  0  0  0  0  0
  1  2  3  0
  2  3  1  0
  3  4  1  0
  4  5  1  0
  5  6  1  0
  6  7  1  0
  7  8  1  0
  8  9  1  0
  7  3  1  0
  8  4  1  0
  1 10  1  0
  3 11  1  0
  4 12  1  0
  5 13  1  0
  5 14  1  0
  7 15  1  0
  8 16  1  0
  9 17  1  0
  9 18  1  0
  9 19  1  0
M  END
