
     RDKit          3D

 17 16  0  0  0  0  0  0  0  0999 V2000
   -2.8047    1.5100   -0.4251 C   0  0  0  0  0  0  0  0  0  0  0  0
   -1.8820    0.7489   -0.2371 C   0  0  0  0  0  0  0  0  0  0  0  0
   -0.7717   -0.1930    0.0080 C   0  0  0  0  0  0  0  0  0  0  0  0
   -0.6384   -0.4571    1.4894 C   0  0  0  0  0  0  0  0  0  0  0  0
   -1.0913   -1.3808   -0.6392 O   0  0  0  0  0  0  0  0  0  0  0  0
    0.5246    0.3711   -0.5749 C   0  0  0  0  0  0  0  0  0  0  0  0
    1.5458   -0.5776   -0.3774 O   0  0  0  0  0  0  0  0  0  0  0  0
    2.8514   -0.3942   -0.7833 C   0  0  0  0  0  0  0  0  0  0  0  0
    3.1458    0.6826   -1.3631 O   0  0  0  0  0  0  0  0  0  0  0  0
   -3.6105    2.1776   -0.5710 H   0  0  0  0  0  0  0  0  0  0  0  0
    0.4307   -0.2513    1.7622 H   0  0  0  0  0  0  0  0  0  0  0  0
   -1.2742    0.2466    2.0629 H   0  0  0  0  0  0  0  0  0  0  0  0
   -0.8681   -1.5119    1.6995 H   0  0  0  0  0  0  0  0  0  0  0  0
   -0.2907   -1.6801   -1.1772 H   0  0  0  0  0  0  0  0  0  0  0  0
    0.7880    1.3032   -0.0507 H   0  0  0  0  0  0  0  0  0  0  0  0
    0.3162    0.5531   -1.6513 H   0  0  0  0  0  0  0  0  0  0  0  0
    3.6292   -1.1470   -0.6186 H   0  0  0  0  0  0  0  0  0  0  0  0
  1  2  3  0
  2  3  1  0
  3  4  1  0
  3  5  1  0
  3  6  1  0
  6  7  1  0
  7  8  1  0
  8  9  2  0
  1 10  1  0
  4 11  1  0
  4 12  1  0
  4 13  1  0
  5 14  1  0
  6 15  1  0
  6 16  1  0
  8 17  1  0
M  END
