
     RDKit          3D

 21 20  0  0  0  0  0  0  0  0999 V2000
    2.7389    1.4536    2.4589 C   0  0  0  0  0  0  0  0  0  0  0  0
    1.1685    0.7927    2.4303 C   0  0  0  0  0  0  0  0  0  0  0  0
    0.4495    0.4957    2.4207 C   0  0  0  0  0  0  0  0  0  0  0  0
    0.6088    0.1827    0.7548 C   0  0  0  0  0  0  0  0  0  0  0  0
    0.0364   -0.1905   -0.2893 C   0  0  0  0  0  0  0  0  0  0  0  0
   -0.4391   -1.3611   -0.5659 C   0  0  0  0  0  0  0  0  0  0  0  0
   -0.9374   -2.5883   -0.8617 C   0  0  0  0  0  0  0  0  0  0  0  0
   -1.1333    0.8519   -0.8363 C   0  0  0  0  0  0  0  0  0  0  0  0
   -1.4781    0.1971   -2.2165 C   0  0  0  0  0  0  0  0  0  0  0  0
    4.0743    2.0022    2.5051 H   0  0  0  0  0  0  0  0  0  0  0  0
   -0.6641    0.7351    2.5656 H   0  0  0  0  0  0  0  0  0  0  0  0
    0.4118   -0.8440    2.6381 H   0  0  0  0  0  0  0  0  0  0  0  0
    1.6864    0.7158    0.6033 H   0  0  0  0  0  0  0  0  0  0  0  0
    1.2580   -0.9327    1.0029 H   0  0  0  0  0  0  0  0  0  0  0  0
    0.7793   -0.0222   -1.3056 H   0  0  0  0  0  0  0  0  0  0  0  0
   -1.4630   -3.9305   -1.1962 H   0  0  0  0  0  0  0  0  0  0  0  0
   -0.7008    1.7708   -0.9314 H   0  0  0  0  0  0  0  0  0  0  0  0
   -1.9215    0.5614   -0.1330 H   0  0  0  0  0  0  0  0  0  0  0  0
   -0.4680   -0.1824   -2.5705 H   0  0  0  0  0  0  0  0  0  0  0  0
   -2.2075   -0.6182   -2.0073 H   0  0  0  0  0  0  0  0  0  0  0  0
   -1.7992    0.9107   -2.9637 H   0  0  0  0  0  0  0  0  0  0  0  0
  1  2  3  0
  2  3  1  0
  3  4  1  0
  4  5  1  0
  5  6  1  0
  6  7  3  0
  5  8  1  0
  8  9  1  0
  1 10  1  0
  3 11  1  0
  3 12  1  0
  4 13  1  0
  4 14  1  0
  5 15  1  0
  7 16  1  0
  8 17  1  0
  8 18  1  0
  9 19  1  0
  9 20  1  0
  9 21  1  0
M  END
