
     RDKit          3D

 19 19  0  0  0  0  0  0  0  0999 V2000
    3.4112   -0.4517    1.4205 C   0  0  0  0  0  0  0  0  0  0  0  0
    2.2500   -0.2360    1.1773 C   0  0  0  0  0  0  0  0  0  0  0  0
    0.8183    0.0294    0.8873 C   0  0  0  0  0  0  0  0  0  0  0  0
    0.5481   -0.4982   -0.4805 C   0  0  0  0  0  0  0  0  0  0  0  0
    1.3644    0.1532   -1.3903 O   0  0  0  0  0  0  0  0  0  0  0  0
   -0.9004   -0.3823   -0.8809 C   0  0  0  0  0  0  0  0  0  0  0  0
   -1.8833   -1.0967   -0.0266 C   0  0  0  0  0  0  0  0  0  0  0  0
   -1.9346    0.0501    0.8009 O   0  0  0  0  0  0  0  0  0  0  0  0
   -1.6495    0.7919   -0.3438 C   0  0  0  0  0  0  0  0  0  0  0  0
    4.4417   -0.6373    1.6227 H   0  0  0  0  0  0  0  0  0  0  0  0
    0.6714    1.1111    0.8981 H   0  0  0  0  0  0  0  0  0  0  0  0
    0.1762   -0.5173    1.6242 H   0  0  0  0  0  0  0  0  0  0  0  0
    0.8195   -1.5861   -0.4937 H   0  0  0  0  0  0  0  0  0  0  0  0
    0.8548    0.8393   -1.8560 H   0  0  0  0  0  0  0  0  0  0  0  0
   -1.1092   -0.5492   -1.9506 H   0  0  0  0  0  0  0  0  0  0  0  0
   -2.8266   -1.3059   -0.5323 H   0  0  0  0  0  0  0  0  0  0  0  0
   -1.5028   -1.9341    0.5886 H   0  0  0  0  0  0  0  0  0  0  0  0
   -2.5350    1.0159   -0.9653 H   0  0  0  0  0  0  0  0  0  0  0  0
   -1.0140    1.6744   -0.0996 H   0  0  0  0  0  0  0  0  0  0  0  0
  1  2  3  0
  2  3  1  0
  3  4  1  0
  4  5  1  0
  4  6  1  0
  6  7  1  0
  7  8  1  0
  8  9  1  0
  9  6  1  0
  1 10  1  0
  3 11  1  0
  3 12  1  0
  4 13  1  0
  5 14  1  0
  6 15  1  0
  7 16  1  0
  7 17  1  0
  9 18  1  0
  9 19  1  0
M  END
