
     RDKit          3D

 17 17  0  0  0  0  0  0  0  0999 V2000
    2.9396    0.4657   -0.4589 C   0  0  0  0  0  0  0  0  0  0  0  0
    1.9242    0.0106    0.0173 C   0  0  0  0  0  0  0  0  0  0  0  0
    0.7148   -0.5462    0.6106 C   0  0  0  0  0  0  0  0  0  0  0  0
    0.2690   -1.7220   -0.1834 C   0  0  0  0  0  0  0  0  0  0  0  0
    0.3371   -2.9585    0.0057 O   0  0  0  0  0  0  0  0  0  0  0  0
   -0.2018   -0.8124   -1.1250 O   0  0  0  0  0  0  0  0  0  0  0  0
   -0.5197    0.0394   -0.0175 C   0  0  0  0  0  0  0  0  0  0  0  0
   -1.8232   -0.3881    0.5861 C   0  0  0  0  0  0  0  0  0  0  0  0
   -0.4163    1.4966   -0.2806 C   0  0  0  0  0  0  0  0  0  0  0  0
    3.8284    0.8515   -0.8806 H   0  0  0  0  0  0  0  0  0  0  0  0
    0.7234   -0.6657    1.6893 H   0  0  0  0  0  0  0  0  0  0  0  0
   -1.9625   -1.4853    0.5693 H   0  0  0  0  0  0  0  0  0  0  0  0
   -2.6343    0.0388   -0.0619 H   0  0  0  0  0  0  0  0  0  0  0  0
   -1.9834   -0.0244    1.6150 H   0  0  0  0  0  0  0  0  0  0  0  0
    0.6373    1.8385   -0.1337 H   0  0  0  0  0  0  0  0  0  0  0  0
   -1.0060    2.0316    0.5026 H   0  0  0  0  0  0  0  0  0  0  0  0
   -0.8268    1.8299   -1.2494 H   0  0  0  0  0  0  0  0  0  0  0  0
  1  2  3  0
  2  3  1  0
  3  4  1  0
  4  5  2  0
  4  6  1  0
  6  7  1  0
  7  8  1  0
  7  9  1  0
  7  3  1  0
  1 10  1  0
  3 11  1  0
  8 12  1  0
  8 13  1  0
  8 14  1  0
  9 15  1  0
  9 16  1  0
  9 17  1  0
M  END
