
     RDKit          3D

 16 15  0  0  0  0  0  0  0  0999 V2000
    3.3671   -1.7317    0.4897 C   0  0  0  0  0  0  0  0  0  0  0  0
    1.9120   -1.3745    0.3003 C   0  0  0  0  0  0  0  0  0  0  0  0
    0.7229   -1.0729    0.1299 C   0  0  0  0  0  0  0  0  0  0  0  0
   -0.3006   -1.7603    0.2476 O   0  0  0  0  0  0  0  0  0  0  0  0
    0.5529    0.4465   -0.3088 C   0  0  0  0  0  0  0  0  0  0  0  0
   -0.7708    0.7736   -0.6964 C   0  0  0  0  0  0  0  0  0  0  0  0
   -1.7579    0.9436    0.4978 C   0  0  0  0  0  0  0  0  0  0  0  0
   -1.3111    1.1391   -1.8557 O   0  0  0  0  0  0  0  0  0  0  0  0
    4.4455   -2.0110    0.6434 H   0  0  0  0  0  0  0  0  0  0  0  0
    1.4612    0.8097   -0.6395 H   0  0  0  0  0  0  0  0  0  0  0  0
    0.5237    0.7889    0.9041 H   0  0  0  0  0  0  0  0  0  0  0  0
   -1.1668   -0.4917   -0.8307 H   0  0  0  0  0  0  0  0  0  0  0  0
   -2.0279   -0.0369    0.9005 H   0  0  0  0  0  0  0  0  0  0  0  0
   -2.6578    1.4403    0.1324 H   0  0  0  0  0  0  0  0  0  0  0  0
   -1.2427    1.6335    1.2038 H   0  0  0  0  0  0  0  0  0  0  0  0
   -1.7497    0.5039   -2.4657 H   0  0  0  0  0  0  0  0  0  0  0  0
  1  2  3  0
  2  3  1  0
  3  4  2  0
  3  5  1  0
  5  6  1  0
  6  7  1  0
  6  8  1  0
  1  9  1  0
  5 10  1  0
  5 11  1  0
  6 12  1  0
  7 13  1  0
  7 14  1  0
  7 15  1  0
  8 16  1  0
M  END
