
     RDKit          3D

 19 19  0  0  0  0  0  0  0  0999 V2000
    2.6913   -0.2232   -1.4413 C   0  0  0  0  0  0  0  0  0  0  0  0
    1.9775    0.2534   -0.5841 C   0  0  0  0  0  0  0  0  0  0  0  0
    1.1053    0.8421    0.4315 C   0  0  0  0  0  0  0  0  0  0  0  0
    1.9077    1.3062    1.4673 O   0  0  0  0  0  0  0  0  0  0  0  0
    0.1220   -0.2162    0.9292 C   0  0  0  0  0  0  0  0  0  0  0  0
   -0.6753   -0.6673   -0.2617 C   0  0  0  0  0  0  0  0  0  0  0  0
   -1.4691    0.4130   -0.9569 C   0  0  0  0  0  0  0  0  0  0  0  0
   -2.4409   -0.5562   -1.2271 O   0  0  0  0  0  0  0  0  0  0  0  0
   -2.0563   -1.1585   -0.0042 C   0  0  0  0  0  0  0  0  0  0  0  0
    3.3336   -0.6299   -2.1960 H   0  0  0  0  0  0  0  0  0  0  0  0
    0.5228    1.7006    0.0477 H   0  0  0  0  0  0  0  0  0  0  0  0
    2.3963    2.0938    1.1129 H   0  0  0  0  0  0  0  0  0  0  0  0
    0.7520   -1.0762    1.2497 H   0  0  0  0  0  0  0  0  0  0  0  0
   -0.5100    0.1669    1.7326 H   0  0  0  0  0  0  0  0  0  0  0  0
   -0.1234   -1.2732   -0.9804 H   0  0  0  0  0  0  0  0  0  0  0  0
   -1.7917    1.1647   -0.1927 H   0  0  0  0  0  0  0  0  0  0  0  0
   -0.9467    0.8134   -1.8249 H   0  0  0  0  0  0  0  0  0  0  0  0
   -2.2080   -2.2572    0.0125 H   0  0  0  0  0  0  0  0  0  0  0  0
   -2.5871   -0.6963    0.8279 H   0  0  0  0  0  0  0  0  0  0  0  0
  1  2  3  0
  2  3  1  0
  3  4  1  0
  3  5  1  0
  5  6  1  0
  6  7  1  0
  7  8  1  0
  8  9  1  0
  9  6  1  0
  1 10  1  0
  3 11  1  0
  4 12  1  0
  5 13  1  0
  5 14  1  0
  6 15  1  0
  7 16  1  0
  7 17  1  0
  9 18  1  0
  9 19  1  0
M  END
