
     RDKit          3D

 19 19  0  0  0  0  0  0  0  0999 V2000
   -0.9522    2.5073    0.5700 C   0  0  0  0  0  0  0  0  0  0  0  0
   -0.4523    1.4233    0.3927 C   0  0  0  0  0  0  0  0  0  0  0  0
    0.1734    0.1135    0.1603 C   0  0  0  0  0  0  0  0  0  0  0  0
    0.1885   -0.1306   -1.3338 C   0  0  0  0  0  0  0  0  0  0  0  0
   -1.2478   -0.1151   -1.8119 C   0  0  0  0  0  0  0  0  0  0  0  0
    1.5386    0.0697    0.7492 C   0  0  0  0  0  0  0  0  0  0  0  0
    1.5794   -1.0805    1.5079 O   0  0  0  0  0  0  0  0  0  0  0  0
    0.2841   -1.5081    1.7070 C   0  0  0  0  0  0  0  0  0  0  0  0
   -0.5301   -0.8656    0.8118 O   0  0  0  0  0  0  0  0  0  0  0  0
   -1.4039    3.4717    0.7104 H   0  0  0  0  0  0  0  0  0  0  0  0
    0.7699    0.6318   -1.8586 H   0  0  0  0  0  0  0  0  0  0  0  0
    0.6110   -1.1458   -1.5372 H   0  0  0  0  0  0  0  0  0  0  0  0
   -1.3108   -0.0203   -2.9170 H   0  0  0  0  0  0  0  0  0  0  0  0
   -1.7629    0.7006   -1.2828 H   0  0  0  0  0  0  0  0  0  0  0  0
   -1.7016   -1.0720   -1.4550 H   0  0  0  0  0  0  0  0  0  0  0  0
    2.3499    0.0051   -0.0029 H   0  0  0  0  0  0  0  0  0  0  0  0
    1.6898    0.9780    1.3733 H   0  0  0  0  0  0  0  0  0  0  0  0
    0.2564   -2.6084    1.4728 H   0  0  0  0  0  0  0  0  0  0  0  0
   -0.0794   -1.3546    2.7440 H   0  0  0  0  0  0  0  0  0  0  0  0
  1  2  3  0
  2  3  1  0
  3  4  1  0
  4  5  1  0
  3  6  1  0
  6  7  1  0
  7  8  1  0
  8  9  1  0
  9  3  1  0
  1 10  1  0
  4 11  1  0
  4 12  1  0
  5 13  1  0
  5 14  1  0
  5 15  1  0
  6 16  1  0
  6 17  1  0
  8 18  1  0
  8 19  1  0
M  END
