
     RDKit          3D

 19 19  0  0  0  0  0  0  0  0999 V2000
   -0.9217    2.6739   -1.4079 C   0  0  0  0  0  0  0  0  0  0  0  0
   -0.6517    1.4654   -1.0520 C   0  0  0  0  0  0  0  0  0  0  0  0
   -0.3559    0.0780   -0.6605 C   0  0  0  0  0  0  0  0  0  0  0  0
   -0.9679   -0.8570   -1.6420 C   0  0  0  0  0  0  0  0  0  0  0  0
   -0.2533   -2.0576   -1.6225 O   0  0  0  0  0  0  0  0  0  0  0  0
    1.1759    0.0655   -0.7788 O   0  0  0  0  0  0  0  0  0  0  0  0
    0.4100   -0.1247    0.4948 C   0  0  0  0  0  0  0  0  0  0  0  0
    0.7678   -1.4030    1.1673 C   0  0  0  0  0  0  0  0  0  0  0  0
    0.5721    1.1215    1.4203 C   0  0  0  0  0  0  0  0  0  0  0  0
   -1.1398    3.7201   -1.7043 H   0  0  0  0  0  0  0  0  0  0  0  0
   -1.2625   -0.4717   -2.6157 H   0  0  0  0  0  0  0  0  0  0  0  0
   -1.9922   -1.2072   -1.1675 H   0  0  0  0  0  0  0  0  0  0  0  0
    0.6995   -1.8976   -1.7623 H   0  0  0  0  0  0  0  0  0  0  0  0
   -0.1610   -1.7202    1.8093 H   0  0  0  0  0  0  0  0  0  0  0  0
    0.9845   -2.2614    0.6074 H   0  0  0  0  0  0  0  0  0  0  0  0
    1.5278   -1.3123    1.9954 H   0  0  0  0  0  0  0  0  0  0  0  0
    0.7199    0.7649    2.4858 H   0  0  0  0  0  0  0  0  0  0  0  0
   -0.4601    1.6263    1.3887 H   0  0  0  0  0  0  0  0  0  0  0  0
    1.3085    1.7972    1.0744 H   0  0  0  0  0  0  0  0  0  0  0  0
  1  2  3  0
  2  3  1  0
  3  4  1  0
  4  5  1  0
  3  6  1  0
  6  7  1  0
  7  8  1  0
  7  9  1  0
  7  3  1  0
  1 10  1  0
  4 11  1  0
  4 12  1  0
  5 13  1  0
  8 14  1  0
  8 15  1  0
  8 16  1  0
  9 17  1  0
  9 18  1  0
  9 19  1  0
M  END
