
     RDKit          3D

 18 18  0  0  0  0  0  0  0  0999 V2000
    3.2438    1.2024    0.5812 C   0  0  0  0  0  0  0  0  0  0  0  0
    2.2076    0.6020    0.4160 C   0  0  0  0  0  0  0  0  0  0  0  0
    0.9482   -0.1241    0.2398 C   0  0  0  0  0  0  0  0  0  0  0  0
    0.9255   -1.0355   -0.9609 C   0  0  0  0  0  0  0  0  0  0  0  0
    0.5267   -0.7835    1.4671 O   0  0  0  0  0  0  0  0  0  0  0  0
   -0.2198    0.3673    0.8964 C   0  0  0  0  0  0  0  0  0  0  0  0
   -1.6213   -0.0370    0.6405 C   0  0  0  0  0  0  0  0  0  0  0  0
   -2.0875    0.2174   -0.7669 C   0  0  0  0  0  0  0  0  0  0  0  0
    4.1504    1.7304    0.7376 H   0  0  0  0  0  0  0  0  0  0  0  0
    1.8546   -1.6651   -0.9443 H   0  0  0  0  0  0  0  0  0  0  0  0
    1.0145   -0.4025   -1.8620 H   0  0  0  0  0  0  0  0  0  0  0  0
    0.0283   -1.6758   -0.9565 H   0  0  0  0  0  0  0  0  0  0  0  0
   -0.1018    1.2928    1.5249 H   0  0  0  0  0  0  0  0  0  0  0  0
   -1.8559   -1.1171    0.8500 H   0  0  0  0  0  0  0  0  0  0  0  0
   -2.2943    0.5231    1.3209 H   0  0  0  0  0  0  0  0  0  0  0  0
   -1.2470    0.2947   -1.4618 H   0  0  0  0  0  0  0  0  0  0  0  0
   -2.6777    1.1787   -0.8054 H   0  0  0  0  0  0  0  0  0  0  0  0
   -2.7944   -0.5682   -1.1270 H   0  0  0  0  0  0  0  0  0  0  0  0
  1  2  3  0
  2  3  1  0
  3  4  1  0
  3  5  1  0
  5  6  1  0
  6  7  1  0
  7  8  1  0
  6  3  1  0
  1  9  1  0
  4 10  1  0
  4 11  1  0
  4 12  1  0
  6 13  1  0
  7 14  1  0
  7 15  1  0
  8 16  1  0
  8 17  1  0
  8 18  1  0
M  END
