
     RDKit          3D

 18 18  0  0  0  0  0  0  0  0999 V2000
   -3.2992   -0.4777   -1.6665 C   0  0  0  0  0  0  0  0  0  0  0  0
   -2.4422   -0.5340   -0.8174 C   0  0  0  0  0  0  0  0  0  0  0  0
   -1.4035   -0.5810    0.2308 C   0  0  0  0  0  0  0  0  0  0  0  0
   -0.2558   -1.5040    0.0901 C   0  0  0  0  0  0  0  0  0  0  0  0
   -0.0131   -0.0791   -0.1681 C   0  0  0  0  0  0  0  0  0  0  0  0
    0.6001    0.8448    0.8375 C   0  0  0  0  0  0  0  0  0  0  0  0
    1.9829    1.2839    0.3395 C   0  0  0  0  0  0  0  0  0  0  0  0
    2.8092    0.1656    0.1717 O   0  0  0  0  0  0  0  0  0  0  0  0
   -4.0629   -0.4346   -2.4191 H   0  0  0  0  0  0  0  0  0  0  0  0
   -1.7666   -0.3661    1.2415 H   0  0  0  0  0  0  0  0  0  0  0  0
    0.0844   -2.0141    1.0232 H   0  0  0  0  0  0  0  0  0  0  0  0
   -0.2010   -2.1916   -0.7933 H   0  0  0  0  0  0  0  0  0  0  0  0
    0.0704    0.2532   -1.2162 H   0  0  0  0  0  0  0  0  0  0  0  0
   -0.0107    1.7691    0.8950 H   0  0  0  0  0  0  0  0  0  0  0  0
    0.7139    0.4247    1.8402 H   0  0  0  0  0  0  0  0  0  0  0  0
    1.8881    1.8006   -0.6438 H   0  0  0  0  0  0  0  0  0  0  0  0
    2.4820    1.9360    1.0721 H   0  0  0  0  0  0  0  0  0  0  0  0
    2.8241   -0.2956    1.0491 H   0  0  0  0  0  0  0  0  0  0  0  0
  1  2  3  0
  2  3  1  0
  3  4  1  0
  4  5  1  0
  5  6  1  0
  6  7  1  0
  7  8  1  0
  5  3  1  0
  1  9  1  0
  3 10  1  0
  4 11  1  0
  4 12  1  0
  5 13  1  0
  6 14  1  0
  6 15  1  0
  7 16  1  0
  7 17  1  0
  8 18  1  0
M  END
