
     RDKit          3D

 19 19  0  0  0  0  0  0  0  0999 V2000
    4.1632    0.3846    0.9907 C   0  0  0  0  0  0  0  0  0  0  0  0
    3.0676    0.0728    0.5493 C   0  0  0  0  0  0  0  0  0  0  0  0
    1.7546   -0.2874   -0.0016 C   0  0  0  0  0  0  0  0  0  0  0  0
    1.2565    0.8559   -0.8379 O   0  0  0  0  0  0  0  0  0  0  0  0
    0.6039    0.3713    0.4089 C   0  0  0  0  0  0  0  0  0  0  0  0
   -0.7859   -0.2013    0.0960 C   0  0  0  0  0  0  0  0  0  0  0  0
   -0.6784   -1.3457   -0.8957 C   0  0  0  0  0  0  0  0  0  0  0  0
   -1.6129    0.7601   -0.4777 O   0  0  0  0  0  0  0  0  0  0  0  0
   -2.7398    1.0053    0.3031 C   0  0  0  0  0  0  0  0  0  0  0  0
    5.1094    0.6519    1.3868 H   0  0  0  0  0  0  0  0  0  0  0  0
    1.7305   -1.2065   -0.6309 H   0  0  0  0  0  0  0  0  0  0  0  0
    0.6023    1.1468    1.1933 H   0  0  0  0  0  0  0  0  0  0  0  0
   -1.2576   -0.5203    1.0413 H   0  0  0  0  0  0  0  0  0  0  0  0
   -1.6928   -1.4543   -1.3599 H   0  0  0  0  0  0  0  0  0  0  0  0
   -0.3495   -2.2618   -0.3873 H   0  0  0  0  0  0  0  0  0  0  0  0
    0.0150   -1.1058   -1.7258 H   0  0  0  0  0  0  0  0  0  0  0  0
   -3.3151    0.0413    0.4057 H   0  0  0  0  0  0  0  0  0  0  0  0
   -2.4319    1.3959    1.2924 H   0  0  0  0  0  0  0  0  0  0  0  0
   -3.4391    1.6973   -0.2063 H   0  0  0  0  0  0  0  0  0  0  0  0
  1  2  3  0
  2  3  1  0
  3  4  1  0
  4  5  1  0
  5  6  1  0
  6  7  1  0
  6  8  1  0
  8  9  1  0
  5  3  1  0
  1 10  1  0
  3 11  1  0
  5 12  1  0
  6 13  1  0
  7 14  1  0
  7 15  1  0
  7 16  1  0
  9 17  1  0
  9 18  1  0
  9 19  1  0
M  END
