
     RDKit          3D

 15 16  0  0  0  0  0  0  0  0999 V2000
    2.1485    2.5506    0.6237 C   0  0  0  0  0  0  0  0  0  0  0  0
    1.5424    1.4760    0.4084 C   0  0  0  0  0  0  0  0  0  0  0  0
    0.8321    0.2650    0.1704 C   0  0  0  0  0  0  0  0  0  0  0  0
    1.1839   -0.4813   -0.9383 O   0  0  0  0  0  0  0  0  0  0  0  0
   -0.0579    0.1134   -1.0409 C   0  0  0  0  0  0  0  0  0  0  0  0
   -1.1174   -0.5492   -0.2126 C   0  0  0  0  0  0  0  0  0  0  0  0
   -0.9998   -2.0796   -0.2457 C   0  0  0  0  0  0  0  0  0  0  0  0
   -0.3489   -0.0899    0.9909 C   0  0  0  0  0  0  0  0  0  0  0  0
   -0.5266   -0.0011    2.1916 O   0  0  0  0  0  0  0  0  0  0  0  0
    2.6723    3.4421    0.8026 H   0  0  0  0  0  0  0  0  0  0  0  0
   -0.2317    0.9966   -1.6493 H   0  0  0  0  0  0  0  0  0  0  0  0
   -2.1357   -0.1756   -0.3243 H   0  0  0  0  0  0  0  0  0  0  0  0
   -1.8823   -2.5496   -0.7435 H   0  0  0  0  0  0  0  0  0  0  0  0
   -0.9794   -2.4886    0.7869 H   0  0  0  0  0  0  0  0  0  0  0  0
   -0.0995   -2.3563   -0.8200 H   0  0  0  0  0  0  0  0  0  0  0  0
  1  2  3  0
  2  3  1  0
  3  4  1  0
  4  5  1  0
  5  6  1  0
  6  7  1  0
  6  8  1  0
  8  9  2  0
  5  3  1  0
  8  3  1  0
  1 10  1  0
  5 11  1  0
  6 12  1  0
  7 13  1  0
  7 14  1  0
  7 15  1  0
M  END
