
     RDKit          3D

 19 18  0  0  0  0  0  0  0  0999 V2000
   -3.7063    1.5540   -0.2639 C   0  0  0  0  0  0  0  0  0  0  0  0
   -2.5665    1.2918   -0.4807 C   0  0  0  0  0  0  0  0  0  0  0  0
   -1.1730    0.9817   -0.7509 C   0  0  0  0  0  0  0  0  0  0  0  0
   -0.5862    0.2577    0.4343 C   0  0  0  0  0  0  0  0  0  0  0  0
   -1.3245   -1.0122    0.6937 C   0  0  0  0  0  0  0  0  0  0  0  0
    0.8131   -0.0677    0.1542 C   0  0  0  0  0  0  0  0  0  0  0  0
    1.9803   -0.3604   -0.0754 C   0  0  0  0  0  0  0  0  0  0  0  0
    3.3729   -0.7291   -0.3335 C   0  0  0  0  0  0  0  0  0  0  0  0
    3.9607   -0.9405    0.9269 O   0  0  0  0  0  0  0  0  0  0  0  0
   -4.7446    1.7759   -0.0716 H   0  0  0  0  0  0  0  0  0  0  0  0
   -0.5692    1.8994   -0.9613 H   0  0  0  0  0  0  0  0  0  0  0  0
   -1.1133    0.2977   -1.6140 H   0  0  0  0  0  0  0  0  0  0  0  0
   -0.6279    0.8770    1.3643 H   0  0  0  0  0  0  0  0  0  0  0  0
   -2.4196   -0.8181    0.5906 H   0  0  0  0  0  0  0  0  0  0  0  0
   -1.0673   -1.7735   -0.0661 H   0  0  0  0  0  0  0  0  0  0  0  0
   -1.1380   -1.3877    1.7383 H   0  0  0  0  0  0  0  0  0  0  0  0
    3.4666   -1.6125   -0.9784 H   0  0  0  0  0  0  0  0  0  0  0  0
    3.9420    0.1329   -0.7847 H   0  0  0  0  0  0  0  0  0  0  0  0
    3.5007   -0.3664    1.5931 H   0  0  0  0  0  0  0  0  0  0  0  0
  1  2  3  0
  2  3  1  0
  3  4  1  0
  4  5  1  0
  4  6  1  0
  6  7  3  0
  7  8  1  0
  8  9  1  0
  1 10  1  0
  3 11  1  0
  3 12  1  0
  4 13  1  0
  5 14  1  0
  5 15  1  0
  5 16  1  0
  8 17  1  0
  8 18  1  0
  9 19  1  0
M  END
