
     RDKit          3D

 19 19  0  0  0  0  0  0  0  0999 V2000
    2.1824    1.5011   -0.4676 C   0  0  0  0  0  0  0  0  0  0  0  0
    1.3687    0.6296   -0.1974 C   0  0  0  0  0  0  0  0  0  0  0  0
    0.3970   -0.3912    0.1437 C   0  0  0  0  0  0  0  0  0  0  0  0
    0.9065   -1.2198    1.3112 C   0  0  0  0  0  0  0  0  0  0  0  0
   -0.0070   -1.2092   -1.0603 C   0  0  0  0  0  0  0  0  0  0  0  0
   -1.3773   -0.7016   -0.9240 C   0  0  0  0  0  0  0  0  0  0  0  0
   -2.4770   -0.8062   -1.4818 O   0  0  0  0  0  0  0  0  0  0  0  0
   -1.0033    0.1054    0.2709 C   0  0  0  0  0  0  0  0  0  0  0  0
   -1.2352    1.5609    0.0293 C   0  0  0  0  0  0  0  0  0  0  0  0
    2.8880    2.2634   -0.6848 H   0  0  0  0  0  0  0  0  0  0  0  0
    2.0048   -1.2834    1.1982 H   0  0  0  0  0  0  0  0  0  0  0  0
    0.4213   -2.2005    1.3824 H   0  0  0  0  0  0  0  0  0  0  0  0
    0.6878   -0.6899    2.2717 H   0  0  0  0  0  0  0  0  0  0  0  0
    0.1512   -2.2891   -0.8568 H   0  0  0  0  0  0  0  0  0  0  0  0
    0.5177   -0.9100   -1.9895 H   0  0  0  0  0  0  0  0  0  0  0  0
   -1.4931   -0.2239    1.2102 H   0  0  0  0  0  0  0  0  0  0  0  0
   -2.0709    1.6525   -0.6951 H   0  0  0  0  0  0  0  0  0  0  0  0
   -0.3698    2.0919   -0.4157 H   0  0  0  0  0  0  0  0  0  0  0  0
   -1.4919    2.1200    0.9554 H   0  0  0  0  0  0  0  0  0  0  0  0
  1  2  3  0
  2  3  1  0
  3  4  1  0
  3  5  1  0
  5  6  1  0
  6  7  2  0
  6  8  1  0
  8  9  1  0
  8  3  1  0
  1 10  1  0
  4 11  1  0
  4 12  1  0
  4 13  1  0
  5 14  1  0
  5 15  1  0
  8 16  1  0
  9 17  1  0
  9 18  1  0
  9 19  1  0
M  END
