
     RDKit          3D

 13 13  0  0  0  0  0  0  0  0999 V2000
    2.5842    1.4058    0.5938 C   0  0  0  0  0  0  0  0  0  0  0  0
    1.7267    0.5334    0.6259 C   0  0  0  0  0  0  0  0  0  0  0  0
    0.7066   -0.4706    0.6555 C   0  0  0  0  0  0  0  0  0  0  0  0
    0.6561   -1.2086    1.6718 O   0  0  0  0  0  0  0  0  0  0  0  0
   -0.2336   -0.6206   -0.4607 C   0  0  0  0  0  0  0  0  0  0  0  0
   -1.0873    0.5716   -0.7798 C   0  0  0  0  0  0  0  0  0  0  0  0
   -2.1130   -0.3847   -1.0865 O   0  0  0  0  0  0  0  0  0  0  0  0
   -1.5348   -1.2040   -0.1271 C   0  0  0  0  0  0  0  0  0  0  0  0
   -2.0355   -2.0647    0.6547 O   0  0  0  0  0  0  0  0  0  0  0  0
    3.3399    2.1490    0.5695 H   0  0  0  0  0  0  0  0  0  0  0  0
    0.2062   -1.0304   -1.3975 H   0  0  0  0  0  0  0  0  0  0  0  0
   -1.4254    1.1292    0.1378 H   0  0  0  0  0  0  0  0  0  0  0  0
   -0.7902    1.1946   -1.6238 H   0  0  0  0  0  0  0  0  0  0  0  0
  1  2  3  0
  2  3  1  0
  3  4  2  0
  3  5  1  0
  5  6  1  0
  6  7  1  0
  7  8  1  0
  8  9  2  0
  8  5  1  0
  1 10  1  0
  5 11  1  0
  6 12  1  0
  6 13  1  0
M  END
