
     RDKit          3D

 14 13  0  0  0  0  0  0  0  0999 V2000
    1.5112   -1.3068    1.7271 C   0  0  0  0  0  0  0  0  0  0  0  0
    0.8187   -0.6975    0.8026 C   0  0  0  0  0  0  0  0  0  0  0  0
    0.2052   -0.1492   -0.0328 C   0  0  0  0  0  0  0  0  0  0  0  0
    0.7844    1.0280   -0.9941 C   0  0  0  0  0  0  0  0  0  0  0  0
   -0.7526   -0.8069   -0.5627 C   0  0  0  0  0  0  0  0  0  0  0  0
   -1.8257   -1.5668   -1.1508 C   0  0  0  0  0  0  0  0  0  0  0  0
   -0.7819    0.9526    0.9002 C   0  0  0  0  0  0  0  0  0  0  0  0
   -0.1602    1.9058    1.2375 O   0  0  0  0  0  0  0  0  0  0  0  0
    2.0958   -1.8396    2.5016 H   0  0  0  0  0  0  0  0  0  0  0  0
    1.2990    1.8261   -0.4542 H   0  0  0  0  0  0  0  0  0  0  0  0
    1.3714    0.5994   -1.7630 H   0  0  0  0  0  0  0  0  0  0  0  0
   -0.0404    1.5708   -1.6064 H   0  0  0  0  0  0  0  0  0  0  0  0
   -2.7423   -2.2022   -1.6390 H   0  0  0  0  0  0  0  0  0  0  0  0
   -1.7826    0.6862    1.0699 H   0  0  0  0  0  0  0  0  0  0  0  0
  1  2  3  0
  2  3  1  0
  3  4  1  0
  3  5  1  0
  5  6  3  0
  3  7  1  0
  7  8  2  0
  1  9  1  0
  4 10  1  0
  4 11  1  0
  4 12  1  0
  6 13  1  0
  7 14  1  0
M  END
