
     RDKit          3D

 15 15  0  0  0  0  0  0  0  0999 V2000
    2.9495   -0.7203   -1.2553 C   0  0  0  0  0  0  0  0  0  0  0  0
    2.0866   -0.5628   -0.4111 C   0  0  0  0  0  0  0  0  0  0  0  0
    1.0475   -0.3697    0.6006 C   0  0  0  0  0  0  0  0  0  0  0  0
   -0.3109   -0.4622   -0.0492 C   0  0  0  0  0  0  0  0  0  0  0  0
   -0.5546    0.4924   -1.0677 O   0  0  0  0  0  0  0  0  0  0  0  0
   -1.8815    0.4809   -0.6865 C   0  0  0  0  0  0  0  0  0  0  0  0
   -2.9442    0.6300   -1.3170 O   0  0  0  0  0  0  0  0  0  0  0  0
   -1.4254    0.2288    0.6954 C   0  0  0  0  0  0  0  0  0  0  0  0
   -1.0441    1.4270    1.2944 O   0  0  0  0  0  0  0  0  0  0  0  0
    3.7125   -0.8497   -1.9782 H   0  0  0  0  0  0  0  0  0  0  0  0
    1.0681   -1.1961    1.3705 H   0  0  0  0  0  0  0  0  0  0  0  0
    1.2090    0.5554    1.1504 H   0  0  0  0  0  0  0  0  0  0  0  0
   -0.6013   -1.4644   -0.3887 H   0  0  0  0  0  0  0  0  0  0  0  0
   -2.0582   -0.4110    1.3183 H   0  0  0  0  0  0  0  0  0  0  0  0
   -1.2528    2.2219    0.7243 H   0  0  0  0  0  0  0  0  0  0  0  0
  1  2  3  0
  2  3  1  0
  3  4  1  0
  4  5  1  0
  5  6  1  0
  6  7  2  0
  6  8  1  0
  8  9  1  0
  8  4  1  0
  1 10  1  0
  3 11  1  0
  3 12  1  0
  4 13  1  0
  8 14  1  0
  9 15  1  0
M  END
