
     RDKit          3D

 15 15  0  0  0  0  0  0  0  0999 V2000
    1.9565    1.7998    2.0283 C   0  0  0  0  0  0  0  0  0  0  0  0
    1.6193    0.9427    1.1635 C   0  0  0  0  0  0  0  0  0  0  0  0
    1.2173   -0.0422    0.1741 C   0  0  0  0  0  0  0  0  0  0  0  0
   -0.1864    0.1898   -0.3272 C   0  0  0  0  0  0  0  0  0  0  0  0
   -0.5466   -0.8623   -1.3605 C   0  0  0  0  0  0  0  0  0  0  0  0
   -1.9712   -0.7299   -1.3440 O   0  0  0  0  0  0  0  0  0  0  0  0
   -2.2752   -0.5718    0.0114 C   0  0  0  0  0  0  0  0  0  0  0  0
   -3.4000   -0.8405    0.5249 O   0  0  0  0  0  0  0  0  0  0  0  0
   -1.1548   -0.0794    0.6871 O   0  0  0  0  0  0  0  0  0  0  0  0
    2.2389    2.4774    2.7048 H   0  0  0  0  0  0  0  0  0  0  0  0
    1.3054   -1.0648    0.5635 H   0  0  0  0  0  0  0  0  0  0  0  0
    1.8830    0.0099   -0.7392 H   0  0  0  0  0  0  0  0  0  0  0  0
   -0.3182    1.1921   -0.7798 H   0  0  0  0  0  0  0  0  0  0  0  0
   -0.2692   -1.8556   -1.0003 H   0  0  0  0  0  0  0  0  0  0  0  0
   -0.0989   -0.5651   -2.3067 H   0  0  0  0  0  0  0  0  0  0  0  0
  1  2  3  0
  2  3  1  0
  3  4  1  0
  4  5  1  0
  5  6  1  0
  6  7  1  0
  7  8  2  0
  7  9  1  0
  9  4  1  0
  1 10  1  0
  3 11  1  0
  3 12  1  0
  4 13  1  0
  5 14  1  0
  5 15  1  0
M  END
