
     RDKit          3D

 17 17  0  0  0  0  0  0  0  0999 V2000
    3.1380    1.1514   -0.9692 C   0  0  0  0  0  0  0  0  0  0  0  0
    2.2318    0.3824   -0.6900 C   0  0  0  0  0  0  0  0  0  0  0  0
    1.1299   -0.5333   -0.3740 C   0  0  0  0  0  0  0  0  0  0  0  0
   -0.0156    0.2500    0.1892 C   0  0  0  0  0  0  0  0  0  0  0  0
   -0.5888    1.2879   -0.6744 C   0  0  0  0  0  0  0  0  0  0  0  0
   -0.1023    2.1148   -1.4889 O   0  0  0  0  0  0  0  0  0  0  0  0
   -1.8572    0.9336   -0.1834 O   0  0  0  0  0  0  0  0  0  0  0  0
   -1.3789   -0.3798    0.0258 C   0  0  0  0  0  0  0  0  0  0  0  0
   -1.8307   -0.9428    1.3582 C   0  0  0  0  0  0  0  0  0  0  0  0
    3.9214    1.8190   -1.2292 H   0  0  0  0  0  0  0  0  0  0  0  0
    1.4244   -1.3168    0.3259 H   0  0  0  0  0  0  0  0  0  0  0  0
    0.8172   -1.0576   -1.3237 H   0  0  0  0  0  0  0  0  0  0  0  0
    0.2058    0.5662    1.2393 H   0  0  0  0  0  0  0  0  0  0  0  0
   -1.4486   -1.0585   -0.8258 H   0  0  0  0  0  0  0  0  0  0  0  0
   -1.5723   -0.1971    2.1360 H   0  0  0  0  0  0  0  0  0  0  0  0
   -2.8928   -1.1711    1.3870 H   0  0  0  0  0  0  0  0  0  0  0  0
   -1.1811   -1.8484    1.5345 H   0  0  0  0  0  0  0  0  0  0  0  0
  1  2  3  0
  2  3  1  0
  3  4  1  0
  4  5  1  0
  5  6  2  0
  5  7  1  0
  7  8  1  0
  8  9  1  0
  8  4  1  0
  1 10  1  0
  3 11  1  0
  3 12  1  0
  4 13  1  0
  8 14  1  0
  9 15  1  0
  9 16  1  0
  9 17  1  0
M  END
