
     RDKit          3D

 21 22  0  0  0  0  0  0  0  0999 V2000
    2.7619    1.9807    1.2916 C   0  0  0  0  0  0  0  0  0  0  0  0
    2.3760    0.8324    1.3309 C   0  0  0  0  0  0  0  0  0  0  0  0
    1.9291   -0.5636    1.3931 C   0  0  0  0  0  0  0  0  0  0  0  0
    1.2422   -0.8951    0.0892 C   0  0  0  0  0  0  0  0  0  0  0  0
    0.0498   -0.0183   -0.1695 C   0  0  0  0  0  0  0  0  0  0  0  0
   -0.7082   -0.2325   -1.3991 C   0  0  0  0  0  0  0  0  0  0  0  0
   -1.8947    0.7051   -1.6013 C   0  0  0  0  0  0  0  0  0  0  0  0
   -2.5466   -0.0057   -0.4252 C   0  0  0  0  0  0  0  0  0  0  0  0
   -1.2725   -0.6354    0.0030 C   0  0  0  0  0  0  0  0  0  0  0  0
    3.1154    2.9807    1.2651 H   0  0  0  0  0  0  0  0  0  0  0  0
    1.2966   -0.7779    2.2611 H   0  0  0  0  0  0  0  0  0  0  0  0
    2.8283   -1.2110    1.4539 H   0  0  0  0  0  0  0  0  0  0  0  0
    0.9856   -1.9656    0.0545 H   0  0  0  0  0  0  0  0  0  0  0  0
    1.9733   -0.7030   -0.7382 H   0  0  0  0  0  0  0  0  0  0  0  0
    0.1863    1.0590    0.1374 H   0  0  0  0  0  0  0  0  0  0  0  0
   -0.5914   -1.0901   -2.0716 H   0  0  0  0  0  0  0  0  0  0  0  0
   -2.4008    0.6033   -2.5590 H   0  0  0  0  0  0  0  0  0  0  0  0
   -1.6585    1.7502   -1.2817 H   0  0  0  0  0  0  0  0  0  0  0  0
   -3.2805   -0.7496   -0.8449 H   0  0  0  0  0  0  0  0  0  0  0  0
   -3.0732    0.6407    0.2785 H   0  0  0  0  0  0  0  0  0  0  0  0
   -1.3181   -1.7044    0.2255 H   0  0  0  0  0  0  0  0  0  0  0  0
  1  2  3  0
  2  3  1  0
  3  4  1  0
  4  5  1  0
  5  6  1  0
  6  7  1  0
  7  8  1  0
  8  9  1  0
  9  5  1  0
  9  6  1  0
  1 10  1  0
  3 11  1  0
  3 12  1  0
  4 13  1  0
  4 14  1  0
  5 15  1  0
  6 16  1  0
  7 17  1  0
  7 18  1  0
  8 19  1  0
  8 20  1  0
  9 21  1  0
M  END
