
     RDKit          3D

 19 19  0  0  0  0  0  0  0  0999 V2000
   -1.2857    2.6680   -0.3231 C   0  0  0  0  0  0  0  0  0  0  0  0
   -0.5468    1.7583    0.0228 C   0  0  0  0  0  0  0  0  0  0  0  0
    0.3229    0.6769    0.4161 C   0  0  0  0  0  0  0  0  0  0  0  0
   -0.4743   -0.6010    0.4383 C   0  0  0  0  0  0  0  0  0  0  0  0
   -1.4175   -0.9409    1.5570 C   0  0  0  0  0  0  0  0  0  0  0  0
   -0.2069   -1.3220   -0.6407 C   0  0  0  0  0  0  0  0  0  0  0  0
    0.7904   -0.6244   -1.5084 C   0  0  0  0  0  0  0  0  0  0  0  0
    1.3684    0.4668   -0.6204 C   0  0  0  0  0  0  0  0  0  0  0  0
    2.5424   -0.0641   -0.0493 O   0  0  0  0  0  0  0  0  0  0  0  0
   -1.9396    3.4524   -0.6110 H   0  0  0  0  0  0  0  0  0  0  0  0
    0.7254    0.7910    1.4487 H   0  0  0  0  0  0  0  0  0  0  0  0
   -1.0749   -0.4360    2.4966 H   0  0  0  0  0  0  0  0  0  0  0  0
   -2.4154   -0.5426    1.2588 H   0  0  0  0  0  0  0  0  0  0  0  0
   -1.4791   -2.0338    1.6867 H   0  0  0  0  0  0  0  0  0  0  0  0
   -0.6465   -2.2862   -0.8703 H   0  0  0  0  0  0  0  0  0  0  0  0
    0.3160   -0.2244   -2.4077 H   0  0  0  0  0  0  0  0  0  0  0  0
    1.5661   -1.3976   -1.7505 H   0  0  0  0  0  0  0  0  0  0  0  0
    1.5872    1.3266   -1.2550 H   0  0  0  0  0  0  0  0  0  0  0  0
    2.2679   -0.6670    0.7116 H   0  0  0  0  0  0  0  0  0  0  0  0
  1  2  3  0
  2  3  1  0
  3  4  1  0
  4  5  1  0
  4  6  2  0
  6  7  1  0
  7  8  1  0
  8  9  1  0
  8  3  1  0
  1 10  1  0
  3 11  1  0
  5 12  1  0
  5 13  1  0
  5 14  1  0
  6 15  1  0
  7 16  1  0
  7 17  1  0
  8 18  1  0
  9 19  1  0
M  END
