
     RDKit          3D

 19 20  0  0  0  0  0  0  0  0999 V2000
   -1.8153    1.9890   -1.3444 C   0  0  0  0  0  0  0  0  0  0  0  0
   -1.0945    1.4167   -0.5649 C   0  0  0  0  0  0  0  0  0  0  0  0
   -0.2455    0.7263    0.3638 C   0  0  0  0  0  0  0  0  0  0  0  0
   -0.7432    0.5042    1.6145 O   0  0  0  0  0  0  0  0  0  0  0  0
   -0.6398   -0.6395    0.8996 C   0  0  0  0  0  0  0  0  0  0  0  0
   -1.7439   -1.2929    0.1754 C   0  0  0  0  0  0  0  0  0  0  0  0
    0.8047   -1.1195    0.7146 C   0  0  0  0  0  0  0  0  0  0  0  0
    0.9753    0.0604   -0.1741 C   0  0  0  0  0  0  0  0  0  0  0  0
    2.2610    0.8210   -0.0794 C   0  0  0  0  0  0  0  0  0  0  0  0
   -2.4615    2.4785   -2.0290 H   0  0  0  0  0  0  0  0  0  0  0  0
   -1.8743   -0.9075   -0.8692 H   0  0  0  0  0  0  0  0  0  0  0  0
   -2.6944   -1.2187    0.7524 H   0  0  0  0  0  0  0  0  0  0  0  0
   -1.5392   -2.3957    0.0921 H   0  0  0  0  0  0  0  0  0  0  0  0
    0.8958   -2.1144    0.2777 H   0  0  0  0  0  0  0  0  0  0  0  0
    1.3175   -1.0635    1.7174 H   0  0  0  0  0  0  0  0  0  0  0  0
    0.8082   -0.2407   -1.2469 H   0  0  0  0  0  0  0  0  0  0  0  0
    2.2035    1.6589   -0.8125 H   0  0  0  0  0  0  0  0  0  0  0  0
    3.0851    0.1422   -0.3972 H   0  0  0  0  0  0  0  0  0  0  0  0
    2.5004    1.1953    0.9101 H   0  0  0  0  0  0  0  0  0  0  0  0
  1  2  3  0
  2  3  1  0
  3  4  1  0
  4  5  1  0
  5  6  1  0
  5  7  1  0
  7  8  1  0
  8  9  1  0
  5  3  1  0
  8  3  1  0
  1 10  1  0
  6 11  1  0
  6 12  1  0
  6 13  1  0
  7 14  1  0
  7 15  1  0
  8 16  1  0
  9 17  1  0
  9 18  1  0
  9 19  1  0
M  END
