
     RDKit          3D

 21 20  0  0  0  0  0  0  0  0999 V2000
   -2.9080    1.0660   -1.3326 C   0  0  0  0  0  0  0  0  0  0  0  0
   -2.3443    0.0034   -1.2430 C   0  0  0  0  0  0  0  0  0  0  0  0
   -1.6625   -1.2918   -1.1537 C   0  0  0  0  0  0  0  0  0  0  0  0
   -2.5505   -2.3129   -0.8230 O   0  0  0  0  0  0  0  0  0  0  0  0
   -0.6106   -1.2425   -0.0711 C   0  0  0  0  0  0  0  0  0  0  0  0
    0.3361   -0.2616   -0.2869 O   0  0  0  0  0  0  0  0  0  0  0  0
    1.2463   -0.2839    0.7324 C   0  0  0  0  0  0  0  0  0  0  0  0
    2.3353    0.7501    0.6042 C   0  0  0  0  0  0  0  0  0  0  0  0
    1.6471    2.1122    0.5910 C   0  0  0  0  0  0  0  0  0  0  0  0
   -3.4283    2.0066   -1.4111 H   0  0  0  0  0  0  0  0  0  0  0  0
   -1.2150   -1.5709   -2.1394 H   0  0  0  0  0  0  0  0  0  0  0  0
   -2.4152   -2.6408    0.1138 H   0  0  0  0  0  0  0  0  0  0  0  0
   -0.1545   -2.2680   -0.0312 H   0  0  0  0  0  0  0  0  0  0  0  0
   -1.1482   -1.1309    0.9004 H   0  0  0  0  0  0  0  0  0  0  0  0
    1.7496   -1.2890    0.7244 H   0  0  0  0  0  0  0  0  0  0  0  0
    0.7254   -0.2293    1.7080 H   0  0  0  0  0  0  0  0  0  0  0  0
    2.9626    0.7442    1.5196 H   0  0  0  0  0  0  0  0  0  0  0  0
    2.9945    0.5916   -0.2440 H   0  0  0  0  0  0  0  0  0  0  0  0
    1.1640    2.2426   -0.3818 H   0  0  0  0  0  0  0  0  0  0  0  0
    2.3952    2.8963    0.8303 H   0  0  0  0  0  0  0  0  0  0  0  0
    0.8810    2.1086    1.3939 H   0  0  0  0  0  0  0  0  0  0  0  0
  1  2  3  0
  2  3  1  0
  3  4  1  0
  3  5  1  0
  5  6  1  0
  6  7  1  0
  7  8  1  0
  8  9  1  0
  1 10  1  0
  3 11  1  0
  4 12  1  0
  5 13  1  0
  5 14  1  0
  7 15  1  0
  7 16  1  0
  8 17  1  0
  8 18  1  0
  9 19  1  0
  9 20  1  0
  9 21  1  0
M  END
