
     RDKit          3D

 17 17  0  0  0  0  0  0  0  0999 V2000
    2.8865   -0.0461    0.5771 C   0  0  0  0  0  0  0  0  0  0  0  0
    1.9818    0.2519   -0.1525 C   0  0  0  0  0  0  0  0  0  0  0  0
    0.8816    0.6367   -1.0295 C   0  0  0  0  0  0  0  0  0  0  0  0
   -0.4036    0.3298   -0.3243 C   0  0  0  0  0  0  0  0  0  0  0  0
   -1.6638    0.6465   -1.0453 C   0  0  0  0  0  0  0  0  0  0  0  0
   -2.7447    0.4240   -0.5338 O   0  0  0  0  0  0  0  0  0  0  0  0
   -0.4995    0.2778    1.1506 C   0  0  0  0  0  0  0  0  0  0  0  0
   -0.3644   -1.0049    0.4564 C   0  0  0  0  0  0  0  0  0  0  0  0
   -1.4479   -1.8298    0.1953 O   0  0  0  0  0  0  0  0  0  0  0  0
    3.6803   -0.3007    1.2269 H   0  0  0  0  0  0  0  0  0  0  0  0
    0.8863    0.0465   -1.9823 H   0  0  0  0  0  0  0  0  0  0  0  0
    0.9200    1.7028   -1.3227 H   0  0  0  0  0  0  0  0  0  0  0  0
   -1.6085    1.0790   -2.0341 H   0  0  0  0  0  0  0  0  0  0  0  0
    0.3957    0.6572    1.7115 H   0  0  0  0  0  0  0  0  0  0  0  0
   -1.4434    0.6116    1.6193 H   0  0  0  0  0  0  0  0  0  0  0  0
    0.5902   -1.5269    0.5390 H   0  0  0  0  0  0  0  0  0  0  0  0
   -2.0468   -1.9553    0.9484 H   0  0  0  0  0  0  0  0  0  0  0  0
  1  2  3  0
  2  3  1  0
  3  4  1  0
  4  5  1  0
  5  6  2  0
  4  7  1  0
  7  8  1  0
  8  9  1  0
  8  4  1  0
  1 10  1  0
  3 11  1  0
  3 12  1  0
  5 13  1  0
  7 14  1  0
  7 15  1  0
  8 16  1  0
  9 17  1  0
M  END
