
     RDKit          3D

 19 19  0  0  0  0  0  0  0  0999 V2000
    3.5366   -1.4735    0.2802 C   0  0  0  0  0  0  0  0  0  0  0  0
    2.5484   -1.1443   -0.3249 C   0  0  0  0  0  0  0  0  0  0  0  0
    1.3892   -0.7381   -1.0503 C   0  0  0  0  0  0  0  0  0  0  0  0
    1.5117   -0.1896   -2.1639 O   0  0  0  0  0  0  0  0  0  0  0  0
    0.0386   -0.9600   -0.4966 C   0  0  0  0  0  0  0  0  0  0  0  0
   -0.1601   -0.2489    0.8239 C   0  0  0  0  0  0  0  0  0  0  0  0
   -0.6742    0.9349    0.0301 C   0  0  0  0  0  0  0  0  0  0  0  0
   -1.8826    1.5979    0.6499 C   0  0  0  0  0  0  0  0  0  0  0  0
   -1.0355   -0.0613   -1.0729 C   0  0  0  0  0  0  0  0  0  0  0  0
    4.4149   -1.7849    0.8286 H   0  0  0  0  0  0  0  0  0  0  0  0
   -0.2753   -2.0130   -0.5162 H   0  0  0  0  0  0  0  0  0  0  0  0
    0.7843    0.0194    1.3379 H   0  0  0  0  0  0  0  0  0  0  0  0
   -0.9226   -0.6950    1.4833 H   0  0  0  0  0  0  0  0  0  0  0  0
    0.0849    1.6793   -0.2527 H   0  0  0  0  0  0  0  0  0  0  0  0
   -2.6698    0.8266    0.8740 H   0  0  0  0  0  0  0  0  0  0  0  0
   -1.5825    2.1031    1.5864 H   0  0  0  0  0  0  0  0  0  0  0  0
   -2.2945    2.3624   -0.0367 H   0  0  0  0  0  0  0  0  0  0  0  0
   -0.7535    0.2622   -2.0945 H   0  0  0  0  0  0  0  0  0  0  0  0
   -2.0578   -0.4771   -0.9575 H   0  0  0  0  0  0  0  0  0  0  0  0
  1  2  3  0
  2  3  1  0
  3  4  2  0
  3  5  1  0
  5  6  1  0
  6  7  1  0
  7  8  1  0
  7  9  1  0
  9  5  1  0
  1 10  1  0
  5 11  1  0
  6 12  1  0
  6 13  1  0
  7 14  1  0
  8 15  1  0
  8 16  1  0
  8 17  1  0
  9 18  1  0
  9 19  1  0
M  END
