
     RDKit          3D

 21 21  0  0  0  0  0  0  0  0999 V2000
    2.3166   -1.2515    0.4737 C   0  0  0  0  0  0  0  0  0  0  0  0
    1.5680   -0.3060    0.4866 C   0  0  0  0  0  0  0  0  0  0  0  0
    0.6547    0.8298    0.5178 C   0  0  0  0  0  0  0  0  0  0  0  0
    1.1535    1.9587   -0.3933 C   0  0  0  0  0  0  0  0  0  0  0  0
    2.4158    2.3517    0.0756 O   0  0  0  0  0  0  0  0  0  0  0  0
   -0.7314    0.4209    0.1903 C   0  0  0  0  0  0  0  0  0  0  0  0
   -1.1259   -0.2027   -1.0812 C   0  0  0  0  0  0  0  0  0  0  0  0
   -0.9635   -1.0790    0.0876 C   0  0  0  0  0  0  0  0  0  0  0  0
   -2.1488   -1.6286    0.8396 C   0  0  0  0  0  0  0  0  0  0  0  0
    2.9717   -2.1072    0.4569 H   0  0  0  0  0  0  0  0  0  0  0  0
    0.6706    1.2402    1.5596 H   0  0  0  0  0  0  0  0  0  0  0  0
    1.1591    1.6631   -1.4424 H   0  0  0  0  0  0  0  0  0  0  0  0
    0.4665    2.8189   -0.2244 H   0  0  0  0  0  0  0  0  0  0  0  0
    3.0732    1.6169    0.0287 H   0  0  0  0  0  0  0  0  0  0  0  0
   -1.5351    1.0138    0.7187 H   0  0  0  0  0  0  0  0  0  0  0  0
   -0.3804   -0.3210   -1.9217 H   0  0  0  0  0  0  0  0  0  0  0  0
   -2.1335    0.0396   -1.4894 H   0  0  0  0  0  0  0  0  0  0  0  0
   -0.0683   -1.7445    0.0932 H   0  0  0  0  0  0  0  0  0  0  0  0
   -1.8171   -2.4181    1.5456 H   0  0  0  0  0  0  0  0  0  0  0  0
   -2.6270   -0.8396    1.4400 H   0  0  0  0  0  0  0  0  0  0  0  0
   -2.9188   -2.0553    0.1767 H   0  0  0  0  0  0  0  0  0  0  0  0
  1  2  3  0
  2  3  1  0
  3  4  1  0
  4  5  1  0
  3  6  1  0
  6  7  1  0
  7  8  1  0
  8  9  1  0
  8  6  1  0
  1 10  1  0
  3 11  1  0
  4 12  1  0
  4 13  1  0
  5 14  1  0
  6 15  1  0
  7 16  1  0
  7 17  1  0
  8 18  1  0
  9 19  1  0
  9 20  1  0
  9 21  1  0
M  END
