
     RDKit          3D

 17 18  0  0  0  0  0  0  0  0999 V2000
    3.6148   -0.1100   -0.3077 C   0  0  0  0  0  0  0  0  0  0  0  0
    2.4152   -0.0464   -0.2051 C   0  0  0  0  0  0  0  0  0  0  0  0
    0.9978    0.0492   -0.0696 C   0  0  0  0  0  0  0  0  0  0  0  0
    0.2526    0.8040    0.7205 C   0  0  0  0  0  0  0  0  0  0  0  0
   -1.1717    0.4518    0.5372 C   0  0  0  0  0  0  0  0  0  0  0  0
   -1.6055    0.8150   -0.8625 C   0  0  0  0  0  0  0  0  0  0  0  0
   -0.7020    0.1210   -1.6574 O   0  0  0  0  0  0  0  0  0  0  0  0
    0.0276   -0.7492   -0.8588 C   0  0  0  0  0  0  0  0  0  0  0  0
   -0.9906   -1.0579    0.2580 C   0  0  0  0  0  0  0  0  0  0  0  0
    4.6766   -0.1777   -0.3844 H   0  0  0  0  0  0  0  0  0  0  0  0
    0.6192    1.5573    1.3931 H   0  0  0  0  0  0  0  0  0  0  0  0
   -1.8394    0.6720    1.3272 H   0  0  0  0  0  0  0  0  0  0  0  0
   -2.6395    0.4048   -0.9841 H   0  0  0  0  0  0  0  0  0  0  0  0
   -1.6006    1.9008   -1.0439 H   0  0  0  0  0  0  0  0  0  0  0  0
    0.4111   -1.6220   -1.3389 H   0  0  0  0  0  0  0  0  0  0  0  0
   -1.9261   -1.4375   -0.1303 H   0  0  0  0  0  0  0  0  0  0  0  0
   -0.5396   -1.5753    1.0905 H   0  0  0  0  0  0  0  0  0  0  0  0
  1  2  3  0
  2  3  1  0
  3  4  2  0
  4  5  1  0
  5  6  1  0
  6  7  1  0
  7  8  1  0
  8  9  1  0
  8  3  1  0
  9  5  1  0
  1 10  1  0
  4 11  1  0
  5 12  1  0
  6 13  1  0
  6 14  1  0
  8 15  1  0
  9 16  1  0
  9 17  1  0
M  END
