
     RDKit          3D

 23 22  0  0  0  0  0  0  0  0999 V2000
    3.6469   -0.2141    0.3413 C   0  0  0  0  0  0  0  0  0  0  0  0
    2.6569    0.1289    0.9211 C   0  0  0  0  0  0  0  0  0  0  0  0
    1.4432    0.5702    1.6268 C   0  0  0  0  0  0  0  0  0  0  0  0
    0.6947    1.4164    0.8925 O   0  0  0  0  0  0  0  0  0  0  0  0
    0.1981    1.0228   -0.2765 C   0  0  0  0  0  0  0  0  0  0  0  0
   -0.8139   -0.0712   -0.3660 C   0  0  0  0  0  0  0  0  0  0  0  0
   -0.4254   -1.4119    0.1203 C   0  0  0  0  0  0  0  0  0  0  0  0
   -2.1421    0.3737    0.2796 C   0  0  0  0  0  0  0  0  0  0  0  0
   -1.1701   -0.1391   -1.8739 C   0  0  0  0  0  0  0  0  0  0  0  0
    4.5363   -0.5296   -0.1619 H   0  0  0  0  0  0  0  0  0  0  0  0
    1.7812    1.0780    2.5882 H   0  0  0  0  0  0  0  0  0  0  0  0
    0.9070   -0.3310    1.9513 H   0  0  0  0  0  0  0  0  0  0  0  0
    1.0698    0.6580   -0.9404 H   0  0  0  0  0  0  0  0  0  0  0  0
   -0.2174    1.8749   -0.9016 H   0  0  0  0  0  0  0  0  0  0  0  0
   -0.9251   -2.1974   -0.5286 H   0  0  0  0  0  0  0  0  0  0  0  0
   -0.8532   -1.5750    1.1385 H   0  0  0  0  0  0  0  0  0  0  0  0
    0.6354   -1.6264    0.0148 H   0  0  0  0  0  0  0  0  0  0  0  0
   -2.0265    0.5066    1.3642 H   0  0  0  0  0  0  0  0  0  0  0  0
   -2.8587   -0.4437    0.0671 H   0  0  0  0  0  0  0  0  0  0  0  0
   -2.4401    1.2965   -0.2463 H   0  0  0  0  0  0  0  0  0  0  0  0
   -1.2753    0.9173   -2.1930 H   0  0  0  0  0  0  0  0  0  0  0  0
   -2.1179   -0.6879   -2.0120 H   0  0  0  0  0  0  0  0  0  0  0  0
   -0.3039   -0.6162   -2.3733 H   0  0  0  0  0  0  0  0  0  0  0  0
  1  2  3  0
  2  3  1  0
  3  4  1  0
  4  5  1  0
  5  6  1  0
  6  7  1  0
  6  8  1  0
  6  9  1  0
  1 10  1  0
  3 11  1  0
  3 12  1  0
  5 13  1  0
  5 14  1  0
  7 15  1  0
  7 16  1  0
  7 17  1  0
  8 18  1  0
  8 19  1  0
  8 20  1  0
  9 21  1  0
  9 22  1  0
  9 23  1  0
M  END
