
     RDKit          3D

 21 21  0  0  0  0  0  0  0  0999 V2000
    3.4924    1.3711    0.9579 C   0  0  0  0  0  0  0  0  0  0  0  0
    2.3196    1.2177    0.4329 C   0  0  0  0  0  0  0  0  0  0  0  0
    1.1392    1.0732   -0.1176 C   0  0  0  0  0  0  0  0  0  0  0  0
    0.8380   -0.5567   -0.1469 C   0  0  0  0  0  0  0  0  0  0  0  0
   -0.4504   -0.3014   -0.8819 C   0  0  0  0  0  0  0  0  0  0  0  0
   -1.2394   -1.4450   -1.3007 C   0  0  0  0  0  0  0  0  0  0  0  0
   -1.0489    0.6485    0.1447 C   0  0  0  0  0  0  0  0  0  0  0  0
   -1.5204   -0.0787    1.3649 C   0  0  0  0  0  0  0  0  0  0  0  0
    0.0180    1.4890    0.4659 O   0  0  0  0  0  0  0  0  0  0  0  0
    4.5569    1.5311    1.4342 H   0  0  0  0  0  0  0  0  0  0  0  0
    1.1760    1.1455   -1.2864 H   0  0  0  0  0  0  0  0  0  0  0  0
    0.7713   -0.7006    0.9269 H   0  0  0  0  0  0  0  0  0  0  0  0
    1.6566   -0.9736   -0.6978 H   0  0  0  0  0  0  0  0  0  0  0  0
   -0.2194    0.3571   -1.7618 H   0  0  0  0  0  0  0  0  0  0  0  0
   -2.2046   -1.4899   -0.7340 H   0  0  0  0  0  0  0  0  0  0  0  0
   -1.5714   -1.2967   -2.3757 H   0  0  0  0  0  0  0  0  0  0  0  0
   -0.7788   -2.4494   -1.2737 H   0  0  0  0  0  0  0  0  0  0  0  0
   -1.8524    1.2398   -0.3273 H   0  0  0  0  0  0  0  0  0  0  0  0
   -1.9921   -1.0531    1.1674 H   0  0  0  0  0  0  0  0  0  0  0  0
   -0.7563   -0.2580    2.1367 H   0  0  0  0  0  0  0  0  0  0  0  0
   -2.3339    0.5303    1.8726 H   0  0  0  0  0  0  0  0  0  0  0  0
  1  2  3  0
  2  3  1  0
  3  4  1  0
  4  5  1  0
  5  6  1  0
  5  7  1  0
  7  8  1  0
  7  9  1  0
  9  3  1  0
  1 10  1  0
  3 11  1  0
  4 12  1  0
  4 13  1  0
  5 14  1  0
  6 15  1  0
  6 16  1  0
  6 17  1  0
  7 18  1  0
  8 19  1  0
  8 20  1  0
  8 21  1  0
M  END
