
     RDKit          3D

 16 16  0  0  0  0  0  0  0  0999 V2000
    2.8594   -0.8339   -0.3139 C   0  0  0  0  0  0  0  0  0  0  0  0
    1.7446   -0.5793    0.0003 C   0  0  0  0  0  0  0  0  0  0  0  0
    0.3856   -0.2546    0.3759 C   0  0  0  0  0  0  0  0  0  0  0  0
   -0.0595    1.1565   -0.0262 C   0  0  0  0  0  0  0  0  0  0  0  0
    0.0530    2.1035    0.9476 O   0  0  0  0  0  0  0  0  0  0  0  0
   -1.4298    0.5334   -0.2099 C   0  0  0  0  0  0  0  0  0  0  0  0
   -0.6652   -0.7296   -0.6076 C   0  0  0  0  0  0  0  0  0  0  0  0
   -1.3463   -1.8729   -0.2299 O   0  0  0  0  0  0  0  0  0  0  0  0
    3.8672   -1.0747   -0.6149 H   0  0  0  0  0  0  0  0  0  0  0  0
    0.1243   -0.4996    1.4146 H   0  0  0  0  0  0  0  0  0  0  0  0
    0.3822    1.4346   -1.0065 H   0  0  0  0  0  0  0  0  0  0  0  0
   -0.7172    2.2310    1.5245 H   0  0  0  0  0  0  0  0  0  0  0  0
   -2.0396    0.9749   -0.9920 H   0  0  0  0  0  0  0  0  0  0  0  0
   -1.9314    0.3262    0.7685 H   0  0  0  0  0  0  0  0  0  0  0  0
   -0.2760   -0.7222   -1.6377 H   0  0  0  0  0  0  0  0  0  0  0  0
   -0.9513   -2.1931    0.6070 H   0  0  0  0  0  0  0  0  0  0  0  0
  1  2  3  0
  2  3  1  0
  3  4  1  0
  4  5  1  0
  4  6  1  0
  6  7  1  0
  7  8  1  0
  7  3  1  0
  1  9  1  0
  3 10  1  0
  4 11  1  0
  5 12  1  0
  6 13  1  0
  6 14  1  0
  7 15  1  0
  8 16  1  0
M  END
