
     RDKit          3D

 21 21  0  0  0  0  0  0  0  0999 V2000
   -1.1289    2.8569   -1.1791 C   0  0  0  0  0  0  0  0  0  0  0  0
   -0.7923    1.8075   -0.7692 C   0  0  0  0  0  0  0  0  0  0  0  0
   -0.3782    0.4350   -0.2469 C   0  0  0  0  0  0  0  0  0  0  0  0
    1.0824    0.2964   -0.5689 C   0  0  0  0  0  0  0  0  0  0  0  0
    1.7530   -0.9533   -0.1143 C   0  0  0  0  0  0  0  0  0  0  0  0
    3.1031   -0.8960   -0.5056 O   0  0  0  0  0  0  0  0  0  0  0  0
   -1.3421   -0.5848   -0.7761 C   0  0  0  0  0  0  0  0  0  0  0  0
   -1.2956   -1.1689    0.6599 C   0  0  0  0  0  0  0  0  0  0  0  0
   -0.9020    0.2198    1.1043 C   0  0  0  0  0  0  0  0  0  0  0  0
   -1.4441    3.8486   -1.5868 H   0  0  0  0  0  0  0  0  0  0  0  0
    1.2983    0.4379   -1.6687 H   0  0  0  0  0  0  0  0  0  0  0  0
    1.5929    1.1705   -0.0787 H   0  0  0  0  0  0  0  0  0  0  0  0
    1.7556   -1.0518    0.9999 H   0  0  0  0  0  0  0  0  0  0  0  0
    1.3452   -1.8563   -0.5900 H   0  0  0  0  0  0  0  0  0  0  0  0
    3.6899   -0.7501    0.2936 H   0  0  0  0  0  0  0  0  0  0  0  0
   -2.3269   -0.1264   -0.9979 H   0  0  0  0  0  0  0  0  0  0  0  0
   -0.9876   -1.3355   -1.4753 H   0  0  0  0  0  0  0  0  0  0  0  0
   -0.5943   -1.9827    0.7645 H   0  0  0  0  0  0  0  0  0  0  0  0
   -2.3120   -1.4163    1.0473 H   0  0  0  0  0  0  0  0  0  0  0  0
   -0.2747    0.1991    1.9812 H   0  0  0  0  0  0  0  0  0  0  0  0
   -1.8415    0.8505    1.2981 H   0  0  0  0  0  0  0  0  0  0  0  0
  1  2  3  0
  2  3  1  0
  3  4  1  0
  4  5  1  0
  5  6  1  0
  3  7  1  0
  7  8  1  0
  8  9  1  0
  9  3  1  0
  1 10  1  0
  4 11  1  0
  4 12  1  0
  5 13  1  0
  5 14  1  0
  6 15  1  0
  7 16  1  0
  7 17  1  0
  8 18  1  0
  8 19  1  0
  9 20  1  0
  9 21  1  0
M  END
