
     RDKit          3D

 14 15  0  0  0  0  0  0  0  0999 V2000
    2.9436    0.1710    0.8147 C   0  0  0  0  0  0  0  0  0  0  0  0
    1.7935   -0.1185    0.5977 C   0  0  0  0  0  0  0  0  0  0  0  0
    0.3956   -0.4554    0.3548 C   0  0  0  0  0  0  0  0  0  0  0  0
    0.0004   -1.6725    0.9174 O   0  0  0  0  0  0  0  0  0  0  0  0
   -0.1931    0.0594   -0.8832 C   0  0  0  0  0  0  0  0  0  0  0  0
   -1.6724    0.0468   -1.1550 C   0  0  0  0  0  0  0  0  0  0  0  0
   -1.9582    0.1090    0.2278 O   0  0  0  0  0  0  0  0  0  0  0  0
   -0.6639    0.5840    0.3987 C   0  0  0  0  0  0  0  0  0  0  0  0
    3.9509    0.4230    1.0231 H   0  0  0  0  0  0  0  0  0  0  0  0
   -0.5258   -1.5488    1.7422 H   0  0  0  0  0  0  0  0  0  0  0  0
    0.4583    0.6332   -1.5808 H   0  0  0  0  0  0  0  0  0  0  0  0
   -2.0728   -0.8378   -1.6672 H   0  0  0  0  0  0  0  0  0  0  0  0
   -1.9958    1.0378   -1.5883 H   0  0  0  0  0  0  0  0  0  0  0  0
   -0.4603    1.5688    0.7980 H   0  0  0  0  0  0  0  0  0  0  0  0
  1  2  3  0
  2  3  1  0
  3  4  1  0
  3  5  1  0
  5  6  1  0
  6  7  1  0
  7  8  1  0
  8  3  1  0
  8  5  1  0
  1  9  1  0
  4 10  1  0
  5 11  1  0
  6 12  1  0
  6 13  1  0
  8 14  1  0
M  END
