
     RDKit          3D

 17 17  0  0  0  0  0  0  0  0999 V2000
   -3.2278   -1.5808    0.9790 C   0  0  0  0  0  0  0  0  0  0  0  0
   -2.4669   -0.7350    0.5869 C   0  0  0  0  0  0  0  0  0  0  0  0
   -1.5399    0.2747    0.1367 C   0  0  0  0  0  0  0  0  0  0  0  0
   -0.9150    1.2785    0.9961 C   0  0  0  0  0  0  0  0  0  0  0  0
   -0.0998    0.1070    0.7326 C   0  0  0  0  0  0  0  0  0  0  0  0
    0.0218   -0.8141    1.7751 O   0  0  0  0  0  0  0  0  0  0  0  0
    0.9436    0.1374   -0.2879 C   0  0  0  0  0  0  0  0  0  0  0  0
    1.8220    0.1691   -1.1197 C   0  0  0  0  0  0  0  0  0  0  0  0
    2.9051    0.2306   -2.1354 C   0  0  0  0  0  0  0  0  0  0  0  0
   -3.9085   -2.3391    1.3502 H   0  0  0  0  0  0  0  0  0  0  0  0
   -1.5826    0.5599   -0.9476 H   0  0  0  0  0  0  0  0  0  0  0  0
   -0.6802    2.3000    0.5750 H   0  0  0  0  0  0  0  0  0  0  0  0
   -1.3953    1.3895    2.0134 H   0  0  0  0  0  0  0  0  0  0  0  0
    0.6090   -1.5473    1.4228 H   0  0  0  0  0  0  0  0  0  0  0  0
    3.4094   -0.7823   -2.1856 H   0  0  0  0  0  0  0  0  0  0  0  0
    3.6688    0.9786   -1.8904 H   0  0  0  0  0  0  0  0  0  0  0  0
    2.4362    0.3733   -3.1457 H   0  0  0  0  0  0  0  0  0  0  0  0
  1  2  3  0
  2  3  1  0
  3  4  1  0
  4  5  1  0
  5  6  1  0
  5  7  1  0
  7  8  3  0
  8  9  1  0
  5  3  1  0
  1 10  1  0
  3 11  1  0
  4 12  1  0
  4 13  1  0
  6 14  1  0
  9 15  1  0
  9 16  1  0
  9 17  1  0
M  END
