
     RDKit          3D

 17 17  0  0  0  0  0  0  0  0999 V2000
    1.4650    2.9201   -0.1694 C   0  0  0  0  0  0  0  0  0  0  0  0
    0.5370    2.0939   -0.1200 C   0  0  0  0  0  0  0  0  0  0  0  0
   -0.5322    1.1089   -0.0582 C   0  0  0  0  0  0  0  0  0  0  0  0
   -0.5549    0.0876   -1.1348 C   0  0  0  0  0  0  0  0  0  0  0  0
   -1.8496   -0.4819   -1.5894 C   0  0  0  0  0  0  0  0  0  0  0  0
   -2.8420   -0.5123   -0.8720 O   0  0  0  0  0  0  0  0  0  0  0  0
   -0.2108   -0.3049    0.2960 C   0  0  0  0  0  0  0  0  0  0  0  0
    1.0948   -0.7087    0.5044 O   0  0  0  0  0  0  0  0  0  0  0  0
    1.1850   -1.7267    1.4506 C   0  0  0  0  0  0  0  0  0  0  0  0
    2.2436    3.6154   -0.2281 H   0  0  0  0  0  0  0  0  0  0  0  0
   -1.5178    1.4944    0.3110 H   0  0  0  0  0  0  0  0  0  0  0  0
    0.2596    0.0568   -1.8713 H   0  0  0  0  0  0  0  0  0  0  0  0
   -1.9145   -0.8840   -2.5926 H   0  0  0  0  0  0  0  0  0  0  0  0
   -0.9521   -0.8499    0.9032 H   0  0  0  0  0  0  0  0  0  0  0  0
    0.7612   -1.3190    2.4124 H   0  0  0  0  0  0  0  0  0  0  0  0
    0.5689   -2.6154    1.1860 H   0  0  0  0  0  0  0  0  0  0  0  0
    2.2590   -1.9743    1.5720 H   0  0  0  0  0  0  0  0  0  0  0  0
  1  2  3  0
  2  3  1  0
  3  4  1  0
  4  5  1  0
  5  6  2  0
  4  7  1  0
  7  8  1  0
  8  9  1  0
  7  3  1  0
  1 10  1  0
  3 11  1  0
  4 12  1  0
  5 13  1  0
  7 14  1  0
  9 15  1  0
  9 16  1  0
  9 17  1  0
M  END
