
     RDKit          3D

 16 15  0  0  0  0  0  0  0  0999 V2000
    2.6203    0.6679   -1.3338 C   0  0  0  0  0  0  0  0  0  0  0  0
    0.9374   -0.1838   -1.1240 C   0  0  0  0  0  0  0  0  0  0  0  0
   -0.0974   -0.6979   -1.0074 C   0  0  0  0  0  0  0  0  0  0  0  0
   -0.7457   -0.0676    0.3826 C   0  0  0  0  0  0  0  0  0  0  0  0
   -2.1686   -0.2879   -0.2998 C   0  0  0  0  0  0  0  0  0  0  0  0
   -2.1199    0.2707   -1.5602 O   0  0  0  0  0  0  0  0  0  0  0  0
    0.1255    0.4721    1.1524 C   0  0  0  0  0  0  0  0  0  0  0  0
    1.1074   -0.6347    1.5436 O   0  0  0  0  0  0  0  0  0  0  0  0
    3.6937    1.2068   -1.4461 H   0  0  0  0  0  0  0  0  0  0  0  0
   -0.4067    0.7958   -1.5869 H   0  0  0  0  0  0  0  0  0  0  0  0
   -0.7991   -0.8039   -1.7921 H   0  0  0  0  0  0  0  0  0  0  0  0
   -0.8651   -1.3168    0.9071 H   0  0  0  0  0  0  0  0  0  0  0  0
   -2.9569   -0.7680    0.0581 H   0  0  0  0  0  0  0  0  0  0  0  0
    0.8260    1.3448    1.1672 H   0  0  0  0  0  0  0  0  0  0  0  0
   -0.2553    0.4978    2.3435 H   0  0  0  0  0  0  0  0  0  0  0  0
    1.1043   -0.4954    2.5958 H   0  0  0  0  0  0  0  0  0  0  0  0
  1  2  3  0
  2  3  1  0
  3  4  1  0
  4  5  1  0
  5  6  2  0
  4  7  1  0
  7  8  1  0
  1  9  1  0
  3 10  1  0
  3 11  1  0
  4 12  1  0
  5 13  1  0
  7 14  1  0
  7 15  1  0
  8 16  1  0
M  END
