
     RDKit          3D

 19 20  0  0  0  0  0  0  0  0999 V2000
    3.1395    0.7650    0.3959 C   0  0  0  0  0  0  0  0  0  0  0  0
    2.1391    0.1257    0.1800 C   0  0  0  0  0  0  0  0  0  0  0  0
    0.9268   -0.6525   -0.0885 C   0  0  0  0  0  0  0  0  0  0  0  0
    0.0119   -0.6372    1.1224 C   0  0  0  0  0  0  0  0  0  0  0  0
   -1.2156    0.1205    0.6814 C   0  0  0  0  0  0  0  0  0  0  0  0
   -1.9077   -0.6873   -0.3644 C   0  0  0  0  0  0  0  0  0  0  0  0
   -0.9955   -0.7979   -1.4126 O   0  0  0  0  0  0  0  0  0  0  0  0
    0.0813    0.0322   -1.1322 C   0  0  0  0  0  0  0  0  0  0  0  0
   -0.5310    1.1390   -0.2532 C   0  0  0  0  0  0  0  0  0  0  0  0
    4.0454    1.3249    0.5813 H   0  0  0  0  0  0  0  0  0  0  0  0
    1.2090   -1.6854   -0.3736 H   0  0  0  0  0  0  0  0  0  0  0  0
   -0.1966   -1.6410    1.5136 H   0  0  0  0  0  0  0  0  0  0  0  0
    0.4891   -0.0633    1.9677 H   0  0  0  0  0  0  0  0  0  0  0  0
   -1.8077    0.5623    1.4441 H   0  0  0  0  0  0  0  0  0  0  0  0
   -2.2600   -1.6739   -0.0079 H   0  0  0  0  0  0  0  0  0  0  0  0
   -2.7520   -0.0689   -0.7575 H   0  0  0  0  0  0  0  0  0  0  0  0
    0.6087    0.4194   -1.9836 H   0  0  0  0  0  0  0  0  0  0  0  0
    0.2657    1.6735    0.2641 H   0  0  0  0  0  0  0  0  0  0  0  0
   -1.2505    1.7449   -0.7922 H   0  0  0  0  0  0  0  0  0  0  0  0
  1  2  3  0
  2  3  1  0
  3  4  1  0
  4  5  1  0
  5  6  1  0
  6  7  1  0
  7  8  1  0
  8  9  1  0
  8  3  1  0
  9  5  1  0
  1 10  1  0
  3 11  1  0
  4 12  1  0
  4 13  1  0
  5 14  1  0
  6 15  1  0
  6 16  1  0
  8 17  1  0
  9 18  1  0
  9 19  1  0
M  END
