
     RDKit          3D

 17 18  0  0  0  0  0  0  0  0999 V2000
    4.5427    0.5438    1.2320 C   0  0  0  0  0  0  0  0  0  0  0  0
    3.4253    0.4932    0.7707 C   0  0  0  0  0  0  0  0  0  0  0  0
    2.1166    0.4379    0.2061 C   0  0  0  0  0  0  0  0  0  0  0  0
    1.0090    0.3711   -0.2793 C   0  0  0  0  0  0  0  0  0  0  0  0
   -0.3024    0.3150   -0.8643 C   0  0  0  0  0  0  0  0  0  0  0  0
   -1.4531    0.6908    0.0226 C   0  0  0  0  0  0  0  0  0  0  0  0
   -2.2675   -0.2440   -0.8308 C   0  0  0  0  0  0  0  0  0  0  0  0
   -0.9828   -0.9959   -0.5915 C   0  0  0  0  0  0  0  0  0  0  0  0
   -1.0979   -0.5296    0.8292 C   0  0  0  0  0  0  0  0  0  0  0  0
    5.5273    0.5797    1.6207 H   0  0  0  0  0  0  0  0  0  0  0  0
   -0.4023    0.6903   -1.9066 H   0  0  0  0  0  0  0  0  0  0  0  0
   -1.7082    1.5932    0.3576 H   0  0  0  0  0  0  0  0  0  0  0  0
   -3.1617   -0.6604   -0.3557 H   0  0  0  0  0  0  0  0  0  0  0  0
   -2.3698    0.0691   -1.8957 H   0  0  0  0  0  0  0  0  0  0  0  0
   -0.7366   -1.9007   -0.9299 H   0  0  0  0  0  0  0  0  0  0  0  0
   -1.9650   -1.0014    1.3429 H   0  0  0  0  0  0  0  0  0  0  0  0
   -0.1736   -0.4520    1.4093 H   0  0  0  0  0  0  0  0  0  0  0  0
  1  2  3  0
  2  3  1  0
  3  4  3  0
  4  5  1  0
  5  6  1  0
  6  7  1  0
  7  8  1  0
  8  9  1  0
  8  5  1  0
  9  6  1  0
  1 10  1  0
  5 11  1  0
  6 12  1  0
  7 13  1  0
  7 14  1  0
  8 15  1  0
  9 16  1  0
  9 17  1  0
M  END
