
     RDKit          3D

 23 23  0  0  0  0  0  0  0  0999 V2000
   -1.3575    2.6493    0.2354 C   0  0  0  0  0  0  0  0  0  0  0  0
   -1.1609    1.4425    0.2118 C   0  0  0  0  0  0  0  0  0  0  0  0
   -0.9385   -0.0006    0.1615 C   0  0  0  0  0  0  0  0  0  0  0  0
   -2.2048   -0.7348   -0.2717 C   0  0  0  0  0  0  0  0  0  0  0  0
   -0.1124   -0.6938    1.1361 C   0  0  0  0  0  0  0  0  0  0  0  0
    0.3814   -0.5255   -0.2534 C   0  0  0  0  0  0  0  0  0  0  0  0
    0.3145   -1.6745   -1.2353 C   0  0  0  0  0  0  0  0  0  0  0  0
    1.5437    0.3728   -0.4174 C   0  0  0  0  0  0  0  0  0  0  0  0
    1.8906    1.0586    0.8756 C   0  0  0  0  0  0  0  0  0  0  0  0
   -1.5110    3.6974    0.2497 H   0  0  0  0  0  0  0  0  0  0  0  0
   -2.1623   -1.8061   -0.0970 H   0  0  0  0  0  0  0  0  0  0  0  0
   -3.0420   -0.3144    0.3234 H   0  0  0  0  0  0  0  0  0  0  0  0
   -2.3932   -0.4415   -1.3316 H   0  0  0  0  0  0  0  0  0  0  0  0
   -0.3666   -1.7735    1.3705 H   0  0  0  0  0  0  0  0  0  0  0  0
    0.4238   -0.2405    1.9777 H   0  0  0  0  0  0  0  0  0  0  0  0
    1.3250   -2.0958   -1.4141 H   0  0  0  0  0  0  0  0  0  0  0  0
   -0.4291   -2.4331   -0.9803 H   0  0  0  0  0  0  0  0  0  0  0  0
    0.0102   -1.2254   -2.2257 H   0  0  0  0  0  0  0  0  0  0  0  0
    2.4613   -0.1811   -0.7716 H   0  0  0  0  0  0  0  0  0  0  0  0
    1.3141    1.1768   -1.1837 H   0  0  0  0  0  0  0  0  0  0  0  0
    2.3368    0.3327    1.6062 H   0  0  0  0  0  0  0  0  0  0  0  0
    1.0214    1.5570    1.3157 H   0  0  0  0  0  0  0  0  0  0  0  0
    2.6553    1.8533    0.7182 H   0  0  0  0  0  0  0  0  0  0  0  0
  1  2  3  0
  2  3  1  0
  3  4  1  0
  3  5  1  0
  5  6  1  0
  6  7  1  0
  6  8  1  0
  8  9  1  0
  6  3  1  0
  1 10  1  0
  4 11  1  0
  4 12  1  0
  4 13  1  0
  5 14  1  0
  5 15  1  0
  7 16  1  0
  7 17  1  0
  7 18  1  0
  8 19  1  0
  8 20  1  0
  9 21  1  0
  9 22  1  0
  9 23  1  0
M  END
