
     RDKit          3D

 21 20  0  0  0  0  0  0  0  0999 V2000
    2.4217    2.1025    1.0402 C   0  0  0  0  0  0  0  0  0  0  0  0
    2.0351    0.9950    1.2828 C   0  0  0  0  0  0  0  0  0  0  0  0
    1.5149   -0.4249    1.5960 C   0  0  0  0  0  0  0  0  0  0  0  0
    0.8929   -0.9471    0.3073 C   0  0  0  0  0  0  0  0  0  0  0  0
    0.0355    0.1404   -0.1027 C   0  0  0  0  0  0  0  0  0  0  0  0
   -1.0312   -0.4794   -1.3682 C   0  0  0  0  0  0  0  0  0  0  0  0
   -1.8078   -1.3719   -0.3378 C   0  0  0  0  0  0  0  0  0  0  0  0
   -1.5470    0.5918   -1.6204 C   0  0  0  0  0  0  0  0  0  0  0  0
   -2.1502    1.8429   -1.9083 C   0  0  0  0  0  0  0  0  0  0  0  0
    2.8089    3.2156    0.8180 H   0  0  0  0  0  0  0  0  0  0  0  0
    1.0708   -0.4458    2.5210 H   0  0  0  0  0  0  0  0  0  0  0  0
    2.5271   -1.0602    1.6058 H   0  0  0  0  0  0  0  0  0  0  0  0
    0.5217   -1.9501    0.4279 H   0  0  0  0  0  0  0  0  0  0  0  0
    1.8014   -1.0765   -0.4196 H   0  0  0  0  0  0  0  0  0  0  0  0
    0.5932    0.8068   -0.8208 H   0  0  0  0  0  0  0  0  0  0  0  0
   -0.6628    0.4894    0.5411 H   0  0  0  0  0  0  0  0  0  0  0  0
   -0.2359   -0.9423   -1.8763 H   0  0  0  0  0  0  0  0  0  0  0  0
   -2.8832   -1.3508   -0.5504 H   0  0  0  0  0  0  0  0  0  0  0  0
   -1.8362   -0.7041    0.6946 H   0  0  0  0  0  0  0  0  0  0  0  0
   -1.4100   -2.3225   -0.1292 H   0  0  0  0  0  0  0  0  0  0  0  0
   -2.6590    2.8912   -2.1401 H   0  0  0  0  0  0  0  0  0  0  0  0
  1  2  3  0
  2  3  1  0
  3  4  1  0
  4  5  1  0
  5  6  1  0
  6  7  1  0
  6  8  1  0
  8  9  3  0
  1 10  1  0
  3 11  1  0
  3 12  1  0
  4 13  1  0
  4 14  1  0
  5 15  1  0
  5 16  1  0
  6 17  1  0
  7 18  1  0
  7 19  1  0
  7 20  1  0
  9 21  1  0
M  END
