
     RDKit          3D

 17 18  0  0  0  0  0  0  0  0999 V2000
    2.4692    2.1919    0.7611 C   0  0  0  0  0  0  0  0  0  0  0  0
    1.5201    1.4575    0.6442 C   0  0  0  0  0  0  0  0  0  0  0  0
    0.3540    0.5435    0.5235 C   0  0  0  0  0  0  0  0  0  0  0  0
   -0.3757    0.3631    1.6814 O   0  0  0  0  0  0  0  0  0  0  0  0
    0.5530   -0.5820   -0.4008 C   0  0  0  0  0  0  0  0  0  0  0  0
   -0.4122   -1.7317   -0.4657 C   0  0  0  0  0  0  0  0  0  0  0  0
   -1.7321   -1.0307   -0.3059 C   0  0  0  0  0  0  0  0  0  0  0  0
   -1.6071    0.1957   -0.8918 O   0  0  0  0  0  0  0  0  0  0  0  0
   -0.3020    0.5659   -0.8260 C   0  0  0  0  0  0  0  0  0  0  0  0
    3.2960    2.8551    0.8657 H   0  0  0  0  0  0  0  0  0  0  0  0
   -0.2650    1.1833    2.2365 H   0  0  0  0  0  0  0  0  0  0  0  0
    1.5017   -0.7155   -0.9487 H   0  0  0  0  0  0  0  0  0  0  0  0
   -0.2291   -2.4912    0.3193 H   0  0  0  0  0  0  0  0  0  0  0  0
   -0.3796   -2.2390   -1.4361 H   0  0  0  0  0  0  0  0  0  0  0  0
   -2.0471   -0.9540    0.7597 H   0  0  0  0  0  0  0  0  0  0  0  0
   -2.4740   -1.6110   -0.9038 H   0  0  0  0  0  0  0  0  0  0  0  0
    0.1301    1.2504   -1.6128 H   0  0  0  0  0  0  0  0  0  0  0  0
  1  2  3  0
  2  3  1  0
  3  4  1  0
  3  5  1  0
  5  6  1  0
  6  7  1  0
  7  8  1  0
  8  9  1  0
  9  3  1  0
  9  5  1  0
  1 10  1  0
  4 11  1  0
  5 12  1  0
  6 13  1  0
  6 14  1  0
  7 15  1  0
  7 16  1  0
  9 17  1  0
M  END
