
     RDKit          3D

 18 18  0  0  0  0  0  0  0  0999 V2000
    2.5321    0.4739    0.2600 C   0  0  0  0  0  0  0  0  0  0  0  0
    1.5098    0.1279   -0.2756 C   0  0  0  0  0  0  0  0  0  0  0  0
    0.2709   -0.2964   -0.9476 C   0  0  0  0  0  0  0  0  0  0  0  0
    0.0604   -1.7576   -0.6486 C   0  0  0  0  0  0  0  0  0  0  0  0
   -0.6800   -1.8632    0.4973 O   0  0  0  0  0  0  0  0  0  0  0  0
   -0.8917   -0.6210    1.0285 C   0  0  0  0  0  0  0  0  0  0  0  0
   -0.8770    0.3122   -0.1646 C   0  0  0  0  0  0  0  0  0  0  0  0
   -0.6361    1.7363    0.2093 C   0  0  0  0  0  0  0  0  0  0  0  0
    3.4391    0.7934    0.7485 H   0  0  0  0  0  0  0  0  0  0  0  0
    0.2512   -0.0515   -2.0089 H   0  0  0  0  0  0  0  0  0  0  0  0
    1.0414   -2.3079   -0.5790 H   0  0  0  0  0  0  0  0  0  0  0  0
   -0.4507   -2.2274   -1.5369 H   0  0  0  0  0  0  0  0  0  0  0  0
   -1.8384   -0.5581    1.5860 H   0  0  0  0  0  0  0  0  0  0  0  0
   -0.0871   -0.2821    1.7154 H   0  0  0  0  0  0  0  0  0  0  0  0
   -1.7824    0.2022   -0.7778 H   0  0  0  0  0  0  0  0  0  0  0  0
   -0.0550    1.8451    1.1430 H   0  0  0  0  0  0  0  0  0  0  0  0
   -1.6253    2.2155    0.3899 H   0  0  0  0  0  0  0  0  0  0  0  0
   -0.1811    2.2585   -0.6388 H   0  0  0  0  0  0  0  0  0  0  0  0
  1  2  3  0
  2  3  1  0
  3  4  1  0
  4  5  1  0
  5  6  1  0
  6  7  1  0
  7  8  1  0
  7  3  1  0
  1  9  1  0
  3 10  1  0
  4 11  1  0
  4 12  1  0
  6 13  1  0
  6 14  1  0
  7 15  1  0
  8 16  1  0
  8 17  1  0
  8 18  1  0
M  END
