
     RDKit          3D

 18 18  0  0  0  0  0  0  0  0999 V2000
    2.9485    0.6754   -0.1178 C   0  0  0  0  0  0  0  0  0  0  0  0
    1.8160    0.4832    0.2496 C   0  0  0  0  0  0  0  0  0  0  0  0
    0.4372    0.2749    0.6957 C   0  0  0  0  0  0  0  0  0  0  0  0
   -0.5129    0.2894   -0.4971 C   0  0  0  0  0  0  0  0  0  0  0  0
   -1.4533    1.4544   -0.3967 C   0  0  0  0  0  0  0  0  0  0  0  0
   -1.0900   -1.0208    0.0612 C   0  0  0  0  0  0  0  0  0  0  0  0
    0.1725   -1.2034    0.8770 C   0  0  0  0  0  0  0  0  0  0  0  0
    1.1161   -2.0480    0.3118 O   0  0  0  0  0  0  0  0  0  0  0  0
    3.9594    0.8353   -0.4544 H   0  0  0  0  0  0  0  0  0  0  0  0
    0.1287    0.9018    1.5420 H   0  0  0  0  0  0  0  0  0  0  0  0
   -0.0470    0.1055   -1.4669 H   0  0  0  0  0  0  0  0  0  0  0  0
   -1.8131    1.7421   -1.4027 H   0  0  0  0  0  0  0  0  0  0  0  0
   -0.9773    2.3328    0.1284 H   0  0  0  0  0  0  0  0  0  0  0  0
   -2.3621    1.1425    0.1749 H   0  0  0  0  0  0  0  0  0  0  0  0
   -1.2874   -1.7853   -0.7004 H   0  0  0  0  0  0  0  0  0  0  0  0
   -1.9878   -0.7811    0.6687 H   0  0  0  0  0  0  0  0  0  0  0  0
   -0.0459   -1.4264    1.9427 H   0  0  0  0  0  0  0  0  0  0  0  0
    0.9983   -1.9725   -0.6833 H   0  0  0  0  0  0  0  0  0  0  0  0
  1  2  3  0
  2  3  1  0
  3  4  1  0
  4  5  1  0
  4  6  1  0
  6  7  1  0
  7  8  1  0
  7  3  1  0
  1  9  1  0
  3 10  1  0
  4 11  1  0
  5 12  1  0
  5 13  1  0
  5 14  1  0
  6 15  1  0
  6 16  1  0
  7 17  1  0
  8 18  1  0
M  END
