
     RDKit          3D

 19 19  0  0  0  0  0  0  0  0999 V2000
    1.7412   -2.7038    0.9586 C   0  0  0  0  0  0  0  0  0  0  0  0
    1.1197   -1.6483    1.1683 C   0  0  0  0  0  0  0  0  0  0  0  0
    0.5148   -0.5967    1.3796 C   0  0  0  0  0  0  0  0  0  0  0  0
    1.7467    0.3268    1.7785 O   0  0  0  0  0  0  0  0  0  0  0  0
    0.0266    0.1220    0.1372 C   0  0  0  0  0  0  0  0  0  0  0  0
   -0.7526   -0.5907   -0.7585 C   0  0  0  0  0  0  0  0  0  0  0  0
   -1.4266    0.3842   -1.6679 C   0  0  0  0  0  0  0  0  0  0  0  0
   -0.9566    1.6679   -1.0626 C   0  0  0  0  0  0  0  0  0  0  0  0
   -1.0444    1.2243    0.4469 C   0  0  0  0  0  0  0  0  0  0  0  0
    2.4175   -3.8778    0.7408 H   0  0  0  0  0  0  0  0  0  0  0  0
    0.0118   -0.2104    2.3986 H   0  0  0  0  0  0  0  0  0  0  0  0
    2.5140   -0.2889    1.6650 H   0  0  0  0  0  0  0  0  0  0  0  0
    0.9147    0.6545   -0.3177 H   0  0  0  0  0  0  0  0  0  0  0  0
   -1.0687   -1.5965   -0.9119 H   0  0  0  0  0  0  0  0  0  0  0  0
   -2.0113    0.1392   -2.4493 H   0  0  0  0  0  0  0  0  0  0  0  0
   -1.3614    2.5860   -1.3061 H   0  0  0  0  0  0  0  0  0  0  0  0
    0.2000    1.6805   -1.1533 H   0  0  0  0  0  0  0  0  0  0  0  0
   -1.9380    0.7176    0.6627 H   0  0  0  0  0  0  0  0  0  0  0  0
   -0.6474    2.0101    1.0903 H   0  0  0  0  0  0  0  0  0  0  0  0
  1  2  3  0
  2  3  1  0
  3  4  1  0
  3  5  1  0
  5  6  1  0
  6  7  2  0
  7  8  1  0
  8  9  1  0
  9  5  1  0
  1 10  1  0
  3 11  1  0
  4 12  1  0
  5 13  1  0
  6 14  1  0
  7 15  1  0
  8 16  1  0
  8 17  1  0
  9 18  1  0
  9 19  1  0
M  END
