
     RDKit          3D

 21 20  0  0  0  0  0  0  0  0999 V2000
   -1.2396    3.2499    0.1170 C   0  0  0  0  0  0  0  0  0  0  0  0
   -1.1269    2.0590   -0.0283 C   0  0  0  0  0  0  0  0  0  0  0  0
   -1.0041    0.5688   -0.2004 C   0  0  0  0  0  0  0  0  0  0  0  0
   -1.4084    0.0013    1.1335 C   0  0  0  0  0  0  0  0  0  0  0  0
   -1.4083   -1.4602    1.2032 C   0  0  0  0  0  0  0  0  0  0  0  0
   -1.4211   -2.0448    2.2698 O   0  0  0  0  0  0  0  0  0  0  0  0
    0.4431    0.3452   -0.4615 C   0  0  0  0  0  0  0  0  0  0  0  0
    0.9190   -1.0377   -0.6689 C   0  0  0  0  0  0  0  0  0  0  0  0
    2.4333   -0.9245   -0.9484 C   0  0  0  0  0  0  0  0  0  0  0  0
   -1.3205    4.2982    0.2431 H   0  0  0  0  0  0  0  0  0  0  0  0
   -1.6882    0.2753   -1.0133 H   0  0  0  0  0  0  0  0  0  0  0  0
   -2.4215    0.3832    1.4273 H   0  0  0  0  0  0  0  0  0  0  0  0
   -0.6930    0.4446    1.8888 H   0  0  0  0  0  0  0  0  0  0  0  0
   -1.3992   -2.0516    0.3011 H   0  0  0  0  0  0  0  0  0  0  0  0
    0.9877    0.8166    0.4055 H   0  0  0  0  0  0  0  0  0  0  0  0
    0.7357    0.9540   -1.3674 H   0  0  0  0  0  0  0  0  0  0  0  0
    0.4830   -1.5685   -1.5321 H   0  0  0  0  0  0  0  0  0  0  0  0
    0.8677   -1.6634    0.2575 H   0  0  0  0  0  0  0  0  0  0  0  0
    2.5328   -0.6088   -1.9997 H   0  0  0  0  0  0  0  0  0  0  0  0
    2.9103   -1.9092   -0.7385 H   0  0  0  0  0  0  0  0  0  0  0  0
    2.8181   -0.1275   -0.2883 H   0  0  0  0  0  0  0  0  0  0  0  0
  1  2  3  0
  2  3  1  0
  3  4  1  0
  4  5  1  0
  5  6  2  0
  3  7  1  0
  7  8  1  0
  8  9  1  0
  1 10  1  0
  3 11  1  0
  4 12  1  0
  4 13  1  0
  5 14  1  0
  7 15  1  0
  7 16  1  0
  8 17  1  0
  8 18  1  0
  9 19  1  0
  9 20  1  0
  9 21  1  0
M  END
