
     RDKit          3D

 19 20  0  0  0  0  0  0  0  0999 V2000
    3.9741   -0.4036   -0.3804 C   0  0  0  0  0  0  0  0  0  0  0  0
    2.9017    0.2490   -0.5376 C   0  0  0  0  0  0  0  0  0  0  0  0
    1.7395    0.9804   -0.7111 C   0  0  0  0  0  0  0  0  0  0  0  0
    0.9455    0.7044   -1.8547 O   0  0  0  0  0  0  0  0  0  0  0  0
    0.4296    0.5809   -0.4498 C   0  0  0  0  0  0  0  0  0  0  0  0
   -0.1769   -0.7925   -0.3719 C   0  0  0  0  0  0  0  0  0  0  0  0
   -1.6058   -0.7578    0.0866 C   0  0  0  0  0  0  0  0  0  0  0  0
   -1.6866   -0.1880    1.5425 C   0  0  0  0  0  0  0  0  0  0  0  0
   -2.4274    0.4050    0.3723 C   0  0  0  0  0  0  0  0  0  0  0  0
    4.8896   -0.9795   -0.2541 H   0  0  0  0  0  0  0  0  0  0  0  0
    1.9094    2.1403   -0.5624 H   0  0  0  0  0  0  0  0  0  0  0  0
   -0.4198    1.3654   -0.5224 H   0  0  0  0  0  0  0  0  0  0  0  0
   -0.0565   -1.3086   -1.3737 H   0  0  0  0  0  0  0  0  0  0  0  0
    0.4374   -1.4225    0.3448 H   0  0  0  0  0  0  0  0  0  0  0  0
   -2.1025   -1.7509   -0.0217 H   0  0  0  0  0  0  0  0  0  0  0  0
   -2.2273   -0.8383    2.2512 H   0  0  0  0  0  0  0  0  0  0  0  0
   -0.7721    0.3575    1.9041 H   0  0  0  0  0  0  0  0  0  0  0  0
   -3.5455    0.1931    0.4177 H   0  0  0  0  0  0  0  0  0  0  0  0
   -2.2063    1.4659    0.2187 H   0  0  0  0  0  0  0  0  0  0  0  0
  1  2  3  0
  2  3  1  0
  3  4  1  0
  4  5  1  0
  5  6  1  0
  6  7  1  0
  7  8  1  0
  8  9  1  0
  5  3  1  0
  9  7  1  0
  1 10  1  0
  3 11  1  0
  5 12  1  0
  6 13  1  0
  6 14  1  0
  7 15  1  0
  8 16  1  0
  8 17  1  0
  9 18  1  0
  9 19  1  0
M  END
