
     RDKit          3D

 15 16  0  0  0  0  0  0  0  0999 V2000
    4.3200    0.1981   -0.9156 C   0  0  0  0  0  0  0  0  0  0  0  0
    3.1564    0.1867   -0.5916 C   0  0  0  0  0  0  0  0  0  0  0  0
    1.7974    0.1859   -0.1911 C   0  0  0  0  0  0  0  0  0  0  0  0
    0.6387    0.1809    0.1720 C   0  0  0  0  0  0  0  0  0  0  0  0
   -0.7799    0.1764    0.6343 C   0  0  0  0  0  0  0  0  0  0  0  0
   -1.2386   -1.2899    0.6654 C   0  0  0  0  0  0  0  0  0  0  0  0
   -1.0262   -1.1272   -0.7335 O   0  0  0  0  0  0  0  0  0  0  0  0
   -1.8317   -0.0181   -0.5335 C   0  0  0  0  0  0  0  0  0  0  0  0
   -1.5273    1.2617    0.0090 C   0  0  0  0  0  0  0  0  0  0  0  0
    5.3612    0.1985   -1.1889 H   0  0  0  0  0  0  0  0  0  0  0  0
   -0.4934   -1.9237    1.1482 H   0  0  0  0  0  0  0  0  0  0  0  0
   -2.2662   -1.4523    0.9747 H   0  0  0  0  0  0  0  0  0  0  0  0
   -2.8420   -0.4072   -0.1859 H   0  0  0  0  0  0  0  0  0  0  0  0
   -1.0524    2.0216   -0.6813 H   0  0  0  0  0  0  0  0  0  0  0  0
   -2.2160    1.8087    0.7041 H   0  0  0  0  0  0  0  0  0  0  0  0
  1  2  3  0
  2  3  1  0
  3  4  3  0
  4  5  1  0
  5  6  1  0
  6  7  1  0
  7  8  1  0
  8  9  1  0
  8  5  1  0
  9  5  1  0
  1 10  1  0
  6 11  1  0
  6 12  1  0
  8 13  1  0
  9 14  1  0
  9 15  1  0
M  END
