
     RDKit          3D

 19 19  0  0  0  0  0  0  0  0999 V2000
    3.4123    0.0276   -0.0157 C   0  0  0  0  0  0  0  0  0  0  0  0
    2.6504    0.2843   -0.4077 C   0  0  0  0  0  0  0  0  0  0  0  0
    1.4250    0.6899   -1.0585 C   0  0  0  0  0  0  0  0  0  0  0  0
    0.2302    0.0391   -0.3424 C   0  0  0  0  0  0  0  0  0  0  0  0
    0.1716   -0.7692    0.5962 C   0  0  0  0  0  0  0  0  0  0  0  0
   -1.1365   -1.2983    1.1509 C   0  0  0  0  0  0  0  0  0  0  0  0
   -2.2436   -0.9221    0.3662 O   0  0  0  0  0  0  0  0  0  0  0  0
   -2.1225    0.5002    0.2506 C   0  0  0  0  0  0  0  0  0  0  0  0
   -1.1406    0.6408   -0.8980 C   0  0  0  0  0  0  0  0  0  0  0  0
    4.4747   -0.3090    0.5183 H   0  0  0  0  0  0  0  0  0  0  0  0
    1.2076    1.7408   -0.9784 H   0  0  0  0  0  0  0  0  0  0  0  0
    1.3430    0.3821   -2.1438 H   0  0  0  0  0  0  0  0  0  0  0  0
    1.1042   -1.1547    1.1411 H   0  0  0  0  0  0  0  0  0  0  0  0
   -1.2702   -0.9227    2.1627 H   0  0  0  0  0  0  0  0  0  0  0  0
   -1.1404   -2.4167    1.1092 H   0  0  0  0  0  0  0  0  0  0  0  0
   -3.0367    1.0119    0.1552 H   0  0  0  0  0  0  0  0  0  0  0  0
   -1.5866    0.7971    1.2118 H   0  0  0  0  0  0  0  0  0  0  0  0
   -0.9518    1.6767   -1.0870 H   0  0  0  0  0  0  0  0  0  0  0  0
   -1.3901    0.0022   -1.7309 H   0  0  0  0  0  0  0  0  0  0  0  0
  1  2  3  0
  2  3  1  0
  3  4  1  0
  4  5  2  0
  5  6  1  0
  6  7  1  0
  7  8  1  0
  8  9  1  0
  9  4  1  0
  1 10  1  0
  3 11  1  0
  3 12  1  0
  5 13  1  0
  6 14  1  0
  6 15  1  0
  8 16  1  0
  8 17  1  0
  9 18  1  0
  9 19  1  0
M  END
