
     RDKit          3D

 21 21  0  0  0  0  0  0  0  0999 V2000
    2.4096    2.0843   -0.4394 C   0  0  0  0  0  0  0  0  0  0  0  0
    1.9657    1.0116   -0.1023 C   0  0  0  0  0  0  0  0  0  0  0  0
    1.4253   -0.2735    0.3164 C   0  0  0  0  0  0  0  0  0  0  0  0
    0.0404   -0.4672   -0.1884 C   0  0  0  0  0  0  0  0  0  0  0  0
   -1.0705    0.4670    0.1791 C   0  0  0  0  0  0  0  0  0  0  0  0
   -1.2796    0.4905    1.6979 C   0  0  0  0  0  0  0  0  0  0  0  0
   -0.9131    1.7404   -0.3273 O   0  0  0  0  0  0  0  0  0  0  0  0
   -0.1105   -1.1143   -1.5706 C   0  0  0  0  0  0  0  0  0  0  0  0
   -0.3638   -1.9322   -0.3809 C   0  0  0  0  0  0  0  0  0  0  0  0
    2.8007    3.0311   -0.7176 H   0  0  0  0  0  0  0  0  0  0  0  0
    1.4809   -0.4249    1.4147 H   0  0  0  0  0  0  0  0  0  0  0  0
    2.0693   -1.0609   -0.1308 H   0  0  0  0  0  0  0  0  0  0  0  0
   -2.0198    0.0714   -0.2418 H   0  0  0  0  0  0  0  0  0  0  0  0
   -0.4986    1.0757    2.1936 H   0  0  0  0  0  0  0  0  0  0  0  0
   -2.2508    0.9603    1.9461 H   0  0  0  0  0  0  0  0  0  0  0  0
   -1.2832   -0.5245    2.0917 H   0  0  0  0  0  0  0  0  0  0  0  0
   -1.2183    1.8503   -1.2481 H   0  0  0  0  0  0  0  0  0  0  0  0
    0.8520   -1.2647   -2.1166 H   0  0  0  0  0  0  0  0  0  0  0  0
   -0.9821   -0.7979   -2.1912 H   0  0  0  0  0  0  0  0  0  0  0  0
    0.3588   -2.7145   -0.0961 H   0  0  0  0  0  0  0  0  0  0  0  0
   -1.4125   -2.2079   -0.0883 H   0  0  0  0  0  0  0  0  0  0  0  0
  1  2  3  0
  2  3  1  0
  3  4  1  0
  4  5  1  0
  5  6  1  0
  5  7  1  0
  4  8  1  0
  8  9  1  0
  9  4  1  0
  1 10  1  0
  3 11  1  0
  3 12  1  0
  5 13  1  0
  6 14  1  0
  6 15  1  0
  6 16  1  0
  7 17  1  0
  8 18  1  0
  8 19  1  0
  9 20  1  0
  9 21  1  0
M  END
