
     RDKit          3D

 16 16  0  0  0  0  0  0  0  0999 V2000
   -2.2655   -2.2335   -0.7887 C   0  0  0  0  0  0  0  0  0  0  0  0
   -1.3959   -1.4447   -0.6868 C   0  0  0  0  0  0  0  0  0  0  0  0
   -0.3083   -0.4604   -0.5730 C   0  0  0  0  0  0  0  0  0  0  0  0
   -0.7999    0.8639   -0.0281 C   0  0  0  0  0  0  0  0  0  0  0  0
    0.4310    0.8798    0.8651 C   0  0  0  0  0  0  0  0  0  0  0  0
    1.6075    1.4835    0.2239 C   0  0  0  0  0  0  0  0  0  0  0  0
    2.5586    1.9766   -0.3184 C   0  0  0  0  0  0  0  0  0  0  0  0
    0.4321   -0.6541    0.7541 C   0  0  0  0  0  0  0  0  0  0  0  0
   -3.0335   -2.9548   -0.8782 H   0  0  0  0  0  0  0  0  0  0  0  0
    0.3222   -0.3863   -1.4568 H   0  0  0  0  0  0  0  0  0  0  0  0
   -0.8033    1.6554   -0.7849 H   0  0  0  0  0  0  0  0  0  0  0  0
   -1.7472    0.7173    0.4996 H   0  0  0  0  0  0  0  0  0  0  0  0
    0.2737    1.2800    1.8628 H   0  0  0  0  0  0  0  0  0  0  0  0
    3.4066    2.4372   -0.8106 H   0  0  0  0  0  0  0  0  0  0  0  0
    1.4707   -0.9871    0.5911 H   0  0  0  0  0  0  0  0  0  0  0  0
   -0.1487   -1.1676    1.5291 H   0  0  0  0  0  0  0  0  0  0  0  0
  1  2  3  0
  2  3  1  0
  3  4  1  0
  4  5  1  0
  5  6  1  0
  6  7  3  0
  5  8  1  0
  8  3  1  0
  1  9  1  0
  3 10  1  0
  4 11  1  0
  4 12  1  0
  5 13  1  0
  7 14  1  0
  8 15  1  0
  8 16  1  0
M  END
