
     RDKit          3D

 21 20  0  0  0  0  0  0  0  0999 V2000
    2.3780    1.6551   -2.0230 C   0  0  0  0  0  0  0  0  0  0  0  0
    1.9439    0.3838   -1.4613 C   0  0  0  0  0  0  0  0  0  0  0  0
    1.5392   -0.7852   -0.9220 C   0  0  0  0  0  0  0  0  0  0  0  0
    0.7474   -0.4605    0.4521 C   0  0  0  0  0  0  0  0  0  0  0  0
    0.3521   -1.8526    0.8831 C   0  0  0  0  0  0  0  0  0  0  0  0
   -0.4913    0.2756   -0.0290 C   0  0  0  0  0  0  0  0  0  0  0  0
   -1.4230    0.8511    0.9608 C   0  0  0  0  0  0  0  0  0  0  0  0
   -2.5354    1.5477    0.1960 C   0  0  0  0  0  0  0  0  0  0  0  0
   -2.4048    2.0587   -0.8277 O   0  0  0  0  0  0  0  0  0  0  0  0
    2.6272    2.3615   -2.3242 H   0  0  0  0  0  0  0  0  0  0  0  0
    2.2410   -1.5999   -0.7388 H   0  0  0  0  0  0  0  0  0  0  0  0
    0.6607   -1.2835   -1.4720 H   0  0  0  0  0  0  0  0  0  0  0  0
    1.4280    0.0635    1.0498 H   0  0  0  0  0  0  0  0  0  0  0  0
    0.4519   -2.5273   -0.0649 H   0  0  0  0  0  0  0  0  0  0  0  0
    1.0144   -2.2900    1.6743 H   0  0  0  0  0  0  0  0  0  0  0  0
   -0.7457   -1.9629    1.0887 H   0  0  0  0  0  0  0  0  0  0  0  0
   -1.1045   -0.5817   -0.5868 H   0  0  0  0  0  0  0  0  0  0  0  0
   -0.2543    0.9544   -0.8460 H   0  0  0  0  0  0  0  0  0  0  0  0
   -0.9098    1.5615    1.6544 H   0  0  0  0  0  0  0  0  0  0  0  0
   -1.9788    0.1277    1.6160 H   0  0  0  0  0  0  0  0  0  0  0  0
   -3.5363    1.5031    0.7255 H   0  0  0  0  0  0  0  0  0  0  0  0
  1  2  3  0
  2  3  1  0
  3  4  1  0
  4  5  1  0
  4  6  1  0
  6  7  1  0
  7  8  1  0
  8  9  2  0
  1 10  1  0
  3 11  1  0
  3 12  1  0
  4 13  1  0
  5 14  1  0
  5 15  1  0
  5 16  1  0
  6 17  1  0
  6 18  1  0
  7 19  1  0
  7 20  1  0
  8 21  1  0
M  END
