
     RDKit          3D

 17 17  0  0  0  0  0  0  0  0999 V2000
   -1.9419    2.0559   -0.2689 C   0  0  0  0  0  0  0  0  0  0  0  0
   -1.7205    0.9155    0.0830 C   0  0  0  0  0  0  0  0  0  0  0  0
   -1.4368   -0.4631    0.4885 C   0  0  0  0  0  0  0  0  0  0  0  0
   -0.0895   -0.8860    0.0176 C   0  0  0  0  0  0  0  0  0  0  0  0
    0.0433   -0.8270   -1.4794 C   0  0  0  0  0  0  0  0  0  0  0  0
    1.3992   -0.4840   -1.2700 O   0  0  0  0  0  0  0  0  0  0  0  0
    0.9444    0.2111   -0.1243 C   0  0  0  0  0  0  0  0  0  0  0  0
    1.9906    0.1692    0.9136 C   0  0  0  0  0  0  0  0  0  0  0  0
    2.8340    0.1227    1.7601 C   0  0  0  0  0  0  0  0  0  0  0  0
   -2.1364    3.0587   -0.5589 H   0  0  0  0  0  0  0  0  0  0  0  0
   -1.5369   -0.5004    1.5839 H   0  0  0  0  0  0  0  0  0  0  0  0
   -2.2101   -1.1720    0.0864 H   0  0  0  0  0  0  0  0  0  0  0  0
    0.3578   -1.7566    0.5159 H   0  0  0  0  0  0  0  0  0  0  0  0
   -0.1075   -1.7763   -2.0175 H   0  0  0  0  0  0  0  0  0  0  0  0
   -0.5524    0.0298   -1.8719 H   0  0  0  0  0  0  0  0  0  0  0  0
    0.5682    1.2036   -0.3774 H   0  0  0  0  0  0  0  0  0  0  0  0
    3.5944    0.0989    2.5193 H   0  0  0  0  0  0  0  0  0  0  0  0
  1  2  3  0
  2  3  1  0
  3  4  1  0
  4  5  1  0
  5  6  1  0
  6  7  1  0
  7  8  1  0
  8  9  3  0
  7  4  1  0
  1 10  1  0
  3 11  1  0
  3 12  1  0
  4 13  1  0
  5 14  1  0
  5 15  1  0
  7 16  1  0
  9 17  1  0
M  END
