
     RDKit          3D

 17 16  0  0  0  0  0  0  0  0999 V2000
   -4.1024   -0.2388    1.0894 C   0  0  0  0  0  0  0  0  0  0  0  0
   -3.0403   -0.7301   -0.1358 C   0  0  0  0  0  0  0  0  0  0  0  0
   -2.1779   -1.1178   -1.1465 C   0  0  0  0  0  0  0  0  0  0  0  0
   -0.8916   -1.6700    0.1808 C   0  0  0  0  0  0  0  0  0  0  0  0
   -0.2556   -0.9738    0.2228 C   0  0  0  0  0  0  0  0  0  0  0  0
    0.6293    0.0130    0.2728 C   0  0  0  0  0  0  0  0  0  0  0  0
    1.7546    1.2422    0.3213 C   0  0  0  0  0  0  0  0  0  0  0  0
    2.3324    1.8514    0.3471 C   0  0  0  0  0  0  0  0  0  0  0  0
    3.3113    2.8681    0.3866 C   0  0  0  0  0  0  0  0  0  0  0  0
   -4.4339   -0.0896    1.4772 H   0  0  0  0  0  0  0  0  0  0  0  0
   -1.4660   -0.2075   -1.3495 H   0  0  0  0  0  0  0  0  0  0  0  0
   -2.3803   -1.7618   -1.7938 H   0  0  0  0  0  0  0  0  0  0  0  0
   -1.3966   -2.5992    0.4548 H   0  0  0  0  0  0  0  0  0  0  0  0
   -0.4097   -2.5288   -0.9329 H   0  0  0  0  0  0  0  0  0  0  0  0
    4.2863    1.3875    0.0309 H   0  0  0  0  0  0  0  0  0  0  0  0
    4.2525    2.6027    1.2186 H   0  0  0  0  0  0  0  0  0  0  0  0
    3.9879    2.8838   -0.6437 H   0  0  0  0  0  0  0  0  0  0  0  0
  1  2  3  0
  2  3  1  0
  3  4  1  0
  4  5  1  0
  5  6  3  0
  6  7  1  0
  7  8  3  0
  8  9  1  0
  1 10  1  0
  3 11  1  0
  3 12  1  0
  4 13  1  0
  4 14  1  0
  9 15  1  0
  9 16  1  0
  9 17  1  0
M  END
