
     RDKit          3D

 19 19  0  0  0  0  0  0  0  0999 V2000
   -0.6826   -3.0616    0.7986 C   0  0  0  0  0  0  0  0  0  0  0  0
   -0.9785   -1.8850    0.6400 C   0  0  0  0  0  0  0  0  0  0  0  0
   -1.3392   -0.4968    0.4753 C   0  0  0  0  0  0  0  0  0  0  0  0
   -0.9119    0.2442    1.6852 O   0  0  0  0  0  0  0  0  0  0  0  0
   -0.5057    0.5988    0.3065 C   0  0  0  0  0  0  0  0  0  0  0  0
   -1.2054    1.9464   -0.0136 C   0  0  0  0  0  0  0  0  0  0  0  0
    0.9609    0.7122    0.1731 C   0  0  0  0  0  0  0  0  0  0  0  0
    1.5947    0.0196   -0.9871 C   0  0  0  0  0  0  0  0  0  0  0  0
    1.3616   -1.3444   -0.9505 O   0  0  0  0  0  0  0  0  0  0  0  0
   -0.4424   -4.0869    0.9291 H   0  0  0  0  0  0  0  0  0  0  0  0
   -2.4479   -0.3622    0.3920 H   0  0  0  0  0  0  0  0  0  0  0  0
   -0.9552    2.6987    0.7467 H   0  0  0  0  0  0  0  0  0  0  0  0
   -2.2958    1.8297   -0.0200 H   0  0  0  0  0  0  0  0  0  0  0  0
   -0.8969    2.2761   -1.0281 H   0  0  0  0  0  0  0  0  0  0  0  0
    1.4937    0.3795    1.1210 H   0  0  0  0  0  0  0  0  0  0  0  0
    1.2919    1.7930    0.1023 H   0  0  0  0  0  0  0  0  0  0  0  0
    1.2817    0.4776   -1.9557 H   0  0  0  0  0  0  0  0  0  0  0  0
    2.7102    0.1392   -0.9145 H   0  0  0  0  0  0  0  0  0  0  0  0
    1.9667   -1.8780   -1.5006 H   0  0  0  0  0  0  0  0  0  0  0  0
  1  2  3  0
  2  3  1  0
  3  4  1  0
  4  5  1  0
  5  6  1  0
  5  7  1  0
  7  8  1  0
  8  9  1  0
  5  3  1  0
  1 10  1  0
  3 11  1  0
  6 12  1  0
  6 13  1  0
  6 14  1  0
  7 15  1  0
  7 16  1  0
  8 17  1  0
  8 18  1  0
  9 19  1  0
M  END
