
     RDKit          3D

 19 19  0  0  0  0  0  0  0  0999 V2000
    3.3956   -0.8904    0.5646 C   0  0  0  0  0  0  0  0  0  0  0  0
    2.1972   -0.9642    0.5003 C   0  0  0  0  0  0  0  0  0  0  0  0
    0.7575   -1.0777    0.4272 C   0  0  0  0  0  0  0  0  0  0  0  0
    0.3336   -1.7906   -0.6915 O   0  0  0  0  0  0  0  0  0  0  0  0
   -1.0525   -1.5098   -0.6610 C   0  0  0  0  0  0  0  0  0  0  0  0
   -1.0268   -0.0234   -0.4206 C   0  0  0  0  0  0  0  0  0  0  0  0
   -2.0369    0.9913   -0.8369 C   0  0  0  0  0  0  0  0  0  0  0  0
    0.0950    0.2223    0.2505 C   0  0  0  0  0  0  0  0  0  0  0  0
    0.5228    1.5911    0.7003 C   0  0  0  0  0  0  0  0  0  0  0  0
    4.4645   -0.8069    0.6209 H   0  0  0  0  0  0  0  0  0  0  0  0
    0.3072   -1.5697    1.3105 H   0  0  0  0  0  0  0  0  0  0  0  0
   -1.4882   -1.9876    0.2333 H   0  0  0  0  0  0  0  0  0  0  0  0
   -1.5442   -1.7644   -1.5975 H   0  0  0  0  0  0  0  0  0  0  0  0
   -1.5111    1.9335   -1.1438 H   0  0  0  0  0  0  0  0  0  0  0  0
   -2.5699    0.6522   -1.7574 H   0  0  0  0  0  0  0  0  0  0  0  0
   -2.7195    1.2624   -0.0161 H   0  0  0  0  0  0  0  0  0  0  0  0
    0.0252    1.7934    1.6678 H   0  0  0  0  0  0  0  0  0  0  0  0
    0.2376    2.3557   -0.0561 H   0  0  0  0  0  0  0  0  0  0  0  0
    1.6129    1.5827    0.9055 H   0  0  0  0  0  0  0  0  0  0  0  0
  1  2  3  0
  2  3  1  0
  3  4  1  0
  4  5  1  0
  5  6  1  0
  6  7  1  0
  6  8  2  0
  8  9  1  0
  8  3  1  0
  1 10  1  0
  3 11  1  0
  5 12  1  0
  5 13  1  0
  7 14  1  0
  7 15  1  0
  7 16  1  0
  9 17  1  0
  9 18  1  0
  9 19  1  0
M  END
