
     RDKit          3D

 19 19  0  0  0  0  0  0  0  0999 V2000
   -3.1255    1.6964   -1.3430 C   0  0  0  0  0  0  0  0  0  0  0  0
   -2.2547    1.6885   -0.4841 C   0  0  0  0  0  0  0  0  0  0  0  0
   -1.2140    1.6593    0.5539 C   0  0  0  0  0  0  0  0  0  0  0  0
   -0.8746    0.1830    0.8763 C   0  0  0  0  0  0  0  0  0  0  0  0
   -0.0498    0.4834   -0.3897 C   0  0  0  0  0  0  0  0  0  0  0  0
    1.2003   -0.3006   -0.4812 C   0  0  0  0  0  0  0  0  0  0  0  0
    0.9364   -1.5909   -1.0476 O   0  0  0  0  0  0  0  0  0  0  0  0
    2.1846   -2.1987   -1.0935 C   0  0  0  0  0  0  0  0  0  0  0  0
    0.0995    1.7501    0.1359 O   0  0  0  0  0  0  0  0  0  0  0  0
   -3.8817    1.7111   -2.0657 H   0  0  0  0  0  0  0  0  0  0  0  0
   -1.5016    2.1908    1.4677 H   0  0  0  0  0  0  0  0  0  0  0  0
   -1.6906   -0.4886    0.6437 H   0  0  0  0  0  0  0  0  0  0  0  0
   -0.2897    0.0357    1.8034 H   0  0  0  0  0  0  0  0  0  0  0  0
   -0.7371    0.4285   -1.2690 H   0  0  0  0  0  0  0  0  0  0  0  0
    1.6658   -0.4109    0.5109 H   0  0  0  0  0  0  0  0  0  0  0  0
    1.9686    0.1099   -1.1568 H   0  0  0  0  0  0  0  0  0  0  0  0
    2.5503   -2.2391   -0.0403 H   0  0  0  0  0  0  0  0  0  0  0  0
    2.8280   -1.5058   -1.6866 H   0  0  0  0  0  0  0  0  0  0  0  0
    2.1859   -3.2022   -1.5389 H   0  0  0  0  0  0  0  0  0  0  0  0
  1  2  3  0
  2  3  1  0
  3  4  1  0
  4  5  1  0
  5  6  1  0
  6  7  1  0
  7  8  1  0
  5  9  1  0
  9  3  1  0
  1 10  1  0
  3 11  1  0
  4 12  1  0
  4 13  1  0
  5 14  1  0
  6 15  1  0
  6 16  1  0
  8 17  1  0
  8 18  1  0
  8 19  1  0
M  END
