
     RDKit          3D

 15 16  0  0  0  0  0  0  0  0999 V2000
    2.3296   -0.1339    2.2191 C   0  0  0  0  0  0  0  0  0  0  0  0
    1.4629   -0.4060    1.2079 C   0  0  0  0  0  0  0  0  0  0  0  0
    0.6438   -0.6716    0.2169 C   0  0  0  0  0  0  0  0  0  0  0  0
   -0.7046   -0.9601    0.7128 O   0  0  0  0  0  0  0  0  0  0  0  0
   -1.4556   -0.0811    0.0599 C   0  0  0  0  0  0  0  0  0  0  0  0
   -0.9957   -0.1769   -1.4240 C   0  0  0  0  0  0  0  0  0  0  0  0
    0.2944    0.3720   -0.7635 C   0  0  0  0  0  0  0  0  0  0  0  0
   -0.7416    1.1900    0.0168 C   0  0  0  0  0  0  0  0  0  0  0  0
   -0.6999    2.3203    0.3045 O   0  0  0  0  0  0  0  0  0  0  0  0
    2.9354    0.0465    2.9406 H   0  0  0  0  0  0  0  0  0  0  0  0
    0.8305   -1.6748   -0.3691 H   0  0  0  0  0  0  0  0  0  0  0  0
   -2.5461   -0.0414    0.2140 H   0  0  0  0  0  0  0  0  0  0  0  0
   -1.4722    0.5594   -2.0321 H   0  0  0  0  0  0  0  0  0  0  0  0
   -0.8744   -1.2234   -1.7423 H   0  0  0  0  0  0  0  0  0  0  0  0
    0.9936    0.8810   -1.3315 H   0  0  0  0  0  0  0  0  0  0  0  0
  1  2  3  0
  2  3  1  0
  3  4  1  0
  4  5  1  0
  5  6  1  0
  6  7  1  0
  7  8  1  0
  8  9  2  0
  7  3  1  0
  8  5  1  0
  1 10  1  0
  3 11  1  0
  5 12  1  0
  6 13  1  0
  6 14  1  0
  7 15  1  0
M  END
