
     RDKit          3D

 17 18  0  0  0  0  0  0  0  0999 V2000
    2.1203   -1.5703    0.5841 C   0  0  0  0  0  0  0  0  0  0  0  0
    1.0248   -1.2170    0.2024 C   0  0  0  0  0  0  0  0  0  0  0  0
   -0.3260   -0.7612   -0.2521 C   0  0  0  0  0  0  0  0  0  0  0  0
   -1.0506   -1.8083   -0.7333 O   0  0  0  0  0  0  0  0  0  0  0  0
   -1.0127    0.0128    0.8776 C   0  0  0  0  0  0  0  0  0  0  0  0
   -0.8549    1.3866    0.2743 C   0  0  0  0  0  0  0  0  0  0  0  0
    0.5522    1.4090   -0.2689 C   0  0  0  0  0  0  0  0  0  0  0  0
   -0.1185    0.3969   -1.1910 C   0  0  0  0  0  0  0  0  0  0  0  0
   -1.2631    1.1784   -1.0651 O   0  0  0  0  0  0  0  0  0  0  0  0
    3.0620   -1.8591    0.9227 H   0  0  0  0  0  0  0  0  0  0  0  0
   -0.8013   -2.6901   -0.3390 H   0  0  0  0  0  0  0  0  0  0  0  0
   -2.0602   -0.2863    0.9835 H   0  0  0  0  0  0  0  0  0  0  0  0
   -0.4324   -0.0968    1.8219 H   0  0  0  0  0  0  0  0  0  0  0  0
   -1.2313    2.2492    0.7641 H   0  0  0  0  0  0  0  0  0  0  0  0
    1.3577    1.0462    0.3587 H   0  0  0  0  0  0  0  0  0  0  0  0
    0.7046    2.3796   -0.7998 H   0  0  0  0  0  0  0  0  0  0  0  0
    0.3295    0.2302   -2.1401 H   0  0  0  0  0  0  0  0  0  0  0  0
  1  2  3  0
  2  3  1  0
  3  4  1  0
  3  5  1  0
  5  6  1  0
  6  7  1  0
  7  8  1  0
  8  9  1  0
  8  3  1  0
  9  6  1  0
  1 10  1  0
  4 11  1  0
  5 12  1  0
  5 13  1  0
  6 14  1  0
  7 15  1  0
  7 16  1  0
  8 17  1  0
M  END
