
     RDKit          3D

 19 18  0  0  0  0  0  0  0  0999 V2000
    0.8747    2.5218    0.0191 C   0  0  0  0  0  0  0  0  0  0  0  0
    0.6658    1.3635   -0.3080 C   0  0  0  0  0  0  0  0  0  0  0  0
    0.4172   -0.0334   -0.6802 C   0  0  0  0  0  0  0  0  0  0  0  0
    0.7414   -0.9127    0.5114 C   0  0  0  0  0  0  0  0  0  0  0  0
    2.1991   -0.7624    0.9334 C   0  0  0  0  0  0  0  0  0  0  0  0
   -0.9993   -0.2631   -1.0336 C   0  0  0  0  0  0  0  0  0  0  0  0
   -1.2862   -0.6675   -2.1483 O   0  0  0  0  0  0  0  0  0  0  0  0
   -2.0781   -0.0056   -0.0422 C   0  0  0  0  0  0  0  0  0  0  0  0
   -3.3230   -0.2948   -0.6061 O   0  0  0  0  0  0  0  0  0  0  0  0
    1.0442    3.5245    0.3145 H   0  0  0  0  0  0  0  0  0  0  0  0
    1.0782   -0.3614   -1.5078 H   0  0  0  0  0  0  0  0  0  0  0  0
    0.0869   -0.7197    1.3607 H   0  0  0  0  0  0  0  0  0  0  0  0
    0.5843   -1.9691    0.1836 H   0  0  0  0  0  0  0  0  0  0  0  0
    2.3587   -1.5200    1.7367 H   0  0  0  0  0  0  0  0  0  0  0  0
    2.8871   -0.9853    0.1067 H   0  0  0  0  0  0  0  0  0  0  0  0
    2.3641    0.2299    1.3475 H   0  0  0  0  0  0  0  0  0  0  0  0
   -2.1252    1.0907    0.2236 H   0  0  0  0  0  0  0  0  0  0  0  0
   -1.9844   -0.6305    0.8684 H   0  0  0  0  0  0  0  0  0  0  0  0
   -3.5053    0.3953   -1.2794 H   0  0  0  0  0  0  0  0  0  0  0  0
  1  2  3  0
  2  3  1  0
  3  4  1  0
  4  5  1  0
  3  6  1  0
  6  7  2  0
  6  8  1  0
  8  9  1  0
  1 10  1  0
  3 11  1  0
  4 12  1  0
  4 13  1  0
  5 14  1  0
  5 15  1  0
  5 16  1  0
  8 17  1  0
  8 18  1  0
  9 19  1  0
M  END
