
     RDKit          3D

 17 18  0  0  0  0  0  0  0  0999 V2000
    2.5468    1.4044   -0.6444 C   0  0  0  0  0  0  0  0  0  0  0  0
    1.8549    0.4938   -0.2585 C   0  0  0  0  0  0  0  0  0  0  0  0
    1.0235   -0.6298    0.2193 C   0  0  0  0  0  0  0  0  0  0  0  0
   -0.0648   -0.3099    1.1661 C   0  0  0  0  0  0  0  0  0  0  0  0
   -0.4908   -1.1866    2.1308 O   0  0  0  0  0  0  0  0  0  0  0  0
   -0.7163    1.0296    0.9998 C   0  0  0  0  0  0  0  0  0  0  0  0
   -1.1973    0.5874   -0.3602 C   0  0  0  0  0  0  0  0  0  0  0  0
   -0.3610   -0.6497   -0.3148 C   0  0  0  0  0  0  0  0  0  0  0  0
   -1.0080   -1.8517   -0.5285 O   0  0  0  0  0  0  0  0  0  0  0  0
    3.1528    2.2038   -0.9983 H   0  0  0  0  0  0  0  0  0  0  0  0
    1.5275   -1.6213    0.2367 H   0  0  0  0  0  0  0  0  0  0  0  0
   -0.9614   -1.9631    1.7692 H   0  0  0  0  0  0  0  0  0  0  0  0
    0.0313    1.8319    0.9005 H   0  0  0  0  0  0  0  0  0  0  0  0
   -1.4880    1.2990    1.7246 H   0  0  0  0  0  0  0  0  0  0  0  0
   -2.2973    0.3568   -0.3006 H   0  0  0  0  0  0  0  0  0  0  0  0
   -0.9817    1.2939   -1.1912 H   0  0  0  0  0  0  0  0  0  0  0  0
   -0.5701   -2.2884   -1.3057 H   0  0  0  0  0  0  0  0  0  0  0  0
  1  2  3  0
  2  3  1  0
  3  4  1  0
  4  5  1  0
  4  6  1  0
  6  7  1  0
  7  8  1  0
  8  9  1  0
  8  3  1  0
  8  4  1  0
  1 10  1  0
  3 11  1  0
  5 12  1  0
  6 13  1  0
  6 14  1  0
  7 15  1  0
  7 16  1  0
  9 17  1  0
M  END
