
     RDKit          3D

 21 21  0  0  0  0  0  0  0  0999 V2000
   -2.0305    0.7311    2.2485 C   0  0  0  0  0  0  0  0  0  0  0  0
   -1.3176    0.2670    1.3960 C   0  0  0  0  0  0  0  0  0  0  0  0
   -0.4329   -0.3193    0.3668 C   0  0  0  0  0  0  0  0  0  0  0  0
   -1.2287   -0.9779   -0.7038 C   0  0  0  0  0  0  0  0  0  0  0  0
    0.5160   -1.3123    1.0075 C   0  0  0  0  0  0  0  0  0  0  0  0
    1.6635   -0.6095    0.2991 C   0  0  0  0  0  0  0  0  0  0  0  0
    0.7254    0.5209   -0.0195 C   0  0  0  0  0  0  0  0  0  0  0  0
    0.7742    1.0363   -1.4246 C   0  0  0  0  0  0  0  0  0  0  0  0
   -0.3529    1.8258   -1.6629 O   0  0  0  0  0  0  0  0  0  0  0  0
   -2.6656    1.1488    3.0108 H   0  0  0  0  0  0  0  0  0  0  0  0
   -0.8262   -0.7919   -1.7414 H   0  0  0  0  0  0  0  0  0  0  0  0
   -1.3155   -2.0770   -0.5974 H   0  0  0  0  0  0  0  0  0  0  0  0
   -2.2447   -0.5338   -0.7164 H   0  0  0  0  0  0  0  0  0  0  0  0
    0.5912   -1.1881    2.1128 H   0  0  0  0  0  0  0  0  0  0  0  0
    0.3532   -2.3657    0.6892 H   0  0  0  0  0  0  0  0  0  0  0  0
    2.5186   -0.3447    0.9530 H   0  0  0  0  0  0  0  0  0  0  0  0
    2.0592   -1.1562   -0.5872 H   0  0  0  0  0  0  0  0  0  0  0  0
    0.8731    1.3526    0.6986 H   0  0  0  0  0  0  0  0  0  0  0  0
    1.6510    1.7433   -1.5020 H   0  0  0  0  0  0  0  0  0  0  0  0
    0.8562    0.2621   -2.1983 H   0  0  0  0  0  0  0  0  0  0  0  0
   -0.1668    2.7885   -1.6289 H   0  0  0  0  0  0  0  0  0  0  0  0
  1  2  3  0
  2  3  1  0
  3  4  1  0
  3  5  1  0
  5  6  1  0
  6  7  1  0
  7  8  1  0
  8  9  1  0
  7  3  1  0
  1 10  1  0
  4 11  1  0
  4 12  1  0
  4 13  1  0
  5 14  1  0
  5 15  1  0
  6 16  1  0
  6 17  1  0
  7 18  1  0
  8 19  1  0
  8 20  1  0
  9 21  1  0
M  END
