
     RDKit          3D

 15 16  0  0  0  0  0  0  0  0999 V2000
    2.4432    1.2860    0.1928 C   0  0  0  0  0  0  0  0  0  0  0  0
    1.4717    0.6562   -0.0879 C   0  0  0  0  0  0  0  0  0  0  0  0
    0.3003   -0.1155   -0.4073 C   0  0  0  0  0  0  0  0  0  0  0  0
    0.2056   -1.5710   -0.0068 C   0  0  0  0  0  0  0  0  0  0  0  0
   -1.0195   -1.2520    0.7650 C   0  0  0  0  0  0  0  0  0  0  0  0
   -1.7579   -1.8923    1.4816 O   0  0  0  0  0  0  0  0  0  0  0  0
   -0.9690    0.1507    0.3055 C   0  0  0  0  0  0  0  0  0  0  0  0
   -1.0310    1.1683    1.2348 O   0  0  0  0  0  0  0  0  0  0  0  0
   -0.8538    0.4584   -1.1450 C   0  0  0  0  0  0  0  0  0  0  0  0
    3.3083    1.8446    0.4372 H   0  0  0  0  0  0  0  0  0  0  0  0
    0.0813   -2.2055   -0.8891 H   0  0  0  0  0  0  0  0  0  0  0  0
    1.0543   -1.8645    0.6376 H   0  0  0  0  0  0  0  0  0  0  0  0
   -1.0831    2.0269    0.7741 H   0  0  0  0  0  0  0  0  0  0  0  0
   -0.8376    1.5363   -1.3913 H   0  0  0  0  0  0  0  0  0  0  0  0
   -1.3127   -0.2267   -1.9009 H   0  0  0  0  0  0  0  0  0  0  0  0
  1  2  3  0
  2  3  1  0
  3  4  1  0
  4  5  1  0
  5  6  2  0
  5  7  1  0
  7  8  1  0
  7  9  1  0
  7  3  1  0
  9  3  1  0
  1 10  1  0
  4 11  1  0
  4 12  1  0
  8 13  1  0
  9 14  1  0
  9 15  1  0
M  END
