
     RDKit          3D

 23 22  0  0  0  0  0  0  0  0999 V2000
   -1.3416    2.1086    1.8510 C   0  0  0  0  0  0  0  0  0  0  0  0
   -1.2926    1.1099    1.1742 C   0  0  0  0  0  0  0  0  0  0  0  0
   -1.2104   -0.0827    0.3610 C   0  0  0  0  0  0  0  0  0  0  0  0
   -1.8939   -1.2260    1.0847 C   0  0  0  0  0  0  0  0  0  0  0  0
   -1.9245    0.1871   -0.9702 C   0  0  0  0  0  0  0  0  0  0  0  0
    0.0652   -0.4759    0.0572 O   0  0  0  0  0  0  0  0  0  0  0  0
    0.8207    0.4180   -0.6340 C   0  0  0  0  0  0  0  0  0  0  0  0
    2.1943   -0.2160   -0.8654 C   0  0  0  0  0  0  0  0  0  0  0  0
    2.8699   -0.5431    0.4372 C   0  0  0  0  0  0  0  0  0  0  0  0
   -1.3673    2.9970    2.4511 H   0  0  0  0  0  0  0  0  0  0  0  0
   -2.7750   -0.8432    1.6141 H   0  0  0  0  0  0  0  0  0  0  0  0
   -2.2174   -1.9675    0.3098 H   0  0  0  0  0  0  0  0  0  0  0  0
   -1.1833   -1.7662    1.7423 H   0  0  0  0  0  0  0  0  0  0  0  0
   -3.0131    0.1248   -0.7630 H   0  0  0  0  0  0  0  0  0  0  0  0
   -1.6708    1.2135   -1.2702 H   0  0  0  0  0  0  0  0  0  0  0  0
   -1.6015   -0.5549   -1.7442 H   0  0  0  0  0  0  0  0  0  0  0  0
    0.3795    0.7804   -1.5593 H   0  0  0  0  0  0  0  0  0  0  0  0
    1.0332    1.3338   -0.0094 H   0  0  0  0  0  0  0  0  0  0  0  0
    2.0857   -1.1840   -1.4216 H   0  0  0  0  0  0  0  0  0  0  0  0
    2.8111    0.4942   -1.4447 H   0  0  0  0  0  0  0  0  0  0  0  0
    2.6620   -1.6143    0.7230 H   0  0  0  0  0  0  0  0  0  0  0  0
    3.9748   -0.4332    0.2865 H   0  0  0  0  0  0  0  0  0  0  0  0
    2.5950    0.1394    1.2559 H   0  0  0  0  0  0  0  0  0  0  0  0
  1  2  3  0
  2  3  1  0
  3  4  1  0
  3  5  1  0
  3  6  1  0
  6  7  1  0
  7  8  1  0
  8  9  1  0
  1 10  1  0
  4 11  1  0
  4 12  1  0
  4 13  1  0
  5 14  1  0
  5 15  1  0
  5 16  1  0
  7 17  1  0
  7 18  1  0
  8 19  1  0
  8 20  1  0
  9 21  1  0
  9 22  1  0
  9 23  1  0
M  END
