
     RDKit          3D

 23 22  0  0  0  0  0  0  0  0999 V2000
    1.7071   -0.8237    2.3620 C   0  0  0  0  0  0  0  0  0  0  0  0
    1.4364   -0.8660    1.1677 C   0  0  0  0  0  0  0  0  0  0  0  0
    1.0920   -0.9300   -0.2534 C   0  0  0  0  0  0  0  0  0  0  0  0
    2.3769   -0.7906   -1.0582 C   0  0  0  0  0  0  0  0  0  0  0  0
    0.2353    0.2551   -0.5699 C   0  0  0  0  0  0  0  0  0  0  0  0
   -1.0401    0.3256    0.2071 C   0  0  0  0  0  0  0  0  0  0  0  0
   -1.9607   -0.8203    0.0272 C   0  0  0  0  0  0  0  0  0  0  0  0
   -1.7629    1.5928   -0.2476 C   0  0  0  0  0  0  0  0  0  0  0  0
   -0.9462    2.7085    0.0197 O   0  0  0  0  0  0  0  0  0  0  0  0
    1.9360   -0.7718    3.3934 H   0  0  0  0  0  0  0  0  0  0  0  0
    0.6071   -1.8985   -0.4247 H   0  0  0  0  0  0  0  0  0  0  0  0
    2.3455   -1.3855   -1.9921 H   0  0  0  0  0  0  0  0  0  0  0  0
    3.2569   -1.1453   -0.4918 H   0  0  0  0  0  0  0  0  0  0  0  0
    2.5880    0.2838   -1.2980 H   0  0  0  0  0  0  0  0  0  0  0  0
    0.8236    1.1668   -0.3319 H   0  0  0  0  0  0  0  0  0  0  0  0
    0.0512    0.2754   -1.6604 H   0  0  0  0  0  0  0  0  0  0  0  0
   -0.7741    0.4168    1.2869 H   0  0  0  0  0  0  0  0  0  0  0  0
   -2.0074   -1.4727    0.9488 H   0  0  0  0  0  0  0  0  0  0  0  0
   -1.7424   -1.4871   -0.8034 H   0  0  0  0  0  0  0  0  0  0  0  0
   -3.0291   -0.4866   -0.1115 H   0  0  0  0  0  0  0  0  0  0  0  0
   -1.8255    1.5287   -1.3569 H   0  0  0  0  0  0  0  0  0  0  0  0
   -2.7424    1.6848    0.2393 H   0  0  0  0  0  0  0  0  0  0  0  0
   -0.6253    2.6393    0.9477 H   0  0  0  0  0  0  0  0  0  0  0  0
  1  2  3  0
  2  3  1  0
  3  4  1  0
  3  5  1  0
  5  6  1  0
  6  7  1  0
  6  8  1  0
  8  9  1  0
  1 10  1  0
  3 11  1  0
  4 12  1  0
  4 13  1  0
  4 14  1  0
  5 15  1  0
  5 16  1  0
  6 17  1  0
  7 18  1  0
  7 19  1  0
  7 20  1  0
  8 21  1  0
  8 22  1  0
  9 23  1  0
M  END
