
     RDKit          3D

 14 14  0  0  0  0  0  0  0  0999 V2000
    2.1282   -1.5810   -0.0003 C   0  0  0  0  0  0  0  0  0  0  0  0
    1.3030   -0.6368    0.1008 C   0  0  0  0  0  0  0  0  0  0  0  0
    0.4868    0.2924    0.2115 C   0  0  0  0  0  0  0  0  0  0  0  0
   -0.9463    0.2535   -0.4136 C   0  0  0  0  0  0  0  0  0  0  0  0
   -1.8013   -0.8486   -0.0731 C   0  0  0  0  0  0  0  0  0  0  0  0
   -1.1849    1.2241   -1.1612 O   0  0  0  0  0  0  0  0  0  0  0  0
    0.8299    1.7804    0.5680 C   0  0  0  0  0  0  0  0  0  0  0  0
    0.2870    0.9609    1.5000 O   0  0  0  0  0  0  0  0  0  0  0  0
    2.9431   -2.5456   -0.0951 H   0  0  0  0  0  0  0  0  0  0  0  0
   -2.2305   -0.6199    0.9909 H   0  0  0  0  0  0  0  0  0  0  0  0
   -2.6571   -0.9676   -0.7077 H   0  0  0  0  0  0  0  0  0  0  0  0
   -1.3349   -1.8489    0.0328 H   0  0  0  0  0  0  0  0  0  0  0  0
    1.9186    1.9919    0.5521 H   0  0  0  0  0  0  0  0  0  0  0  0
    0.2584    2.5452    0.0025 H   0  0  0  0  0  0  0  0  0  0  0  0
  1  2  3  0
  2  3  1  0
  3  4  1  0
  4  5  1  0
  4  6  2  0
  3  7  1  0
  7  8  1  0
  8  3  1  0
  1  9  1  0
  5 10  1  0
  5 11  1  0
  5 12  1  0
  7 13  1  0
  7 14  1  0
M  END
