
     RDKit          3D

 23 22  0  0  0  0  0  0  0  0999 V2000
   -4.1368   -0.4225   -1.0227 C   0  0  0  0  0  0  0  0  0  0  0  0
   -3.1599   -0.9052   -0.4474 C   0  0  0  0  0  0  0  0  0  0  0  0
   -1.9907   -1.4812    0.2119 C   0  0  0  0  0  0  0  0  0  0  0  0
   -0.7335   -0.7713   -0.3102 C   0  0  0  0  0  0  0  0  0  0  0  0
    0.4995   -1.3453    0.3565 C   0  0  0  0  0  0  0  0  0  0  0  0
    1.7249   -0.6512   -0.1581 C   0  0  0  0  0  0  0  0  0  0  0  0
    1.6864    0.8360    0.1228 C   0  0  0  0  0  0  0  0  0  0  0  0
    1.6038    1.0609    1.4963 O   0  0  0  0  0  0  0  0  0  0  0  0
    1.5654    2.4343    1.6861 C   0  0  0  0  0  0  0  0  0  0  0  0
   -4.9680   -0.0078   -1.5152 H   0  0  0  0  0  0  0  0  0  0  0  0
   -2.0066   -1.2614    1.3005 H   0  0  0  0  0  0  0  0  0  0  0  0
   -1.9556   -2.5626    0.0528 H   0  0  0  0  0  0  0  0  0  0  0  0
   -0.8683    0.2971   -0.0308 H   0  0  0  0  0  0  0  0  0  0  0  0
   -0.6743   -0.8578   -1.4042 H   0  0  0  0  0  0  0  0  0  0  0  0
    0.5226   -2.4173    0.1041 H   0  0  0  0  0  0  0  0  0  0  0  0
    0.3963   -1.1665    1.4676 H   0  0  0  0  0  0  0  0  0  0  0  0
    1.7958   -0.8297   -1.2398 H   0  0  0  0  0  0  0  0  0  0  0  0
    2.6277   -1.0696    0.3256 H   0  0  0  0  0  0  0  0  0  0  0  0
    2.6508    1.3230   -0.1961 H   0  0  0  0  0  0  0  0  0  0  0  0
    0.8360    1.3515   -0.3619 H   0  0  0  0  0  0  0  0  0  0  0  0
    2.4775    2.9117    1.2784 H   0  0  0  0  0  0  0  0  0  0  0  0
    1.3824    2.7301    2.7213 H   0  0  0  0  0  0  0  0  0  0  0  0
    0.7246    2.8049    1.0537 H   0  0  0  0  0  0  0  0  0  0  0  0
  1  2  3  0
  2  3  1  0
  3  4  1  0
  4  5  1  0
  5  6  1  0
  6  7  1  0
  7  8  1  0
  8  9  1  0
  1 10  1  0
  3 11  1  0
  3 12  1  0
  4 13  1  0
  4 14  1  0
  5 15  1  0
  5 16  1  0
  6 17  1  0
  6 18  1  0
  7 19  1  0
  7 20  1  0
  9 21  1  0
  9 22  1  0
  9 23  1  0
M  END
