
     RDKit          3D

 19 18  0  0  0  0  0  0  0  0999 V2000
   -1.8903    2.4310   -1.0171 C   0  0  0  0  0  0  0  0  0  0  0  0
   -1.5969    1.2798   -0.7611 C   0  0  0  0  0  0  0  0  0  0  0  0
   -1.2323   -0.1101   -0.4683 C   0  0  0  0  0  0  0  0  0  0  0  0
   -2.3580   -0.7196    0.3818 C   0  0  0  0  0  0  0  0  0  0  0  0
   -0.0440   -0.1018    0.2273 O   0  0  0  0  0  0  0  0  0  0  0  0
    0.9659   -0.8000   -0.4444 C   0  0  0  0  0  0  0  0  0  0  0  0
    2.2312   -0.7245    0.4118 C   0  0  0  0  0  0  0  0  0  0  0  0
    2.6497    0.6850    0.6139 C   0  0  0  0  0  0  0  0  0  0  0  0
    2.0760    1.4313    1.3859 O   0  0  0  0  0  0  0  0  0  0  0  0
   -2.1276    3.4338   -1.2443 H   0  0  0  0  0  0  0  0  0  0  0  0
   -1.1803   -0.6622   -1.4354 H   0  0  0  0  0  0  0  0  0  0  0  0
   -2.4358   -0.0530    1.2655 H   0  0  0  0  0  0  0  0  0  0  0  0
   -3.2644   -0.6839   -0.2532 H   0  0  0  0  0  0  0  0  0  0  0  0
   -2.1111   -1.7339    0.6919 H   0  0  0  0  0  0  0  0  0  0  0  0
    1.1504   -0.3874   -1.4549 H   0  0  0  0  0  0  0  0  0  0  0  0
    0.6237   -1.8629   -0.4804 H   0  0  0  0  0  0  0  0  0  0  0  0
    3.0401   -1.3281   -0.0342 H   0  0  0  0  0  0  0  0  0  0  0  0
    2.0158   -1.1574    1.4206 H   0  0  0  0  0  0  0  0  0  0  0  0
    3.4878    1.0637    0.0611 H   0  0  0  0  0  0  0  0  0  0  0  0
  1  2  3  0
  2  3  1  0
  3  4  1  0
  3  5  1  0
  5  6  1  0
  6  7  1  0
  7  8  1  0
  8  9  2  0
  1 10  1  0
  3 11  1  0
  4 12  1  0
  4 13  1  0
  4 14  1  0
  6 15  1  0
  6 16  1  0
  7 17  1  0
  7 18  1  0
  8 19  1  0
M  END
