
     RDKit          3D

 19 20  0  0  0  0  0  0  0  0999 V2000
    3.0957    0.6220   -0.2743 C   0  0  0  0  0  0  0  0  0  0  0  0
    2.1099    0.3649    0.3597 C   0  0  0  0  0  0  0  0  0  0  0  0
    0.8929    0.0722    1.1485 C   0  0  0  0  0  0  0  0  0  0  0  0
   -0.2002   -0.3248    0.1823 C   0  0  0  0  0  0  0  0  0  0  0  0
   -0.6505    0.6185   -0.8744 C   0  0  0  0  0  0  0  0  0  0  0  0
   -1.2105    1.9153   -0.6466 C   0  0  0  0  0  0  0  0  0  0  0  0
   -2.1463    0.7999   -0.8885 O   0  0  0  0  0  0  0  0  0  0  0  0
   -0.1695   -1.8386   -0.1999 C   0  0  0  0  0  0  0  0  0  0  0  0
   -1.2507   -1.3339    0.6729 C   0  0  0  0  0  0  0  0  0  0  0  0
    3.9799    0.8650   -0.8399 H   0  0  0  0  0  0  0  0  0  0  0  0
    1.0622   -0.7965    1.8123 H   0  0  0  0  0  0  0  0  0  0  0  0
    0.6194    0.9802    1.6959 H   0  0  0  0  0  0  0  0  0  0  0  0
   -0.3409    0.3461   -1.9124 H   0  0  0  0  0  0  0  0  0  0  0  0
   -1.3084    2.3683    0.3517 H   0  0  0  0  0  0  0  0  0  0  0  0
   -1.2590    2.6339   -1.4853 H   0  0  0  0  0  0  0  0  0  0  0  0
   -0.3544   -2.0221   -1.2908 H   0  0  0  0  0  0  0  0  0  0  0  0
    0.6556   -2.4321    0.1969 H   0  0  0  0  0  0  0  0  0  0  0  0
   -1.2413   -1.6334    1.7250 H   0  0  0  0  0  0  0  0  0  0  0  0
   -2.2838   -1.2047    0.2668 H   0  0  0  0  0  0  0  0  0  0  0  0
  1  2  3  0
  2  3  1  0
  3  4  1  0
  4  5  1  0
  5  6  1  0
  6  7  1  0
  4  8  1  0
  8  9  1  0
  9  4  1  0
  7  5  1  0
  1 10  1  0
  3 11  1  0
  3 12  1  0
  5 13  1  0
  6 14  1  0
  6 15  1  0
  8 16  1  0
  8 17  1  0
  9 18  1  0
  9 19  1  0
M  END
