
     RDKit          3D

 13 12  0  0  0  0  0  0  0  0999 V2000
    3.8240   -0.0909   -0.6521 C   0  0  0  0  0  0  0  0  0  0  0  0
    2.9330   -0.1409   -0.3251 C   0  0  0  0  0  0  0  0  0  0  0  0
    1.7204   -0.2245    0.1146 C   0  0  0  0  0  0  0  0  0  0  0  0
    0.3313   -0.3170    0.5909 C   0  0  0  0  0  0  0  0  0  0  0  0
   -0.9792   -0.4072    1.0148 C   0  0  0  0  0  0  0  0  0  0  0  0
   -1.5223    1.0490    0.3827 C   0  0  0  0  0  0  0  0  0  0  0  0
   -1.9490    2.1781   -0.0845 C   0  0  0  0  0  0  0  0  0  0  0  0
   -1.7189   -1.3859    0.3066 C   0  0  0  0  0  0  0  0  0  0  0  0
   -2.3982   -2.2353    0.9429 O   0  0  0  0  0  0  0  0  0  0  0  0
    4.9627   -0.0107   -1.0820 H   0  0  0  0  0  0  0  0  0  0  0  0
   -1.2008   -0.1947    2.0480 H   0  0  0  0  0  0  0  0  0  0  0  0
   -2.3075    3.1741   -0.5058 H   0  0  0  0  0  0  0  0  0  0  0  0
   -1.6955   -1.3941   -0.7882 H   0  0  0  0  0  0  0  0  0  0  0  0
  1  2  3  0
  2  3  1  0
  3  4  3  0
  4  5  1  0
  5  6  1  0
  6  7  3  0
  5  8  1  0
  8  9  2  0
  1 10  1  0
  5 11  1  0
  7 12  1  0
  8 13  1  0
M  END
