
     RDKit          3D

 22 21  0  0  0  0  0  0  0  0999 V2000
    2.2912    1.5885   -0.5633 C   0  0  0  0  0  0  0  0  0  0  0  0
    1.4509    0.7521   -0.7799 C   0  0  0  0  0  0  0  0  0  0  0  0
    0.4055   -0.2521   -1.0460 C   0  0  0  0  0  0  0  0  0  0  0  0
   -0.6806    0.3157   -1.9131 C   0  0  0  0  0  0  0  0  0  0  0  0
   -0.0346   -0.8781    0.2239 C   0  0  0  0  0  0  0  0  0  0  0  0
    1.1928   -1.5651    0.8520 C   0  0  0  0  0  0  0  0  0  0  0  0
   -0.5668    0.0361    1.2704 C   0  0  0  0  0  0  0  0  0  0  0  0
   -1.7663    0.8326    0.9122 C   0  0  0  0  0  0  0  0  0  0  0  0
    3.0316    2.3449   -0.3570 H   0  0  0  0  0  0  0  0  0  0  0  0
    0.9153   -1.0585   -1.6757 H   0  0  0  0  0  0  0  0  0  0  0  0
   -1.5702   -0.3558   -1.9663 H   0  0  0  0  0  0  0  0  0  0  0  0
   -1.0367    1.3138   -1.5941 H   0  0  0  0  0  0  0  0  0  0  0  0
   -0.2674    0.4862   -2.9533 H   0  0  0  0  0  0  0  0  0  0  0  0
   -0.8092   -1.6449    0.0095 H   0  0  0  0  0  0  0  0  0  0  0  0
    2.0540   -0.8885    0.7942 H   0  0  0  0  0  0  0  0  0  0  0  0
    1.3359   -2.5431    0.3841 H   0  0  0  0  0  0  0  0  0  0  0  0
    0.9946   -1.7266    1.9453 H   0  0  0  0  0  0  0  0  0  0  0  0
   -0.8276   -0.6271    2.1504 H   0  0  0  0  0  0  0  0  0  0  0  0
    0.2339    0.7043    1.6851 H   0  0  0  0  0  0  0  0  0  0  0  0
   -1.5463    1.8907    0.6486 H   0  0  0  0  0  0  0  0  0  0  0  0
   -2.4227    0.9143    1.8285 H   0  0  0  0  0  0  0  0  0  0  0  0
   -2.3773    0.3606    0.1444 H   0  0  0  0  0  0  0  0  0  0  0  0
  1  2  3  0
  2  3  1  0
  3  4  1  0
  3  5  1  0
  5  6  1  0
  5  7  1  0
  7  8  1  0
  1  9  1  0
  3 10  1  0
  4 11  1  0
  4 12  1  0
  4 13  1  0
  5 14  1  0
  6 15  1  0
  6 16  1  0
  6 17  1  0
  7 18  1  0
  7 19  1  0
  8 20  1  0
  8 21  1  0
  8 22  1  0
M  END
