
     RDKit          3D

 19 20  0  0  0  0  0  0  0  0999 V2000
    3.2279    0.2396    0.7095 C   0  0  0  0  0  0  0  0  0  0  0  0
    2.0105    0.2799    0.4851 C   0  0  0  0  0  0  0  0  0  0  0  0
    0.7651    0.3133    0.2681 C   0  0  0  0  0  0  0  0  0  0  0  0
   -0.0410   -0.2945    1.3825 C   0  0  0  0  0  0  0  0  0  0  0  0
   -1.1266   -0.9399    0.6174 C   0  0  0  0  0  0  0  0  0  0  0  0
   -0.5837   -1.0895   -0.7944 C   0  0  0  0  0  0  0  0  0  0  0  0
   -0.1032    0.4017   -0.8483 C   0  0  0  0  0  0  0  0  0  0  0  0
   -1.4984    0.9869   -0.5188 C   0  0  0  0  0  0  0  0  0  0  0  0
   -2.0735    0.1154    0.3920 O   0  0  0  0  0  0  0  0  0  0  0  0
    4.5848    0.1926    0.9357 H   0  0  0  0  0  0  0  0  0  0  0  0
    0.6376    1.6361    0.6751 H   0  0  0  0  0  0  0  0  0  0  0  0
   -0.4320    0.4032    2.1673 H   0  0  0  0  0  0  0  0  0  0  0  0
    0.6344   -1.0481    1.8465 H   0  0  0  0  0  0  0  0  0  0  0  0
   -1.5474   -1.8681    0.9935 H   0  0  0  0  0  0  0  0  0  0  0  0
   -1.4427   -1.1796   -1.5344 H   0  0  0  0  0  0  0  0  0  0  0  0
    0.1871   -1.7953   -1.0072 H   0  0  0  0  0  0  0  0  0  0  0  0
    0.2415    0.7204   -1.8169 H   0  0  0  0  0  0  0  0  0  0  0  0
   -2.0710    0.8883   -1.4395 H   0  0  0  0  0  0  0  0  0  0  0  0
   -1.3693    2.0375   -0.1550 H   0  0  0  0  0  0  0  0  0  0  0  0
  1  2  3  0
  2  3  1  0
  3  4  1  0
  4  5  1  0
  5  6  1  0
  6  7  1  0
  7  8  1  0
  8  9  1  0
  7  3  1  0
  9  5  1  0
  1 10  1  0
  3 11  1  0
  4 12  1  0
  4 13  1  0
  5 14  1  0
  6 15  1  0
  6 16  1  0
  7 17  1  0
  8 18  1  0
  8 19  1  0
M  END
