
     RDKit          3D

 19 19  0  0  0  0  0  0  0  0999 V2000
    3.5720    1.1571   -0.8143 C   0  0  0  0  0  0  0  0  0  0  0  0
    2.5961    0.5321   -0.4805 C   0  0  0  0  0  0  0  0  0  0  0  0
    1.4268   -0.2469   -0.0772 C   0  0  0  0  0  0  0  0  0  0  0  0
    1.0229    0.1984    1.2642 C   0  0  0  0  0  0  0  0  0  0  0  0
   -0.2750    0.3946    1.3075 C   0  0  0  0  0  0  0  0  0  0  0  0
   -0.8637    0.0951   -0.0144 C   0  0  0  0  0  0  0  0  0  0  0  0
   -1.4017   -1.1619   -0.1037 O   0  0  0  0  0  0  0  0  0  0  0  0
   -2.7401   -1.0599   -0.4632 C   0  0  0  0  0  0  0  0  0  0  0  0
    0.2894    0.1648   -0.9925 C   0  0  0  0  0  0  0  0  0  0  0  0
    4.4193    1.7208   -1.1128 H   0  0  0  0  0  0  0  0  0  0  0  0
    1.5913   -1.3260   -0.0800 H   0  0  0  0  0  0  0  0  0  0  0  0
    1.7262    0.3393    2.0950 H   0  0  0  0  0  0  0  0  0  0  0  0
   -0.8592    0.7362    2.2003 H   0  0  0  0  0  0  0  0  0  0  0  0
   -1.6518    0.8422   -0.2553 H   0  0  0  0  0  0  0  0  0  0  0  0
   -3.2222   -2.0602   -0.5486 H   0  0  0  0  0  0  0  0  0  0  0  0
   -2.8943   -0.4526   -1.3761 H   0  0  0  0  0  0  0  0  0  0  0  0
   -3.3182   -0.5270    0.3455 H   0  0  0  0  0  0  0  0  0  0  0  0
    0.3744    1.1874   -1.3558 H   0  0  0  0  0  0  0  0  0  0  0  0
    0.2080   -0.5336   -1.8213 H   0  0  0  0  0  0  0  0  0  0  0  0
  1  2  3  0
  2  3  1  0
  3  4  1  0
  4  5  2  0
  5  6  1  0
  6  7  1  0
  7  8  1  0
  6  9  1  0
  9  3  1  0
  1 10  1  0
  3 11  1  0
  4 12  1  0
  5 13  1  0
  6 14  1  0
  8 15  1  0
  8 16  1  0
  8 17  1  0
  9 18  1  0
  9 19  1  0
M  END
