
     RDKit          3D

 17 18  0  0  0  0  0  0  0  0999 V2000
    2.6619   -1.8868   -1.8458 C   0  0  0  0  0  0  0  0  0  0  0  0
    1.9861   -1.1651   -1.1557 C   0  0  0  0  0  0  0  0  0  0  0  0
    1.1830   -0.2895   -0.3015 C   0  0  0  0  0  0  0  0  0  0  0  0
   -0.1602   -0.8148    0.1214 C   0  0  0  0  0  0  0  0  0  0  0  0
   -0.6232   -0.5899    1.3883 O   0  0  0  0  0  0  0  0  0  0  0  0
   -1.6284    0.3705    1.3045 C   0  0  0  0  0  0  0  0  0  0  0  0
   -0.9472    1.6505    0.8515 C   0  0  0  0  0  0  0  0  0  0  0  0
   -0.4036    1.5413   -0.4055 O   0  0  0  0  0  0  0  0  0  0  0  0
   -0.0851    0.2868   -0.8134 C   0  0  0  0  0  0  0  0  0  0  0  0
    3.2687   -2.5438   -2.4498 H   0  0  0  0  0  0  0  0  0  0  0  0
    1.7409    0.2178    0.5387 H   0  0  0  0  0  0  0  0  0  0  0  0
   -0.4539   -1.8131   -0.2967 H   0  0  0  0  0  0  0  0  0  0  0  0
   -2.3228    0.0712    0.5207 H   0  0  0  0  0  0  0  0  0  0  0  0
   -2.1059    0.5719    2.2805 H   0  0  0  0  0  0  0  0  0  0  0  0
   -1.7140    2.4488    0.9220 H   0  0  0  0  0  0  0  0  0  0  0  0
   -0.1152    1.8600    1.5726 H   0  0  0  0  0  0  0  0  0  0  0  0
   -0.2810    0.0842   -1.8998 H   0  0  0  0  0  0  0  0  0  0  0  0
  1  2  3  0
  2  3  1  0
  3  4  1  0
  4  5  1  0
  5  6  1  0
  6  7  1  0
  7  8  1  0
  8  9  1  0
  9  3  1  0
  9  4  1  0
  1 10  1  0
  3 11  1  0
  4 12  1  0
  6 13  1  0
  6 14  1  0
  7 15  1  0
  7 16  1  0
  9 17  1  0
M  END
