
     RDKit          3D

 19 20  0  0  0  0  0  0  0  0999 V2000
    3.1263   -0.6641   -0.5392 C   0  0  0  0  0  0  0  0  0  0  0  0
    2.0518   -0.4192   -0.0912 C   0  0  0  0  0  0  0  0  0  0  0  0
    0.7449   -0.1069    0.4780 C   0  0  0  0  0  0  0  0  0  0  0  0
   -0.2900   -1.1478    0.1226 C   0  0  0  0  0  0  0  0  0  0  0  0
   -0.1489   -2.1806    1.0753 O   0  0  0  0  0  0  0  0  0  0  0  0
   -1.5701   -0.3950    0.2925 C   0  0  0  0  0  0  0  0  0  0  0  0
   -1.2817    1.0444    0.0519 C   0  0  0  0  0  0  0  0  0  0  0  0
   -0.5634    1.3586   -1.2295 C   0  0  0  0  0  0  0  0  0  0  0  0
    0.2373    1.1953   -0.0032 C   0  0  0  0  0  0  0  0  0  0  0  0
    4.1057   -0.8952   -0.9299 H   0  0  0  0  0  0  0  0  0  0  0  0
    0.7840   -0.0717    1.5996 H   0  0  0  0  0  0  0  0  0  0  0  0
   -0.1366   -1.5391   -0.9050 H   0  0  0  0  0  0  0  0  0  0  0  0
   -0.2893   -1.7377    1.9519 H   0  0  0  0  0  0  0  0  0  0  0  0
   -2.0831   -0.5958    1.2512 H   0  0  0  0  0  0  0  0  0  0  0  0
   -2.2615   -0.7385   -0.5301 H   0  0  0  0  0  0  0  0  0  0  0  0
   -1.8631    1.8226    0.5693 H   0  0  0  0  0  0  0  0  0  0  0  0
   -0.5057    0.5816   -2.0323 H   0  0  0  0  0  0  0  0  0  0  0  0
   -0.7012    2.3688   -1.6141 H   0  0  0  0  0  0  0  0  0  0  0  0
    0.6446    2.1203    0.4823 H   0  0  0  0  0  0  0  0  0  0  0  0
  1  2  3  0
  2  3  1  0
  3  4  1  0
  4  5  1  0
  4  6  1  0
  6  7  1  0
  7  8  1  0
  8  9  1  0
  9  3  1  0
  9  7  1  0
  1 10  1  0
  3 11  1  0
  4 12  1  0
  5 13  1  0
  6 14  1  0
  6 15  1  0
  7 16  1  0
  8 17  1  0
  8 18  1  0
  9 19  1  0
M  END
