
     RDKit          3D

 19 19  0  0  0  0  0  0  0  0999 V2000
   -1.1632    2.7744   -1.3320 C   0  0  0  0  0  0  0  0  0  0  0  0
   -0.9990    1.9249   -0.4645 C   0  0  0  0  0  0  0  0  0  0  0  0
   -0.8218    0.9049    0.5508 C   0  0  0  0  0  0  0  0  0  0  0  0
    0.4446    0.8678    1.0910 O   0  0  0  0  0  0  0  0  0  0  0  0
    0.6779   -0.4915    0.8422 C   0  0  0  0  0  0  0  0  0  0  0  0
    1.9756   -0.6542    0.0731 C   0  0  0  0  0  0  0  0  0  0  0  0
    3.0082   -0.1268    0.8449 O   0  0  0  0  0  0  0  0  0  0  0  0
   -0.5602   -0.4916   -0.0127 C   0  0  0  0  0  0  0  0  0  0  0  0
   -1.6479   -1.4263    0.4084 C   0  0  0  0  0  0  0  0  0  0  0  0
   -1.2897    3.5172   -2.0762 H   0  0  0  0  0  0  0  0  0  0  0  0
   -1.5958    0.9109    1.3684 H   0  0  0  0  0  0  0  0  0  0  0  0
    0.6235   -1.1511    1.7067 H   0  0  0  0  0  0  0  0  0  0  0  0
    2.2041   -1.7305   -0.0895 H   0  0  0  0  0  0  0  0  0  0  0  0
    1.9461   -0.1338   -0.9022 H   0  0  0  0  0  0  0  0  0  0  0  0
    3.3995    0.6853    0.4170 H   0  0  0  0  0  0  0  0  0  0  0  0
   -0.3605   -0.5045   -1.0881 H   0  0  0  0  0  0  0  0  0  0  0  0
   -2.1510   -1.0417    1.3415 H   0  0  0  0  0  0  0  0  0  0  0  0
   -2.4410   -1.3926   -0.3709 H   0  0  0  0  0  0  0  0  0  0  0  0
   -1.2494   -2.4409    0.5461 H   0  0  0  0  0  0  0  0  0  0  0  0
  1  2  3  0
  2  3  1  0
  3  4  1  0
  4  5  1  0
  5  6  1  0
  6  7  1  0
  5  8  1  0
  8  9  1  0
  8  3  1  0
  1 10  1  0
  3 11  1  0
  5 12  1  0
  6 13  1  0
  6 14  1  0
  7 15  1  0
  8 16  1  0
  9 17  1  0
  9 18  1  0
  9 19  1  0
M  END
