
     RDKit          3D

 17 18  0  0  0  0  0  0  0  0999 V2000
    2.5290   -0.7710   -1.5775 C   0  0  0  0  0  0  0  0  0  0  0  0
    1.7671   -0.2928   -0.8778 C   0  0  0  0  0  0  0  0  0  0  0  0
    0.9453    0.2472   -0.1027 C   0  0  0  0  0  0  0  0  0  0  0  0
    0.0700    1.3864   -0.7546 C   0  0  0  0  0  0  0  0  0  0  0  0
   -0.9267    0.2608   -0.9481 C   0  0  0  0  0  0  0  0  0  0  0  0
   -0.3727    0.1202    0.4057 C   0  0  0  0  0  0  0  0  0  0  0  0
   -0.9116   -0.4021    1.6047 C   0  0  0  0  0  0  0  0  0  0  0  0
   -0.8675   -1.7293    1.8663 O   0  0  0  0  0  0  0  0  0  0  0  0
   -0.5518    1.6082    0.3891 O   0  0  0  0  0  0  0  0  0  0  0  0
    3.4178   -1.3311   -2.3696 H   0  0  0  0  0  0  0  0  0  0  0  0
    1.5532    0.9118    0.8072 H   0  0  0  0  0  0  0  0  0  0  0  0
    0.4181    2.0855   -1.4130 H   0  0  0  0  0  0  0  0  0  0  0  0
   -1.9640    0.5959   -0.9521 H   0  0  0  0  0  0  0  0  0  0  0  0
   -0.6539   -0.5235   -1.6932 H   0  0  0  0  0  0  0  0  0  0  0  0
   -2.0508   -0.1945    1.5040 H   0  0  0  0  0  0  0  0  0  0  0  0
   -0.6509    0.2125    2.4701 H   0  0  0  0  0  0  0  0  0  0  0  0
   -1.7507   -2.1841    1.6415 H   0  0  0  0  0  0  0  0  0  0  0  0
  1  2  3  0
  2  3  1  0
  3  4  1  0
  4  5  1  0
  5  6  1  0
  6  7  1  0
  7  8  1  0
  6  9  1  0
  6  3  1  0
  9  4  1  0
  1 10  1  0
  3 11  1  0
  4 12  1  0
  5 13  1  0
  5 14  1  0
  7 15  1  0
  7 16  1  0
  8 17  1  0
M  END
