
     RDKit          3D

 19 20  0  0  0  0  0  0  0  0999 V2000
    2.8454   -0.1095   -1.4415 C   0  0  0  0  0  0  0  0  0  0  0  0
    1.8295   -0.4247   -0.8725 C   0  0  0  0  0  0  0  0  0  0  0  0
    0.6073   -0.7776   -0.1921 C   0  0  0  0  0  0  0  0  0  0  0  0
    0.3130    0.1837    0.9750 C   0  0  0  0  0  0  0  0  0  0  0  0
   -1.0720   -0.2902    1.3506 C   0  0  0  0  0  0  0  0  0  0  0  0
   -1.7057   -0.5317   -0.0291 C   0  0  0  0  0  0  0  0  0  0  0  0
   -0.6022   -0.2982   -1.0146 C   0  0  0  0  0  0  0  0  0  0  0  0
   -0.3586    1.0712   -1.0591 O   0  0  0  0  0  0  0  0  0  0  0  0
    0.1453    1.4500    0.1762 C   0  0  0  0  0  0  0  0  0  0  0  0
    3.7439    0.1864   -1.9456 H   0  0  0  0  0  0  0  0  0  0  0  0
    0.5194   -1.8180    0.1012 H   0  0  0  0  0  0  0  0  0  0  0  0
    1.0474    0.1839    1.7425 H   0  0  0  0  0  0  0  0  0  0  0  0
   -1.6395    0.4763    1.9123 H   0  0  0  0  0  0  0  0  0  0  0  0
   -1.0742   -1.2496    1.8660 H   0  0  0  0  0  0  0  0  0  0  0  0
   -2.1533   -1.5381   -0.0930 H   0  0  0  0  0  0  0  0  0  0  0  0
   -2.4950    0.2288   -0.1825 H   0  0  0  0  0  0  0  0  0  0  0  0
   -0.6896   -0.7719   -1.9666 H   0  0  0  0  0  0  0  0  0  0  0  0
    1.1910    1.8279   -0.0250 H   0  0  0  0  0  0  0  0  0  0  0  0
   -0.4520    2.2014    0.6976 H   0  0  0  0  0  0  0  0  0  0  0  0
  1  2  3  0
  2  3  1  0
  3  4  1  0
  4  5  1  0
  5  6  1  0
  6  7  1  0
  7  8  1  0
  8  9  1  0
  7  3  1  0
  9  4  1  0
  1 10  1  0
  3 11  1  0
  4 12  1  0
  5 13  1  0
  5 14  1  0
  6 15  1  0
  6 16  1  0
  7 17  1  0
  9 18  1  0
  9 19  1  0
M  END
