
     RDKit          3D

 19 19  0  0  0  0  0  0  0  0999 V2000
    3.3916    0.4487   -1.8500 C   0  0  0  0  0  0  0  0  0  0  0  0
    2.1210    0.1624   -1.7403 C   0  0  0  0  0  0  0  0  0  0  0  0
    0.7515   -0.1544   -1.6395 C   0  0  0  0  0  0  0  0  0  0  0  0
    0.0503    0.9643   -0.7953 C   0  0  0  0  0  0  0  0  0  0  0  0
   -0.8097   -0.1548   -0.1812 C   0  0  0  0  0  0  0  0  0  0  0  0
   -0.8957   -0.0073    1.2045 O   0  0  0  0  0  0  0  0  0  0  0  0
   -2.2233    0.1147    1.5936 C   0  0  0  0  0  0  0  0  0  0  0  0
    0.2267   -1.1304   -0.6610 C   0  0  0  0  0  0  0  0  0  0  0  0
    1.1273   -1.3941    0.3709 O   0  0  0  0  0  0  0  0  0  0  0  0
    4.3743    0.6855   -1.9402 H   0  0  0  0  0  0  0  0  0  0  0  0
    0.2194   -0.1637   -2.6612 H   0  0  0  0  0  0  0  0  0  0  0  0
    0.7577    1.3665   -0.0863 H   0  0  0  0  0  0  0  0  0  0  0  0
   -0.4944    1.6692   -1.4218 H   0  0  0  0  0  0  0  0  0  0  0  0
   -1.7878   -0.2216   -0.6845 H   0  0  0  0  0  0  0  0  0  0  0  0
   -2.6984    0.9844    1.0814 H   0  0  0  0  0  0  0  0  0  0  0  0
   -2.8198   -0.7913    1.5330 H   0  0  0  0  0  0  0  0  0  0  0  0
   -2.1317    0.3895    2.7002 H   0  0  0  0  0  0  0  0  0  0  0  0
   -0.2032   -2.0808   -1.1013 H   0  0  0  0  0  0  0  0  0  0  0  0
    1.0443   -0.6869    1.0974 H   0  0  0  0  0  0  0  0  0  0  0  0
  1  2  3  0
  2  3  1  0
  3  4  1  0
  4  5  1  0
  5  6  1  0
  6  7  1  0
  5  8  1  0
  8  9  1  0
  8  3  1  0
  1 10  1  0
  3 11  1  0
  4 12  1  0
  4 13  1  0
  5 14  1  0
  7 15  1  0
  7 16  1  0
  7 17  1  0
  8 18  1  0
  9 19  1  0
M  END
