
     RDKit          3D

 17 19  0  0  0  0  0  0  0  0999 V2000
    2.3679    1.0881    1.7454 C   0  0  0  0  0  0  0  0  0  0  0  0
    1.2680    0.0262    0.8401 C   0  0  0  0  0  0  0  0  0  0  0  0
    0.8353   -0.4003    0.4927 C   0  0  0  0  0  0  0  0  0  0  0  0
    0.6551   -1.5907   -0.5639 C   0  0  0  0  0  0  0  0  0  0  0  0
   -0.4200   -0.8153   -0.3486 C   0  0  0  0  0  0  0  0  0  0  0  0
   -1.6695   -0.2486    0.4460 C   0  0  0  0  0  0  0  0  0  0  0  0
   -1.0620    1.0457   -0.0270 C   0  0  0  0  0  0  0  0  0  0  0  0
   -0.7557    1.6074   -1.2674 O   0  0  0  0  0  0  0  0  0  0  0  0
   -1.1262    0.2596   -1.3025 C   0  0  0  0  0  0  0  0  0  0  0  0
    3.0734    1.7625    2.3450 H   0  0  0  0  0  0  0  0  0  0  0  0
    0.9942    0.6863   -0.7567 H   0  0  0  0  0  0  0  0  0  0  0  0
    1.3334   -1.2629   -1.4812 H   0  0  0  0  0  0  0  0  0  0  0  0
    0.9709   -2.5513   -0.2629 H   0  0  0  0  0  0  0  0  0  0  0  0
   -2.6061   -0.3819   -0.0951 H   0  0  0  0  0  0  0  0  0  0  0  0
   -1.7962   -0.3614    1.4931 H   0  0  0  0  0  0  0  0  0  0  0  0
   -0.0817    1.2240    0.5945 H   0  0  0  0  0  0  0  0  0  0  0  0
   -1.9808   -0.0875   -1.8518 H   0  0  0  0  0  0  0  0  0  0  0  0
  1  2  3  0
  2  3  1  0
  3  4  1  0
  4  5  1  0
  5  6  1  0
  6  7  1  0
  7  8  1  0
  8  9  1  0
  5  3  1  0
  9  7  1  0
  9  5  1  0
  1 10  1  0
  3 11  1  0
  4 12  1  0
  4 13  1  0
  6 14  1  0
  6 15  1  0
  7 16  1  0
  9 17  1  0
M  END
