
     RDKit          3D

 16 16  0  0  0  0  0  0  0  0999 V2000
   -2.8858    1.2623   -0.0693 C   0  0  0  0  0  0  0  0  0  0  0  0
   -2.1564    0.0236   -0.2199 C   0  0  0  0  0  0  0  0  0  0  0  0
   -1.5692   -0.9825   -0.3471 C   0  0  0  0  0  0  0  0  0  0  0  0
    0.0321   -0.7583   -0.2572 C   0  0  0  0  0  0  0  0  0  0  0  0
    0.4157    0.0146    0.9287 O   0  0  0  0  0  0  0  0  0  0  0  0
    1.8535    0.0505    0.6197 C   0  0  0  0  0  0  0  0  0  0  0  0
    1.6699    0.6387   -0.7663 C   0  0  0  0  0  0  0  0  0  0  0  0
    0.6342   -0.1628   -1.2803 O   0  0  0  0  0  0  0  0  0  0  0  0
   -3.6166    2.4558    0.0785 H   0  0  0  0  0  0  0  0  0  0  0  0
   -1.4051   -0.9502    1.1994 H   0  0  0  0  0  0  0  0  0  0  0  0
   -1.9087   -1.9527   -0.0340 H   0  0  0  0  0  0  0  0  0  0  0  0
    0.6057   -1.7091   -0.0134 H   0  0  0  0  0  0  0  0  0  0  0  0
    2.3251    0.7177    1.3331 H   0  0  0  0  0  0  0  0  0  0  0  0
    2.1646   -0.9847    0.6593 H   0  0  0  0  0  0  0  0  0  0  0  0
    2.5652    0.6859   -1.2960 H   0  0  0  0  0  0  0  0  0  0  0  0
    1.2759    1.6511   -0.5351 H   0  0  0  0  0  0  0  0  0  0  0  0
  1  2  3  0
  2  3  1  0
  3  4  1  0
  4  5  1  0
  5  6  1  0
  6  7  1  0
  7  8  1  0
  8  4  1  0
  1  9  1  0
  3 10  1  0
  3 11  1  0
  4 12  1  0
  6 13  1  0
  6 14  1  0
  7 15  1  0
  7 16  1  0
M  END
