
     RDKit          3D

 19 20  0  0  0  0  0  0  0  0999 V2000
    3.4557   -0.5647   -0.0003 C   0  0  0  0  0  0  0  0  0  0  0  0
    2.3173   -0.4457   -0.3838 C   0  0  0  0  0  0  0  0  0  0  0  0
    0.9354   -0.2794   -0.8420 C   0  0  0  0  0  0  0  0  0  0  0  0
    0.2092   -1.5282   -0.5177 C   0  0  0  0  0  0  0  0  0  0  0  0
   -0.8691   -1.2837    0.2122 C   0  0  0  0  0  0  0  0  0  0  0  0
   -1.0109    0.1702    0.4763 C   0  0  0  0  0  0  0  0  0  0  0  0
   -1.4878    0.6084    1.8227 C   0  0  0  0  0  0  0  0  0  0  0  0
   -1.1658    1.1085   -0.6440 C   0  0  0  0  0  0  0  0  0  0  0  0
    0.2052    0.7821   -0.0715 C   0  0  0  0  0  0  0  0  0  0  0  0
    4.4628   -0.6809    0.3555 H   0  0  0  0  0  0  0  0  0  0  0  0
    0.8709   -0.0350   -1.9142 H   0  0  0  0  0  0  0  0  0  0  0  0
    0.5545   -2.5102   -0.8583 H   0  0  0  0  0  0  0  0  0  0  0  0
   -1.5697   -2.0270    0.5796 H   0  0  0  0  0  0  0  0  0  0  0  0
   -1.0046    1.5842    2.0492 H   0  0  0  0  0  0  0  0  0  0  0  0
   -1.1156   -0.0923    2.6247 H   0  0  0  0  0  0  0  0  0  0  0  0
   -2.5766    0.7596    1.8973 H   0  0  0  0  0  0  0  0  0  0  0  0
   -1.5673    2.1033   -0.4236 H   0  0  0  0  0  0  0  0  0  0  0  0
   -1.3989    0.7614   -1.6775 H   0  0  0  0  0  0  0  0  0  0  0  0
    0.7551    1.5696    0.4702 H   0  0  0  0  0  0  0  0  0  0  0  0
  1  2  3  0
  2  3  1  0
  3  4  1  0
  4  5  2  0
  5  6  1  0
  6  7  1  0
  6  8  1  0
  8  9  1  0
  9  3  1  0
  9  6  1  0
  1 10  1  0
  3 11  1  0
  4 12  1  0
  5 13  1  0
  7 14  1  0
  7 15  1  0
  7 16  1  0
  8 17  1  0
  8 18  1  0
  9 19  1  0
M  END
