
     RDKit          3D

 19 20  0  0  0  0  0  0  0  0999 V2000
   -2.0645    2.2084    0.8163 C   0  0  0  0  0  0  0  0  0  0  0  0
   -1.5516    1.1559    0.5174 C   0  0  0  0  0  0  0  0  0  0  0  0
   -0.9473   -0.1296    0.1382 C   0  0  0  0  0  0  0  0  0  0  0  0
   -1.9369   -1.1707   -0.2110 C   0  0  0  0  0  0  0  0  0  0  0  0
   -0.0179   -0.4831    1.1395 O   0  0  0  0  0  0  0  0  0  0  0  0
    1.0964   -0.0258    0.4980 C   0  0  0  0  0  0  0  0  0  0  0  0
    2.3024   -0.9175    0.4811 C   0  0  0  0  0  0  0  0  0  0  0  0
    1.1307    1.1593   -0.3663 C   0  0  0  0  0  0  0  0  0  0  0  0
    0.2312    0.0424   -0.7808 C   0  0  0  0  0  0  0  0  0  0  0  0
   -2.5139    3.1522    1.0664 H   0  0  0  0  0  0  0  0  0  0  0  0
   -1.5764   -1.9021   -0.9719 H   0  0  0  0  0  0  0  0  0  0  0  0
   -2.2070   -1.7236    0.7269 H   0  0  0  0  0  0  0  0  0  0  0  0
   -2.8707   -0.7477   -0.6070 H   0  0  0  0  0  0  0  0  0  0  0  0
    3.1207   -0.3528    1.0188 H   0  0  0  0  0  0  0  0  0  0  0  0
    2.1125   -1.8283    1.0984 H   0  0  0  0  0  0  0  0  0  0  0  0
    2.5864   -1.1519   -0.5578 H   0  0  0  0  0  0  0  0  0  0  0  0
    2.0123    1.3197   -0.9844 H   0  0  0  0  0  0  0  0  0  0  0  0
    0.5856    2.1015   -0.1117 H   0  0  0  0  0  0  0  0  0  0  0  0
    0.5080   -0.7062   -1.5103 H   0  0  0  0  0  0  0  0  0  0  0  0
  1  2  3  0
  2  3  1  0
  3  4  1  0
  3  5  1  0
  5  6  1  0
  6  7  1  0
  6  8  1  0
  8  9  1  0
  9  3  1  0
  9  6  1  0
  1 10  1  0
  4 11  1  0
  4 12  1  0
  4 13  1  0
  7 14  1  0
  7 15  1  0
  7 16  1  0
  8 17  1  0
  8 18  1  0
  9 19  1  0
M  END
