
     RDKit          3D

 21 21  0  0  0  0  0  0  0  0999 V2000
    2.3702   -1.0054   -1.6966 C   0  0  0  0  0  0  0  0  0  0  0  0
    1.1031   -0.7780   -1.1492 C   0  0  0  0  0  0  0  0  0  0  0  0
   -0.0483   -0.5619   -0.6288 C   0  0  0  0  0  0  0  0  0  0  0  0
   -1.3547   -1.0418   -1.3262 C   0  0  0  0  0  0  0  0  0  0  0  0
   -0.0968   -0.9979    0.9043 C   0  0  0  0  0  0  0  0  0  0  0  0
   -0.2636    0.4038    0.5552 C   0  0  0  0  0  0  0  0  0  0  0  0
   -1.6733    0.9961    0.6237 C   0  0  0  0  0  0  0  0  0  0  0  0
    0.8887    1.3723    0.7500 C   0  0  0  0  0  0  0  0  0  0  0  0
    2.0799    0.6034    0.9478 O   0  0  0  0  0  0  0  0  0  0  0  0
    3.3385   -1.1793   -2.0947 H   0  0  0  0  0  0  0  0  0  0  0  0
   -1.1873   -1.0973   -2.4425 H   0  0  0  0  0  0  0  0  0  0  0  0
   -2.1472   -0.3380   -1.1021 H   0  0  0  0  0  0  0  0  0  0  0  0
   -1.6463   -2.0881   -1.0206 H   0  0  0  0  0  0  0  0  0  0  0  0
    0.9194   -1.3352    1.2875 H   0  0  0  0  0  0  0  0  0  0  0  0
   -0.8716   -1.7124    1.1481 H   0  0  0  0  0  0  0  0  0  0  0  0
   -2.4552    0.2891    0.7722 H   0  0  0  0  0  0  0  0  0  0  0  0
   -1.8425    1.6451   -0.2829 H   0  0  0  0  0  0  0  0  0  0  0  0
   -1.6784    1.6902    1.5190 H   0  0  0  0  0  0  0  0  0  0  0  0
    1.0749    2.0856   -0.0241 H   0  0  0  0  0  0  0  0  0  0  0  0
    0.7842    1.8692    1.7775 H   0  0  0  0  0  0  0  0  0  0  0  0
    2.7061    1.1805    1.4824 H   0  0  0  0  0  0  0  0  0  0  0  0
  1  2  3  0
  2  3  1  0
  3  4  1  0
  3  5  1  0
  5  6  1  0
  6  7  1  0
  6  8  1  0
  8  9  1  0
  6  3  1  0
  1 10  1  0
  4 11  1  0
  4 12  1  0
  4 13  1  0
  5 14  1  0
  5 15  1  0
  7 16  1  0
  7 17  1  0
  7 18  1  0
  8 19  1  0
  8 20  1  0
  9 21  1  0
M  END
