
     RDKit          3D

 25 24  0  0  0  0  0  0  0  0999 V2000
    3.9843    1.0696   -0.2994 C   0  0  0  0  0  0  0  0  0  0  0  0
    3.2328    0.5644    0.4348 C   0  0  0  0  0  0  0  0  0  0  0  0
    2.3215   -0.0188    1.3163 C   0  0  0  0  0  0  0  0  0  0  0  0
    1.0464   -0.5368    0.8076 C   0  0  0  0  0  0  0  0  0  0  0  0
    0.1378    0.5425    0.2236 C   0  0  0  0  0  0  0  0  0  0  0  0
   -1.2112   -0.0776    0.0026 C   0  0  0  0  0  0  0  0  0  0  0  0
   -1.1064   -1.3982   -0.7424 C   0  0  0  0  0  0  0  0  0  0  0  0
   -1.8412    0.8503   -1.1091 C   0  0  0  0  0  0  0  0  0  0  0  0
   -2.1988   -0.0696    1.0961 C   0  0  0  0  0  0  0  0  0  0  0  0
    4.8711    1.6376   -1.1510 H   0  0  0  0  0  0  0  0  0  0  0  0
    2.8709   -0.8283    1.9236 H   0  0  0  0  0  0  0  0  0  0  0  0
    2.0690    0.8444    2.0984 H   0  0  0  0  0  0  0  0  0  0  0  0
    0.5542   -1.3182    1.3563 H   0  0  0  0  0  0  0  0  0  0  0  0
    1.3787   -1.1614   -0.1923 H   0  0  0  0  0  0  0  0  0  0  0  0
    0.0567    1.3889    0.9409 H   0  0  0  0  0  0  0  0  0  0  0  0
    0.5565    0.9461   -0.6843 H   0  0  0  0  0  0  0  0  0  0  0  0
   -2.0398   -1.6934   -1.2537 H   0  0  0  0  0  0  0  0  0  0  0  0
   -0.9966   -2.2568    0.0435 H   0  0  0  0  0  0  0  0  0  0  0  0
   -0.2084   -1.4792   -1.3590 H   0  0  0  0  0  0  0  0  0  0  0  0
   -1.2925    0.7163   -2.0361 H   0  0  0  0  0  0  0  0  0  0  0  0
   -1.8599    1.8737   -0.6957 H   0  0  0  0  0  0  0  0  0  0  0  0
   -2.8904    0.4540   -1.2495 H   0  0  0  0  0  0  0  0  0  0  0  0
   -2.2234    0.9532    1.5443 H   0  0  0  0  0  0  0  0  0  0  0  0
   -3.2580   -0.1948    0.6871 H   0  0  0  0  0  0  0  0  0  0  0  0
   -1.9533   -0.8078    1.8678 H   0  0  0  0  0  0  0  0  0  0  0  0
  1  2  3  0
  2  3  1  0
  3  4  1  0
  4  5  1  0
  5  6  1  0
  6  7  1  0
  6  8  1  0
  6  9  1  0
  1 10  1  0
  3 11  1  0
  3 12  1  0
  4 13  1  0
  4 14  1  0
  5 15  1  0
  5 16  1  0
  7 17  1  0
  7 18  1  0
  7 19  1  0
  8 20  1  0
  8 21  1  0
  8 22  1  0
  9 23  1  0
  9 24  1  0
  9 25  1  0
M  END
