
     RDKit          3D

 19 19  0  0  0  0  0  0  0  0999 V2000
    3.5468   -0.0895   -0.3769 C   0  0  0  0  0  0  0  0  0  0  0  0
    2.4388   -0.4429   -0.0820 C   0  0  0  0  0  0  0  0  0  0  0  0
    1.0891   -0.8686    0.3021 C   0  0  0  0  0  0  0  0  0  0  0  0
    0.8721   -2.2183   -0.0443 O   0  0  0  0  0  0  0  0  0  0  0  0
    0.0265   -0.0681   -0.3858 C   0  0  0  0  0  0  0  0  0  0  0  0
   -1.3087   -0.5586    0.1389 C   0  0  0  0  0  0  0  0  0  0  0  0
   -1.8937    0.7259    0.7330 C   0  0  0  0  0  0  0  0  0  0  0  0
   -1.2344    1.7289   -0.2248 C   0  0  0  0  0  0  0  0  0  0  0  0
    0.0949    1.2818   -0.1507 O   0  0  0  0  0  0  0  0  0  0  0  0
    4.5511    0.2150   -0.6313 H   0  0  0  0  0  0  0  0  0  0  0  0
    1.0303   -0.7559    1.4026 H   0  0  0  0  0  0  0  0  0  0  0  0
    1.5198   -2.3848   -0.8006 H   0  0  0  0  0  0  0  0  0  0  0  0
    0.0836   -0.2975   -1.4875 H   0  0  0  0  0  0  0  0  0  0  0  0
   -1.2280   -1.3331    0.8964 H   0  0  0  0  0  0  0  0  0  0  0  0
   -2.0046   -0.8358   -0.6931 H   0  0  0  0  0  0  0  0  0  0  0  0
   -1.5899    0.8826    1.7692 H   0  0  0  0  0  0  0  0  0  0  0  0
   -2.9928    0.7360    0.6167 H   0  0  0  0  0  0  0  0  0  0  0  0
   -1.3145    2.7533    0.1219 H   0  0  0  0  0  0  0  0  0  0  0  0
   -1.6865    1.5295   -1.2168 H   0  0  0  0  0  0  0  0  0  0  0  0
  1  2  3  0
  2  3  1  0
  3  4  1  0
  3  5  1  0
  5  6  1  0
  6  7  1  0
  7  8  1  0
  8  9  1  0
  9  5  1  0
  1 10  1  0
  3 11  1  0
  4 12  1  0
  5 13  1  0
  6 14  1  0
  6 15  1  0
  7 16  1  0
  7 17  1  0
  8 18  1  0
  8 19  1  0
M  END
