
     RDKit          3D

 21 21  0  0  0  0  0  0  0  0999 V2000
    2.7982    0.1776   -3.0482 C   0  0  0  0  0  0  0  0  0  0  0  0
    2.2795   -0.5495   -2.2374 C   0  0  0  0  0  0  0  0  0  0  0  0
    1.6690   -1.4323   -1.2360 C   0  0  0  0  0  0  0  0  0  0  0  0
    1.3082   -0.6461    0.0212 C   0  0  0  0  0  0  0  0  0  0  0  0
    0.6845   -1.3723    1.1336 C   0  0  0  0  0  0  0  0  0  0  0  0
   -0.1366   -0.4118    0.2371 C   0  0  0  0  0  0  0  0  0  0  0  0
   -0.6114    0.6696    0.9311 O   0  0  0  0  0  0  0  0  0  0  0  0
   -1.9395    0.8814    0.5749 C   0  0  0  0  0  0  0  0  0  0  0  0
   -2.5270    2.0650    1.3074 C   0  0  0  0  0  0  0  0  0  0  0  0
    3.2746    0.8235   -3.7676 H   0  0  0  0  0  0  0  0  0  0  0  0
    2.4023   -2.2049   -0.9117 H   0  0  0  0  0  0  0  0  0  0  0  0
    0.8056   -1.9235   -1.6914 H   0  0  0  0  0  0  0  0  0  0  0  0
    1.9791    0.2124    0.2012 H   0  0  0  0  0  0  0  0  0  0  0  0
    0.9495   -1.0424    2.1468 H   0  0  0  0  0  0  0  0  0  0  0  0
    0.3992   -2.4294    1.0294 H   0  0  0  0  0  0  0  0  0  0  0  0
   -0.8671   -0.8949   -0.4486 H   0  0  0  0  0  0  0  0  0  0  0  0
   -1.9553    1.0348   -0.5331 H   0  0  0  0  0  0  0  0  0  0  0  0
   -2.5566   -0.0066    0.8234 H   0  0  0  0  0  0  0  0  0  0  0  0
   -1.7116    2.8065    1.4388 H   0  0  0  0  0  0  0  0  0  0  0  0
   -3.3624    2.4972    0.7342 H   0  0  0  0  0  0  0  0  0  0  0  0
   -2.8822    1.7457    2.3115 H   0  0  0  0  0  0  0  0  0  0  0  0
  1  2  3  0
  2  3  1  0
  3  4  1  0
  4  5  1  0
  5  6  1  0
  6  7  1  0
  7  8  1  0
  8  9  1  0
  6  4  1  0
  1 10  1  0
  3 11  1  0
  3 12  1  0
  4 13  1  0
  5 14  1  0
  5 15  1  0
  6 16  1  0
  8 17  1  0
  8 18  1  0
  9 19  1  0
  9 20  1  0
  9 21  1  0
M  END
