
     RDKit          3D

 23 23  0  0  0  0  0  0  0  0999 V2000
    1.1746    2.0281    1.8510 C   0  0  0  0  0  0  0  0  0  0  0  0
    1.1453    0.8145    1.3210 C   0  0  0  0  0  0  0  0  0  0  0  0
    1.1358   -0.4770    0.7656 C   0  0  0  0  0  0  0  0  0  0  0  0
    2.4320   -0.7876   -0.0327 C   0  0  0  0  0  0  0  0  0  0  0  0
   -0.0474   -0.8234   -0.0136 C   0  0  0  0  0  0  0  0  0  0  0  0
   -0.6581   -0.1938   -1.1466 C   0  0  0  0  0  0  0  0  0  0  0  0
   -0.2813    1.0499   -1.9042 C   0  0  0  0  0  0  0  0  0  0  0  0
   -1.2600    0.0917    0.2136 C   0  0  0  0  0  0  0  0  0  0  0  0
   -2.4768   -0.6780    0.7209 C   0  0  0  0  0  0  0  0  0  0  0  0
    1.2116    2.8954    2.2332 H   0  0  0  0  0  0  0  0  0  0  0  0
    1.2120   -1.2213    1.6205 H   0  0  0  0  0  0  0  0  0  0  0  0
    3.1798   -1.3281    0.5672 H   0  0  0  0  0  0  0  0  0  0  0  0
    2.1294   -1.4792   -0.8473 H   0  0  0  0  0  0  0  0  0  0  0  0
    2.8382    0.1585   -0.4030 H   0  0  0  0  0  0  0  0  0  0  0  0
   -0.2196   -1.9569    0.0376 H   0  0  0  0  0  0  0  0  0  0  0  0
   -1.4060   -0.7958   -1.7492 H   0  0  0  0  0  0  0  0  0  0  0  0
   -0.3596    0.9127   -3.0065 H   0  0  0  0  0  0  0  0  0  0  0  0
    0.6482    1.5593   -1.5888 H   0  0  0  0  0  0  0  0  0  0  0  0
   -1.0922    1.8219   -1.6398 H   0  0  0  0  0  0  0  0  0  0  0  0
   -1.1003    1.0988    0.6126 H   0  0  0  0  0  0  0  0  0  0  0  0
   -2.5798   -0.5686    1.8142 H   0  0  0  0  0  0  0  0  0  0  0  0
   -2.2837   -1.7585    0.4856 H   0  0  0  0  0  0  0  0  0  0  0  0
   -3.3420   -0.3626    0.0889 H   0  0  0  0  0  0  0  0  0  0  0  0
  1  2  3  0
  2  3  1  0
  3  4  1  0
  3  5  1  0
  5  6  1  0
  6  7  1  0
  6  8  1  0
  8  9  1  0
  8  5  1  0
  1 10  1  0
  3 11  1  0
  4 12  1  0
  4 13  1  0
  4 14  1  0
  5 15  1  0
  6 16  1  0
  7 17  1  0
  7 18  1  0
  7 19  1  0
  8 20  1  0
  9 21  1  0
  9 22  1  0
  9 23  1  0
M  END
