
     RDKit          3D

 18 18  0  0  0  0  0  0  0  0999 V2000
    3.7702    1.2613    0.3756 C   0  0  0  0  0  0  0  0  0  0  0  0
    2.8651    0.5408    0.2846 C   0  0  0  0  0  0  0  0  0  0  0  0
    1.6587   -0.4295    0.1747 C   0  0  0  0  0  0  0  0  0  0  0  0
    0.4479    0.5178    0.1729 C   0  0  0  0  0  0  0  0  0  0  0  0
   -0.7862   -0.3192    0.2119 C   0  0  0  0  0  0  0  0  0  0  0  0
   -2.1355    0.3491    0.1865 C   0  0  0  0  0  0  0  0  0  0  0  0
   -1.6773   -0.6296   -0.8968 C   0  0  0  0  0  0  0  0  0  0  0  0
   -2.3103   -1.8882   -0.9206 O   0  0  0  0  0  0  0  0  0  0  0  0
    4.5378    1.8836    0.4655 H   0  0  0  0  0  0  0  0  0  0  0  0
    1.7052   -0.8192   -0.9095 H   0  0  0  0  0  0  0  0  0  0  0  0
    1.7089   -1.1295    0.9476 H   0  0  0  0  0  0  0  0  0  0  0  0
    0.5420    1.2358    0.9928 H   0  0  0  0  0  0  0  0  0  0  0  0
    0.4824    1.1314   -0.7967 H   0  0  0  0  0  0  0  0  0  0  0  0
   -0.7611   -1.1052    1.0451 H   0  0  0  0  0  0  0  0  0  0  0  0
   -2.2326    1.4170   -0.0936 H   0  0  0  0  0  0  0  0  0  0  0  0
   -2.9411   -0.0254    0.8561 H   0  0  0  0  0  0  0  0  0  0  0  0
   -1.6596   -0.1596   -1.8947 H   0  0  0  0  0  0  0  0  0  0  0  0
   -3.2147   -1.8313   -1.3199 H   0  0  0  0  0  0  0  0  0  0  0  0
  1  2  3  0
  2  3  1  0
  3  4  1  0
  4  5  1  0
  5  6  1  0
  6  7  1  0
  7  8  1  0
  7  5  1  0
  1  9  1  0
  3 10  1  0
  3 11  1  0
  4 12  1  0
  4 13  1  0
  5 14  1  0
  6 15  1  0
  6 16  1  0
  7 17  1  0
  8 18  1  0
M  END
