
     RDKit          3D

 21 22  0  0  0  0  0  0  0  0999 V2000
   -2.7552    2.2327   -0.8077 C   0  0  0  0  0  0  0  0  0  0  0  0
   -1.9959    1.4731   -0.2495 C   0  0  0  0  0  0  0  0  0  0  0  0
   -1.0960    0.5459    0.4410 C   0  0  0  0  0  0  0  0  0  0  0  0
    0.3382    1.0515    0.1731 C   0  0  0  0  0  0  0  0  0  0  0  0
    1.0995   -0.2101   -0.2967 C   0  0  0  0  0  0  0  0  0  0  0  0
    2.5361   -0.1305    0.1191 C   0  0  0  0  0  0  0  0  0  0  0  0
    0.2913   -1.2116    0.4286 C   0  0  0  0  0  0  0  0  0  0  0  0
   -0.7634   -2.0702    0.0942 C   0  0  0  0  0  0  0  0  0  0  0  0
   -1.0561   -0.7471   -0.2664 C   0  0  0  0  0  0  0  0  0  0  0  0
   -3.4326    2.9031   -1.3015 H   0  0  0  0  0  0  0  0  0  0  0  0
   -1.3142    0.5207    1.5047 H   0  0  0  0  0  0  0  0  0  0  0  0
    0.7868    1.3493    1.1436 H   0  0  0  0  0  0  0  0  0  0  0  0
    0.3513    1.8274   -0.5884 H   0  0  0  0  0  0  0  0  0  0  0  0
    0.9959   -0.2769   -1.4024 H   0  0  0  0  0  0  0  0  0  0  0  0
    3.1438   -0.5637   -0.7081 H   0  0  0  0  0  0  0  0  0  0  0  0
    2.8080    0.9181    0.3018 H   0  0  0  0  0  0  0  0  0  0  0  0
    2.6396   -0.7181    1.0611 H   0  0  0  0  0  0  0  0  0  0  0  0
    0.3620   -0.9621    1.5369 H   0  0  0  0  0  0  0  0  0  0  0  0
   -1.3819   -2.5515    0.9001 H   0  0  0  0  0  0  0  0  0  0  0  0
   -0.5838   -2.8477   -0.7038 H   0  0  0  0  0  0  0  0  0  0  0  0
   -0.9733   -0.5320   -1.3796 H   0  0  0  0  0  0  0  0  0  0  0  0
  1  2  3  0
  2  3  1  0
  3  4  1  0
  4  5  1  0
  5  6  1  0
  5  7  1  0
  7  8  1  0
  8  9  1  0
  9  3  1  0
  9  7  1  0
  1 10  1  0
  3 11  1  0
  4 12  1  0
  4 13  1  0
  5 14  1  0
  6 15  1  0
  6 16  1  0
  6 17  1  0
  7 18  1  0
  8 19  1  0
  8 20  1  0
  9 21  1  0
M  END
