
     RDKit          3D

 19 20  0  0  0  0  0  0  0  0999 V2000
    2.7616    1.1013   -0.7127 C   0  0  0  0  0  0  0  0  0  0  0  0
    2.0270    0.1647   -0.5150 C   0  0  0  0  0  0  0  0  0  0  0  0
    1.1767   -0.9552   -0.2927 C   0  0  0  0  0  0  0  0  0  0  0  0
   -0.2916   -0.7934   -0.2367 C   0  0  0  0  0  0  0  0  0  0  0  0
   -0.8267   -0.2270   -1.4390 C   0  0  0  0  0  0  0  0  0  0  0  0
   -1.0574    1.0622   -1.1904 C   0  0  0  0  0  0  0  0  0  0  0  0
   -0.6410    1.2783    0.2594 C   0  0  0  0  0  0  0  0  0  0  0  0
   -1.1430    0.0028    0.7587 C   0  0  0  0  0  0  0  0  0  0  0  0
   -0.8351   -1.3389    0.9722 C   0  0  0  0  0  0  0  0  0  0  0  0
    3.4027    1.9248   -0.8678 H   0  0  0  0  0  0  0  0  0  0  0  0
    1.3381   -1.6228   -1.2186 H   0  0  0  0  0  0  0  0  0  0  0  0
    1.5783   -1.6517    0.5057 H   0  0  0  0  0  0  0  0  0  0  0  0
   -1.0103   -0.7622   -2.3868 H   0  0  0  0  0  0  0  0  0  0  0  0
   -1.4566    1.7833   -1.8876 H   0  0  0  0  0  0  0  0  0  0  0  0
   -1.3194    2.1272    0.5920 H   0  0  0  0  0  0  0  0  0  0  0  0
    0.3416    1.6172    0.4224 H   0  0  0  0  0  0  0  0  0  0  0  0
   -2.2961    0.0670    0.5276 H   0  0  0  0  0  0  0  0  0  0  0  0
   -1.5623   -2.1820    0.8080 H   0  0  0  0  0  0  0  0  0  0  0  0
   -0.1863   -1.5955    1.8259 H   0  0  0  0  0  0  0  0  0  0  0  0
  1  2  3  0
  2  3  1  0
  3  4  1  0
  4  5  1  0
  5  6  2  0
  6  7  1  0
  7  8  1  0
  8  9  1  0
  8  4  1  0
  9  4  1  0
  1 10  1  0
  3 11  1  0
  3 12  1  0
  5 13  1  0
  6 14  1  0
  7 15  1  0
  7 16  1  0
  8 17  1  0
  9 18  1  0
  9 19  1  0
M  END
