
     RDKit          3D

 19 20  0  0  0  0  0  0  0  0999 V2000
    3.2946    0.6591   -1.2744 C   0  0  0  0  0  0  0  0  0  0  0  0
    2.2163    0.2893   -1.4761 C   0  0  0  0  0  0  0  0  0  0  0  0
    0.8068   -0.2094   -1.7183 C   0  0  0  0  0  0  0  0  0  0  0  0
   -0.0823    0.3722   -0.6587 C   0  0  0  0  0  0  0  0  0  0  0  0
    0.2250    0.0540    0.7458 C   0  0  0  0  0  0  0  0  0  0  0  0
   -0.6832    0.3631    1.8794 C   0  0  0  0  0  0  0  0  0  0  0  0
   -1.9256    0.1016    1.0358 C   0  0  0  0  0  0  0  0  0  0  0  0
   -1.0180   -0.5510    0.0198 C   0  0  0  0  0  0  0  0  0  0  0  0
   -0.9662   -1.9085   -0.1094 O   0  0  0  0  0  0  0  0  0  0  0  0
    4.3064    0.9956   -1.1019 H   0  0  0  0  0  0  0  0  0  0  0  0
    0.5409    0.1812   -2.7358 H   0  0  0  0  0  0  0  0  0  0  0  0
    0.8120   -1.3155   -1.6835 H   0  0  0  0  0  0  0  0  0  0  0  0
   -0.5331    1.3592   -0.9661 H   0  0  0  0  0  0  0  0  0  0  0  0
    1.0588   -0.6221    0.9386 H   0  0  0  0  0  0  0  0  0  0  0  0
   -0.6233   -0.4369    2.6673 H   0  0  0  0  0  0  0  0  0  0  0  0
   -0.6250    1.3612    2.3332 H   0  0  0  0  0  0  0  0  0  0  0  0
   -2.3127    1.0841    0.7004 H   0  0  0  0  0  0  0  0  0  0  0  0
   -2.6608   -0.5739    1.5079 H   0  0  0  0  0  0  0  0  0  0  0  0
   -1.8307   -2.3738   -0.1041 H   0  0  0  0  0  0  0  0  0  0  0  0
  1  2  3  0
  2  3  1  0
  3  4  1  0
  4  5  1  0
  5  6  1  0
  6  7  1  0
  7  8  1  0
  8  9  1  0
  8  4  1  0
  8  5  1  0
  1 10  1  0
  3 11  1  0
  3 12  1  0
  4 13  1  0
  5 14  1  0
  6 15  1  0
  6 16  1  0
  7 17  1  0
  7 18  1  0
  9 19  1  0
M  END
