
     RDKit          3D

 17 17  0  0  0  0  0  0  0  0999 V2000
    1.2577    2.0836   -0.8427 C   0  0  0  0  0  0  0  0  0  0  0  0
    0.7280    1.2087   -0.1669 C   0  0  0  0  0  0  0  0  0  0  0  0
    0.1123    0.1551    0.6396 C   0  0  0  0  0  0  0  0  0  0  0  0
    0.5229   -1.2014    0.1021 C   0  0  0  0  0  0  0  0  0  0  0  0
    2.0068   -1.2604    0.1982 C   0  0  0  0  0  0  0  0  0  0  0  0
    2.7138   -0.6958   -0.6157 O   0  0  0  0  0  0  0  0  0  0  0  0
   -1.3727    0.3488    0.6277 C   0  0  0  0  0  0  0  0  0  0  0  0
   -2.1817    0.3368   -0.5584 C   0  0  0  0  0  0  0  0  0  0  0  0
   -2.0726   -0.8696    0.2663 O   0  0  0  0  0  0  0  0  0  0  0  0
    1.7213    2.8301   -1.4401 H   0  0  0  0  0  0  0  0  0  0  0  0
    0.4823    0.2860    1.6747 H   0  0  0  0  0  0  0  0  0  0  0  0
    0.0655   -2.0244    0.6600 H   0  0  0  0  0  0  0  0  0  0  0  0
    0.2887   -1.2492   -0.9897 H   0  0  0  0  0  0  0  0  0  0  0  0
    2.5062   -1.8069    0.9931 H   0  0  0  0  0  0  0  0  0  0  0  0
   -1.7660    0.8770    1.5190 H   0  0  0  0  0  0  0  0  0  0  0  0
   -3.2137    0.7355   -0.4902 H   0  0  0  0  0  0  0  0  0  0  0  0
   -1.7989    0.2462   -1.5770 H   0  0  0  0  0  0  0  0  0  0  0  0
  1  2  3  0
  2  3  1  0
  3  4  1  0
  4  5  1  0
  5  6  2  0
  3  7  1  0
  7  8  1  0
  8  9  1  0
  9  7  1  0
  1 10  1  0
  3 11  1  0
  4 12  1  0
  4 13  1  0
  5 14  1  0
  7 15  1  0
  8 16  1  0
  8 17  1  0
M  END
