
     RDKit          3D

 21 21  0  0  0  0  0  0  0  0999 V2000
    2.7774   -0.8980    1.7789 C   0  0  0  0  0  0  0  0  0  0  0  0
    2.0075   -0.0230    1.4577 C   0  0  0  0  0  0  0  0  0  0  0  0
    1.0421    1.0405    1.0478 C   0  0  0  0  0  0  0  0  0  0  0  0
    0.3060    0.5087   -0.1765 C   0  0  0  0  0  0  0  0  0  0  0  0
   -0.6951    1.5324   -0.6746 C   0  0  0  0  0  0  0  0  0  0  0  0
    1.2398    0.3265   -1.1789 O   0  0  0  0  0  0  0  0  0  0  0  0
   -0.4299   -0.7510    0.1747 C   0  0  0  0  0  0  0  0  0  0  0  0
   -1.2358   -1.5209   -0.7909 C   0  0  0  0  0  0  0  0  0  0  0  0
   -1.9445   -0.6619    0.2004 C   0  0  0  0  0  0  0  0  0  0  0  0
    3.4516   -1.6392    2.0469 H   0  0  0  0  0  0  0  0  0  0  0  0
    1.5404    1.9693    0.7791 H   0  0  0  0  0  0  0  0  0  0  0  0
    0.3027    1.1120    1.8615 H   0  0  0  0  0  0  0  0  0  0  0  0
   -1.2666    1.1328   -1.5323 H   0  0  0  0  0  0  0  0  0  0  0  0
   -0.1828    2.4937   -0.9454 H   0  0  0  0  0  0  0  0  0  0  0  0
   -1.4313    1.8376    0.1022 H   0  0  0  0  0  0  0  0  0  0  0  0
    1.9352   -0.3571   -0.8989 H   0  0  0  0  0  0  0  0  0  0  0  0
    0.0408   -1.2883    1.0296 H   0  0  0  0  0  0  0  0  0  0  0  0
   -1.2719   -1.2535   -1.8591 H   0  0  0  0  0  0  0  0  0  0  0  0
   -1.2618   -2.6284   -0.5814 H   0  0  0  0  0  0  0  0  0  0  0  0
   -2.4375   -1.1096    1.0963 H   0  0  0  0  0  0  0  0  0  0  0  0
   -2.4861    0.1777   -0.2350 H   0  0  0  0  0  0  0  0  0  0  0  0
  1  2  3  0
  2  3  1  0
  3  4  1  0
  4  5  1  0
  4  6  1  0
  4  7  1  0
  7  8  1  0
  8  9  1  0
  9  7  1  0
  1 10  1  0
  3 11  1  0
  3 12  1  0
  5 13  1  0
  5 14  1  0
  5 15  1  0
  6 16  1  0
  7 17  1  0
  8 18  1  0
  8 19  1  0
  9 20  1  0
  9 21  1  0
M  END
