
     RDKit          3D

 16 16  0  0  0  0  0  0  0  0999 V2000
   -1.4552    2.1473   -1.2658 C   0  0  0  0  0  0  0  0  0  0  0  0
   -0.9000    1.2079   -0.7782 C   0  0  0  0  0  0  0  0  0  0  0  0
   -0.2311    0.0815   -0.1697 C   0  0  0  0  0  0  0  0  0  0  0  0
   -1.1526   -0.6128    0.8234 C   0  0  0  0  0  0  0  0  0  0  0  0
    1.0114    0.5148    0.6034 C   0  0  0  0  0  0  0  0  0  0  0  0
    2.0274   -0.1767   -0.0360 O   0  0  0  0  0  0  0  0  0  0  0  0
    1.3853   -1.2970   -0.5346 C   0  0  0  0  0  0  0  0  0  0  0  0
    0.2152   -0.7631   -1.1415 O   0  0  0  0  0  0  0  0  0  0  0  0
   -1.9543    3.0229   -1.7278 H   0  0  0  0  0  0  0  0  0  0  0  0
   -2.1049   -0.0471    0.8406 H   0  0  0  0  0  0  0  0  0  0  0  0
   -0.7534   -0.5515    1.8560 H   0  0  0  0  0  0  0  0  0  0  0  0
   -1.2942   -1.6619    0.4890 H   0  0  0  0  0  0  0  0  0  0  0  0
    0.9501    0.2580    1.6866 H   0  0  0  0  0  0  0  0  0  0  0  0
    1.0972    1.6237    0.4661 H   0  0  0  0  0  0  0  0  0  0  0  0
    1.1321   -2.0241    0.2371 H   0  0  0  0  0  0  0  0  0  0  0  0
    2.0271   -1.7218   -1.3486 H   0  0  0  0  0  0  0  0  0  0  0  0
  1  2  3  0
  2  3  1  0
  3  4  1  0
  3  5  1  0
  5  6  1  0
  6  7  1  0
  7  8  1  0
  8  3  1  0
  1  9  1  0
  4 10  1  0
  4 11  1  0
  4 12  1  0
  5 13  1  0
  5 14  1  0
  7 15  1  0
  7 16  1  0
M  END
