
     RDKit          3D

 15 16  0  0  0  0  0  0  0  0999 V2000
   -2.4993   -1.5472    0.2097 C   0  0  0  0  0  0  0  0  0  0  0  0
   -1.6985   -0.6697    0.4925 C   0  0  0  0  0  0  0  0  0  0  0  0
   -0.7330    0.3568    0.8401 C   0  0  0  0  0  0  0  0  0  0  0  0
   -0.5281    1.4868   -0.1957 C   0  0  0  0  0  0  0  0  0  0  0  0
    0.5106    0.5217    0.1074 C   0  0  0  0  0  0  0  0  0  0  0  0
    1.0858   -0.4572   -0.8431 C   0  0  0  0  0  0  0  0  0  0  0  0
    2.2529   -0.3362    0.0959 C   0  0  0  0  0  0  0  0  0  0  0  0
    3.3022   -0.9818    0.3153 O   0  0  0  0  0  0  0  0  0  0  0  0
    1.7414    0.8144    0.6812 O   0  0  0  0  0  0  0  0  0  0  0  0
   -3.1816   -2.3211   -0.0406 H   0  0  0  0  0  0  0  0  0  0  0  0
   -0.7677    0.7123    1.8818 H   0  0  0  0  0  0  0  0  0  0  0  0
   -1.1632    1.4246   -1.1000 H   0  0  0  0  0  0  0  0  0  0  0  0
   -0.3971    2.5174    0.2121 H   0  0  0  0  0  0  0  0  0  0  0  0
    0.7254   -1.4875   -0.8239 H   0  0  0  0  0  0  0  0  0  0  0  0
    1.3503   -0.0334   -1.8328 H   0  0  0  0  0  0  0  0  0  0  0  0
  1  2  3  0
  2  3  1  0
  3  4  1  0
  4  5  1  0
  5  6  1  0
  6  7  1  0
  7  8  2  0
  7  9  1  0
  5  3  1  0
  9  5  1  0
  1 10  1  0
  3 11  1  0
  4 12  1  0
  4 13  1  0
  6 14  1  0
  6 15  1  0
M  END
