
     RDKit          3D

 19 19  0  0  0  0  0  0  0  0999 V2000
   -3.1794    1.8591    1.5388 C   0  0  0  0  0  0  0  0  0  0  0  0
   -2.0929    1.5658    0.8661 C   0  0  0  0  0  0  0  0  0  0  0  0
   -0.7941    1.2426    0.0570 C   0  0  0  0  0  0  0  0  0  0  0  0
   -0.5591   -0.2909    0.0614 C   0  0  0  0  0  0  0  0  0  0  0  0
    0.6598   -0.3642   -0.6163 C   0  0  0  0  0  0  0  0  0  0  0  0
    1.6775   -0.4307   -1.1769 C   0  0  0  0  0  0  0  0  0  0  0  0
    3.1653   -0.4999   -2.0059 C   0  0  0  0  0  0  0  0  0  0  0  0
   -0.8802   -1.5310    0.8381 C   0  0  0  0  0  0  0  0  0  0  0  0
   -0.4211   -0.4870    1.7329 C   0  0  0  0  0  0  0  0  0  0  0  0
   -3.9505    2.0669    2.0329 H   0  0  0  0  0  0  0  0  0  0  0  0
   -1.1873    1.3729   -0.9837 H   0  0  0  0  0  0  0  0  0  0  0  0
    0.0264    1.7796    0.4324 H   0  0  0  0  0  0  0  0  0  0  0  0
    3.6420    0.4099   -1.7414 H   0  0  0  0  0  0  0  0  0  0  0  0
    3.5495   -1.3755   -1.4108 H   0  0  0  0  0  0  0  0  0  0  0  0
    2.8576   -0.6523   -2.9934 H   0  0  0  0  0  0  0  0  0  0  0  0
   -1.8380   -2.0281    0.9639 H   0  0  0  0  0  0  0  0  0  0  0  0
   -0.0886   -2.4125    0.6978 H   0  0  0  0  0  0  0  0  0  0  0  0
    0.6063   -0.3586    1.9975 H   0  0  0  0  0  0  0  0  0  0  0  0
   -1.1929    0.1339    2.2682 H   0  0  0  0  0  0  0  0  0  0  0  0
  1  2  3  0
  2  3  1  0
  3  4  1  0
  4  5  1  0
  5  6  3  0
  6  7  1  0
  4  8  1  0
  8  9  1  0
  9  4  1  0
  1 10  1  0
  3 11  1  0
  3 12  1  0
  7 13  1  0
  7 14  1  0
  7 15  1  0
  8 16  1  0
  8 17  1  0
  9 18  1  0
  9 19  1  0
M  END
