
     RDKit          3D

 18 18  0  0  0  0  0  0  0  0999 V2000
    3.5093   -0.9393    0.8452 C   0  0  0  0  0  0  0  0  0  0  0  0
    2.5409   -0.6583    0.1503 C   0  0  0  0  0  0  0  0  0  0  0  0
    1.3919   -0.3330   -0.6966 C   0  0  0  0  0  0  0  0  0  0  0  0
    0.1447   -0.2378    0.1651 C   0  0  0  0  0  0  0  0  0  0  0  0
   -1.1273    0.0871   -0.5296 C   0  0  0  0  0  0  0  0  0  0  0  0
   -2.3843   -0.6064   -0.0730 C   0  0  0  0  0  0  0  0  0  0  0  0
   -0.4678    1.0552    0.4699 C   0  0  0  0  0  0  0  0  0  0  0  0
    0.0093    2.2538   -0.0452 O   0  0  0  0  0  0  0  0  0  0  0  0
    4.3438   -1.1672    1.4565 H   0  0  0  0  0  0  0  0  0  0  0  0
    1.2692   -1.1761   -1.4078 H   0  0  0  0  0  0  0  0  0  0  0  0
    1.6181    0.6239   -1.1995 H   0  0  0  0  0  0  0  0  0  0  0  0
    0.0998   -1.0208    0.9468 H   0  0  0  0  0  0  0  0  0  0  0  0
   -1.0674    0.4049   -1.5882 H   0  0  0  0  0  0  0  0  0  0  0  0
   -2.0934   -1.4588    0.5750 H   0  0  0  0  0  0  0  0  0  0  0  0
   -2.9661   -0.9359   -0.9624 H   0  0  0  0  0  0  0  0  0  0  0  0
   -3.0244    0.0669    0.5693 H   0  0  0  0  0  0  0  0  0  0  0  0
   -1.0242    1.1658    1.4299 H   0  0  0  0  0  0  0  0  0  0  0  0
   -0.7721    2.8760   -0.1057 H   0  0  0  0  0  0  0  0  0  0  0  0
  1  2  3  0
  2  3  1  0
  3  4  1  0
  4  5  1  0
  5  6  1  0
  5  7  1  0
  7  8  1  0
  7  4  1  0
  1  9  1  0
  3 10  1  0
  3 11  1  0
  4 12  1  0
  5 13  1  0
  6 14  1  0
  6 15  1  0
  6 16  1  0
  7 17  1  0
  8 18  1  0
M  END
