
     RDKit          3D

 19 19  0  0  0  0  0  0  0  0999 V2000
    0.0169    2.8462   -0.7697 C   0  0  0  0  0  0  0  0  0  0  0  0
    0.1158    1.5980   -0.6171 C   0  0  0  0  0  0  0  0  0  0  0  0
    0.2253    0.1771   -0.4683 C   0  0  0  0  0  0  0  0  0  0  0  0
   -0.3444   -0.6104   -1.6294 C   0  0  0  0  0  0  0  0  0  0  0  0
   -0.1974   -1.9640   -1.3861 O   0  0  0  0  0  0  0  0  0  0  0  0
    1.4409   -0.3999    0.2375 C   0  0  0  0  0  0  0  0  0  0  0  0
    0.0633   -0.4446    0.8607 C   0  0  0  0  0  0  0  0  0  0  0  0
   -0.2427    0.4148    2.0517 C   0  0  0  0  0  0  0  0  0  0  0  0
   -0.4711   -1.7342    0.9255 O   0  0  0  0  0  0  0  0  0  0  0  0
   -0.0602    3.8838   -0.8789 H   0  0  0  0  0  0  0  0  0  0  0  0
    0.1265   -0.2906   -2.5825 H   0  0  0  0  0  0  0  0  0  0  0  0
   -1.4245   -0.3716   -1.6941 H   0  0  0  0  0  0  0  0  0  0  0  0
   -1.0022   -2.4272   -1.7332 H   0  0  0  0  0  0  0  0  0  0  0  0
    2.1930    0.3438    0.5729 H   0  0  0  0  0  0  0  0  0  0  0  0
    1.8713   -1.3092   -0.2374 H   0  0  0  0  0  0  0  0  0  0  0  0
    0.1972    1.4264    1.8283 H   0  0  0  0  0  0  0  0  0  0  0  0
    0.2638    0.0656    2.9693 H   0  0  0  0  0  0  0  0  0  0  0  0
   -1.3387    0.5292    2.2257 H   0  0  0  0  0  0  0  0  0  0  0  0
   -1.4329   -1.7331    0.6091 H   0  0  0  0  0  0  0  0  0  0  0  0
  1  2  3  0
  2  3  1  0
  3  4  1  0
  4  5  1  0
  3  6  1  0
  6  7  1  0
  7  8  1  0
  7  9  1  0
  7  3  1  0
  1 10  1  0
  4 11  1  0
  4 12  1  0
  5 13  1  0
  6 14  1  0
  6 15  1  0
  8 16  1  0
  8 17  1  0
  8 18  1  0
  9 19  1  0
M  END
