
     RDKit          3D

 15 14  0  0  0  0  0  0  0  0999 V2000
    3.6911    0.7064    1.2053 C   0  0  0  0  0  0  0  0  0  0  0  0
    2.8167    0.0096    0.7776 C   0  0  0  0  0  0  0  0  0  0  0  0
    1.6521   -0.9393    0.2275 C   0  0  0  0  0  0  0  0  0  0  0  0
    0.4306   -0.0595    0.0804 C   0  0  0  0  0  0  0  0  0  0  0  0
    0.2814    1.0708   -0.2826 O   0  0  0  0  0  0  0  0  0  0  0  0
   -0.7912   -0.7246    0.3523 O   0  0  0  0  0  0  0  0  0  0  0  0
   -2.0583   -0.3741    0.0862 C   0  0  0  0  0  0  0  0  0  0  0  0
   -2.6420    0.9482   -0.0307 C   0  0  0  0  0  0  0  0  0  0  0  0
   -3.9034    1.0607   -0.1227 O   0  0  0  0  0  0  0  0  0  0  0  0
    4.2983    1.1827    1.4983 H   0  0  0  0  0  0  0  0  0  0  0  0
    1.4582   -1.6551    0.9966 H   0  0  0  0  0  0  0  0  0  0  0  0
    1.9607   -1.2812   -0.7474 H   0  0  0  0  0  0  0  0  0  0  0  0
   -2.1916   -0.7786   -1.0784 H   0  0  0  0  0  0  0  0  0  0  0  0
   -2.8247   -1.0825    0.5346 H   0  0  0  0  0  0  0  0  0  0  0  0
   -2.1779    1.9165   -0.0873 H   0  0  0  0  0  0  0  0  0  0  0  0
  1  2  3  0
  2  3  1  0
  3  4  1  0
  4  5  2  0
  4  6  1  0
  6  7  1  0
  7  8  1  0
  8  9  2  0
  1 10  1  0
  3 11  1  0
  3 12  1  0
  7 13  1  0
  7 14  1  0
  8 15  1  0
M  END
