
     RDKit          3D

 13 14  0  0  0  0  0  0  0  0999 V2000
    2.8815   -0.7049    0.1658 C   0  0  0  0  0  0  0  0  0  0  0  0
    1.6847   -0.5831   -0.0948 C   0  0  0  0  0  0  0  0  0  0  0  0
    0.3009   -0.4299   -0.4076 C   0  0  0  0  0  0  0  0  0  0  0  0
   -0.6742   -0.8896    0.6712 C   0  0  0  0  0  0  0  0  0  0  0  0
   -1.6035   -0.0039    0.7942 C   0  0  0  0  0  0  0  0  0  0  0  0
   -1.4326    1.1054   -0.1136 C   0  0  0  0  0  0  0  0  0  0  0  0
   -2.0930    2.1576   -0.2782 O   0  0  0  0  0  0  0  0  0  0  0  0
   -0.2336    0.7917   -0.9218 C   0  0  0  0  0  0  0  0  0  0  0  0
   -0.2212   -0.3610   -1.6659 O   0  0  0  0  0  0  0  0  0  0  0  0
    3.8791   -0.7887    0.3850 H   0  0  0  0  0  0  0  0  0  0  0  0
   -0.5073   -1.8341    1.1342 H   0  0  0  0  0  0  0  0  0  0  0  0
   -2.4211   -0.1009    1.5527 H   0  0  0  0  0  0  0  0  0  0  0  0
    0.4405    1.6413   -1.2211 H   0  0  0  0  0  0  0  0  0  0  0  0
  1  2  3  0
  2  3  1  0
  3  4  1  0
  4  5  2  0
  5  6  1  0
  6  7  2  0
  6  8  1  0
  8  9  1  0
  8  3  1  0
  9  3  1  0
  1 10  1  0
  4 11  1  0
  5 12  1  0
  8 13  1  0
M  END
