
     RDKit          3D

 25 24  0  0  0  0  0  0  0  0999 V2000
   -0.4678    2.4564    1.1749 C   0  0  0  0  0  0  0  0  0  0  0  0
   -0.0835    1.4436    0.6513 C   0  0  0  0  0  0  0  0  0  0  0  0
    0.3658    0.2074   -0.0037 C   0  0  0  0  0  0  0  0  0  0  0  0
   -0.4721   -0.0766   -1.2356 C   0  0  0  0  0  0  0  0  0  0  0  0
   -0.3551    1.0671   -2.2294 C   0  0  0  0  0  0  0  0  0  0  0  0
   -1.2354    0.6820   -3.4266 C   0  0  0  0  0  0  0  0  0  0  0  0
    0.2427   -0.9354    0.9457 C   0  0  0  0  0  0  0  0  0  0  0  0
    1.0988   -0.6864    2.1756 C   0  0  0  0  0  0  0  0  0  0  0  0
    0.9796   -1.8499    3.1518 C   0  0  0  0  0  0  0  0  0  0  0  0
   -0.8235    3.3501    1.6351 H   0  0  0  0  0  0  0  0  0  0  0  0
    1.4467    0.3525   -0.2930 H   0  0  0  0  0  0  0  0  0  0  0  0
   -1.5311   -0.1379   -0.9260 H   0  0  0  0  0  0  0  0  0  0  0  0
   -0.2093   -1.0311   -1.6955 H   0  0  0  0  0  0  0  0  0  0  0  0
    0.6745    1.2248   -2.5808 H   0  0  0  0  0  0  0  0  0  0  0  0
   -0.7592    1.9631   -1.7326 H   0  0  0  0  0  0  0  0  0  0  0  0
   -0.8585   -0.2565   -3.8806 H   0  0  0  0  0  0  0  0  0  0  0  0
   -2.2734    0.4930   -3.0697 H   0  0  0  0  0  0  0  0  0  0  0  0
   -1.1943    1.4795   -4.1917 H   0  0  0  0  0  0  0  0  0  0  0  0
    0.5748   -1.8782    0.4207 H   0  0  0  0  0  0  0  0  0  0  0  0
   -0.8176   -1.0913    1.2181 H   0  0  0  0  0  0  0  0  0  0  0  0
    0.6667    0.1965    2.6895 H   0  0  0  0  0  0  0  0  0  0  0  0
    2.1608   -0.5472    1.9079 H   0  0  0  0  0  0  0  0  0  0  0  0
    1.0376   -2.7685    2.5298 H   0  0  0  0  0  0  0  0  0  0  0  0
    0.0001   -1.8290    3.6744 H   0  0  0  0  0  0  0  0  0  0  0  0
    1.8325   -1.8279    3.8337 H   0  0  0  0  0  0  0  0  0  0  0  0
  1  2  3  0
  2  3  1  0
  3  4  1  0
  4  5  1  0
  5  6  1  0
  3  7  1  0
  7  8  1  0
  8  9  1  0
  1 10  1  0
  3 11  1  0
  4 12  1  0
  4 13  1  0
  5 14  1  0
  5 15  1  0
  6 16  1  0
  6 17  1  0
  6 18  1  0
  7 19  1  0
  7 20  1  0
  8 21  1  0
  8 22  1  0
  9 23  1  0
  9 24  1  0
  9 25  1  0
M  END
