
     RDKit          3D

 17 18  0  0  0  0  0  0  0  0999 V2000
    3.3331   -0.7682   -0.2813 C   0  0  0  0  0  0  0  0  0  0  0  0
    2.2003   -0.5026    0.0966 C   0  0  0  0  0  0  0  0  0  0  0  0
    0.8472   -0.1991    0.5700 C   0  0  0  0  0  0  0  0  0  0  0  0
    0.6575    1.1402    0.6526 O   0  0  0  0  0  0  0  0  0  0  0  0
   -0.4129    1.5270   -0.0938 C   0  0  0  0  0  0  0  0  0  0  0  0
   -1.0580    0.3331   -0.7012 C   0  0  0  0  0  0  0  0  0  0  0  0
   -1.9907   -0.4438    0.2120 C   0  0  0  0  0  0  0  0  0  0  0  0
   -1.1089   -1.5387    0.1809 O   0  0  0  0  0  0  0  0  0  0  0  0
   -0.1180   -0.7811   -0.4200 C   0  0  0  0  0  0  0  0  0  0  0  0
    4.3198   -1.0012   -0.5919 H   0  0  0  0  0  0  0  0  0  0  0  0
    0.7033   -0.7015    1.5518 H   0  0  0  0  0  0  0  0  0  0  0  0
   -1.1903    2.0964    0.4715 H   0  0  0  0  0  0  0  0  0  0  0  0
   -0.0487    2.1781   -0.9382 H   0  0  0  0  0  0  0  0  0  0  0  0
   -1.4463    0.4304   -1.7331 H   0  0  0  0  0  0  0  0  0  0  0  0
   -2.0264    0.0681    1.1993 H   0  0  0  0  0  0  0  0  0  0  0  0
   -2.9782   -0.6500   -0.2172 H   0  0  0  0  0  0  0  0  0  0  0  0
    0.3172   -1.1871   -1.3476 H   0  0  0  0  0  0  0  0  0  0  0  0
  1  2  3  0
  2  3  1  0
  3  4  1  0
  4  5  1  0
  5  6  1  0
  6  7  1  0
  7  8  1  0
  8  9  1  0
  9  3  1  0
  9  6  1  0
  1 10  1  0
  3 11  1  0
  5 12  1  0
  5 13  1  0
  6 14  1  0
  7 15  1  0
  7 16  1  0
  9 17  1  0
M  END
