
     RDKit          3D

 19 19  0  0  0  0  0  0  0  0999 V2000
   -2.2043    1.8073   -0.1039 C   0  0  0  0  0  0  0  0  0  0  0  0
   -1.6305    0.7211    0.2226 C   0  0  0  0  0  0  0  0  0  0  0  0
   -1.0687   -0.3179    0.5553 C   0  0  0  0  0  0  0  0  0  0  0  0
   -0.1027   -0.9718   -0.5002 C   0  0  0  0  0  0  0  0  0  0  0  0
    0.6501   -0.1252   -1.3899 C   0  0  0  0  0  0  0  0  0  0  0  0
    0.6092   -1.5822    0.7327 C   0  0  0  0  0  0  0  0  0  0  0  0
    1.2109   -2.6142    0.8183 O   0  0  0  0  0  0  0  0  0  0  0  0
    0.1744   -0.3973    1.4815 C   0  0  0  0  0  0  0  0  0  0  0  0
    1.0704    0.8201    1.3793 C   0  0  0  0  0  0  0  0  0  0  0  0
   -2.8025    2.9366   -0.4495 H   0  0  0  0  0  0  0  0  0  0  0  0
   -1.7403   -1.2030    0.9450 H   0  0  0  0  0  0  0  0  0  0  0  0
   -0.7204   -1.7871   -0.9881 H   0  0  0  0  0  0  0  0  0  0  0  0
    0.2130   -0.3366   -2.4501 H   0  0  0  0  0  0  0  0  0  0  0  0
    0.6294    0.9731   -1.3720 H   0  0  0  0  0  0  0  0  0  0  0  0
    1.7156   -0.5330   -1.4723 H   0  0  0  0  0  0  0  0  0  0  0  0
   -0.0204   -0.5844    2.5524 H   0  0  0  0  0  0  0  0  0  0  0  0
    1.8121    0.7272    0.5426 H   0  0  0  0  0  0  0  0  0  0  0  0
    0.4396    1.6963    1.3905 H   0  0  0  0  0  0  0  0  0  0  0  0
    1.7652    0.7708    2.2954 H   0  0  0  0  0  0  0  0  0  0  0  0
  1  2  3  0
  2  3  1  0
  3  4  1  0
  4  5  1  0
  4  6  1  0
  6  7  2  0
  6  8  1  0
  8  9  1  0
  8  3  1  0
  1 10  1  0
  3 11  1  0
  4 12  1  0
  5 13  1  0
  5 14  1  0
  5 15  1  0
  8 16  1  0
  9 17  1  0
  9 18  1  0
  9 19  1  0
M  END
