
     RDKit          3D

 15 16  0  0  0  0  0  0  0  0999 V2000
    1.5140    1.5194   -2.0911 C   0  0  0  0  0  0  0  0  0  0  0  0
    0.7031    0.9054   -1.4537 C   0  0  0  0  0  0  0  0  0  0  0  0
   -0.2896    0.1622   -0.7047 C   0  0  0  0  0  0  0  0  0  0  0  0
    0.1593   -1.2888   -0.5219 C   0  0  0  0  0  0  0  0  0  0  0  0
    0.7319   -0.8650    0.8083 C   0  0  0  0  0  0  0  0  0  0  0  0
    1.6193   -1.3039    1.5369 O   0  0  0  0  0  0  0  0  0  0  0  0
   -0.2307    0.2241    0.7638 C   0  0  0  0  0  0  0  0  0  0  0  0
   -1.3612    0.3277    1.6595 C   0  0  0  0  0  0  0  0  0  0  0  0
   -0.2942    1.2928    1.5435 O   0  0  0  0  0  0  0  0  0  0  0  0
    2.2284    2.0404   -2.6351 H   0  0  0  0  0  0  0  0  0  0  0  0
   -1.3201    0.2661   -1.1012 H   0  0  0  0  0  0  0  0  0  0  0  0
   -0.7067   -1.9588   -0.3995 H   0  0  0  0  0  0  0  0  0  0  0  0
    0.8961   -1.6334   -1.2448 H   0  0  0  0  0  0  0  0  0  0  0  0
   -1.3209   -0.2936    2.5969 H   0  0  0  0  0  0  0  0  0  0  0  0
   -2.3289    0.6054    1.2428 H   0  0  0  0  0  0  0  0  0  0  0  0
  1  2  3  0
  2  3  1  0
  3  4  1  0
  4  5  1  0
  5  6  2  0
  5  7  1  0
  7  8  1  0
  8  9  1  0
  7  3  1  0
  9  7  1  0
  1 10  1  0
  3 11  1  0
  4 12  1  0
  4 13  1  0
  8 14  1  0
  8 15  1  0
M  END
