
     RDKit          3D

 15 15  0  0  0  0  0  0  0  0999 V2000
    2.9389    1.1378   -2.2627 C   0  0  0  0  0  0  0  0  0  0  0  0
    2.1700    0.5435   -1.5485 C   0  0  0  0  0  0  0  0  0  0  0  0
    1.2432   -0.1888   -0.6524 C   0  0  0  0  0  0  0  0  0  0  0  0
    0.5448   -1.2211   -1.2133 O   0  0  0  0  0  0  0  0  0  0  0  0
   -0.2045   -0.0591   -1.0403 C   0  0  0  0  0  0  0  0  0  0  0  0
   -1.1516    0.0267    0.0968 C   0  0  0  0  0  0  0  0  0  0  0  0
   -2.2349    0.6399    0.0106 O   0  0  0  0  0  0  0  0  0  0  0  0
   -0.8281   -0.5874    1.2834 O   0  0  0  0  0  0  0  0  0  0  0  0
   -1.6246   -0.5883    2.4366 C   0  0  0  0  0  0  0  0  0  0  0  0
    3.6094    1.6782   -2.8924 H   0  0  0  0  0  0  0  0  0  0  0  0
    1.4909   -0.1870    0.4407 H   0  0  0  0  0  0  0  0  0  0  0  0
   -0.4851    0.4393   -1.9770 H   0  0  0  0  0  0  0  0  0  0  0  0
   -2.4061    0.2029    2.3300 H   0  0  0  0  0  0  0  0  0  0  0  0
   -1.0173   -0.2551    3.3305 H   0  0  0  0  0  0  0  0  0  0  0  0
   -2.0450   -1.5817    2.6287 H   0  0  0  0  0  0  0  0  0  0  0  0
  1  2  3  0
  2  3  1  0
  3  4  1  0
  4  5  1  0
  5  6  1  0
  6  7  2  0
  6  8  1  0
  8  9  1  0
  5  3  1  0
  1 10  1  0
  3 11  1  0
  5 12  1  0
  9 13  1  0
  9 14  1  0
  9 15  1  0
M  END
