
     RDKit          3D

 17 18  0  0  0  0  0  0  0  0999 V2000
    1.3326    1.5522   -1.9964 C   0  0  0  0  0  0  0  0  0  0  0  0
    0.9136    1.1567   -0.9417 C   0  0  0  0  0  0  0  0  0  0  0  0
    0.4289    0.6849    0.3423 C   0  0  0  0  0  0  0  0  0  0  0  0
   -1.0999    0.7578    0.4824 C   0  0  0  0  0  0  0  0  0  0  0  0
   -1.6512    0.5997   -0.7875 O   0  0  0  0  0  0  0  0  0  0  0  0
   -0.9874   -0.5798    1.2323 C   0  0  0  0  0  0  0  0  0  0  0  0
    0.2934   -0.7685    0.5242 C   0  0  0  0  0  0  0  0  0  0  0  0
    0.9932   -1.8516    0.1114 C   0  0  0  0  0  0  0  0  0  0  0  0
    0.0309   -1.4423   -0.7784 O   0  0  0  0  0  0  0  0  0  0  0  0
    1.7159    1.9086   -2.9172 H   0  0  0  0  0  0  0  0  0  0  0  0
    0.9254    1.1695    1.2259 H   0  0  0  0  0  0  0  0  0  0  0  0
   -1.4659    1.5888    1.0792 H   0  0  0  0  0  0  0  0  0  0  0  0
   -1.6241    1.4626   -1.2361 H   0  0  0  0  0  0  0  0  0  0  0  0
   -1.8189   -1.2689    0.9763 H   0  0  0  0  0  0  0  0  0  0  0  0
   -0.9092   -0.3777    2.3256 H   0  0  0  0  0  0  0  0  0  0  0  0
    0.8852   -2.8469    0.6371 H   0  0  0  0  0  0  0  0  0  0  0  0
    2.0375   -1.7453   -0.2790 H   0  0  0  0  0  0  0  0  0  0  0  0
  1  2  3  0
  2  3  1  0
  3  4  1  0
  4  5  1  0
  4  6  1  0
  6  7  1  0
  7  8  1  0
  8  9  1  0
  7  3  1  0
  9  7  1  0
  1 10  1  0
  3 11  1  0
  4 12  1  0
  5 13  1  0
  6 14  1  0
  6 15  1  0
  8 16  1  0
  8 17  1  0
M  END
