
     RDKit          3D

 17 17  0  0  0  0  0  0  0  0999 V2000
    2.5466   -1.0308    0.9224 C   0  0  0  0  0  0  0  0  0  0  0  0
    1.1752   -0.6659    0.5739 C   0  0  0  0  0  0  0  0  0  0  0  0
    0.2096   -0.4054    0.3210 C   0  0  0  0  0  0  0  0  0  0  0  0
   -0.9756   -1.4905    0.1893 C   0  0  0  0  0  0  0  0  0  0  0  0
   -1.5831   -1.4262    1.3007 O   0  0  0  0  0  0  0  0  0  0  0  0
    0.1500    0.1521   -1.2807 C   0  0  0  0  0  0  0  0  0  0  0  0
   -1.1295    0.8024   -0.8720 C   0  0  0  0  0  0  0  0  0  0  0  0
   -0.5300    0.9184    0.5562 C   0  0  0  0  0  0  0  0  0  0  0  0
    0.2573    2.0735    0.6191 O   0  0  0  0  0  0  0  0  0  0  0  0
    3.8191   -1.3522    1.2271 H   0  0  0  0  0  0  0  0  0  0  0  0
   -1.0723   -2.0089   -0.6363 H   0  0  0  0  0  0  0  0  0  0  0  0
    1.0295    0.5907   -1.5277 H   0  0  0  0  0  0  0  0  0  0  0  0
   -0.1447   -0.8371   -1.7729 H   0  0  0  0  0  0  0  0  0  0  0  0
   -2.0433    0.1110   -0.7261 H   0  0  0  0  0  0  0  0  0  0  0  0
   -1.3854    1.6914   -1.4196 H   0  0  0  0  0  0  0  0  0  0  0  0
   -1.3385    1.0352    1.2726 H   0  0  0  0  0  0  0  0  0  0  0  0
    1.0151    1.8422    1.2529 H   0  0  0  0  0  0  0  0  0  0  0  0
  1  2  3  0
  2  3  1  0
  3  4  1  0
  4  5  2  0
  3  6  1  0
  6  7  1  0
  7  8  1  0
  8  9  1  0
  8  3  1  0
  1 10  1  0
  4 11  1  0
  6 12  1  0
  6 13  1  0
  7 14  1  0
  7 15  1  0
  8 16  1  0
  9 17  1  0
M  END
