
     RDKit          3D

 18 18  0  0  0  0  0  0  0  0999 V2000
    3.3757   -0.4104    0.7885 C   0  0  0  0  0  0  0  0  0  0  0  0
    2.4565   -0.3725   -0.0139 C   0  0  0  0  0  0  0  0  0  0  0  0
    1.3478   -0.3030   -0.9695 C   0  0  0  0  0  0  0  0  0  0  0  0
    0.0471   -0.4866   -0.2611 C   0  0  0  0  0  0  0  0  0  0  0  0
   -0.2053    0.5596    0.7931 C   0  0  0  0  0  0  0  0  0  0  0  0
   -1.7111    0.6639    0.8776 C   0  0  0  0  0  0  0  0  0  0  0  0
   -2.1345   -0.0114   -0.4112 C   0  0  0  0  0  0  0  0  0  0  0  0
   -1.0050   -0.2748   -1.1390 O   0  0  0  0  0  0  0  0  0  0  0  0
    4.1864   -0.4385    1.4727 H   0  0  0  0  0  0  0  0  0  0  0  0
    1.4541   -1.1407   -1.6956 H   0  0  0  0  0  0  0  0  0  0  0  0
    1.3971    0.6259   -1.5723 H   0  0  0  0  0  0  0  0  0  0  0  0
    0.0157   -1.5133    0.1536 H   0  0  0  0  0  0  0  0  0  0  0  0
    0.2944    1.5088    0.6210 H   0  0  0  0  0  0  0  0  0  0  0  0
    0.1579    0.1427    1.7611 H   0  0  0  0  0  0  0  0  0  0  0  0
   -2.1126    0.0263    1.7176 H   0  0  0  0  0  0  0  0  0  0  0  0
   -2.0706    1.7062    0.9544 H   0  0  0  0  0  0  0  0  0  0  0  0
   -2.6650   -0.9757   -0.2248 H   0  0  0  0  0  0  0  0  0  0  0  0
   -2.8286    0.6935   -0.9377 H   0  0  0  0  0  0  0  0  0  0  0  0
  1  2  3  0
  2  3  1  0
  3  4  1  0
  4  5  1  0
  5  6  1  0
  6  7  1  0
  7  8  1  0
  8  4  1  0
  1  9  1  0
  3 10  1  0
  3 11  1  0
  4 12  1  0
  5 13  1  0
  5 14  1  0
  6 15  1  0
  6 16  1  0
  7 17  1  0
  7 18  1  0
M  END
