
     RDKit          3D

 11 10  0  0  0  0  0  0  0  0999 V2000
    2.1053   -0.9950   -0.3937 C   0  0  0  0  0  0  0  0  0  0  0  0
    1.0147   -0.6037   -0.0595 C   0  0  0  0  0  0  0  0  0  0  0  0
   -0.3120   -0.1220    0.3618 C   0  0  0  0  0  0  0  0  0  0  0  0
   -1.2656   -0.3094   -0.7562 C   0  0  0  0  0  0  0  0  0  0  0  0
   -0.9640   -0.8690   -1.7971 O   0  0  0  0  0  0  0  0  0  0  0  0
   -0.2287    1.2942    0.8131 C   0  0  0  0  0  0  0  0  0  0  0  0
   -1.2629    1.8467    1.1368 O   0  0  0  0  0  0  0  0  0  0  0  0
    3.0804   -1.3323   -0.7065 H   0  0  0  0  0  0  0  0  0  0  0  0
   -0.6304   -0.7425    1.2445 H   0  0  0  0  0  0  0  0  0  0  0  0
   -2.2865    0.0555   -0.6789 H   0  0  0  0  0  0  0  0  0  0  0  0
    0.7497    1.7775    0.8357 H   0  0  0  0  0  0  0  0  0  0  0  0
  1  2  3  0
  2  3  1  0
  3  4  1  0
  4  5  2  0
  3  6  1  0
  6  7  2  0
  1  8  1  0
  3  9  1  0
  4 10  1  0
  6 11  1  0
M  END
