
     RDKit          3D

 20 19  0  0  0  0  0  0  0  0999 V2000
   -0.7810    3.1880    1.0160 C   0  0  0  0  0  0  0  0  0  0  0  0
   -0.2948    2.1528    0.5377 C   0  0  0  0  0  0  0  0  0  0  0  0
    0.2783    0.9120   -0.0078 C   0  0  0  0  0  0  0  0  0  0  0  0
   -0.6140   -0.2615    0.3366 C   0  0  0  0  0  0  0  0  0  0  0  0
   -0.1132   -1.5827   -0.1615 C   0  0  0  0  0  0  0  0  0  0  0  0
   -1.1537   -2.6333    0.2473 C   0  0  0  0  0  0  0  0  0  0  0  0
    0.3907    1.0715   -1.3771 O   0  0  0  0  0  0  0  0  0  0  0  0
    1.6789    1.1597   -1.8600 C   0  0  0  0  0  0  0  0  0  0  0  0
   -1.1986    4.0837    1.4186 H   0  0  0  0  0  0  0  0  0  0  0  0
    1.2870    0.8402    0.4289 H   0  0  0  0  0  0  0  0  0  0  0  0
   -1.6509   -0.0477    0.0044 H   0  0  0  0  0  0  0  0  0  0  0  0
   -0.6671   -0.3004    1.4646 H   0  0  0  0  0  0  0  0  0  0  0  0
    0.0028   -1.5611   -1.2497 H   0  0  0  0  0  0  0  0  0  0  0  0
    0.8705   -1.8373    0.3200 H   0  0  0  0  0  0  0  0  0  0  0  0
   -2.1086   -2.1133    0.4303 H   0  0  0  0  0  0  0  0  0  0  0  0
   -0.7724   -3.1831    1.1160 H   0  0  0  0  0  0  0  0  0  0  0  0
   -1.3145   -3.3386   -0.5858 H   0  0  0  0  0  0  0  0  0  0  0  0
    2.2346    2.0119   -1.4377 H   0  0  0  0  0  0  0  0  0  0  0  0
    2.2204    0.2349   -1.5347 H   0  0  0  0  0  0  0  0  0  0  0  0
    1.7055    1.2042   -2.9782 H   0  0  0  0  0  0  0  0  0  0  0  0
  1  2  3  0
  2  3  1  0
  3  4  1  0
  4  5  1  0
  5  6  1  0
  3  7  1  0
  7  8  1  0
  1  9  1  0
  3 10  1  0
  4 11  1  0
  4 12  1  0
  5 13  1  0
  5 14  1  0
  6 15  1  0
  6 16  1  0
  6 17  1  0
  8 18  1  0
  8 19  1  0
  8 20  1  0
M  END
