
     RDKit          3D

 17 18  0  0  0  0  0  0  0  0999 V2000
    3.0604    1.0486   -0.8099 C   0  0  0  0  0  0  0  0  0  0  0  0
    2.2800    0.1964   -0.4359 C   0  0  0  0  0  0  0  0  0  0  0  0
    1.3293   -0.8062    0.0198 C   0  0  0  0  0  0  0  0  0  0  0  0
    0.1149   -0.1770    0.6700 C   0  0  0  0  0  0  0  0  0  0  0  0
   -0.9723   -1.0514    1.2008 C   0  0  0  0  0  0  0  0  0  0  0  0
   -2.2034   -0.2349    1.1278 C   0  0  0  0  0  0  0  0  0  0  0  0
   -1.9670    0.9011    0.4945 C   0  0  0  0  0  0  0  0  0  0  0  0
   -0.5473    0.9609    0.0774 C   0  0  0  0  0  0  0  0  0  0  0  0
    0.3347    1.0885    1.1627 O   0  0  0  0  0  0  0  0  0  0  0  0
    3.7564    1.7830   -1.1433 H   0  0  0  0  0  0  0  0  0  0  0  0
    1.8077   -1.4495    0.8045 H   0  0  0  0  0  0  0  0  0  0  0  0
    0.9648   -1.4523   -0.7969 H   0  0  0  0  0  0  0  0  0  0  0  0
   -0.7635   -1.3855    2.2455 H   0  0  0  0  0  0  0  0  0  0  0  0
   -1.0685   -1.9256    0.5268 H   0  0  0  0  0  0  0  0  0  0  0  0
   -3.1795   -0.5177    1.5357 H   0  0  0  0  0  0  0  0  0  0  0  0
   -2.6910    1.6718    0.3061 H   0  0  0  0  0  0  0  0  0  0  0  0
   -0.2556    1.3499   -0.8997 H   0  0  0  0  0  0  0  0  0  0  0  0
  1  2  3  0
  2  3  1  0
  3  4  1  0
  4  5  1  0
  5  6  1  0
  6  7  2  0
  7  8  1  0
  8  9  1  0
  8  4  1  0
  9  4  1  0
  1 10  1  0
  3 11  1  0
  3 12  1  0
  5 13  1  0
  5 14  1  0
  6 15  1  0
  7 16  1  0
  8 17  1  0
M  END
