
     RDKit          3D

 17 18  0  0  0  0  0  0  0  0999 V2000
    2.6959   -1.9845    0.2235 C   0  0  0  0  0  0  0  0  0  0  0  0
    1.7658   -1.2072    0.3882 C   0  0  0  0  0  0  0  0  0  0  0  0
    0.6451   -0.2985    0.5980 C   0  0  0  0  0  0  0  0  0  0  0  0
    0.9301    1.1969    0.3573 C   0  0  0  0  0  0  0  0  0  0  0  0
    0.0539    0.3958   -0.5558 C   0  0  0  0  0  0  0  0  0  0  0  0
   -1.4314    0.4553   -0.1684 C   0  0  0  0  0  0  0  0  0  0  0  0
   -1.6961    1.5781    0.6002 O   0  0  0  0  0  0  0  0  0  0  0  0
   -1.5298   -0.7475    0.7432 C   0  0  0  0  0  0  0  0  0  0  0  0
   -0.3413   -0.6374    1.4906 O   0  0  0  0  0  0  0  0  0  0  0  0
    3.5109   -2.6465    0.0783 H   0  0  0  0  0  0  0  0  0  0  0  0
    0.4830    1.8303    1.1460 H   0  0  0  0  0  0  0  0  0  0  0  0
    1.9477    1.4182   -0.0160 H   0  0  0  0  0  0  0  0  0  0  0  0
    0.3250    0.2102   -1.5908 H   0  0  0  0  0  0  0  0  0  0  0  0
   -2.0335    0.3782   -1.0707 H   0  0  0  0  0  0  0  0  0  0  0  0
   -1.4296    2.4140    0.1554 H   0  0  0  0  0  0  0  0  0  0  0  0
   -2.4120   -0.6949    1.4136 H   0  0  0  0  0  0  0  0  0  0  0  0
   -1.4837   -1.6604    0.1343 H   0  0  0  0  0  0  0  0  0  0  0  0
  1  2  3  0
  2  3  1  0
  3  4  1  0
  4  5  1  0
  5  6  1  0
  6  7  1  0
  6  8  1  0
  8  9  1  0
  5  3  1  0
  9  3  1  0
  1 10  1  0
  4 11  1  0
  4 12  1  0
  5 13  1  0
  6 14  1  0
  7 15  1  0
  8 16  1  0
  8 17  1  0
M  END
