
     RDKit          3D

 17 20  0  0  0  0  0  0  0  0999 V2000
    3.1466   -0.7967   -0.7534 C   0  0  0  0  0  0  0  0  0  0  0  0
    1.9484   -0.6065   -0.4421 C   0  0  0  0  0  0  0  0  0  0  0  0
    0.6502   -0.3899   -0.1208 C   0  0  0  0  0  0  0  0  0  0  0  0
   -0.2940    0.0710   -1.2928 C   0  0  0  0  0  0  0  0  0  0  0  0
   -1.5190    0.4973   -0.5584 C   0  0  0  0  0  0  0  0  0  0  0  0
   -1.0965    1.0919    0.6820 C   0  0  0  0  0  0  0  0  0  0  0  0
   -1.5369   -0.3732    0.6459 C   0  0  0  0  0  0  0  0  0  0  0  0
   -0.1416   -0.7238    1.0072 C   0  0  0  0  0  0  0  0  0  0  0  0
    0.3088    0.6720    0.8918 C   0  0  0  0  0  0  0  0  0  0  0  0
    4.2680   -0.9805   -1.0266 H   0  0  0  0  0  0  0  0  0  0  0  0
    0.1836    0.8726   -1.8371 H   0  0  0  0  0  0  0  0  0  0  0  0
   -0.4327   -0.8203   -1.9499 H   0  0  0  0  0  0  0  0  0  0  0  0
   -2.4867    0.6771   -1.0788 H   0  0  0  0  0  0  0  0  0  0  0  0
   -1.6839    1.6424    1.4250 H   0  0  0  0  0  0  0  0  0  0  0  0
   -2.4261   -0.7760    1.0726 H   0  0  0  0  0  0  0  0  0  0  0  0
    0.0693   -1.2970    1.9265 H   0  0  0  0  0  0  0  0  0  0  0  0
    1.0425    1.2397    1.4091 H   0  0  0  0  0  0  0  0  0  0  0  0
  1  2  3  0
  2  3  1  0
  3  4  1  0
  4  5  1  0
  5  6  1  0
  6  7  1  0
  7  8  1  0
  8  9  1  0
  8  3  1  0
  9  3  1  0
  7  5  1  0
  9  6  1  0
  1 10  1  0
  4 11  1  0
  4 12  1  0
  5 13  1  0
  6 14  1  0
  7 15  1  0
  8 16  1  0
  9 17  1  0
M  END
