
     RDKit          3D

 17 16  0  0  0  0  0  0  0  0999 V2000
    1.0943    2.5536    1.4399 C   0  0  0  0  0  0  0  0  0  0  0  0
    0.5914    1.4993    1.3087 C   0  0  0  0  0  0  0  0  0  0  0  0
   -0.0098    0.2191    1.1726 C   0  0  0  0  0  0  0  0  0  0  0  0
   -1.1531   -0.0174    2.0860 C   0  0  0  0  0  0  0  0  0  0  0  0
   -0.4563    0.1738   -0.2314 O   0  0  0  0  0  0  0  0  0  0  0  0
    0.1766   -0.7051   -1.0950 C   0  0  0  0  0  0  0  0  0  0  0  0
    1.1106   -1.4405   -0.6113 O   0  0  0  0  0  0  0  0  0  0  0  0
   -0.1948   -0.8033   -2.5396 C   0  0  0  0  0  0  0  0  0  0  0  0
    0.6482   -1.7251   -3.1331 O   0  0  0  0  0  0  0  0  0  0  0  0
    1.6051    3.6207    1.5839 H   0  0  0  0  0  0  0  0  0  0  0  0
    0.7502   -0.5921    1.3276 H   0  0  0  0  0  0  0  0  0  0  0  0
   -1.8378   -0.8185    1.6708 H   0  0  0  0  0  0  0  0  0  0  0  0
   -0.7834   -0.3319    3.0961 H   0  0  0  0  0  0  0  0  0  0  0  0
   -1.7642    0.8876    2.2317 H   0  0  0  0  0  0  0  0  0  0  0  0
   -0.0843    0.2167   -2.9604 H   0  0  0  0  0  0  0  0  0  0  0  0
   -1.2323   -1.1216   -2.6494 H   0  0  0  0  0  0  0  0  0  0  0  0
    1.5395   -1.6154   -2.6972 H   0  0  0  0  0  0  0  0  0  0  0  0
  1  2  3  0
  2  3  1  0
  3  4  1  0
  3  5  1  0
  5  6  1  0
  6  7  2  0
  6  8  1  0
  8  9  1  0
  1 10  1  0
  3 11  1  0
  4 12  1  0
  4 13  1  0
  4 14  1  0
  8 15  1  0
  8 16  1  0
  9 17  1  0
M  END
