
     RDKit          3D

 17 17  0  0  0  0  0  0  0  0999 V2000
   -3.1293   -0.3244   -1.8606 C   0  0  0  0  0  0  0  0  0  0  0  0
   -2.5022   -0.2343   -0.9673 C   0  0  0  0  0  0  0  0  0  0  0  0
   -1.7323   -0.1285    0.1032 C   0  0  0  0  0  0  0  0  0  0  0  0
   -0.2137   -0.3982   -0.2508 C   0  0  0  0  0  0  0  0  0  0  0  0
    0.6933   -0.4443    0.9185 C   0  0  0  0  0  0  0  0  0  0  0  0
    0.7454    0.5953   -0.3321 C   0  0  0  0  0  0  0  0  0  0  0  0
    0.8399    1.9004    0.2216 O   0  0  0  0  0  0  0  0  0  0  0  0
    2.1395    0.3187   -1.0094 C   0  0  0  0  0  0  0  0  0  0  0  0
    3.0259    0.1510   -1.4246 C   0  0  0  0  0  0  0  0  0  0  0  0
   -4.0787   -0.4702   -3.1666 H   0  0  0  0  0  0  0  0  0  0  0  0
   -1.7628    0.7251    0.7026 H   0  0  0  0  0  0  0  0  0  0  0  0
   -1.9008   -1.1396    0.7044 H   0  0  0  0  0  0  0  0  0  0  0  0
   -0.0881   -1.2565   -0.9871 H   0  0  0  0  0  0  0  0  0  0  0  0
    0.3233    0.0106    1.8763 H   0  0  0  0  0  0  0  0  0  0  0  0
    1.5336   -1.1445    1.0253 H   0  0  0  0  0  0  0  0  0  0  0  0
    1.7840    1.9494    0.6210 H   0  0  0  0  0  0  0  0  0  0  0  0
    4.3230   -0.1102   -2.0426 H   0  0  0  0  0  0  0  0  0  0  0  0
  1  2  3  0
  2  3  1  0
  3  4  1  0
  4  5  1  0
  5  6  1  0
  6  7  1  0
  6  8  1  0
  8  9  3  0
  6  4  1  0
  1 10  1  0
  3 11  1  0
  3 12  1  0
  4 13  1  0
  5 14  1  0
  5 15  1  0
  7 16  1  0
  9 17  1  0
M  END
