
     RDKit          3D

 19 19  0  0  0  0  0  0  0  0999 V2000
   -2.8868    1.6850    1.0485 C   0  0  0  0  0  0  0  0  0  0  0  0
   -1.8413    1.0948    1.1472 C   0  0  0  0  0  0  0  0  0  0  0  0
   -0.5645    0.3986    1.2580 C   0  0  0  0  0  0  0  0  0  0  0  0
   -0.7057   -0.7706    2.2365 C   0  0  0  0  0  0  0  0  0  0  0  0
    0.1839   -1.4672    1.3940 O   0  0  0  0  0  0  0  0  0  0  0  0
   -0.4135   -0.7797    0.3370 C   0  0  0  0  0  0  0  0  0  0  0  0
    0.5191   -0.5553   -0.8369 C   0  0  0  0  0  0  0  0  0  0  0  0
    1.6258    0.1837   -0.4636 O   0  0  0  0  0  0  0  0  0  0  0  0
    2.4177    0.3303   -1.6254 C   0  0  0  0  0  0  0  0  0  0  0  0
   -3.8161    2.2271    0.9713 H   0  0  0  0  0  0  0  0  0  0  0  0
    0.3231    1.0098    1.3969 H   0  0  0  0  0  0  0  0  0  0  0  0
   -0.2766   -0.4670    3.2044 H   0  0  0  0  0  0  0  0  0  0  0  0
   -1.7214   -1.1713    2.2393 H   0  0  0  0  0  0  0  0  0  0  0  0
   -1.3932   -1.2077    0.0700 H   0  0  0  0  0  0  0  0  0  0  0  0
    0.8240   -1.5590   -1.2018 H   0  0  0  0  0  0  0  0  0  0  0  0
   -0.0904   -0.0203   -1.6123 H   0  0  0  0  0  0  0  0  0  0  0  0
    2.7078   -0.6978   -1.9851 H   0  0  0  0  0  0  0  0  0  0  0  0
    1.8182    0.7992   -2.4388 H   0  0  0  0  0  0  0  0  0  0  0  0
    3.2900    0.9676   -1.4510 H   0  0  0  0  0  0  0  0  0  0  0  0
  1  2  3  0
  2  3  1  0
  3  4  1  0
  4  5  1  0
  5  6  1  0
  6  7  1  0
  7  8  1  0
  8  9  1  0
  6  3  1  0
  1 10  1  0
  3 11  1  0
  4 12  1  0
  4 13  1  0
  6 14  1  0
  7 15  1  0
  7 16  1  0
  9 17  1  0
  9 18  1  0
  9 19  1  0
M  END
