
     RDKit          3D

 19 19  0  0  0  0  0  0  0  0999 V2000
    1.6724    2.2202   -0.7648 C   0  0  0  0  0  0  0  0  0  0  0  0
    0.9688    1.2947   -0.4171 C   0  0  0  0  0  0  0  0  0  0  0  0
    0.1100    0.1997    0.0123 C   0  0  0  0  0  0  0  0  0  0  0  0
    0.4923   -0.4556    1.1584 O   0  0  0  0  0  0  0  0  0  0  0  0
    1.7535   -1.0194    1.0131 C   0  0  0  0  0  0  0  0  0  0  0  0
   -0.2944   -0.7278   -1.1216 C   0  0  0  0  0  0  0  0  0  0  0  0
   -1.6434   -0.8464   -0.4152 C   0  0  0  0  0  0  0  0  0  0  0  0
   -1.3717    0.5701    0.1099 C   0  0  0  0  0  0  0  0  0  0  0  0
   -1.8284    0.7818    1.3936 O   0  0  0  0  0  0  0  0  0  0  0  0
    2.2960    3.0270   -1.0538 H   0  0  0  0  0  0  0  0  0  0  0  0
    2.4522   -0.1847    0.7993 H   0  0  0  0  0  0  0  0  0  0  0  0
    1.7855   -1.7271    0.1833 H   0  0  0  0  0  0  0  0  0  0  0  0
    2.0690   -1.4976    1.9591 H   0  0  0  0  0  0  0  0  0  0  0  0
   -0.3551   -0.2250   -2.1020 H   0  0  0  0  0  0  0  0  0  0  0  0
    0.2716   -1.6677   -1.1896 H   0  0  0  0  0  0  0  0  0  0  0  0
   -2.5072   -0.9390   -1.0695 H   0  0  0  0  0  0  0  0  0  0  0  0
   -1.6176   -1.5516    0.4232 H   0  0  0  0  0  0  0  0  0  0  0  0
   -1.6847    1.3087   -0.6567 H   0  0  0  0  0  0  0  0  0  0  0  0
   -2.5688    1.4399    1.3441 H   0  0  0  0  0  0  0  0  0  0  0  0
  1  2  3  0
  2  3  1  0
  3  4  1  0
  4  5  1  0
  3  6  1  0
  6  7  1  0
  7  8  1  0
  8  9  1  0
  8  3  1  0
  1 10  1  0
  5 11  1  0
  5 12  1  0
  5 13  1  0
  6 14  1  0
  6 15  1  0
  7 16  1  0
  7 17  1  0
  8 18  1  0
  9 19  1  0
M  END
