
     RDKit          3D

 23 22  0  0  0  0  0  0  0  0999 V2000
   -0.0875    2.8835   -0.8783 C   0  0  0  0  0  0  0  0  0  0  0  0
    0.0084    1.6818   -0.6676 C   0  0  0  0  0  0  0  0  0  0  0  0
    0.1037    0.2420   -0.4214 C   0  0  0  0  0  0  0  0  0  0  0  0
    0.9617   -0.0292    0.6136 O   0  0  0  0  0  0  0  0  0  0  0  0
    2.0464   -0.8319    0.2183 C   0  0  0  0  0  0  0  0  0  0  0  0
    2.9061   -1.0569    1.4285 C   0  0  0  0  0  0  0  0  0  0  0  0
   -1.2719   -0.3640   -0.2209 C   0  0  0  0  0  0  0  0  0  0  0  0
   -2.1310   -0.1550   -1.4380 C   0  0  0  0  0  0  0  0  0  0  0  0
   -1.9593    0.1740    0.9943 C   0  0  0  0  0  0  0  0  0  0  0  0
   -0.1825    3.9211   -1.0745 H   0  0  0  0  0  0  0  0  0  0  0  0
    0.5236   -0.2742   -1.3343 H   0  0  0  0  0  0  0  0  0  0  0  0
    2.6030   -0.2869   -0.5968 H   0  0  0  0  0  0  0  0  0  0  0  0
    1.6900   -1.7882   -0.2312 H   0  0  0  0  0  0  0  0  0  0  0  0
    2.4128   -0.7304    2.3688 H   0  0  0  0  0  0  0  0  0  0  0  0
    3.8057   -0.4121    1.3185 H   0  0  0  0  0  0  0  0  0  0  0  0
    3.2036   -2.1315    1.5051 H   0  0  0  0  0  0  0  0  0  0  0  0
   -1.1100   -1.4652   -0.1285 H   0  0  0  0  0  0  0  0  0  0  0  0
   -3.1080    0.3179   -1.2122 H   0  0  0  0  0  0  0  0  0  0  0  0
   -2.3505   -1.0990   -1.9761 H   0  0  0  0  0  0  0  0  0  0  0  0
   -1.5839    0.5195   -2.1447 H   0  0  0  0  0  0  0  0  0  0  0  0
   -1.2713    0.7786    1.6183 H   0  0  0  0  0  0  0  0  0  0  0  0
   -2.8547    0.7823    0.6811 H   0  0  0  0  0  0  0  0  0  0  0  0
   -2.3546   -0.6760    1.5780 H   0  0  0  0  0  0  0  0  0  0  0  0
  1  2  3  0
  2  3  1  0
  3  4  1  0
  4  5  1  0
  5  6  1  0
  3  7  1  0
  7  8  1  0
  7  9  1  0
  1 10  1  0
  3 11  1  0
  5 12  1  0
  5 13  1  0
  6 14  1  0
  6 15  1  0
  6 16  1  0
  7 17  1  0
  8 18  1  0
  8 19  1  0
  8 20  1  0
  9 21  1  0
  9 22  1  0
  9 23  1  0
M  END
