
     RDKit          3D

 17 17  0  0  0  0  0  0  0  0999 V2000
    3.2915   -0.6028    0.9966 C   0  0  0  0  0  0  0  0  0  0  0  0
    2.0951   -0.4047    0.5800 C   0  0  0  0  0  0  0  0  0  0  0  0
    0.5127   -0.1271    0.0008 C   0  0  0  0  0  0  0  0  0  0  0  0
    0.1511   -1.3583   -0.5100 C   0  0  0  0  0  0  0  0  0  0  0  0
   -1.3321   -1.1784   -0.9102 C   0  0  0  0  0  0  0  0  0  0  0  0
   -1.8944    0.0470   -0.7995 O   0  0  0  0  0  0  0  0  0  0  0  0
   -1.5898    0.7371    0.3230 C   0  0  0  0  0  0  0  0  0  0  0  0
    0.0044    1.1201    0.1305 C   0  0  0  0  0  0  0  0  0  0  0  0
   -0.0906    1.8910   -1.0546 O   0  0  0  0  0  0  0  0  0  0  0  0
    4.3017   -0.7535    1.3525 H   0  0  0  0  0  0  0  0  0  0  0  0
    0.7876   -2.0350   -0.5481 H   0  0  0  0  0  0  0  0  0  0  0  0
   -1.6407   -1.9133   -1.5777 H   0  0  0  0  0  0  0  0  0  0  0  0
   -1.8465   -1.7193    0.1528 H   0  0  0  0  0  0  0  0  0  0  0  0
   -1.5013    0.1703    1.2685 H   0  0  0  0  0  0  0  0  0  0  0  0
   -2.0698    1.7736    0.4052 H   0  0  0  0  0  0  0  0  0  0  0  0
    0.1754    1.7466    1.0652 H   0  0  0  0  0  0  0  0  0  0  0  0
    0.6458    2.6066   -0.8750 H   0  0  0  0  0  0  0  0  0  0  0  0
  1  2  3  0
  2  3  1  0
  3  4  2  0
  4  5  1  0
  5  6  1  0
  6  7  1  0
  7  8  1  0
  8  9  1  0
  8  3  1  0
  1 10  1  0
  4 11  1  0
  5 12  1  0
  5 13  1  0
  7 14  1  0
  7 15  1  0
  8 16  1  0
  9 17  1  0
M  END
