
     RDKit          3D

 19 19  0  0  0  0  0  0  0  0999 V2000
    3.6267    0.3599    0.5708 C   0  0  0  0  0  0  0  0  0  0  0  0
    2.5176   -0.0507    0.8408 C   0  0  0  0  0  0  0  0  0  0  0  0
    1.1960   -0.5169    1.1735 C   0  0  0  0  0  0  0  0  0  0  0  0
    0.2821   -0.3205   -0.0430 C   0  0  0  0  0  0  0  0  0  0  0  0
   -1.0740   -0.8372    0.4051 C   0  0  0  0  0  0  0  0  0  0  0  0
   -2.1290   -0.3414   -0.5274 C   0  0  0  0  0  0  0  0  0  0  0  0
   -2.0738    1.0609   -0.5209 O   0  0  0  0  0  0  0  0  0  0  0  0
   -0.8479    1.4170   -1.0652 C   0  0  0  0  0  0  0  0  0  0  0  0
    0.2321    1.0323   -0.2968 O   0  0  0  0  0  0  0  0  0  0  0  0
    4.5967    0.7247    0.3523 H   0  0  0  0  0  0  0  0  0  0  0  0
    1.1493   -1.5928    1.4209 H   0  0  0  0  0  0  0  0  0  0  0  0
    0.7189    0.0322    1.9997 H   0  0  0  0  0  0  0  0  0  0  0  0
    0.7013   -0.9196   -0.8808 H   0  0  0  0  0  0  0  0  0  0  0  0
   -1.0230   -1.9351    0.4831 H   0  0  0  0  0  0  0  0  0  0  0  0
   -1.2458   -0.3722    1.4181 H   0  0  0  0  0  0  0  0  0  0  0  0
   -1.9274   -0.7018   -1.5535 H   0  0  0  0  0  0  0  0  0  0  0  0
   -3.1154   -0.7049   -0.1361 H   0  0  0  0  0  0  0  0  0  0  0  0
   -0.7531    1.1214   -2.1389 H   0  0  0  0  0  0  0  0  0  0  0  0
   -0.8313    2.5447   -1.0871 H   0  0  0  0  0  0  0  0  0  0  0  0
  1  2  3  0
  2  3  1  0
  3  4  1  0
  4  5  1  0
  5  6  1  0
  6  7  1  0
  7  8  1  0
  8  9  1  0
  9  4  1  0
  1 10  1  0
  3 11  1  0
  3 12  1  0
  4 13  1  0
  5 14  1  0
  5 15  1  0
  6 16  1  0
  6 17  1  0
  8 18  1  0
  8 19  1  0
M  END
