
     RDKit          3D

 12 12  0  0  0  0  0  0  0  0999 V2000
    2.1865   -0.1555   -1.2717 C   0  0  0  0  0  0  0  0  0  0  0  0
    1.2345    0.1660   -0.5712 C   0  0  0  0  0  0  0  0  0  0  0  0
    0.0875    0.5619    0.2458 C   0  0  0  0  0  0  0  0  0  0  0  0
   -1.2355    0.2650   -0.3978 C   0  0  0  0  0  0  0  0  0  0  0  0
   -1.1088   -1.0569    0.0458 O   0  0  0  0  0  0  0  0  0  0  0  0
   -0.4193   -0.5616    1.1469 C   0  0  0  0  0  0  0  0  0  0  0  0
    3.0011   -0.4279   -1.8915 H   0  0  0  0  0  0  0  0  0  0  0  0
    0.1689    1.5420    0.7289 H   0  0  0  0  0  0  0  0  0  0  0  0
   -2.0889    0.7896    0.0578 H   0  0  0  0  0  0  0  0  0  0  0  0
   -1.1943    0.2775   -1.5022 H   0  0  0  0  0  0  0  0  0  0  0  0
    0.4513   -1.1767    1.4668 H   0  0  0  0  0  0  0  0  0  0  0  0
   -1.0828   -0.2234    1.9425 H   0  0  0  0  0  0  0  0  0  0  0  0
  1  2  3  0
  2  3  1  0
  3  4  1  0
  4  5  1  0
  5  6  1  0
  6  3  1  0
  1  7  1  0
  3  8  1  0
  4  9  1  0
  4 10  1  0
  6 11  1  0
  6 12  1  0
M  END
