
     RDKit          3D

 16 15  0  0  0  0  0  0  0  0999 V2000
   -1.8943   -2.2670    0.8594 C   0  0  0  0  0  0  0  0  0  0  0  0
   -1.6461   -1.2799    0.2936 C   0  0  0  0  0  0  0  0  0  0  0  0
   -1.3250   -0.0477   -0.3882 C   0  0  0  0  0  0  0  0  0  0  0  0
   -0.0189    0.4971    0.1400 C   0  0  0  0  0  0  0  0  0  0  0  0
    0.0267    0.7864    1.5107 C   0  0  0  0  0  0  0  0  0  0  0  0
   -0.1773    1.1042    2.6074 O   0  0  0  0  0  0  0  0  0  0  0  0
    1.0290   -0.2834   -0.4020 O   0  0  0  0  0  0  0  0  0  0  0  0
    1.8166    0.4336   -1.2577 C   0  0  0  0  0  0  0  0  0  0  0  0
   -2.1275   -3.2778    1.4418 H   0  0  0  0  0  0  0  0  0  0  0  0
   -2.1536    0.6755   -0.2279 H   0  0  0  0  0  0  0  0  0  0  0  0
   -1.1928   -0.2682   -1.4926 H   0  0  0  0  0  0  0  0  0  0  0  0
    0.1152    1.5053   -0.4539 H   0  0  0  0  0  0  0  0  0  0  0  0
    1.3076    0.3967    1.7587 H   0  0  0  0  0  0  0  0  0  0  0  0
    2.6407   -0.1830   -1.6861 H   0  0  0  0  0  0  0  0  0  0  0  0
    1.3260    0.9471   -2.0815 H   0  0  0  0  0  0  0  0  0  0  0  0
    2.2737    1.2610   -0.6218 H   0  0  0  0  0  0  0  0  0  0  0  0
  1  2  3  0
  2  3  1  0
  3  4  1  0
  4  5  1  0
  5  6  2  0
  4  7  1  0
  7  8  1  0
  1  9  1  0
  3 10  1  0
  3 11  1  0
  4 12  1  0
  5 13  1  0
  8 14  1  0
  8 15  1  0
  8 16  1  0
M  END
