
     RDKit          3D

 19 20  0  0  0  0  0  0  0  0999 V2000
    2.8143   -0.6811    1.3718 C   0  0  0  0  0  0  0  0  0  0  0  0
    1.8847   -0.2705    0.7158 C   0  0  0  0  0  0  0  0  0  0  0  0
    0.7790    0.2414   -0.0557 C   0  0  0  0  0  0  0  0  0  0  0  0
    0.8198    0.2900   -1.5287 C   0  0  0  0  0  0  0  0  0  0  0  0
    0.0350   -0.8159   -0.9276 C   0  0  0  0  0  0  0  0  0  0  0  0
   -1.4086   -0.6539   -0.6035 C   0  0  0  0  0  0  0  0  0  0  0  0
   -1.3504   -0.1575    0.8470 C   0  0  0  0  0  0  0  0  0  0  0  0
   -0.2984    0.9215    0.7337 C   0  0  0  0  0  0  0  0  0  0  0  0
   -0.7765    2.0738    0.1538 O   0  0  0  0  0  0  0  0  0  0  0  0
    3.6338   -1.0537    1.9576 H   0  0  0  0  0  0  0  0  0  0  0  0
    1.7727   -0.0058   -2.0032 H   0  0  0  0  0  0  0  0  0  0  0  0
    0.2918    1.0974   -2.0777 H   0  0  0  0  0  0  0  0  0  0  0  0
    0.4479   -1.8475   -0.8755 H   0  0  0  0  0  0  0  0  0  0  0  0
   -1.8306    0.1340   -1.2299 H   0  0  0  0  0  0  0  0  0  0  0  0
   -1.9818   -1.6026   -0.6151 H   0  0  0  0  0  0  0  0  0  0  0  0
   -2.3183    0.2072    1.1836 H   0  0  0  0  0  0  0  0  0  0  0  0
   -0.9238   -0.9577    1.4764 H   0  0  0  0  0  0  0  0  0  0  0  0
    0.0448    1.1367    1.7808 H   0  0  0  0  0  0  0  0  0  0  0  0
   -1.6352    1.9442   -0.3036 H   0  0  0  0  0  0  0  0  0  0  0  0
  1  2  3  0
  2  3  1  0
  3  4  1  0
  4  5  1  0
  5  6  1  0
  6  7  1  0
  7  8  1  0
  8  9  1  0
  5  3  1  0
  8  3  1  0
  1 10  1  0
  4 11  1  0
  4 12  1  0
  5 13  1  0
  6 14  1  0
  6 15  1  0
  7 16  1  0
  7 17  1  0
  8 18  1  0
  9 19  1  0
M  END
