
     RDKit          3D

 15 15  0  0  0  0  0  0  0  0999 V2000
    2.9824    0.8682   -0.3504 C   0  0  0  0  0  0  0  0  0  0  0  0
    1.5764    0.2056   -0.0895 C   0  0  0  0  0  0  0  0  0  0  0  0
    0.1855   -0.4369    0.1562 C   0  0  0  0  0  0  0  0  0  0  0  0
    0.1707   -1.6809   -0.3933 C   0  0  0  0  0  0  0  0  0  0  0  0
    0.2284   -2.6168    0.3728 O   0  0  0  0  0  0  0  0  0  0  0  0
   -0.3315    0.0793    1.4136 C   0  0  0  0  0  0  0  0  0  0  0  0
   -0.6750    0.7995    0.1303 C   0  0  0  0  0  0  0  0  0  0  0  0
   -1.9885    0.6443   -0.4857 C   0  0  0  0  0  0  0  0  0  0  0  0
   -2.7307   -0.2893   -0.2066 O   0  0  0  0  0  0  0  0  0  0  0  0
    3.7222    1.2214   -0.5023 H   0  0  0  0  0  0  0  0  0  0  0  0
    0.1155   -1.8802   -1.4564 H   0  0  0  0  0  0  0  0  0  0  0  0
   -1.0840   -0.5944    1.8156 H   0  0  0  0  0  0  0  0  0  0  0  0
    0.3821    0.4844    2.1342 H   0  0  0  0  0  0  0  0  0  0  0  0
   -0.2148    1.8153    0.0584 H   0  0  0  0  0  0  0  0  0  0  0  0
   -2.3388    1.3807   -1.2173 H   0  0  0  0  0  0  0  0  0  0  0  0
  1  2  3  0
  2  3  1  0
  3  4  1  0
  4  5  2  0
  3  6  1  0
  6  7  1  0
  7  8  1  0
  8  9  2  0
  7  3  1  0
  1 10  1  0
  4 11  1  0
  6 12  1  0
  6 13  1  0
  7 14  1  0
  8 15  1  0
M  END
