
     RDKit          3D

 15 18  0  0  0  0  0  0  0  0999 V2000
    3.0313   -0.7530    0.6237 C   0  0  0  0  0  0  0  0  0  0  0  0
    1.8796   -0.7401    0.3784 C   0  0  0  0  0  0  0  0  0  0  0  0
    0.4860   -0.7028    0.0810 C   0  0  0  0  0  0  0  0  0  0  0  0
   -0.4913   -0.7737    1.0817 O   0  0  0  0  0  0  0  0  0  0  0  0
   -1.5681    0.0968    0.8214 C   0  0  0  0  0  0  0  0  0  0  0  0
   -1.3989    0.8077   -0.6203 C   0  0  0  0  0  0  0  0  0  0  0  0
   -0.7093    0.8519    0.2952 C   0  0  0  0  0  0  0  0  0  0  0  0
   -0.4250   -0.4596   -0.7126 C   0  0  0  0  0  0  0  0  0  0  0  0
    0.1519    0.4802   -0.9789 C   0  0  0  0  0  0  0  0  0  0  0  0
    4.0672   -0.7494    0.8335 H   0  0  0  0  0  0  0  0  0  0  0  0
   -2.5865   -0.2625    0.9427 H   0  0  0  0  0  0  0  0  0  0  0  0
   -2.1126    0.4564   -1.3818 H   0  0  0  0  0  0  0  0  0  0  0  0
    0.1018    1.4404    0.6734 H   0  0  0  0  0  0  0  0  0  0  0  0
   -1.2514   -1.0310   -1.1098 H   0  0  0  0  0  0  0  0  0  0  0  0
    0.8253    1.3388   -0.9277 H   0  0  0  0  0  0  0  0  0  0  0  0
  1  2  3  0
  2  3  1  0
  3  4  1  0
  4  5  1  0
  5  6  1  0
  6  7  1  0
  7  8  1  0
  8  9  1  0
  8  3  1  0
  9  3  1  0
  7  5  1  0
  9  6  1  0
  1 10  1  0
  5 11  1  0
  6 12  1  0
  7 13  1  0
  8 14  1  0
  9 15  1  0
M  END
