
     RDKit          3D

 21 20  0  0  0  0  0  0  0  0999 V2000
   -3.5347   -0.7330   -0.1361 C   0  0  0  0  0  0  0  0  0  0  0  0
   -2.4141   -0.5771    0.2813 C   0  0  0  0  0  0  0  0  0  0  0  0
   -1.0425   -0.3928    0.7653 C   0  0  0  0  0  0  0  0  0  0  0  0
   -0.1816   -0.0488   -0.3771 C   0  0  0  0  0  0  0  0  0  0  0  0
   -0.6892    1.2336   -1.0070 C   0  0  0  0  0  0  0  0  0  0  0  0
   -0.6685    2.2885   -0.0911 O   0  0  0  0  0  0  0  0  0  0  0  0
    1.2757    0.0858   -0.1141 C   0  0  0  0  0  0  0  0  0  0  0  0
    1.9608   -1.1183    0.4148 C   0  0  0  0  0  0  0  0  0  0  0  0
    3.3099   -0.8058    0.5982 O   0  0  0  0  0  0  0  0  0  0  0  0
   -4.5213   -0.8682   -0.4839 H   0  0  0  0  0  0  0  0  0  0  0  0
   -0.7806   -1.2852    1.3344 H   0  0  0  0  0  0  0  0  0  0  0  0
   -1.0908    0.5004    1.4537 H   0  0  0  0  0  0  0  0  0  0  0  0
   -0.3162   -0.8427   -1.1683 H   0  0  0  0  0  0  0  0  0  0  0  0
   -0.1507    1.5045   -1.9267 H   0  0  0  0  0  0  0  0  0  0  0  0
   -1.7723    1.1258   -1.3089 H   0  0  0  0  0  0  0  0  0  0  0  0
    0.2239    2.7150   -0.0778 H   0  0  0  0  0  0  0  0  0  0  0  0
    1.4212    0.9150    0.6146 H   0  0  0  0  0  0  0  0  0  0  0  0
    1.7675    0.4282   -1.0502 H   0  0  0  0  0  0  0  0  0  0  0  0
    1.5685   -1.3365    1.4514 H   0  0  0  0  0  0  0  0  0  0  0  0
    1.9312   -2.0014   -0.2257 H   0  0  0  0  0  0  0  0  0  0  0  0
    3.7040   -0.7869   -0.3273 H   0  0  0  0  0  0  0  0  0  0  0  0
  1  2  3  0
  2  3  1  0
  3  4  1  0
  4  5  1  0
  5  6  1  0
  4  7  1  0
  7  8  1  0
  8  9  1  0
  1 10  1  0
  3 11  1  0
  3 12  1  0
  4 13  1  0
  5 14  1  0
  5 15  1  0
  6 16  1  0
  7 17  1  0
  7 18  1  0
  8 19  1  0
  8 20  1  0
  9 21  1  0
M  END
