
     RDKit          3D

 23 23  0  0  0  0  0  0  0  0999 V2000
   -1.2699   -2.4940   -0.1464 C   0  0  0  0  0  0  0  0  0  0  0  0
   -0.9670   -1.3228    0.0293 C   0  0  0  0  0  0  0  0  0  0  0  0
   -0.5849    0.0607    0.2431 C   0  0  0  0  0  0  0  0  0  0  0  0
   -1.6810    0.9180    0.8303 C   0  0  0  0  0  0  0  0  0  0  0  0
   -2.8458    0.8857   -0.1466 C   0  0  0  0  0  0  0  0  0  0  0  0
    0.1218    0.7084   -0.9447 C   0  0  0  0  0  0  0  0  0  0  0  0
    0.8377    0.4275    0.3654 C   0  0  0  0  0  0  0  0  0  0  0  0
    1.8318   -0.7141    0.3262 C   0  0  0  0  0  0  0  0  0  0  0  0
    3.2677   -0.2015    0.4624 C   0  0  0  0  0  0  0  0  0  0  0  0
   -1.5465   -3.5091   -0.2876 H   0  0  0  0  0  0  0  0  0  0  0  0
   -1.9770    0.5998    1.8488 H   0  0  0  0  0  0  0  0  0  0  0  0
   -1.3631    1.9864    0.9285 H   0  0  0  0  0  0  0  0  0  0  0  0
   -2.9370    1.8400   -0.6870 H   0  0  0  0  0  0  0  0  0  0  0  0
   -2.7033    0.0989   -0.9262 H   0  0  0  0  0  0  0  0  0  0  0  0
   -3.7992    0.5971    0.3746 H   0  0  0  0  0  0  0  0  0  0  0  0
    0.3543    0.0677   -1.8164 H   0  0  0  0  0  0  0  0  0  0  0  0
   -0.0774    1.7606   -1.1685 H   0  0  0  0  0  0  0  0  0  0  0  0
    1.1656    1.3072    0.9455 H   0  0  0  0  0  0  0  0  0  0  0  0
    1.7913   -1.2248   -0.6731 H   0  0  0  0  0  0  0  0  0  0  0  0
    1.6280   -1.4885    1.0834 H   0  0  0  0  0  0  0  0  0  0  0  0
    3.9205   -1.0780    0.2527 H   0  0  0  0  0  0  0  0  0  0  0  0
    3.4323    0.2311    1.4681 H   0  0  0  0  0  0  0  0  0  0  0  0
    3.4009    0.5438   -0.3454 H   0  0  0  0  0  0  0  0  0  0  0  0
  1  2  3  0
  2  3  1  0
  3  4  1  0
  4  5  1  0
  3  6  1  0
  6  7  1  0
  7  8  1  0
  8  9  1  0
  7  3  1  0
  1 10  1  0
  4 11  1  0
  4 12  1  0
  5 13  1  0
  5 14  1  0
  5 15  1  0
  6 16  1  0
  6 17  1  0
  7 18  1  0
  8 19  1  0
  8 20  1  0
  9 21  1  0
  9 22  1  0
  9 23  1  0
M  END
