
     RDKit          3D

 21 21  0  0  0  0  0  0  0  0999 V2000
   -2.3910    2.1125   -0.2973 C   0  0  0  0  0  0  0  0  0  0  0  0
   -1.7172    1.0955   -0.2962 C   0  0  0  0  0  0  0  0  0  0  0  0
   -0.8990   -0.1202   -0.2716 C   0  0  0  0  0  0  0  0  0  0  0  0
   -1.6584   -1.2544   -0.9186 C   0  0  0  0  0  0  0  0  0  0  0  0
    0.4132    0.0895   -0.9322 C   0  0  0  0  0  0  0  0  0  0  0  0
    1.3680    0.1345   -0.0121 C   0  0  0  0  0  0  0  0  0  0  0  0
    2.8101    0.3319   -0.3082 C   0  0  0  0  0  0  0  0  0  0  0  0
    0.8080   -0.0375    1.3447 C   0  0  0  0  0  0  0  0  0  0  0  0
   -0.6047   -0.5265    1.1510 C   0  0  0  0  0  0  0  0  0  0  0  0
   -2.9828    2.9938   -0.2820 H   0  0  0  0  0  0  0  0  0  0  0  0
   -2.5835   -1.4476   -0.3627 H   0  0  0  0  0  0  0  0  0  0  0  0
   -1.0255   -2.1684   -0.8021 H   0  0  0  0  0  0  0  0  0  0  0  0
   -1.8575   -1.0862   -1.9940 H   0  0  0  0  0  0  0  0  0  0  0  0
    0.5440    0.1868   -1.9940 H   0  0  0  0  0  0  0  0  0  0  0  0
    3.0519    0.1717   -1.3825 H   0  0  0  0  0  0  0  0  0  0  0  0
    3.4558   -0.3415    0.2916 H   0  0  0  0  0  0  0  0  0  0  0  0
    3.0843    1.3754    0.0231 H   0  0  0  0  0  0  0  0  0  0  0  0
    0.7619    0.9292    1.9128 H   0  0  0  0  0  0  0  0  0  0  0  0
    1.3836   -0.7531    1.9655 H   0  0  0  0  0  0  0  0  0  0  0  0
   -0.6435   -1.6317    1.2909 H   0  0  0  0  0  0  0  0  0  0  0  0
   -1.3178   -0.0536    1.8742 H   0  0  0  0  0  0  0  0  0  0  0  0
  1  2  3  0
  2  3  1  0
  3  4  1  0
  3  5  1  0
  5  6  2  0
  6  7  1  0
  6  8  1  0
  8  9  1  0
  9  3  1  0
  1 10  1  0
  4 11  1  0
  4 12  1  0
  4 13  1  0
  5 14  1  0
  7 15  1  0
  7 16  1  0
  7 17  1  0
  8 18  1  0
  8 19  1  0
  9 20  1  0
  9 21  1  0
M  END
