
     RDKit          3D

 19 18  0  0  0  0  0  0  0  0999 V2000
    3.7058    0.7457   -0.9783 C   0  0  0  0  0  0  0  0  0  0  0  0
    2.7179    0.1880   -0.7637 C   0  0  0  0  0  0  0  0  0  0  0  0
    1.4830   -0.4819   -0.4972 C   0  0  0  0  0  0  0  0  0  0  0  0
    0.2982    0.5008   -0.2943 C   0  0  0  0  0  0  0  0  0  0  0  0
    0.1211    1.2288   -1.4472 C   0  0  0  0  0  0  0  0  0  0  0  0
   -0.0584    1.8809   -2.5033 C   0  0  0  0  0  0  0  0  0  0  0  0
   -0.8285   -0.3769   -0.1624 O   0  0  0  0  0  0  0  0  0  0  0  0
   -1.3532   -0.4145    1.0758 C   0  0  0  0  0  0  0  0  0  0  0  0
   -2.6614   -1.2157    1.0957 C   0  0  0  0  0  0  0  0  0  0  0  0
    4.6596    1.2712   -1.2002 H   0  0  0  0  0  0  0  0  0  0  0  0
    1.1843   -1.1134   -1.3976 H   0  0  0  0  0  0  0  0  0  0  0  0
    1.5748   -1.1746    0.3439 H   0  0  0  0  0  0  0  0  0  0  0  0
    0.3796    0.9893    0.6855 H   0  0  0  0  0  0  0  0  0  0  0  0
   -0.2153    2.4501   -3.4617 H   0  0  0  0  0  0  0  0  0  0  0  0
   -0.6131   -0.9895    1.7328 H   0  0  0  0  0  0  0  0  0  0  0  0
   -1.4370    0.5715    1.5204 H   0  0  0  0  0  0  0  0  0  0  0  0
   -3.0499   -1.2431    0.0607 H   0  0  0  0  0  0  0  0  0  0  0  0
   -3.3815   -0.6159    1.7119 H   0  0  0  0  0  0  0  0  0  0  0  0
   -2.5260   -2.2008    1.5454 H   0  0  0  0  0  0  0  0  0  0  0  0
  1  2  3  0
  2  3  1  0
  3  4  1  0
  4  5  1  0
  5  6  3  0
  4  7  1  0
  7  8  1  0
  8  9  1  0
  1 10  1  0
  3 11  1  0
  3 12  1  0
  4 13  1  0
  6 14  1  0
  8 15  1  0
  8 16  1  0
  9 17  1  0
  9 18  1  0
  9 19  1  0
M  END
