
     RDKit          3D

 17 19  0  0  0  0  0  0  0  0999 V2000
    3.2666   -0.2560   -0.1680 C   0  0  0  0  0  0  0  0  0  0  0  0
    2.0703   -0.2386   -0.0173 C   0  0  0  0  0  0  0  0  0  0  0  0
    0.6286   -0.2044    0.1461 C   0  0  0  0  0  0  0  0  0  0  0  0
   -0.0089    0.9983    0.8136 C   0  0  0  0  0  0  0  0  0  0  0  0
   -1.4014    1.1237    0.2330 C   0  0  0  0  0  0  0  0  0  0  0  0
   -1.6416   -0.2300   -0.4349 C   0  0  0  0  0  0  0  0  0  0  0  0
   -1.5178   -1.3068    0.4611 O   0  0  0  0  0  0  0  0  0  0  0  0
   -0.1516   -1.4574    0.2496 C   0  0  0  0  0  0  0  0  0  0  0  0
   -0.2702   -0.5600   -0.9281 C   0  0  0  0  0  0  0  0  0  0  0  0
    4.3233   -0.2539   -0.2944 H   0  0  0  0  0  0  0  0  0  0  0  0
    0.6067    1.8997    0.6210 H   0  0  0  0  0  0  0  0  0  0  0  0
   -0.1410    0.8391    1.9076 H   0  0  0  0  0  0  0  0  0  0  0  0
   -2.1650    1.3394    0.9916 H   0  0  0  0  0  0  0  0  0  0  0  0
   -1.3670    1.8777   -0.5770 H   0  0  0  0  0  0  0  0  0  0  0  0
   -2.4701   -0.2762   -1.1313 H   0  0  0  0  0  0  0  0  0  0  0  0
    0.2818   -2.4475    0.0595 H   0  0  0  0  0  0  0  0  0  0  0  0
   -0.0427   -0.8473   -1.9321 H   0  0  0  0  0  0  0  0  0  0  0  0
  1  2  3  0
  2  3  1  0
  3  4  1  0
  4  5  1  0
  5  6  1  0
  6  7  1  0
  7  8  1  0
  8  9  1  0
  8  3  1  0
  9  3  1  0
  9  6  1  0
  1 10  1  0
  4 11  1  0
  4 12  1  0
  5 13  1  0
  5 14  1  0
  6 15  1  0
  8 16  1  0
  9 17  1  0
M  END
