
     RDKit          3D

 17 16  0  0  0  0  0  0  0  0999 V2000
   -1.6008    2.5079   -0.2110 C   0  0  0  0  0  0  0  0  0  0  0  0
   -1.1032    1.3977    0.1179 C   0  0  0  0  0  0  0  0  0  0  0  0
   -0.5258    0.1558    0.5051 C   0  0  0  0  0  0  0  0  0  0  0  0
   -1.3016   -1.0400   -0.0141 C   0  0  0  0  0  0  0  0  0  0  0  0
    0.9415    0.1091    0.2213 C   0  0  0  0  0  0  0  0  0  0  0  0
    1.4904   -1.2696    0.6579 C   0  0  0  0  0  0  0  0  0  0  0  0
    2.4723   -1.1699    1.3675 O   0  0  0  0  0  0  0  0  0  0  0  0
    1.3168    0.3322   -1.1451 C   0  0  0  0  0  0  0  0  0  0  0  0
    2.4665    0.2962   -1.5417 O   0  0  0  0  0  0  0  0  0  0  0  0
   -2.0242    3.4333   -0.4693 H   0  0  0  0  0  0  0  0  0  0  0  0
   -0.6224    0.0885    1.6381 H   0  0  0  0  0  0  0  0  0  0  0  0
   -2.2229   -0.7337   -0.5580 H   0  0  0  0  0  0  0  0  0  0  0  0
   -1.6317   -1.7356    0.8147 H   0  0  0  0  0  0  0  0  0  0  0  0
   -0.6620   -1.6701   -0.7006 H   0  0  0  0  0  0  0  0  0  0  0  0
    1.4228    0.8579    0.8762 H   0  0  0  0  0  0  0  0  0  0  0  0
    1.0201   -2.1088    0.3406 H   0  0  0  0  0  0  0  0  0  0  0  0
    0.5641    0.5493   -1.8997 H   0  0  0  0  0  0  0  0  0  0  0  0
  1  2  3  0
  2  3  1  0
  3  4  1  0
  3  5  1  0
  5  6  1  0
  6  7  2  0
  5  8  1  0
  8  9  2  0
  1 10  1  0
  3 11  1  0
  4 12  1  0
  4 13  1  0
  4 14  1  0
  5 15  1  0
  6 16  1  0
  8 17  1  0
M  END
