
     RDKit          3D

 17 18  0  0  0  0  0  0  0  0999 V2000
   -0.0753    0.4289   -3.3191 C   0  0  0  0  0  0  0  0  0  0  0  0
    0.4849    0.4048   -2.1473 C   0  0  0  0  0  0  0  0  0  0  0  0
    1.0373    0.3883   -0.9402 C   0  0  0  0  0  0  0  0  0  0  0  0
    0.9655   -0.7955    0.0110 C   0  0  0  0  0  0  0  0  0  0  0  0
   -0.1132   -0.0349    0.7037 C   0  0  0  0  0  0  0  0  0  0  0  0
   -1.4415   -0.5793    0.9187 C   0  0  0  0  0  0  0  0  0  0  0  0
   -0.5348   -0.1544    2.0849 C   0  0  0  0  0  0  0  0  0  0  0  0
    0.2751    1.2280    0.1123 C   0  0  0  0  0  0  0  0  0  0  0  0
    0.2223    2.4302    0.1554 O   0  0  0  0  0  0  0  0  0  0  0  0
   -0.5621    0.4410   -4.2982 H   0  0  0  0  0  0  0  0  0  0  0  0
    2.1354    0.7737   -0.9145 H   0  0  0  0  0  0  0  0  0  0  0  0
    1.9129   -0.9384    0.5788 H   0  0  0  0  0  0  0  0  0  0  0  0
    0.5646   -1.7132   -0.4622 H   0  0  0  0  0  0  0  0  0  0  0  0
   -1.4961   -1.7090    0.8518 H   0  0  0  0  0  0  0  0  0  0  0  0
   -2.3581   -0.0510    0.7390 H   0  0  0  0  0  0  0  0  0  0  0  0
   -0.7942    0.8355    2.5716 H   0  0  0  0  0  0  0  0  0  0  0  0
   -0.2227   -0.9546    2.7583 H   0  0  0  0  0  0  0  0  0  0  0  0
  1  2  3  0
  2  3  1  0
  3  4  1  0
  4  5  1  0
  5  6  1  0
  6  7  1  0
  5  8  1  0
  8  9  2  0
  8  3  1  0
  7  5  1  0
  1 10  1  0
  3 11  1  0
  4 12  1  0
  4 13  1  0
  6 14  1  0
  6 15  1  0
  7 16  1  0
  7 17  1  0
M  END
