
     RDKit          3D

 17 17  0  0  0  0  0  0  0  0999 V2000
    0.8642    3.0615   -3.4597 C   0  0  0  0  0  0  0  0  0  0  0  0
    0.7609    2.1248   -2.7447 C   0  0  0  0  0  0  0  0  0  0  0  0
    0.6294    1.0892   -1.9398 C   0  0  0  0  0  0  0  0  0  0  0  0
    0.4790    0.0320   -1.1055 C   0  0  0  0  0  0  0  0  0  0  0  0
    0.3320   -1.0961   -0.1936 C   0  0  0  0  0  0  0  0  0  0  0  0
   -1.1620   -1.2067    0.2267 C   0  0  0  0  0  0  0  0  0  0  0  0
   -0.8076    0.0053    1.1085 C   0  0  0  0  0  0  0  0  0  0  0  0
    0.5649   -0.7178    1.2646 C   0  0  0  0  0  0  0  0  0  0  0  0
    0.5338   -1.7285    2.1716 O   0  0  0  0  0  0  0  0  0  0  0  0
    0.9565    3.9183   -4.1038 H   0  0  0  0  0  0  0  0  0  0  0  0
    0.8020   -1.9967   -0.5560 H   0  0  0  0  0  0  0  0  0  0  0  0
   -1.8219   -0.9785   -0.5983 H   0  0  0  0  0  0  0  0  0  0  0  0
   -1.3535   -2.0748    0.8500 H   0  0  0  0  0  0  0  0  0  0  0  0
   -0.6070    0.9397    0.5007 H   0  0  0  0  0  0  0  0  0  0  0  0
   -1.3265    0.1175    2.0249 H   0  0  0  0  0  0  0  0  0  0  0  0
    1.3712    0.0213    1.2831 H   0  0  0  0  0  0  0  0  0  0  0  0
   -0.2154   -1.5105    2.8155 H   0  0  0  0  0  0  0  0  0  0  0  0
  1  2  3  0
  2  3  1  0
  3  4  3  0
  4  5  1  0
  5  6  1  0
  6  7  1  0
  7  8  1  0
  8  9  1  0
  8  5  1  0
  1 10  1  0
  5 11  1  0
  6 12  1  0
  6 13  1  0
  7 14  1  0
  7 15  1  0
  8 16  1  0
  9 17  1  0
M  END
