
     RDKit          3D

 16 17  0  0  0  0  0  0  0  0999 V2000
    2.3630   -1.1240   -0.3014 C   0  0  0  0  0  0  0  0  0  0  0  0
    1.3936   -0.4072   -0.2946 C   0  0  0  0  0  0  0  0  0  0  0  0
    0.2345    0.4506   -0.2992 C   0  0  0  0  0  0  0  0  0  0  0  0
    0.3748    1.9369   -0.5098 C   0  0  0  0  0  0  0  0  0  0  0  0
   -0.2222    2.0931    0.7641 O   0  0  0  0  0  0  0  0  0  0  0  0
   -0.4416    0.7373    1.0809 C   0  0  0  0  0  0  0  0  0  0  0  0
   -1.1159   -0.0417    0.0399 C   0  0  0  0  0  0  0  0  0  0  0  0
   -1.2651   -1.5232    0.0892 C   0  0  0  0  0  0  0  0  0  0  0  0
    3.2184   -1.7463   -0.2921 H   0  0  0  0  0  0  0  0  0  0  0  0
    1.4034    2.3203   -0.5687 H   0  0  0  0  0  0  0  0  0  0  0  0
   -0.2772    2.2542   -1.3450 H   0  0  0  0  0  0  0  0  0  0  0  0
    0.1092    0.3089    1.9229 H   0  0  0  0  0  0  0  0  0  0  0  0
   -1.9856    0.4773   -0.4585 H   0  0  0  0  0  0  0  0  0  0  0  0
   -1.3888   -1.8815   -0.9738 H   0  0  0  0  0  0  0  0  0  0  0  0
   -2.0949   -1.8834    0.7051 H   0  0  0  0  0  0  0  0  0  0  0  0
   -0.3057   -1.9711    0.4410 H   0  0  0  0  0  0  0  0  0  0  0  0
  1  2  3  0
  2  3  1  0
  3  4  1  0
  4  5  1  0
  5  6  1  0
  6  7  1  0
  7  8  1  0
  6  3  1  0
  7  3  1  0
  1  9  1  0
  4 10  1  0
  4 11  1  0
  6 12  1  0
  7 13  1  0
  8 14  1  0
  8 15  1  0
  8 16  1  0
M  END
