
     RDKit          3D

 17 17  0  0  0  0  0  0  0  0999 V2000
   -0.7875    2.4472   -0.2827 C   0  0  0  0  0  0  0  0  0  0  0  0
   -0.4029    1.3611    0.0707 C   0  0  0  0  0  0  0  0  0  0  0  0
    0.0709    0.0317    0.5303 C   0  0  0  0  0  0  0  0  0  0  0  0
   -0.6698   -0.9740   -0.2770 C   0  0  0  0  0  0  0  0  0  0  0  0
   -2.1588   -0.9625   -0.1678 C   0  0  0  0  0  0  0  0  0  0  0  0
   -0.1536   -1.7806   -0.9987 O   0  0  0  0  0  0  0  0  0  0  0  0
    1.5447   -0.0393    0.3871 C   0  0  0  0  0  0  0  0  0  0  0  0
    2.2824    0.0993   -0.8307 C   0  0  0  0  0  0  0  0  0  0  0  0
    1.9386   -1.2284   -0.4103 O   0  0  0  0  0  0  0  0  0  0  0  0
   -1.1414    3.3988   -0.5850 H   0  0  0  0  0  0  0  0  0  0  0  0
   -0.2109   -0.1476    1.5878 H   0  0  0  0  0  0  0  0  0  0  0  0
   -2.3871   -0.9723    0.9348 H   0  0  0  0  0  0  0  0  0  0  0  0
   -2.6051   -0.0453   -0.5833 H   0  0  0  0  0  0  0  0  0  0  0  0
   -2.6176   -1.8284   -0.6604 H   0  0  0  0  0  0  0  0  0  0  0  0
    2.1293   -0.0595    1.3456 H   0  0  0  0  0  0  0  0  0  0  0  0
    1.8091    0.3461   -1.7956 H   0  0  0  0  0  0  0  0  0  0  0  0
    3.3599    0.3538   -0.7738 H   0  0  0  0  0  0  0  0  0  0  0  0
  1  2  3  0
  2  3  1  0
  3  4  1  0
  4  5  1  0
  4  6  2  0
  3  7  1  0
  7  8  1  0
  8  9  1  0
  9  7  1  0
  1 10  1  0
  3 11  1  0
  5 12  1  0
  5 13  1  0
  5 14  1  0
  7 15  1  0
  8 16  1  0
  8 17  1  0
M  END
