
     RDKit          3D

 17 18  0  0  0  0  0  0  0  0999 V2000
    1.2362    2.4287   -0.4351 C   0  0  0  0  0  0  0  0  0  0  0  0
    0.7488    1.3649   -0.1068 C   0  0  0  0  0  0  0  0  0  0  0  0
    0.1523    0.0936    0.3099 C   0  0  0  0  0  0  0  0  0  0  0  0
   -0.0296   -0.9055   -0.8107 C   0  0  0  0  0  0  0  0  0  0  0  0
    0.5890   -0.7269   -2.0824 C   0  0  0  0  0  0  0  0  0  0  0  0
   -0.7073   -0.2262   -1.9475 O   0  0  0  0  0  0  0  0  0  0  0  0
   -1.0810    0.3359    1.1494 C   0  0  0  0  0  0  0  0  0  0  0  0
   -0.4787   -0.8018    1.9070 C   0  0  0  0  0  0  0  0  0  0  0  0
    0.7844   -0.4775    1.4137 O   0  0  0  0  0  0  0  0  0  0  0  0
    1.6753    3.3525   -0.7122 H   0  0  0  0  0  0  0  0  0  0  0  0
   -0.5976   -1.8192   -0.5410 H   0  0  0  0  0  0  0  0  0  0  0  0
    1.4279    0.0177   -2.1852 H   0  0  0  0  0  0  0  0  0  0  0  0
    0.6670   -1.5754   -2.7816 H   0  0  0  0  0  0  0  0  0  0  0  0
   -2.0203    0.1543    0.6163 H   0  0  0  0  0  0  0  0  0  0  0  0
   -1.0063    1.2987    1.7007 H   0  0  0  0  0  0  0  0  0  0  0  0
   -0.8056   -1.7758    1.4873 H   0  0  0  0  0  0  0  0  0  0  0  0
   -0.5544   -0.7381    3.0183 H   0  0  0  0  0  0  0  0  0  0  0  0
  1  2  3  0
  2  3  1  0
  3  4  1  0
  4  5  1  0
  5  6  1  0
  3  7  1  0
  7  8  1  0
  8  9  1  0
  9  3  1  0
  6  4  1  0
  1 10  1  0
  4 11  1  0
  5 12  1  0
  5 13  1  0
  7 14  1  0
  7 15  1  0
  8 16  1  0
  8 17  1  0
M  END
