
     RDKit          3D

 19 20  0  0  0  0  0  0  0  0999 V2000
    2.9549    1.2127    0.7613 C   0  0  0  0  0  0  0  0  0  0  0  0
    2.1979    0.4582    0.2104 C   0  0  0  0  0  0  0  0  0  0  0  0
    1.2883   -0.4430   -0.4384 C   0  0  0  0  0  0  0  0  0  0  0  0
    0.6372   -1.4236    0.5560 C   0  0  0  0  0  0  0  0  0  0  0  0
   -0.8095   -1.0908    0.1980 C   0  0  0  0  0  0  0  0  0  0  0  0
   -0.7832   -0.8890   -1.2015 O   0  0  0  0  0  0  0  0  0  0  0  0
    0.0240    0.2338   -0.8944 C   0  0  0  0  0  0  0  0  0  0  0  0
   -0.8531    0.3900    0.3168 C   0  0  0  0  0  0  0  0  0  0  0  0
   -2.2062    0.9360   -0.0811 C   0  0  0  0  0  0  0  0  0  0  0  0
    3.6228    1.8814    1.2636 H   0  0  0  0  0  0  0  0  0  0  0  0
    1.7087   -1.0263   -1.2568 H   0  0  0  0  0  0  0  0  0  0  0  0
    0.9020   -2.4551    0.3489 H   0  0  0  0  0  0  0  0  0  0  0  0
    0.8934   -1.0605    1.5565 H   0  0  0  0  0  0  0  0  0  0  0  0
   -1.5790   -1.7036    0.5958 H   0  0  0  0  0  0  0  0  0  0  0  0
    0.0713    1.0143   -1.6194 H   0  0  0  0  0  0  0  0  0  0  0  0
   -0.4022    0.8487    1.1995 H   0  0  0  0  0  0  0  0  0  0  0  0
   -2.1211    1.9724   -0.4460 H   0  0  0  0  0  0  0  0  0  0  0  0
   -2.5812    0.3280   -0.9324 H   0  0  0  0  0  0  0  0  0  0  0  0
   -2.9649    0.8163    0.7272 H   0  0  0  0  0  0  0  0  0  0  0  0
  1  2  3  0
  2  3  1  0
  3  4  1  0
  4  5  1  0
  5  6  1  0
  6  7  1  0
  7  8  1  0
  8  9  1  0
  7  3  1  0
  8  5  1  0
  1 10  1  0
  3 11  1  0
  4 12  1  0
  4 13  1  0
  5 14  1  0
  7 15  1  0
  8 16  1  0
  9 17  1  0
  9 18  1  0
  9 19  1  0
M  END
