
     RDKit          3D

 17 16  0  0  0  0  0  0  0  0999 V2000
   -1.6901    2.4790   -0.6994 C   0  0  0  0  0  0  0  0  0  0  0  0
   -1.0927    1.4518   -0.4906 C   0  0  0  0  0  0  0  0  0  0  0  0
   -0.3414    0.2105   -0.2346 C   0  0  0  0  0  0  0  0  0  0  0  0
   -0.7749   -0.3400    0.9416 O   0  0  0  0  0  0  0  0  0  0  0  0
   -1.3281   -1.5939    0.8183 C   0  0  0  0  0  0  0  0  0  0  0  0
    1.1468    0.4490   -0.2884 C   0  0  0  0  0  0  0  0  0  0  0  0
    1.6067    1.3007    0.6858 O   0  0  0  0  0  0  0  0  0  0  0  0
    1.7913   -0.9056   -0.1451 C   0  0  0  0  0  0  0  0  0  0  0  0
    2.5915   -1.1337    0.7295 O   0  0  0  0  0  0  0  0  0  0  0  0
   -2.2069    3.4009   -0.8767 H   0  0  0  0  0  0  0  0  0  0  0  0
   -0.5587   -0.5423   -1.0489 H   0  0  0  0  0  0  0  0  0  0  0  0
   -0.5483   -2.2662    0.3931 H   0  0  0  0  0  0  0  0  0  0  0  0
   -2.2372   -1.6220    0.1888 H   0  0  0  0  0  0  0  0  0  0  0  0
   -1.5439   -1.9748    1.8434 H   0  0  0  0  0  0  0  0  0  0  0  0
    1.3765    0.8086   -1.3140 H   0  0  0  0  0  0  0  0  0  0  0  0
    2.2707    1.9751    0.3320 H   0  0  0  0  0  0  0  0  0  0  0  0
    1.5387   -1.6970   -0.8349 H   0  0  0  0  0  0  0  0  0  0  0  0
  1  2  3  0
  2  3  1  0
  3  4  1  0
  4  5  1  0
  3  6  1  0
  6  7  1  0
  6  8  1  0
  8  9  2  0
  1 10  1  0
  3 11  1  0
  5 12  1  0
  5 13  1  0
  5 14  1  0
  6 15  1  0
  7 16  1  0
  8 17  1  0
M  END
