
     RDKit          3D

 21 22  0  0  0  0  0  0  0  0999 V2000
    3.7214    1.5666    0.2370 C   0  0  0  0  0  0  0  0  0  0  0  0
    2.6870    0.8214    0.5276 C   0  0  0  0  0  0  0  0  0  0  0  0
    1.6452    0.0658    0.8005 C   0  0  0  0  0  0  0  0  0  0  0  0
    1.1270   -0.9371   -0.2223 C   0  0  0  0  0  0  0  0  0  0  0  0
   -0.2845   -0.5575    0.0583 C   0  0  0  0  0  0  0  0  0  0  0  0
   -1.2383   -0.5081   -1.1138 C   0  0  0  0  0  0  0  0  0  0  0  0
   -2.6330   -0.1286   -0.7739 C   0  0  0  0  0  0  0  0  0  0  0  0
   -0.8105   -0.0701    1.3296 C   0  0  0  0  0  0  0  0  0  0  0  0
    0.2326    0.6940    0.6617 C   0  0  0  0  0  0  0  0  0  0  0  0
    4.5808    2.1991    0.0099 H   0  0  0  0  0  0  0  0  0  0  0  0
    1.6365   -0.5325    1.8100 H   0  0  0  0  0  0  0  0  0  0  0  0
    1.3308   -2.0008    0.0754 H   0  0  0  0  0  0  0  0  0  0  0  0
    1.5200   -0.7177   -1.2203 H   0  0  0  0  0  0  0  0  0  0  0  0
   -1.2326   -1.5064   -1.5930 H   0  0  0  0  0  0  0  0  0  0  0  0
   -0.8853    0.1973   -1.8997 H   0  0  0  0  0  0  0  0  0  0  0  0
   -3.2126   -0.1492   -1.7407 H   0  0  0  0  0  0  0  0  0  0  0  0
   -3.1799   -0.7981   -0.0954 H   0  0  0  0  0  0  0  0  0  0  0  0
   -2.7066    0.9244   -0.4049 H   0  0  0  0  0  0  0  0  0  0  0  0
   -0.6344   -0.6534    2.2366 H   0  0  0  0  0  0  0  0  0  0  0  0
   -1.8065    0.4321    1.3324 H   0  0  0  0  0  0  0  0  0  0  0  0
    0.1429    1.6587    0.1720 H   0  0  0  0  0  0  0  0  0  0  0  0
  1  2  3  0
  2  3  1  0
  3  4  1  0
  4  5  1  0
  5  6  1  0
  6  7  1  0
  5  8  1  0
  8  9  1  0
  9  3  1  0
  9  5  1  0
  1 10  1  0
  3 11  1  0
  4 12  1  0
  4 13  1  0
  6 14  1  0
  6 15  1  0
  7 16  1  0
  7 17  1  0
  7 18  1  0
  8 19  1  0
  8 20  1  0
  9 21  1  0
M  END
