
     RDKit          3D

 21 20  0  0  0  0  0  0  0  0999 V2000
   -1.9345    2.4161    1.0240 C   0  0  0  0  0  0  0  0  0  0  0  0
   -1.3908    1.8607    0.0871 C   0  0  0  0  0  0  0  0  0  0  0  0
   -0.7229    1.1907   -1.0157 C   0  0  0  0  0  0  0  0  0  0  0  0
   -0.2565    1.8288   -1.9873 O   0  0  0  0  0  0  0  0  0  0  0  0
   -0.6023   -0.2688   -0.9712 C   0  0  0  0  0  0  0  0  0  0  0  0
   -1.9887   -0.8647   -0.9197 C   0  0  0  0  0  0  0  0  0  0  0  0
    0.2508   -0.7347    0.1862 C   0  0  0  0  0  0  0  0  0  0  0  0
    1.6429   -0.1602    0.0694 C   0  0  0  0  0  0  0  0  0  0  0  0
    2.5057   -0.6102    1.2093 C   0  0  0  0  0  0  0  0  0  0  0  0
   -2.4211    2.9034    1.8272 H   0  0  0  0  0  0  0  0  0  0  0  0
   -0.1022   -0.6127   -1.8978 H   0  0  0  0  0  0  0  0  0  0  0  0
   -2.6258   -0.3707   -1.6615 H   0  0  0  0  0  0  0  0  0  0  0  0
   -2.4393   -0.7785    0.0900 H   0  0  0  0  0  0  0  0  0  0  0  0
   -1.8991   -1.9479   -1.1783 H   0  0  0  0  0  0  0  0  0  0  0  0
   -0.1661   -0.3585    1.1467 H   0  0  0  0  0  0  0  0  0  0  0  0
    0.3261   -1.8290    0.1880 H   0  0  0  0  0  0  0  0  0  0  0  0
    1.5343    0.9592    0.1485 H   0  0  0  0  0  0  0  0  0  0  0  0
    2.1064   -0.4521   -0.8976 H   0  0  0  0  0  0  0  0  0  0  0  0
    1.8698   -1.1558    1.9416 H   0  0  0  0  0  0  0  0  0  0  0  0
    3.3425   -1.2635    0.8651 H   0  0  0  0  0  0  0  0  0  0  0  0
    2.9709    0.2486    1.7459 H   0  0  0  0  0  0  0  0  0  0  0  0
  1  2  3  0
  2  3  1  0
  3  4  2  0
  3  5  1  0
  5  6  1  0
  5  7  1  0
  7  8  1  0
  8  9  1  0
  1 10  1  0
  5 11  1  0
  6 12  1  0
  6 13  1  0
  6 14  1  0
  7 15  1  0
  7 16  1  0
  8 17  1  0
  8 18  1  0
  9 19  1  0
  9 20  1  0
  9 21  1  0
M  END
