
     RDKit          3D

 17 16  0  0  0  0  0  0  0  0999 V2000
    3.3248   -0.9365    0.4467 C   0  0  0  0  0  0  0  0  0  0  0  0
    2.6356    0.0349    0.5765 C   0  0  0  0  0  0  0  0  0  0  0  0
    1.7826    1.2308    0.7360 C   0  0  0  0  0  0  0  0  0  0  0  0
    2.2730    2.2854   -0.0259 O   0  0  0  0  0  0  0  0  0  0  0  0
    0.4538    0.8540    0.2492 C   0  0  0  0  0  0  0  0  0  0  0  0
   -0.6546    0.5524   -0.1742 C   0  0  0  0  0  0  0  0  0  0  0  0
   -1.9905    0.2089   -0.6647 C   0  0  0  0  0  0  0  0  0  0  0  0
   -2.1710   -1.2986   -0.5620 C   0  0  0  0  0  0  0  0  0  0  0  0
   -2.0319   -1.6578    0.7731 O   0  0  0  0  0  0  0  0  0  0  0  0
    3.9247   -1.8141    0.3299 H   0  0  0  0  0  0  0  0  0  0  0  0
    1.7590    1.5347    1.8036 H   0  0  0  0  0  0  0  0  0  0  0  0
    2.5668    1.9137   -0.9158 H   0  0  0  0  0  0  0  0  0  0  0  0
   -2.7959    0.6983   -0.0714 H   0  0  0  0  0  0  0  0  0  0  0  0
   -2.0584    0.5607   -1.7070 H   0  0  0  0  0  0  0  0  0  0  0  0
   -3.2254   -1.4958   -0.8828 H   0  0  0  0  0  0  0  0  0  0  0  0
   -1.4287   -1.7895   -1.2189 H   0  0  0  0  0  0  0  0  0  0  0  0
   -2.3640   -0.8815    1.3077 H   0  0  0  0  0  0  0  0  0  0  0  0
  1  2  3  0
  2  3  1  0
  3  4  1  0
  3  5  1  0
  5  6  3  0
  6  7  1  0
  7  8  1  0
  8  9  1  0
  1 10  1  0
  3 11  1  0
  4 12  1  0
  7 13  1  0
  7 14  1  0
  8 15  1  0
  8 16  1  0
  9 17  1  0
M  END
