
     RDKit          3D

 19 20  0  0  0  0  0  0  0  0999 V2000
    3.3595    0.0175    0.7415 C   0  0  0  0  0  0  0  0  0  0  0  0
    2.4383   -0.2792    0.0226 C   0  0  0  0  0  0  0  0  0  0  0  0
    1.3167   -0.6331   -0.8428 C   0  0  0  0  0  0  0  0  0  0  0  0
    0.0355    0.0053   -0.4052 C   0  0  0  0  0  0  0  0  0  0  0  0
    0.0312    1.3763   -0.3797 O   0  0  0  0  0  0  0  0  0  0  0  0
   -0.3732    1.4989    0.9640 C   0  0  0  0  0  0  0  0  0  0  0  0
   -0.1885    0.0052    1.0844 C   0  0  0  0  0  0  0  0  0  0  0  0
   -1.0483   -0.8111    0.1910 C   0  0  0  0  0  0  0  0  0  0  0  0
   -2.4780   -0.3446    0.0885 C   0  0  0  0  0  0  0  0  0  0  0  0
    4.1686    0.2897    1.3942 H   0  0  0  0  0  0  0  0  0  0  0  0
    1.2140   -1.7394   -0.8371 H   0  0  0  0  0  0  0  0  0  0  0  0
    1.6099   -0.3200   -1.8816 H   0  0  0  0  0  0  0  0  0  0  0  0
   -1.4542    1.8241    0.9580 H   0  0  0  0  0  0  0  0  0  0  0  0
    0.2910    2.1176    1.5873 H   0  0  0  0  0  0  0  0  0  0  0  0
    0.5454   -0.4222    1.7651 H   0  0  0  0  0  0  0  0  0  0  0  0
   -0.8891   -1.8986    0.1765 H   0  0  0  0  0  0  0  0  0  0  0  0
   -2.7533    0.1165    1.0680 H   0  0  0  0  0  0  0  0  0  0  0  0
   -3.1857   -1.1915   -0.0557 H   0  0  0  0  0  0  0  0  0  0  0  0
   -2.6397    0.3886   -0.7142 H   0  0  0  0  0  0  0  0  0  0  0  0
  1  2  3  0
  2  3  1  0
  3  4  1  0
  4  5  1  0
  5  6  1  0
  6  7  1  0
  7  8  1  0
  8  9  1  0
  7  4  1  0
  8  4  1  0
  1 10  1  0
  3 11  1  0
  3 12  1  0
  6 13  1  0
  6 14  1  0
  7 15  1  0
  8 16  1  0
  9 17  1  0
  9 18  1  0
  9 19  1  0
M  END
