
     RDKit          3D

 19 20  0  0  0  0  0  0  0  0999 V2000
    2.2438    1.7809   -1.3374 C   0  0  0  0  0  0  0  0  0  0  0  0
    1.5631    1.0726   -0.6374 C   0  0  0  0  0  0  0  0  0  0  0  0
    0.7291    0.2289    0.2318 C   0  0  0  0  0  0  0  0  0  0  0  0
    1.4096   -1.0856    0.5843 C   0  0  0  0  0  0  0  0  0  0  0  0
    0.4096    0.8784    1.4345 O   0  0  0  0  0  0  0  0  0  0  0  0
   -0.8798    0.3316    1.2761 C   0  0  0  0  0  0  0  0  0  0  0  0
   -1.7371    1.0705    0.3426 C   0  0  0  0  0  0  0  0  0  0  0  0
   -0.7012    0.1295   -0.1669 C   0  0  0  0  0  0  0  0  0  0  0  0
   -1.2158   -1.0721   -0.8961 C   0  0  0  0  0  0  0  0  0  0  0  0
    2.8509    2.3974   -1.9729 H   0  0  0  0  0  0  0  0  0  0  0  0
    2.3416   -0.7927    1.1432 H   0  0  0  0  0  0  0  0  0  0  0  0
    1.7346   -1.6462   -0.3034 H   0  0  0  0  0  0  0  0  0  0  0  0
    0.7756   -1.6505    1.2695 H   0  0  0  0  0  0  0  0  0  0  0  0
   -1.2180   -0.4576    1.9463 H   0  0  0  0  0  0  0  0  0  0  0  0
   -2.7864    0.7710    0.2782 H   0  0  0  0  0  0  0  0  0  0  0  0
   -1.5835    2.1643    0.2264 H   0  0  0  0  0  0  0  0  0  0  0  0
   -0.5075   -1.2734   -1.7481 H   0  0  0  0  0  0  0  0  0  0  0  0
   -2.1927   -0.8516   -1.3738 H   0  0  0  0  0  0  0  0  0  0  0  0
   -1.2358   -1.9955   -0.2968 H   0  0  0  0  0  0  0  0  0  0  0  0
  1  2  3  0
  2  3  1  0
  3  4  1  0
  3  5  1  0
  5  6  1  0
  6  7  1  0
  7  8  1  0
  8  9  1  0
  8  3  1  0
  8  6  1  0
  1 10  1  0
  4 11  1  0
  4 12  1  0
  4 13  1  0
  6 14  1  0
  7 15  1  0
  7 16  1  0
  9 17  1  0
  9 18  1  0
  9 19  1  0
M  END
