
     RDKit          3D

 19 20  0  0  0  0  0  0  0  0999 V2000
    2.6901   -0.6936   -1.4384 C   0  0  0  0  0  0  0  0  0  0  0  0
    1.6413   -0.6041   -0.7750 C   0  0  0  0  0  0  0  0  0  0  0  0
    0.4279   -0.5030    0.0034 C   0  0  0  0  0  0  0  0  0  0  0  0
   -0.2503   -1.6623    0.5810 C   0  0  0  0  0  0  0  0  0  0  0  0
   -0.7910   -1.1114   -0.6749 C   0  0  0  0  0  0  0  0  0  0  0  0
   -1.3398    0.2990   -0.7275 C   0  0  0  0  0  0  0  0  0  0  0  0
   -0.2377    0.8406    0.1528 C   0  0  0  0  0  0  0  0  0  0  0  0
   -0.6979    1.2358    1.5144 C   0  0  0  0  0  0  0  0  0  0  0  0
    0.5574    1.8284   -0.4325 O   0  0  0  0  0  0  0  0  0  0  0  0
    3.5770   -0.7638   -1.9787 H   0  0  0  0  0  0  0  0  0  0  0  0
    0.3117   -2.6125    0.5233 H   0  0  0  0  0  0  0  0  0  0  0  0
   -0.8140   -1.5591    1.5378 H   0  0  0  0  0  0  0  0  0  0  0  0
   -0.6820   -1.6723   -1.5974 H   0  0  0  0  0  0  0  0  0  0  0  0
   -2.3651    0.4463   -0.3701 H   0  0  0  0  0  0  0  0  0  0  0  0
   -1.1784    0.6869   -1.7759 H   0  0  0  0  0  0  0  0  0  0  0  0
    0.1943    1.2569    2.2109 H   0  0  0  0  0  0  0  0  0  0  0  0
   -1.0598    2.2932    1.5420 H   0  0  0  0  0  0  0  0  0  0  0  0
   -1.5159    0.6148    1.9015 H   0  0  0  0  0  0  0  0  0  0  0  0
    1.5324    1.6801   -0.1966 H   0  0  0  0  0  0  0  0  0  0  0  0
  1  2  3  0
  2  3  1  0
  3  4  1  0
  4  5  1  0
  5  6  1  0
  6  7  1  0
  7  8  1  0
  7  9  1  0
  5  3  1  0
  7  3  1  0
  1 10  1  0
  4 11  1  0
  4 12  1  0
  5 13  1  0
  6 14  1  0
  6 15  1  0
  8 16  1  0
  8 17  1  0
  8 18  1  0
  9 19  1  0
M  END
