
     RDKit          3D

 19 19  0  0  0  0  0  0  0  0999 V2000
    2.2544   -2.3966    0.4030 C   0  0  0  0  0  0  0  0  0  0  0  0
    1.8105   -1.4163   -0.1353 C   0  0  0  0  0  0  0  0  0  0  0  0
    1.2831   -0.2049   -0.8151 C   0  0  0  0  0  0  0  0  0  0  0  0
    2.2945    0.7805   -0.7587 O   0  0  0  0  0  0  0  0  0  0  0  0
    0.1078    0.3193   -0.0255 C   0  0  0  0  0  0  0  0  0  0  0  0
    0.3776    0.5782    1.3157 O   0  0  0  0  0  0  0  0  0  0  0  0
   -0.6895    1.3718   -0.7722 C   0  0  0  0  0  0  0  0  0  0  0  0
   -1.2861    0.0507   -0.3818 C   0  0  0  0  0  0  0  0  0  0  0  0
   -2.3507    0.1172    0.6665 C   0  0  0  0  0  0  0  0  0  0  0  0
    2.6553   -3.2799    0.8671 H   0  0  0  0  0  0  0  0  0  0  0  0
    1.0808   -0.4423   -1.8493 H   0  0  0  0  0  0  0  0  0  0  0  0
    2.2152    1.1838    0.1441 H   0  0  0  0  0  0  0  0  0  0  0  0
    1.0632   -0.0605    1.6391 H   0  0  0  0  0  0  0  0  0  0  0  0
   -0.5169    1.5030   -1.8448 H   0  0  0  0  0  0  0  0  0  0  0  0
   -0.9834    2.2874   -0.2301 H   0  0  0  0  0  0  0  0  0  0  0  0
   -1.4480   -0.7158   -1.1694 H   0  0  0  0  0  0  0  0  0  0  0  0
   -3.3578   -0.1441    0.2860 H   0  0  0  0  0  0  0  0  0  0  0  0
   -2.1447   -0.6327    1.4856 H   0  0  0  0  0  0  0  0  0  0  0  0
   -2.3651    1.1013    1.1751 H   0  0  0  0  0  0  0  0  0  0  0  0
  1  2  3  0
  2  3  1  0
  3  4  1  0
  3  5  1  0
  5  6  1  0
  5  7  1  0
  7  8  1  0
  8  9  1  0
  8  5  1  0
  1 10  1  0
  3 11  1  0
  4 12  1  0
  6 13  1  0
  7 14  1  0
  7 15  1  0
  8 16  1  0
  9 17  1  0
  9 18  1  0
  9 19  1  0
M  END
