
     RDKit          3D

 17 16  0  0  0  0  0  0  0  0999 V2000
    4.7652   -0.3900   -0.7284 C   0  0  0  0  0  0  0  0  0  0  0  0
    3.7892   -0.3402   -0.6552 C   0  0  0  0  0  0  0  0  0  0  0  0
    2.1577   -0.2354   -0.5281 C   0  0  0  0  0  0  0  0  0  0  0  0
    1.0070   -0.1706   -0.4442 C   0  0  0  0  0  0  0  0  0  0  0  0
   -0.4253   -0.0929   -0.3482 C   0  0  0  0  0  0  0  0  0  0  0  0
   -1.3162   -1.0318   -0.9457 C   0  0  0  0  0  0  0  0  0  0  0  0
   -0.7808    0.0332    1.1357 C   0  0  0  0  0  0  0  0  0  0  0  0
   -1.8555    1.3106    1.0797 C   0  0  0  0  0  0  0  0  0  0  0  0
   -2.3986    1.9412    1.0470 C   0  0  0  0  0  0  0  0  0  0  0  0
    5.9132   -0.4422   -0.8011 H   0  0  0  0  0  0  0  0  0  0  0  0
   -0.7092    0.9423   -0.8183 H   0  0  0  0  0  0  0  0  0  0  0  0
   -1.6157   -0.9743   -2.0149 H   0  0  0  0  0  0  0  0  0  0  0  0
   -1.2090   -2.1038   -0.5089 H   0  0  0  0  0  0  0  0  0  0  0  0
   -2.3635   -0.7705   -0.2831 H   0  0  0  0  0  0  0  0  0  0  0  0
   -0.1348    0.1469    1.8815 H   0  0  0  0  0  0  0  0  0  0  0  0
   -1.5294   -0.7997    1.3194 H   0  0  0  0  0  0  0  0  0  0  0  0
   -3.2941    2.9771    1.0167 H   0  0  0  0  0  0  0  0  0  0  0  0
  1  2  3  0
  2  3  1  0
  3  4  3  0
  4  5  1  0
  5  6  1  0
  5  7  1  0
  7  8  1  0
  8  9  3  0
  1 10  1  0
  5 11  1  0
  6 12  1  0
  6 13  1  0
  6 14  1  0
  7 15  1  0
  7 16  1  0
  9 17  1  0
M  END
