
     RDKit          3D

 17 18  0  0  0  0  0  0  0  0999 V2000
    2.6183    0.1162    0.6535 C   0  0  0  0  0  0  0  0  0  0  0  0
    1.3802   -0.2739    0.8050 C   0  0  0  0  0  0  0  0  0  0  0  0
    0.0412   -0.6899    0.9935 C   0  0  0  0  0  0  0  0  0  0  0  0
   -0.8237   -1.3549   -0.0167 C   0  0  0  0  0  0  0  0  0  0  0  0
   -0.9805    0.0960    0.1850 C   0  0  0  0  0  0  0  0  0  0  0  0
   -0.5371    0.9643   -0.8191 O   0  0  0  0  0  0  0  0  0  0  0  0
    0.0805    0.4057   -1.8820 C   0  0  0  0  0  0  0  0  0  0  0  0
   -1.0839    0.7466    1.5064 C   0  0  0  0  0  0  0  0  0  0  0  0
   -0.6437   -0.3705    2.1836 O   0  0  0  0  0  0  0  0  0  0  0  0
    3.4685    0.3929    0.5603 H   0  0  0  0  0  0  0  0  0  0  0  0
   -1.6549   -2.0017    0.2662 H   0  0  0  0  0  0  0  0  0  0  0  0
   -0.2771   -1.7108   -0.9391 H   0  0  0  0  0  0  0  0  0  0  0  0
    0.9744   -0.2000   -1.7125 H   0  0  0  0  0  0  0  0  0  0  0  0
   -0.6567   -0.0682   -2.6185 H   0  0  0  0  0  0  0  0  0  0  0  0
    0.4669    1.2783   -2.5082 H   0  0  0  0  0  0  0  0  0  0  0  0
   -0.2907    1.5448    1.6447 H   0  0  0  0  0  0  0  0  0  0  0  0
   -2.0818    1.1248    1.6977 H   0  0  0  0  0  0  0  0  0  0  0  0
  1  2  3  0
  2  3  1  0
  3  4  1  0
  4  5  1  0
  5  6  1  0
  6  7  1  0
  5  8  1  0
  8  9  1  0
  5  3  1  0
  9  3  1  0
  1 10  1  0
  4 11  1  0
  4 12  1  0
  7 13  1  0
  7 14  1  0
  7 15  1  0
  8 16  1  0
  8 17  1  0
M  END
