
     RDKit          3D

 21 20  0  0  0  0  0  0  0  0999 V2000
   -3.3620   -1.8145   -1.2519 C   0  0  0  0  0  0  0  0  0  0  0  0
   -2.2727   -1.1490   -1.1324 C   0  0  0  0  0  0  0  0  0  0  0  0
   -1.0547   -0.3991   -1.0230 C   0  0  0  0  0  0  0  0  0  0  0  0
   -0.5699   -0.4394    0.4844 C   0  0  0  0  0  0  0  0  0  0  0  0
   -0.4551   -1.9354    0.7458 C   0  0  0  0  0  0  0  0  0  0  0  0
    0.5110    0.2499    0.5210 O   0  0  0  0  0  0  0  0  0  0  0  0
    1.5134    0.9179    0.5699 C   0  0  0  0  0  0  0  0  0  0  0  0
    1.4972    2.3189   -0.1298 C   0  0  0  0  0  0  0  0  0  0  0  0
    2.7981    2.8143    0.0740 O   0  0  0  0  0  0  0  0  0  0  0  0
   -4.2405   -2.3627   -1.3335 H   0  0  0  0  0  0  0  0  0  0  0  0
   -0.2650   -1.0013   -1.5795 H   0  0  0  0  0  0  0  0  0  0  0  0
   -1.0963    0.6313   -1.3528 H   0  0  0  0  0  0  0  0  0  0  0  0
   -1.4804   -0.0575    1.0070 H   0  0  0  0  0  0  0  0  0  0  0  0
   -0.3209   -2.0771    1.8214 H   0  0  0  0  0  0  0  0  0  0  0  0
   -1.4639   -2.3681    0.4700 H   0  0  0  0  0  0  0  0  0  0  0  0
    0.2875   -2.4526    0.1448 H   0  0  0  0  0  0  0  0  0  0  0  0
    1.9532    1.2591    1.5876 H   0  0  0  0  0  0  0  0  0  0  0  0
    2.4413    0.4475    0.0878 H   0  0  0  0  0  0  0  0  0  0  0  0
    1.2342    2.2527   -1.1655 H   0  0  0  0  0  0  0  0  0  0  0  0
    0.8824    2.9905    0.5160 H   0  0  0  0  0  0  0  0  0  0  0  0
    3.4630    2.1746   -0.3623 H   0  0  0  0  0  0  0  0  0  0  0  0
  1  2  3  0
  2  3  1  0
  3  4  1  0
  4  5  1  0
  4  6  1  0
  6  7  1  0
  7  8  1  0
  8  9  1  0
  1 10  1  0
  3 11  1  0
  3 12  1  0
  4 13  1  0
  5 14  1  0
  5 15  1  0
  5 16  1  0
  7 17  1  0
  7 18  1  0
  8 19  1  0
  8 20  1  0
  9 21  1  0
M  END
