
     RDKit          3D

 15 15  0  0  0  0  0  0  0  0999 V2000
    0.1886    3.0767   -1.3192 C   0  0  0  0  0  0  0  0  0  0  0  0
   -0.0406    1.6921   -0.9820 C   0  0  0  0  0  0  0  0  0  0  0  0
   -0.2286    0.4325   -0.6645 C   0  0  0  0  0  0  0  0  0  0  0  0
    0.3043   -0.1755    0.4798 C   0  0  0  0  0  0  0  0  0  0  0  0
    0.8342   -0.8166    1.6699 C   0  0  0  0  0  0  0  0  0  0  0  0
    1.3179   -1.3940    2.7112 C   0  0  0  0  0  0  0  0  0  0  0  0
    0.3797   -1.9538    3.5441 O   0  0  0  0  0  0  0  0  0  0  0  0
   -1.4739   -0.3402   -1.2252 C   0  0  0  0  0  0  0  0  0  0  0  0
   -0.1782   -0.5720   -1.8956 C   0  0  0  0  0  0  0  0  0  0  0  0
    0.3450    4.0412   -1.5666 H   0  0  0  0  0  0  0  0  0  0  0  0
    2.3008   -1.5440    3.0654 H   0  0  0  0  0  0  0  0  0  0  0  0
   -1.8134   -1.1753   -0.5107 H   0  0  0  0  0  0  0  0  0  0  0  0
   -2.2628    0.3515   -1.4954 H   0  0  0  0  0  0  0  0  0  0  0  0
    0.3242   -1.5112   -1.6115 H   0  0  0  0  0  0  0  0  0  0  0  0
    0.0027   -0.1114   -2.8468 H   0  0  0  0  0  0  0  0  0  0  0  0
  1  2  3  0
  2  3  1  0
  3  4  1  0
  4  5  3  0
  5  6  1  0
  6  7  2  0
  3  8  1  0
  8  9  1  0
  9  3  1  0
  1 10  1  0
  6 11  1  0
  8 12  1  0
  8 13  1  0
  9 14  1  0
  9 15  1  0
M  END
