
     RDKit          3D

 21 20  0  0  0  0  0  0  0  0999 V2000
    2.2830    0.8763   -1.6260 C   0  0  0  0  0  0  0  0  0  0  0  0
    1.5574    0.9508   -0.6661 C   0  0  0  0  0  0  0  0  0  0  0  0
    0.6556    1.0201    0.5045 C   0  0  0  0  0  0  0  0  0  0  0  0
    1.4107    0.6141    1.7731 C   0  0  0  0  0  0  0  0  0  0  0  0
   -0.4562    0.0168    0.3323 C   0  0  0  0  0  0  0  0  0  0  0  0
    0.1559   -1.3761    0.2260 C   0  0  0  0  0  0  0  0  0  0  0  0
   -1.3444    0.3307   -0.7818 C   0  0  0  0  0  0  0  0  0  0  0  0
   -2.4909   -0.5625   -1.0825 C   0  0  0  0  0  0  0  0  0  0  0  0
   -1.1908    1.3055   -1.4906 O   0  0  0  0  0  0  0  0  0  0  0  0
    2.9210    0.7990   -2.4860 H   0  0  0  0  0  0  0  0  0  0  0  0
    0.2930    2.0396    0.6065 H   0  0  0  0  0  0  0  0  0  0  0  0
    2.1984   -0.1014    1.4190 H   0  0  0  0  0  0  0  0  0  0  0  0
    0.7615    0.0547    2.4681 H   0  0  0  0  0  0  0  0  0  0  0  0
    1.8772    1.5078    2.2353 H   0  0  0  0  0  0  0  0  0  0  0  0
   -1.0477    0.0080    1.2743 H   0  0  0  0  0  0  0  0  0  0  0  0
    0.5104   -1.6200    1.2486 H   0  0  0  0  0  0  0  0  0  0  0  0
    0.9631   -1.4108   -0.5191 H   0  0  0  0  0  0  0  0  0  0  0  0
   -0.6870   -2.0646    0.0015 H   0  0  0  0  0  0  0  0  0  0  0  0
   -2.9988   -0.7901   -0.1193 H   0  0  0  0  0  0  0  0  0  0  0  0
   -3.2281   -0.0843   -1.7635 H   0  0  0  0  0  0  0  0  0  0  0  0
   -2.1431   -1.5138   -1.5542 H   0  0  0  0  0  0  0  0  0  0  0  0
  1  2  3  0
  2  3  1  0
  3  4  1  0
  3  5  1  0
  5  6  1  0
  5  7  1  0
  7  8  1  0
  7  9  2  0
  1 10  1  0
  3 11  1  0
  4 12  1  0
  4 13  1  0
  4 14  1  0
  5 15  1  0
  6 16  1  0
  6 17  1  0
  6 18  1  0
  8 19  1  0
  8 20  1  0
  8 21  1  0
M  END
