
     RDKit          3D

 19 19  0  0  0  0  0  0  0  0999 V2000
    2.1103    2.4988   -0.3613 C   0  0  0  0  0  0  0  0  0  0  0  0
    1.3546    1.7304   -0.2124 C   0  0  0  0  0  0  0  0  0  0  0  0
    0.2973    0.6220    0.0122 C   0  0  0  0  0  0  0  0  0  0  0  0
   -0.8949    1.1410    0.1541 C   0  0  0  0  0  0  0  0  0  0  0  0
   -2.0983    0.2524    0.4238 C   0  0  0  0  0  0  0  0  0  0  0  0
   -1.5363   -1.0636    0.8472 C   0  0  0  0  0  0  0  0  0  0  0  0
   -0.5753   -1.4977   -0.0429 O   0  0  0  0  0  0  0  0  0  0  0  0
    0.6466   -0.7647    0.0950 C   0  0  0  0  0  0  0  0  0  0  0  0
    1.5328   -1.2609   -1.0526 C   0  0  0  0  0  0  0  0  0  0  0  0
    2.8397    3.2394   -0.4870 H   0  0  0  0  0  0  0  0  0  0  0  0
   -1.1426    2.2063    0.0695 H   0  0  0  0  0  0  0  0  0  0  0  0
   -2.6783    0.7606    1.2807 H   0  0  0  0  0  0  0  0  0  0  0  0
   -2.6658    0.2210   -0.4980 H   0  0  0  0  0  0  0  0  0  0  0  0
   -1.0782   -1.0218    1.8573 H   0  0  0  0  0  0  0  0  0  0  0  0
   -2.3762   -1.8002    0.8780 H   0  0  0  0  0  0  0  0  0  0  0  0
    1.0920   -1.1309    1.0608 H   0  0  0  0  0  0  0  0  0  0  0  0
    0.8760   -1.6139   -1.9095 H   0  0  0  0  0  0  0  0  0  0  0  0
    2.1173   -0.4184   -1.3971 H   0  0  0  0  0  0  0  0  0  0  0  0
    2.1794   -2.0998   -0.7180 H   0  0  0  0  0  0  0  0  0  0  0  0
  1  2  3  0
  2  3  1  0
  3  4  2  0
  4  5  1  0
  5  6  1  0
  6  7  1  0
  7  8  1  0
  8  9  1  0
  8  3  1  0
  1 10  1  0
  4 11  1  0
  5 12  1  0
  5 13  1  0
  6 14  1  0
  6 15  1  0
  8 16  1  0
  9 17  1  0
  9 18  1  0
  9 19  1  0
M  END
