
     RDKit          3D

 19 20  0  0  0  0  0  0  0  0999 V2000
   -1.5221    3.0734   -0.3455 C   0  0  0  0  0  0  0  0  0  0  0  0
   -0.9636    2.0135   -0.1274 C   0  0  0  0  0  0  0  0  0  0  0  0
   -0.3038    0.7079    0.1464 C   0  0  0  0  0  0  0  0  0  0  0  0
   -0.3330   -0.2164   -1.0109 C   0  0  0  0  0  0  0  0  0  0  0  0
    0.3199   -1.5306   -0.8185 C   0  0  0  0  0  0  0  0  0  0  0  0
    1.7115   -1.6971   -0.5076 C   0  0  0  0  0  0  0  0  0  0  0  0
    1.2490   -1.8070   -1.9372 O   0  0  0  0  0  0  0  0  0  0  0  0
    0.4942    0.6001    1.3541 C   0  0  0  0  0  0  0  0  0  0  0  0
   -0.8815    0.0512    1.4240 C   0  0  0  0  0  0  0  0  0  0  0  0
   -2.0242    4.0010   -0.5230 H   0  0  0  0  0  0  0  0  0  0  0  0
    0.0891    0.2770   -1.9356 H   0  0  0  0  0  0  0  0  0  0  0  0
   -1.4222   -0.4296   -1.2652 H   0  0  0  0  0  0  0  0  0  0  0  0
   -0.3485   -2.4129   -0.6112 H   0  0  0  0  0  0  0  0  0  0  0  0
    2.4593   -0.9094   -0.4350 H   0  0  0  0  0  0  0  0  0  0  0  0
    2.0852   -2.7056   -0.2582 H   0  0  0  0  0  0  0  0  0  0  0  0
    0.6748    1.5342    1.9388 H   0  0  0  0  0  0  0  0  0  0  0  0
    1.3444   -0.0958    1.4609 H   0  0  0  0  0  0  0  0  0  0  0  0
   -1.6682    0.5811    1.9782 H   0  0  0  0  0  0  0  0  0  0  0  0
   -0.9601   -1.0349    1.4730 H   0  0  0  0  0  0  0  0  0  0  0  0
  1  2  3  0
  2  3  1  0
  3  4  1  0
  4  5  1  0
  5  6  1  0
  6  7  1  0
  3  8  1  0
  8  9  1  0
  9  3  1  0
  7  5  1  0
  1 10  1  0
  4 11  1  0
  4 12  1  0
  5 13  1  0
  6 14  1  0
  6 15  1  0
  8 16  1  0
  8 17  1  0
  9 18  1  0
  9 19  1  0
M  END
