
     RDKit          3D

 17 17  0  0  0  0  0  0  0  0999 V2000
    1.7629    1.5852   -2.0784 C   0  0  0  0  0  0  0  0  0  0  0  0
    0.9006    0.8008   -1.8724 C   0  0  0  0  0  0  0  0  0  0  0  0
   -0.1512   -0.1644   -1.6353 C   0  0  0  0  0  0  0  0  0  0  0  0
   -1.4068    0.3345   -1.0171 C   0  0  0  0  0  0  0  0  0  0  0  0
   -0.4868   -0.6577   -0.2808 C   0  0  0  0  0  0  0  0  0  0  0  0
    0.1210   -0.1006    0.9281 C   0  0  0  0  0  0  0  0  0  0  0  0
    0.6084    1.0300    0.9896 O   0  0  0  0  0  0  0  0  0  0  0  0
    0.1670   -0.9239    2.1686 C   0  0  0  0  0  0  0  0  0  0  0  0
    0.7617   -0.2547    3.2202 O   0  0  0  0  0  0  0  0  0  0  0  0
    2.5415    2.2852   -2.2460 H   0  0  0  0  0  0  0  0  0  0  0  0
   -0.2369   -0.9377   -2.4542 H   0  0  0  0  0  0  0  0  0  0  0  0
   -1.4470    1.3709   -0.6715 H   0  0  0  0  0  0  0  0  0  0  0  0
   -2.3907   -0.0594   -1.3421 H   0  0  0  0  0  0  0  0  0  0  0  0
   -0.8910   -1.6810   -0.1966 H   0  0  0  0  0  0  0  0  0  0  0  0
   -0.8543   -1.2556    2.3862 H   0  0  0  0  0  0  0  0  0  0  0  0
    0.7795   -1.8553    2.0067 H   0  0  0  0  0  0  0  0  0  0  0  0
    0.2221    0.4838    3.5821 H   0  0  0  0  0  0  0  0  0  0  0  0
  1  2  3  0
  2  3  1  0
  3  4  1  0
  4  5  1  0
  5  6  1  0
  6  7  2  0
  6  8  1  0
  8  9  1  0
  5  3  1  0
  1 10  1  0
  3 11  1  0
  4 12  1  0
  4 13  1  0
  5 14  1  0
  8 15  1  0
  8 16  1  0
  9 17  1  0
M  END
