
     RDKit          3D

 21 21  0  0  0  0  0  0  0  0999 V2000
    2.3570   -0.3307    2.1798 C   0  0  0  0  0  0  0  0  0  0  0  0
    1.9168   -1.1128    1.1589 C   0  0  0  0  0  0  0  0  0  0  0  0
    1.4819   -1.9132    0.1459 C   0  0  0  0  0  0  0  0  0  0  0  0
   -0.0632   -1.6421    0.0542 C   0  0  0  0  0  0  0  0  0  0  0  0
   -0.3070   -0.2559   -0.3355 C   0  0  0  0  0  0  0  0  0  0  0  0
    0.4828    0.7570   -0.5916 C   0  0  0  0  0  0  0  0  0  0  0  0
   -0.3710    1.9445   -0.9208 C   0  0  0  0  0  0  0  0  0  0  0  0
   -1.6100    1.6456   -0.1454 C   0  0  0  0  0  0  0  0  0  0  0  0
   -1.7735    0.1869   -0.5323 C   0  0  0  0  0  0  0  0  0  0  0  0
    2.6977    0.3027    2.9798 H   0  0  0  0  0  0  0  0  0  0  0  0
    1.5047   -3.0022    0.3117 H   0  0  0  0  0  0  0  0  0  0  0  0
    1.8739   -1.6527   -0.8590 H   0  0  0  0  0  0  0  0  0  0  0  0
   -0.3879   -1.8048    1.1525 H   0  0  0  0  0  0  0  0  0  0  0  0
   -0.5061   -2.4419   -0.4714 H   0  0  0  0  0  0  0  0  0  0  0  0
    1.5584    0.7632   -0.5948 H   0  0  0  0  0  0  0  0  0  0  0  0
    0.0941    2.9147   -0.5796 H   0  0  0  0  0  0  0  0  0  0  0  0
   -0.5958    1.9352   -2.0065 H   0  0  0  0  0  0  0  0  0  0  0  0
   -1.4059    1.6532    0.9388 H   0  0  0  0  0  0  0  0  0  0  0  0
   -2.4898    2.2762   -0.4124 H   0  0  0  0  0  0  0  0  0  0  0  0
   -1.9830    0.0989   -1.5954 H   0  0  0  0  0  0  0  0  0  0  0  0
   -2.4742   -0.3218    0.1231 H   0  0  0  0  0  0  0  0  0  0  0  0
  1  2  3  0
  2  3  1  0
  3  4  1  0
  4  5  1  0
  5  6  2  0
  6  7  1  0
  7  8  1  0
  8  9  1  0
  9  5  1  0
  1 10  1  0
  3 11  1  0
  3 12  1  0
  4 13  1  0
  4 14  1  0
  6 15  1  0
  7 16  1  0
  7 17  1  0
  8 18  1  0
  8 19  1  0
  9 20  1  0
  9 21  1  0
M  END
