
     RDKit          3D

 21 21  0  0  0  0  0  0  0  0999 V2000
    2.7130    1.1374    1.3687 C   0  0  0  0  0  0  0  0  0  0  0  0
    1.5572    0.7691    1.4736 C   0  0  0  0  0  0  0  0  0  0  0  0
    0.1648    0.3281    1.6254 C   0  0  0  0  0  0  0  0  0  0  0  0
   -0.5518    0.3442    0.3233 C   0  0  0  0  0  0  0  0  0  0  0  0
   -0.5592    1.7251   -0.2448 C   0  0  0  0  0  0  0  0  0  0  0  0
   -0.1230   -0.7092   -0.6591 C   0  0  0  0  0  0  0  0  0  0  0  0
   -0.8152   -0.7336   -2.0110 C   0  0  0  0  0  0  0  0  0  0  0  0
    0.0108   -2.1261   -0.0885 C   0  0  0  0  0  0  0  0  0  0  0  0
    1.0774   -1.3478   -0.4609 O   0  0  0  0  0  0  0  0  0  0  0  0
    3.7238    1.4783    1.2819 H   0  0  0  0  0  0  0  0  0  0  0  0
    0.1317   -0.6721    2.0888 H   0  0  0  0  0  0  0  0  0  0  0  0
   -0.3974    1.0317    2.3112 H   0  0  0  0  0  0  0  0  0  0  0  0
   -1.6392    0.1058    0.5361 H   0  0  0  0  0  0  0  0  0  0  0  0
   -0.7718    2.4376    0.5822 H   0  0  0  0  0  0  0  0  0  0  0  0
   -1.3912    1.8632   -0.9670 H   0  0  0  0  0  0  0  0  0  0  0  0
    0.4208    2.0446   -0.6737 H   0  0  0  0  0  0  0  0  0  0  0  0
   -0.2119   -1.3463   -2.7199 H   0  0  0  0  0  0  0  0  0  0  0  0
   -1.0253    0.2787   -2.3739 H   0  0  0  0  0  0  0  0  0  0  0  0
   -1.7596   -1.3334   -1.8558 H   0  0  0  0  0  0  0  0  0  0  0  0
   -0.2782   -2.9919   -0.7352 H   0  0  0  0  0  0  0  0  0  0  0  0
   -0.2758   -2.2833    0.9626 H   0  0  0  0  0  0  0  0  0  0  0  0
  1  2  3  0
  2  3  1  0
  3  4  1  0
  4  5  1  0
  4  6  1  0
  6  7  1  0
  6  8  1  0
  8  9  1  0
  9  6  1  0
  1 10  1  0
  3 11  1  0
  3 12  1  0
  4 13  1  0
  5 14  1  0
  5 15  1  0
  5 16  1  0
  7 17  1  0
  7 18  1  0
  7 19  1  0
  8 20  1  0
  8 21  1  0
M  END
