
     RDKit          3D

 19 20  0  0  0  0  0  0  0  0999 V2000
    2.2604   -0.9255    1.9988 C   0  0  0  0  0  0  0  0  0  0  0  0
    1.0943   -1.0222    1.0688 C   0  0  0  0  0  0  0  0  0  0  0  0
    0.2243   -1.0858    0.3957 C   0  0  0  0  0  0  0  0  0  0  0  0
   -1.0985   -0.4157    0.9857 C   0  0  0  0  0  0  0  0  0  0  0  0
   -1.2909    0.9200    0.9735 C   0  0  0  0  0  0  0  0  0  0  0  0
   -0.5620    1.6183   -0.0668 C   0  0  0  0  0  0  0  0  0  0  0  0
    0.2731    0.9433   -0.9353 C   0  0  0  0  0  0  0  0  0  0  0  0
   -0.2132    0.0006   -2.0597 C   0  0  0  0  0  0  0  0  0  0  0  0
    0.5875   -0.4723   -0.9753 C   0  0  0  0  0  0  0  0  0  0  0  0
    3.2966   -0.8314    2.8206 H   0  0  0  0  0  0  0  0  0  0  0  0
   -0.2470   -2.1537    0.1993 H   0  0  0  0  0  0  0  0  0  0  0  0
   -1.2913   -1.0170    1.8787 H   0  0  0  0  0  0  0  0  0  0  0  0
   -1.9376   -0.8864    0.2078 H   0  0  0  0  0  0  0  0  0  0  0  0
   -1.8622    1.6964    1.4946 H   0  0  0  0  0  0  0  0  0  0  0  0
   -0.7349    2.6687   -0.0794 H   0  0  0  0  0  0  0  0  0  0  0  0
    1.0220    1.7539   -1.4561 H   0  0  0  0  0  0  0  0  0  0  0  0
    0.0497    0.4063   -3.0766 H   0  0  0  0  0  0  0  0  0  0  0  0
   -1.2365   -0.4620   -2.1704 H   0  0  0  0  0  0  0  0  0  0  0  0
    1.6662   -0.7355   -1.2039 H   0  0  0  0  0  0  0  0  0  0  0  0
  1  2  3  0
  2  3  1  0
  3  4  1  0
  4  5  1  0
  5  6  2  0
  6  7  1  0
  7  8  1  0
  8  9  1  0
  9  3  1  0
  9  7  1  0
  1 10  1  0
  3 11  1  0
  4 12  1  0
  4 13  1  0
  5 14  1  0
  6 15  1  0
  7 16  1  0
  8 17  1  0
  8 18  1  0
  9 19  1  0
M  END
