
     RDKit          3D

 14 13  0  0  0  0  0  0  0  0999 V2000
    2.1453    0.5060   -1.8791 C   0  0  0  0  0  0  0  0  0  0  0  0
    1.0951    0.0689   -1.5160 C   0  0  0  0  0  0  0  0  0  0  0  0
   -0.1471   -0.4737   -1.0905 C   0  0  0  0  0  0  0  0  0  0  0  0
   -0.2462   -0.2786    0.4607 C   0  0  0  0  0  0  0  0  0  0  0  0
   -1.5012   -0.8147    0.9810 C   0  0  0  0  0  0  0  0  0  0  0  0
   -2.1707   -1.6016    0.2837 O   0  0  0  0  0  0  0  0  0  0  0  0
    0.0102    1.1521    0.6770 C   0  0  0  0  0  0  0  0  0  0  0  0
    0.3800    1.6336    1.7587 O   0  0  0  0  0  0  0  0  0  0  0  0
    3.1330    0.8999   -2.2310 H   0  0  0  0  0  0  0  0  0  0  0  0
   -0.2822   -1.5186   -1.3320 H   0  0  0  0  0  0  0  0  0  0  0  0
   -1.0131    0.0571   -1.5785 H   0  0  0  0  0  0  0  0  0  0  0  0
    0.6318   -0.8942    0.8137 H   0  0  0  0  0  0  0  0  0  0  0  0
   -1.9109   -0.5832    1.9396 H   0  0  0  0  0  0  0  0  0  0  0  0
   -0.1239    1.8469   -0.1416 H   0  0  0  0  0  0  0  0  0  0  0  0
  1  2  3  0
  2  3  1  0
  3  4  1  0
  4  5  1  0
  5  6  2  0
  4  7  1  0
  7  8  2  0
  1  9  1  0
  3 10  1  0
  3 11  1  0
  4 12  1  0
  5 13  1  0
  7 14  1  0
M  END
