
     RDKit          3D

 23 23  0  0  0  0  0  0  0  0999 V2000
    2.6349    1.8954    0.7704 C   0  0  0  0  0  0  0  0  0  0  0  0
    1.9631    1.0288    0.2861 C   0  0  0  0  0  0  0  0  0  0  0  0
    1.1380   -0.0106   -0.2780 C   0  0  0  0  0  0  0  0  0  0  0  0
    1.7325   -1.3918    0.0410 C   0  0  0  0  0  0  0  0  0  0  0  0
    0.2663   -1.8358    0.1588 C   0  0  0  0  0  0  0  0  0  0  0  0
    0.0070   -0.4018    0.6076 C   0  0  0  0  0  0  0  0  0  0  0  0
   -1.3485    0.1335    0.2771 C   0  0  0  0  0  0  0  0  0  0  0  0
   -1.8526   -0.2553   -1.0677 C   0  0  0  0  0  0  0  0  0  0  0  0
   -1.3052    1.6469    0.4679 C   0  0  0  0  0  0  0  0  0  0  0  0
    3.2291    2.6655    1.2203 H   0  0  0  0  0  0  0  0  0  0  0  0
    0.9446    0.0357   -1.3552 H   0  0  0  0  0  0  0  0  0  0  0  0
    2.2738   -1.8550   -0.7813 H   0  0  0  0  0  0  0  0  0  0  0  0
    2.1837   -1.4387    1.0434 H   0  0  0  0  0  0  0  0  0  0  0  0
   -0.1453   -2.0357   -0.8497 H   0  0  0  0  0  0  0  0  0  0  0  0
    0.0915   -2.6030    0.9262 H   0  0  0  0  0  0  0  0  0  0  0  0
    0.2762   -0.2926    1.6750 H   0  0  0  0  0  0  0  0  0  0  0  0
   -2.0589   -0.2576    1.0359 H   0  0  0  0  0  0  0  0  0  0  0  0
   -2.0710   -1.3413   -1.0545 H   0  0  0  0  0  0  0  0  0  0  0  0
   -2.8176    0.2738   -1.2364 H   0  0  0  0  0  0  0  0  0  0  0  0
   -1.1719    0.0052   -1.8985 H   0  0  0  0  0  0  0  0  0  0  0  0
   -2.2461    2.0325   -0.0208 H   0  0  0  0  0  0  0  0  0  0  0  0
   -1.2969    1.9137    1.5434 H   0  0  0  0  0  0  0  0  0  0  0  0
   -0.4268    2.0882   -0.0012 H   0  0  0  0  0  0  0  0  0  0  0  0
  1  2  3  0
  2  3  1  0
  3  4  1  0
  4  5  1  0
  5  6  1  0
  6  7  1  0
  7  8  1  0
  7  9  1  0
  6  3  1  0
  1 10  1  0
  3 11  1  0
  4 12  1  0
  4 13  1  0
  5 14  1  0
  5 15  1  0
  6 16  1  0
  7 17  1  0
  8 18  1  0
  8 19  1  0
  8 20  1  0
  9 21  1  0
  9 22  1  0
  9 23  1  0
M  END
