
     RDKit          3D

 19 20  0  0  0  0  0  0  0  0999 V2000
    3.3230    1.5558   -0.3462 C   0  0  0  0  0  0  0  0  0  0  0  0
    2.2438    1.3624    0.1531 C   0  0  0  0  0  0  0  0  0  0  0  0
    0.9459    1.1172    0.7788 C   0  0  0  0  0  0  0  0  0  0  0  0
    0.6917   -0.3639    1.0485 C   0  0  0  0  0  0  0  0  0  0  0  0
   -0.3699   -0.1330    0.1001 C   0  0  0  0  0  0  0  0  0  0  0  0
   -0.5404   -1.0353   -1.0864 C   0  0  0  0  0  0  0  0  0  0  0  0
   -1.9893   -0.5494   -1.0774 C   0  0  0  0  0  0  0  0  0  0  0  0
   -1.7964   -0.4073    0.4388 C   0  0  0  0  0  0  0  0  0  0  0  0
   -0.0988    1.1768   -0.1360 O   0  0  0  0  0  0  0  0  0  0  0  0
    4.2887    1.7157   -0.8010 H   0  0  0  0  0  0  0  0  0  0  0  0
    0.7329    1.7111    1.6881 H   0  0  0  0  0  0  0  0  0  0  0  0
    1.5356   -1.0117    0.6700 H   0  0  0  0  0  0  0  0  0  0  0  0
    0.4983   -0.6223    2.0904 H   0  0  0  0  0  0  0  0  0  0  0  0
    0.0475   -0.6820   -1.9427 H   0  0  0  0  0  0  0  0  0  0  0  0
   -0.3961   -2.0784   -0.8122 H   0  0  0  0  0  0  0  0  0  0  0  0
   -2.7284   -1.2778   -1.3841 H   0  0  0  0  0  0  0  0  0  0  0  0
   -2.0249    0.4591   -1.5116 H   0  0  0  0  0  0  0  0  0  0  0  0
   -2.3359    0.4428    0.8709 H   0  0  0  0  0  0  0  0  0  0  0  0
   -2.0275   -1.3798    0.9073 H   0  0  0  0  0  0  0  0  0  0  0  0
  1  2  3  0
  2  3  1  0
  3  4  1  0
  4  5  1  0
  5  6  1  0
  6  7  1  0
  7  8  1  0
  5  9  1  0
  9  3  1  0
  8  5  1  0
  1 10  1  0
  3 11  1  0
  4 12  1  0
  4 13  1  0
  6 14  1  0
  6 15  1  0
  7 16  1  0
  7 17  1  0
  8 18  1  0
  8 19  1  0
M  END
