
     RDKit          3D

 19 19  0  0  0  0  0  0  0  0999 V2000
    1.4708    1.8826    1.0947 C   0  0  0  0  0  0  0  0  0  0  0  0
    1.2721    0.9051    0.4163 C   0  0  0  0  0  0  0  0  0  0  0  0
    1.0508   -0.2899   -0.4280 C   0  0  0  0  0  0  0  0  0  0  0  0
    1.5696   -1.4809    0.3227 C   0  0  0  0  0  0  0  0  0  0  0  0
   -0.3982   -0.3933   -0.7999 C   0  0  0  0  0  0  0  0  0  0  0  0
   -1.3910   -0.5146    0.2694 C   0  0  0  0  0  0  0  0  0  0  0  0
   -1.0336   -0.2826    1.6018 O   0  0  0  0  0  0  0  0  0  0  0  0
   -1.3434    0.7236   -0.6222 C   0  0  0  0  0  0  0  0  0  0  0  0
   -2.4281    0.8271   -1.4877 O   0  0  0  0  0  0  0  0  0  0  0  0
    1.6564    2.7330    1.6980 H   0  0  0  0  0  0  0  0  0  0  0  0
    1.6550   -0.1993   -1.3609 H   0  0  0  0  0  0  0  0  0  0  0  0
    1.6957   -2.3050   -0.4077 H   0  0  0  0  0  0  0  0  0  0  0  0
    0.8951   -1.8287    1.1297 H   0  0  0  0  0  0  0  0  0  0  0  0
    2.5221   -1.1833    0.8064 H   0  0  0  0  0  0  0  0  0  0  0  0
   -0.5622   -1.0016   -1.7362 H   0  0  0  0  0  0  0  0  0  0  0  0
   -2.2197   -1.2407    0.1148 H   0  0  0  0  0  0  0  0  0  0  0  0
   -1.1592    0.6476    1.8698 H   0  0  0  0  0  0  0  0  0  0  0  0
   -1.0589    1.6858   -0.1549 H   0  0  0  0  0  0  0  0  0  0  0  0
   -2.1933    1.3151   -2.3263 H   0  0  0  0  0  0  0  0  0  0  0  0
  1  2  3  0
  2  3  1  0
  3  4  1  0
  3  5  1  0
  5  6  1  0
  6  7  1  0
  6  8  1  0
  8  9  1  0
  8  5  1  0
  1 10  1  0
  3 11  1  0
  4 12  1  0
  4 13  1  0
  4 14  1  0
  5 15  1  0
  6 16  1  0
  7 17  1  0
  8 18  1  0
  9 19  1  0
M  END
