
     RDKit          3D

 13 13  0  0  0  0  0  0  0  0999 V2000
   -0.7334    1.7730    1.8544 C   0  0  0  0  0  0  0  0  0  0  0  0
   -0.8338    0.6438    1.3769 C   0  0  0  0  0  0  0  0  0  0  0  0
   -0.9723   -0.6667    0.8347 C   0  0  0  0  0  0  0  0  0  0  0  0
   -1.3870   -1.6170    1.5854 O   0  0  0  0  0  0  0  0  0  0  0  0
   -0.6630   -0.9903   -0.5641 C   0  0  0  0  0  0  0  0  0  0  0  0
   -0.8106    0.0874   -1.4340 O   0  0  0  0  0  0  0  0  0  0  0  0
    0.4640   -0.3947   -1.3239 C   0  0  0  0  0  0  0  0  0  0  0  0
    1.5588    0.2856   -0.6433 C   0  0  0  0  0  0  0  0  0  0  0  0
    2.7256    0.2606   -1.0440 O   0  0  0  0  0  0  0  0  0  0  0  0
   -0.6360    2.7496    2.2517 H   0  0  0  0  0  0  0  0  0  0  0  0
   -0.9050   -2.0356   -0.9050 H   0  0  0  0  0  0  0  0  0  0  0  0
    0.7963   -0.9455   -2.2433 H   0  0  0  0  0  0  0  0  0  0  0  0
    1.3963    0.8497    0.2543 H   0  0  0  0  0  0  0  0  0  0  0  0
  1  2  3  0
  2  3  1  0
  3  4  2  0
  3  5  1  0
  5  6  1  0
  6  7  1  0
  7  8  1  0
  8  9  2  0
  7  5  1  0
  1 10  1  0
  5 11  1  0
  7 12  1  0
  8 13  1  0
M  END
