
     RDKit          3D

 14 14  0  0  0  0  0  0  0  0999 V2000
    4.1272    1.6247   -1.6917 C   0  0  0  0  0  0  0  0  0  0  0  0
    3.2487    1.2075   -1.2243 C   0  0  0  0  0  0  0  0  0  0  0  0
    2.0375    0.6464   -0.5831 C   0  0  0  0  0  0  0  0  0  0  0  0
    1.0513    0.1828   -0.0448 C   0  0  0  0  0  0  0  0  0  0  0  0
   -0.1452   -0.4065    0.6034 C   0  0  0  0  0  0  0  0  0  0  0  0
   -1.0761    0.8087    0.7545 O   0  0  0  0  0  0  0  0  0  0  0  0
   -1.4373   -0.3302    0.0116 C   0  0  0  0  0  0  0  0  0  0  0  0
   -2.6121   -1.0268    0.7417 C   0  0  0  0  0  0  0  0  0  0  0  0
    5.0603    2.0874   -2.1900 H   0  0  0  0  0  0  0  0  0  0  0  0
   -0.0002   -0.9333    1.5331 H   0  0  0  0  0  0  0  0  0  0  0  0
   -1.5511   -0.3629   -1.0657 H   0  0  0  0  0  0  0  0  0  0  0  0
   -2.2662   -1.9682    1.2327 H   0  0  0  0  0  0  0  0  0  0  0  0
   -3.4777   -1.1435    0.0850 H   0  0  0  0  0  0  0  0  0  0  0  0
   -2.9592   -0.3860    1.6129 H   0  0  0  0  0  0  0  0  0  0  0  0
  1  2  3  0
  2  3  1  0
  3  4  3  0
  4  5  1  0
  5  6  1  0
  6  7  1  0
  7  8  1  0
  7  5  1  0
  1  9  1  0
  5 10  1  0
  7 11  1  0
  8 12  1  0
  8 13  1  0
  8 14  1  0
M  END
