
     RDKit          3D

 17 17  0  0  0  0  0  0  0  0999 V2000
    3.5939    0.9843   -0.3146 C   0  0  0  0  0  0  0  0  0  0  0  0
    2.5985    0.3026   -0.3555 C   0  0  0  0  0  0  0  0  0  0  0  0
    1.4050   -0.5445   -0.3981 C   0  0  0  0  0  0  0  0  0  0  0  0
    0.2170    0.2952   -0.0233 C   0  0  0  0  0  0  0  0  0  0  0  0
   -1.0766   -0.4581   -0.0286 C   0  0  0  0  0  0  0  0  0  0  0  0
   -2.2765    0.4208    0.3576 C   0  0  0  0  0  0  0  0  0  0  0  0
   -1.8426   -0.7321    1.1916 C   0  0  0  0  0  0  0  0  0  0  0  0
    4.4899    1.5789   -0.2879 H   0  0  0  0  0  0  0  0  0  0  0  0
    1.2886   -0.8589   -1.4616 H   0  0  0  0  0  0  0  0  0  0  0  0
    1.5368   -1.4157    0.2553 H   0  0  0  0  0  0  0  0  0  0  0  0
    0.1128    1.1542   -0.7111 H   0  0  0  0  0  0  0  0  0  0  0  0
    0.3806    0.6823    1.0034 H   0  0  0  0  0  0  0  0  0  0  0  0
   -1.2373   -1.0696   -0.9412 H   0  0  0  0  0  0  0  0  0  0  0  0
   -2.0957    1.4396    0.7207 H   0  0  0  0  0  0  0  0  0  0  0  0
   -3.1976    0.3266   -0.2664 H   0  0  0  0  0  0  0  0  0  0  0  0
   -2.5289   -1.6073    1.1930 H   0  0  0  0  0  0  0  0  0  0  0  0
   -1.3678   -0.4984    2.1761 H   0  0  0  0  0  0  0  0  0  0  0  0
  1  2  3  0
  2  3  1  0
  3  4  1  0
  4  5  1  0
  5  6  1  0
  6  7  1  0
  7  5  1  0
  1  8  1  0
  3  9  1  0
  3 10  1  0
  4 11  1  0
  4 12  1  0
  5 13  1  0
  6 14  1  0
  6 15  1  0
  7 16  1  0
  7 17  1  0
M  END
