
     RDKit          3D

 19 18  0  0  0  0  0  0  0  0999 V2000
   -3.6577   -0.4867   -1.1532 C   0  0  0  0  0  0  0  0  0  0  0  0
   -2.5305   -0.5648   -0.7170 C   0  0  0  0  0  0  0  0  0  0  0  0
   -1.1672   -0.6774   -0.1695 C   0  0  0  0  0  0  0  0  0  0  0  0
   -0.4946   -1.8518   -0.8427 C   0  0  0  0  0  0  0  0  0  0  0  0
   -0.4117    0.6065   -0.4991 C   0  0  0  0  0  0  0  0  0  0  0  0
    0.9707    0.6212   -0.0325 C   0  0  0  0  0  0  0  0  0  0  0  0
    1.7671   -0.3214   -0.2870 O   0  0  0  0  0  0  0  0  0  0  0  0
    1.4902    1.6904    0.7303 O   0  0  0  0  0  0  0  0  0  0  0  0
    2.8579    1.6247    1.1428 C   0  0  0  0  0  0  0  0  0  0  0  0
   -4.6395   -0.4254   -1.5508 H   0  0  0  0  0  0  0  0  0  0  0  0
   -1.2794   -0.8003    0.9285 H   0  0  0  0  0  0  0  0  0  0  0  0
   -1.2452   -2.4269   -1.4406 H   0  0  0  0  0  0  0  0  0  0  0  0
   -0.1049   -2.5505   -0.0674 H   0  0  0  0  0  0  0  0  0  0  0  0
    0.2553   -1.4707   -1.5473 H   0  0  0  0  0  0  0  0  0  0  0  0
   -0.4842    0.7438   -1.6199 H   0  0  0  0  0  0  0  0  0  0  0  0
   -0.9794    1.4613   -0.0925 H   0  0  0  0  0  0  0  0  0  0  0  0
    3.3464    2.5981    0.8753 H   0  0  0  0  0  0  0  0  0  0  0  0
    2.9243    1.4256    2.2049 H   0  0  0  0  0  0  0  0  0  0  0  0
    3.3824    0.8044    0.5662 H   0  0  0  0  0  0  0  0  0  0  0  0
  1  2  3  0
  2  3  1  0
  3  4  1  0
  3  5  1  0
  5  6  1  0
  6  7  2  0
  6  8  1  0
  8  9  1  0
  1 10  1  0
  3 11  1  0
  4 12  1  0
  4 13  1  0
  4 14  1  0
  5 15  1  0
  5 16  1  0
  9 17  1  0
  9 18  1  0
  9 19  1  0
M  END
