
     RDKit          3D

 21 20  0  0  0  0  0  0  0  0999 V2000
    3.3151   -0.6915    2.7930 C   0  0  0  0  0  0  0  0  0  0  0  0
    2.2586   -0.2191    2.4552 C   0  0  0  0  0  0  0  0  0  0  0  0
    0.9790    0.3731    2.0471 C   0  0  0  0  0  0  0  0  0  0  0  0
    0.7037   -0.0119    0.6081 C   0  0  0  0  0  0  0  0  0  0  0  0
   -0.5958    0.5608    0.1157 C   0  0  0  0  0  0  0  0  0  0  0  0
   -0.7565    0.1047   -1.3350 C   0  0  0  0  0  0  0  0  0  0  0  0
   -2.0509    0.6469   -1.9003 C   0  0  0  0  0  0  0  0  0  0  0  0
   -0.7825   -1.3706   -1.3951 C   0  0  0  0  0  0  0  0  0  0  0  0
   -1.7873   -1.9727   -1.1099 O   0  0  0  0  0  0  0  0  0  0  0  0
    4.2553   -1.1136    3.1131 H   0  0  0  0  0  0  0  0  0  0  0  0
    1.0360    1.4906    2.0670 H   0  0  0  0  0  0  0  0  0  0  0  0
    0.1754    0.0470    2.7184 H   0  0  0  0  0  0  0  0  0  0  0  0
    0.7059   -1.1037    0.4731 H   0  0  0  0  0  0  0  0  0  0  0  0
    1.5113    0.4299   -0.0270 H   0  0  0  0  0  0  0  0  0  0  0  0
   -1.4683    0.2183    0.7092 H   0  0  0  0  0  0  0  0  0  0  0  0
   -0.5738    1.6685    0.1080 H   0  0  0  0  0  0  0  0  0  0  0  0
    0.0828    0.5216   -1.9169 H   0  0  0  0  0  0  0  0  0  0  0  0
   -2.1866    0.2236   -2.9060 H   0  0  0  0  0  0  0  0  0  0  0  0
   -2.8873    0.3655   -1.2403 H   0  0  0  0  0  0  0  0  0  0  0  0
   -2.0249    1.7603   -1.9541 H   0  0  0  0  0  0  0  0  0  0  0  0
    0.0907   -1.9279   -1.6930 H   0  0  0  0  0  0  0  0  0  0  0  0
  1  2  3  0
  2  3  1  0
  3  4  1  0
  4  5  1  0
  5  6  1  0
  6  7  1  0
  6  8  1  0
  8  9  2  0
  1 10  1  0
  3 11  1  0
  3 12  1  0
  4 13  1  0
  4 14  1  0
  5 15  1  0
  5 16  1  0
  6 17  1  0
  7 18  1  0
  7 19  1  0
  7 20  1  0
  8 21  1  0
M  END
