
     RDKit          3D

 15 14  0  0  0  0  0  0  0  0999 V2000
    3.3047    0.0144   -0.1987 C   0  0  0  0  0  0  0  0  0  0  0  0
    2.1621    0.3988   -0.1263 C   0  0  0  0  0  0  0  0  0  0  0  0
    0.7984    0.8436   -0.0356 C   0  0  0  0  0  0  0  0  0  0  0  0
    0.5212    1.7419    0.7983 O   0  0  0  0  0  0  0  0  0  0  0  0
   -0.3064    0.3054   -0.8690 C   0  0  0  0  0  0  0  0  0  0  0  0
   -1.2989   -0.4917   -0.0627 C   0  0  0  0  0  0  0  0  0  0  0  0
   -0.6074   -1.5654    0.5247 O   0  0  0  0  0  0  0  0  0  0  0  0
   -1.9871    0.3142    0.9781 C   0  0  0  0  0  0  0  0  0  0  0  0
   -2.6425    1.2974    0.7045 O   0  0  0  0  0  0  0  0  0  0  0  0
    4.3082   -0.3191   -0.2673 H   0  0  0  0  0  0  0  0  0  0  0  0
    0.1351   -0.4042   -1.6076 H   0  0  0  0  0  0  0  0  0  0  0  0
   -0.7933    1.0931   -1.4769 H   0  0  0  0  0  0  0  0  0  0  0  0
   -2.0363   -0.9017   -0.8049 H   0  0  0  0  0  0  0  0  0  0  0  0
    0.3512   -1.4514    0.4239 H   0  0  0  0  0  0  0  0  0  0  0  0
   -1.9091    0.0253    2.0196 H   0  0  0  0  0  0  0  0  0  0  0  0
  1  2  3  0
  2  3  1  0
  3  4  2  0
  3  5  1  0
  5  6  1  0
  6  7  1  0
  6  8  1  0
  8  9  2  0
  1 10  1  0
  5 11  1  0
  5 12  1  0
  6 13  1  0
  7 14  1  0
  8 15  1  0
M  END
