
     RDKit          3D

 13 14  0  0  0  0  0  0  0  0999 V2000
    2.2014    1.6402   -0.7694 C   0  0  0  0  0  0  0  0  0  0  0  0
    1.6199    0.6825   -0.3128 C   0  0  0  0  0  0  0  0  0  0  0  0
    0.8934   -0.4648    0.2406 C   0  0  0  0  0  0  0  0  0  0  0  0
   -0.1825   -1.0110   -0.5815 C   0  0  0  0  0  0  0  0  0  0  0  0
   -0.8498   -0.0922   -1.4416 O   0  0  0  0  0  0  0  0  0  0  0  0
   -1.4524    0.4321   -0.3055 C   0  0  0  0  0  0  0  0  0  0  0  0
   -2.4448    1.1794   -0.1545 O   0  0  0  0  0  0  0  0  0  0  0  0
   -0.5108   -0.2050    0.6153 C   0  0  0  0  0  0  0  0  0  0  0  0
   -0.9884   -0.7938    1.7828 O   0  0  0  0  0  0  0  0  0  0  0  0
    2.7005    2.4978   -1.1772 H   0  0  0  0  0  0  0  0  0  0  0  0
    1.4645   -1.1290    0.9138 H   0  0  0  0  0  0  0  0  0  0  0  0
   -0.4816   -2.0736   -0.5908 H   0  0  0  0  0  0  0  0  0  0  0  0
   -1.9694   -0.6625    1.7808 H   0  0  0  0  0  0  0  0  0  0  0  0
  1  2  3  0
  2  3  1  0
  3  4  1  0
  4  5  1  0
  5  6  1  0
  6  7  2  0
  6  8  1  0
  8  9  1  0
  8  3  1  0
  8  4  1  0
  1 10  1  0
  3 11  1  0
  4 12  1  0
  9 13  1  0
M  END
