
     RDKit          3D

 19 20  0  0  0  0  0  0  0  0999 V2000
   -0.3416    3.0203   -0.7768 C   0  0  0  0  0  0  0  0  0  0  0  0
   -0.1253    1.9439   -0.3966 C   0  0  0  0  0  0  0  0  0  0  0  0
    0.1724    0.5802    0.0962 C   0  0  0  0  0  0  0  0  0  0  0  0
    1.6229    0.2675    0.0811 C   0  0  0  0  0  0  0  0  0  0  0  0
   -0.7703   -0.4014   -0.5452 C   0  0  0  0  0  0  0  0  0  0  0  0
   -0.4229   -1.7443    0.0427 C   0  0  0  0  0  0  0  0  0  0  0  0
   -0.3130   -1.2863    1.5180 C   0  0  0  0  0  0  0  0  0  0  0  0
   -0.6380    0.1861    1.2590 C   0  0  0  0  0  0  0  0  0  0  0  0
   -1.7247    0.0497    0.3945 O   0  0  0  0  0  0  0  0  0  0  0  0
   -0.5596    4.0169   -1.1251 H   0  0  0  0  0  0  0  0  0  0  0  0
    2.1441    1.1016   -0.4789 H   0  0  0  0  0  0  0  0  0  0  0  0
    1.7797   -0.6076   -0.5939 H   0  0  0  0  0  0  0  0  0  0  0  0
    2.1227    0.1802    1.0366 H   0  0  0  0  0  0  0  0  0  0  0  0
   -1.0059   -0.3361   -1.5834 H   0  0  0  0  0  0  0  0  0  0  0  0
   -1.2935   -2.4030   -0.0494 H   0  0  0  0  0  0  0  0  0  0  0  0
    0.5054   -2.1662   -0.3359 H   0  0  0  0  0  0  0  0  0  0  0  0
    0.7034   -1.4275    1.8970 H   0  0  0  0  0  0  0  0  0  0  0  0
   -1.0922   -1.7848    2.1051 H   0  0  0  0  0  0  0  0  0  0  0  0
   -0.7636    0.8108    2.1150 H   0  0  0  0  0  0  0  0  0  0  0  0
  1  2  3  0
  2  3  1  0
  3  4  1  0
  3  5  1  0
  5  6  1  0
  6  7  1  0
  7  8  1  0
  8  9  1  0
  8  3  1  0
  9  5  1  0
  1 10  1  0
  4 11  1  0
  4 12  1  0
  4 13  1  0
  5 14  1  0
  6 15  1  0
  6 16  1  0
  7 17  1  0
  7 18  1  0
  8 19  1  0
M  END
