
     RDKit          3D

 15 15  0  0  0  0  0  0  0  0999 V2000
    2.5222    1.8009   -0.4706 C   0  0  0  0  0  0  0  0  0  0  0  0
    1.9690    0.7386   -0.3530 C   0  0  0  0  0  0  0  0  0  0  0  0
    1.2811   -0.5474   -0.2286 C   0  0  0  0  0  0  0  0  0  0  0  0
   -0.0922   -0.2645    0.3406 C   0  0  0  0  0  0  0  0  0  0  0  0
   -0.8193    0.5846   -0.4991 O   0  0  0  0  0  0  0  0  0  0  0  0
   -2.1159    0.4180   -0.0145 C   0  0  0  0  0  0  0  0  0  0  0  0
   -2.2480   -0.9881    0.1816 O   0  0  0  0  0  0  0  0  0  0  0  0
   -0.9559   -1.4816    0.3156 C   0  0  0  0  0  0  0  0  0  0  0  0
   -0.5496   -2.6699    0.4009 O   0  0  0  0  0  0  0  0  0  0  0  0
    3.0281    2.7474   -0.5650 H   0  0  0  0  0  0  0  0  0  0  0  0
    1.2446   -1.1256   -1.1469 H   0  0  0  0  0  0  0  0  0  0  0  0
    1.8375   -1.1152    0.5686 H   0  0  0  0  0  0  0  0  0  0  0  0
   -0.0352    0.1349    1.3616 H   0  0  0  0  0  0  0  0  0  0  0  0
   -2.8150    0.7740   -0.7928 H   0  0  0  0  0  0  0  0  0  0  0  0
   -2.2513    0.9940    0.9016 H   0  0  0  0  0  0  0  0  0  0  0  0
  1  2  3  0
  2  3  1  0
  3  4  1  0
  4  5  1  0
  5  6  1  0
  6  7  1  0
  7  8  1  0
  8  9  2  0
  8  4  1  0
  1 10  1  0
  3 11  1  0
  3 12  1  0
  4 13  1  0
  6 14  1  0
  6 15  1  0
M  END
