
     RDKit          3D

 19 20  0  0  0  0  0  0  0  0999 V2000
    0.7251    2.5454    0.0842 C   0  0  0  0  0  0  0  0  0  0  0  0
    0.5861    1.4381   -0.4152 C   0  0  0  0  0  0  0  0  0  0  0  0
    0.3951    0.1169   -1.0186 C   0  0  0  0  0  0  0  0  0  0  0  0
   -0.7394   -0.5489   -0.2695 C   0  0  0  0  0  0  0  0  0  0  0  0
   -1.9907    0.2645   -0.2456 C   0  0  0  0  0  0  0  0  0  0  0  0
   -0.1081   -0.6872    1.1202 C   0  0  0  0  0  0  0  0  0  0  0  0
    1.2858   -1.1109    0.7785 C   0  0  0  0  0  0  0  0  0  0  0  0
    1.3645   -2.0578   -0.2382 O   0  0  0  0  0  0  0  0  0  0  0  0
    1.5654   -0.7565   -0.6355 C   0  0  0  0  0  0  0  0  0  0  0  0
    0.8362    3.4815    0.5245 H   0  0  0  0  0  0  0  0  0  0  0  0
    0.2323    0.1676   -2.1024 H   0  0  0  0  0  0  0  0  0  0  0  0
   -0.9241   -1.5822   -0.6168 H   0  0  0  0  0  0  0  0  0  0  0  0
   -2.8914   -0.4060   -0.3651 H   0  0  0  0  0  0  0  0  0  0  0  0
   -2.1625    0.8042    0.7058 H   0  0  0  0  0  0  0  0  0  0  0  0
   -2.0259    0.9525   -1.1260 H   0  0  0  0  0  0  0  0  0  0  0  0
   -0.1374    0.2831    1.6622 H   0  0  0  0  0  0  0  0  0  0  0  0
   -0.6973   -1.4415    1.6592 H   0  0  0  0  0  0  0  0  0  0  0  0
    2.1137   -0.9830    1.4843 H   0  0  0  0  0  0  0  0  0  0  0  0
    2.5726   -0.4799   -0.9860 H   0  0  0  0  0  0  0  0  0  0  0  0
  1  2  3  0
  2  3  1  0
  3  4  1  0
  4  5  1  0
  4  6  1  0
  6  7  1  0
  7  8  1  0
  8  9  1  0
  9  3  1  0
  9  7  1  0
  1 10  1  0
  3 11  1  0
  4 12  1  0
  5 13  1  0
  5 14  1  0
  5 15  1  0
  6 16  1  0
  6 17  1  0
  7 18  1  0
  9 19  1  0
M  END
