
     RDKit          3D

 18 18  0  0  0  0  0  0  0  0999 V2000
    2.7531    0.9031   -0.1771 C   0  0  0  0  0  0  0  0  0  0  0  0
    1.7296    0.2647   -0.1973 C   0  0  0  0  0  0  0  0  0  0  0  0
    0.4755   -0.4984   -0.2416 C   0  0  0  0  0  0  0  0  0  0  0  0
    0.7209   -1.8457    0.3792 C   0  0  0  0  0  0  0  0  0  0  0  0
   -0.6114    0.2688    0.4705 C   0  0  0  0  0  0  0  0  0  0  0  0
   -0.8552    1.6105   -0.1646 C   0  0  0  0  0  0  0  0  0  0  0  0
   -1.6476    0.9703   -1.1179 O   0  0  0  0  0  0  0  0  0  0  0  0
   -1.9703    0.0235   -0.1494 C   0  0  0  0  0  0  0  0  0  0  0  0
    3.6765    1.4579   -0.1534 H   0  0  0  0  0  0  0  0  0  0  0  0
    0.1656   -0.6611   -1.2961 H   0  0  0  0  0  0  0  0  0  0  0  0
    1.2740   -2.4591   -0.3578 H   0  0  0  0  0  0  0  0  0  0  0  0
    1.4334   -1.6686    1.2381 H   0  0  0  0  0  0  0  0  0  0  0  0
   -0.2123   -2.3354    0.7285 H   0  0  0  0  0  0  0  0  0  0  0  0
   -0.5906    0.2368    1.5649 H   0  0  0  0  0  0  0  0  0  0  0  0
    0.0322    2.1005   -0.6043 H   0  0  0  0  0  0  0  0  0  0  0  0
   -1.4525    2.2452    0.5186 H   0  0  0  0  0  0  0  0  0  0  0  0
   -2.8154    0.3990    0.4660 H   0  0  0  0  0  0  0  0  0  0  0  0
   -2.1054   -1.0122   -0.5357 H   0  0  0  0  0  0  0  0  0  0  0  0
  1  2  3  0
  2  3  1  0
  3  4  1  0
  3  5  1  0
  5  6  1  0
  6  7  1  0
  7  8  1  0
  8  5  1  0
  1  9  1  0
  3 10  1  0
  4 11  1  0
  4 12  1  0
  4 13  1  0
  5 14  1  0
  6 15  1  0
  6 16  1  0
  8 17  1  0
  8 18  1  0
M  END
