
     RDKit          3D

 23 23  0  0  0  0  0  0  0  0999 V2000
    4.1765   -0.1381   -0.1370 C   0  0  0  0  0  0  0  0  0  0  0  0
    3.0438   -0.1925   -0.5492 C   0  0  0  0  0  0  0  0  0  0  0  0
    1.6602   -0.2353   -1.0502 C   0  0  0  0  0  0  0  0  0  0  0  0
    0.7306   -0.1928    0.1361 C   0  0  0  0  0  0  0  0  0  0  0  0
    0.8531    1.0282    1.0051 C   0  0  0  0  0  0  0  0  0  0  0  0
   -0.6608    1.0269    1.1280 C   0  0  0  0  0  0  0  0  0  0  0  0
   -0.6764    0.2718   -0.1976 C   0  0  0  0  0  0  0  0  0  0  0  0
   -1.6187   -0.9142   -0.1762 C   0  0  0  0  0  0  0  0  0  0  0  0
   -3.0353   -0.5412   -0.4967 C   0  0  0  0  0  0  0  0  0  0  0  0
    5.1801   -0.0836    0.2472 H   0  0  0  0  0  0  0  0  0  0  0  0
    1.4445    0.5540   -1.7777 H   0  0  0  0  0  0  0  0  0  0  0  0
    1.5273   -1.2172   -1.5489 H   0  0  0  0  0  0  0  0  0  0  0  0
    0.7439   -1.1134    0.7325 H   0  0  0  0  0  0  0  0  0  0  0  0
    1.2289    1.9402    0.4884 H   0  0  0  0  0  0  0  0  0  0  0  0
    1.3698    0.8761    1.9732 H   0  0  0  0  0  0  0  0  0  0  0  0
   -1.0289    0.3694    1.9306 H   0  0  0  0  0  0  0  0  0  0  0  0
   -1.1336    2.0290    1.0775 H   0  0  0  0  0  0  0  0  0  0  0  0
   -0.7375    0.9147   -1.0823 H   0  0  0  0  0  0  0  0  0  0  0  0
   -1.2158   -1.6671   -0.8743 H   0  0  0  0  0  0  0  0  0  0  0  0
   -1.6120   -1.2860    0.8875 H   0  0  0  0  0  0  0  0  0  0  0  0
   -3.1220    0.2878   -1.2281 H   0  0  0  0  0  0  0  0  0  0  0  0
   -3.5929   -0.2419    0.4124 H   0  0  0  0  0  0  0  0  0  0  0  0
   -3.5250   -1.4747   -0.9002 H   0  0  0  0  0  0  0  0  0  0  0  0
  1  2  3  0
  2  3  1  0
  3  4  1  0
  4  5  1  0
  5  6  1  0
  6  7  1  0
  7  8  1  0
  8  9  1  0
  7  4  1  0
  1 10  1  0
  3 11  1  0
  3 12  1  0
  4 13  1  0
  5 14  1  0
  5 15  1  0
  6 16  1  0
  6 17  1  0
  7 18  1  0
  8 19  1  0
  8 20  1  0
  9 21  1  0
  9 22  1  0
  9 23  1  0
M  END
