
     RDKit          3D

 25 24  0  0  0  0  0  0  0  0999 V2000
   -0.9183    2.8417    0.0068 C   0  0  0  0  0  0  0  0  0  0  0  0
   -0.9714    1.7377    0.4967 C   0  0  0  0  0  0  0  0  0  0  0  0
   -1.0178    0.4041    1.1000 C   0  0  0  0  0  0  0  0  0  0  0  0
   -0.4826   -0.6015    0.1081 C   0  0  0  0  0  0  0  0  0  0  0  0
   -1.2794   -0.6359   -1.1675 C   0  0  0  0  0  0  0  0  0  0  0  0
   -2.7086   -0.9901   -0.9955 C   0  0  0  0  0  0  0  0  0  0  0  0
    0.9310   -0.2650   -0.2519 C   0  0  0  0  0  0  0  0  0  0  0  0
    1.8809   -0.2577    0.8975 C   0  0  0  0  0  0  0  0  0  0  0  0
    3.2602    0.1045    0.3270 C   0  0  0  0  0  0  0  0  0  0  0  0
   -0.8830    3.8296   -0.4157 H   0  0  0  0  0  0  0  0  0  0  0  0
   -2.0543    0.1681    1.4101 H   0  0  0  0  0  0  0  0  0  0  0  0
   -0.3996    0.3275    2.0182 H   0  0  0  0  0  0  0  0  0  0  0  0
   -0.5415   -1.5976    0.5708 H   0  0  0  0  0  0  0  0  0  0  0  0
   -1.1534    0.3672   -1.6686 H   0  0  0  0  0  0  0  0  0  0  0  0
   -0.7989   -1.3857   -1.8297 H   0  0  0  0  0  0  0  0  0  0  0  0
   -3.1669   -0.7222   -0.0486 H   0  0  0  0  0  0  0  0  0  0  0  0
   -3.2740   -0.5488   -1.8667 H   0  0  0  0  0  0  0  0  0  0  0  0
   -2.8613   -2.1020   -1.1210 H   0  0  0  0  0  0  0  0  0  0  0  0
    0.9647    0.7090   -0.7818 H   0  0  0  0  0  0  0  0  0  0  0  0
    1.2818   -1.0448   -0.9703 H   0  0  0  0  0  0  0  0  0  0  0  0
    1.6050    0.4777    1.6841 H   0  0  0  0  0  0  0  0  0  0  0  0
    1.9399   -1.2552    1.3725 H   0  0  0  0  0  0  0  0  0  0  0  0
    3.5831   -0.8130   -0.2456 H   0  0  0  0  0  0  0  0  0  0  0  0
    3.0929    0.8884   -0.4179 H   0  0  0  0  0  0  0  0  0  0  0  0
    3.9713    0.3642    1.1233 H   0  0  0  0  0  0  0  0  0  0  0  0
  1  2  3  0
  2  3  1  0
  3  4  1  0
  4  5  1  0
  5  6  1  0
  4  7  1  0
  7  8  1  0
  8  9  1  0
  1 10  1  0
  3 11  1  0
  3 12  1  0
  4 13  1  0
  5 14  1  0
  5 15  1  0
  6 16  1  0
  6 17  1  0
  6 18  1  0
  7 19  1  0
  7 20  1  0
  8 21  1  0
  8 22  1  0
  9 23  1  0
  9 24  1  0
  9 25  1  0
M  END
