
     RDKit          3D

 21 22  0  0  0  0  0  0  0  0999 V2000
    1.9532   -1.8184   -1.3687 C   0  0  0  0  0  0  0  0  0  0  0  0
    1.2752   -1.4460   -0.5518 C   0  0  0  0  0  0  0  0  0  0  0  0
    0.3793   -0.9763    0.4939 C   0  0  0  0  0  0  0  0  0  0  0  0
   -0.2733    0.3286    0.3220 C   0  0  0  0  0  0  0  0  0  0  0  0
   -1.1121    0.6621   -0.8479 C   0  0  0  0  0  0  0  0  0  0  0  0
   -1.7338    2.0613   -0.7439 C   0  0  0  0  0  0  0  0  0  0  0  0
   -0.6621    1.7855   -1.7398 C   0  0  0  0  0  0  0  0  0  0  0  0
    1.2108   -0.8468    1.8641 C   0  0  0  0  0  0  0  0  0  0  0  0
    0.1983   -1.9333    1.6292 C   0  0  0  0  0  0  0  0  0  0  0  0
    2.7055   -2.2526   -2.2686 H   0  0  0  0  0  0  0  0  0  0  0  0
   -0.9476    0.5551    1.2405 H   0  0  0  0  0  0  0  0  0  0  0  0
    0.4932    1.1695    0.4426 H   0  0  0  0  0  0  0  0  0  0  0  0
   -1.7365   -0.1259   -1.3168 H   0  0  0  0  0  0  0  0  0  0  0  0
   -1.4909    2.6718    0.1524 H   0  0  0  0  0  0  0  0  0  0  0  0
   -2.7826    2.2028   -1.0556 H   0  0  0  0  0  0  0  0  0  0  0  0
   -0.9912    1.7733   -2.7827 H   0  0  0  0  0  0  0  0  0  0  0  0
    0.3282    2.2693   -1.5447 H   0  0  0  0  0  0  0  0  0  0  0  0
    2.2927   -1.0371    1.7600 H   0  0  0  0  0  0  0  0  0  0  0  0
    0.8506   -0.1011    2.5781 H   0  0  0  0  0  0  0  0  0  0  0  0
    0.7348   -2.9325    1.4937 H   0  0  0  0  0  0  0  0  0  0  0  0
   -0.6916   -2.0095    2.2440 H   0  0  0  0  0  0  0  0  0  0  0  0
  1  2  3  0
  2  3  1  0
  3  4  1  0
  4  5  1  0
  5  6  1  0
  6  7  1  0
  3  8  1  0
  8  9  1  0
  9  3  1  0
  7  5  1  0
  1 10  1  0
  4 11  1  0
  4 12  1  0
  5 13  1  0
  6 14  1  0
  6 15  1  0
  7 16  1  0
  7 17  1  0
  8 18  1  0
  8 19  1  0
  9 20  1  0
  9 21  1  0
M  END
