
     RDKit          3D

 21 21  0  0  0  0  0  0  0  0999 V2000
    3.6518   -0.9186   -0.3862 C   0  0  0  0  0  0  0  0  0  0  0  0
    2.6074   -0.5139    0.0285 C   0  0  0  0  0  0  0  0  0  0  0  0
    1.3214   -0.0325    0.5169 C   0  0  0  0  0  0  0  0  0  0  0  0
    1.1076    1.4085    0.2166 C   0  0  0  0  0  0  0  0  0  0  0  0
   -0.1360    1.8581    0.2599 C   0  0  0  0  0  0  0  0  0  0  0  0
   -1.3035    1.0178    0.5855 C   0  0  0  0  0  0  0  0  0  0  0  0
   -1.1109   -0.4352    0.3585 C   0  0  0  0  0  0  0  0  0  0  0  0
   -2.1656   -0.9495   -0.5927 C   0  0  0  0  0  0  0  0  0  0  0  0
    0.2333   -0.7910   -0.2259 C   0  0  0  0  0  0  0  0  0  0  0  0
    4.5965   -1.2672   -0.7581 H   0  0  0  0  0  0  0  0  0  0  0  0
    1.1620   -0.2439    1.5948 H   0  0  0  0  0  0  0  0  0  0  0  0
    1.9628    2.0363   -0.0247 H   0  0  0  0  0  0  0  0  0  0  0  0
   -0.2954    2.9011    0.0438 H   0  0  0  0  0  0  0  0  0  0  0  0
   -1.5776    1.2082    1.6602 H   0  0  0  0  0  0  0  0  0  0  0  0
   -2.1580    1.4004   -0.0432 H   0  0  0  0  0  0  0  0  0  0  0  0
   -1.1704   -0.9828    1.3427 H   0  0  0  0  0  0  0  0  0  0  0  0
   -2.6735   -1.8221   -0.1239 H   0  0  0  0  0  0  0  0  0  0  0  0
   -1.7633   -1.2556   -1.5685 H   0  0  0  0  0  0  0  0  0  0  0  0
   -2.9429   -0.1621   -0.7750 H   0  0  0  0  0  0  0  0  0  0  0  0
    0.3948   -1.8787   -0.0768 H   0  0  0  0  0  0  0  0  0  0  0  0
    0.2595   -0.5776   -1.3112 H   0  0  0  0  0  0  0  0  0  0  0  0
  1  2  3  0
  2  3  1  0
  3  4  1  0
  4  5  2  0
  5  6  1  0
  6  7  1  0
  7  8  1  0
  7  9  1  0
  9  3  1  0
  1 10  1  0
  3 11  1  0
  4 12  1  0
  5 13  1  0
  6 14  1  0
  6 15  1  0
  7 16  1  0
  8 17  1  0
  8 18  1  0
  8 19  1  0
  9 20  1  0
  9 21  1  0
M  END
