
     RDKit          3D

 19 19  0  0  0  0  0  0  0  0999 V2000
   -2.3203    1.9432    0.0249 C   0  0  0  0  0  0  0  0  0  0  0  0
   -1.6020    1.0030   -0.1292 C   0  0  0  0  0  0  0  0  0  0  0  0
   -0.7056   -0.1418   -0.2996 C   0  0  0  0  0  0  0  0  0  0  0  0
   -1.4434   -1.4368   -0.0794 C   0  0  0  0  0  0  0  0  0  0  0  0
   -0.1811   -0.0510   -1.5877 O   0  0  0  0  0  0  0  0  0  0  0  0
    0.4138   -0.0478    0.7071 C   0  0  0  0  0  0  0  0  0  0  0  0
    1.4875    0.9477    0.4042 C   0  0  0  0  0  0  0  0  0  0  0  0
    2.3582   -0.2317    0.0456 C   0  0  0  0  0  0  0  0  0  0  0  0
    1.3623   -1.0591    0.5648 O   0  0  0  0  0  0  0  0  0  0  0  0
   -2.9595    2.7940    0.1788 H   0  0  0  0  0  0  0  0  0  0  0  0
   -1.3669   -1.6843    1.0016 H   0  0  0  0  0  0  0  0  0  0  0  0
   -0.9640   -2.2424   -0.6676 H   0  0  0  0  0  0  0  0  0  0  0  0
   -2.5204   -1.3401   -0.3471 H   0  0  0  0  0  0  0  0  0  0  0  0
   -0.5589   -0.7980   -2.1039 H   0  0  0  0  0  0  0  0  0  0  0  0
    0.0553   -0.0425    1.7570 H   0  0  0  0  0  0  0  0  0  0  0  0
    1.8608    1.4343    1.3523 H   0  0  0  0  0  0  0  0  0  0  0  0
    1.2765    1.6441   -0.4223 H   0  0  0  0  0  0  0  0  0  0  0  0
    2.4780   -0.4099   -1.0345 H   0  0  0  0  0  0  0  0  0  0  0  0
    3.3299   -0.2810    0.5466 H   0  0  0  0  0  0  0  0  0  0  0  0
  1  2  3  0
  2  3  1  0
  3  4  1  0
  3  5  1  0
  3  6  1  0
  6  7  1  0
  7  8  1  0
  8  9  1  0
  9  6  1  0
  1 10  1  0
  4 11  1  0
  4 12  1  0
  4 13  1  0
  5 14  1  0
  6 15  1  0
  7 16  1  0
  7 17  1  0
  8 18  1  0
  8 19  1  0
M  END
