
     RDKit          3D

 18 18  0  0  0  0  0  0  0  0999 V2000
    2.6620    2.2444   -1.5095 C   0  0  0  0  0  0  0  0  0  0  0  0
    1.6864    1.2958   -1.6227 C   0  0  0  0  0  0  0  0  0  0  0  0
    0.5364    0.2035   -1.7476 C   0  0  0  0  0  0  0  0  0  0  0  0
    0.7989   -0.6311   -0.5040 C   0  0  0  0  0  0  0  0  0  0  0  0
   -0.3844    0.4992   -0.6089 C   0  0  0  0  0  0  0  0  0  0  0  0
   -1.3950   -0.2293    0.0653 O   0  0  0  0  0  0  0  0  0  0  0  0
   -0.8992   -0.3121    1.3939 C   0  0  0  0  0  0  0  0  0  0  0  0
   -1.8494   -0.9901    2.3116 C   0  0  0  0  0  0  0  0  0  0  0  0
    3.3396    2.9260   -1.4242 H   0  0  0  0  0  0  0  0  0  0  0  0
    0.4534   -0.2393   -2.6500 H   0  0  0  0  0  0  0  0  0  0  0  0
    1.5195   -0.3941    0.2804 H   0  0  0  0  0  0  0  0  0  0  0  0
    0.4823   -1.6452   -0.5413 H   0  0  0  0  0  0  0  0  0  0  0  0
    0.0281    1.2491    0.2281 H   0  0  0  0  0  0  0  0  0  0  0  0
   -0.6145    0.6519    1.7183 H   0  0  0  0  0  0  0  0  0  0  0  0
    0.0598   -0.9476    1.3267 H   0  0  0  0  0  0  0  0  0  0  0  0
   -2.0602   -0.3922    3.2025 H   0  0  0  0  0  0  0  0  0  0  0  0
   -1.5260   -2.0123    2.6907 H   0  0  0  0  0  0  0  0  0  0  0  0
   -2.8376   -1.2766    1.8104 H   0  0  0  0  0  0  0  0  0  0  0  0
  1  2  3  0
  2  3  1  0
  3  4  1  0
  4  5  1  0
  5  6  1  0
  6  7  1  0
  7  8  1  0
  5  3  1  0
  1  9  1  0
  3 10  1  0
  4 11  1  0
  4 12  1  0
  5 13  1  0
  7 14  1  0
  7 15  1  0
  8 16  1  0
  8 17  1  0
  8 18  1  0
M  END
