
     RDKit          3D

 21 20  0  0  0  0  0  0  0  0999 V2000
   -0.8871    1.9150   -2.5674 C   0  0  0  0  0  0  0  0  0  0  0  0
   -0.9943    1.2485   -1.5143 C   0  0  0  0  0  0  0  0  0  0  0  0
   -1.1018    0.4599   -0.2833 C   0  0  0  0  0  0  0  0  0  0  0  0
    0.2159   -0.2933   -0.1906 C   0  0  0  0  0  0  0  0  0  0  0  0
    0.3493   -1.2012   -1.3849 C   0  0  0  0  0  0  0  0  0  0  0  0
    1.2557    0.7006   -0.2428 O   0  0  0  0  0  0  0  0  0  0  0  0
    0.3277   -0.9810    1.1257 C   0  0  0  0  0  0  0  0  0  0  0  0
    0.2917    0.0254    2.2410 C   0  0  0  0  0  0  0  0  0  0  0  0
    0.4406   -0.5853    3.5246 O   0  0  0  0  0  0  0  0  0  0  0  0
   -0.7840    2.4879   -3.4474 H   0  0  0  0  0  0  0  0  0  0  0  0
   -1.2907    1.1237    0.5830 H   0  0  0  0  0  0  0  0  0  0  0  0
   -1.9022   -0.2894   -0.3086 H   0  0  0  0  0  0  0  0  0  0  0  0
    1.2440   -0.9628   -1.9731 H   0  0  0  0  0  0  0  0  0  0  0  0
   -0.5456   -1.0546   -2.0416 H   0  0  0  0  0  0  0  0  0  0  0  0
    0.3069   -2.2472   -1.0488 H   0  0  0  0  0  0  0  0  0  0  0  0
    0.8971    1.4755   -0.7533 H   0  0  0  0  0  0  0  0  0  0  0  0
    1.2944   -1.5658    1.1516 H   0  0  0  0  0  0  0  0  0  0  0  0
   -0.4748   -1.7636    1.2426 H   0  0  0  0  0  0  0  0  0  0  0  0
    1.1579    0.7322    2.0732 H   0  0  0  0  0  0  0  0  0  0  0  0
   -0.6460    0.6009    2.3169 H   0  0  0  0  0  0  0  0  0  0  0  0
    0.8454    0.1745    4.0704 H   0  0  0  0  0  0  0  0  0  0  0  0
  1  2  3  0
  2  3  1  0
  3  4  1  0
  4  5  1  0
  4  6  1  0
  4  7  1  0
  7  8  1  0
  8  9  1  0
  1 10  1  0
  3 11  1  0
  3 12  1  0
  5 13  1  0
  5 14  1  0
  5 15  1  0
  6 16  1  0
  7 17  1  0
  7 18  1  0
  8 19  1  0
  8 20  1  0
  9 21  1  0
M  END
