
     RDKit          3D

 19 19  0  0  0  0  0  0  0  0999 V2000
    3.9609    1.7875    0.7157 C   0  0  0  0  0  0  0  0  0  0  0  0
    3.1237    0.9435    0.4446 C   0  0  0  0  0  0  0  0  0  0  0  0
    2.0893   -0.0672    0.1108 C   0  0  0  0  0  0  0  0  0  0  0  0
    0.8412    0.5104    0.1304 O   0  0  0  0  0  0  0  0  0  0  0  0
   -0.2134   -0.3123   -0.1850 C   0  0  0  0  0  0  0  0  0  0  0  0
   -0.9937    0.3072   -1.2903 C   0  0  0  0  0  0  0  0  0  0  0  0
   -2.2674    0.0602   -1.1180 C   0  0  0  0  0  0  0  0  0  0  0  0
   -2.4977   -0.7496    0.1117 C   0  0  0  0  0  0  0  0  0  0  0  0
   -1.2297   -0.4439    0.9096 C   0  0  0  0  0  0  0  0  0  0  0  0
    4.6755    2.5195    0.9478 H   0  0  0  0  0  0  0  0  0  0  0  0
    2.1907   -0.9220    0.8054 H   0  0  0  0  0  0  0  0  0  0  0  0
    2.2722   -0.4591   -0.9094 H   0  0  0  0  0  0  0  0  0  0  0  0
    0.1157   -1.3577   -0.4348 H   0  0  0  0  0  0  0  0  0  0  0  0
   -0.5942    0.8926   -2.1348 H   0  0  0  0  0  0  0  0  0  0  0  0
   -3.0829    0.3836   -1.7618 H   0  0  0  0  0  0  0  0  0  0  0  0
   -3.4044   -0.4257    0.6620 H   0  0  0  0  0  0  0  0  0  0  0  0
   -2.5836   -1.8378   -0.0974 H   0  0  0  0  0  0  0  0  0  0  0  0
   -1.0179   -1.3063    1.5984 H   0  0  0  0  0  0  0  0  0  0  0  0
   -1.3843    0.4774    1.4950 H   0  0  0  0  0  0  0  0  0  0  0  0
  1  2  3  0
  2  3  1  0
  3  4  1  0
  4  5  1  0
  5  6  1  0
  6  7  2  0
  7  8  1  0
  8  9  1  0
  9  5  1  0
  1 10  1  0
  3 11  1  0
  3 12  1  0
  5 13  1  0
  6 14  1  0
  7 15  1  0
  8 16  1  0
  8 17  1  0
  9 18  1  0
  9 19  1  0
M  END
