
     RDKit          3D

 21 21  0  0  0  0  0  0  0  0999 V2000
    3.2866    3.5951   -1.1326 C   0  0  0  0  0  0  0  0  0  0  0  0
    2.8343    2.5368   -0.6588 C   0  0  0  0  0  0  0  0  0  0  0  0
    2.2762    1.2961   -0.0978 C   0  0  0  0  0  0  0  0  0  0  0  0
    0.8681    1.3608   -0.2413 O   0  0  0  0  0  0  0  0  0  0  0  0
    0.2546    0.2451    0.2711 C   0  0  0  0  0  0  0  0  0  0  0  0
   -1.2629    0.2447    0.1068 C   0  0  0  0  0  0  0  0  0  0  0  0
   -1.7182   -1.0579    0.7789 C   0  0  0  0  0  0  0  0  0  0  0  0
   -1.1331   -2.2863    0.1874 C   0  0  0  0  0  0  0  0  0  0  0  0
   -2.5756   -2.0175    0.0015 C   0  0  0  0  0  0  0  0  0  0  0  0
    3.6273    4.4025   -1.4919 H   0  0  0  0  0  0  0  0  0  0  0  0
    2.5222    1.2221    1.0022 H   0  0  0  0  0  0  0  0  0  0  0  0
    2.6589    0.4425   -0.6418 H   0  0  0  0  0  0  0  0  0  0  0  0
    0.5445    0.0756    1.3163 H   0  0  0  0  0  0  0  0  0  0  0  0
    0.5922   -0.6240   -0.3832 H   0  0  0  0  0  0  0  0  0  0  0  0
   -1.4735    0.1487   -0.9811 H   0  0  0  0  0  0  0  0  0  0  0  0
   -1.7545    1.1206    0.5522 H   0  0  0  0  0  0  0  0  0  0  0  0
   -1.9750   -1.0254    1.8610 H   0  0  0  0  0  0  0  0  0  0  0  0
   -0.4755   -2.2354   -0.7271 H   0  0  0  0  0  0  0  0  0  0  0  0
   -0.8548   -3.1568    0.8081 H   0  0  0  0  0  0  0  0  0  0  0  0
   -2.9638   -1.6197   -0.9580 H   0  0  0  0  0  0  0  0  0  0  0  0
   -3.2779   -2.6677    0.5478 H   0  0  0  0  0  0  0  0  0  0  0  0
  1  2  3  0
  2  3  1  0
  3  4  1  0
  4  5  1  0
  5  6  1  0
  6  7  1  0
  7  8  1  0
  8  9  1  0
  9  7  1  0
  1 10  1  0
  3 11  1  0
  3 12  1  0
  5 13  1  0
  5 14  1  0
  6 15  1  0
  6 16  1  0
  7 17  1  0
  8 18  1  0
  8 19  1  0
  9 20  1  0
  9 21  1  0
M  END
