
     RDKit          3D

 19 18  0  0  0  0  0  0  0  0999 V2000
    0.9383    1.8329   -1.8483 C   0  0  0  0  0  0  0  0  0  0  0  0
    0.5002    0.9174   -1.2131 C   0  0  0  0  0  0  0  0  0  0  0  0
   -0.0638   -0.2128   -0.4041 C   0  0  0  0  0  0  0  0  0  0  0  0
    0.2235   -1.4529   -1.1996 C   0  0  0  0  0  0  0  0  0  0  0  0
    0.7600   -0.2076    0.8709 C   0  0  0  0  0  0  0  0  0  0  0  0
    0.5609    1.1629    1.5332 C   0  0  0  0  0  0  0  0  0  0  0  0
   -1.3972    0.0796   -0.1919 O   0  0  0  0  0  0  0  0  0  0  0  0
   -2.3280   -0.6841    0.4838 C   0  0  0  0  0  0  0  0  0  0  0  0
   -1.9299   -1.7756    0.9728 O   0  0  0  0  0  0  0  0  0  0  0  0
    1.3345    2.6217   -2.4090 H   0  0  0  0  0  0  0  0  0  0  0  0
   -0.0878   -2.3900   -0.7060 H   0  0  0  0  0  0  0  0  0  0  0  0
   -0.2852   -1.3195   -2.1936 H   0  0  0  0  0  0  0  0  0  0  0  0
    1.3193   -1.4385   -1.4326 H   0  0  0  0  0  0  0  0  0  0  0  0
    0.5303   -1.0237    1.5553 H   0  0  0  0  0  0  0  0  0  0  0  0
    1.8365   -0.2509    0.5985 H   0  0  0  0  0  0  0  0  0  0  0  0
    0.5618    1.0267    2.6263 H   0  0  0  0  0  0  0  0  0  0  0  0
   -0.4319    1.5874    1.2279 H   0  0  0  0  0  0  0  0  0  0  0  0
    1.3234    1.8641    1.1504 H   0  0  0  0  0  0  0  0  0  0  0  0
   -3.3650   -0.3370    0.5793 H   0  0  0  0  0  0  0  0  0  0  0  0
  1  2  3  0
  2  3  1  0
  3  4  1  0
  3  5  1  0
  5  6  1  0
  3  7  1  0
  7  8  1  0
  8  9  2  0
  1 10  1  0
  4 11  1  0
  4 12  1  0
  4 13  1  0
  5 14  1  0
  5 15  1  0
  6 16  1  0
  6 17  1  0
  6 18  1  0
  8 19  1  0
M  END
