
     RDKit          3D

 17 17  0  0  0  0  0  0  0  0999 V2000
    2.0254    0.8047    1.9350 C   0  0  0  0  0  0  0  0  0  0  0  0
    1.7843    0.0697    0.7091 C   0  0  0  0  0  0  0  0  0  0  0  0
    1.5408   -0.6036   -0.4089 C   0  0  0  0  0  0  0  0  0  0  0  0
    0.3594   -0.3754   -1.3665 C   0  0  0  0  0  0  0  0  0  0  0  0
   -0.4893   -0.4384    0.2124 C   0  0  0  0  0  0  0  0  0  0  0  0
   -1.9102   -0.9371   -0.2154 C   0  0  0  0  0  0  0  0  0  0  0  0
   -0.4918    0.8979    0.3519 C   0  0  0  0  0  0  0  0  0  0  0  0
   -0.4725    2.1146    0.4790 C   0  0  0  0  0  0  0  0  0  0  0  0
    0.3802   -1.4916    0.1976 O   0  0  0  0  0  0  0  0  0  0  0  0
    2.1902    1.3311    2.8198 H   0  0  0  0  0  0  0  0  0  0  0  0
    2.2288   -1.3059   -0.7815 H   0  0  0  0  0  0  0  0  0  0  0  0
    0.2234    0.6330   -1.6539 H   0  0  0  0  0  0  0  0  0  0  0  0
   -0.0688   -1.1056   -1.9139 H   0  0  0  0  0  0  0  0  0  0  0  0
   -2.0924   -1.9238    0.1670 H   0  0  0  0  0  0  0  0  0  0  0  0
   -2.0406   -0.8236   -1.3511 H   0  0  0  0  0  0  0  0  0  0  0  0
   -2.7049   -0.2363    0.2216 H   0  0  0  0  0  0  0  0  0  0  0  0
   -0.4618    3.3903    0.5979 H   0  0  0  0  0  0  0  0  0  0  0  0
  1  2  3  0
  2  3  1  0
  3  4  1  0
  4  5  1  0
  5  6  1  0
  5  7  1  0
  7  8  3  0
  5  9  1  0
  9  3  1  0
  1 10  1  0
  3 11  1  0
  4 12  1  0
  4 13  1  0
  6 14  1  0
  6 15  1  0
  6 16  1  0
  8 17  1  0
M  END
