
     RDKit          3D

 21 21  0  0  0  0  0  0  0  0999 V2000
    1.3744    1.6888   -1.7236 C   0  0  0  0  0  0  0  0  0  0  0  0
    1.0540    1.0293   -0.7651 C   0  0  0  0  0  0  0  0  0  0  0  0
    0.6851    0.2444    0.3981 C   0  0  0  0  0  0  0  0  0  0  0  0
    1.2282   -1.1508    0.4450 C   0  0  0  0  0  0  0  0  0  0  0  0
    1.4246   -1.6426    1.8511 C   0  0  0  0  0  0  0  0  0  0  0  0
    0.1143   -1.5913   -0.2189 O   0  0  0  0  0  0  0  0  0  0  0  0
   -0.5949   -0.4924    0.2415 C   0  0  0  0  0  0  0  0  0  0  0  0
   -1.5382    0.0162   -0.8195 C   0  0  0  0  0  0  0  0  0  0  0  0
   -1.9752    1.4306   -0.6011 C   0  0  0  0  0  0  0  0  0  0  0  0
    1.6494    2.2658   -2.5888 H   0  0  0  0  0  0  0  0  0  0  0  0
    0.7795    0.7524    1.3720 H   0  0  0  0  0  0  0  0  0  0  0  0
    2.1507   -1.3289   -0.1470 H   0  0  0  0  0  0  0  0  0  0  0  0
    2.1078   -2.5429    1.8347 H   0  0  0  0  0  0  0  0  0  0  0  0
    0.4944   -1.8705    2.3834 H   0  0  0  0  0  0  0  0  0  0  0  0
    2.0399   -0.8539    2.3754 H   0  0  0  0  0  0  0  0  0  0  0  0
   -1.1147   -0.6361    1.2093 H   0  0  0  0  0  0  0  0  0  0  0  0
   -1.1112   -0.0688   -1.8303 H   0  0  0  0  0  0  0  0  0  0  0  0
   -2.4437   -0.6334   -0.8078 H   0  0  0  0  0  0  0  0  0  0  0  0
   -1.3887    1.8616    0.2336 H   0  0  0  0  0  0  0  0  0  0  0  0
   -3.0668    1.4873   -0.3502 H   0  0  0  0  0  0  0  0  0  0  0  0
   -1.8688    2.0352   -1.5358 H   0  0  0  0  0  0  0  0  0  0  0  0
  1  2  3  0
  2  3  1  0
  3  4  1  0
  4  5  1  0
  4  6  1  0
  6  7  1  0
  7  8  1  0
  8  9  1  0
  7  3  1  0
  1 10  1  0
  3 11  1  0
  4 12  1  0
  5 13  1  0
  5 14  1  0
  5 15  1  0
  7 16  1  0
  8 17  1  0
  8 18  1  0
  9 19  1  0
  9 20  1  0
  9 21  1  0
M  END
