
     RDKit          3D

 15 14  0  0  0  0  0  0  0  0999 V2000
    4.6626   -0.7596   -0.7765 C   0  0  0  0  0  0  0  0  0  0  0  0
    3.2564   -0.5179   -0.7265 C   0  0  0  0  0  0  0  0  0  0  0  0
    1.7572   -0.2594   -0.6994 C   0  0  0  0  0  0  0  0  0  0  0  0
    0.7239   -0.0658   -0.6913 C   0  0  0  0  0  0  0  0  0  0  0  0
   -0.0365    0.0717   -0.6726 C   0  0  0  0  0  0  0  0  0  0  0  0
   -1.5620    0.3611   -0.6653 O   0  0  0  0  0  0  0  0  0  0  0  0
   -1.6643    0.0289    0.7955 C   0  0  0  0  0  0  0  0  0  0  0  0
   -2.8907    0.0848    1.5742 C   0  0  0  0  0  0  0  0  0  0  0  0
   -0.5087   -0.3113    1.2850 O   0  0  0  0  0  0  0  0  0  0  0  0
    6.0906   -1.0291   -0.8172 H   0  0  0  0  0  0  0  0  0  0  0  0
   -0.1080    1.6379   -0.5319 H   0  0  0  0  0  0  0  0  0  0  0  0
   -0.2257    0.8164   -2.0689 H   0  0  0  0  0  0  0  0  0  0  0  0
   -3.2968    1.0373    1.8126 H   0  0  0  0  0  0  0  0  0  0  0  0
   -2.6565   -0.3986    2.5871 H   0  0  0  0  0  0  0  0  0  0  0  0
   -3.5414   -0.6962    1.0862 H   0  0  0  0  0  0  0  0  0  0  0  0
  1  2  3  0
  2  3  1  0
  3  4  3  0
  4  5  1  0
  5  6  1  0
  6  7  1  0
  7  8  1  0
  7  9  2  0
  1 10  1  0
  5 11  1  0
  5 12  1  0
  8 13  1  0
  8 14  1  0
  8 15  1  0
M  END
