
     RDKit          3D

 19 19  0  0  0  0  0  0  0  0999 V2000
    1.8106    2.0545    1.1654 C   0  0  0  0  0  0  0  0  0  0  0  0
    1.6291    1.1932    0.3324 C   0  0  0  0  0  0  0  0  0  0  0  0
    1.4327    0.1622   -0.6792 C   0  0  0  0  0  0  0  0  0  0  0  0
    0.0909   -0.4847   -0.5375 C   0  0  0  0  0  0  0  0  0  0  0  0
   -0.0822   -1.4651   -1.5082 O   0  0  0  0  0  0  0  0  0  0  0  0
   -1.0509    0.4814   -0.5404 C   0  0  0  0  0  0  0  0  0  0  0  0
   -2.0189   -0.1621    0.4393 C   0  0  0  0  0  0  0  0  0  0  0  0
   -1.4869   -1.4017    0.7645 O   0  0  0  0  0  0  0  0  0  0  0  0
   -0.0962   -1.1573    0.8064 C   0  0  0  0  0  0  0  0  0  0  0  0
    1.9894    2.8149    1.8994 H   0  0  0  0  0  0  0  0  0  0  0  0
    2.2129   -0.6067   -0.5579 H   0  0  0  0  0  0  0  0  0  0  0  0
    1.5060    0.5596   -1.7095 H   0  0  0  0  0  0  0  0  0  0  0  0
    0.7803   -1.7053   -1.9394 H   0  0  0  0  0  0  0  0  0  0  0  0
   -0.7670    1.5031   -0.2288 H   0  0  0  0  0  0  0  0  0  0  0  0
   -1.4785    0.5690   -1.5578 H   0  0  0  0  0  0  0  0  0  0  0  0
   -3.0184   -0.2568   -0.0425 H   0  0  0  0  0  0  0  0  0  0  0  0
   -2.0675    0.4626    1.3459 H   0  0  0  0  0  0  0  0  0  0  0  0
    0.4831   -2.0746    0.8961 H   0  0  0  0  0  0  0  0  0  0  0  0
    0.1314   -0.4864    1.6519 H   0  0  0  0  0  0  0  0  0  0  0  0
  1  2  3  0
  2  3  1  0
  3  4  1  0
  4  5  1  0
  4  6  1  0
  6  7  1  0
  7  8  1  0
  8  9  1  0
  9  4  1  0
  1 10  1  0
  3 11  1  0
  3 12  1  0
  5 13  1  0
  6 14  1  0
  6 15  1  0
  7 16  1  0
  7 17  1  0
  9 18  1  0
  9 19  1  0
M  END
