
     RDKit          3D

 18 18  0  0  0  0  0  0  0  0999 V2000
   -0.1753    1.5637   -2.6323 C   0  0  0  0  0  0  0  0  0  0  0  0
   -0.1293    0.9062   -1.5348 C   0  0  0  0  0  0  0  0  0  0  0  0
   -0.0790    0.1555   -0.3301 C   0  0  0  0  0  0  0  0  0  0  0  0
    1.2892   -0.2833    0.1151 C   0  0  0  0  0  0  0  0  0  0  0  0
    1.3764   -1.0531    1.3761 C   0  0  0  0  0  0  0  0  0  0  0  0
   -1.1936   -0.8666   -0.0840 C   0  0  0  0  0  0  0  0  0  0  0  0
   -1.1359    0.4480    0.6674 C   0  0  0  0  0  0  0  0  0  0  0  0
   -2.1113    1.3865    0.3163 O   0  0  0  0  0  0  0  0  0  0  0  0
   -0.2019    2.1066   -3.5663 H   0  0  0  0  0  0  0  0  0  0  0  0
    1.9361    0.6334    0.2338 H   0  0  0  0  0  0  0  0  0  0  0  0
    1.8044   -0.8745   -0.6976 H   0  0  0  0  0  0  0  0  0  0  0  0
    1.0236   -0.4484    2.2644 H   0  0  0  0  0  0  0  0  0  0  0  0
    0.7383   -1.9512    1.2855 H   0  0  0  0  0  0  0  0  0  0  0  0
    2.4309   -1.4006    1.5902 H   0  0  0  0  0  0  0  0  0  0  0  0
   -1.9662   -0.9530   -0.9072 H   0  0  0  0  0  0  0  0  0  0  0  0
   -1.0173   -1.7831    0.4566 H   0  0  0  0  0  0  0  0  0  0  0  0
   -0.9360    0.3883    1.7514 H   0  0  0  0  0  0  0  0  0  0  0  0
   -1.6532    2.0256   -0.3043 H   0  0  0  0  0  0  0  0  0  0  0  0
  1  2  3  0
  2  3  1  0
  3  4  1  0
  4  5  1  0
  3  6  1  0
  6  7  1  0
  7  8  1  0
  7  3  1  0
  1  9  1  0
  4 10  1  0
  4 11  1  0
  5 12  1  0
  5 13  1  0
  5 14  1  0
  6 15  1  0
  6 16  1  0
  7 17  1  0
  8 18  1  0
M  END
