
     RDKit          3D

 19 19  0  0  0  0  0  0  0  0999 V2000
    0.4252    2.3782   -0.2840 C   0  0  0  0  0  0  0  0  0  0  0  0
    0.2772    1.1906   -0.1142 C   0  0  0  0  0  0  0  0  0  0  0  0
    0.0812   -0.2421    0.0986 C   0  0  0  0  0  0  0  0  0  0  0  0
    1.2960   -1.0821    0.1977 C   0  0  0  0  0  0  0  0  0  0  0  0
    2.6172   -0.4228    0.0761 C   0  0  0  0  0  0  0  0  0  0  0  0
    1.1821   -2.2665    0.3727 O   0  0  0  0  0  0  0  0  0  0  0  0
   -1.0404   -0.8603   -0.6606 C   0  0  0  0  0  0  0  0  0  0  0  0
   -1.1620   -0.5972    0.8197 C   0  0  0  0  0  0  0  0  0  0  0  0
   -2.1292    0.4932    1.1794 C   0  0  0  0  0  0  0  0  0  0  0  0
    0.5362    3.4178   -0.4311 H   0  0  0  0  0  0  0  0  0  0  0  0
    3.4545   -1.1361    0.2083 H   0  0  0  0  0  0  0  0  0  0  0  0
    2.7677    0.0588   -0.9100 H   0  0  0  0  0  0  0  0  0  0  0  0
    2.6464    0.4128    0.8224 H   0  0  0  0  0  0  0  0  0  0  0  0
   -0.9713   -1.9538   -0.9312 H   0  0  0  0  0  0  0  0  0  0  0  0
   -1.6462   -0.2892   -1.3780 H   0  0  0  0  0  0  0  0  0  0  0  0
   -1.1225   -1.4536    1.5334 H   0  0  0  0  0  0  0  0  0  0  0  0
   -2.9693    0.0564    1.7526 H   0  0  0  0  0  0  0  0  0  0  0  0
   -2.6044    0.9525    0.2682 H   0  0  0  0  0  0  0  0  0  0  0  0
   -1.6383    1.3434    1.7059 H   0  0  0  0  0  0  0  0  0  0  0  0
  1  2  3  0
  2  3  1  0
  3  4  1  0
  4  5  1  0
  4  6  2  0
  3  7  1  0
  7  8  1  0
  8  9  1  0
  8  3  1  0
  1 10  1  0
  5 11  1  0
  5 12  1  0
  5 13  1  0
  7 14  1  0
  7 15  1  0
  8 16  1  0
  9 17  1  0
  9 18  1  0
  9 19  1  0
M  END
