
     RDKit          3D

 19 20  0  0  0  0  0  0  0  0999 V2000
   -0.0998    1.9104   -2.9370 C   0  0  0  0  0  0  0  0  0  0  0  0
   -0.4775    0.8658   -2.1341 C   0  0  0  0  0  0  0  0  0  0  0  0
   -0.8474   -0.0940   -1.3976 C   0  0  0  0  0  0  0  0  0  0  0  0
    0.0251   -1.3803   -1.3100 C   0  0  0  0  0  0  0  0  0  0  0  0
    0.0137   -0.4595   -0.1880 C   0  0  0  0  0  0  0  0  0  0  0  0
   -0.5935   -0.7893    1.1376 C   0  0  0  0  0  0  0  0  0  0  0  0
    0.1483    0.1756    2.0483 C   0  0  0  0  0  0  0  0  0  0  0  0
    1.4331    0.2308    1.4534 O   0  0  0  0  0  0  0  0  0  0  0  0
    1.1459    0.4758    0.1244 C   0  0  0  0  0  0  0  0  0  0  0  0
    0.2085    2.7641   -3.6050 H   0  0  0  0  0  0  0  0  0  0  0  0
   -1.9632   -0.3557   -1.1431 H   0  0  0  0  0  0  0  0  0  0  0  0
    0.9150   -1.4079   -1.9890 H   0  0  0  0  0  0  0  0  0  0  0  0
   -0.5305   -2.3383   -1.2880 H   0  0  0  0  0  0  0  0  0  0  0  0
   -0.3230   -1.8221    1.4260 H   0  0  0  0  0  0  0  0  0  0  0  0
   -1.6978   -0.6141    1.1323 H   0  0  0  0  0  0  0  0  0  0  0  0
   -0.3523    1.1466    2.0723 H   0  0  0  0  0  0  0  0  0  0  0  0
    0.2107   -0.2649    3.0596 H   0  0  0  0  0  0  0  0  0  0  0  0
    1.9897    0.4008   -0.5734 H   0  0  0  0  0  0  0  0  0  0  0  0
    0.7951    1.5562    0.0282 H   0  0  0  0  0  0  0  0  0  0  0  0
  1  2  3  0
  2  3  1  0
  3  4  1  0
  4  5  1  0
  5  6  1  0
  6  7  1  0
  7  8  1  0
  8  9  1  0
  5  3  1  0
  9  5  1  0
  1 10  1  0
  3 11  1  0
  4 12  1  0
  4 13  1  0
  6 14  1  0
  6 15  1  0
  7 16  1  0
  7 17  1  0
  9 18  1  0
  9 19  1  0
M  END
