
     RDKit          3D

 21 22  0  0  0  0  0  0  0  0999 V2000
    2.0517    3.6255    0.1449 C   0  0  0  0  0  0  0  0  0  0  0  0
    1.4540    2.6114    0.4086 C   0  0  0  0  0  0  0  0  0  0  0  0
    0.7474    1.3634    0.7337 C   0  0  0  0  0  0  0  0  0  0  0  0
    1.5082    0.1182    0.7723 C   0  0  0  0  0  0  0  0  0  0  0  0
    0.7034    0.3560   -0.4202 C   0  0  0  0  0  0  0  0  0  0  0  0
   -0.6382   -0.2214   -0.6699 C   0  0  0  0  0  0  0  0  0  0  0  0
   -1.2915   -0.9820    0.4373 C   0  0  0  0  0  0  0  0  0  0  0  0
   -1.8830   -1.8968   -0.6449 C   0  0  0  0  0  0  0  0  0  0  0  0
   -0.6524   -1.5200   -1.4788 C   0  0  0  0  0  0  0  0  0  0  0  0
    2.5822    4.5166   -0.0739 H   0  0  0  0  0  0  0  0  0  0  0  0
   -0.1645    1.4824    1.3551 H   0  0  0  0  0  0  0  0  0  0  0  0
    1.1443   -0.6658    1.4988 H   0  0  0  0  0  0  0  0  0  0  0  0
    2.6070    0.0726    0.6581 H   0  0  0  0  0  0  0  0  0  0  0  0
    1.2634    0.6321   -1.3585 H   0  0  0  0  0  0  0  0  0  0  0  0
   -1.3449    0.5242   -1.0933 H   0  0  0  0  0  0  0  0  0  0  0  0
   -0.6441   -1.5950    1.0823 H   0  0  0  0  0  0  0  0  0  0  0  0
   -2.0597   -0.4262    1.0072 H   0  0  0  0  0  0  0  0  0  0  0  0
   -1.9359   -2.9549   -0.3643 H   0  0  0  0  0  0  0  0  0  0  0  0
   -2.8166   -1.4819   -1.0758 H   0  0  0  0  0  0  0  0  0  0  0  0
    0.2070   -2.1665   -1.1963 H   0  0  0  0  0  0  0  0  0  0  0  0
   -0.8378   -1.3917   -2.5446 H   0  0  0  0  0  0  0  0  0  0  0  0
  1  2  3  0
  2  3  1  0
  3  4  1  0
  4  5  1  0
  5  6  1  0
  6  7  1  0
  7  8  1  0
  8  9  1  0
  5  3  1  0
  9  6  1  0
  1 10  1  0
  3 11  1  0
  4 12  1  0
  4 13  1  0
  5 14  1  0
  6 15  1  0
  7 16  1  0
  7 17  1  0
  8 18  1  0
  8 19  1  0
  9 20  1  0
  9 21  1  0
M  END
