
     RDKit          3D

 21 20  0  0  0  0  0  0  0  0999 V2000
    4.7206    0.4795   -1.2447 C   0  0  0  0  0  0  0  0  0  0  0  0
    3.6148    0.4094   -0.9142 C   0  0  0  0  0  0  0  0  0  0  0  0
    2.3967    0.3169   -0.5467 C   0  0  0  0  0  0  0  0  0  0  0  0
    1.1548    0.2149   -0.1500 C   0  0  0  0  0  0  0  0  0  0  0  0
   -0.1400    0.0862    0.2628 C   0  0  0  0  0  0  0  0  0  0  0  0
   -1.2620    0.3070   -0.6065 C   0  0  0  0  0  0  0  0  0  0  0  0
   -1.2780    1.7068   -1.2088 C   0  0  0  0  0  0  0  0  0  0  0  0
   -0.2203   -1.2511    1.0656 C   0  0  0  0  0  0  0  0  0  0  0  0
   -1.6672   -1.5381    1.4870 C   0  0  0  0  0  0  0  0  0  0  0  0
    5.8472    0.5624   -1.5636 H   0  0  0  0  0  0  0  0  0  0  0  0
   -0.2780    0.8172    1.2543 H   0  0  0  0  0  0  0  0  0  0  0  0
   -1.3847   -0.4730   -1.3667 H   0  0  0  0  0  0  0  0  0  0  0  0
   -2.2653    0.2304   -0.0170 H   0  0  0  0  0  0  0  0  0  0  0  0
   -0.1891    2.0279   -1.2510 H   0  0  0  0  0  0  0  0  0  0  0  0
   -1.8211    2.4395   -0.5444 H   0  0  0  0  0  0  0  0  0  0  0  0
   -1.7297    1.7785   -2.1773 H   0  0  0  0  0  0  0  0  0  0  0  0
    0.1873   -2.0358    0.4878 H   0  0  0  0  0  0  0  0  0  0  0  0
    0.2962   -1.0965    2.0640 H   0  0  0  0  0  0  0  0  0  0  0  0
   -1.6912   -2.5197    2.0510 H   0  0  0  0  0  0  0  0  0  0  0  0
   -1.9596   -0.8056    2.2712 H   0  0  0  0  0  0  0  0  0  0  0  0
   -2.3312   -1.6565    0.6473 H   0  0  0  0  0  0  0  0  0  0  0  0
  1  2  3  0
  2  3  1  0
  3  4  3  0
  4  5  1  0
  5  6  1  0
  6  7  1  0
  5  8  1  0
  8  9  1  0
  1 10  1  0
  5 11  1  0
  6 12  1  0
  6 13  1  0
  7 14  1  0
  7 15  1  0
  7 16  1  0
  8 17  1  0
  8 18  1  0
  9 19  1  0
  9 20  1  0
  9 21  1  0
M  END
