
     RDKit          3D

 15 15  0  0  0  0  0  0  0  0999 V2000
   -0.1985    2.0546   -2.2591 C   0  0  0  0  0  0  0  0  0  0  0  0
   -0.1304    1.3089   -1.1208 C   0  0  0  0  0  0  0  0  0  0  0  0
   -0.0770    0.5231    0.1110 C   0  0  0  0  0  0  0  0  0  0  0  0
   -1.4815    0.2079    0.5750 C   0  0  0  0  0  0  0  0  0  0  0  0
    0.7930   -0.6777   -0.1194 C   0  0  0  0  0  0  0  0  0  0  0  0
    1.0843   -1.6725    0.8929 C   0  0  0  0  0  0  0  0  0  0  0  0
    1.9812   -0.5590    0.7985 O   0  0  0  0  0  0  0  0  0  0  0  0
   -0.2513    2.5135   -2.9453 H   0  0  0  0  0  0  0  0  0  0  0  0
    0.4480    1.2014    0.8533 H   0  0  0  0  0  0  0  0  0  0  0  0
   -1.6355    0.2812    1.6544 H   0  0  0  0  0  0  0  0  0  0  0  0
   -2.1904    0.8358   -0.0414 H   0  0  0  0  0  0  0  0  0  0  0  0
   -1.6785   -0.8637    0.2849 H   0  0  0  0  0  0  0  0  0  0  0  0
    1.1875   -0.8420   -1.1528 H   0  0  0  0  0  0  0  0  0  0  0  0
    1.6069   -2.5812    0.5822 H   0  0  0  0  0  0  0  0  0  0  0  0
    0.5423   -1.7303    1.8866 H   0  0  0  0  0  0  0  0  0  0  0  0
  1  2  3  0
  2  3  1  0
  3  4  1  0
  3  5  1  0
  5  6  1  0
  6  7  1  0
  7  5  1  0
  1  8  1  0
  3  9  1  0
  4 10  1  0
  4 11  1  0
  4 12  1  0
  5 13  1  0
  6 14  1  0
  6 15  1  0
M  END
