
     RDKit          3D

 18 18  0  0  0  0  0  0  0  0999 V2000
   -1.2845   -2.5562    0.6669 C   0  0  0  0  0  0  0  0  0  0  0  0
   -0.8037   -1.4693    0.5683 C   0  0  0  0  0  0  0  0  0  0  0  0
   -0.2058   -0.1405    0.4234 C   0  0  0  0  0  0  0  0  0  0  0  0
    1.2815   -0.1972    0.6585 C   0  0  0  0  0  0  0  0  0  0  0  0
    1.9947    1.1085    0.5350 C   0  0  0  0  0  0  0  0  0  0  0  0
   -0.5383    0.4565   -0.9235 C   0  0  0  0  0  0  0  0  0  0  0  0
   -1.9493    0.6633   -1.2877 C   0  0  0  0  0  0  0  0  0  0  0  0
   -1.3126   -0.4857   -1.7164 O   0  0  0  0  0  0  0  0  0  0  0  0
   -1.7268   -3.5489    0.7636 H   0  0  0  0  0  0  0  0  0  0  0  0
   -0.6575    0.5193    1.1708 H   0  0  0  0  0  0  0  0  0  0  0  0
    1.7908   -0.9254   -0.0164 H   0  0  0  0  0  0  0  0  0  0  0  0
    1.4663   -0.5965    1.6937 H   0  0  0  0  0  0  0  0  0  0  0  0
    1.5933    1.7848   -0.2556 H   0  0  0  0  0  0  0  0  0  0  0  0
    2.0165    1.6297    1.5168 H   0  0  0  0  0  0  0  0  0  0  0  0
    3.0578    0.9141    0.2549 H   0  0  0  0  0  0  0  0  0  0  0  0
    0.2617    0.9588   -1.5106 H   0  0  0  0  0  0  0  0  0  0  0  0
   -2.7235    0.4611   -0.5166 H   0  0  0  0  0  0  0  0  0  0  0  0
   -2.2606    1.4235   -2.0251 H   0  0  0  0  0  0  0  0  0  0  0  0
  1  2  3  0
  2  3  1  0
  3  4  1  0
  4  5  1  0
  3  6  1  0
  6  7  1  0
  7  8  1  0
  8  6  1  0
  1  9  1  0
  3 10  1  0
  4 11  1  0
  4 12  1  0
  5 13  1  0
  5 14  1  0
  5 15  1  0
  6 16  1  0
  7 17  1  0
  7 18  1  0
M  END
