
     RDKit          3D

 19 19  0  0  0  0  0  0  0  0999 V2000
   -0.1767    2.4734    0.7097 C   0  0  0  0  0  0  0  0  0  0  0  0
   -0.4986    1.3926    0.2246 C   0  0  0  0  0  0  0  0  0  0  0  0
   -0.8866    0.1203   -0.3736 C   0  0  0  0  0  0  0  0  0  0  0  0
   -1.0568    0.3021   -1.8932 C   0  0  0  0  0  0  0  0  0  0  0  0
   -2.1587   -0.2085    0.0901 O   0  0  0  0  0  0  0  0  0  0  0  0
    0.1332   -0.9084   -0.1503 C   0  0  0  0  0  0  0  0  0  0  0  0
    0.5716   -1.3584    1.1903 C   0  0  0  0  0  0  0  0  0  0  0  0
    1.4874   -0.5525    0.2987 C   0  0  0  0  0  0  0  0  0  0  0  0
    1.8326    0.6674    0.8458 O   0  0  0  0  0  0  0  0  0  0  0  0
    0.0881    3.4072    1.1361 H   0  0  0  0  0  0  0  0  0  0  0  0
   -1.0043   -0.6448   -2.4232 H   0  0  0  0  0  0  0  0  0  0  0  0
   -2.0047    0.8518   -2.0521 H   0  0  0  0  0  0  0  0  0  0  0  0
   -0.2221    0.9786   -2.1875 H   0  0  0  0  0  0  0  0  0  0  0  0
   -2.1639   -0.9811    0.6986 H   0  0  0  0  0  0  0  0  0  0  0  0
    0.1165   -1.7533   -0.9112 H   0  0  0  0  0  0  0  0  0  0  0  0
    0.8955   -2.3876    1.3568 H   0  0  0  0  0  0  0  0  0  0  0  0
    0.1111   -0.8760    2.0831 H   0  0  0  0  0  0  0  0  0  0  0  0
    2.3650   -1.0706   -0.1546 H   0  0  0  0  0  0  0  0  0  0  0  0
    2.5716    0.5477    1.5118 H   0  0  0  0  0  0  0  0  0  0  0  0
  1  2  3  0
  2  3  1  0
  3  4  1  0
  3  5  1  0
  3  6  1  0
  6  7  1  0
  7  8  1  0
  8  9  1  0
  8  6  1  0
  1 10  1  0
  4 11  1  0
  4 12  1  0
  4 13  1  0
  5 14  1  0
  6 15  1  0
  7 16  1  0
  7 17  1  0
  8 18  1  0
  9 19  1  0
M  END
