
     RDKit          3D

 17 17  0  0  0  0  0  0  0  0999 V2000
    0.5174    2.5043   -1.1826 C   0  0  0  0  0  0  0  0  0  0  0  0
    0.8617    1.6625   -0.3886 C   0  0  0  0  0  0  0  0  0  0  0  0
    1.2996    0.6494    0.5932 C   0  0  0  0  0  0  0  0  0  0  0  0
    2.5788    0.2191    0.3047 O   0  0  0  0  0  0  0  0  0  0  0  0
    0.3232   -0.4889    0.6594 C   0  0  0  0  0  0  0  0  0  0  0  0
    0.2363   -1.1963   -0.5292 O   0  0  0  0  0  0  0  0  0  0  0  0
   -1.0966   -1.6364   -0.6197 C   0  0  0  0  0  0  0  0  0  0  0  0
   -1.8249   -0.4814    0.0246 C   0  0  0  0  0  0  0  0  0  0  0  0
   -0.9383   -0.0406    0.9726 O   0  0  0  0  0  0  0  0  0  0  0  0
    0.1987    3.2369   -1.8869 H   0  0  0  0  0  0  0  0  0  0  0  0
    1.3371    1.0920    1.6281 H   0  0  0  0  0  0  0  0  0  0  0  0
    3.2643    0.5692    0.9108 H   0  0  0  0  0  0  0  0  0  0  0  0
    0.6771   -1.1798    1.4533 H   0  0  0  0  0  0  0  0  0  0  0  0
   -1.3523   -1.7728   -1.6811 H   0  0  0  0  0  0  0  0  0  0  0  0
   -1.2594   -2.5746   -0.0865 H   0  0  0  0  0  0  0  0  0  0  0  0
   -2.7311   -0.8523    0.5485 H   0  0  0  0  0  0  0  0  0  0  0  0
   -2.0916    0.2897   -0.7206 H   0  0  0  0  0  0  0  0  0  0  0  0
  1  2  3  0
  2  3  1  0
  3  4  1  0
  3  5  1  0
  5  6  1  0
  6  7  1  0
  7  8  1  0
  8  9  1  0
  9  5  1  0
  1 10  1  0
  3 11  1  0
  4 12  1  0
  5 13  1  0
  7 14  1  0
  7 15  1  0
  8 16  1  0
  8 17  1  0
M  END
