
     RDKit          3D

 19 20  0  0  0  0  0  0  0  0999 V2000
    2.8788   -0.6202   -0.7055 C   0  0  0  0  0  0  0  0  0  0  0  0
    1.9797   -0.0566   -0.0875 C   0  0  0  0  0  0  0  0  0  0  0  0
    0.8995    0.5913    0.6464 C   0  0  0  0  0  0  0  0  0  0  0  0
    0.2487    1.6688    0.0289 C   0  0  0  0  0  0  0  0  0  0  0  0
   -0.5647    2.4638    0.8484 O   0  0  0  0  0  0  0  0  0  0  0  0
   -1.5184    1.6551    0.3100 C   0  0  0  0  0  0  0  0  0  0  0  0
   -0.5148    0.5313    0.0095 C   0  0  0  0  0  0  0  0  0  0  0  0
   -1.0168   -0.7587    0.2097 C   0  0  0  0  0  0  0  0  0  0  0  0
   -0.1784   -1.8639   -0.4132 C   0  0  0  0  0  0  0  0  0  0  0  0
    3.6591   -1.1107   -1.2210 H   0  0  0  0  0  0  0  0  0  0  0  0
    0.9628    0.4617    1.7395 H   0  0  0  0  0  0  0  0  0  0  0  0
    0.5437    2.2037   -0.8983 H   0  0  0  0  0  0  0  0  0  0  0  0
   -2.3714    1.3584    0.9265 H   0  0  0  0  0  0  0  0  0  0  0  0
   -1.8402    2.0728   -0.6765 H   0  0  0  0  0  0  0  0  0  0  0  0
   -1.2048   -1.1140    1.2727 H   0  0  0  0  0  0  0  0  0  0  0  0
   -2.0483   -0.9071   -0.2420 H   0  0  0  0  0  0  0  0  0  0  0  0
   -0.7982   -2.7841   -0.5997 H   0  0  0  0  0  0  0  0  0  0  0  0
    0.6427   -2.1981    0.2410 H   0  0  0  0  0  0  0  0  0  0  0  0
    0.2409   -1.5934   -1.3887 H   0  0  0  0  0  0  0  0  0  0  0  0
  1  2  3  0
  2  3  1  0
  3  4  1  0
  4  5  1  0
  5  6  1  0
  6  7  1  0
  7  8  1  0
  8  9  1  0
  7  3  1  0
  7  4  1  0
  1 10  1  0
  3 11  1  0
  4 12  1  0
  6 13  1  0
  6 14  1  0
  8 15  1  0
  8 16  1  0
  9 17  1  0
  9 18  1  0
  9 19  1  0
M  END
