
     RDKit          3D

 21 21  0  0  0  0  0  0  0  0999 V2000
   -1.6147    1.7926   -1.9188 C   0  0  0  0  0  0  0  0  0  0  0  0
   -1.3158    1.3125   -0.8529 C   0  0  0  0  0  0  0  0  0  0  0  0
   -0.9711    0.7354    0.4617 C   0  0  0  0  0  0  0  0  0  0  0  0
    0.5163    0.3748    0.6772 C   0  0  0  0  0  0  0  0  0  0  0  0
    1.3321    0.6325   -0.4222 O   0  0  0  0  0  0  0  0  0  0  0  0
    2.5609    1.0626    0.0612 C   0  0  0  0  0  0  0  0  0  0  0  0
   -0.5116   -0.6939    0.5278 C   0  0  0  0  0  0  0  0  0  0  0  0
   -0.6440   -1.4254   -0.8085 C   0  0  0  0  0  0  0  0  0  0  0  0
   -0.8123   -1.5180    1.7436 C   0  0  0  0  0  0  0  0  0  0  0  0
   -1.8987    2.2148   -2.8649 H   0  0  0  0  0  0  0  0  0  0  0  0
   -1.5171    1.1795    1.3025 H   0  0  0  0  0  0  0  0  0  0  0  0
    0.9261    0.5351    1.6964 H   0  0  0  0  0  0  0  0  0  0  0  0
    3.0098    0.2545    0.7061 H   0  0  0  0  0  0  0  0  0  0  0  0
    3.2676    1.3652   -0.7210 H   0  0  0  0  0  0  0  0  0  0  0  0
    2.3495    1.9523    0.7051 H   0  0  0  0  0  0  0  0  0  0  0  0
   -0.3146   -0.6872   -1.5809 H   0  0  0  0  0  0  0  0  0  0  0  0
   -0.0396   -2.3277   -0.8532 H   0  0  0  0  0  0  0  0  0  0  0  0
   -1.7299   -1.5795   -0.9652 H   0  0  0  0  0  0  0  0  0  0  0  0
   -0.2118   -2.4418    1.7046 H   0  0  0  0  0  0  0  0  0  0  0  0
   -1.9017   -1.7819    1.8217 H   0  0  0  0  0  0  0  0  0  0  0  0
   -0.4794   -0.9566    2.6340 H   0  0  0  0  0  0  0  0  0  0  0  0
  1  2  3  0
  2  3  1  0
  3  4  1  0
  4  5  1  0
  5  6  1  0
  4  7  1  0
  7  8  1  0
  7  9  1  0
  7  3  1  0
  1 10  1  0
  3 11  1  0
  4 12  1  0
  6 13  1  0
  6 14  1  0
  6 15  1  0
  8 16  1  0
  8 17  1  0
  8 18  1  0
  9 19  1  0
  9 20  1  0
  9 21  1  0
M  END
