
     RDKit          3D

 23 22  0  0  0  0  0  0  0  0999 V2000
    2.7159    0.5258   -0.6119 C   0  0  0  0  0  0  0  0  0  0  0  0
    1.6755    0.0256   -0.3010 C   0  0  0  0  0  0  0  0  0  0  0  0
    0.3972   -0.5637    0.0898 C   0  0  0  0  0  0  0  0  0  0  0  0
   -0.0401   -1.5889   -0.9632 C   0  0  0  0  0  0  0  0  0  0  0  0
    0.5156   -1.3221    1.3915 C   0  0  0  0  0  0  0  0  0  0  0  0
   -0.6616    0.4844    0.1427 C   0  0  0  0  0  0  0  0  0  0  0  0
   -0.3820    1.5867    1.1167 C   0  0  0  0  0  0  0  0  0  0  0  0
   -0.9207    1.0728   -1.2023 C   0  0  0  0  0  0  0  0  0  0  0  0
   -1.8506   -0.1508    0.5707 O   0  0  0  0  0  0  0  0  0  0  0  0
    3.6542    0.9694   -0.9047 H   0  0  0  0  0  0  0  0  0  0  0  0
   -0.9448   -2.0980   -0.6062 H   0  0  0  0  0  0  0  0  0  0  0  0
    0.8024   -2.2617   -1.1566 H   0  0  0  0  0  0  0  0  0  0  0  0
   -0.2587   -0.9982   -1.8732 H   0  0  0  0  0  0  0  0  0  0  0  0
    0.6028   -0.5916    2.2136 H   0  0  0  0  0  0  0  0  0  0  0  0
    1.4603   -1.9396    1.3468 H   0  0  0  0  0  0  0  0  0  0  0  0
   -0.2998   -2.0494    1.5173 H   0  0  0  0  0  0  0  0  0  0  0  0
   -0.3395    1.2172    2.1723 H   0  0  0  0  0  0  0  0  0  0  0  0
    0.5585    2.1054    0.9156 H   0  0  0  0  0  0  0  0  0  0  0  0
   -1.2720    2.2707    1.0954 H   0  0  0  0  0  0  0  0  0  0  0  0
   -1.6712    0.4955   -1.7833 H   0  0  0  0  0  0  0  0  0  0  0  0
   -1.3543    2.1098   -1.1138 H   0  0  0  0  0  0  0  0  0  0  0  0
   -0.0076    1.1083   -1.8448 H   0  0  0  0  0  0  0  0  0  0  0  0
   -2.3796   -0.4075   -0.2114 H   0  0  0  0  0  0  0  0  0  0  0  0
  1  2  3  0
  2  3  1  0
  3  4  1  0
  3  5  1  0
  3  6  1  0
  6  7  1  0
  6  8  1  0
  6  9  1  0
  1 10  1  0
  4 11  1  0
  4 12  1  0
  4 13  1  0
  5 14  1  0
  5 15  1  0
  5 16  1  0
  7 17  1  0
  7 18  1  0
  7 19  1  0
  8 20  1  0
  8 21  1  0
  8 22  1  0
  9 23  1  0
M  END
