
     RDKit          3D

 19 20  0  0  0  0  0  0  0  0999 V2000
    3.6156    0.1116    1.1821 C   0  0  0  0  0  0  0  0  0  0  0  0
    2.6074   -0.1243    0.6051 C   0  0  0  0  0  0  0  0  0  0  0  0
    1.3783   -0.3922   -0.1136 C   0  0  0  0  0  0  0  0  0  0  0  0
    0.6280    0.8377   -0.5990 C   0  0  0  0  0  0  0  0  0  0  0  0
   -0.6015    0.1167   -0.2067 C   0  0  0  0  0  0  0  0  0  0  0  0
    0.1647   -0.6496    0.7928 C   0  0  0  0  0  0  0  0  0  0  0  0
   -1.5297   -0.4398   -1.1759 C   0  0  0  0  0  0  0  0  0  0  0  0
   -1.9358    0.6219   -0.1261 C   0  0  0  0  0  0  0  0  0  0  0  0
   -2.7924    0.1865    0.8820 O   0  0  0  0  0  0  0  0  0  0  0  0
    4.5203    0.3110    1.7041 H   0  0  0  0  0  0  0  0  0  0  0  0
    1.4190   -1.1681   -0.8944 H   0  0  0  0  0  0  0  0  0  0  0  0
    0.8145    1.7044    0.0870 H   0  0  0  0  0  0  0  0  0  0  0  0
    0.7442    1.0579   -1.6718 H   0  0  0  0  0  0  0  0  0  0  0  0
   -0.1297   -1.6927    0.8829 H   0  0  0  0  0  0  0  0  0  0  0  0
    0.3654   -0.1189    1.7613 H   0  0  0  0  0  0  0  0  0  0  0  0
   -1.9117   -1.4655   -1.0112 H   0  0  0  0  0  0  0  0  0  0  0  0
   -1.4480   -0.0966   -2.2205 H   0  0  0  0  0  0  0  0  0  0  0  0
   -2.1875    1.6232   -0.5138 H   0  0  0  0  0  0  0  0  0  0  0  0
   -3.7215    0.3198    0.6357 H   0  0  0  0  0  0  0  0  0  0  0  0
  1  2  3  0
  2  3  1  0
  3  4  1  0
  4  5  1  0
  5  6  1  0
  5  7  1  0
  7  8  1  0
  8  9  1  0
  6  3  1  0
  8  5  1  0
  1 10  1  0
  3 11  1  0
  4 12  1  0
  4 13  1  0
  6 14  1  0
  6 15  1  0
  7 16  1  0
  7 17  1  0
  8 18  1  0
  9 19  1  0
M  END
