
     RDKit          3D

 19 20  0  0  0  0  0  0  0  0999 V2000
    2.5606    0.6003   -2.1193 C   0  0  0  0  0  0  0  0  0  0  0  0
    1.4733    0.5795   -1.3114 C   0  0  0  0  0  0  0  0  0  0  0  0
    0.3712    0.5639   -0.5214 C   0  0  0  0  0  0  0  0  0  0  0  0
    0.5890    0.6343    0.9826 C   0  0  0  0  0  0  0  0  0  0  0  0
   -0.8601    0.7518    1.3656 C   0  0  0  0  0  0  0  0  0  0  0  0
   -1.4609    0.5073   -0.0422 C   0  0  0  0  0  0  0  0  0  0  0  0
   -0.6608    1.4562   -0.7319 O   0  0  0  0  0  0  0  0  0  0  0  0
   -0.6566   -0.5430   -0.6862 C   0  0  0  0  0  0  0  0  0  0  0  0
   -0.4103   -1.8001    0.1336 C   0  0  0  0  0  0  0  0  0  0  0  0
    3.3449    0.6245   -2.6845 H   0  0  0  0  0  0  0  0  0  0  0  0
    1.1260   -0.2311    1.4122 H   0  0  0  0  0  0  0  0  0  0  0  0
    1.1945    1.5242    1.2074 H   0  0  0  0  0  0  0  0  0  0  0  0
   -1.0575    1.8140    1.6842 H   0  0  0  0  0  0  0  0  0  0  0  0
   -1.2282    0.0015    2.0831 H   0  0  0  0  0  0  0  0  0  0  0  0
   -2.5182    0.5998   -0.1317 H   0  0  0  0  0  0  0  0  0  0  0  0
   -0.8225   -0.7486   -1.7278 H   0  0  0  0  0  0  0  0  0  0  0  0
   -0.9827   -1.7899    1.0870 H   0  0  0  0  0  0  0  0  0  0  0  0
   -0.6688   -2.7308   -0.3923 H   0  0  0  0  0  0  0  0  0  0  0  0
    0.6672   -1.8135    0.3930 H   0  0  0  0  0  0  0  0  0  0  0  0
  1  2  3  0
  2  3  1  0
  3  4  1  0
  4  5  1  0
  5  6  1  0
  6  7  1  0
  6  8  1  0
  8  9  1  0
  7  3  1  0
  8  3  1  0
  1 10  1  0
  4 11  1  0
  4 12  1  0
  5 13  1  0
  5 14  1  0
  6 15  1  0
  8 16  1  0
  9 17  1  0
  9 18  1  0
  9 19  1  0
M  END
