
     RDKit          3D

 15 14  0  0  0  0  0  0  0  0999 V2000
    2.8023   -1.3790   -0.6730 C   0  0  0  0  0  0  0  0  0  0  0  0
    1.9531   -0.6392   -0.2383 C   0  0  0  0  0  0  0  0  0  0  0  0
    0.9233    0.2612    0.2797 C   0  0  0  0  0  0  0  0  0  0  0  0
   -0.4063   -0.0675   -0.4286 C   0  0  0  0  0  0  0  0  0  0  0  0
   -0.2560    0.0979   -1.8025 O   0  0  0  0  0  0  0  0  0  0  0  0
   -1.4939    0.8056    0.1064 C   0  0  0  0  0  0  0  0  0  0  0  0
   -1.9669    1.6395   -0.7041 O   0  0  0  0  0  0  0  0  0  0  0  0
   -1.9440    0.6636    1.4693 C   0  0  0  0  0  0  0  0  0  0  0  0
   -1.4757   -0.1635    2.2720 O   0  0  0  0  0  0  0  0  0  0  0  0
    3.5516   -2.0528   -1.0642 H   0  0  0  0  0  0  0  0  0  0  0  0
    0.8076    0.1190    1.3702 H   0  0  0  0  0  0  0  0  0  0  0  0
    1.2027    1.3244    0.0283 H   0  0  0  0  0  0  0  0  0  0  0  0
   -0.6655   -1.1130   -0.2186 H   0  0  0  0  0  0  0  0  0  0  0  0
   -0.2809   -0.8143   -2.2412 H   0  0  0  0  0  0  0  0  0  0  0  0
   -2.7514    1.3181    1.8445 H   0  0  0  0  0  0  0  0  0  0  0  0
  1  2  3  0
  2  3  1  0
  3  4  1  0
  4  5  1  0
  4  6  1  0
  6  7  2  0
  6  8  1  0
  8  9  2  0
  1 10  1  0
  3 11  1  0
  3 12  1  0
  4 13  1  0
  5 14  1  0
  8 15  1  0
M  END
