
     RDKit          3D

 19 18  0  0  0  0  0  0  0  0999 V2000
   -3.2066    1.0856   -2.4878 C   0  0  0  0  0  0  0  0  0  0  0  0
   -2.6958    0.5739   -1.3745 C   0  0  0  0  0  0  0  0  0  0  0  0
   -2.1722    0.0780   -0.2607 C   0  0  0  0  0  0  0  0  0  0  0  0
   -0.7547    0.3300    0.0976 C   0  0  0  0  0  0  0  0  0  0  0  0
    0.2678   -0.8409   -0.0695 C   0  0  0  0  0  0  0  0  0  0  0  0
    1.4518   -0.4016    0.6801 C   0  0  0  0  0  0  0  0  0  0  0  0
    2.3463   -1.7506    0.4224 O   0  0  0  0  0  0  0  0  0  0  0  0
    2.3764    0.4490    0.3486 C   0  0  0  0  0  0  0  0  0  0  0  0
    3.4805    1.4293   -0.0383 C   0  0  0  0  0  0  0  0  0  0  0  0
   -3.6078    1.5095   -3.3798 H   0  0  0  0  0  0  0  0  0  0  0  0
   -2.1155   -1.2173   -0.5697 H   0  0  0  0  0  0  0  0  0  0  0  0
   -2.8009   -0.0976    0.6756 H   0  0  0  0  0  0  0  0  0  0  0  0
   -0.5715    0.9222    1.0414 H   0  0  0  0  0  0  0  0  0  0  0  0
   -0.3721    0.9613   -0.8313 H   0  0  0  0  0  0  0  0  0  0  0  0
    0.4862   -1.1122   -1.1350 H   0  0  0  0  0  0  0  0  0  0  0  0
   -0.1214   -1.7302    0.4559 H   0  0  0  0  0  0  0  0  0  0  0  0
    1.3893   -0.5244    1.8531 H   0  0  0  0  0  0  0  0  0  0  0  0
    2.5783   -1.5793   -0.5401 H   0  0  0  0  0  0  0  0  0  0  0  0
    4.0420    1.9154   -0.2325 H   0  0  0  0  0  0  0  0  0  0  0  0
  1  2  3  0
  2  3  1  0
  3  4  1  0
  4  5  1  0
  5  6  1  0
  6  7  1  0
  6  8  1  0
  8  9  3  0
  1 10  1  0
  3 11  1  0
  3 12  1  0
  4 13  1  0
  4 14  1  0
  5 15  1  0
  5 16  1  0
  6 17  1  0
  7 18  1  0
  9 19  1  0
M  END
