
     RDKit          3D

 15 16  0  0  0  0  0  0  0  0999 V2000
   -0.1642    1.5463    1.8852 C   0  0  0  0  0  0  0  0  0  0  0  0
    0.2225    0.7737    1.1100 C   0  0  0  0  0  0  0  0  0  0  0  0
    0.7072   -0.2377    0.1272 C   0  0  0  0  0  0  0  0  0  0  0  0
    1.9928   -0.8199    0.1470 C   0  0  0  0  0  0  0  0  0  0  0  0
    2.8423   -1.3746    0.8333 O   0  0  0  0  0  0  0  0  0  0  0  0
    2.0766   -0.4981   -1.2579 O   0  0  0  0  0  0  0  0  0  0  0  0
    0.7713    0.1013   -1.3433 C   0  0  0  0  0  0  0  0  0  0  0  0
   -0.3352   -0.7609   -0.8148 C   0  0  0  0  0  0  0  0  0  0  0  0
   -1.7331   -0.1706   -0.6750 C   0  0  0  0  0  0  0  0  0  0  0  0
   -0.5050    2.2625    2.5843 H   0  0  0  0  0  0  0  0  0  0  0  0
    0.6378    1.1317   -1.6405 H   0  0  0  0  0  0  0  0  0  0  0  0
   -0.2637   -1.8250   -1.0629 H   0  0  0  0  0  0  0  0  0  0  0  0
   -1.8218    0.3425    0.3253 H   0  0  0  0  0  0  0  0  0  0  0  0
   -1.9435    0.5075   -1.5229 H   0  0  0  0  0  0  0  0  0  0  0  0
   -2.4839   -0.9786   -0.6667 H   0  0  0  0  0  0  0  0  0  0  0  0
  1  2  3  0
  2  3  1  0
  3  4  1  0
  4  5  2  0
  4  6  1  0
  6  7  1  0
  7  8  1  0
  8  9  1  0
  7  3  1  0
  8  3  1  0
  1 10  1  0
  7 11  1  0
  8 12  1  0
  9 13  1  0
  9 14  1  0
  9 15  1  0
M  END
