
     RDKit          3D

 14 14  0  0  0  0  0  0  0  0999 V2000
    2.0166   -0.3821   -1.8845 C   0  0  0  0  0  0  0  0  0  0  0  0
    0.8582   -0.2082   -1.0461 C   0  0  0  0  0  0  0  0  0  0  0  0
   -0.3672   -0.0130   -0.1281 C   0  0  0  0  0  0  0  0  0  0  0  0
   -1.4508   -0.7876   -0.2384 C   0  0  0  0  0  0  0  0  0  0  0  0
   -2.4559   -1.4796   -0.3369 C   0  0  0  0  0  0  0  0  0  0  0  0
   -0.2171    1.4945    0.1902 C   0  0  0  0  0  0  0  0  0  0  0  0
    0.4436    0.5107    1.0690 C   0  0  0  0  0  0  0  0  0  0  0  0
    0.1352   -0.1469    2.1955 O   0  0  0  0  0  0  0  0  0  0  0  0
    2.8937   -0.5096   -2.5420 H   0  0  0  0  0  0  0  0  0  0  0  0
   -3.4830   -2.1652   -0.4397 H   0  0  0  0  0  0  0  0  0  0  0  0
    0.5189    2.0590   -0.5607 H   0  0  0  0  0  0  0  0  0  0  0  0
   -1.0474    2.1328    0.4410 H   0  0  0  0  0  0  0  0  0  0  0  0
    1.6125    0.5382    1.0017 H   0  0  0  0  0  0  0  0  0  0  0  0
    0.5427   -1.0429    2.2789 H   0  0  0  0  0  0  0  0  0  0  0  0
  1  2  3  0
  2  3  1  0
  3  4  1  0
  4  5  3  0
  3  6  1  0
  6  7  1  0
  7  8  1  0
  7  3  1  0
  1  9  1  0
  5 10  1  0
  6 11  1  0
  6 12  1  0
  7 13  1  0
  8 14  1  0
M  END
