
     RDKit          3D

 19 19  0  0  0  0  0  0  0  0999 V2000
    2.3648   -1.2221   -0.4641 C   0  0  0  0  0  0  0  0  0  0  0  0
    1.5750   -0.6917    0.2773 C   0  0  0  0  0  0  0  0  0  0  0  0
    0.6129   -0.0298    1.1812 C   0  0  0  0  0  0  0  0  0  0  0  0
    0.7070    1.4569    1.0051 C   0  0  0  0  0  0  0  0  0  0  0  0
    1.1757    2.2442    1.7854 O   0  0  0  0  0  0  0  0  0  0  0  0
    0.0972    1.7113   -0.3300 C   0  0  0  0  0  0  0  0  0  0  0  0
   -1.1096    0.7797   -0.3138 C   0  0  0  0  0  0  0  0  0  0  0  0
   -0.8177   -0.2696    0.7166 C   0  0  0  0  0  0  0  0  0  0  0  0
   -1.0380   -1.6384    0.1800 C   0  0  0  0  0  0  0  0  0  0  0  0
    3.0722   -1.6778   -1.1320 H   0  0  0  0  0  0  0  0  0  0  0  0
    0.7789   -0.3129    2.2217 H   0  0  0  0  0  0  0  0  0  0  0  0
   -0.1790    2.7617   -0.4719 H   0  0  0  0  0  0  0  0  0  0  0  0
    0.8433    1.3456   -1.0876 H   0  0  0  0  0  0  0  0  0  0  0  0
   -1.1565    0.3076   -1.3292 H   0  0  0  0  0  0  0  0  0  0  0  0
   -2.0437    1.3432   -0.1100 H   0  0  0  0  0  0  0  0  0  0  0  0
   -1.4579   -0.0720    1.6241 H   0  0  0  0  0  0  0  0  0  0  0  0
   -1.7558   -1.5771   -0.6758 H   0  0  0  0  0  0  0  0  0  0  0  0
   -1.5465   -2.3196    0.9236 H   0  0  0  0  0  0  0  0  0  0  0  0
   -0.1222   -2.1393   -0.1784 H   0  0  0  0  0  0  0  0  0  0  0  0
  1  2  3  0
  2  3  1  0
  3  4  1  0
  4  5  2  0
  4  6  1  0
  6  7  1  0
  7  8  1  0
  8  9  1  0
  8  3  1  0
  1 10  1  0
  3 11  1  0
  6 12  1  0
  6 13  1  0
  7 14  1  0
  7 15  1  0
  8 16  1  0
  9 17  1  0
  9 18  1  0
  9 19  1  0
M  END
