
     RDKit          3D

 17 17  0  0  0  0  0  0  0  0999 V2000
    3.0536   -0.3680   -0.6771 C   0  0  0  0  0  0  0  0  0  0  0  0
    1.5283   -0.5626   -0.1896 C   0  0  0  0  0  0  0  0  0  0  0  0
    0.0152   -0.7464    0.2658 C   0  0  0  0  0  0  0  0  0  0  0  0
   -0.3320    0.5450    0.9468 C   0  0  0  0  0  0  0  0  0  0  0  0
    0.8665    1.6048    0.9144 C   0  0  0  0  0  0  0  0  0  0  0  0
    1.4718    1.6917    1.8085 O   0  0  0  0  0  0  0  0  0  0  0  0
   -0.9952    0.1692   -0.2686 C   0  0  0  0  0  0  0  0  0  0  0  0
   -2.2777   -0.8356   -0.3081 C   0  0  0  0  0  0  0  0  0  0  0  0
   -0.6646    0.5351   -1.6318 O   0  0  0  0  0  0  0  0  0  0  0  0
    4.0179   -0.2464   -1.0027 H   0  0  0  0  0  0  0  0  0  0  0  0
    0.0327   -1.6955    0.6269 H   0  0  0  0  0  0  0  0  0  0  0  0
   -0.4897    0.2193    2.0209 H   0  0  0  0  0  0  0  0  0  0  0  0
    0.8508    2.0960   -0.0891 H   0  0  0  0  0  0  0  0  0  0  0  0
   -1.8294   -1.8059   -0.4855 H   0  0  0  0  0  0  0  0  0  0  0  0
   -2.8553   -0.5235   -1.1124 H   0  0  0  0  0  0  0  0  0  0  0  0
   -2.7537   -0.8409    0.6716 H   0  0  0  0  0  0  0  0  0  0  0  0
    0.3609    0.7636   -1.4902 H   0  0  0  0  0  0  0  0  0  0  0  0
  1  2  3  0
  2  3  1  0
  3  4  1  0
  4  5  1  0
  5  6  2  0
  4  7  1  0
  7  8  1  0
  7  9  1  0
  7  3  1  0
  1 10  1  0
  3 11  1  0
  4 12  1  0
  5 13  1  0
  8 14  1  0
  8 15  1  0
  8 16  1  0
  9 17  1  0
M  END
