
     RDKit          3D

 17 16  0  0  0  0  0  0  0  0999 V2000
   -3.5475    1.1213    1.2751 C   0  0  0  0  0  0  0  0  0  0  0  0
   -2.5753    0.3920    1.2160 C   0  0  0  0  0  0  0  0  0  0  0  0
   -1.4087   -0.4911    1.1304 C   0  0  0  0  0  0  0  0  0  0  0  0
   -0.4811    0.0678    0.0754 C   0  0  0  0  0  0  0  0  0  0  0  0
    0.7352   -0.7443   -0.0949 C   0  0  0  0  0  0  0  0  0  0  0  0
    0.9690   -1.7589    0.5460 O   0  0  0  0  0  0  0  0  0  0  0  0
    1.7500   -0.3216   -1.1003 C   0  0  0  0  0  0  0  0  0  0  0  0
    2.8682    0.4060   -0.4597 C   0  0  0  0  0  0  0  0  0  0  0  0
    3.7737    0.8218   -1.1400 O   0  0  0  0  0  0  0  0  0  0  0  0
   -4.3763    1.7652    1.3296 H   0  0  0  0  0  0  0  0  0  0  0  0
   -1.7778   -1.4934    0.7919 H   0  0  0  0  0  0  0  0  0  0  0  0
   -0.9348   -0.6364    2.1102 H   0  0  0  0  0  0  0  0  0  0  0  0
   -1.0550    0.0605   -0.8760 H   0  0  0  0  0  0  0  0  0  0  0  0
   -0.2539    1.1109    0.3674 H   0  0  0  0  0  0  0  0  0  0  0  0
    1.2923    0.3680   -1.8466 H   0  0  0  0  0  0  0  0  0  0  0  0
    2.1634   -1.2211   -1.6395 H   0  0  0  0  0  0  0  0  0  0  0  0
    2.8585    0.5533    0.5997 H   0  0  0  0  0  0  0  0  0  0  0  0
  1  2  3  0
  2  3  1  0
  3  4  1  0
  4  5  1  0
  5  6  2  0
  5  7  1  0
  7  8  1  0
  8  9  2  0
  1 10  1  0
  3 11  1  0
  3 12  1  0
  4 13  1  0
  4 14  1  0
  7 15  1  0
  7 16  1  0
  8 17  1  0
M  END
