
     RDKit          3D

 21 20  0  0  0  0  0  0  0  0999 V2000
    3.2728   -1.4183   -0.5892 C   0  0  0  0  0  0  0  0  0  0  0  0
    2.0838   -1.4315   -0.2392 C   0  0  0  0  0  0  0  0  0  0  0  0
    0.7477   -1.4562    0.1526 C   0  0  0  0  0  0  0  0  0  0  0  0
    0.3354    0.0572    0.3105 C   0  0  0  0  0  0  0  0  0  0  0  0
    0.5670    0.5364    1.4562 C   0  0  0  0  0  0  0  0  0  0  0  0
    0.8249    1.0415    2.6768 C   0  0  0  0  0  0  0  0  0  0  0  0
   -1.1193    0.2234   -0.1487 C   0  0  0  0  0  0  0  0  0  0  0  0
   -1.3810    1.7343   -0.1089 C   0  0  0  0  0  0  0  0  0  0  0  0
   -1.4417   -0.4194   -1.3917 C   0  0  0  0  0  0  0  0  0  0  0  0
    4.3145   -1.4023   -0.8899 H   0  0  0  0  0  0  0  0  0  0  0  0
    0.6149   -1.8813    1.1398 H   0  0  0  0  0  0  0  0  0  0  0  0
   -0.0181   -1.9075   -0.5419 H   0  0  0  0  0  0  0  0  0  0  0  0
    0.8618    0.5705   -0.6119 H   0  0  0  0  0  0  0  0  0  0  0  0
    1.0624    1.4875    3.7272 H   0  0  0  0  0  0  0  0  0  0  0  0
   -1.7344   -0.1679    0.7524 H   0  0  0  0  0  0  0  0  0  0  0  0
   -2.3066    2.0083   -0.6869 H   0  0  0  0  0  0  0  0  0  0  0  0
   -1.5016    1.9912    0.9133 H   0  0  0  0  0  0  0  0  0  0  0  0
   -0.4983    2.2683   -0.6292 H   0  0  0  0  0  0  0  0  0  0  0  0
   -2.0260   -1.3770   -1.2441 H   0  0  0  0  0  0  0  0  0  0  0  0
   -2.1199    0.2126   -2.0013 H   0  0  0  0  0  0  0  0  0  0  0  0
   -0.5381   -0.6698   -2.0458 H   0  0  0  0  0  0  0  0  0  0  0  0
  1  2  3  0
  2  3  1  0
  3  4  1  0
  4  5  1  0
  5  6  3  0
  4  7  1  0
  7  8  1  0
  7  9  1  0
  1 10  1  0
  3 11  1  0
  3 12  1  0
  4 13  1  0
  6 14  1  0
  7 15  1  0
  8 16  1  0
  8 17  1  0
  8 18  1  0
  9 19  1  0
  9 20  1  0
  9 21  1  0
M  END
