
     RDKit          3D

 21 21  0  0  0  0  0  0  0  0999 V2000
    0.7596    2.4233    1.9849 C   0  0  0  0  0  0  0  0  0  0  0  0
    0.2957    1.4085    1.4676 C   0  0  0  0  0  0  0  0  0  0  0  0
   -0.2667    0.1887    0.8662 C   0  0  0  0  0  0  0  0  0  0  0  0
   -1.0345   -0.6719    1.5913 C   0  0  0  0  0  0  0  0  0  0  0  0
   -1.4658   -1.8184    0.7590 C   0  0  0  0  0  0  0  0  0  0  0  0
   -0.2946   -1.8460   -0.2651 C   0  0  0  0  0  0  0  0  0  0  0  0
   -0.2343   -0.3386   -0.4897 C   0  0  0  0  0  0  0  0  0  0  0  0
    0.9008    0.0886   -1.3082 C   0  0  0  0  0  0  0  0  0  0  0  0
    0.9077    1.5932   -1.4672 C   0  0  0  0  0  0  0  0  0  0  0  0
    1.1637    3.2659    2.4143 H   0  0  0  0  0  0  0  0  0  0  0  0
   -1.2809   -0.4923    2.6196 H   0  0  0  0  0  0  0  0  0  0  0  0
   -1.4733   -2.7556    1.3719 H   0  0  0  0  0  0  0  0  0  0  0  0
   -2.3989   -1.6395    0.2400 H   0  0  0  0  0  0  0  0  0  0  0  0
    0.5966   -2.2593    0.1943 H   0  0  0  0  0  0  0  0  0  0  0  0
   -0.5791   -2.3104   -1.1991 H   0  0  0  0  0  0  0  0  0  0  0  0
   -1.2206   -0.1124   -1.0058 H   0  0  0  0  0  0  0  0  0  0  0  0
    1.8697   -0.2536   -0.8426 H   0  0  0  0  0  0  0  0  0  0  0  0
    0.8777   -0.4000   -2.3336 H   0  0  0  0  0  0  0  0  0  0  0  0
    1.8967    2.0390   -1.1302 H   0  0  0  0  0  0  0  0  0  0  0  0
    0.8606    1.8121   -2.5672 H   0  0  0  0  0  0  0  0  0  0  0  0
    0.1200    2.0790   -0.9005 H   0  0  0  0  0  0  0  0  0  0  0  0
  1  2  3  0
  2  3  1  0
  3  4  2  0
  4  5  1  0
  5  6  1  0
  6  7  1  0
  7  8  1  0
  8  9  1  0
  7  3  1  0
  1 10  1  0
  4 11  1  0
  5 12  1  0
  5 13  1  0
  6 14  1  0
  6 15  1  0
  7 16  1  0
  8 17  1  0
  8 18  1  0
  9 19  1  0
  9 20  1  0
  9 21  1  0
M  END
