
     RDKit          3D

 17 16  0  0  0  0  0  0  0  0999 V2000
    2.7636    0.1250   -0.4745 C   0  0  0  0  0  0  0  0  0  0  0  0
    1.6357    0.2261    0.2143 C   0  0  0  0  0  0  0  0  0  0  0  0
    0.4986    0.3372    0.9231 C   0  0  0  0  0  0  0  0  0  0  0  0
    0.4453   -0.6142    1.9985 O   0  0  0  0  0  0  0  0  0  0  0  0
   -0.8145    0.0406    0.0857 C   0  0  0  0  0  0  0  0  0  0  0  0
   -0.6536   -1.4225   -0.2781 C   0  0  0  0  0  0  0  0  0  0  0  0
   -1.8467    0.2554    1.0236 O   0  0  0  0  0  0  0  0  0  0  0  0
   -0.9195    0.8685   -0.9422 C   0  0  0  0  0  0  0  0  0  0  0  0
   -1.0012    1.6268   -1.8966 C   0  0  0  0  0  0  0  0  0  0  0  0
    3.7090    0.0577   -1.0613 H   0  0  0  0  0  0  0  0  0  0  0  0
    0.2994    1.3555    1.3909 H   0  0  0  0  0  0  0  0  0  0  0  0
    1.3943   -0.7310    2.3598 H   0  0  0  0  0  0  0  0  0  0  0  0
   -1.4481   -1.6976   -0.9614 H   0  0  0  0  0  0  0  0  0  0  0  0
    0.3555   -1.5762   -0.7113 H   0  0  0  0  0  0  0  0  0  0  0  0
   -0.7625   -1.9788    0.6921 H   0  0  0  0  0  0  0  0  0  0  0  0
   -2.5635    0.7300    0.5116 H   0  0  0  0  0  0  0  0  0  0  0  0
   -1.0917    2.3973   -2.8742 H   0  0  0  0  0  0  0  0  0  0  0  0
  1  2  3  0
  2  3  1  0
  3  4  1  0
  3  5  1  0
  5  6  1  0
  5  7  1  0
  5  8  1  0
  8  9  3  0
  1 10  1  0
  3 11  1  0
  4 12  1  0
  6 13  1  0
  6 14  1  0
  6 15  1  0
  7 16  1  0
  9 17  1  0
M  END
