
     RDKit          3D

 23 22  0  0  0  0  0  0  0  0999 V2000
    3.0624    2.4751    0.8973 C   0  0  0  0  0  0  0  0  0  0  0  0
    2.2460    1.1613    1.3166 C   0  0  0  0  0  0  0  0  0  0  0  0
    1.6233    0.1656    1.6125 C   0  0  0  0  0  0  0  0  0  0  0  0
    0.1674    0.4342    1.8461 C   0  0  0  0  0  0  0  0  0  0  0  0
   -0.6694    0.4746    0.6555 C   0  0  0  0  0  0  0  0  0  0  0  0
   -1.0803   -0.7766   -0.0979 C   0  0  0  0  0  0  0  0  0  0  0  0
   -0.0317   -1.6466   -0.6996 C   0  0  0  0  0  0  0  0  0  0  0  0
   -1.8446   -0.1503   -1.3447 C   0  0  0  0  0  0  0  0  0  0  0  0
   -2.3726   -1.1565   -2.1058 O   0  0  0  0  0  0  0  0  0  0  0  0
    3.7822    3.6079    0.5404 H   0  0  0  0  0  0  0  0  0  0  0  0
    2.1561   -0.1672    2.6737 H   0  0  0  0  0  0  0  0  0  0  0  0
    1.8252   -0.7183    0.9753 H   0  0  0  0  0  0  0  0  0  0  0  0
   -0.1276    0.2724    2.8640 H   0  0  0  0  0  0  0  0  0  0  0  0
    0.2214    1.6954    1.9971 H   0  0  0  0  0  0  0  0  0  0  0  0
   -1.6662    1.0051    0.8892 H   0  0  0  0  0  0  0  0  0  0  0  0
   -0.2724    1.2330   -0.1296 H   0  0  0  0  0  0  0  0  0  0  0  0
   -1.8758   -1.2708    0.5045 H   0  0  0  0  0  0  0  0  0  0  0  0
    0.7088   -2.0100   -0.0112 H   0  0  0  0  0  0  0  0  0  0  0  0
   -0.4932   -2.5980   -1.1301 H   0  0  0  0  0  0  0  0  0  0  0  0
    0.4534   -1.0663   -1.5421 H   0  0  0  0  0  0  0  0  0  0  0  0
   -0.9579    0.2536   -2.0357 H   0  0  0  0  0  0  0  0  0  0  0  0
   -2.3774    0.7220   -1.0791 H   0  0  0  0  0  0  0  0  0  0  0  0
   -2.4770   -1.9396   -1.5140 H   0  0  0  0  0  0  0  0  0  0  0  0
  1  2  3  0
  2  3  1  0
  3  4  1  0
  4  5  1  0
  5  6  1  0
  6  7  1  0
  6  8  1  0
  8  9  1  0
  1 10  1  0
  3 11  1  0
  3 12  1  0
  4 13  1  0
  4 14  1  0
  5 15  1  0
  5 16  1  0
  6 17  1  0
  7 18  1  0
  7 19  1  0
  7 20  1  0
  8 21  1  0
  8 22  1  0
  9 23  1  0
M  END
