
     RDKit          3D

 21 21  0  0  0  0  0  0  0  0999 V2000
   -2.2347    2.2773   -0.3758 C   0  0  0  0  0  0  0  0  0  0  0  0
   -1.8458    1.2653   -0.4742 C   0  0  0  0  0  0  0  0  0  0  0  0
   -1.2951   -0.2198   -0.6025 C   0  0  0  0  0  0  0  0  0  0  0  0
    0.1900    0.2585   -0.9555 C   0  0  0  0  0  0  0  0  0  0  0  0
    1.0994   -0.3103    0.1447 C   0  0  0  0  0  0  0  0  0  0  0  0
    2.3444   -0.8072   -0.5437 C   0  0  0  0  0  0  0  0  0  0  0  0
    0.1929   -1.3407    0.7487 C   0  0  0  0  0  0  0  0  0  0  0  0
   -1.0460   -0.4520    0.9116 C   0  0  0  0  0  0  0  0  0  0  0  0
   -0.5378    0.8541    1.3371 O   0  0  0  0  0  0  0  0  0  0  0  0
   -2.7286    3.5015   -0.2483 H   0  0  0  0  0  0  0  0  0  0  0  0
   -1.8154   -0.7750   -1.1638 H   0  0  0  0  0  0  0  0  0  0  0  0
    0.5694   -0.0089   -1.9215 H   0  0  0  0  0  0  0  0  0  0  0  0
    0.2442    1.3952   -0.8172 H   0  0  0  0  0  0  0  0  0  0  0  0
    1.3368    0.4781    0.8856 H   0  0  0  0  0  0  0  0  0  0  0  0
    2.3979   -0.1678   -1.4897 H   0  0  0  0  0  0  0  0  0  0  0  0
    2.2743   -1.8683   -0.7747 H   0  0  0  0  0  0  0  0  0  0  0  0
    3.2397   -0.5357    0.0838 H   0  0  0  0  0  0  0  0  0  0  0  0
   -0.0622   -2.0847   -0.0809 H   0  0  0  0  0  0  0  0  0  0  0  0
    0.5361   -1.8420    1.6370 H   0  0  0  0  0  0  0  0  0  0  0  0
   -1.8512   -0.6984    1.4961 H   0  0  0  0  0  0  0  0  0  0  0  0
   -1.0082    1.0809    2.1458 H   0  0  0  0  0  0  0  0  0  0  0  0
  1  2  3  0
  2  3  1  0
  3  4  1  0
  4  5  1  0
  5  6  1  0
  5  7  1  0
  7  8  1  0
  8  9  1  0
  8  3  1  0
  1 10  1  0
  3 11  1  0
  4 12  1  0
  4 13  1  0
  5 14  1  0
  6 15  1  0
  6 16  1  0
  6 17  1  0
  7 18  1  0
  7 19  1  0
  8 20  1  0
  9 21  1  0
M  END
