
     RDKit          3D

 19 20  0  0  0  0  0  0  0  0999 V2000
    3.1885   -0.0925   -0.6539 C   0  0  0  0  0  0  0  0  0  0  0  0
    2.1688    0.1382   -0.0660 C   0  0  0  0  0  0  0  0  0  0  0  0
    0.8959    0.4066    0.6488 C   0  0  0  0  0  0  0  0  0  0  0  0
    0.2270    1.5011   -0.0590 C   0  0  0  0  0  0  0  0  0  0  0  0
   -1.0555    1.4851   -0.3035 C   0  0  0  0  0  0  0  0  0  0  0  0
   -1.9393    0.3845    0.1011 C   0  0  0  0  0  0  0  0  0  0  0  0
   -1.2358   -0.9068    0.3615 C   0  0  0  0  0  0  0  0  0  0  0  0
   -0.2475   -1.4589   -0.6266 C   0  0  0  0  0  0  0  0  0  0  0  0
    0.1531   -0.8605    0.7350 C   0  0  0  0  0  0  0  0  0  0  0  0
    4.0908   -0.2793   -1.1678 H   0  0  0  0  0  0  0  0  0  0  0  0
    1.1360    0.7833    1.6845 H   0  0  0  0  0  0  0  0  0  0  0  0
    0.8142    2.3451   -0.3871 H   0  0  0  0  0  0  0  0  0  0  0  0
   -1.5281    2.3276   -0.8399 H   0  0  0  0  0  0  0  0  0  0  0  0
   -2.4426    0.6891    1.0470 H   0  0  0  0  0  0  0  0  0  0  0  0
   -2.7663    0.2257   -0.6325 H   0  0  0  0  0  0  0  0  0  0  0  0
   -1.8786   -1.6857    0.8257 H   0  0  0  0  0  0  0  0  0  0  0  0
   -0.0877   -2.5397   -0.7013 H   0  0  0  0  0  0  0  0  0  0  0  0
   -0.0111   -0.8880   -1.5294 H   0  0  0  0  0  0  0  0  0  0  0  0
    0.5181   -1.5749    1.5112 H   0  0  0  0  0  0  0  0  0  0  0  0
  1  2  3  0
  2  3  1  0
  3  4  1  0
  4  5  2  0
  5  6  1  0
  6  7  1  0
  7  8  1  0
  8  9  1  0
  9  3  1  0
  9  7  1  0
  1 10  1  0
  3 11  1  0
  4 12  1  0
  5 13  1  0
  6 14  1  0
  6 15  1  0
  7 16  1  0
  8 17  1  0
  8 18  1  0
  9 19  1  0
M  END
