
     RDKit          3D

 23 23  0  0  0  0  0  0  0  0999 V2000
    2.7631   -2.9957   -0.3148 C   0  0  0  0  0  0  0  0  0  0  0  0
    1.8278   -2.2658   -0.5406 C   0  0  0  0  0  0  0  0  0  0  0  0
    0.6961   -1.3524   -0.8085 C   0  0  0  0  0  0  0  0  0  0  0  0
    1.1023   -0.0222   -1.4358 C   0  0  0  0  0  0  0  0  0  0  0  0
    0.6529   -0.1229    0.0158 C   0  0  0  0  0  0  0  0  0  0  0  0
   -0.6113    0.5987    0.3156 C   0  0  0  0  0  0  0  0  0  0  0  0
   -0.2967    1.8042    1.1766 C   0  0  0  0  0  0  0  0  0  0  0  0
   -1.6129   -0.2368    1.0819 C   0  0  0  0  0  0  0  0  0  0  0  0
   -1.3303    1.0984   -0.9305 C   0  0  0  0  0  0  0  0  0  0  0  0
    3.5791   -3.6544   -0.1099 H   0  0  0  0  0  0  0  0  0  0  0  0
   -0.2270   -1.8458   -1.1543 H   0  0  0  0  0  0  0  0  0  0  0  0
    2.1779    0.1293   -1.6435 H   0  0  0  0  0  0  0  0  0  0  0  0
    0.4095    0.3195   -2.2035 H   0  0  0  0  0  0  0  0  0  0  0  0
    1.4731    0.0366    0.7434 H   0  0  0  0  0  0  0  0  0  0  0  0
    0.2751    1.4035    2.0627 H   0  0  0  0  0  0  0  0  0  0  0  0
    0.4000    2.4891    0.6617 H   0  0  0  0  0  0  0  0  0  0  0  0
   -1.1873    2.2888    1.5834 H   0  0  0  0  0  0  0  0  0  0  0  0
   -1.5581   -1.3094    0.7392 H   0  0  0  0  0  0  0  0  0  0  0  0
   -1.2640   -0.2544    2.1372 H   0  0  0  0  0  0  0  0  0  0  0  0
   -2.6215    0.1662    1.0443 H   0  0  0  0  0  0  0  0  0  0  0  0
   -1.6708    0.2856   -1.5782 H   0  0  0  0  0  0  0  0  0  0  0  0
   -0.7082    1.8466   -1.4438 H   0  0  0  0  0  0  0  0  0  0  0  0
   -2.2689    1.5931   -0.5417 H   0  0  0  0  0  0  0  0  0  0  0  0
  1  2  3  0
  2  3  1  0
  3  4  1  0
  4  5  1  0
  5  6  1  0
  6  7  1  0
  6  8  1  0
  6  9  1  0
  5  3  1  0
  1 10  1  0
  3 11  1  0
  4 12  1  0
  4 13  1  0
  5 14  1  0
  7 15  1  0
  7 16  1  0
  7 17  1  0
  8 18  1  0
  8 19  1  0
  8 20  1  0
  9 21  1  0
  9 22  1  0
  9 23  1  0
M  END
