
     RDKit          3D

 23 23  0  0  0  0  0  0  0  0999 V2000
    3.4803    0.6290   -2.1795 C   0  0  0  0  0  0  0  0  0  0  0  0
    2.3625    0.3042   -2.1376 C   0  0  0  0  0  0  0  0  0  0  0  0
    0.9378   -0.1362   -2.0879 C   0  0  0  0  0  0  0  0  0  0  0  0
    0.4305    0.2217   -0.7101 C   0  0  0  0  0  0  0  0  0  0  0  0
    1.1708   -0.4217    0.4130 C   0  0  0  0  0  0  0  0  0  0  0  0
   -0.2227   -0.8345    0.1038 C   0  0  0  0  0  0  0  0  0  0  0  0
   -1.2862   -0.4824    1.0982 C   0  0  0  0  0  0  0  0  0  0  0  0
   -0.8584    0.4565    2.1790 C   0  0  0  0  0  0  0  0  0  0  0  0
   -2.5408    0.0577    0.4618 C   0  0  0  0  0  0  0  0  0  0  0  0
    4.5633    0.9250   -2.2258 H   0  0  0  0  0  0  0  0  0  0  0  0
    0.3572    0.4178   -2.8678 H   0  0  0  0  0  0  0  0  0  0  0  0
    0.9447   -1.1911   -2.3286 H   0  0  0  0  0  0  0  0  0  0  0  0
    0.0722    1.2739   -0.6563 H   0  0  0  0  0  0  0  0  0  0  0  0
    1.9978   -1.1519    0.1515 H   0  0  0  0  0  0  0  0  0  0  0  0
    1.4406    0.1283    1.3273 H   0  0  0  0  0  0  0  0  0  0  0  0
   -0.3961   -1.7868   -0.4125 H   0  0  0  0  0  0  0  0  0  0  0  0
   -1.5894   -1.4460    1.6041 H   0  0  0  0  0  0  0  0  0  0  0  0
   -0.1685    1.2398    1.7557 H   0  0  0  0  0  0  0  0  0  0  0  0
   -1.7224    1.0486    2.5848 H   0  0  0  0  0  0  0  0  0  0  0  0
   -0.3328    0.0058    3.0222 H   0  0  0  0  0  0  0  0  0  0  0  0
   -3.4680   -0.3212    0.9287 H   0  0  0  0  0  0  0  0  0  0  0  0
   -2.5718    1.1748    0.6085 H   0  0  0  0  0  0  0  0  0  0  0  0
   -2.6007   -0.1113   -0.6325 H   0  0  0  0  0  0  0  0  0  0  0  0
  1  2  3  0
  2  3  1  0
  3  4  1  0
  4  5  1  0
  5  6  1  0
  6  7  1  0
  7  8  1  0
  7  9  1  0
  6  4  1  0
  1 10  1  0
  3 11  1  0
  3 12  1  0
  4 13  1  0
  5 14  1  0
  5 15  1  0
  6 16  1  0
  7 17  1  0
  8 18  1  0
  8 19  1  0
  8 20  1  0
  9 21  1  0
  9 22  1  0
  9 23  1  0
M  END
