
     RDKit          3D

 17 18  0  0  0  0  0  0  0  0999 V2000
    2.3883   -0.3654   -1.9959 C   0  0  0  0  0  0  0  0  0  0  0  0
    1.7433   -0.3936   -0.9707 C   0  0  0  0  0  0  0  0  0  0  0  0
    0.9317   -0.4217    0.2734 C   0  0  0  0  0  0  0  0  0  0  0  0
    1.7218   -0.9403    1.3311 O   0  0  0  0  0  0  0  0  0  0  0  0
   -0.4100   -0.7878    0.1409 C   0  0  0  0  0  0  0  0  0  0  0  0
   -1.6202   -0.1946   -0.4897 C   0  0  0  0  0  0  0  0  0  0  0  0
   -2.1663    0.4994    0.5933 O   0  0  0  0  0  0  0  0  0  0  0  0
   -1.1017    0.8405    1.4625 C   0  0  0  0  0  0  0  0  0  0  0  0
    0.0825    0.6479    0.6013 C   0  0  0  0  0  0  0  0  0  0  0  0
    2.9674   -0.3430   -2.8819 H   0  0  0  0  0  0  0  0  0  0  0  0
    2.2204   -0.2073    1.7714 H   0  0  0  0  0  0  0  0  0  0  0  0
   -0.7857   -1.4532    0.9837 H   0  0  0  0  0  0  0  0  0  0  0  0
   -1.3617    0.5865   -1.2553 H   0  0  0  0  0  0  0  0  0  0  0  0
   -2.3104   -0.9483   -0.8828 H   0  0  0  0  0  0  0  0  0  0  0  0
   -1.1983    1.8985    1.7801 H   0  0  0  0  0  0  0  0  0  0  0  0
   -1.1478    0.1320    2.2977 H   0  0  0  0  0  0  0  0  0  0  0  0
    0.0468    1.4504   -0.2025 H   0  0  0  0  0  0  0  0  0  0  0  0
  1  2  3  0
  2  3  1  0
  3  4  1  0
  3  5  1  0
  5  6  1  0
  6  7  1  0
  7  8  1  0
  8  9  1  0
  9  3  1  0
  9  5  1  0
  1 10  1  0
  4 11  1  0
  5 12  1  0
  6 13  1  0
  6 14  1  0
  8 15  1  0
  8 16  1  0
  9 17  1  0
M  END
