
     RDKit          3D

 17 18  0  0  0  0  0  0  0  0999 V2000
    3.0126    0.6351    0.0647 C   0  0  0  0  0  0  0  0  0  0  0  0
    1.8943    0.6716    0.2924 C   0  0  0  0  0  0  0  0  0  0  0  0
    0.4559    0.7182    0.6115 C   0  0  0  0  0  0  0  0  0  0  0  0
   -0.3697    0.9045   -0.6229 C   0  0  0  0  0  0  0  0  0  0  0  0
   -0.9827   -0.4346   -0.8486 C   0  0  0  0  0  0  0  0  0  0  0  0
   -2.1186   -0.5211   -1.5874 O   0  0  0  0  0  0  0  0  0  0  0  0
   -1.0971   -1.0017    0.5736 C   0  0  0  0  0  0  0  0  0  0  0  0
    0.0580   -1.7592    0.9136 O   0  0  0  0  0  0  0  0  0  0  0  0
    0.0101   -0.4415    1.3730 C   0  0  0  0  0  0  0  0  0  0  0  0
    4.2929    0.5801   -0.2122 H   0  0  0  0  0  0  0  0  0  0  0  0
    0.3013    1.6781    1.2407 H   0  0  0  0  0  0  0  0  0  0  0  0
    0.2856    1.3111   -1.3861 H   0  0  0  0  0  0  0  0  0  0  0  0
   -1.2125    1.6099   -0.3628 H   0  0  0  0  0  0  0  0  0  0  0  0
   -0.2232   -1.0969   -1.3731 H   0  0  0  0  0  0  0  0  0  0  0  0
   -2.1105   -1.3519   -2.1546 H   0  0  0  0  0  0  0  0  0  0  0  0
   -2.0518   -1.1898    1.0131 H   0  0  0  0  0  0  0  0  0  0  0  0
   -0.1446   -0.3120    2.4650 H   0  0  0  0  0  0  0  0  0  0  0  0
  1  2  3  0
  2  3  1  0
  3  4  1  0
  4  5  1  0
  5  6  1  0
  5  7  1  0
  7  8  1  0
  8  9  1  0
  9  3  1  0
  9  7  1  0
  1 10  1  0
  3 11  1  0
  4 12  1  0
  4 13  1  0
  5 14  1  0
  6 15  1  0
  7 16  1  0
  9 17  1  0
M  END
