
     RDKit          3D

 17 17  0  0  0  0  0  0  0  0999 V2000
   -2.3566    1.9445    0.7362 C   0  0  0  0  0  0  0  0  0  0  0  0
   -1.7740    0.9643    0.3420 C   0  0  0  0  0  0  0  0  0  0  0  0
   -1.0667   -0.2421   -0.1160 C   0  0  0  0  0  0  0  0  0  0  0  0
    0.3866   -0.1269   -0.4660 C   0  0  0  0  0  0  0  0  0  0  0  0
    1.2283    0.3214    0.6478 C   0  0  0  0  0  0  0  0  0  0  0  0
    2.6841    0.4777    0.4411 C   0  0  0  0  0  0  0  0  0  0  0  0
    0.7861    0.5812    1.7693 O   0  0  0  0  0  0  0  0  0  0  0  0
   -1.8372   -1.2466   -0.9424 C   0  0  0  0  0  0  0  0  0  0  0  0
   -1.5538   -1.4402    0.4009 O   0  0  0  0  0  0  0  0  0  0  0  0
   -2.8710    2.8294    1.0733 H   0  0  0  0  0  0  0  0  0  0  0  0
    0.7279   -1.1269   -0.8082 H   0  0  0  0  0  0  0  0  0  0  0  0
    0.4995    0.5514   -1.3428 H   0  0  0  0  0  0  0  0  0  0  0  0
    3.2579   -0.1143    1.2095 H   0  0  0  0  0  0  0  0  0  0  0  0
    3.0323    1.5265    0.5357 H   0  0  0  0  0  0  0  0  0  0  0  0
    3.0123    0.0978   -0.5353 H   0  0  0  0  0  0  0  0  0  0  0  0
   -1.3187   -1.8555   -1.6916 H   0  0  0  0  0  0  0  0  0  0  0  0
   -2.8370   -0.8955   -1.2537 H   0  0  0  0  0  0  0  0  0  0  0  0
  1  2  3  0
  2  3  1  0
  3  4  1  0
  4  5  1  0
  5  6  1  0
  5  7  2  0
  3  8  1  0
  8  9  1  0
  9  3  1  0
  1 10  1  0
  4 11  1  0
  4 12  1  0
  6 13  1  0
  6 14  1  0
  6 15  1  0
  8 16  1  0
  8 17  1  0
M  END
