
     RDKit          3D

 19 21  0  0  0  0  0  0  0  0999 V2000
    1.2006    2.1155    1.5635 C   0  0  0  0  0  0  0  0  0  0  0  0
    1.0965    1.1098    0.9049 C   0  0  0  0  0  0  0  0  0  0  0  0
    0.9943   -0.1281    0.0963 C   0  0  0  0  0  0  0  0  0  0  0  0
    2.3019   -0.8052   -0.1719 C   0  0  0  0  0  0  0  0  0  0  0  0
   -0.0469   -0.1121   -0.9402 C   0  0  0  0  0  0  0  0  0  0  0  0
   -1.3080    0.6327   -0.6012 C   0  0  0  0  0  0  0  0  0  0  0  0
   -2.5451   -0.1737   -0.5752 C   0  0  0  0  0  0  0  0  0  0  0  0
   -1.5469   -0.3820    0.5205 C   0  0  0  0  0  0  0  0  0  0  0  0
   -0.2051   -0.9623    0.2385 C   0  0  0  0  0  0  0  0  0  0  0  0
    1.2856    3.0145    2.1316 H   0  0  0  0  0  0  0  0  0  0  0  0
    3.0493   -0.0028   -0.4342 H   0  0  0  0  0  0  0  0  0  0  0  0
    2.7193   -1.3247    0.7000 H   0  0  0  0  0  0  0  0  0  0  0  0
    2.1957   -1.4356   -1.0724 H   0  0  0  0  0  0  0  0  0  0  0  0
    0.0910   -0.5568   -1.9403 H   0  0  0  0  0  0  0  0  0  0  0  0
   -1.2731    1.6971   -0.3417 H   0  0  0  0  0  0  0  0  0  0  0  0
   -2.6342   -0.9266   -1.4000 H   0  0  0  0  0  0  0  0  0  0  0  0
   -3.4801    0.3135   -0.2821 H   0  0  0  0  0  0  0  0  0  0  0  0
   -1.8015   -0.0121    1.5239 H   0  0  0  0  0  0  0  0  0  0  0  0
   -0.0933   -2.0610    0.0799 H   0  0  0  0  0  0  0  0  0  0  0  0
  1  2  3  0
  2  3  1  0
  3  4  1  0
  3  5  1  0
  5  6  1  0
  6  7  1  0
  7  8  1  0
  8  9  1  0
  9  3  1  0
  9  5  1  0
  8  6  1  0
  1 10  1  0
  4 11  1  0
  4 12  1  0
  4 13  1  0
  5 14  1  0
  6 15  1  0
  7 16  1  0
  7 17  1  0
  8 18  1  0
  9 19  1  0
M  END
