
     RDKit          3D

 21 22  0  0  0  0  0  0  0  0999 V2000
    3.6810   -0.3863    0.9350 C   0  0  0  0  0  0  0  0  0  0  0  0
    2.6581   -0.9156    0.5689 C   0  0  0  0  0  0  0  0  0  0  0  0
    1.4052   -1.5437    0.1429 C   0  0  0  0  0  0  0  0  0  0  0  0
    0.6148   -0.5688   -0.6814 C   0  0  0  0  0  0  0  0  0  0  0  0
    0.2994    0.6807    0.1505 C   0  0  0  0  0  0  0  0  0  0  0  0
   -1.1102    0.5298   -0.2538 C   0  0  0  0  0  0  0  0  0  0  0  0
   -2.2692    0.9686    0.4998 C   0  0  0  0  0  0  0  0  0  0  0  0
   -1.9349    1.5230   -0.8987 C   0  0  0  0  0  0  0  0  0  0  0  0
   -0.8873   -0.8612   -0.7427 C   0  0  0  0  0  0  0  0  0  0  0  0
    4.5831    0.0894    1.2768 H   0  0  0  0  0  0  0  0  0  0  0  0
    1.5808   -2.4968   -0.3716 H   0  0  0  0  0  0  0  0  0  0  0  0
    0.8393   -1.7732    1.0879 H   0  0  0  0  0  0  0  0  0  0  0  0
    1.0770   -0.3232   -1.6384 H   0  0  0  0  0  0  0  0  0  0  0  0
    0.4417    0.5145    1.2433 H   0  0  0  0  0  0  0  0  0  0  0  0
    0.8678    1.5425   -0.2054 H   0  0  0  0  0  0  0  0  0  0  0  0
   -2.0923    1.6470    1.3626 H   0  0  0  0  0  0  0  0  0  0  0  0
   -3.1551    0.3017    0.5113 H   0  0  0  0  0  0  0  0  0  0  0  0
   -2.5936    1.2301   -1.7366 H   0  0  0  0  0  0  0  0  0  0  0  0
   -1.5956    2.5760   -0.9131 H   0  0  0  0  0  0  0  0  0  0  0  0
   -1.2622   -1.1246   -1.7282 H   0  0  0  0  0  0  0  0  0  0  0  0
   -1.1477   -1.6100    0.0319 H   0  0  0  0  0  0  0  0  0  0  0  0
  1  2  3  0
  2  3  1  0
  3  4  1  0
  4  5  1  0
  5  6  1  0
  6  7  1  0
  7  8  1  0
  6  9  1  0
  9  4  1  0
  8  6  1  0
  1 10  1  0
  3 11  1  0
  3 12  1  0
  4 13  1  0
  5 14  1  0
  5 15  1  0
  7 16  1  0
  7 17  1  0
  8 18  1  0
  8 19  1  0
  9 20  1  0
  9 21  1  0
M  END
