
     RDKit          3D

 17 19  0  0  0  0  0  0  0  0999 V2000
    1.1350    2.8018   -0.8938 C   0  0  0  0  0  0  0  0  0  0  0  0
    1.1673    1.6647   -0.5060 C   0  0  0  0  0  0  0  0  0  0  0  0
    1.2072    0.2780   -0.0558 C   0  0  0  0  0  0  0  0  0  0  0  0
    2.2220   -0.1090    0.8078 O   0  0  0  0  0  0  0  0  0  0  0  0
    0.8548   -0.1650    1.1485 C   0  0  0  0  0  0  0  0  0  0  0  0
    0.1942   -1.4296    0.5730 C   0  0  0  0  0  0  0  0  0  0  0  0
   -0.9383   -1.1781   -0.2989 C   0  0  0  0  0  0  0  0  0  0  0  0
   -1.8696   -0.0589    0.1172 C   0  0  0  0  0  0  0  0  0  0  0  0
    0.4219   -0.7825   -0.7963 C   0  0  0  0  0  0  0  0  0  0  0  0
    1.1133    3.8190   -1.2591 H   0  0  0  0  0  0  0  0  0  0  0  0
    0.6299    0.1541    2.1489 H   0  0  0  0  0  0  0  0  0  0  0  0
    0.6886   -2.3829    0.7333 H   0  0  0  0  0  0  0  0  0  0  0  0
   -1.4372   -1.9388   -0.9263 H   0  0  0  0  0  0  0  0  0  0  0  0
   -1.2963    0.6977    0.6929 H   0  0  0  0  0  0  0  0  0  0  0  0
   -2.6680   -0.4387    0.8190 H   0  0  0  0  0  0  0  0  0  0  0  0
   -2.3408    0.4482   -0.7240 H   0  0  0  0  0  0  0  0  0  0  0  0
    0.9161   -1.3798   -1.5802 H   0  0  0  0  0  0  0  0  0  0  0  0
  1  2  3  0
  2  3  1  0
  3  4  1  0
  4  5  1  0
  5  6  1  0
  6  7  1  0
  7  8  1  0
  7  9  1  0
  5  3  1  0
  9  6  1  0
  9  3  1  0
  1 10  1  0
  5 11  1  0
  6 12  1  0
  7 13  1  0
  8 14  1  0
  8 15  1  0
  8 16  1  0
  9 17  1  0
M  END
