
     RDKit          3D

 19 19  0  0  0  0  0  0  0  0999 V2000
    3.6071   -0.3990    0.0863 C   0  0  0  0  0  0  0  0  0  0  0  0
    2.4467   -0.7057   -0.0415 C   0  0  0  0  0  0  0  0  0  0  0  0
    1.0324   -1.0758   -0.1797 C   0  0  0  0  0  0  0  0  0  0  0  0
    0.1958    0.1512    0.1023 C   0  0  0  0  0  0  0  0  0  0  0  0
    0.5019    0.5501    1.4239 O   0  0  0  0  0  0  0  0  0  0  0  0
   -0.5997    1.3429    1.7316 C   0  0  0  0  0  0  0  0  0  0  0  0
   -1.7023    0.7879    1.1293 O   0  0  0  0  0  0  0  0  0  0  0  0
   -1.2711   -0.1957    0.2524 C   0  0  0  0  0  0  0  0  0  0  0  0
   -1.9560   -0.1321   -1.0810 C   0  0  0  0  0  0  0  0  0  0  0  0
    4.6381   -0.1241    0.2185 H   0  0  0  0  0  0  0  0  0  0  0  0
    0.8113   -1.3988   -1.2142 H   0  0  0  0  0  0  0  0  0  0  0  0
    0.7564   -1.8806    0.5298 H   0  0  0  0  0  0  0  0  0  0  0  0
    0.3543    0.9555   -0.6140 H   0  0  0  0  0  0  0  0  0  0  0  0
   -0.3637    2.3713    1.3355 H   0  0  0  0  0  0  0  0  0  0  0  0
   -0.6657    1.3725    2.8431 H   0  0  0  0  0  0  0  0  0  0  0  0
   -1.3790   -1.1984    0.7230 H   0  0  0  0  0  0  0  0  0  0  0  0
   -2.2766   -1.1609   -1.3468 H   0  0  0  0  0  0  0  0  0  0  0  0
   -1.2815    0.2034   -1.8904 H   0  0  0  0  0  0  0  0  0  0  0  0
   -2.8481    0.5360   -1.0799 H   0  0  0  0  0  0  0  0  0  0  0  0
  1  2  3  0
  2  3  1  0
  3  4  1  0
  4  5  1  0
  5  6  1  0
  6  7  1  0
  7  8  1  0
  8  9  1  0
  8  4  1  0
  1 10  1  0
  3 11  1  0
  3 12  1  0
  4 13  1  0
  6 14  1  0
  6 15  1  0
  8 16  1  0
  9 17  1  0
  9 18  1  0
  9 19  1  0
M  END
