
     RDKit          3D

 19 20  0  0  0  0  0  0  0  0999 V2000
   -0.9332    2.7890    0.4083 C   0  0  0  0  0  0  0  0  0  0  0  0
   -0.5107    1.6988    0.0101 C   0  0  0  0  0  0  0  0  0  0  0  0
   -0.0057    0.3561   -0.4550 C   0  0  0  0  0  0  0  0  0  0  0  0
   -1.1309   -0.3922   -0.9565 C   0  0  0  0  0  0  0  0  0  0  0  0
   -1.7915   -0.8567    0.0903 C   0  0  0  0  0  0  0  0  0  0  0  0
   -1.0327   -0.3763    1.3206 C   0  0  0  0  0  0  0  0  0  0  0  0
    0.3246   -0.6250    0.7280 C   0  0  0  0  0  0  0  0  0  0  0  0
    1.2872    0.0758   -0.0011 C   0  0  0  0  0  0  0  0  0  0  0  0
    2.1923   -0.6563   -1.0133 C   0  0  0  0  0  0  0  0  0  0  0  0
   -1.3030    3.6952    0.7449 H   0  0  0  0  0  0  0  0  0  0  0  0
   -1.4280   -0.5738   -1.9820 H   0  0  0  0  0  0  0  0  0  0  0  0
   -2.6773   -1.4503    0.0895 H   0  0  0  0  0  0  0  0  0  0  0  0
   -1.2729    0.6508    1.5641 H   0  0  0  0  0  0  0  0  0  0  0  0
   -1.1876   -1.0722    2.1743 H   0  0  0  0  0  0  0  0  0  0  0  0
    0.3297   -1.7360    0.4771 H   0  0  0  0  0  0  0  0  0  0  0  0
    1.8995    0.8482    0.5117 H   0  0  0  0  0  0  0  0  0  0  0  0
    2.7939    0.1109   -1.5411 H   0  0  0  0  0  0  0  0  0  0  0  0
    2.8716   -1.2905   -0.4303 H   0  0  0  0  0  0  0  0  0  0  0  0
    1.5747   -1.1956   -1.7394 H   0  0  0  0  0  0  0  0  0  0  0  0
  1  2  3  0
  2  3  1  0
  3  4  1  0
  4  5  2  0
  5  6  1  0
  6  7  1  0
  7  8  1  0
  8  9  1  0
  7  3  1  0
  8  3  1  0
  1 10  1  0
  4 11  1  0
  5 12  1  0
  6 13  1  0
  6 14  1  0
  7 15  1  0
  8 16  1  0
  9 17  1  0
  9 18  1  0
  9 19  1  0
M  END
