
     RDKit          3D

 16 17  0  0  0  0  0  0  0  0999 V2000
    2.8881   -0.9731    0.9319 C   0  0  0  0  0  0  0  0  0  0  0  0
    1.2683   -0.3251    0.8943 C   0  0  0  0  0  0  0  0  0  0  0  0
   -0.0145    0.2082    0.8488 C   0  0  0  0  0  0  0  0  0  0  0  0
   -0.8115   -1.1088    0.9599 O   0  0  0  0  0  0  0  0  0  0  0  0
    0.1243   -1.5509    0.0502 C   0  0  0  0  0  0  0  0  0  0  0  0
   -0.2308   -0.3483   -0.8002 C   0  0  0  0  0  0  0  0  0  0  0  0
   -0.1845    1.0415   -0.3468 C   0  0  0  0  0  0  0  0  0  0  0  0
   -1.5417    1.8049   -0.2906 C   0  0  0  0  0  0  0  0  0  0  0  0
    3.9098   -1.3625    0.9517 H   0  0  0  0  0  0  0  0  0  0  0  0
    1.1272   -1.8236    0.2768 H   0  0  0  0  0  0  0  0  0  0  0  0
   -0.2072   -2.4918   -0.5769 H   0  0  0  0  0  0  0  0  0  0  0  0
   -1.2462   -0.6103   -1.1076 H   0  0  0  0  0  0  0  0  0  0  0  0
    0.5135    1.7644   -0.8118 H   0  0  0  0  0  0  0  0  0  0  0  0
   -1.4047    2.8770   -0.3871 H   0  0  0  0  0  0  0  0  0  0  0  0
   -2.0044    1.5468    0.6699 H   0  0  0  0  0  0  0  0  0  0  0  0
   -2.1858    1.3514   -1.1393 H   0  0  0  0  0  0  0  0  0  0  0  0
  1  2  3  0
  2  3  1  0
  3  4  1  0
  4  5  1  0
  5  6  1  0
  6  7  1  0
  7  8  1  0
  6  3  1  0
  7  3  1  0
  1  9  1  0
  5 10  1  0
  5 11  1  0
  6 12  1  0
  7 13  1  0
  8 14  1  0
  8 15  1  0
  8 16  1  0
M  END
