
     RDKit          3D

 15 14  0  0  0  0  0  0  0  0999 V2000
   -1.9205   -2.0464   -1.0316 C   0  0  0  0  0  0  0  0  0  0  0  0
   -1.4707   -1.2479   -0.2477 C   0  0  0  0  0  0  0  0  0  0  0  0
   -0.9027   -0.2867    0.7188 C   0  0  0  0  0  0  0  0  0  0  0  0
   -0.8466   -0.8959    1.9677 O   0  0  0  0  0  0  0  0  0  0  0  0
    0.4075    0.1860    0.2718 C   0  0  0  0  0  0  0  0  0  0  0  0
    1.4888    0.5745   -0.0755 C   0  0  0  0  0  0  0  0  0  0  0  0
    2.8106    1.0754   -0.5112 C   0  0  0  0  0  0  0  0  0  0  0  0
   -1.7975    0.9132    0.7451 C   0  0  0  0  0  0  0  0  0  0  0  0
   -1.9703    1.5705   -0.2461 O   0  0  0  0  0  0  0  0  0  0  0  0
   -2.3371   -2.7577   -1.7213 H   0  0  0  0  0  0  0  0  0  0  0  0
   -0.5493   -1.8304    1.8009 H   0  0  0  0  0  0  0  0  0  0  0  0
    3.4705    0.1964   -0.6905 H   0  0  0  0  0  0  0  0  0  0  0  0
    2.6811    1.5665   -1.5008 H   0  0  0  0  0  0  0  0  0  0  0  0
    3.2435    1.7662    0.2476 H   0  0  0  0  0  0  0  0  0  0  0  0
   -2.3074    1.2162    1.6511 H   0  0  0  0  0  0  0  0  0  0  0  0
  1  2  3  0
  2  3  1  0
  3  4  1  0
  3  5  1  0
  5  6  3  0
  6  7  1  0
  3  8  1  0
  8  9  2  0
  1 10  1  0
  4 11  1  0
  7 12  1  0
  7 13  1  0
  7 14  1  0
  8 15  1  0
M  END
