
     RDKit          3D

 21 20  0  0  0  0  0  0  0  0999 V2000
    3.1316    0.8599   -0.6858 C   0  0  0  0  0  0  0  0  0  0  0  0
    1.9765    0.9752   -0.4282 C   0  0  0  0  0  0  0  0  0  0  0  0
    0.5410    1.1240   -0.1284 C   0  0  0  0  0  0  0  0  0  0  0  0
   -0.0934   -0.2264   -0.2231 C   0  0  0  0  0  0  0  0  0  0  0  0
    0.0859   -0.7937   -1.6234 C   0  0  0  0  0  0  0  0  0  0  0  0
    0.4660   -1.1241    0.7571 C   0  0  0  0  0  0  0  0  0  0  0  0
    0.9509   -1.8901    1.5706 C   0  0  0  0  0  0  0  0  0  0  0  0
   -1.5950   -0.0365   -0.0323 C   0  0  0  0  0  0  0  0  0  0  0  0
   -1.8596    0.5758    1.3159 C   0  0  0  0  0  0  0  0  0  0  0  0
    4.1752    0.7485   -0.9363 H   0  0  0  0  0  0  0  0  0  0  0  0
    0.0610    1.8046   -0.8693 H   0  0  0  0  0  0  0  0  0  0  0  0
    0.3782    1.5421    0.8831 H   0  0  0  0  0  0  0  0  0  0  0  0
    1.0177   -1.3958   -1.6502 H   0  0  0  0  0  0  0  0  0  0  0  0
    0.0838    0.0270   -2.3618 H   0  0  0  0  0  0  0  0  0  0  0  0
   -0.8064   -1.4231   -1.8520 H   0  0  0  0  0  0  0  0  0  0  0  0
    1.3892   -2.5488    2.2850 H   0  0  0  0  0  0  0  0  0  0  0  0
   -2.1544   -0.9766   -0.1958 H   0  0  0  0  0  0  0  0  0  0  0  0
   -1.9128    0.6608   -0.8362 H   0  0  0  0  0  0  0  0  0  0  0  0
   -2.6946    0.0092    1.8112 H   0  0  0  0  0  0  0  0  0  0  0  0
   -0.9663    0.4581    1.9714 H   0  0  0  0  0  0  0  0  0  0  0  0
   -2.1747    1.6297    1.2285 H   0  0  0  0  0  0  0  0  0  0  0  0
  1  2  3  0
  2  3  1  0
  3  4  1  0
  4  5  1  0
  4  6  1  0
  6  7  3  0
  4  8  1  0
  8  9  1  0
  1 10  1  0
  3 11  1  0
  3 12  1  0
  5 13  1  0
  5 14  1  0
  5 15  1  0
  7 16  1  0
  8 17  1  0
  8 18  1  0
  9 19  1  0
  9 20  1  0
  9 21  1  0
M  END
