
     RDKit          3D

 17 16  0  0  0  0  0  0  0  0999 V2000
   -0.7269    2.5255   -0.3073 C   0  0  0  0  0  0  0  0  0  0  0  0
   -0.3438    1.3684   -0.0794 C   0  0  0  0  0  0  0  0  0  0  0  0
    0.1226    0.0083    0.1686 C   0  0  0  0  0  0  0  0  0  0  0  0
    0.2803   -0.2564    1.4990 O   0  0  0  0  0  0  0  0  0  0  0  0
    1.5108   -0.0590   -0.5110 C   0  0  0  0  0  0  0  0  0  0  0  0
    2.3458    0.8606    0.1123 O   0  0  0  0  0  0  0  0  0  0  0  0
   -0.7895   -1.0078   -0.5123 C   0  0  0  0  0  0  0  0  0  0  0  0
   -2.1886   -0.9351   -0.0774 C   0  0  0  0  0  0  0  0  0  0  0  0
   -2.5525   -1.0066    1.0861 O   0  0  0  0  0  0  0  0  0  0  0  0
   -1.0450    3.5204   -0.5173 H   0  0  0  0  0  0  0  0  0  0  0  0
    0.8713   -1.0703    1.5764 H   0  0  0  0  0  0  0  0  0  0  0  0
    1.3904    0.3476   -1.5728 H   0  0  0  0  0  0  0  0  0  0  0  0
    1.9023   -1.0808   -0.5738 H   0  0  0  0  0  0  0  0  0  0  0  0
    3.2951    0.5862    0.0529 H   0  0  0  0  0  0  0  0  0  0  0  0
   -0.3734   -2.0352   -0.2304 H   0  0  0  0  0  0  0  0  0  0  0  0
   -0.7178   -0.9590   -1.6131 H   0  0  0  0  0  0  0  0  0  0  0  0
   -2.9812   -0.8067   -0.8232 H   0  0  0  0  0  0  0  0  0  0  0  0
  1  2  3  0
  2  3  1  0
  3  4  1  0
  3  5  1  0
  5  6  1  0
  3  7  1  0
  7  8  1  0
  8  9  2  0
  1 10  1  0
  4 11  1  0
  5 12  1  0
  5 13  1  0
  6 14  1  0
  7 15  1  0
  7 16  1  0
  8 17  1  0
M  END
