
     RDKit          3D

 17 19  0  0  0  0  0  0  0  0999 V2000
    2.8021   -0.5580   -1.6337 C   0  0  0  0  0  0  0  0  0  0  0  0
    1.7556   -0.2746   -0.9160 C   0  0  0  0  0  0  0  0  0  0  0  0
    0.6832    0.0163   -0.2081 C   0  0  0  0  0  0  0  0  0  0  0  0
   -0.6460    0.1265   -1.0274 C   0  0  0  0  0  0  0  0  0  0  0  0
   -1.5382    0.5371    0.0991 C   0  0  0  0  0  0  0  0  0  0  0  0
   -0.9793   -0.0710    1.3555 C   0  0  0  0  0  0  0  0  0  0  0  0
    0.1822   -0.9103    0.8600 C   0  0  0  0  0  0  0  0  0  0  0  0
   -0.6401    1.2910    0.9635 C   0  0  0  0  0  0  0  0  0  0  0  0
    0.6342    1.2782    0.4024 O   0  0  0  0  0  0  0  0  0  0  0  0
    3.6976   -0.7963   -2.2273 H   0  0  0  0  0  0  0  0  0  0  0  0
   -0.5071    0.8576   -1.8232 H   0  0  0  0  0  0  0  0  0  0  0  0
   -0.8901   -0.8706   -1.4359 H   0  0  0  0  0  0  0  0  0  0  0  0
   -2.6155    0.6330   -0.0277 H   0  0  0  0  0  0  0  0  0  0  0  0
   -1.6422   -0.4385    2.1348 H   0  0  0  0  0  0  0  0  0  0  0  0
   -0.2144   -1.8288    0.3430 H   0  0  0  0  0  0  0  0  0  0  0  0
    0.9134   -1.1765    1.6315 H   0  0  0  0  0  0  0  0  0  0  0  0
   -0.9953    2.1848    1.5095 H   0  0  0  0  0  0  0  0  0  0  0  0
  1  2  3  0
  2  3  1  0
  3  4  1  0
  4  5  1  0
  5  6  1  0
  6  7  1  0
  6  8  1  0
  8  9  1  0
  7  3  1  0
  9  3  1  0
  8  5  1  0
  1 10  1  0
  4 11  1  0
  4 12  1  0
  5 13  1  0
  6 14  1  0
  7 15  1  0
  7 16  1  0
  8 17  1  0
M  END
