
     RDKit          3D

 21 21  0  0  0  0  0  0  0  0999 V2000
    2.6257    1.3917    0.1752 C   0  0  0  0  0  0  0  0  0  0  0  0
    1.8755    0.6312    0.7721 C   0  0  0  0  0  0  0  0  0  0  0  0
    0.9602   -0.2605    1.4888 C   0  0  0  0  0  0  0  0  0  0  0  0
   -0.0849   -0.7481    0.5067 C   0  0  0  0  0  0  0  0  0  0  0  0
   -0.9561    0.2752   -0.1716 C   0  0  0  0  0  0  0  0  0  0  0  0
   -0.2177    1.1906   -0.9241 O   0  0  0  0  0  0  0  0  0  0  0  0
   -1.1353    2.0751   -1.4944 C   0  0  0  0  0  0  0  0  0  0  0  0
    0.3849   -1.9253   -0.3351 C   0  0  0  0  0  0  0  0  0  0  0  0
   -0.6899   -2.0972    0.6602 C   0  0  0  0  0  0  0  0  0  0  0  0
    3.2836    2.0367   -0.3490 H   0  0  0  0  0  0  0  0  0  0  0  0
    1.5206   -1.1226    1.8767 H   0  0  0  0  0  0  0  0  0  0  0  0
    0.4915    0.2715    2.3419 H   0  0  0  0  0  0  0  0  0  0  0  0
   -1.6612   -0.2394   -0.8382 H   0  0  0  0  0  0  0  0  0  0  0  0
   -1.5621    0.7693    0.6198 H   0  0  0  0  0  0  0  0  0  0  0  0
   -0.6168    2.8480   -2.1196 H   0  0  0  0  0  0  0  0  0  0  0  0
   -1.6967    2.5695   -0.6823 H   0  0  0  0  0  0  0  0  0  0  0  0
   -1.8696    1.5651   -2.1389 H   0  0  0  0  0  0  0  0  0  0  0  0
    1.3501   -2.4043   -0.0923 H   0  0  0  0  0  0  0  0  0  0  0  0
    0.1499   -1.9369   -1.4191 H   0  0  0  0  0  0  0  0  0  0  0  0
   -1.6967   -2.2899    0.2765 H   0  0  0  0  0  0  0  0  0  0  0  0
   -0.4548   -2.5997    1.6281 H   0  0  0  0  0  0  0  0  0  0  0  0
  1  2  3  0
  2  3  1  0
  3  4  1  0
  4  5  1  0
  5  6  1  0
  6  7  1  0
  4  8  1  0
  8  9  1  0
  9  4  1  0
  1 10  1  0
  3 11  1  0
  3 12  1  0
  5 13  1  0
  5 14  1  0
  7 15  1  0
  7 16  1  0
  7 17  1  0
  8 18  1  0
  8 19  1  0
  9 20  1  0
  9 21  1  0
M  END
