
     RDKit          3D

 15 15  0  0  0  0  0  0  0  0999 V2000
    1.8482   -0.0908    2.0878 C   0  0  0  0  0  0  0  0  0  0  0  0
    1.2575   -0.6219    1.1869 C   0  0  0  0  0  0  0  0  0  0  0  0
    0.5446   -1.2775    0.1162 C   0  0  0  0  0  0  0  0  0  0  0  0
    0.7881   -2.4737   -0.2242 O   0  0  0  0  0  0  0  0  0  0  0  0
   -0.5070   -0.5133   -0.5965 C   0  0  0  0  0  0  0  0  0  0  0  0
   -1.4206   -1.3211   -1.3118 O   0  0  0  0  0  0  0  0  0  0  0  0
   -0.0271    0.7284   -1.3262 C   0  0  0  0  0  0  0  0  0  0  0  0
   -0.9351    0.8148   -0.1580 C   0  0  0  0  0  0  0  0  0  0  0  0
   -0.3447    1.3709    1.0045 O   0  0  0  0  0  0  0  0  0  0  0  0
    2.3600    0.3748    2.9000 H   0  0  0  0  0  0  0  0  0  0  0  0
   -1.3961   -2.2446   -0.9567 H   0  0  0  0  0  0  0  0  0  0  0  0
   -0.4350    0.8604   -2.3650 H   0  0  0  0  0  0  0  0  0  0  0  0
    1.0281    1.0541   -1.2513 H   0  0  0  0  0  0  0  0  0  0  0  0
   -1.9845    1.1049   -0.3285 H   0  0  0  0  0  0  0  0  0  0  0  0
   -0.7764    2.2347    1.2227 H   0  0  0  0  0  0  0  0  0  0  0  0
  1  2  3  0
  2  3  1  0
  3  4  2  0
  3  5  1  0
  5  6  1  0
  5  7  1  0
  7  8  1  0
  8  9  1  0
  8  5  1  0
  1 10  1  0
  6 11  1  0
  7 12  1  0
  7 13  1  0
  8 14  1  0
  9 15  1  0
M  END
