
     RDKit          3D

 21 21  0  0  0  0  0  0  0  0999 V2000
   -0.8176    1.7125    2.3071 C   0  0  0  0  0  0  0  0  0  0  0  0
   -0.1563    1.1632    1.3049 C   0  0  0  0  0  0  0  0  0  0  0  0
    0.4673    0.6160    0.3367 C   0  0  0  0  0  0  0  0  0  0  0  0
   -0.0494    0.9682   -1.1003 C   0  0  0  0  0  0  0  0  0  0  0  0
   -1.4381    1.5808   -1.0397 C   0  0  0  0  0  0  0  0  0  0  0  0
   -0.1472   -0.5678   -1.3510 C   0  0  0  0  0  0  0  0  0  0  0  0
    0.5300   -0.7840   -0.0684 C   0  0  0  0  0  0  0  0  0  0  0  0
   -0.0354   -1.6576    0.8929 O   0  0  0  0  0  0  0  0  0  0  0  0
    1.0322   -2.4075    1.3552 C   0  0  0  0  0  0  0  0  0  0  0  0
   -1.4170    2.2130    3.1876 H   0  0  0  0  0  0  0  0  0  0  0  0
    1.6225    0.9889    0.3213 H   0  0  0  0  0  0  0  0  0  0  0  0
    0.6664    1.4680   -1.7258 H   0  0  0  0  0  0  0  0  0  0  0  0
   -1.4978    2.5252   -1.6682 H   0  0  0  0  0  0  0  0  0  0  0  0
   -1.6291    1.9079    0.0224 H   0  0  0  0  0  0  0  0  0  0  0  0
   -2.1617    0.8122   -1.3636 H   0  0  0  0  0  0  0  0  0  0  0  0
   -1.1983   -0.9389   -1.4021 H   0  0  0  0  0  0  0  0  0  0  0  0
    0.3736   -0.7834   -2.2897 H   0  0  0  0  0  0  0  0  0  0  0  0
    1.5876   -1.2036   -0.2321 H   0  0  0  0  0  0  0  0  0  0  0  0
    1.7581   -1.6514    1.8533 H   0  0  0  0  0  0  0  0  0  0  0  0
    1.6458   -2.7937    0.4648 H   0  0  0  0  0  0  0  0  0  0  0  0
    0.8644   -3.1681    2.1107 H   0  0  0  0  0  0  0  0  0  0  0  0
  1  2  3  0
  2  3  1  0
  3  4  1  0
  4  5  1  0
  4  6  1  0
  6  7  1  0
  7  8  1  0
  8  9  1  0
  7  3  1  0
  1 10  1  0
  3 11  1  0
  4 12  1  0
  5 13  1  0
  5 14  1  0
  5 15  1  0
  6 16  1  0
  6 17  1  0
  7 18  1  0
  9 19  1  0
  9 20  1  0
  9 21  1  0
M  END
