
     RDKit          3D

 21 21  0  0  0  0  0  0  0  0999 V2000
    2.0379    1.7388    2.2364 C   0  0  0  0  0  0  0  0  0  0  0  0
    1.4658    0.8731    1.6802 C   0  0  0  0  0  0  0  0  0  0  0  0
    0.7344   -0.2075    0.9587 C   0  0  0  0  0  0  0  0  0  0  0  0
    0.9269   -1.5083    1.6484 C   0  0  0  0  0  0  0  0  0  0  0  0
   -0.6600    0.0843    0.6146 C   0  0  0  0  0  0  0  0  0  0  0  0
   -1.4082   -1.0346   -0.1001 C   0  0  0  0  0  0  0  0  0  0  0  0
   -1.0491    0.2394   -0.8129 C   0  0  0  0  0  0  0  0  0  0  0  0
   -0.1271    0.1834   -1.8577 O   0  0  0  0  0  0  0  0  0  0  0  0
   -0.5321    0.9832   -2.9337 C   0  0  0  0  0  0  0  0  0  0  0  0
    2.5732    2.5289    2.7617 H   0  0  0  0  0  0  0  0  0  0  0  0
    1.3592   -0.2492   -0.0326 H   0  0  0  0  0  0  0  0  0  0  0  0
    1.8050   -2.0349    1.1632 H   0  0  0  0  0  0  0  0  0  0  0  0
    0.0438   -2.1724    1.6838 H   0  0  0  0  0  0  0  0  0  0  0  0
    1.2465   -1.3223    2.7069 H   0  0  0  0  0  0  0  0  0  0  0  0
   -1.2569    0.6572    1.3378 H   0  0  0  0  0  0  0  0  0  0  0  0
   -0.8612   -1.9221   -0.4261 H   0  0  0  0  0  0  0  0  0  0  0  0
   -2.4495   -1.2465    0.2303 H   0  0  0  0  0  0  0  0  0  0  0  0
   -1.8955    0.9066   -1.0269 H   0  0  0  0  0  0  0  0  0  0  0  0
    0.2362    0.9534   -3.7489 H   0  0  0  0  0  0  0  0  0  0  0  0
   -0.7456    2.0157   -2.6875 H   0  0  0  0  0  0  0  0  0  0  0  0
   -1.4438    0.5341   -3.3955 H   0  0  0  0  0  0  0  0  0  0  0  0
  1  2  3  0
  2  3  1  0
  3  4  1  0
  3  5  1  0
  5  6  1  0
  6  7  1  0
  7  8  1  0
  8  9  1  0
  7  5  1  0
  1 10  1  0
  3 11  1  0
  4 12  1  0
  4 13  1  0
  4 14  1  0
  5 15  1  0
  6 16  1  0
  6 17  1  0
  7 18  1  0
  9 19  1  0
  9 20  1  0
  9 21  1  0
M  END
