
     RDKit          3D

 17 18  0  0  0  0  0  0  0  0999 V2000
    1.9924    1.9790    0.0965 C   0  0  0  0  0  0  0  0  0  0  0  0
    1.3789    0.9683    0.2696 C   0  0  0  0  0  0  0  0  0  0  0  0
    0.6300   -0.2393    0.4611 C   0  0  0  0  0  0  0  0  0  0  0  0
    0.6299   -0.7257    1.7820 O   0  0  0  0  0  0  0  0  0  0  0  0
    0.9472   -1.3307   -0.5616 C   0  0  0  0  0  0  0  0  0  0  0  0
   -0.4284   -1.6602   -0.5035 O   0  0  0  0  0  0  0  0  0  0  0  0
   -0.6779   -0.3688   -0.1654 C   0  0  0  0  0  0  0  0  0  0  0  0
   -1.8679    0.1572    0.4837 C   0  0  0  0  0  0  0  0  0  0  0  0
   -1.4444    0.5879   -0.9066 C   0  0  0  0  0  0  0  0  0  0  0  0
    2.5279    2.8580   -0.0724 H   0  0  0  0  0  0  0  0  0  0  0  0
    1.1686   -1.5351    1.8580 H   0  0  0  0  0  0  0  0  0  0  0  0
    1.6238   -2.1101   -0.2088 H   0  0  0  0  0  0  0  0  0  0  0  0
    1.1649   -0.8739   -1.5431 H   0  0  0  0  0  0  0  0  0  0  0  0
   -1.6944    0.9704    1.2426 H   0  0  0  0  0  0  0  0  0  0  0  0
   -2.7342   -0.5039    0.6037 H   0  0  0  0  0  0  0  0  0  0  0  0
   -1.1285    1.6267   -1.0880 H   0  0  0  0  0  0  0  0  0  0  0  0
   -2.0881    0.2002   -1.7480 H   0  0  0  0  0  0  0  0  0  0  0  0
  1  2  3  0
  2  3  1  0
  3  4  1  0
  3  5  1  0
  5  6  1  0
  6  7  1  0
  7  8  1  0
  8  9  1  0
  7  3  1  0
  9  7  1  0
  1 10  1  0
  4 11  1  0
  5 12  1  0
  5 13  1  0
  8 14  1  0
  8 15  1  0
  9 16  1  0
  9 17  1  0
M  END
