
     RDKit          3D

 17 18  0  0  0  0  0  0  0  0999 V2000
    3.2564    0.0942   -0.9043 C   0  0  0  0  0  0  0  0  0  0  0  0
    2.0590   -0.0518   -0.8714 C   0  0  0  0  0  0  0  0  0  0  0  0
    0.5931   -0.2267   -0.8530 C   0  0  0  0  0  0  0  0  0  0  0  0
   -0.2014    0.9173   -0.3726 C   0  0  0  0  0  0  0  0  0  0  0  0
    0.2106    1.6866    0.6972 O   0  0  0  0  0  0  0  0  0  0  0  0
    0.4557    0.5991    1.5334 C   0  0  0  0  0  0  0  0  0  0  0  0
   -0.0771   -0.3008    0.4561 C   0  0  0  0  0  0  0  0  0  0  0  0
   -1.1495   -1.1300    0.7055 O   0  0  0  0  0  0  0  0  0  0  0  0
   -2.2447   -0.8810   -0.0933 C   0  0  0  0  0  0  0  0  0  0  0  0
    4.3213    0.2243   -0.9523 H   0  0  0  0  0  0  0  0  0  0  0  0
    0.1767   -0.7975   -1.6912 H   0  0  0  0  0  0  0  0  0  0  0  0
   -1.1168    1.1908   -0.9119 H   0  0  0  0  0  0  0  0  0  0  0  0
   -0.1092    0.5985    2.4808 H   0  0  0  0  0  0  0  0  0  0  0  0
    1.5542    0.4875    1.6763 H   0  0  0  0  0  0  0  0  0  0  0  0
   -3.0373   -1.5984    0.1915 H   0  0  0  0  0  0  0  0  0  0  0  0
   -2.6349    0.1534    0.0811 H   0  0  0  0  0  0  0  0  0  0  0  0
   -2.0562   -0.9657   -1.1718 H   0  0  0  0  0  0  0  0  0  0  0  0
  1  2  3  0
  2  3  1  0
  3  4  1  0
  4  5  1  0
  5  6  1  0
  6  7  1  0
  7  8  1  0
  8  9  1  0
  7  3  1  0
  7  4  1  0
  1 10  1  0
  3 11  1  0
  4 12  1  0
  6 13  1  0
  6 14  1  0
  9 15  1  0
  9 16  1  0
  9 17  1  0
M  END
