
     RDKit          3D

 15 15  0  0  0  0  0  0  0  0999 V2000
    2.4024   -1.2816    1.8323 C   0  0  0  0  0  0  0  0  0  0  0  0
    1.5309   -1.1742    1.0584 C   0  0  0  0  0  0  0  0  0  0  0  0
    0.4227   -1.0493    0.0443 C   0  0  0  0  0  0  0  0  0  0  0  0
   -0.8258   -1.2789    0.6401 O   0  0  0  0  0  0  0  0  0  0  0  0
   -1.0006    0.0667    0.9699 C   0  0  0  0  0  0  0  0  0  0  0  0
   -1.6108    0.8214    1.7450 O   0  0  0  0  0  0  0  0  0  0  0  0
   -0.0308    0.3740   -0.1184 C   0  0  0  0  0  0  0  0  0  0  0  0
   -0.7170    0.6792   -1.4280 C   0  0  0  0  0  0  0  0  0  0  0  0
   -1.0638    2.0238   -1.4041 O   0  0  0  0  0  0  0  0  0  0  0  0
    3.1974   -1.3912    2.5594 H   0  0  0  0  0  0  0  0  0  0  0  0
    0.6148   -1.5910   -0.8870 H   0  0  0  0  0  0  0  0  0  0  0  0
    0.7798    1.0698    0.1638 H   0  0  0  0  0  0  0  0  0  0  0  0
   -1.6361    0.0651   -1.5115 H   0  0  0  0  0  0  0  0  0  0  0  0
   -0.0391    0.4882   -2.2996 H   0  0  0  0  0  0  0  0  0  0  0  0
   -2.0240    2.1781   -1.3644 H   0  0  0  0  0  0  0  0  0  0  0  0
  1  2  3  0
  2  3  1  0
  3  4  1  0
  4  5  1  0
  5  6  2  0
  5  7  1  0
  7  8  1  0
  8  9  1  0
  7  3  1  0
  1 10  1  0
  3 11  1  0
  7 12  1  0
  8 13  1  0
  8 14  1  0
  9 15  1  0
M  END
