
     RDKit          3D

 19 18  0  0  0  0  0  0  0  0999 V2000
    3.2858   -0.1860    0.0312 C   0  0  0  0  0  0  0  0  0  0  0  0
    2.1115   -0.3364   -0.1923 C   0  0  0  0  0  0  0  0  0  0  0  0
    0.6664   -0.5366   -0.4466 C   0  0  0  0  0  0  0  0  0  0  0  0
    0.4582   -0.1655   -1.7821 O   0  0  0  0  0  0  0  0  0  0  0  0
   -0.1145    0.3141    0.4985 C   0  0  0  0  0  0  0  0  0  0  0  0
    0.2399    1.7079    0.2734 C   0  0  0  0  0  0  0  0  0  0  0  0
    0.5264    2.8835    0.0686 C   0  0  0  0  0  0  0  0  0  0  0  0
   -1.6053    0.1071    0.2635 C   0  0  0  0  0  0  0  0  0  0  0  0
   -1.9703   -1.3437    0.4904 C   0  0  0  0  0  0  0  0  0  0  0  0
    4.3369   -0.0647    0.2241 H   0  0  0  0  0  0  0  0  0  0  0  0
    0.3740   -1.5964   -0.3224 H   0  0  0  0  0  0  0  0  0  0  0  0
    0.9682   -0.7767   -2.3696 H   0  0  0  0  0  0  0  0  0  0  0  0
    0.1327   -0.0212    1.5327 H   0  0  0  0  0  0  0  0  0  0  0  0
    0.7493    3.8717   -0.0984 H   0  0  0  0  0  0  0  0  0  0  0  0
   -1.8270    0.3318   -0.8208 H   0  0  0  0  0  0  0  0  0  0  0  0
   -2.1771    0.8084    0.8904 H   0  0  0  0  0  0  0  0  0  0  0  0
   -2.9132   -1.3485    1.0978 H   0  0  0  0  0  0  0  0  0  0  0  0
   -2.0929   -1.8649   -0.4668 H   0  0  0  0  0  0  0  0  0  0  0  0
   -1.1490   -1.7837    1.1286 H   0  0  0  0  0  0  0  0  0  0  0  0
  1  2  3  0
  2  3  1  0
  3  4  1  0
  3  5  1  0
  5  6  1  0
  6  7  3  0
  5  8  1  0
  8  9  1  0
  1 10  1  0
  3 11  1  0
  4 12  1  0
  5 13  1  0
  7 14  1  0
  8 15  1  0
  8 16  1  0
  9 17  1  0
  9 18  1  0
  9 19  1  0
M  END
