
     RDKit          3D

 20 19  0  0  0  0  0  0  0  0999 V2000
    3.3934    0.5366   -0.4858 C   0  0  0  0  0  0  0  0  0  0  0  0
    2.2144    0.4493   -0.7171 C   0  0  0  0  0  0  0  0  0  0  0  0
    0.7525    0.3206   -0.9913 C   0  0  0  0  0  0  0  0  0  0  0  0
    0.0559   -0.1791    0.2506 C   0  0  0  0  0  0  0  0  0  0  0  0
    0.6304   -1.5242    0.6315 C   0  0  0  0  0  0  0  0  0  0  0  0
   -1.4144   -0.1926    0.0759 C   0  0  0  0  0  0  0  0  0  0  0  0
   -1.9448    1.1884   -0.1987 C   0  0  0  0  0  0  0  0  0  0  0  0
   -2.0920   -0.8255    1.1203 O   0  0  0  0  0  0  0  0  0  0  0  0
    4.4297    0.6090   -0.2939 H   0  0  0  0  0  0  0  0  0  0  0  0
    0.4475    1.3326   -1.3066 H   0  0  0  0  0  0  0  0  0  0  0  0
    0.6128   -0.3766   -1.8493 H   0  0  0  0  0  0  0  0  0  0  0  0
    0.3736    0.5363    1.0665 H   0  0  0  0  0  0  0  0  0  0  0  0
    0.0995   -2.3401    0.1480 H   0  0  0  0  0  0  0  0  0  0  0  0
    0.6334   -1.5906    1.7558 H   0  0  0  0  0  0  0  0  0  0  0  0
    1.7053   -1.5022    0.3347 H   0  0  0  0  0  0  0  0  0  0  0  0
   -1.6988   -0.7915   -0.8406 H   0  0  0  0  0  0  0  0  0  0  0  0
   -2.5850    1.4499    0.6806 H   0  0  0  0  0  0  0  0  0  0  0  0
   -2.5192    1.2685   -1.1453 H   0  0  0  0  0  0  0  0  0  0  0  0
   -1.0883    1.8900   -0.1793 H   0  0  0  0  0  0  0  0  0  0  0  0
   -2.0061   -0.2588    1.9438 H   0  0  0  0  0  0  0  0  0  0  0  0
  1  2  3  0
  2  3  1  0
  3  4  1  0
  4  5  1  0
  4  6  1  0
  6  7  1  0
  6  8  1  0
  1  9  1  0
  3 10  1  0
  3 11  1  0
  4 12  1  0
  5 13  1  0
  5 14  1  0
  5 15  1  0
  6 16  1  0
  7 17  1  0
  7 18  1  0
  7 19  1  0
  8 20  1  0
M  END
