
     RDKit          3D

 19 20  0  0  0  0  0  0  0  0999 V2000
   -2.6016    1.5561   -1.1528 C   0  0  0  0  0  0  0  0  0  0  0  0
   -1.7886    0.7915   -0.6873 C   0  0  0  0  0  0  0  0  0  0  0  0
   -0.8180   -0.1419   -0.1110 C   0  0  0  0  0  0  0  0  0  0  0  0
   -1.4562   -1.3460    0.4902 C   0  0  0  0  0  0  0  0  0  0  0  0
    0.2998   -0.4209   -1.1018 C   0  0  0  0  0  0  0  0  0  0  0  0
    1.1716    0.4605   -0.1897 C   0  0  0  0  0  0  0  0  0  0  0  0
    2.6176    0.1281   -0.2106 C   0  0  0  0  0  0  0  0  0  0  0  0
    0.7131    1.7286    0.0985 O   0  0  0  0  0  0  0  0  0  0  0  0
    0.2275    0.4896    0.7605 C   0  0  0  0  0  0  0  0  0  0  0  0
   -3.3108    2.2398   -1.5790 H   0  0  0  0  0  0  0  0  0  0  0  0
   -1.7042   -2.1093   -0.2652 H   0  0  0  0  0  0  0  0  0  0  0  0
   -0.7848   -1.7869    1.2614 H   0  0  0  0  0  0  0  0  0  0  0  0
   -2.4006   -1.0207    0.9860 H   0  0  0  0  0  0  0  0  0  0  0  0
    0.6485   -1.4492   -1.0423 H   0  0  0  0  0  0  0  0  0  0  0  0
    0.1338    0.0090   -2.0995 H   0  0  0  0  0  0  0  0  0  0  0  0
    2.8266   -0.8892    0.2015 H   0  0  0  0  0  0  0  0  0  0  0  0
    2.9767    0.2111   -1.2675 H   0  0  0  0  0  0  0  0  0  0  0  0
    3.1586    0.8633    0.4283 H   0  0  0  0  0  0  0  0  0  0  0  0
    0.0909    0.6866    1.8038 H   0  0  0  0  0  0  0  0  0  0  0  0
  1  2  3  0
  2  3  1  0
  3  4  1  0
  3  5  1  0
  5  6  1  0
  6  7  1  0
  6  8  1  0
  8  9  1  0
  9  3  1  0
  9  6  1  0
  1 10  1  0
  4 11  1  0
  4 12  1  0
  4 13  1  0
  5 14  1  0
  5 15  1  0
  7 16  1  0
  7 17  1  0
  7 18  1  0
  9 19  1  0
M  END
