
     RDKit          3D

 17 16  0  0  0  0  0  0  0  0999 V2000
    3.1288   -1.4569   -3.3729 C   0  0  0  0  0  0  0  0  0  0  0  0
    2.3706   -0.8302   -2.1884 C   0  0  0  0  0  0  0  0  0  0  0  0
    1.9987   -0.5080   -1.5988 C   0  0  0  0  0  0  0  0  0  0  0  0
    1.1652    0.1765   -0.3123 C   0  0  0  0  0  0  0  0  0  0  0  0
    0.5333    0.7110    0.6456 C   0  0  0  0  0  0  0  0  0  0  0  0
   -0.6298    1.5052    0.0760 O   0  0  0  0  0  0  0  0  0  0  0  0
   -0.2231   -0.3837    1.4596 C   0  0  0  0  0  0  0  0  0  0  0  0
   -1.2824    0.0560    2.1747 O   0  0  0  0  0  0  0  0  0  0  0  0
   -2.3907    0.4659    1.4404 C   0  0  0  0  0  0  0  0  0  0  0  0
    3.5760   -1.8098   -4.0689 H   0  0  0  0  0  0  0  0  0  0  0  0
    0.9915    1.4502    1.3411 H   0  0  0  0  0  0  0  0  0  0  0  0
   -0.7234    1.0927   -0.8142 H   0  0  0  0  0  0  0  0  0  0  0  0
   -0.5025   -1.1689    0.7387 H   0  0  0  0  0  0  0  0  0  0  0  0
    0.5103   -0.8208    2.2492 H   0  0  0  0  0  0  0  0  0  0  0  0
   -2.7749   -0.2851    0.6985 H   0  0  0  0  0  0  0  0  0  0  0  0
   -2.4628    1.4478    1.0363 H   0  0  0  0  0  0  0  0  0  0  0  0
   -3.2847    0.3580    2.2120 H   0  0  0  0  0  0  0  0  0  0  0  0
  1  2  3  0
  2  3  1  0
  3  4  3  0
  4  5  1  0
  5  6  1  0
  5  7  1  0
  7  8  1  0
  8  9  1  0
  1 10  1  0
  5 11  1  0
  6 12  1  0
  7 13  1  0
  7 14  1  0
  9 15  1  0
  9 16  1  0
  9 17  1  0
M  END
