
     RDKit          3D

 18 18  0  0  0  0  0  0  0  0999 V2000
    3.7036    1.7737    0.0288 C   0  0  0  0  0  0  0  0  0  0  0  0
    2.4606    1.2735   -0.4003 C   0  0  0  0  0  0  0  0  0  0  0  0
    1.2745    0.7811   -0.7943 C   0  0  0  0  0  0  0  0  0  0  0  0
    0.6618   -0.1811    0.2763 C   0  0  0  0  0  0  0  0  0  0  0  0
   -0.6649   -0.5629   -0.4056 C   0  0  0  0  0  0  0  0  0  0  0  0
   -1.5882   -1.4693    0.2929 C   0  0  0  0  0  0  0  0  0  0  0  0
   -2.4889   -0.2802    0.2028 C   0  0  0  0  0  0  0  0  0  0  0  0
   -1.5220    0.5195   -0.3805 O   0  0  0  0  0  0  0  0  0  0  0  0
    4.5479    2.1168    0.3377 H   0  0  0  0  0  0  0  0  0  0  0  0
    0.4449    1.5859   -0.9688 H   0  0  0  0  0  0  0  0  0  0  0  0
    1.2207    0.2330   -1.8172 H   0  0  0  0  0  0  0  0  0  0  0  0
    0.4518    0.4451    1.1405 H   0  0  0  0  0  0  0  0  0  0  0  0
    1.3074   -0.9828    0.5060 H   0  0  0  0  0  0  0  0  0  0  0  0
   -0.4493   -0.8154   -1.4883 H   0  0  0  0  0  0  0  0  0  0  0  0
   -1.8955   -2.3273   -0.3641 H   0  0  0  0  0  0  0  0  0  0  0  0
   -1.2405   -1.8085    1.2902 H   0  0  0  0  0  0  0  0  0  0  0  0
   -3.3380   -0.4025   -0.5769 H   0  0  0  0  0  0  0  0  0  0  0  0
   -2.8861    0.1015    1.1650 H   0  0  0  0  0  0  0  0  0  0  0  0
  1  2  3  0
  2  3  1  0
  3  4  1  0
  4  5  1  0
  5  6  1  0
  6  7  1  0
  7  8  1  0
  8  5  1  0
  1  9  1  0
  3 10  1  0
  3 11  1  0
  4 12  1  0
  4 13  1  0
  5 14  1  0
  6 15  1  0
  6 16  1  0
  7 17  1  0
  7 18  1  0
M  END
