
     RDKit          3D

 15 15  0  0  0  0  0  0  0  0999 V2000
    2.8538    0.1246   -0.8652 C   0  0  0  0  0  0  0  0  0  0  0  0
    1.7997    0.4136   -0.3262 C   0  0  0  0  0  0  0  0  0  0  0  0
    0.5261    0.7492    0.3257 C   0  0  0  0  0  0  0  0  0  0  0  0
   -0.4555   -0.3325   -0.0317 C   0  0  0  0  0  0  0  0  0  0  0  0
   -0.1005   -1.6110    0.3675 O   0  0  0  0  0  0  0  0  0  0  0  0
   -1.8661    0.0781    0.3278 C   0  0  0  0  0  0  0  0  0  0  0  0
   -1.9237    0.7396   -0.9185 O   0  0  0  0  0  0  0  0  0  0  0  0
   -0.9915   -0.1957   -1.3906 C   0  0  0  0  0  0  0  0  0  0  0  0
   -0.8067   -0.6420   -2.5452 O   0  0  0  0  0  0  0  0  0  0  0  0
    3.7772   -0.1215   -1.3292 H   0  0  0  0  0  0  0  0  0  0  0  0
    0.1553    1.7067   -0.0648 H   0  0  0  0  0  0  0  0  0  0  0  0
    0.6594    0.7380    1.4315 H   0  0  0  0  0  0  0  0  0  0  0  0
    0.7909   -1.6734    0.7652 H   0  0  0  0  0  0  0  0  0  0  0  0
   -2.4975   -0.8082    0.4387 H   0  0  0  0  0  0  0  0  0  0  0  0
   -1.9209    0.8346    1.1435 H   0  0  0  0  0  0  0  0  0  0  0  0
  1  2  3  0
  2  3  1  0
  3  4  1  0
  4  5  1  0
  4  6  1  0
  6  7  1  0
  7  8  1  0
  8  9  2  0
  8  4  1  0
  1 10  1  0
  3 11  1  0
  3 12  1  0
  5 13  1  0
  6 14  1  0
  6 15  1  0
M  END
