
     RDKit          3D

 19 19  0  0  0  0  0  0  0  0999 V2000
    1.2434    2.7557    0.2986 C   0  0  0  0  0  0  0  0  0  0  0  0
    1.4305    1.5722    0.4341 C   0  0  0  0  0  0  0  0  0  0  0  0
    1.6795    0.1335    0.5852 C   0  0  0  0  0  0  0  0  0  0  0  0
    1.6203   -0.6955   -0.6940 C   0  0  0  0  0  0  0  0  0  0  0  0
    0.5507   -0.8342    0.3165 C   0  0  0  0  0  0  0  0  0  0  0  0
    0.5145   -2.1210    1.1373 C   0  0  0  0  0  0  0  0  0  0  0  0
   -0.7401   -0.2179    0.0066 C   0  0  0  0  0  0  0  0  0  0  0  0
   -1.7947    0.3055   -0.2592 C   0  0  0  0  0  0  0  0  0  0  0  0
   -3.0874    0.9597   -0.5670 C   0  0  0  0  0  0  0  0  0  0  0  0
    1.0745    3.8146    0.1855 H   0  0  0  0  0  0  0  0  0  0  0  0
    2.4275   -0.1299    1.3566 H   0  0  0  0  0  0  0  0  0  0  0  0
    1.5019   -0.1309   -1.6262 H   0  0  0  0  0  0  0  0  0  0  0  0
    2.4195   -1.4612   -0.7437 H   0  0  0  0  0  0  0  0  0  0  0  0
   -0.5442   -2.3453    1.3821 H   0  0  0  0  0  0  0  0  0  0  0  0
    0.8716   -2.9620    0.4869 H   0  0  0  0  0  0  0  0  0  0  0  0
    1.0808   -2.0331    2.0741 H   0  0  0  0  0  0  0  0  0  0  0  0
   -3.6042    1.2755    0.3801 H   0  0  0  0  0  0  0  0  0  0  0  0
   -2.8611    1.8544   -1.1482 H   0  0  0  0  0  0  0  0  0  0  0  0
   -3.7829    0.2598   -1.0683 H   0  0  0  0  0  0  0  0  0  0  0  0
  1  2  3  0
  2  3  1  0
  3  4  1  0
  4  5  1  0
  5  6  1  0
  5  7  1  0
  7  8  3  0
  8  9  1  0
  5  3  1  0
  1 10  1  0
  3 11  1  0
  4 12  1  0
  4 13  1  0
  6 14  1  0
  6 15  1  0
  6 16  1  0
  9 17  1  0
  9 18  1  0
  9 19  1  0
M  END
