
     RDKit          3D

 14 13  0  0  0  0  0  0  0  0999 V2000
    0.3519    1.9655    1.9179 C   0  0  0  0  0  0  0  0  0  0  0  0
    0.1591    1.0093    1.3940 C   0  0  0  0  0  0  0  0  0  0  0  0
   -0.0680   -0.1466    0.7354 C   0  0  0  0  0  0  0  0  0  0  0  0
    0.3843   -1.3810    1.5582 C   0  0  0  0  0  0  0  0  0  0  0  0
   -0.2799   -2.4206    1.5886 O   0  0  0  0  0  0  0  0  0  0  0  0
   -0.7580   -0.3927   -0.5034 C   0  0  0  0  0  0  0  0  0  0  0  0
   -0.3667    0.1161   -1.8286 C   0  0  0  0  0  0  0  0  0  0  0  0
   -1.8002   -1.1233   -0.4643 O   0  0  0  0  0  0  0  0  0  0  0  0
    0.5947    3.0984    2.5203 H   0  0  0  0  0  0  0  0  0  0  0  0
    1.1382   -0.2046    0.1069 H   0  0  0  0  0  0  0  0  0  0  0  0
    1.3023   -1.3036    2.0895 H   0  0  0  0  0  0  0  0  0  0  0  0
   -0.6882   -0.6068   -2.6190 H   0  0  0  0  0  0  0  0  0  0  0  0
    0.7477    0.2039   -1.9347 H   0  0  0  0  0  0  0  0  0  0  0  0
   -0.7171    1.1860   -2.0244 H   0  0  0  0  0  0  0  0  0  0  0  0
  1  2  3  0
  2  3  1  0
  3  4  1  0
  4  5  2  0
  3  6  1  0
  6  7  1  0
  6  8  2  0
  1  9  1  0
  3 10  1  0
  4 11  1  0
  7 12  1  0
  7 13  1  0
  7 14  1  0
M  END
