
     RDKit          3D

 21 22  0  0  0  0  0  0  0  0999 V2000
    3.7550   -0.0951   -0.1975 C   0  0  0  0  0  0  0  0  0  0  0  0
    2.6311   -0.1033   -0.6353 C   0  0  0  0  0  0  0  0  0  0  0  0
    1.2683   -0.0955   -1.1846 C   0  0  0  0  0  0  0  0  0  0  0  0
    0.3728    0.4786   -0.1335 C   0  0  0  0  0  0  0  0  0  0  0  0
    0.4237   -0.3640    1.1239 C   0  0  0  0  0  0  0  0  0  0  0  0
   -0.9756   -0.8456    0.9160 C   0  0  0  0  0  0  0  0  0  0  0  0
   -1.4925   -1.2056   -0.4226 C   0  0  0  0  0  0  0  0  0  0  0  0
   -1.0842    0.1819   -0.2376 C   0  0  0  0  0  0  0  0  0  0  0  0
   -2.0812    1.2898    0.0242 C   0  0  0  0  0  0  0  0  0  0  0  0
    4.7507   -0.0740    0.2037 H   0  0  0  0  0  0  0  0  0  0  0  0
    1.2676    0.4861   -2.1282 H   0  0  0  0  0  0  0  0  0  0  0  0
    0.9931   -1.1494   -1.3499 H   0  0  0  0  0  0  0  0  0  0  0  0
    0.5461    1.5646    0.0387 H   0  0  0  0  0  0  0  0  0  0  0  0
    1.2189   -1.1086    1.1768 H   0  0  0  0  0  0  0  0  0  0  0  0
    0.4934    0.3075    2.0178 H   0  0  0  0  0  0  0  0  0  0  0  0
   -1.6724   -0.7495    1.7465 H   0  0  0  0  0  0  0  0  0  0  0  0
   -0.9146   -1.8362   -1.1293 H   0  0  0  0  0  0  0  0  0  0  0  0
   -2.5804   -1.4069   -0.4725 H   0  0  0  0  0  0  0  0  0  0  0  0
   -1.5484    2.1025    0.5563 H   0  0  0  0  0  0  0  0  0  0  0  0
   -2.4931    1.7053   -0.9135 H   0  0  0  0  0  0  0  0  0  0  0  0
   -2.8785    0.9175    0.7135 H   0  0  0  0  0  0  0  0  0  0  0  0
  1  2  3  0
  2  3  1  0
  3  4  1  0
  4  5  1  0
  5  6  1  0
  6  7  1  0
  7  8  1  0
  8  9  1  0
  8  4  1  0
  8  6  1  0
  1 10  1  0
  3 11  1  0
  3 12  1  0
  4 13  1  0
  5 14  1  0
  5 15  1  0
  6 16  1  0
  7 17  1  0
  7 18  1  0
  9 19  1  0
  9 20  1  0
  9 21  1  0
M  END
