
     RDKit          3D

 15 16  0  0  0  0  0  0  0  0999 V2000
    2.9158    1.0324    0.7432 C   0  0  0  0  0  0  0  0  0  0  0  0
    2.0091    0.1325    0.2717 C   0  0  0  0  0  0  0  0  0  0  0  0
    1.1921   -0.6546   -0.1335 C   0  0  0  0  0  0  0  0  0  0  0  0
    0.4434   -1.5906    0.7273 O   0  0  0  0  0  0  0  0  0  0  0  0
   -0.2155   -0.6489    0.0470 C   0  0  0  0  0  0  0  0  0  0  0  0
   -0.9390    0.5502    0.6827 C   0  0  0  0  0  0  0  0  0  0  0  0
   -1.6919    0.6731   -0.5987 C   0  0  0  0  0  0  0  0  0  0  0  0
   -2.2530    1.5945   -1.1425 O   0  0  0  0  0  0  0  0  0  0  0  0
   -1.3912   -0.8341   -0.7926 C   0  0  0  0  0  0  0  0  0  0  0  0
    3.7531    1.8381    1.1639 H   0  0  0  0  0  0  0  0  0  0  0  0
    1.4148   -1.2691   -1.1743 H   0  0  0  0  0  0  0  0  0  0  0  0
   -1.6350    0.2628    1.5152 H   0  0  0  0  0  0  0  0  0  0  0  0
   -0.1889    1.3677    0.9343 H   0  0  0  0  0  0  0  0  0  0  0  0
   -1.1814   -1.0003   -1.8816 H   0  0  0  0  0  0  0  0  0  0  0  0
   -2.2324   -1.4536   -0.3907 H   0  0  0  0  0  0  0  0  0  0  0  0
  1  2  3  0
  2  3  1  0
  3  4  1  0
  4  5  1  0
  5  6  1  0
  6  7  1  0
  7  8  2  0
  7  9  1  0
  5  3  1  0
  9  5  1  0
  1 10  1  0
  3 11  1  0
  6 12  1  0
  6 13  1  0
  9 14  1  0
  9 15  1  0
M  END
