
     RDKit          3D

 21 21  0  0  0  0  0  0  0  0999 V2000
   -0.3238    3.1554    0.0909 C   0  0  0  0  0  0  0  0  0  0  0  0
    0.1077    1.9620    0.3507 C   0  0  0  0  0  0  0  0  0  0  0  0
    0.5835    0.6721    0.6491 C   0  0  0  0  0  0  0  0  0  0  0  0
   -0.2196   -0.0404    1.7571 C   0  0  0  0  0  0  0  0  0  0  0  0
   -1.6912    0.1523    1.2689 C   0  0  0  0  0  0  0  0  0  0  0  0
    1.7933    0.0951    0.0570 C   0  0  0  0  0  0  0  0  0  0  0  0
    0.5215   -0.2880   -0.5555 C   0  0  0  0  0  0  0  0  0  0  0  0
   -0.0048   -1.6762   -0.4563 C   0  0  0  0  0  0  0  0  0  0  0  0
    0.2424   -2.1983   -1.8352 O   0  0  0  0  0  0  0  0  0  0  0  0
   -0.6903    4.1847   -0.1384 H   0  0  0  0  0  0  0  0  0  0  0  0
   -0.0221   -1.1506    1.6881 H   0  0  0  0  0  0  0  0  0  0  0  0
   -0.1061    0.2797    2.7325 H   0  0  0  0  0  0  0  0  0  0  0  0
   -2.0452    1.1755    1.5706 H   0  0  0  0  0  0  0  0  0  0  0  0
   -2.3927   -0.5650    1.6763 H   0  0  0  0  0  0  0  0  0  0  0  0
   -1.7179    0.2056    0.1473 H   0  0  0  0  0  0  0  0  0  0  0  0
    2.4350    0.6821   -0.6957 H   0  0  0  0  0  0  0  0  0  0  0  0
    2.4081   -0.6681    0.5210 H   0  0  0  0  0  0  0  0  0  0  0  0
    0.1818    0.1984   -1.4749 H   0  0  0  0  0  0  0  0  0  0  0  0
    0.6847   -2.2552    0.1881 H   0  0  0  0  0  0  0  0  0  0  0  0
   -1.0164   -1.8774   -0.3125 H   0  0  0  0  0  0  0  0  0  0  0  0
    1.2723   -2.0436   -1.8424 H   0  0  0  0  0  0  0  0  0  0  0  0
  1  2  3  0
  2  3  1  0
  3  4  1  0
  4  5  1  0
  3  6  1  0
  6  7  1  0
  7  8  1  0
  8  9  1  0
  7  3  1  0
  1 10  1  0
  4 11  1  0
  4 12  1  0
  5 13  1  0
  5 14  1  0
  5 15  1  0
  6 16  1  0
  6 17  1  0
  7 18  1  0
  8 19  1  0
  8 20  1  0
  9 21  1  0
M  END
