
     RDKit          3D

 19 19  0  0  0  0  0  0  0  0999 V2000
    2.5100    1.5654    0.5543 C   0  0  0  0  0  0  0  0  0  0  0  0
    1.5291    1.0519    0.6529 C   0  0  0  0  0  0  0  0  0  0  0  0
    0.1637    0.3078    0.7995 C   0  0  0  0  0  0  0  0  0  0  0  0
    0.5840   -1.1197    1.0117 C   0  0  0  0  0  0  0  0  0  0  0  0
    0.3054   -1.7816   -0.3208 C   0  0  0  0  0  0  0  0  0  0  0  0
   -0.8925   -1.0191   -0.7297 C   0  0  0  0  0  0  0  0  0  0  0  0
   -1.8752   -1.4677   -1.0917 O   0  0  0  0  0  0  0  0  0  0  0  0
   -0.5055    0.4454   -0.5443 C   0  0  0  0  0  0  0  0  0  0  0  0
   -1.7319    1.3264   -0.4626 C   0  0  0  0  0  0  0  0  0  0  0  0
    3.5897    2.1488    0.4595 H   0  0  0  0  0  0  0  0  0  0  0  0
   -0.4168    0.8024    1.5530 H   0  0  0  0  0  0  0  0  0  0  0  0
   -0.0401   -1.5562    1.7857 H   0  0  0  0  0  0  0  0  0  0  0  0
    1.6683   -1.1658    1.3094 H   0  0  0  0  0  0  0  0  0  0  0  0
    1.1011   -1.5661   -1.0679 H   0  0  0  0  0  0  0  0  0  0  0  0
    0.1104   -2.8630   -0.2206 H   0  0  0  0  0  0  0  0  0  0  0  0
    0.2009    0.6752   -1.3336 H   0  0  0  0  0  0  0  0  0  0  0  0
   -2.5051    0.6522    0.1191 H   0  0  0  0  0  0  0  0  0  0  0  0
   -2.2236    1.3551   -1.4363 H   0  0  0  0  0  0  0  0  0  0  0  0
   -1.5718    2.2085    0.1253 H   0  0  0  0  0  0  0  0  0  0  0  0
  1  2  3  0
  2  3  1  0
  3  4  1  0
  4  5  1  0
  5  6  1  0
  6  7  2  0
  6  8  1  0
  8  9  1  0
  8  3  1  0
  1 10  1  0
  3 11  1  0
  4 12  1  0
  4 13  1  0
  5 14  1  0
  5 15  1  0
  8 16  1  0
  9 17  1  0
  9 18  1  0
  9 19  1  0
M  END
