
     RDKit          3D

 18 17  0  0  0  0  0  0  0  0999 V2000
    4.4595    0.0614   -1.8005 C   0  0  0  0  0  0  0  0  0  0  0  0
    3.4841    0.5056   -1.0100 C   0  0  0  0  0  0  0  0  0  0  0  0
    2.7920    0.8295   -0.4482 C   0  0  0  0  0  0  0  0  0  0  0  0
    1.3412    0.6373   -0.3771 C   0  0  0  0  0  0  0  0  0  0  0  0
   -0.1899    0.4310   -0.3214 C   0  0  0  0  0  0  0  0  0  0  0  0
   -1.2790    0.2728   -0.2729 C   0  0  0  0  0  0  0  0  0  0  0  0
   -1.6643   -0.8560    0.9208 C   0  0  0  0  0  0  0  0  0  0  0  0
   -3.1326   -0.9032    0.7573 C   0  0  0  0  0  0  0  0  0  0  0  0
    5.5370   -0.4079   -2.6471 H   0  0  0  0  0  0  0  0  0  0  0  0
    2.9941    0.9629    0.8351 H   0  0  0  0  0  0  0  0  0  0  0  0
    2.6735    2.1906   -0.4124 H   0  0  0  0  0  0  0  0  0  0  0  0
   -1.9010    1.1418    0.3627 H   0  0  0  0  0  0  0  0  0  0  0  0
   -2.1160   -0.0053   -1.0045 H   0  0  0  0  0  0  0  0  0  0  0  0
   -1.1272   -1.6990    0.3010 H   0  0  0  0  0  0  0  0  0  0  0  0
   -1.2521   -0.5534    1.8512 H   0  0  0  0  0  0  0  0  0  0  0  0
   -3.5604   -0.7818    1.8135 H   0  0  0  0  0  0  0  0  0  0  0  0
   -3.5060   -1.8183    0.3240 H   0  0  0  0  0  0  0  0  0  0  0  0
   -3.5531   -0.0080    0.1154 H   0  0  0  0  0  0  0  0  0  0  0  0
  1  2  3  0
  2  3  1  0
  3  4  1  0
  4  5  3  0
  5  6  1  0
  6  7  1  0
  7  8  1  0
  1  9  1  0
  3 10  1  0
  3 11  1  0
  6 12  1  0
  6 13  1  0
  7 14  1  0
  7 15  1  0
  8 16  1  0
  8 17  1  0
  8 18  1  0
M  END
