
     RDKit          3D

 16 16  0  0  0  0  0  0  0  0999 V2000
    3.9437   -0.5840    0.3020 C   0  0  0  0  0  0  0  0  0  0  0  0
    2.5213    0.1206   -0.3198 C   0  0  0  0  0  0  0  0  0  0  0  0
    1.5056    0.6284   -0.7447 C   0  0  0  0  0  0  0  0  0  0  0  0
    0.9129    0.2607   -1.9792 O   0  0  0  0  0  0  0  0  0  0  0  0
    0.3557   -0.4379   -0.9201 C   0  0  0  0  0  0  0  0  0  0  0  0
   -0.7425   -0.2112    0.0574 C   0  0  0  0  0  0  0  0  0  0  0  0
   -2.0636   -0.1828   -0.4704 O   0  0  0  0  0  0  0  0  0  0  0  0
   -2.8606    0.2512    0.5839 C   0  0  0  0  0  0  0  0  0  0  0  0
    4.7487   -0.9807    0.6561 H   0  0  0  0  0  0  0  0  0  0  0  0
    1.2000    1.6874   -0.5522 H   0  0  0  0  0  0  0  0  0  0  0  0
    0.7131   -1.5314   -0.9370 H   0  0  0  0  0  0  0  0  0  0  0  0
   -0.6401   -1.0080    0.8961 H   0  0  0  0  0  0  0  0  0  0  0  0
   -0.6061    0.7296    0.7061 H   0  0  0  0  0  0  0  0  0  0  0  0
   -3.9037    0.3847    0.3678 H   0  0  0  0  0  0  0  0  0  0  0  0
   -2.4050    1.2772    0.8850 H   0  0  0  0  0  0  0  0  0  0  0  0
   -2.6792   -0.4038    1.4691 H   0  0  0  0  0  0  0  0  0  0  0  0
  1  2  3  0
  2  3  1  0
  3  4  1  0
  4  5  1  0
  5  6  1  0
  6  7  1  0
  7  8  1  0
  5  3  1  0
  1  9  1  0
  3 10  1  0
  5 11  1  0
  6 12  1  0
  6 13  1  0
  8 14  1  0
  8 15  1  0
  8 16  1  0
M  END
