
     RDKit          3D

 17 16  0  0  0  0  0  0  0  0999 V2000
    2.4401    1.4264    2.0591 C   0  0  0  0  0  0  0  0  0  0  0  0
    2.1551    0.7214    1.2166 C   0  0  0  0  0  0  0  0  0  0  0  0
    1.7879   -0.2043    0.0748 C   0  0  0  0  0  0  0  0  0  0  0  0
    2.6026   -0.5431   -0.7543 O   0  0  0  0  0  0  0  0  0  0  0  0
    0.3801   -0.6629    0.0472 C   0  0  0  0  0  0  0  0  0  0  0  0
    0.2063   -1.5738   -1.0136 O   0  0  0  0  0  0  0  0  0  0  0  0
   -0.5583    0.4964   -0.2592 C   0  0  0  0  0  0  0  0  0  0  0  0
   -1.9890    0.0604   -0.2632 C   0  0  0  0  0  0  0  0  0  0  0  0
   -2.3040   -0.4201    1.0275 O   0  0  0  0  0  0  0  0  0  0  0  0
    2.7173    2.0873    2.8781 H   0  0  0  0  0  0  0  0  0  0  0  0
    0.0686   -1.1343    0.9876 H   0  0  0  0  0  0  0  0  0  0  0  0
   -0.3244   -2.3604   -0.7179 H   0  0  0  0  0  0  0  0  0  0  0  0
   -0.3574    1.3377    0.4257 H   0  0  0  0  0  0  0  0  0  0  0  0
   -0.3114    0.7722   -1.3261 H   0  0  0  0  0  0  0  0  0  0  0  0
   -2.7051    0.8410   -0.5526 H   0  0  0  0  0  0  0  0  0  0  0  0
   -2.1542   -0.8019   -0.9693 H   0  0  0  0  0  0  0  0  0  0  0  0
   -1.6543   -0.0421    1.6553 H   0  0  0  0  0  0  0  0  0  0  0  0
  1  2  3  0
  2  3  1  0
  3  4  2  0
  3  5  1  0
  5  6  1  0
  5  7  1  0
  7  8  1  0
  8  9  1  0
  1 10  1  0
  5 11  1  0
  6 12  1  0
  7 13  1  0
  7 14  1  0
  8 15  1  0
  8 16  1  0
  9 17  1  0
M  END
