
     RDKit          3D

 21 20  0  0  0  0  0  0  0  0999 V2000
   -0.4312    2.6992    0.4632 C   0  0  0  0  0  0  0  0  0  0  0  0
   -0.2076    1.5882    0.6015 C   0  0  0  0  0  0  0  0  0  0  0  0
    0.1322   -0.0633    0.7959 C   0  0  0  0  0  0  0  0  0  0  0  0
    1.0558    0.0128    0.2741 C   0  0  0  0  0  0  0  0  0  0  0  0
    2.4635    0.1284   -0.5055 C   0  0  0  0  0  0  0  0  0  0  0  0
    3.6520    0.2229   -1.1576 C   0  0  0  0  0  0  0  0  0  0  0  0
   -1.1889   -0.5807    0.1014 C   0  0  0  0  0  0  0  0  0  0  0  0
   -1.2956   -2.0499    0.1715 C   0  0  0  0  0  0  0  0  0  0  0  0
   -2.3836    0.1100    0.6840 C   0  0  0  0  0  0  0  0  0  0  0  0
   -0.6766    3.8156    0.3240 H   0  0  0  0  0  0  0  0  0  0  0  0
   -0.1394   -0.0845    1.9256 H   0  0  0  0  0  0  0  0  0  0  0  0
    3.8713   -0.7465   -1.7092 H   0  0  0  0  0  0  0  0  0  0  0  0
    4.5353    0.3474   -0.4416 H   0  0  0  0  0  0  0  0  0  0  0  0
    3.7524    1.0951   -1.8422 H   0  0  0  0  0  0  0  0  0  0  0  0
   -1.1086   -0.2457   -0.9462 H   0  0  0  0  0  0  0  0  0  0  0  0
   -2.1666   -2.3473   -0.5035 H   0  0  0  0  0  0  0  0  0  0  0  0
   -1.3904   -2.4363    1.1967 H   0  0  0  0  0  0  0  0  0  0  0  0
   -0.4368   -2.5766   -0.3903 H   0  0  0  0  0  0  0  0  0  0  0  0
   -1.9663    1.0123    1.2269 H   0  0  0  0  0  0  0  0  0  0  0  0
   -3.0805    0.5749   -0.1208 H   0  0  0  0  0  0  0  0  0  0  0  0
   -2.9902   -0.4759    1.4120 H   0  0  0  0  0  0  0  0  0  0  0  0
  1  2  3  0
  2  3  1  0
  3  4  1  0
  4  5  3  0
  5  6  1  0
  3  7  1  0
  7  8  1  0
  7  9  1  0
  1 10  1  0
  3 11  1  0
  6 12  1  0
  6 13  1  0
  6 14  1  0
  7 15  1  0
  8 16  1  0
  8 17  1  0
  8 18  1  0
  9 19  1  0
  9 20  1  0
  9 21  1  0
M  END
