
     RDKit          3D

 21 20  0  0  0  0  0  0  0  0999 V2000
   -2.8011   -0.1382   -1.3642 C   0  0  0  0  0  0  0  0  0  0  0  0
   -1.6427   -0.4616   -1.3679 C   0  0  0  0  0  0  0  0  0  0  0  0
   -0.2314   -0.8783   -1.3859 C   0  0  0  0  0  0  0  0  0  0  0  0
    0.6670    0.1665   -0.8286 C   0  0  0  0  0  0  0  0  0  0  0  0
    0.5263    1.3407   -1.5899 O   0  0  0  0  0  0  0  0  0  0  0  0
    0.6019    0.4130    0.6294 C   0  0  0  0  0  0  0  0  0  0  0  0
   -0.7131    0.8465    1.1804 C   0  0  0  0  0  0  0  0  0  0  0  0
    1.1948   -0.6963    1.4720 C   0  0  0  0  0  0  0  0  0  0  0  0
    1.0621   -0.3203    2.8298 O   0  0  0  0  0  0  0  0  0  0  0  0
   -3.8239    0.1569   -1.3485 H   0  0  0  0  0  0  0  0  0  0  0  0
    0.0364   -1.0367   -2.4526 H   0  0  0  0  0  0  0  0  0  0  0  0
   -0.0811   -1.8636   -0.8993 H   0  0  0  0  0  0  0  0  0  0  0  0
    1.7326   -0.1789   -1.0476 H   0  0  0  0  0  0  0  0  0  0  0  0
    1.0440    2.0624   -1.1583 H   0  0  0  0  0  0  0  0  0  0  0  0
    1.3018    1.2983    0.8212 H   0  0  0  0  0  0  0  0  0  0  0  0
   -1.3470    1.4363    0.5218 H   0  0  0  0  0  0  0  0  0  0  0  0
   -1.2679   -0.0627    1.5180 H   0  0  0  0  0  0  0  0  0  0  0  0
   -0.5727    1.4221    2.1496 H   0  0  0  0  0  0  0  0  0  0  0  0
    2.2422   -0.8889    1.2394 H   0  0  0  0  0  0  0  0  0  0  0  0
    0.5849   -1.6074    1.3418 H   0  0  0  0  0  0  0  0  0  0  0  0
    1.4868   -1.0097    3.4034 H   0  0  0  0  0  0  0  0  0  0  0  0
  1  2  3  0
  2  3  1  0
  3  4  1  0
  4  5  1  0
  4  6  1  0
  6  7  1  0
  6  8  1  0
  8  9  1  0
  1 10  1  0
  3 11  1  0
  3 12  1  0
  4 13  1  0
  5 14  1  0
  6 15  1  0
  7 16  1  0
  7 17  1  0
  7 18  1  0
  8 19  1  0
  8 20  1  0
  9 21  1  0
M  END
