
     RDKit          3D

 19 20  0  0  0  0  0  0  0  0999 V2000
    0.7852   -2.5318   -1.0026 C   0  0  0  0  0  0  0  0  0  0  0  0
    0.9572   -1.2110   -0.3964 C   0  0  0  0  0  0  0  0  0  0  0  0
    1.0539   -0.3872   -0.0058 C   0  0  0  0  0  0  0  0  0  0  0  0
    1.5306   -0.2936    1.6662 C   0  0  0  0  0  0  0  0  0  0  0  0
   -0.0739    0.7810    0.1982 C   0  0  0  0  0  0  0  0  0  0  0  0
   -0.5323    1.2001   -1.0678 C   0  0  0  0  0  0  0  0  0  0  0  0
   -1.9565    0.9935   -0.6145 C   0  0  0  0  0  0  0  0  0  0  0  0
   -1.4716    0.1945    0.4516 C   0  0  0  0  0  0  0  0  0  0  0  0
   -0.5920    0.3726    1.4053 O   0  0  0  0  0  0  0  0  0  0  0  0
    0.6470   -3.6340   -1.5248 H   0  0  0  0  0  0  0  0  0  0  0  0
    2.1396    0.2894   -0.2366 H   0  0  0  0  0  0  0  0  0  0  0  0
    2.5435   -0.4752    1.7509 H   0  0  0  0  0  0  0  0  0  0  0  0
    1.4303    0.8989    1.7747 H   0  0  0  0  0  0  0  0  0  0  0  0
    0.7710   -0.7133    2.2770 H   0  0  0  0  0  0  0  0  0  0  0  0
   -0.3141    2.3414   -1.1910 H   0  0  0  0  0  0  0  0  0  0  0  0
   -0.2751    0.6711   -1.9775 H   0  0  0  0  0  0  0  0  0  0  0  0
   -2.4527    1.9935   -0.4220 H   0  0  0  0  0  0  0  0  0  0  0  0
   -2.6070    0.4456   -1.3440 H   0  0  0  0  0  0  0  0  0  0  0  0
   -1.5832   -0.9355    0.2592 H   0  0  0  0  0  0  0  0  0  0  0  0
  1  2  3  0
  2  3  1  0
  3  4  1  0
  3  5  1  0
  5  6  1  0
  6  7  1  0
  7  8  1  0
  8  9  1  0
  8  5  1  0
  9  5  1  0
  1 10  1  0
  3 11  1  0
  4 12  1  0
  4 13  1  0
  4 14  1  0
  6 15  1  0
  6 16  1  0
  7 17  1  0
  7 18  1  0
  8 19  1  0
M  END
