
     RDKit          3D

 21 21  0  0  0  0  0  0  0  0999 V2000
    3.2047    0.2536    0.5471 C   0  0  0  0  0  0  0  0  0  0  0  0
    2.0174    0.0332    0.5129 C   0  0  0  0  0  0  0  0  0  0  0  0
    0.5668   -0.2321    0.4511 C   0  0  0  0  0  0  0  0  0  0  0  0
    0.2379   -0.9108   -0.8550 C   0  0  0  0  0  0  0  0  0  0  0  0
   -0.7315   -2.0608   -0.6422 C   0  0  0  0  0  0  0  0  0  0  0  0
   -0.3761    0.3516   -1.3647 C   0  0  0  0  0  0  0  0  0  0  0  0
   -0.2440    0.9348    0.0218 C   0  0  0  0  0  0  0  0  0  0  0  0
   -1.5791    1.1104    0.6685 C   0  0  0  0  0  0  0  0  0  0  0  0
    0.5054    2.1378    0.0394 O   0  0  0  0  0  0  0  0  0  0  0  0
    4.2454    0.4469    0.5587 H   0  0  0  0  0  0  0  0  0  0  0  0
    0.2209   -0.7871    1.3433 H   0  0  0  0  0  0  0  0  0  0  0  0
    1.1273   -1.1890   -1.4726 H   0  0  0  0  0  0  0  0  0  0  0  0
   -1.7742   -1.7184   -0.5060 H   0  0  0  0  0  0  0  0  0  0  0  0
   -0.7227   -2.6478   -1.5838 H   0  0  0  0  0  0  0  0  0  0  0  0
   -0.4419   -2.6754    0.2233 H   0  0  0  0  0  0  0  0  0  0  0  0
   -1.4025    0.2310   -1.7456 H   0  0  0  0  0  0  0  0  0  0  0  0
    0.2680    0.9039   -2.1042 H   0  0  0  0  0  0  0  0  0  0  0  0
   -2.3330    0.5288    0.1049 H   0  0  0  0  0  0  0  0  0  0  0  0
   -1.5884    0.7719    1.7396 H   0  0  0  0  0  0  0  0  0  0  0  0
   -1.8640    2.2013    0.6727 H   0  0  0  0  0  0  0  0  0  0  0  0
    0.6637    2.3163    1.0168 H   0  0  0  0  0  0  0  0  0  0  0  0
  1  2  3  0
  2  3  1  0
  3  4  1  0
  4  5  1  0
  4  6  1  0
  6  7  1  0
  7  8  1  0
  7  9  1  0
  7  3  1  0
  1 10  1  0
  3 11  1  0
  4 12  1  0
  5 13  1  0
  5 14  1  0
  5 15  1  0
  6 16  1  0
  6 17  1  0
  8 18  1  0
  8 19  1  0
  8 20  1  0
  9 21  1  0
M  END
