
     RDKit          3D

 17 18  0  0  0  0  0  0  0  0999 V2000
    3.0016   -0.7808    0.1278 C   0  0  0  0  0  0  0  0  0  0  0  0
    1.8412   -0.4943    0.1483 C   0  0  0  0  0  0  0  0  0  0  0  0
    0.5488   -0.1890    0.1837 C   0  0  0  0  0  0  0  0  0  0  0  0
   -0.5812   -1.0135   -0.3555 C   0  0  0  0  0  0  0  0  0  0  0  0
   -1.2466    0.2346    0.1899 C   0  0  0  0  0  0  0  0  0  0  0  0
   -2.4553    0.5262    0.2086 O   0  0  0  0  0  0  0  0  0  0  0  0
   -0.2973    0.0792    1.3666 C   0  0  0  0  0  0  0  0  0  0  0  0
   -0.1056    0.9879   -0.4729 C   0  0  0  0  0  0  0  0  0  0  0  0
   -0.1395    0.9711   -1.8580 O   0  0  0  0  0  0  0  0  0  0  0  0
    4.0580   -1.0266    0.1211 H   0  0  0  0  0  0  0  0  0  0  0  0
   -0.7521   -1.9346    0.1999 H   0  0  0  0  0  0  0  0  0  0  0  0
   -0.6282   -1.1308   -1.4515 H   0  0  0  0  0  0  0  0  0  0  0  0
   -3.1096   -0.1454   -0.1101 H   0  0  0  0  0  0  0  0  0  0  0  0
   -0.4702   -0.8229    1.9891 H   0  0  0  0  0  0  0  0  0  0  0  0
   -0.1587    1.0257    1.9058 H   0  0  0  0  0  0  0  0  0  0  0  0
    0.0906    1.9802   -0.0163 H   0  0  0  0  0  0  0  0  0  0  0  0
    0.4042    1.7331   -2.1766 H   0  0  0  0  0  0  0  0  0  0  0  0
  1  2  3  0
  2  3  1  0
  3  4  1  0
  4  5  1  0
  5  6  1  0
  5  7  1  0
  5  8  1  0
  8  9  1  0
  7  3  1  0
  8  3  1  0
  1 10  1  0
  4 11  1  0
  4 12  1  0
  6 13  1  0
  7 14  1  0
  7 15  1  0
  8 16  1  0
  9 17  1  0
M  END
