
     RDKit          3D

 19 19  0  0  0  0  0  0  0  0999 V2000
    2.3098   -0.9300    2.5826 C   0  0  0  0  0  0  0  0  0  0  0  0
    1.4275   -0.2449    1.6349 C   0  0  0  0  0  0  0  0  0  0  0  0
    0.6345    0.3709    0.8062 C   0  0  0  0  0  0  0  0  0  0  0  0
    1.2768   -0.1361   -0.5297 C   0  0  0  0  0  0  0  0  0  0  0  0
    0.4011   -0.3787   -1.4999 C   0  0  0  0  0  0  0  0  0  0  0  0
   -0.9546   -0.0158   -0.8419 C   0  0  0  0  0  0  0  0  0  0  0  0
   -1.3425    1.3971   -1.1521 C   0  0  0  0  0  0  0  0  0  0  0  0
   -1.8192   -0.9319   -1.4581 O   0  0  0  0  0  0  0  0  0  0  0  0
   -0.7186   -0.3634    0.5545 C   0  0  0  0  0  0  0  0  0  0  0  0
    2.9618   -1.4163    3.2602 H   0  0  0  0  0  0  0  0  0  0  0  0
    0.5803    1.4226    0.6450 H   0  0  0  0  0  0  0  0  0  0  0  0
    2.3478   -0.3536   -0.7322 H   0  0  0  0  0  0  0  0  0  0  0  0
    0.5910   -0.7471   -2.4604 H   0  0  0  0  0  0  0  0  0  0  0  0
   -1.1092    1.6136   -2.2435 H   0  0  0  0  0  0  0  0  0  0  0  0
   -0.8030    2.1704   -0.5899 H   0  0  0  0  0  0  0  0  0  0  0  0
   -2.4700    1.4393   -0.9998 H   0  0  0  0  0  0  0  0  0  0  0  0
   -1.4241   -1.3314   -2.2521 H   0  0  0  0  0  0  0  0  0  0  0  0
   -1.4264   -0.0962    1.3221 H   0  0  0  0  0  0  0  0  0  0  0  0
   -0.4629   -1.4686    0.6070 H   0  0  0  0  0  0  0  0  0  0  0  0
  1  2  3  0
  2  3  1  0
  3  4  1  0
  4  5  2  0
  5  6  1  0
  6  7  1  0
  6  8  1  0
  6  9  1  0
  9  3  1  0
  1 10  1  0
  3 11  1  0
  4 12  1  0
  5 13  1  0
  7 14  1  0
  7 15  1  0
  7 16  1  0
  8 17  1  0
  9 18  1  0
  9 19  1  0
M  END
