
     RDKit          3D

 15 14  0  0  0  0  0  0  0  0999 V2000
   -2.0654   -1.7499   -0.4980 C   0  0  0  0  0  0  0  0  0  0  0  0
   -1.0683   -0.9672   -0.8867 C   0  0  0  0  0  0  0  0  0  0  0  0
    0.1956    0.0416   -1.3812 C   0  0  0  0  0  0  0  0  0  0  0  0
   -0.5341    1.5166   -1.3413 C   0  0  0  0  0  0  0  0  0  0  0  0
   -1.0743    2.6467   -1.3247 C   0  0  0  0  0  0  0  0  0  0  0  0
    0.6640   -0.0069   -0.1941 O   0  0  0  0  0  0  0  0  0  0  0  0
    0.7302   -0.5782    0.9851 C   0  0  0  0  0  0  0  0  0  0  0  0
    1.6822   -0.1048    2.0212 C   0  0  0  0  0  0  0  0  0  0  0  0
   -0.0502   -1.5934    1.2043 O   0  0  0  0  0  0  0  0  0  0  0  0
   -2.7838   -2.3355   -0.2142 H   0  0  0  0  0  0  0  0  0  0  0  0
   -0.2497   -0.1302   -2.2951 H   0  0  0  0  0  0  0  0  0  0  0  0
   -1.5131    3.5301   -1.3037 H   0  0  0  0  0  0  0  0  0  0  0  0
    2.4543    0.5942    1.6170 H   0  0  0  0  0  0  0  0  0  0  0  0
    2.3297   -1.0975    2.2211 H   0  0  0  0  0  0  0  0  0  0  0  0
    1.2830    0.2345    2.9791 H   0  0  0  0  0  0  0  0  0  0  0  0
  1  2  3  0
  2  3  1  0
  3  4  1  0
  4  5  3  0
  3  6  1  0
  6  7  1  0
  7  8  1  0
  7  9  2  0
  1 10  1  0
  3 11  1  0
  5 12  1  0
  8 13  1  0
  8 14  1  0
  8 15  1  0
M  END
