
     RDKit          3D

 17 18  0  0  0  0  0  0  0  0999 V2000
    1.9175   -2.3027   -0.5456 C   0  0  0  0  0  0  0  0  0  0  0  0
    1.5262   -1.2903   -0.0505 C   0  0  0  0  0  0  0  0  0  0  0  0
    1.0480   -0.0807    0.5682 C   0  0  0  0  0  0  0  0  0  0  0  0
    0.5639    0.9717   -0.3780 C   0  0  0  0  0  0  0  0  0  0  0  0
    0.0524    2.2916    0.1413 C   0  0  0  0  0  0  0  0  0  0  0  0
   -0.6466    1.5645    1.1237 O   0  0  0  0  0  0  0  0  0  0  0  0
   -0.3426    0.3290    0.6162 C   0  0  0  0  0  0  0  0  0  0  0  0
   -1.4788   -0.4875    0.0749 C   0  0  0  0  0  0  0  0  0  0  0  0
   -1.1059   -1.7084   -0.4156 O   0  0  0  0  0  0  0  0  0  0  0  0
    2.2718   -3.2098   -1.0102 H   0  0  0  0  0  0  0  0  0  0  0  0
    1.7107    0.3027    1.3915 H   0  0  0  0  0  0  0  0  0  0  0  0
    0.4778    0.7634   -1.4597 H   0  0  0  0  0  0  0  0  0  0  0  0
    0.7777    2.9393    0.6242 H   0  0  0  0  0  0  0  0  0  0  0  0
   -0.6750    2.8006   -0.5107 H   0  0  0  0  0  0  0  0  0  0  0  0
   -2.2988   -0.6157    0.8401 H   0  0  0  0  0  0  0  0  0  0  0  0
   -1.9572    0.0848   -0.7528 H   0  0  0  0  0  0  0  0  0  0  0  0
   -1.8410   -2.3526   -0.2567 H   0  0  0  0  0  0  0  0  0  0  0  0
  1  2  3  0
  2  3  1  0
  3  4  1  0
  4  5  1  0
  5  6  1  0
  6  7  1  0
  7  8  1  0
  8  9  1  0
  7  3  1  0
  7  4  1  0
  1 10  1  0
  3 11  1  0
  4 12  1  0
  5 13  1  0
  5 14  1  0
  8 15  1  0
  8 16  1  0
  9 17  1  0
M  END
