
     RDKit          3D

 17 16  0  0  0  0  0  0  0  0999 V2000
    1.5790    2.5302    1.7609 C   0  0  0  0  0  0  0  0  0  0  0  0
    1.1850    1.3882    1.8368 C   0  0  0  0  0  0  0  0  0  0  0  0
    0.7409    0.0282    1.9330 C   0  0  0  0  0  0  0  0  0  0  0  0
    0.1822   -0.3521    2.9802 O   0  0  0  0  0  0  0  0  0  0  0  0
    0.9710   -0.8830    0.7577 C   0  0  0  0  0  0  0  0  0  0  0  0
   -0.2697   -0.8980   -0.0916 C   0  0  0  0  0  0  0  0  0  0  0  0
   -1.2068   -1.5656    0.3078 O   0  0  0  0  0  0  0  0  0  0  0  0
   -0.3593   -0.1354   -1.3624 C   0  0  0  0  0  0  0  0  0  0  0  0
   -1.7270   -0.3575   -1.9615 C   0  0  0  0  0  0  0  0  0  0  0  0
    1.9433    3.5386    1.7025 H   0  0  0  0  0  0  0  0  0  0  0  0
    1.1070   -1.8954    1.1872 H   0  0  0  0  0  0  0  0  0  0  0  0
    1.8741   -0.6266    0.2127 H   0  0  0  0  0  0  0  0  0  0  0  0
    0.4255   -0.4658   -2.0876 H   0  0  0  0  0  0  0  0  0  0  0  0
   -0.2670    0.9528   -1.1453 H   0  0  0  0  0  0  0  0  0  0  0  0
   -2.4220    0.4066   -1.5255 H   0  0  0  0  0  0  0  0  0  0  0  0
   -1.6790   -0.2807   -3.0791 H   0  0  0  0  0  0  0  0  0  0  0  0
   -2.0772   -1.3846   -1.7275 H   0  0  0  0  0  0  0  0  0  0  0  0
  1  2  3  0
  2  3  1  0
  3  4  2  0
  3  5  1  0
  5  6  1  0
  6  7  2  0
  6  8  1  0
  8  9  1  0
  1 10  1  0
  5 11  1  0
  5 12  1  0
  8 13  1  0
  8 14  1  0
  9 15  1  0
  9 16  1  0
  9 17  1  0
M  END
