
     RDKit          3D

 21 20  0  0  0  0  0  0  0  0999 V2000
    3.8805    2.2218   -0.8094 C   0  0  0  0  0  0  0  0  0  0  0  0
    3.0356    1.5135   -0.3100 C   0  0  0  0  0  0  0  0  0  0  0  0
    2.0144    0.6404    0.2938 C   0  0  0  0  0  0  0  0  0  0  0  0
    1.0883    0.1997   -0.8021 C   0  0  0  0  0  0  0  0  0  0  0  0
   -0.0156   -0.6978   -0.3313 C   0  0  0  0  0  0  0  0  0  0  0  0
   -0.8979   -0.0317    0.7044 C   0  0  0  0  0  0  0  0  0  0  0  0
   -1.9397   -1.0193    1.0835 C   0  0  0  0  0  0  0  0  0  0  0  0
   -3.3300   -0.9857    0.5138 C   0  0  0  0  0  0  0  0  0  0  0  0
   -1.7029   -1.9018    1.8783 O   0  0  0  0  0  0  0  0  0  0  0  0
    4.6325    2.8326   -1.2362 H   0  0  0  0  0  0  0  0  0  0  0  0
    1.5379    1.1624    1.1222 H   0  0  0  0  0  0  0  0  0  0  0  0
    2.4871   -0.2827    0.7282 H   0  0  0  0  0  0  0  0  0  0  0  0
    0.6198    1.0975   -1.2428 H   0  0  0  0  0  0  0  0  0  0  0  0
    1.6639   -0.3062   -1.5942 H   0  0  0  0  0  0  0  0  0  0  0  0
    0.3648   -1.6768    0.0590 H   0  0  0  0  0  0  0  0  0  0  0  0
   -0.6502   -0.9468   -1.2089 H   0  0  0  0  0  0  0  0  0  0  0  0
   -1.4185    0.7951    0.1768 H   0  0  0  0  0  0  0  0  0  0  0  0
   -0.3475    0.3282    1.5766 H   0  0  0  0  0  0  0  0  0  0  0  0
   -4.0953   -1.2379    1.2711 H   0  0  0  0  0  0  0  0  0  0  0  0
   -3.4253   -1.7205   -0.3028 H   0  0  0  0  0  0  0  0  0  0  0  0
   -3.5019    0.0161    0.0675 H   0  0  0  0  0  0  0  0  0  0  0  0
  1  2  3  0
  2  3  1  0
  3  4  1  0
  4  5  1  0
  5  6  1  0
  6  7  1  0
  7  8  1  0
  7  9  2  0
  1 10  1  0
  3 11  1  0
  3 12  1  0
  4 13  1  0
  4 14  1  0
  5 15  1  0
  5 16  1  0
  6 17  1  0
  6 18  1  0
  8 19  1  0
  8 20  1  0
  8 21  1  0
M  END
