
     RDKit          3D

 17 18  0  0  0  0  0  0  0  0999 V2000
    3.0900   -0.0688    0.0971 C   0  0  0  0  0  0  0  0  0  0  0  0
    1.9646   -0.3845   -0.1938 C   0  0  0  0  0  0  0  0  0  0  0  0
    0.5884   -0.7952   -0.5617 C   0  0  0  0  0  0  0  0  0  0  0  0
   -0.2690    0.3098   -1.0342 C   0  0  0  0  0  0  0  0  0  0  0  0
   -0.0389    1.6490   -0.3604 C   0  0  0  0  0  0  0  0  0  0  0  0
   -0.4863    1.0165    0.9138 C   0  0  0  0  0  0  0  0  0  0  0  0
   -0.7539    1.4874    1.9970 O   0  0  0  0  0  0  0  0  0  0  0  0
   -0.4757   -0.3466    0.3626 C   0  0  0  0  0  0  0  0  0  0  0  0
   -1.6549   -1.2473    0.5338 C   0  0  0  0  0  0  0  0  0  0  0  0
    4.0841    0.1964    0.3414 H   0  0  0  0  0  0  0  0  0  0  0  0
    0.4516   -1.7645   -1.0548 H   0  0  0  0  0  0  0  0  0  0  0  0
   -1.1302    0.1780   -1.6845 H   0  0  0  0  0  0  0  0  0  0  0  0
    1.0732    1.8440   -0.3533 H   0  0  0  0  0  0  0  0  0  0  0  0
   -0.6464    2.4807   -0.7266 H   0  0  0  0  0  0  0  0  0  0  0  0
   -1.2952   -2.1646    1.0674 H   0  0  0  0  0  0  0  0  0  0  0  0
   -2.4836   -0.7906    1.1091 H   0  0  0  0  0  0  0  0  0  0  0  0
   -2.0177   -1.5997   -0.4527 H   0  0  0  0  0  0  0  0  0  0  0  0
  1  2  3  0
  2  3  1  0
  3  4  1  0
  4  5  1  0
  5  6  1  0
  6  7  2  0
  6  8  1  0
  8  9  1  0
  8  3  1  0
  8  4  1  0
  1 10  1  0
  3 11  1  0
  4 12  1  0
  5 13  1  0
  5 14  1  0
  9 15  1  0
  9 16  1  0
  9 17  1  0
M  END
