
     RDKit          3D

 21 21  0  0  0  0  0  0  0  0999 V2000
   -1.8650   -1.9895    0.7428 C   0  0  0  0  0  0  0  0  0  0  0  0
   -1.2386   -0.9851    0.5123 C   0  0  0  0  0  0  0  0  0  0  0  0
   -0.4839    0.2510    0.2470 C   0  0  0  0  0  0  0  0  0  0  0  0
   -1.3967    1.3972    0.6584 C   0  0  0  0  0  0  0  0  0  0  0  0
   -0.3015    0.3561   -1.2340 C   0  0  0  0  0  0  0  0  0  0  0  0
    0.8209   -0.5581   -1.6508 C   0  0  0  0  0  0  0  0  0  0  0  0
    1.9687   -0.0991   -1.0470 O   0  0  0  0  0  0  0  0  0  0  0  0
    1.9972   -0.2021    0.3105 C   0  0  0  0  0  0  0  0  0  0  0  0
    0.7832    0.2613    1.0316 C   0  0  0  0  0  0  0  0  0  0  0  0
   -2.4203   -2.8852    0.9292 H   0  0  0  0  0  0  0  0  0  0  0  0
   -1.6480    1.3405    1.7402 H   0  0  0  0  0  0  0  0  0  0  0  0
   -2.3239    1.2772    0.0600 H   0  0  0  0  0  0  0  0  0  0  0  0
   -0.9154    2.3479    0.3727 H   0  0  0  0  0  0  0  0  0  0  0  0
    0.0111    1.3962   -1.4620 H   0  0  0  0  0  0  0  0  0  0  0  0
   -1.2333    0.1135   -1.7509 H   0  0  0  0  0  0  0  0  0  0  0  0
    0.9536   -0.4509   -2.7479 H   0  0  0  0  0  0  0  0  0  0  0  0
    0.5733   -1.6032   -1.3732 H   0  0  0  0  0  0  0  0  0  0  0  0
    2.3007   -1.2501    0.5846 H   0  0  0  0  0  0  0  0  0  0  0  0
    2.8632    0.4280    0.6708 H   0  0  0  0  0  0  0  0  0  0  0  0
    0.9072    1.2741    1.4814 H   0  0  0  0  0  0  0  0  0  0  0  0
    0.6475   -0.4197    1.9245 H   0  0  0  0  0  0  0  0  0  0  0  0
  1  2  3  0
  2  3  1  0
  3  4  1  0
  3  5  1  0
  5  6  1  0
  6  7  1  0
  7  8  1  0
  8  9  1  0
  9  3  1  0
  1 10  1  0
  4 11  1  0
  4 12  1  0
  4 13  1  0
  5 14  1  0
  5 15  1  0
  6 16  1  0
  6 17  1  0
  8 18  1  0
  8 19  1  0
  9 20  1  0
  9 21  1  0
M  END
