
     RDKit          3D

 19 19  0  0  0  0  0  0  0  0999 V2000
    3.3621   -1.6908   -0.3328 C   0  0  0  0  0  0  0  0  0  0  0  0
    2.2111   -1.3765   -0.1652 C   0  0  0  0  0  0  0  0  0  0  0  0
    0.8296   -0.9735    0.0323 C   0  0  0  0  0  0  0  0  0  0  0  0
    0.8418    0.2670    0.7114 O   0  0  0  0  0  0  0  0  0  0  0  0
   -0.2855    0.3082    1.4875 C   0  0  0  0  0  0  0  0  0  0  0  0
   -1.5445    0.6864    0.8055 C   0  0  0  0  0  0  0  0  0  0  0  0
   -1.4928    0.8712   -0.6559 C   0  0  0  0  0  0  0  0  0  0  0  0
   -0.2278    0.4794   -1.3338 C   0  0  0  0  0  0  0  0  0  0  0  0
    0.1532   -0.8217   -1.1516 O   0  0  0  0  0  0  0  0  0  0  0  0
    4.3957   -1.9693   -0.4676 H   0  0  0  0  0  0  0  0  0  0  0  0
    0.2601   -1.7052    0.6596 H   0  0  0  0  0  0  0  0  0  0  0  0
   -0.4220   -0.7223    1.9204 H   0  0  0  0  0  0  0  0  0  0  0  0
   -0.0721    0.9474    2.3946 H   0  0  0  0  0  0  0  0  0  0  0  0
   -2.3777   -0.0454    1.0296 H   0  0  0  0  0  0  0  0  0  0  0  0
   -1.9128    1.6385    1.2928 H   0  0  0  0  0  0  0  0  0  0  0  0
   -2.3293    0.3292   -1.1897 H   0  0  0  0  0  0  0  0  0  0  0  0
   -1.6808    1.9531   -0.9237 H   0  0  0  0  0  0  0  0  0  0  0  0
   -0.3400    0.6931   -2.4174 H   0  0  0  0  0  0  0  0  0  0  0  0
    0.6316    1.1314   -1.0010 H   0  0  0  0  0  0  0  0  0  0  0  0
  1  2  3  0
  2  3  1  0
  3  4  1  0
  4  5  1  0
  5  6  1  0
  6  7  1  0
  7  8  1  0
  8  9  1  0
  9  3  1  0
  1 10  1  0
  3 11  1  0
  5 12  1  0
  5 13  1  0
  6 14  1  0
  6 15  1  0
  7 16  1  0
  7 17  1  0
  8 18  1  0
  8 19  1  0
M  END
