
     RDKit          3D

 21 21  0  0  0  0  0  0  0  0999 V2000
    1.0804    2.2644   -1.0757 C   0  0  0  0  0  0  0  0  0  0  0  0
    0.5150    1.2030   -0.9435 C   0  0  0  0  0  0  0  0  0  0  0  0
   -0.1664   -0.0948   -0.7604 C   0  0  0  0  0  0  0  0  0  0  0  0
    0.8653   -1.1609   -0.8027 C   0  0  0  0  0  0  0  0  0  0  0  0
    1.9421   -1.0711    0.2298 C   0  0  0  0  0  0  0  0  0  0  0  0
   -1.0290   -0.0241    0.4411 C   0  0  0  0  0  0  0  0  0  0  0  0
   -2.0950    1.0841    0.2977 C   0  0  0  0  0  0  0  0  0  0  0  0
   -0.7484   -0.4712    1.7692 C   0  0  0  0  0  0  0  0  0  0  0  0
   -1.4989   -1.2687    0.8672 O   0  0  0  0  0  0  0  0  0  0  0  0
    1.5848    3.1985   -1.2103 H   0  0  0  0  0  0  0  0  0  0  0  0
   -0.8607   -0.2105   -1.6518 H   0  0  0  0  0  0  0  0  0  0  0  0
    0.4335   -2.1940   -0.7846 H   0  0  0  0  0  0  0  0  0  0  0  0
    1.3671   -1.1100   -1.8140 H   0  0  0  0  0  0  0  0  0  0  0  0
    1.9535   -0.1461    0.8163 H   0  0  0  0  0  0  0  0  0  0  0  0
    1.8995   -1.9270    0.9373 H   0  0  0  0  0  0  0  0  0  0  0  0
    2.9691   -1.1123   -0.2493 H   0  0  0  0  0  0  0  0  0  0  0  0
   -2.8999    0.9236    1.0359 H   0  0  0  0  0  0  0  0  0  0  0  0
   -2.4626    1.0535   -0.7357 H   0  0  0  0  0  0  0  0  0  0  0  0
   -1.5757    2.0561    0.4394 H   0  0  0  0  0  0  0  0  0  0  0  0
   -1.4344   -0.0988    2.5900 H   0  0  0  0  0  0  0  0  0  0  0  0
    0.1608   -0.8936    2.1926 H   0  0  0  0  0  0  0  0  0  0  0  0
  1  2  3  0
  2  3  1  0
  3  4  1  0
  4  5  1  0
  3  6  1  0
  6  7  1  0
  6  8  1  0
  8  9  1  0
  9  6  1  0
  1 10  1  0
  3 11  1  0
  4 12  1  0
  4 13  1  0
  5 14  1  0
  5 15  1  0
  5 16  1  0
  7 17  1  0
  7 18  1  0
  7 19  1  0
  8 20  1  0
  8 21  1  0
M  END
