
     RDKit          3D

 18 18  0  0  0  0  0  0  0  0999 V2000
    2.8606    0.2075   -1.0003 C   0  0  0  0  0  0  0  0  0  0  0  0
    1.5206    0.3367   -0.7092 C   0  0  0  0  0  0  0  0  0  0  0  0
    0.0128    0.4741   -0.4104 C   0  0  0  0  0  0  0  0  0  0  0  0
   -0.6928   -0.1124   -1.4738 C   0  0  0  0  0  0  0  0  0  0  0  0
    0.1895   -1.0641    0.5500 C   0  0  0  0  0  0  0  0  0  0  0  0
   -0.6225   -0.9121    1.3549 C   0  0  0  0  0  0  0  0  0  0  0  0
   -1.4641    0.2845    1.4371 C   0  0  0  0  0  0  0  0  0  0  0  0
   -0.0954    1.1685    0.8579 C   0  0  0  0  0  0  0  0  0  0  0  0
    4.0110    0.1105   -1.2496 H   0  0  0  0  0  0  0  0  0  0  0  0
   -0.0897   -0.0511   -2.4507 H   0  0  0  0  0  0  0  0  0  0  0  0
   -1.7463    0.0379   -1.7320 H   0  0  0  0  0  0  0  0  0  0  0  0
   -0.5689   -1.3027   -1.2258 H   0  0  0  0  0  0  0  0  0  0  0  0
    1.0002   -1.6151    0.1327 H   0  0  0  0  0  0  0  0  0  0  0  0
   -0.9322   -1.7235    2.2117 H   0  0  0  0  0  0  0  0  0  0  0  0
   -1.6433    0.7401    2.3644 H   0  0  0  0  0  0  0  0  0  0  0  0
   -2.1157    0.4293    0.6345 H   0  0  0  0  0  0  0  0  0  0  0  0
   -0.3027    2.1305    1.1446 H   0  0  0  0  0  0  0  0  0  0  0  0
    0.6789    0.8614    1.7008 H   0  0  0  0  0  0  0  0  0  0  0  0
  1  2  3  0
  2  3  1  0
  3  4  1  0
  3  5  1  0
  5  6  2  0
  6  7  1  0
  7  8  1  0
  8  3  1  0
  1  9  1  0
  4 10  1  0
  4 11  1  0
  4 12  1  0
  5 13  1  0
  6 14  1  0
  7 15  1  0
  7 16  1  0
  8 17  1  0
  8 18  1  0
M  END
