
     RDKit          3D

 19 20  0  0  0  0  0  0  0  0999 V2000
    2.9069   -1.0801    0.3940 C   0  0  0  0  0  0  0  0  0  0  0  0
    1.8911   -0.4900    0.3085 C   0  0  0  0  0  0  0  0  0  0  0  0
    0.6409    0.2200    0.1829 C   0  0  0  0  0  0  0  0  0  0  0  0
    0.7419    0.9563   -1.2388 C   0  0  0  0  0  0  0  0  0  0  0  0
    0.0750    1.0897    1.0424 C   0  0  0  0  0  0  0  0  0  0  0  0
   -1.2393    0.8241    1.2881 C   0  0  0  0  0  0  0  0  0  0  0  0
   -1.6674   -0.3429    0.5748 C   0  0  0  0  0  0  0  0  0  0  0  0
   -1.6164   -0.7752   -0.8144 C   0  0  0  0  0  0  0  0  0  0  0  0
   -0.3985   -0.9293   -0.0504 C   0  0  0  0  0  0  0  0  0  0  0  0
    3.9633   -1.6949    0.4614 H   0  0  0  0  0  0  0  0  0  0  0  0
    1.3929    0.3959   -1.9064 H   0  0  0  0  0  0  0  0  0  0  0  0
   -0.2529    1.2100   -1.6647 H   0  0  0  0  0  0  0  0  0  0  0  0
    1.2201    1.8983   -1.0391 H   0  0  0  0  0  0  0  0  0  0  0  0
    0.5503    1.9674    1.6173 H   0  0  0  0  0  0  0  0  0  0  0  0
   -1.9345    1.4691    1.8671 H   0  0  0  0  0  0  0  0  0  0  0  0
   -2.2210   -1.0494    1.3360 H   0  0  0  0  0  0  0  0  0  0  0  0
   -1.8147   -0.0136   -1.6075 H   0  0  0  0  0  0  0  0  0  0  0  0
   -2.1972   -1.7364   -1.0140 H   0  0  0  0  0  0  0  0  0  0  0  0
   -0.0406   -1.9190    0.2627 H   0  0  0  0  0  0  0  0  0  0  0  0
  1  2  3  0
  2  3  1  0
  3  4  1  0
  3  5  1  0
  5  6  2  0
  6  7  1  0
  7  8  1  0
  8  9  1  0
  9  3  1  0
  9  7  1  0
  1 10  1  0
  4 11  1  0
  4 12  1  0
  4 13  1  0
  5 14  1  0
  6 15  1  0
  7 16  1  0
  8 17  1  0
  8 18  1  0
  9 19  1  0
M  END
