
     RDKit          3D

 17 17  0  0  0  0  0  0  0  0999 V2000
    2.3151   -1.2622    0.3977 C   0  0  0  0  0  0  0  0  0  0  0  0
    1.5436   -0.4715   -0.0787 C   0  0  0  0  0  0  0  0  0  0  0  0
    0.6089    0.5046   -0.6500 C   0  0  0  0  0  0  0  0  0  0  0  0
    0.9993    1.8465   -0.2019 C   0  0  0  0  0  0  0  0  0  0  0  0
    0.5055    2.3619    0.7871 O   0  0  0  0  0  0  0  0  0  0  0  0
   -0.7855    0.1838   -0.1842 C   0  0  0  0  0  0  0  0  0  0  0  0
   -1.7881    1.0500   -0.6628 O   0  0  0  0  0  0  0  0  0  0  0  0
   -1.0628   -0.6583    0.9767 C   0  0  0  0  0  0  0  0  0  0  0  0
   -1.1596   -1.3001   -0.3556 C   0  0  0  0  0  0  0  0  0  0  0  0
    2.9870   -1.9774    0.8221 H   0  0  0  0  0  0  0  0  0  0  0  0
    0.6872    0.4738   -1.7618 H   0  0  0  0  0  0  0  0  0  0  0  0
    1.7374    2.3942   -0.7535 H   0  0  0  0  0  0  0  0  0  0  0  0
   -1.9090    1.8284   -0.0719 H   0  0  0  0  0  0  0  0  0  0  0  0
   -2.0041   -0.4788    1.5170 H   0  0  0  0  0  0  0  0  0  0  0  0
   -0.2238   -0.9358    1.6440 H   0  0  0  0  0  0  0  0  0  0  0  0
   -0.3416   -2.0096   -0.5960 H   0  0  0  0  0  0  0  0  0  0  0  0
   -2.1096   -1.5494   -0.8281 H   0  0  0  0  0  0  0  0  0  0  0  0
  1  2  3  0
  2  3  1  0
  3  4  1  0
  4  5  2  0
  3  6  1  0
  6  7  1  0
  6  8  1  0
  8  9  1  0
  9  6  1  0
  1 10  1  0
  3 11  1  0
  4 12  1  0
  7 13  1  0
  8 14  1  0
  8 15  1  0
  9 16  1  0
  9 17  1  0
M  END
