
     RDKit          3D

 17 18  0  0  0  0  0  0  0  0999 V2000
    2.4353   -1.2714   -0.9787 C   0  0  0  0  0  0  0  0  0  0  0  0
    1.5735   -0.5201   -0.6122 C   0  0  0  0  0  0  0  0  0  0  0  0
    0.5152    0.3909   -0.1470 C   0  0  0  0  0  0  0  0  0  0  0  0
    1.0116    1.4453    0.8206 C   0  0  0  0  0  0  0  0  0  0  0  0
   -0.6605    0.5037   -0.8361 C   0  0  0  0  0  0  0  0  0  0  0  0
   -1.1958   -0.4832   -1.6360 O   0  0  0  0  0  0  0  0  0  0  0  0
   -1.9404   -0.6863   -0.4880 C   0  0  0  0  0  0  0  0  0  0  0  0
   -0.7916   -0.2407    0.3474 C   0  0  0  0  0  0  0  0  0  0  0  0
   -0.4132   -1.1478    1.2064 O   0  0  0  0  0  0  0  0  0  0  0  0
    3.1977   -1.9453   -1.3181 H   0  0  0  0  0  0  0  0  0  0  0  0
    1.3695    0.9572    1.7701 H   0  0  0  0  0  0  0  0  0  0  0  0
    1.8319    2.0244    0.3863 H   0  0  0  0  0  0  0  0  0  0  0  0
    0.1478    2.0854    1.0996 H   0  0  0  0  0  0  0  0  0  0  0  0
   -1.2311    1.4791   -0.8952 H   0  0  0  0  0  0  0  0  0  0  0  0
   -2.7698    0.0777   -0.4189 H   0  0  0  0  0  0  0  0  0  0  0  0
   -2.2868   -1.7082   -0.4235 H   0  0  0  0  0  0  0  0  0  0  0  0
   -0.7934   -0.9607    2.1233 H   0  0  0  0  0  0  0  0  0  0  0  0
  1  2  3  0
  2  3  1  0
  3  4  1  0
  3  5  1  0
  5  6  1  0
  6  7  1  0
  7  8  1  0
  8  9  1  0
  8  3  1  0
  8  5  1  0
  1 10  1  0
  4 11  1  0
  4 12  1  0
  4 13  1  0
  5 14  1  0
  7 15  1  0
  7 16  1  0
  9 17  1  0
M  END
