
     RDKit          3D

 18 19  0  0  0  0  0  0  0  0999 V2000
    2.4072    1.5697   -1.0369 C   0  0  0  0  0  0  0  0  0  0  0  0
    1.3470    1.3058   -0.2693 C   0  0  0  0  0  0  0  0  0  0  0  0
    0.2680    1.0261    0.4881 C   0  0  0  0  0  0  0  0  0  0  0  0
   -1.1426    1.1043    0.1301 C   0  0  0  0  0  0  0  0  0  0  0  0
   -1.4476   -0.2639    0.7264 C   0  0  0  0  0  0  0  0  0  0  0  0
   -0.6250   -1.0201    1.6499 C   0  0  0  0  0  0  0  0  0  0  0  0
    0.0510   -0.5393    0.4416 C   0  0  0  0  0  0  0  0  0  0  0  0
    0.3991   -1.2669   -0.7799 C   0  0  0  0  0  0  0  0  0  0  0  0
    3.2480    1.7780   -1.6270 H   0  0  0  0  0  0  0  0  0  0  0  0
    0.3668    1.2730    1.6241 H   0  0  0  0  0  0  0  0  0  0  0  0
   -1.7297    1.9464    0.5763 H   0  0  0  0  0  0  0  0  0  0  0  0
   -1.3083    1.0435   -0.9661 H   0  0  0  0  0  0  0  0  0  0  0  0
   -2.2228   -0.8382    0.1701 H   0  0  0  0  0  0  0  0  0  0  0  0
   -0.8016   -2.1147    1.7010 H   0  0  0  0  0  0  0  0  0  0  0  0
   -0.2361   -0.6136    2.6424 H   0  0  0  0  0  0  0  0  0  0  0  0
    1.4609   -1.5245   -0.8001 H   0  0  0  0  0  0  0  0  0  0  0  0
   -0.2192   -2.1874   -0.8662 H   0  0  0  0  0  0  0  0  0  0  0  0
    0.1850   -0.6783   -1.7287 H   0  0  0  0  0  0  0  0  0  0  0  0
  1  2  3  0
  2  3  1  0
  3  4  1  0
  4  5  1  0
  5  6  1  0
  6  7  1  0
  7  8  1  0
  7  3  1  0
  7  5  1  0
  1  9  1  0
  3 10  1  0
  4 11  1  0
  4 12  1  0
  5 13  1  0
  6 14  1  0
  6 15  1  0
  8 16  1  0
  8 17  1  0
  8 18  1  0
M  END
