
     RDKit          3D

 19 18  0  0  0  0  0  0  0  0999 V2000
    2.1769    1.7171    0.2685 C   0  0  0  0  0  0  0  0  0  0  0  0
    1.2601    1.0792    0.9370 C   0  0  0  0  0  0  0  0  0  0  0  0
    0.2725    0.3905    1.6770 C   0  0  0  0  0  0  0  0  0  0  0  0
    1.1568   -0.3429    2.8522 C   0  0  0  0  0  0  0  0  0  0  0  0
    1.6713   -1.2955    2.2577 O   0  0  0  0  0  0  0  0  0  0  0  0
   -0.3511   -0.7704    1.0260 C   0  0  0  0  0  0  0  0  0  0  0  0
   -0.9981   -0.5254   -0.2952 C   0  0  0  0  0  0  0  0  0  0  0  0
   -0.0876   -0.1273   -1.2794 O   0  0  0  0  0  0  0  0  0  0  0  0
   -0.8867    0.0336   -2.4523 C   0  0  0  0  0  0  0  0  0  0  0  0
    2.8970    2.1970   -0.2457 H   0  0  0  0  0  0  0  0  0  0  0  0
   -0.4238    1.0502    2.1512 H   0  0  0  0  0  0  0  0  0  0  0  0
    1.1108    0.0623    3.6754 H   0  0  0  0  0  0  0  0  0  0  0  0
   -1.2897   -0.9814    1.7154 H   0  0  0  0  0  0  0  0  0  0  0  0
    0.1643   -1.7350    1.0976 H   0  0  0  0  0  0  0  0  0  0  0  0
   -1.5579   -1.3694   -0.7159 H   0  0  0  0  0  0  0  0  0  0  0  0
   -1.7455    0.3112   -0.2245 H   0  0  0  0  0  0  0  0  0  0  0  0
   -1.6443    0.8223   -2.1833 H   0  0  0  0  0  0  0  0  0  0  0  0
   -1.4383   -0.9054   -2.6449 H   0  0  0  0  0  0  0  0  0  0  0  0
   -0.2866    0.3892   -3.2837 H   0  0  0  0  0  0  0  0  0  0  0  0
  1  2  3  0
  2  3  1  0
  3  4  1  0
  4  5  2  0
  3  6  1  0
  6  7  1  0
  7  8  1  0
  8  9  1  0
  1 10  1  0
  3 11  1  0
  4 12  1  0
  6 13  1  0
  6 14  1  0
  7 15  1  0
  7 16  1  0
  9 17  1  0
  9 18  1  0
  9 19  1  0
M  END
