
     RDKit          3D

 17 18  0  0  0  0  0  0  0  0999 V2000
    0.7645    3.2440    0.2094 C   0  0  0  0  0  0  0  0  0  0  0  0
    0.6852    2.0636    0.3872 C   0  0  0  0  0  0  0  0  0  0  0  0
    0.5710    0.5999    0.6227 C   0  0  0  0  0  0  0  0  0  0  0  0
    0.5200   -0.2110   -0.6501 C   0  0  0  0  0  0  0  0  0  0  0  0
    0.7646   -1.6847   -0.4761 C   0  0  0  0  0  0  0  0  0  0  0  0
   -0.4298   -2.2729   -0.1370 O   0  0  0  0  0  0  0  0  0  0  0  0
   -1.1328   -1.3437    0.6053 C   0  0  0  0  0  0  0  0  0  0  0  0
   -0.7067    0.0226    0.1403 C   0  0  0  0  0  0  0  0  0  0  0  0
   -1.6817    0.8882   -0.3564 O   0  0  0  0  0  0  0  0  0  0  0  0
    0.8190    4.2873    0.0428 H   0  0  0  0  0  0  0  0  0  0  0  0
    1.1359    0.1717    1.4749 H   0  0  0  0  0  0  0  0  0  0  0  0
    0.6784    0.2647   -1.6287 H   0  0  0  0  0  0  0  0  0  0  0  0
    1.2244   -2.0921   -1.3966 H   0  0  0  0  0  0  0  0  0  0  0  0
    1.5128   -1.8212    0.3190 H   0  0  0  0  0  0  0  0  0  0  0  0
   -2.2165   -1.5308    0.4884 H   0  0  0  0  0  0  0  0  0  0  0  0
   -0.9083   -1.4276    1.7044 H   0  0  0  0  0  0  0  0  0  0  0  0
   -1.6001    0.8419   -1.3494 H   0  0  0  0  0  0  0  0  0  0  0  0
  1  2  3  0
  2  3  1  0
  3  4  1  0
  4  5  1  0
  5  6  1  0
  6  7  1  0
  7  8  1  0
  8  9  1  0
  8  3  1  0
  8  4  1  0
  1 10  1  0
  3 11  1  0
  4 12  1  0
  5 13  1  0
  5 14  1  0
  7 15  1  0
  7 16  1  0
  9 17  1  0
M  END
