
     RDKit          3D

 19 19  0  0  0  0  0  0  0  0999 V2000
   -2.1281   -2.2463   -0.1813 C   0  0  0  0  0  0  0  0  0  0  0  0
   -1.4851   -1.3805   -0.7157 C   0  0  0  0  0  0  0  0  0  0  0  0
   -0.7058   -0.3005   -1.3568 C   0  0  0  0  0  0  0  0  0  0  0  0
   -1.1051    0.9168   -0.8056 O   0  0  0  0  0  0  0  0  0  0  0  0
    0.2146    1.3065   -0.5719 C   0  0  0  0  0  0  0  0  0  0  0  0
    0.3406    1.9641    0.7537 C   0  0  0  0  0  0  0  0  0  0  0  0
    0.6465   -0.0845   -0.7434 C   0  0  0  0  0  0  0  0  0  0  0  0
    0.9717   -0.9055    0.4608 C   0  0  0  0  0  0  0  0  0  0  0  0
    0.1041   -0.7045    1.5243 O   0  0  0  0  0  0  0  0  0  0  0  0
   -2.6956   -3.0206    0.2858 H   0  0  0  0  0  0  0  0  0  0  0  0
   -0.7688   -0.2829   -2.4491 H   0  0  0  0  0  0  0  0  0  0  0  0
    0.5261    1.9924   -1.4129 H   0  0  0  0  0  0  0  0  0  0  0  0
    0.0869    3.0489    0.6263 H   0  0  0  0  0  0  0  0  0  0  0  0
   -0.3673    1.5868    1.5229 H   0  0  0  0  0  0  0  0  0  0  0  0
    1.3446    1.9277    1.2027 H   0  0  0  0  0  0  0  0  0  0  0  0
    1.4328   -0.1839   -1.5206 H   0  0  0  0  0  0  0  0  0  0  0  0
    1.9756   -0.6011    0.8277 H   0  0  0  0  0  0  0  0  0  0  0  0
    1.0578   -1.9817    0.2048 H   0  0  0  0  0  0  0  0  0  0  0  0
    0.5546   -1.0512    2.3481 H   0  0  0  0  0  0  0  0  0  0  0  0
  1  2  3  0
  2  3  1  0
  3  4  1  0
  4  5  1  0
  5  6  1  0
  5  7  1  0
  7  8  1  0
  8  9  1  0
  7  3  1  0
  1 10  1  0
  3 11  1  0
  5 12  1  0
  6 13  1  0
  6 14  1  0
  6 15  1  0
  7 16  1  0
  8 17  1  0
  8 18  1  0
  9 19  1  0
M  END
