
     RDKit          3D

 15 14  0  0  0  0  0  0  0  0999 V2000
    3.7986   -0.3802   -1.8872 C   0  0  0  0  0  0  0  0  0  0  0  0
    2.7390   -0.3225   -1.5316 C   0  0  0  0  0  0  0  0  0  0  0  0
    1.3575   -0.2637   -1.0661 C   0  0  0  0  0  0  0  0  0  0  0  0
    0.1779   -0.2196   -0.6717 C   0  0  0  0  0  0  0  0  0  0  0  0
   -1.1610   -0.1537   -0.2436 C   0  0  0  0  0  0  0  0  0  0  0  0
   -1.4213    1.1691    0.3905 C   0  0  0  0  0  0  0  0  0  0  0  0
   -1.6282    2.3371    0.9528 C   0  0  0  0  0  0  0  0  0  0  0  0
   -1.2334   -1.1034    1.0049 C   0  0  0  0  0  0  0  0  0  0  0  0
   -0.3712   -0.6173    1.9454 O   0  0  0  0  0  0  0  0  0  0  0  0
    4.8277   -0.4517   -2.2431 H   0  0  0  0  0  0  0  0  0  0  0  0
   -1.9342   -0.4220   -0.9194 H   0  0  0  0  0  0  0  0  0  0  0  0
   -1.7623    3.1884    1.3657 H   0  0  0  0  0  0  0  0  0  0  0  0
   -1.2213   -2.0863    0.6720 H   0  0  0  0  0  0  0  0  0  0  0  0
   -2.3062   -0.8378    1.3574 H   0  0  0  0  0  0  0  0  0  0  0  0
    0.1382    0.1636    1.5470 H   0  0  0  0  0  0  0  0  0  0  0  0
  1  2  3  0
  2  3  1  0
  3  4  3  0
  4  5  1  0
  5  6  1  0
  6  7  3  0
  5  8  1  0
  8  9  1  0
  1 10  1  0
  5 11  1  0
  7 12  1  0
  8 13  1  0
  8 14  1  0
  9 15  1  0
M  END
