
     RDKit          3D

 17 17  0  0  0  0  0  0  0  0999 V2000
    3.0425    0.5137    0.1104 C   0  0  0  0  0  0  0  0  0  0  0  0
    1.9234    0.5732    0.5853 C   0  0  0  0  0  0  0  0  0  0  0  0
    0.5853    0.6385    1.1777 C   0  0  0  0  0  0  0  0  0  0  0  0
   -0.2427   -0.5208    0.6876 C   0  0  0  0  0  0  0  0  0  0  0  0
    0.3588   -1.7403    1.0627 O   0  0  0  0  0  0  0  0  0  0  0  0
   -1.6989   -0.4762    0.5347 C   0  0  0  0  0  0  0  0  0  0  0  0
   -0.8184   -0.4088   -0.6869 C   0  0  0  0  0  0  0  0  0  0  0  0
   -0.8353    0.8476   -1.4599 C   0  0  0  0  0  0  0  0  0  0  0  0
   -1.0662    1.9299   -0.9854 O   0  0  0  0  0  0  0  0  0  0  0  0
    4.0090    0.4565   -0.3181 H   0  0  0  0  0  0  0  0  0  0  0  0
    0.1033    1.5794    0.8877 H   0  0  0  0  0  0  0  0  0  0  0  0
    0.6427    0.6584    2.2952 H   0  0  0  0  0  0  0  0  0  0  0  0
   -0.1703   -2.5184    0.7645 H   0  0  0  0  0  0  0  0  0  0  0  0
   -2.2656   -1.4185    0.7489 H   0  0  0  0  0  0  0  0  0  0  0  0
   -2.3015    0.4277    0.7589 H   0  0  0  0  0  0  0  0  0  0  0  0
   -0.6382   -1.3632   -1.2870 H   0  0  0  0  0  0  0  0  0  0  0  0
   -0.6279    0.8214   -2.5355 H   0  0  0  0  0  0  0  0  0  0  0  0
  1  2  3  0
  2  3  1  0
  3  4  1  0
  4  5  1  0
  4  6  1  0
  6  7  1  0
  7  8  1  0
  8  9  2  0
  7  4  1  0
  1 10  1  0
  3 11  1  0
  3 12  1  0
  5 13  1  0
  6 14  1  0
  6 15  1  0
  7 16  1  0
  8 17  1  0
M  END
