
     RDKit          3D

 19 20  0  0  0  0  0  0  0  0999 V2000
    2.3949    0.7238    1.2915 C   0  0  0  0  0  0  0  0  0  0  0  0
    2.1244    0.3836    0.1703 C   0  0  0  0  0  0  0  0  0  0  0  0
    1.7877   -0.0257   -1.1984 C   0  0  0  0  0  0  0  0  0  0  0  0
    0.3403   -0.3893   -1.2255 C   0  0  0  0  0  0  0  0  0  0  0  0
   -0.7028    0.6319   -0.8610 C   0  0  0  0  0  0  0  0  0  0  0  0
   -1.4478   -0.3513   -0.0296 C   0  0  0  0  0  0  0  0  0  0  0  0
   -1.9110    0.0699    1.3090 C   0  0  0  0  0  0  0  0  0  0  0  0
   -0.2369   -1.2398   -0.0914 C   0  0  0  0  0  0  0  0  0  0  0  0
    0.0529   -1.7165   -1.3363 O   0  0  0  0  0  0  0  0  0  0  0  0
    2.6400    1.0369    2.2726 H   0  0  0  0  0  0  0  0  0  0  0  0
    2.3856   -0.8928   -1.5363 H   0  0  0  0  0  0  0  0  0  0  0  0
    2.0164    0.7947   -1.9193 H   0  0  0  0  0  0  0  0  0  0  0  0
   -1.2339    1.1048   -1.6892 H   0  0  0  0  0  0  0  0  0  0  0  0
   -0.2330    1.4134   -0.1990 H   0  0  0  0  0  0  0  0  0  0  0  0
   -2.2707   -0.8150   -0.6279 H   0  0  0  0  0  0  0  0  0  0  0  0
   -3.0090    0.2216    1.2859 H   0  0  0  0  0  0  0  0  0  0  0  0
   -1.4707    1.0601    1.5451 H   0  0  0  0  0  0  0  0  0  0  0  0
   -1.6778   -0.6872    2.0810 H   0  0  0  0  0  0  0  0  0  0  0  0
    0.4516   -1.3231    0.7584 H   0  0  0  0  0  0  0  0  0  0  0  0
  1  2  3  0
  2  3  1  0
  3  4  1  0
  4  5  1  0
  5  6  1  0
  6  7  1  0
  6  8  1  0
  8  9  1  0
  8  4  1  0
  9  4  1  0
  1 10  1  0
  3 11  1  0
  3 12  1  0
  5 13  1  0
  5 14  1  0
  6 15  1  0
  7 16  1  0
  7 17  1  0
  7 18  1  0
  8 19  1  0
M  END
