
     RDKit          3D

 19 18  0  0  0  0  0  0  0  0999 V2000
    3.7266    0.7158    0.4144 C   0  0  0  0  0  0  0  0  0  0  0  0
    2.9709   -0.2322    0.3155 C   0  0  0  0  0  0  0  0  0  0  0  0
    2.0801   -1.3551    0.2229 C   0  0  0  0  0  0  0  0  0  0  0  0
    2.5260   -2.5342    0.3219 O   0  0  0  0  0  0  0  0  0  0  0  0
    0.6389   -1.1890    0.0132 C   0  0  0  0  0  0  0  0  0  0  0  0
    0.2405    0.1218   -0.0829 O   0  0  0  0  0  0  0  0  0  0  0  0
   -1.1426    0.1240   -0.2792 C   0  0  0  0  0  0  0  0  0  0  0  0
   -1.5286    0.7802   -1.5843 C   0  0  0  0  0  0  0  0  0  0  0  0
   -1.8465    0.8179    0.8833 C   0  0  0  0  0  0  0  0  0  0  0  0
    4.3830    1.5541    0.4855 H   0  0  0  0  0  0  0  0  0  0  0  0
    0.0968   -1.7174    0.8518 H   0  0  0  0  0  0  0  0  0  0  0  0
    0.3813   -1.6884   -0.9579 H   0  0  0  0  0  0  0  0  0  0  0  0
   -1.5661   -0.9069   -0.3078 H   0  0  0  0  0  0  0  0  0  0  0  0
   -2.6108    0.6450   -1.7110 H   0  0  0  0  0  0  0  0  0  0  0  0
   -1.2167    1.8446   -1.5899 H   0  0  0  0  0  0  0  0  0  0  0  0
   -0.9953    0.2292   -2.3935 H   0  0  0  0  0  0  0  0  0  0  0  0
   -1.4396    1.8132    1.0826 H   0  0  0  0  0  0  0  0  0  0  0  0
   -1.7688    0.1527    1.7804 H   0  0  0  0  0  0  0  0  0  0  0  0
   -2.9291    0.8244    0.6221 H   0  0  0  0  0  0  0  0  0  0  0  0
  1  2  3  0
  2  3  1  0
  3  4  2  0
  3  5  1  0
  5  6  1  0
  6  7  1  0
  7  8  1  0
  7  9  1  0
  1 10  1  0
  5 11  1  0
  5 12  1  0
  7 13  1  0
  8 14  1  0
  8 15  1  0
  8 16  1  0
  9 17  1  0
  9 18  1  0
  9 19  1  0
M  END
