
     RDKit          3D

 17 17  0  0  0  0  0  0  0  0999 V2000
    2.6347   -1.4724   -3.2967 C   0  0  0  0  0  0  0  0  0  0  0  0
    2.1848   -0.9980   -2.2800 C   0  0  0  0  0  0  0  0  0  0  0  0
    1.6698   -0.4213   -1.0941 C   0  0  0  0  0  0  0  0  0  0  0  0
    1.2153    0.0911   -0.0824 C   0  0  0  0  0  0  0  0  0  0  0  0
    0.6486    0.6930    1.1254 C   0  0  0  0  0  0  0  0  0  0  0  0
   -0.8340    0.4808    1.1020 C   0  0  0  0  0  0  0  0  0  0  0  0
   -1.2660   -0.9684    1.0703 C   0  0  0  0  0  0  0  0  0  0  0  0
   -1.6428    1.4839    0.3857 C   0  0  0  0  0  0  0  0  0  0  0  0
   -1.6143    1.3768    1.8147 O   0  0  0  0  0  0  0  0  0  0  0  0
    3.0436   -1.8877   -4.1961 H   0  0  0  0  0  0  0  0  0  0  0  0
    1.1412    0.2647    2.0159 H   0  0  0  0  0  0  0  0  0  0  0  0
    0.8622    1.7944    1.1662 H   0  0  0  0  0  0  0  0  0  0  0  0
   -0.4589   -1.6459    1.4003 H   0  0  0  0  0  0  0  0  0  0  0  0
   -1.5948   -1.2349    0.0335 H   0  0  0  0  0  0  0  0  0  0  0  0
   -2.1655   -1.1277    1.7100 H   0  0  0  0  0  0  0  0  0  0  0  0
   -1.2160    2.4304    0.0201 H   0  0  0  0  0  0  0  0  0  0  0  0
   -2.6078    1.1410   -0.0760 H   0  0  0  0  0  0  0  0  0  0  0  0
  1  2  3  0
  2  3  1  0
  3  4  3  0
  4  5  1  0
  5  6  1  0
  6  7  1  0
  6  8  1  0
  8  9  1  0
  9  6  1  0
  1 10  1  0
  5 11  1  0
  5 12  1  0
  7 13  1  0
  7 14  1  0
  7 15  1  0
  8 16  1  0
  8 17  1  0
M  END
