
     RDKit          3D

 19 18  0  0  0  0  0  0  0  0999 V2000
    0.4526    2.4670    1.4104 C   0  0  0  0  0  0  0  0  0  0  0  0
    0.3901    1.3048    0.9076 C   0  0  0  0  0  0  0  0  0  0  0  0
    0.3406   -0.0416    0.3379 C   0  0  0  0  0  0  0  0  0  0  0  0
    0.2185   -0.8989    1.6776 C   0  0  0  0  0  0  0  0  0  0  0  0
    1.5275   -0.4624   -0.3206 C   0  0  0  0  0  0  0  0  0  0  0  0
    2.6139   -0.8263   -0.9318 C   0  0  0  0  0  0  0  0  0  0  0  0
   -0.8985   -0.2727   -0.4095 C   0  0  0  0  0  0  0  0  0  0  0  0
   -1.0701    0.6590   -1.6035 C   0  0  0  0  0  0  0  0  0  0  0  0
   -1.0281   -1.6246   -0.7837 O   0  0  0  0  0  0  0  0  0  0  0  0
    0.5010    3.4433    1.8366 H   0  0  0  0  0  0  0  0  0  0  0  0
    1.2395   -0.8712    2.1675 H   0  0  0  0  0  0  0  0  0  0  0  0
   -0.0474   -1.8946    1.3471 H   0  0  0  0  0  0  0  0  0  0  0  0
   -0.5347   -0.3944    2.2603 H   0  0  0  0  0  0  0  0  0  0  0  0
    3.5457   -1.1366   -1.4345 H   0  0  0  0  0  0  0  0  0  0  0  0
   -1.7789   -0.0695    0.2397 H   0  0  0  0  0  0  0  0  0  0  0  0
   -0.1268    0.9792   -2.0517 H   0  0  0  0  0  0  0  0  0  0  0  0
   -1.6170    0.0154   -2.3645 H   0  0  0  0  0  0  0  0  0  0  0  0
   -1.7295    1.4835   -1.3686 H   0  0  0  0  0  0  0  0  0  0  0  0
   -1.9985   -1.8595   -0.9163 H   0  0  0  0  0  0  0  0  0  0  0  0
  1  2  3  0
  2  3  1  0
  3  4  1  0
  3  5  1  0
  5  6  3  0
  3  7  1  0
  7  8  1  0
  7  9  1  0
  1 10  1  0
  4 11  1  0
  4 12  1  0
  4 13  1  0
  6 14  1  0
  7 15  1  0
  8 16  1  0
  8 17  1  0
  8 18  1  0
  9 19  1  0
M  END
