
     RDKit          3D

 17 16  0  0  0  0  0  0  0  0999 V2000
    4.6391   -0.7620    2.0751 C   0  0  0  0  0  0  0  0  0  0  0  0
    3.6273   -0.4136    1.5676 C   0  0  0  0  0  0  0  0  0  0  0  0
    2.3883    0.0270    0.9594 C   0  0  0  0  0  0  0  0  0  0  0  0
    1.3296    0.3831    0.4447 C   0  0  0  0  0  0  0  0  0  0  0  0
    0.0890    0.7915   -0.1357 C   0  0  0  0  0  0  0  0  0  0  0  0
   -0.6475   -0.4789   -0.5061 C   0  0  0  0  0  0  0  0  0  0  0  0
   -1.9754   -0.2364   -1.1061 C   0  0  0  0  0  0  0  0  0  0  0  0
   -2.9174    0.4995   -0.2412 C   0  0  0  0  0  0  0  0  0  0  0  0
   -4.0968    0.6872   -0.5875 O   0  0  0  0  0  0  0  0  0  0  0  0
    5.5455   -1.0778    2.5499 H   0  0  0  0  0  0  0  0  0  0  0  0
    0.2545    1.4153   -1.0562 H   0  0  0  0  0  0  0  0  0  0  0  0
   -0.5857    1.3082    0.6094 H   0  0  0  0  0  0  0  0  0  0  0  0
   -0.6911   -1.0899    0.3909 H   0  0  0  0  0  0  0  0  0  0  0  0
   -0.0224   -1.0024   -1.2528 H   0  0  0  0  0  0  0  0  0  0  0  0
   -1.8655    0.2889   -2.1039 H   0  0  0  0  0  0  0  0  0  0  0  0
   -2.4484   -1.2270   -1.3694 H   0  0  0  0  0  0  0  0  0  0  0  0
   -2.6231    0.8873    0.6895 H   0  0  0  0  0  0  0  0  0  0  0  0
  1  2  3  0
  2  3  1  0
  3  4  3  0
  4  5  1  0
  5  6  1  0
  6  7  1  0
  7  8  1  0
  8  9  2  0
  1 10  1  0
  5 11  1  0
  5 12  1  0
  6 13  1  0
  6 14  1  0
  7 15  1  0
  7 16  1  0
  8 17  1  0
M  END
