
     RDKit          3D

 21 21  0  0  0  0  0  0  0  0999 V2000
    0.1241    1.8661    2.2550 C   0  0  0  0  0  0  0  0  0  0  0  0
   -0.2038    0.9331    1.6623 C   0  0  0  0  0  0  0  0  0  0  0  0
   -0.6152   -0.2691    0.8729 C   0  0  0  0  0  0  0  0  0  0  0  0
   -0.6678    0.0135   -0.6027 C   0  0  0  0  0  0  0  0  0  0  0  0
   -1.1655   -1.1718   -1.3531 C   0  0  0  0  0  0  0  0  0  0  0  0
    0.7734    0.2145   -1.1596 C   0  0  0  0  0  0  0  0  0  0  0  0
    1.4895    1.3566   -0.5444 C   0  0  0  0  0  0  0  0  0  0  0  0
   -0.6952   -1.5797    1.5138 C   0  0  0  0  0  0  0  0  0  0  0  0
    0.5313   -1.2290    1.0133 O   0  0  0  0  0  0  0  0  0  0  0  0
    0.4586    2.8227    2.8549 H   0  0  0  0  0  0  0  0  0  0  0  0
   -1.1782    0.9171   -0.9119 H   0  0  0  0  0  0  0  0  0  0  0  0
   -0.4238   -1.6101   -2.0532 H   0  0  0  0  0  0  0  0  0  0  0  0
   -2.0201   -0.8142   -2.0104 H   0  0  0  0  0  0  0  0  0  0  0  0
   -1.6191   -1.9615   -0.7189 H   0  0  0  0  0  0  0  0  0  0  0  0
    1.2985   -0.7493   -1.0455 H   0  0  0  0  0  0  0  0  0  0  0  0
    0.6220    0.4143   -2.2354 H   0  0  0  0  0  0  0  0  0  0  0  0
    2.0322    1.0161    0.3550 H   0  0  0  0  0  0  0  0  0  0  0  0
    0.8164    2.2073   -0.4142 H   0  0  0  0  0  0  0  0  0  0  0  0
    2.3499    1.6619   -1.2439 H   0  0  0  0  0  0  0  0  0  0  0  0
   -0.6807   -1.5761    2.6799 H   0  0  0  0  0  0  0  0  0  0  0  0
   -1.2267   -2.4626    1.1469 H   0  0  0  0  0  0  0  0  0  0  0  0
  1  2  3  0
  2  3  1  0
  3  4  1  0
  4  5  1  0
  4  6  1  0
  6  7  1  0
  3  8  1  0
  8  9  1  0
  9  3  1  0
  1 10  1  0
  4 11  1  0
  5 12  1  0
  5 13  1  0
  5 14  1  0
  6 15  1  0
  6 16  1  0
  7 17  1  0
  7 18  1  0
  7 19  1  0
  8 20  1  0
  8 21  1  0
M  END
