
     RDKit          3D

 18 18  0  0  0  0  0  0  0  0999 V2000
    2.3525    2.7529   -0.1801 C   0  0  0  0  0  0  0  0  0  0  0  0
    2.0903    1.5950   -0.0719 C   0  0  0  0  0  0  0  0  0  0  0  0
    1.7563    0.1596    0.0476 C   0  0  0  0  0  0  0  0  0  0  0  0
    0.2928    0.0368    0.4086 C   0  0  0  0  0  0  0  0  0  0  0  0
   -0.7128    0.5982   -0.5190 C   0  0  0  0  0  0  0  0  0  0  0  0
   -0.5072   -0.8807   -0.4386 C   0  0  0  0  0  0  0  0  0  0  0  0
   -1.5079   -1.7468    0.2564 C   0  0  0  0  0  0  0  0  0  0  0  0
   -2.4507   -1.0039    0.9315 O   0  0  0  0  0  0  0  0  0  0  0  0
    2.5685    3.7881   -0.2810 H   0  0  0  0  0  0  0  0  0  0  0  0
    1.9489   -0.3052   -0.9221 H   0  0  0  0  0  0  0  0  0  0  0  0
    2.4020   -0.2255    0.8683 H   0  0  0  0  0  0  0  0  0  0  0  0
    0.0361    0.1516    1.5003 H   0  0  0  0  0  0  0  0  0  0  0  0
   -0.3652    1.1768   -1.3797 H   0  0  0  0  0  0  0  0  0  0  0  0
   -1.7125    0.9278   -0.1383 H   0  0  0  0  0  0  0  0  0  0  0  0
   -0.0004   -1.3494   -1.3102 H   0  0  0  0  0  0  0  0  0  0  0  0
   -0.9642   -2.3629    1.0210 H   0  0  0  0  0  0  0  0  0  0  0  0
   -1.9507   -2.4234   -0.5077 H   0  0  0  0  0  0  0  0  0  0  0  0
   -3.2757   -0.8891    0.4178 H   0  0  0  0  0  0  0  0  0  0  0  0
  1  2  3  0
  2  3  1  0
  3  4  1  0
  4  5  1  0
  5  6  1  0
  6  7  1  0
  7  8  1  0
  6  4  1  0
  1  9  1  0
  3 10  1  0
  3 11  1  0
  4 12  1  0
  5 13  1  0
  5 14  1  0
  6 15  1  0
  7 16  1  0
  7 17  1  0
  8 18  1  0
M  END
