
     RDKit          3D

 15 14  0  0  0  0  0  0  0  0999 V2000
    0.0109    2.0355    1.2669 C   0  0  0  0  0  0  0  0  0  0  0  0
    0.0303    1.0038    0.4259 C   0  0  0  0  0  0  0  0  0  0  0  0
    0.0330   -0.0839   -0.4823 C   0  0  0  0  0  0  0  0  0  0  0  0
   -1.1413   -0.7117   -0.4514 O   0  0  0  0  0  0  0  0  0  0  0  0
   -2.2827   -0.4393   -1.0144 C   0  0  0  0  0  0  0  0  0  0  0  0
    1.2629   -0.9030   -0.4215 C   0  0  0  0  0  0  0  0  0  0  0  0
    1.2026   -2.1754   -0.4306 O   0  0  0  0  0  0  0  0  0  0  0  0
    2.5941   -0.3555   -0.3599 C   0  0  0  0  0  0  0  0  0  0  0  0
    3.2569    0.4917   -0.0510 O   0  0  0  0  0  0  0  0  0  0  0  0
   -0.0213    2.9512    2.0058 H   0  0  0  0  0  0  0  0  0  0  0  0
    0.0625    0.4868   -1.5888 H   0  0  0  0  0  0  0  0  0  0  0  0
   -2.5262   -0.3810   -2.0218 H   0  0  0  0  0  0  0  0  0  0  0  0
   -2.7523    0.5264   -0.4803 H   0  0  0  0  0  0  0  0  0  0  0  0
   -3.0882   -1.2327   -0.5826 H   0  0  0  0  0  0  0  0  0  0  0  0
    3.3587   -1.2131   -0.8900 H   0  0  0  0  0  0  0  0  0  0  0  0
  1  2  3  0
  2  3  1  0
  3  4  1  0
  4  5  1  0
  3  6  1  0
  6  7  2  0
  6  8  1  0
  8  9  2  0
  1 10  1  0
  3 11  1  0
  5 12  1  0
  5 13  1  0
  5 14  1  0
  8 15  1  0
M  END
