
     RDKit          3D

 15 14  0  0  0  0  0  0  0  0999 V2000
    4.2042    0.2227   -0.8431 C   0  0  0  0  0  0  0  0  0  0  0  0
    3.0590    0.0031   -0.5307 C   0  0  0  0  0  0  0  0  0  0  0  0
    1.7181   -0.2357   -0.1484 C   0  0  0  0  0  0  0  0  0  0  0  0
    0.5628   -0.4324    0.2007 C   0  0  0  0  0  0  0  0  0  0  0  0
   -0.8162   -0.6571    0.6228 C   0  0  0  0  0  0  0  0  0  0  0  0
   -1.0707   -2.0212    0.6033 O   0  0  0  0  0  0  0  0  0  0  0  0
   -1.7364    0.0714   -0.3200 C   0  0  0  0  0  0  0  0  0  0  0  0
   -1.4647    1.5146   -0.3159 C   0  0  0  0  0  0  0  0  0  0  0  0
   -0.6036    1.9927    0.3744 O   0  0  0  0  0  0  0  0  0  0  0  0
    5.2200    0.4137   -1.1390 H   0  0  0  0  0  0  0  0  0  0  0  0
   -0.9937   -0.2816    1.6662 H   0  0  0  0  0  0  0  0  0  0  0  0
   -1.7106   -2.2753   -0.1152 H   0  0  0  0  0  0  0  0  0  0  0  0
   -2.8037   -0.1798   -0.0815 H   0  0  0  0  0  0  0  0  0  0  0  0
   -1.5201   -0.3183   -1.3435 H   0  0  0  0  0  0  0  0  0  0  0  0
   -2.0445    2.1833   -0.9447 H   0  0  0  0  0  0  0  0  0  0  0  0
  1  2  3  0
  2  3  1  0
  3  4  3  0
  4  5  1  0
  5  6  1  0
  5  7  1  0
  7  8  1  0
  8  9  2  0
  1 10  1  0
  5 11  1  0
  6 12  1  0
  7 13  1  0
  7 14  1  0
  8 15  1  0
M  END
