
     RDKit          3D

 15 16  0  0  0  0  0  0  0  0999 V2000
   -1.7814    1.8478    1.0531 C   0  0  0  0  0  0  0  0  0  0  0  0
   -1.0363    1.0492    0.2748 C   0  0  0  0  0  0  0  0  0  0  0  0
   -0.2291    0.1465   -0.5924 C   0  0  0  0  0  0  0  0  0  0  0  0
   -0.6901   -1.1935   -0.3067 C   0  0  0  0  0  0  0  0  0  0  0  0
   -0.0955   -1.6065    0.8014 C   0  0  0  0  0  0  0  0  0  0  0  0
    0.7787   -0.4503    1.1732 C   0  0  0  0  0  0  0  0  0  0  0  0
    0.9599   -0.0564    2.3151 O   0  0  0  0  0  0  0  0  0  0  0  0
    1.2407   -0.0550   -0.1310 C   0  0  0  0  0  0  0  0  0  0  0  0
    0.8467    0.7923   -1.1961 C   0  0  0  0  0  0  0  0  0  0  0  0
   -2.2556    2.3784    1.5618 H   0  0  0  0  0  0  0  0  0  0  0  0
   -1.3916   -1.8143   -0.8567 H   0  0  0  0  0  0  0  0  0  0  0  0
   -0.2250   -2.5569    1.3541 H   0  0  0  0  0  0  0  0  0  0  0  0
    1.8253   -0.9349   -0.5560 H   0  0  0  0  0  0  0  0  0  0  0  0
    1.0140    1.8988   -1.0645 H   0  0  0  0  0  0  0  0  0  0  0  0
    1.0393    0.5548   -2.2691 H   0  0  0  0  0  0  0  0  0  0  0  0
  1  2  3  0
  2  3  1  0
  3  4  1  0
  4  5  2  0
  5  6  1  0
  6  7  2  0
  6  8  1  0
  8  9  1  0
  8  3  1  0
  9  3  1  0
  1 10  1  0
  4 11  1  0
  5 12  1  0
  8 13  1  0
  9 14  1  0
  9 15  1  0
M  END
