
     RDKit          3D

 19 21  0  0  0  0  0  0  0  0999 V2000
    3.8533   -0.2993    0.3553 C   0  0  0  0  0  0  0  0  0  0  0  0
    2.6576   -0.2489    0.6100 C   0  0  0  0  0  0  0  0  0  0  0  0
    1.2267   -0.1915    0.8983 C   0  0  0  0  0  0  0  0  0  0  0  0
    0.3684   -0.9600    0.0347 C   0  0  0  0  0  0  0  0  0  0  0  0
   -1.1355   -1.1287    0.2366 C   0  0  0  0  0  0  0  0  0  0  0  0
   -1.6238   -0.0780   -0.7018 C   0  0  0  0  0  0  0  0  0  0  0  0
   -2.1158    1.2299   -0.5804 C   0  0  0  0  0  0  0  0  0  0  0  0
   -0.9346    1.0563    0.1633 C   0  0  0  0  0  0  0  0  0  0  0  0
    0.4281    0.6020   -0.1412 C   0  0  0  0  0  0  0  0  0  0  0  0
    4.8903   -0.3272    0.1363 H   0  0  0  0  0  0  0  0  0  0  0  0
    0.9901    0.0268    1.9680 H   0  0  0  0  0  0  0  0  0  0  0  0
    0.7628   -1.5570   -0.7876 H   0  0  0  0  0  0  0  0  0  0  0  0
   -1.4490   -2.1215   -0.1132 H   0  0  0  0  0  0  0  0  0  0  0  0
   -1.4201   -0.9423    1.2799 H   0  0  0  0  0  0  0  0  0  0  0  0
   -1.1300   -0.2871   -1.7049 H   0  0  0  0  0  0  0  0  0  0  0  0
   -3.1036    1.3837   -0.0799 H   0  0  0  0  0  0  0  0  0  0  0  0
   -2.0643    1.9468   -1.4537 H   0  0  0  0  0  0  0  0  0  0  0  0
   -1.1234    0.9892    1.2814 H   0  0  0  0  0  0  0  0  0  0  0  0
    0.9230    0.9067   -1.0643 H   0  0  0  0  0  0  0  0  0  0  0  0
  1  2  3  0
  2  3  1  0
  3  4  1  0
  4  5  1  0
  5  6  1  0
  6  7  1  0
  7  8  1  0
  8  9  1  0
  9  3  1  0
  9  4  1  0
  8  6  1  0
  1 10  1  0
  3 11  1  0
  4 12  1  0
  5 13  1  0
  5 14  1  0
  6 15  1  0
  7 16  1  0
  7 17  1  0
  8 18  1  0
  9 19  1  0
M  END
