
     RDKit          3D

 16 16  0  0  0  0  0  0  0  0999 V2000
    2.5719    1.3610    0.6785 C   0  0  0  0  0  0  0  0  0  0  0  0
    1.6889    0.7628    0.1129 C   0  0  0  0  0  0  0  0  0  0  0  0
    0.6024    0.0202   -0.5572 C   0  0  0  0  0  0  0  0  0  0  0  0
    1.0551   -0.7213   -1.6164 O   0  0  0  0  0  0  0  0  0  0  0  0
   -0.4139    1.0096   -0.9823 C   0  0  0  0  0  0  0  0  0  0  0  0
   -1.6246    0.5809   -0.6984 C   0  0  0  0  0  0  0  0  0  0  0  0
   -1.5426   -0.7440   -0.0533 C   0  0  0  0  0  0  0  0  0  0  0  0
   -0.1321   -0.8245    0.4722 C   0  0  0  0  0  0  0  0  0  0  0  0
    3.3443    1.8922    1.1715 H   0  0  0  0  0  0  0  0  0  0  0  0
    0.9789   -1.6867   -1.3729 H   0  0  0  0  0  0  0  0  0  0  0  0
   -0.1745    1.9515   -1.4598 H   0  0  0  0  0  0  0  0  0  0  0  0
   -2.5795    1.1378   -0.9134 H   0  0  0  0  0  0  0  0  0  0  0  0
   -2.3000   -0.8816    0.7437 H   0  0  0  0  0  0  0  0  0  0  0  0
   -1.6633   -1.5079   -0.8540 H   0  0  0  0  0  0  0  0  0  0  0  0
   -0.0074   -0.4631    1.4913 H   0  0  0  0  0  0  0  0  0  0  0  0
    0.1963   -1.8869    0.3636 H   0  0  0  0  0  0  0  0  0  0  0  0
  1  2  3  0
  2  3  1  0
  3  4  1  0
  3  5  1  0
  5  6  2  0
  6  7  1  0
  7  8  1  0
  8  3  1  0
  1  9  1  0
  4 10  1  0
  5 11  1  0
  6 12  1  0
  7 13  1  0
  7 14  1  0
  8 15  1  0
  8 16  1  0
M  END
