
     RDKit          3D

 19 19  0  0  0  0  0  0  0  0999 V2000
    3.6583    0.6615   -0.3944 C   0  0  0  0  0  0  0  0  0  0  0  0
    2.5378    0.1922   -0.3410 C   0  0  0  0  0  0  0  0  0  0  0  0
    1.2057   -0.3451   -0.2638 C   0  0  0  0  0  0  0  0  0  0  0  0
    0.4444    0.0651   -1.5335 C   0  0  0  0  0  0  0  0  0  0  0  0
   -0.8653   -0.2184   -1.0856 O   0  0  0  0  0  0  0  0  0  0  0  0
   -0.8680   -0.0445    0.2765 C   0  0  0  0  0  0  0  0  0  0  0  0
   -1.3086   -1.2740    1.0370 C   0  0  0  0  0  0  0  0  0  0  0  0
   -1.8299    1.0811    0.5989 C   0  0  0  0  0  0  0  0  0  0  0  0
    0.4041    0.2771    0.6901 O   0  0  0  0  0  0  0  0  0  0  0  0
    4.6373    1.0702   -0.4593 H   0  0  0  0  0  0  0  0  0  0  0  0
    1.1625   -1.4469   -0.2148 H   0  0  0  0  0  0  0  0  0  0  0  0
    0.7314   -0.5466   -2.3867 H   0  0  0  0  0  0  0  0  0  0  0  0
    0.5725    1.1603   -1.6874 H   0  0  0  0  0  0  0  0  0  0  0  0
   -0.4516   -1.8981    1.3704 H   0  0  0  0  0  0  0  0  0  0  0  0
   -1.9704   -1.9303    0.4436 H   0  0  0  0  0  0  0  0  0  0  0  0
   -1.7955   -0.9127    1.9806 H   0  0  0  0  0  0  0  0  0  0  0  0
   -1.7726    1.3854    1.6462 H   0  0  0  0  0  0  0  0  0  0  0  0
   -1.6231    1.9538   -0.0537 H   0  0  0  0  0  0  0  0  0  0  0  0
   -2.8690    0.7698    0.3768 H   0  0  0  0  0  0  0  0  0  0  0  0
  1  2  3  0
  2  3  1  0
  3  4  1  0
  4  5  1  0
  5  6  1  0
  6  7  1  0
  6  8  1  0
  6  9  1  0
  9  3  1  0
  1 10  1  0
  3 11  1  0
  4 12  1  0
  4 13  1  0
  7 14  1  0
  7 15  1  0
  7 16  1  0
  8 17  1  0
  8 18  1  0
  8 19  1  0
M  END
