
     RDKit          3D

 18 17  0  0  0  0  0  0  0  0999 V2000
   -1.9515   -2.1931    0.8952 C   0  0  0  0  0  0  0  0  0  0  0  0
   -1.4180   -1.1212    0.6705 C   0  0  0  0  0  0  0  0  0  0  0  0
   -0.7781    0.1742    0.4240 C   0  0  0  0  0  0  0  0  0  0  0  0
   -1.1892    0.6116   -0.9655 C   0  0  0  0  0  0  0  0  0  0  0  0
    0.7240    0.0781    0.5429 C   0  0  0  0  0  0  0  0  0  0  0  0
    1.2938   -0.9121   -0.4586 C   0  0  0  0  0  0  0  0  0  0  0  0
    1.3180    1.3839    0.4384 C   0  0  0  0  0  0  0  0  0  0  0  0
    1.8341    2.4866    0.3329 C   0  0  0  0  0  0  0  0  0  0  0  0
   -2.4076   -3.1323    1.0919 H   0  0  0  0  0  0  0  0  0  0  0  0
   -1.1415    0.8857    1.1753 H   0  0  0  0  0  0  0  0  0  0  0  0
   -2.1586    1.1249   -0.9358 H   0  0  0  0  0  0  0  0  0  0  0  0
   -1.2644   -0.2634   -1.6373 H   0  0  0  0  0  0  0  0  0  0  0  0
   -0.4029    1.2696   -1.3866 H   0  0  0  0  0  0  0  0  0  0  0  0
    0.9274   -0.3369    1.5660 H   0  0  0  0  0  0  0  0  0  0  0  0
    2.2069   -1.3452    0.0009 H   0  0  0  0  0  0  0  0  0  0  0  0
    0.5868   -1.7491   -0.5941 H   0  0  0  0  0  0  0  0  0  0  0  0
    1.5313   -0.4033   -1.4161 H   0  0  0  0  0  0  0  0  0  0  0  0
    2.2897    3.4421    0.2562 H   0  0  0  0  0  0  0  0  0  0  0  0
  1  2  3  0
  2  3  1  0
  3  4  1  0
  3  5  1  0
  5  6  1  0
  5  7  1  0
  7  8  3  0
  1  9  1  0
  3 10  1  0
  4 11  1  0
  4 12  1  0
  4 13  1  0
  5 14  1  0
  6 15  1  0
  6 16  1  0
  6 17  1  0
  8 18  1  0
M  END
