
     RDKit          3D

 19 19  0  0  0  0  0  0  0  0999 V2000
    1.2534    2.5660   -2.4310 C   0  0  0  0  0  0  0  0  0  0  0  0
    1.2184    1.5817   -1.7464 C   0  0  0  0  0  0  0  0  0  0  0  0
    1.1960    0.3727   -0.9243 C   0  0  0  0  0  0  0  0  0  0  0  0
    0.9485    0.8172    0.4810 C   0  0  0  0  0  0  0  0  0  0  0  0
   -0.0336    0.2770    1.2063 C   0  0  0  0  0  0  0  0  0  0  0  0
   -0.9003   -0.7753    0.6336 C   0  0  0  0  0  0  0  0  0  0  0  0
   -1.3457   -1.7256    1.7288 C   0  0  0  0  0  0  0  0  0  0  0  0
   -0.2604   -1.3992   -0.4149 O   0  0  0  0  0  0  0  0  0  0  0  0
   -0.0256   -0.4193   -1.3801 C   0  0  0  0  0  0  0  0  0  0  0  0
    1.2975    3.4502   -3.0632 H   0  0  0  0  0  0  0  0  0  0  0  0
    2.1168   -0.2384   -1.0232 H   0  0  0  0  0  0  0  0  0  0  0  0
    1.5584    1.5771    0.9262 H   0  0  0  0  0  0  0  0  0  0  0  0
   -0.1601    0.6419    2.2164 H   0  0  0  0  0  0  0  0  0  0  0  0
   -1.8550   -0.3428    0.2127 H   0  0  0  0  0  0  0  0  0  0  0  0
   -2.2561   -2.2834    1.4391 H   0  0  0  0  0  0  0  0  0  0  0  0
   -1.5120   -1.1191    2.6653 H   0  0  0  0  0  0  0  0  0  0  0  0
   -0.5145   -2.4290    1.9589 H   0  0  0  0  0  0  0  0  0  0  0  0
   -0.8717    0.3239   -1.4065 H   0  0  0  0  0  0  0  0  0  0  0  0
    0.1460   -0.8755   -2.3832 H   0  0  0  0  0  0  0  0  0  0  0  0
  1  2  3  0
  2  3  1  0
  3  4  1  0
  4  5  2  0
  5  6  1  0
  6  7  1  0
  6  8  1  0
  8  9  1  0
  9  3  1  0
  1 10  1  0
  3 11  1  0
  4 12  1  0
  5 13  1  0
  6 14  1  0
  7 15  1  0
  7 16  1  0
  7 17  1  0
  9 18  1  0
  9 19  1  0
M  END
