
     RDKit          3D

 19 18  0  0  0  0  0  0  0  0999 V2000
   -1.5766   -2.1029   -1.3497 C   0  0  0  0  0  0  0  0  0  0  0  0
   -0.9680   -1.2721   -0.7202 C   0  0  0  0  0  0  0  0  0  0  0  0
   -0.2218   -0.2384    0.0539 C   0  0  0  0  0  0  0  0  0  0  0  0
   -0.6749    1.0832   -0.2924 C   0  0  0  0  0  0  0  0  0  0  0  0
   -1.0569    2.2160   -0.6101 C   0  0  0  0  0  0  0  0  0  0  0  0
   -1.4945    3.5920   -0.9875 C   0  0  0  0  0  0  0  0  0  0  0  0
    1.1063   -0.4063   -0.2786 O   0  0  0  0  0  0  0  0  0  0  0  0
    1.9262   -0.7952    0.7536 C   0  0  0  0  0  0  0  0  0  0  0  0
    1.4871   -2.1029    1.3011 C   0  0  0  0  0  0  0  0  0  0  0  0
   -2.1235   -2.8264   -1.9189 H   0  0  0  0  0  0  0  0  0  0  0  0
   -0.4143   -0.4490    1.1331 H   0  0  0  0  0  0  0  0  0  0  0  0
   -1.9473    3.5568   -2.0204 H   0  0  0  0  0  0  0  0  0  0  0  0
   -2.3082    3.8549   -0.2879 H   0  0  0  0  0  0  0  0  0  0  0  0
   -0.6531    4.2941   -0.9944 H   0  0  0  0  0  0  0  0  0  0  0  0
    1.9521    0.0210    1.5062 H   0  0  0  0  0  0  0  0  0  0  0  0
    2.9653   -0.8406    0.3304 H   0  0  0  0  0  0  0  0  0  0  0  0
    2.2225   -2.9205    1.1792 H   0  0  0  0  0  0  0  0  0  0  0  0
    0.5504   -2.4175    0.8150 H   0  0  0  0  0  0  0  0  0  0  0  0
    1.2293   -1.9289    2.3876 H   0  0  0  0  0  0  0  0  0  0  0  0
  1  2  3  0
  2  3  1  0
  3  4  1  0
  4  5  3  0
  5  6  1  0
  3  7  1  0
  7  8  1  0
  8  9  1  0
  1 10  1  0
  3 11  1  0
  6 12  1  0
  6 13  1  0
  6 14  1  0
  8 15  1  0
  8 16  1  0
  9 17  1  0
  9 18  1  0
  9 19  1  0
M  END
