
     RDKit          3D

 17 18  0  0  0  0  0  0  0  0999 V2000
    2.6693   -0.1606    1.0717 C   0  0  0  0  0  0  0  0  0  0  0  0
    1.5278    0.1660    0.9421 C   0  0  0  0  0  0  0  0  0  0  0  0
    0.1225    0.5612    0.8077 C   0  0  0  0  0  0  0  0  0  0  0  0
   -0.7696   -0.4384    1.5050 C   0  0  0  0  0  0  0  0  0  0  0  0
   -1.1533   -1.4513    0.4921 C   0  0  0  0  0  0  0  0  0  0  0  0
   -0.9144   -0.9711   -0.7034 C   0  0  0  0  0  0  0  0  0  0  0  0
   -0.3493    0.4046   -0.6204 C   0  0  0  0  0  0  0  0  0  0  0  0
    0.1647    1.1565   -1.6805 C   0  0  0  0  0  0  0  0  0  0  0  0
   -1.1538    1.4674   -1.0858 O   0  0  0  0  0  0  0  0  0  0  0  0
    3.6966   -0.4668    1.2034 H   0  0  0  0  0  0  0  0  0  0  0  0
   -0.0761    1.5738    1.2120 H   0  0  0  0  0  0  0  0  0  0  0  0
   -1.7167    0.1144    1.7773 H   0  0  0  0  0  0  0  0  0  0  0  0
   -0.3173   -0.8697    2.4130 H   0  0  0  0  0  0  0  0  0  0  0  0
   -1.5622   -2.4218    0.7399 H   0  0  0  0  0  0  0  0  0  0  0  0
   -1.0844   -1.4622   -1.6685 H   0  0  0  0  0  0  0  0  0  0  0  0
    0.9144    1.9475   -1.5212 H   0  0  0  0  0  0  0  0  0  0  0  0
    0.0018    0.8504   -2.7390 H   0  0  0  0  0  0  0  0  0  0  0  0
  1  2  3  0
  2  3  1  0
  3  4  1  0
  4  5  1  0
  5  6  2  0
  6  7  1  0
  7  8  1  0
  8  9  1  0
  7  3  1  0
  9  7  1  0
  1 10  1  0
  3 11  1  0
  4 12  1  0
  4 13  1  0
  5 14  1  0
  6 15  1  0
  8 16  1  0
  8 17  1  0
M  END
