
     RDKit          3D

 16 17  0  0  0  0  0  0  0  0999 V2000
    2.9342    1.1690    1.2436 C   0  0  0  0  0  0  0  0  0  0  0  0
    2.1627    0.4598    0.6377 C   0  0  0  0  0  0  0  0  0  0  0  0
    1.2267   -0.4322   -0.0984 C   0  0  0  0  0  0  0  0  0  0  0  0
   -0.1066   -0.5343    0.3160 C   0  0  0  0  0  0  0  0  0  0  0  0
   -1.3855   -0.9564   -0.3133 C   0  0  0  0  0  0  0  0  0  0  0  0
   -1.7835    0.4270   -0.8637 C   0  0  0  0  0  0  0  0  0  0  0  0
   -0.5762    1.1702   -0.9295 O   0  0  0  0  0  0  0  0  0  0  0  0
    0.3559    0.1960   -1.0131 C   0  0  0  0  0  0  0  0  0  0  0  0
    3.6165    1.7948    1.7576 H   0  0  0  0  0  0  0  0  0  0  0  0
    1.7681   -1.3713   -0.3870 H   0  0  0  0  0  0  0  0  0  0  0  0
   -0.3883    0.1675    1.1669 H   0  0  0  0  0  0  0  0  0  0  0  0
   -1.2345   -1.6765   -1.1386 H   0  0  0  0  0  0  0  0  0  0  0  0
   -2.1103   -1.3316    0.4081 H   0  0  0  0  0  0  0  0  0  0  0  0
   -2.2837    0.3591   -1.8238 H   0  0  0  0  0  0  0  0  0  0  0  0
   -2.3793    0.9473   -0.0704 H   0  0  0  0  0  0  0  0  0  0  0  0
    0.1837   -0.3885   -1.9696 H   0  0  0  0  0  0  0  0  0  0  0  0
  1  2  3  0
  2  3  1  0
  3  4  1  0
  4  5  1  0
  5  6  1  0
  6  7  1  0
  7  8  1  0
  8  3  1  0
  8  4  1  0
  1  9  1  0
  3 10  1  0
  4 11  1  0
  5 12  1  0
  5 13  1  0
  6 14  1  0
  6 15  1  0
  8 16  1  0
M  END
