
     RDKit          3D

 16 16  0  0  0  0  0  0  0  0999 V2000
    2.9852   -0.4126    1.6713 C   0  0  0  0  0  0  0  0  0  0  0  0
    1.9225   -0.3430    1.0880 C   0  0  0  0  0  0  0  0  0  0  0  0
    0.6553   -0.2528    0.4195 C   0  0  0  0  0  0  0  0  0  0  0  0
   -0.3009    0.6460    0.5478 C   0  0  0  0  0  0  0  0  0  0  0  0
   -1.3749    0.2491   -0.3792 C   0  0  0  0  0  0  0  0  0  0  0  0
   -1.3193    0.9414   -1.7006 C   0  0  0  0  0  0  0  0  0  0  0  0
   -1.1750   -1.1209   -0.6121 O   0  0  0  0  0  0  0  0  0  0  0  0
    0.1946   -1.2494   -0.6081 C   0  0  0  0  0  0  0  0  0  0  0  0
    3.9196   -0.4911    2.1769 H   0  0  0  0  0  0  0  0  0  0  0  0
   -0.2823    1.4944    1.2047 H   0  0  0  0  0  0  0  0  0  0  0  0
   -2.3742    0.3695    0.0835 H   0  0  0  0  0  0  0  0  0  0  0  0
   -0.4896    1.6930   -1.7617 H   0  0  0  0  0  0  0  0  0  0  0  0
   -2.2515    1.5262   -1.8359 H   0  0  0  0  0  0  0  0  0  0  0  0
   -1.2657    0.2484   -2.5691 H   0  0  0  0  0  0  0  0  0  0  0  0
    0.4781   -2.2756   -0.3379 H   0  0  0  0  0  0  0  0  0  0  0  0
    0.6778   -1.0228   -1.5789 H   0  0  0  0  0  0  0  0  0  0  0  0
  1  2  3  0
  2  3  1  0
  3  4  2  0
  4  5  1  0
  5  6  1  0
  5  7  1  0
  7  8  1  0
  8  3  1  0
  1  9  1  0
  4 10  1  0
  5 11  1  0
  6 12  1  0
  6 13  1  0
  6 14  1  0
  8 15  1  0
  8 16  1  0
M  END
