
     RDKit          3D

 11 10  0  0  0  0  0  0  0  0999 V2000
    2.4062    1.0116   -1.4857 C   0  0  0  0  0  0  0  0  0  0  0  0
    1.1680    0.8686   -1.2605 C   0  0  0  0  0  0  0  0  0  0  0  0
   -0.0972    0.7122   -1.0305 C   0  0  0  0  0  0  0  0  0  0  0  0
   -0.5054   -0.0588    0.2006 C   0  0  0  0  0  0  0  0  0  0  0  0
   -0.8733   -0.7993    1.3474 C   0  0  0  0  0  0  0  0  0  0  0  0
   -1.1539   -1.3260    2.1848 C   0  0  0  0  0  0  0  0  0  0  0  0
   -0.6637   -2.2144    3.0964 O   0  0  0  0  0  0  0  0  0  0  0  0
    3.5418    1.1525   -1.7076 H   0  0  0  0  0  0  0  0  0  0  0  0
   -0.7388    0.1786   -1.8779 H   0  0  0  0  0  0  0  0  0  0  0  0
   -0.7347    1.7189   -0.8975 H   0  0  0  0  0  0  0  0  0  0  0  0
   -2.3489   -1.2439    2.7328 H   0  0  0  0  0  0  0  0  0  0  0  0
  1  2  3  0
  2  3  1  0
  3  4  1  0
  4  5  3  0
  5  6  1  0
  6  7  2  0
  1  8  1  0
  3  9  1  0
  3 10  1  0
  6 11  1  0
M  END
