
     RDKit          3D

 17 19  0  0  0  0  0  0  0  0999 V2000
    1.8667    2.7719    0.8927 C   0  0  0  0  0  0  0  0  0  0  0  0
    1.1486    1.8720    0.3206 C   0  0  0  0  0  0  0  0  0  0  0  0
    0.1944    0.6563   -0.4159 C   0  0  0  0  0  0  0  0  0  0  0  0
   -0.9748    0.3043   -0.5719 C   0  0  0  0  0  0  0  0  0  0  0  0
   -1.4183    0.0085    0.9756 C   0  0  0  0  0  0  0  0  0  0  0  0
   -0.3799   -0.7581    1.3920 O   0  0  0  0  0  0  0  0  0  0  0  0
    0.3849   -1.4149    0.2212 C   0  0  0  0  0  0  0  0  0  0  0  0
    1.0766   -0.4908   -0.6351 C   0  0  0  0  0  0  0  0  0  0  0  0
   -0.4198   -0.9737   -1.0490 C   0  0  0  0  0  0  0  0  0  0  0  0
    2.4844    3.5545    1.3839 H   0  0  0  0  0  0  0  0  0  0  0  0
    0.4858    1.3716   -1.5961 H   0  0  0  0  0  0  0  0  0  0  0  0
   -1.8470    0.8385   -1.1687 H   0  0  0  0  0  0  0  0  0  0  0  0
   -1.4705    1.0040    1.3942 H   0  0  0  0  0  0  0  0  0  0  0  0
   -2.3400   -0.5777    0.9862 H   0  0  0  0  0  0  0  0  0  0  0  0
    0.3499   -2.4701    0.4662 H   0  0  0  0  0  0  0  0  0  0  0  0
    1.9110   -0.8214   -1.3021 H   0  0  0  0  0  0  0  0  0  0  0  0
   -1.0520   -1.7309   -1.2938 H   0  0  0  0  0  0  0  0  0  0  0  0
  1  2  3  0
  2  3  1  0
  3  4  1  0
  4  5  1  0
  5  6  1  0
  6  7  1  0
  7  8  1  0
  8  9  1  0
  8  3  1  0
  9  4  1  0
  9  7  1  0
  1 10  1  0
  3 11  1  0
  4 12  1  0
  5 13  1  0
  5 14  1  0
  7 15  1  0
  8 16  1  0
  9 17  1  0
M  END
