
     RDKit          3D

 19 18  0  0  0  0  0  0  0  0999 V2000
   -2.8686    0.9943    2.7156 C   0  0  0  0  0  0  0  0  0  0  0  0
   -2.5396    1.6359    1.6502 C   0  0  0  0  0  0  0  0  0  0  0  0
   -2.1070    2.4180    0.3217 C   0  0  0  0  0  0  0  0  0  0  0  0
   -1.0699    0.9468    0.1617 C   0  0  0  0  0  0  0  0  0  0  0  0
   -0.4490    0.0329    0.0603 C   0  0  0  0  0  0  0  0  0  0  0  0
    0.3815   -1.1890   -0.1011 C   0  0  0  0  0  0  0  0  0  0  0  0
   -0.4671   -2.1029   -0.7777 O   0  0  0  0  0  0  0  0  0  0  0  0
    1.6219   -1.1364   -0.8881 C   0  0  0  0  0  0  0  0  0  0  0  0
    2.7781   -0.2594   -0.4578 C   0  0  0  0  0  0  0  0  0  0  0  0
   -3.1436    0.4569    3.5908 H   0  0  0  0  0  0  0  0  0  0  0  0
   -1.3833    3.0488    0.5154 H   0  0  0  0  0  0  0  0  0  0  0  0
   -2.7446    2.0867   -0.4375 H   0  0  0  0  0  0  0  0  0  0  0  0
    0.6423   -1.5148    0.9584 H   0  0  0  0  0  0  0  0  0  0  0  0
   -1.4036   -1.7065   -0.7514 H   0  0  0  0  0  0  0  0  0  0  0  0
    1.4100   -1.0362   -2.0001 H   0  0  0  0  0  0  0  0  0  0  0  0
    2.0696   -2.2364   -0.8575 H   0  0  0  0  0  0  0  0  0  0  0  0
    2.9883    0.3898   -1.2548 H   0  0  0  0  0  0  0  0  0  0  0  0
    2.6189    0.1663    0.5553 H   0  0  0  0  0  0  0  0  0  0  0  0
    3.6656   -0.9948   -0.3545 H   0  0  0  0  0  0  0  0  0  0  0  0
  1  2  3  0
  2  3  1  0
  3  4  1  0
  4  5  3  0
  5  6  1  0
  6  7  1  0
  6  8  1  0
  8  9  1  0
  1 10  1  0
  3 11  1  0
  3 12  1  0
  6 13  1  0
  7 14  1  0
  8 15  1  0
  8 16  1  0
  9 17  1  0
  9 18  1  0
  9 19  1  0
M  END
