
     RDKit          3D

 21 22  0  0  0  0  0  0  0  0999 V2000
    3.7286    0.8923   -0.6559 C   0  0  0  0  0  0  0  0  0  0  0  0
    2.8546    0.3689   -0.0022 C   0  0  0  0  0  0  0  0  0  0  0  0
    1.7650   -0.2593    0.7864 C   0  0  0  0  0  0  0  0  0  0  0  0
    0.6056    0.4977    0.9929 C   0  0  0  0  0  0  0  0  0  0  0  0
   -0.4132    1.1107    0.1121 C   0  0  0  0  0  0  0  0  0  0  0  0
   -1.4858    0.0066    0.2396 C   0  0  0  0  0  0  0  0  0  0  0  0
   -2.2816   -0.1254   -1.0167 C   0  0  0  0  0  0  0  0  0  0  0  0
   -0.6828   -1.2775    0.5339 C   0  0  0  0  0  0  0  0  0  0  0  0
    0.6665   -0.8300    0.1294 C   0  0  0  0  0  0  0  0  0  0  0  0
    4.4852    1.3508   -1.2427 H   0  0  0  0  0  0  0  0  0  0  0  0
    2.2247   -0.8344    1.6389 H   0  0  0  0  0  0  0  0  0  0  0  0
    0.1344    0.3754    2.0206 H   0  0  0  0  0  0  0  0  0  0  0  0
   -0.8424    2.0539    0.4723 H   0  0  0  0  0  0  0  0  0  0  0  0
   -0.0246    1.1601   -0.9143 H   0  0  0  0  0  0  0  0  0  0  0  0
   -2.0897    0.2561    1.1352 H   0  0  0  0  0  0  0  0  0  0  0  0
   -1.5969   -0.0508   -1.8832 H   0  0  0  0  0  0  0  0  0  0  0  0
   -3.0184    0.6877   -1.0500 H   0  0  0  0  0  0  0  0  0  0  0  0
   -2.8332   -1.0738   -0.9824 H   0  0  0  0  0  0  0  0  0  0  0  0
   -0.7835   -1.5729    1.5861 H   0  0  0  0  0  0  0  0  0  0  0  0
   -1.0734   -2.0614   -0.1580 H   0  0  0  0  0  0  0  0  0  0  0  0
    0.6610   -0.6745   -0.9948 H   0  0  0  0  0  0  0  0  0  0  0  0
  1  2  3  0
  2  3  1  0
  3  4  1  0
  4  5  1  0
  5  6  1  0
  6  7  1  0
  6  8  1  0
  8  9  1  0
  9  3  1  0
  9  4  1  0
  1 10  1  0
  3 11  1  0
  4 12  1  0
  5 13  1  0
  5 14  1  0
  6 15  1  0
  7 16  1  0
  7 17  1  0
  7 18  1  0
  8 19  1  0
  8 20  1  0
  9 21  1  0
M  END
