
     RDKit          3D

 19 20  0  0  0  0  0  0  0  0999 V2000
    0.8320    2.7091    0.1197 C   0  0  0  0  0  0  0  0  0  0  0  0
    0.5236    1.5296    0.0052 C   0  0  0  0  0  0  0  0  0  0  0  0
    0.1783    0.1129   -0.1253 C   0  0  0  0  0  0  0  0  0  0  0  0
   -1.2644   -0.1559   -0.5275 C   0  0  0  0  0  0  0  0  0  0  0  0
   -2.3480    0.3454    0.3800 C   0  0  0  0  0  0  0  0  0  0  0  0
   -2.1044   -1.1054    0.1990 C   0  0  0  0  0  0  0  0  0  0  0  0
    0.5616   -0.6469    1.0699 O   0  0  0  0  0  0  0  0  0  0  0  0
    1.1490   -0.8629   -0.2614 C   0  0  0  0  0  0  0  0  0  0  0  0
    2.6291   -0.5472   -0.2029 C   0  0  0  0  0  0  0  0  0  0  0  0
    1.1089    3.7251    0.2328 H   0  0  0  0  0  0  0  0  0  0  0  0
   -1.4234   -0.0247   -1.6238 H   0  0  0  0  0  0  0  0  0  0  0  0
   -2.0104    0.8296    1.3367 H   0  0  0  0  0  0  0  0  0  0  0  0
   -3.1871    0.8703   -0.1146 H   0  0  0  0  0  0  0  0  0  0  0  0
   -2.8762   -1.6783   -0.3715 H   0  0  0  0  0  0  0  0  0  0  0  0
   -1.7589   -1.6541    1.0929 H   0  0  0  0  0  0  0  0  0  0  0  0
    0.9224   -1.8856   -0.6690 H   0  0  0  0  0  0  0  0  0  0  0  0
    2.8627    0.1993    0.5624 H   0  0  0  0  0  0  0  0  0  0  0  0
    3.0345   -0.2731   -1.1979 H   0  0  0  0  0  0  0  0  0  0  0  0
    3.1707   -1.4872    0.0953 H   0  0  0  0  0  0  0  0  0  0  0  0
  1  2  3  0
  2  3  1  0
  3  4  1  0
  4  5  1  0
  5  6  1  0
  3  7  1  0
  7  8  1  0
  8  9  1  0
  8  3  1  0
  6  4  1  0
  1 10  1  0
  4 11  1  0
  5 12  1  0
  5 13  1  0
  6 14  1  0
  6 15  1  0
  8 16  1  0
  9 17  1  0
  9 18  1  0
  9 19  1  0
M  END
