
     RDKit          3D

 17 17  0  0  0  0  0  0  0  0999 V2000
   -2.2507    2.0659   -0.0614 C   0  0  0  0  0  0  0  0  0  0  0  0
   -1.4272    1.1884    0.0841 C   0  0  0  0  0  0  0  0  0  0  0  0
   -0.4379    0.1078    0.2427 C   0  0  0  0  0  0  0  0  0  0  0  0
   -0.9389   -1.1813   -0.2985 C   0  0  0  0  0  0  0  0  0  0  0  0
    0.1492    0.0010    1.5816 C   0  0  0  0  0  0  0  0  0  0  0  0
   -0.0944   -0.6419    2.6351 O   0  0  0  0  0  0  0  0  0  0  0  0
    1.1110    0.9254    1.2008 O   0  0  0  0  0  0  0  0  0  0  0  0
    0.9310    0.5469   -0.1564 C   0  0  0  0  0  0  0  0  0  0  0  0
    1.8833   -0.4911   -0.6259 C   0  0  0  0  0  0  0  0  0  0  0  0
   -2.9688    2.8289   -0.2065 H   0  0  0  0  0  0  0  0  0  0  0  0
   -1.5217   -1.0366   -1.2353 H   0  0  0  0  0  0  0  0  0  0  0  0
   -1.6707   -1.6166    0.4418 H   0  0  0  0  0  0  0  0  0  0  0  0
   -0.1940   -1.9463   -0.4919 H   0  0  0  0  0  0  0  0  0  0  0  0
    0.9468    1.4315   -0.8349 H   0  0  0  0  0  0  0  0  0  0  0  0
    1.8054   -0.5492   -1.7480 H   0  0  0  0  0  0  0  0  0  0  0  0
    1.7608   -1.4766   -0.1455 H   0  0  0  0  0  0  0  0  0  0  0  0
    2.9168   -0.1563   -0.3818 H   0  0  0  0  0  0  0  0  0  0  0  0
  1  2  3  0
  2  3  1  0
  3  4  1  0
  3  5  1  0
  5  6  2  0
  5  7  1  0
  7  8  1  0
  8  9  1  0
  8  3  1  0
  1 10  1  0
  4 11  1  0
  4 12  1  0
  4 13  1  0
  8 14  1  0
  9 15  1  0
  9 16  1  0
  9 17  1  0
M  END
