
     RDKit          3D

 17 17  0  0  0  0  0  0  0  0999 V2000
    4.6512    0.8063   -1.0469 C   0  0  0  0  0  0  0  0  0  0  0  0
    3.5477    0.4198   -0.7237 C   0  0  0  0  0  0  0  0  0  0  0  0
    2.2670   -0.0535   -0.3377 C   0  0  0  0  0  0  0  0  0  0  0  0
    1.1708   -0.4374   -0.0026 C   0  0  0  0  0  0  0  0  0  0  0  0
   -0.1766   -0.8921    0.4022 C   0  0  0  0  0  0  0  0  0  0  0  0
   -0.9633   -1.3081   -0.6835 O   0  0  0  0  0  0  0  0  0  0  0  0
   -1.2713    0.0560   -0.8751 C   0  0  0  0  0  0  0  0  0  0  0  0
   -1.0581    0.3109    0.6045 C   0  0  0  0  0  0  0  0  0  0  0  0
   -2.3109   -0.0236    1.3657 C   0  0  0  0  0  0  0  0  0  0  0  0
    5.6244    1.1379   -1.3380 H   0  0  0  0  0  0  0  0  0  0  0  0
   -0.1768   -1.5833    1.2677 H   0  0  0  0  0  0  0  0  0  0  0  0
   -2.2921    0.1470   -1.2421 H   0  0  0  0  0  0  0  0  0  0  0  0
   -0.5116    0.5730   -1.5198 H   0  0  0  0  0  0  0  0  0  0  0  0
   -0.5645    1.2537    0.8401 H   0  0  0  0  0  0  0  0  0  0  0  0
   -3.2069    0.4695    0.8877 H   0  0  0  0  0  0  0  0  0  0  0  0
   -2.5083   -1.1096    1.3119 H   0  0  0  0  0  0  0  0  0  0  0  0
   -2.2205    0.2335    2.4340 H   0  0  0  0  0  0  0  0  0  0  0  0
  1  2  3  0
  2  3  1  0
  3  4  3  0
  4  5  1  0
  5  6  1  0
  6  7  1  0
  7  8  1  0
  8  9  1  0
  8  5  1  0
  1 10  1  0
  5 11  1  0
  7 12  1  0
  7 13  1  0
  8 14  1  0
  9 15  1  0
  9 16  1  0
  9 17  1  0
M  END
