
     RDKit          3D

 19 18  0  0  0  0  0  0  0  0999 V2000
    2.5479   -0.0378   -0.1939 C   0  0  0  0  0  0  0  0  0  0  0  0
    1.6291    0.0687    0.2326 C   0  0  0  0  0  0  0  0  0  0  0  0
    0.1745    0.2221    0.9277 C   0  0  0  0  0  0  0  0  0  0  0  0
    0.2566    0.1851    2.2069 O   0  0  0  0  0  0  0  0  0  0  0  0
   -0.6902    1.7472    0.6315 C   0  0  0  0  0  0  0  0  0  0  0  0
   -1.3376    2.9135    0.4267 C   0  0  0  0  0  0  0  0  0  0  0  0
   -0.7115   -0.5521    0.0345 C   0  0  0  0  0  0  0  0  0  0  0  0
   -0.3936   -1.9526   -0.0900 C   0  0  0  0  0  0  0  0  0  0  0  0
   -0.5790    0.1961   -1.3614 C   0  0  0  0  0  0  0  0  0  0  0  0
    3.6456   -0.1851   -0.6964 H   0  0  0  0  0  0  0  0  0  0  0  0
    1.2437    0.2507    2.5254 H   0  0  0  0  0  0  0  0  0  0  0  0
   -1.7114    3.5779    0.3139 H   0  0  0  0  0  0  0  0  0  0  0  0
   -1.7702   -0.3198    0.3292 H   0  0  0  0  0  0  0  0  0  0  0  0
   -1.0077   -2.7129    0.4538 H   0  0  0  0  0  0  0  0  0  0  0  0
    0.7010   -2.0914    0.2879 H   0  0  0  0  0  0  0  0  0  0  0  0
   -0.2519   -2.2649   -1.1797 H   0  0  0  0  0  0  0  0  0  0  0  0
   -0.9728    1.1872   -1.2333 H   0  0  0  0  0  0  0  0  0  0  0  0
   -1.2351   -0.4189   -2.0214 H   0  0  0  0  0  0  0  0  0  0  0  0
    0.4624    0.1872   -1.5941 H   0  0  0  0  0  0  0  0  0  0  0  0
  1  2  3  0
  2  3  1  0
  3  4  1  0
  3  5  1  0
  5  6  3  0
  3  7  1  0
  7  8  1  0
  7  9  1  0
  1 10  1  0
  4 11  1  0
  6 12  1  0
  7 13  1  0
  8 14  1  0
  8 15  1  0
  8 16  1  0
  9 17  1  0
  9 18  1  0
  9 19  1  0
M  END
