
     RDKit          3D

 14 16  0  0  0  0  0  0  0  0999 V2000
    3.2783    0.1843    0.4903 C   0  0  0  0  0  0  0  0  0  0  0  0
    1.7988   -0.3985    0.1141 C   0  0  0  0  0  0  0  0  0  0  0  0
    0.6672   -0.8559   -0.1585 C   0  0  0  0  0  0  0  0  0  0  0  0
   -0.6390   -0.5612    0.1807 C   0  0  0  0  0  0  0  0  0  0  0  0
   -1.2066    0.7760    0.6225 C   0  0  0  0  0  0  0  0  0  0  0  0
   -1.4751    1.8631   -0.2194 O   0  0  0  0  0  0  0  0  0  0  0  0
   -1.6124    0.6218   -0.8542 C   0  0  0  0  0  0  0  0  0  0  0  0
   -0.3159   -0.1357   -1.1400 C   0  0  0  0  0  0  0  0  0  0  0  0
    4.2253    0.5602    0.7249 H   0  0  0  0  0  0  0  0  0  0  0  0
    0.7863   -1.9928   -0.7252 H   0  0  0  0  0  0  0  0  0  0  0  0
   -1.3853   -1.3886    0.2362 H   0  0  0  0  0  0  0  0  0  0  0  0
   -1.9145    0.6412    1.4343 H   0  0  0  0  0  0  0  0  0  0  0  0
   -2.5811    0.0833   -1.0170 H   0  0  0  0  0  0  0  0  0  0  0  0
    0.3740    0.6028   -1.5688 H   0  0  0  0  0  0  0  0  0  0  0  0
  1  2  3  0
  2  3  1  0
  3  4  1  0
  4  5  1  0
  5  6  1  0
  6  7  1  0
  7  8  1  0
  8  3  1  0
  8  4  1  0
  7  5  1  0
  1  9  1  0
  3 10  1  0
  4 11  1  0
  5 12  1  0
  7 13  1  0
  8 14  1  0
M  END
