
     RDKit          3D

 21 21  0  0  0  0  0  0  0  0999 V2000
    3.4161    2.4843   -0.0400 C   0  0  0  0  0  0  0  0  0  0  0  0
    2.7816    1.4842    0.1874 C   0  0  0  0  0  0  0  0  0  0  0  0
    1.9873    0.2670    0.4818 C   0  0  0  0  0  0  0  0  0  0  0  0
    0.5230    0.6355    0.5660 C   0  0  0  0  0  0  0  0  0  0  0  0
   -0.3621   -0.5310    0.8610 C   0  0  0  0  0  0  0  0  0  0  0  0
   -1.8478   -0.1364    0.9431 C   0  0  0  0  0  0  0  0  0  0  0  0
   -1.3284   -1.0811   -0.1042 C   0  0  0  0  0  0  0  0  0  0  0  0
   -1.3237   -0.7028   -1.5484 C   0  0  0  0  0  0  0  0  0  0  0  0
   -1.7672   -2.4067    0.1015 O   0  0  0  0  0  0  0  0  0  0  0  0
    3.9812    3.3600   -0.2565 H   0  0  0  0  0  0  0  0  0  0  0  0
    2.3183   -0.0697    1.4862 H   0  0  0  0  0  0  0  0  0  0  0  0
    2.1500   -0.4835   -0.2948 H   0  0  0  0  0  0  0  0  0  0  0  0
    0.2650    1.1325   -0.3875 H   0  0  0  0  0  0  0  0  0  0  0  0
    0.3509    1.3937    1.3624 H   0  0  0  0  0  0  0  0  0  0  0  0
   -0.0118   -1.2503    1.6539 H   0  0  0  0  0  0  0  0  0  0  0  0
   -2.3870   -0.5310    1.8263 H   0  0  0  0  0  0  0  0  0  0  0  0
   -2.1513    0.8649    0.6390 H   0  0  0  0  0  0  0  0  0  0  0  0
   -0.7680   -1.5181   -2.0935 H   0  0  0  0  0  0  0  0  0  0  0  0
   -0.9302    0.2806   -1.7917 H   0  0  0  0  0  0  0  0  0  0  0  0
   -2.3627   -0.7418   -1.9789 H   0  0  0  0  0  0  0  0  0  0  0  0
   -2.5333   -2.4503    0.7034 H   0  0  0  0  0  0  0  0  0  0  0  0
  1  2  3  0
  2  3  1  0
  3  4  1  0
  4  5  1  0
  5  6  1  0
  6  7  1  0
  7  8  1  0
  7  9  1  0
  7  5  1  0
  1 10  1  0
  3 11  1  0
  3 12  1  0
  4 13  1  0
  4 14  1  0
  5 15  1  0
  6 16  1  0
  6 17  1  0
  8 18  1  0
  8 19  1  0
  8 20  1  0
  9 21  1  0
M  END
