
     RDKit          3D

 19 19  0  0  0  0  0  0  0  0999 V2000
    2.1796   -2.9596   -0.4927 C   0  0  0  0  0  0  0  0  0  0  0  0
    1.6642   -1.8662   -0.4213 C   0  0  0  0  0  0  0  0  0  0  0  0
    1.0221   -0.5512   -0.3506 C   0  0  0  0  0  0  0  0  0  0  0  0
    1.3866    0.0535    0.9813 C   0  0  0  0  0  0  0  0  0  0  0  0
    0.7698    1.2623    1.1797 O   0  0  0  0  0  0  0  0  0  0  0  0
   -0.5566    1.3051    0.8651 C   0  0  0  0  0  0  0  0  0  0  0  0
   -0.8636    0.6405   -0.4468 C   0  0  0  0  0  0  0  0  0  0  0  0
   -2.3383    0.6691   -0.7375 C   0  0  0  0  0  0  0  0  0  0  0  0
   -0.3861   -0.6726   -0.3648 O   0  0  0  0  0  0  0  0  0  0  0  0
    2.6180   -3.9330   -0.5575 H   0  0  0  0  0  0  0  0  0  0  0  0
    1.3114    0.0921   -1.1880 H   0  0  0  0  0  0  0  0  0  0  0  0
    2.4823    0.1877    1.0148 H   0  0  0  0  0  0  0  0  0  0  0  0
    1.1289   -0.6711    1.7794 H   0  0  0  0  0  0  0  0  0  0  0  0
   -1.2363    0.8730    1.6215 H   0  0  0  0  0  0  0  0  0  0  0  0
   -0.8430    2.3898    0.7535 H   0  0  0  0  0  0  0  0  0  0  0  0
   -0.3020    1.1250   -1.2742 H   0  0  0  0  0  0  0  0  0  0  0  0
   -2.4929    0.8441   -1.8259 H   0  0  0  0  0  0  0  0  0  0  0  0
   -2.7671   -0.3018   -0.4560 H   0  0  0  0  0  0  0  0  0  0  0  0
   -2.7768    1.5132   -0.1432 H   0  0  0  0  0  0  0  0  0  0  0  0
  1  2  3  0
  2  3  1  0
  3  4  1  0
  4  5  1  0
  5  6  1  0
  6  7  1  0
  7  8  1  0
  7  9  1  0
  9  3  1  0
  1 10  1  0
  3 11  1  0
  4 12  1  0
  4 13  1  0
  6 14  1  0
  6 15  1  0
  7 16  1  0
  8 17  1  0
  8 18  1  0
  8 19  1  0
M  END
