
     RDKit          3D

 19 20  0  0  0  0  0  0  0  0999 V2000
    2.5190    0.5947   -1.2796 C   0  0  0  0  0  0  0  0  0  0  0  0
    1.7710    0.4041   -0.3564 C   0  0  0  0  0  0  0  0  0  0  0  0
    0.8627    0.1469    0.7794 C   0  0  0  0  0  0  0  0  0  0  0  0
    0.3396   -1.2961    0.6422 C   0  0  0  0  0  0  0  0  0  0  0  0
   -1.1341   -1.3705    0.9571 C   0  0  0  0  0  0  0  0  0  0  0  0
   -1.9233   -0.5807    0.0885 O   0  0  0  0  0  0  0  0  0  0  0  0
   -1.0939    0.2610   -0.5534 C   0  0  0  0  0  0  0  0  0  0  0  0
   -0.8966    1.6683   -0.4873 C   0  0  0  0  0  0  0  0  0  0  0  0
   -0.3469    0.9774    0.6244 C   0  0  0  0  0  0  0  0  0  0  0  0
    3.1875    0.7829   -2.0990 H   0  0  0  0  0  0  0  0  0  0  0  0
    1.3456    0.3171    1.7416 H   0  0  0  0  0  0  0  0  0  0  0  0
    0.6067   -1.7413   -0.3158 H   0  0  0  0  0  0  0  0  0  0  0  0
    0.8527   -1.8625    1.4455 H   0  0  0  0  0  0  0  0  0  0  0  0
   -1.3302   -1.1653    2.0073 H   0  0  0  0  0  0  0  0  0  0  0  0
   -1.4432   -2.4164    0.7524 H   0  0  0  0  0  0  0  0  0  0  0  0
   -0.4482   -0.2959   -1.2928 H   0  0  0  0  0  0  0  0  0  0  0  0
   -0.2049    2.1486   -1.2270 H   0  0  0  0  0  0  0  0  0  0  0  0
   -1.7522    2.3797   -0.2904 H   0  0  0  0  0  0  0  0  0  0  0  0
   -0.9112    1.0481    1.6019 H   0  0  0  0  0  0  0  0  0  0  0  0
  1  2  3  0
  2  3  1  0
  3  4  1  0
  4  5  1  0
  5  6  1  0
  6  7  1  0
  7  8  1  0
  8  9  1  0
  9  3  1  0
  9  7  1  0
  1 10  1  0
  3 11  1  0
  4 12  1  0
  4 13  1  0
  5 14  1  0
  5 15  1  0
  7 16  1  0
  8 17  1  0
  8 18  1  0
  9 19  1  0
M  END
