
     RDKit          3D

 15 14  0  0  0  0  0  0  0  0999 V2000
   -3.4524    1.1165    0.4457 C   0  0  0  0  0  0  0  0  0  0  0  0
   -2.5312    0.3594    0.0526 C   0  0  0  0  0  0  0  0  0  0  0  0
   -1.2397   -0.6877   -0.5204 C   0  0  0  0  0  0  0  0  0  0  0  0
   -0.8490   -1.1774    0.6951 O   0  0  0  0  0  0  0  0  0  0  0  0
   -0.2196   -0.4392    1.7811 C   0  0  0  0  0  0  0  0  0  0  0  0
    1.2570   -0.1474    0.6808 C   0  0  0  0  0  0  0  0  0  0  0  0
    2.1038    0.0166    0.0274 C   0  0  0  0  0  0  0  0  0  0  0  0
    3.1187    0.2127   -0.7854 C   0  0  0  0  0  0  0  0  0  0  0  0
    4.3393    0.4040    0.3130 O   0  0  0  0  0  0  0  0  0  0  0  0
   -4.0623    1.6314    0.7194 H   0  0  0  0  0  0  0  0  0  0  0  0
   -0.5999    0.1291   -0.8371 H   0  0  0  0  0  0  0  0  0  0  0  0
   -1.7588   -1.2657   -1.1878 H   0  0  0  0  0  0  0  0  0  0  0  0
   -0.3898    0.5654    1.7959 H   0  0  0  0  0  0  0  0  0  0  0  0
    0.3570   -1.0869    2.3168 H   0  0  0  0  0  0  0  0  0  0  0  0
    3.9268    0.3691   -1.4451 H   0  0  0  0  0  0  0  0  0  0  0  0
  1  2  3  0
  2  3  1  0
  3  4  1  0
  4  5  1  0
  5  6  1  0
  6  7  3  0
  7  8  1  0
  8  9  2  0
  1 10  1  0
  3 11  1  0
  3 12  1  0
  5 13  1  0
  5 14  1  0
  8 15  1  0
M  END
