
     RDKit          3D

 13 12  0  0  0  0  0  0  0  0999 V2000
   -2.7141    0.9172    0.0690 C   0  0  0  0  0  0  0  0  0  0  0  0
   -1.6511    0.3800   -0.6255 C   0  0  0  0  0  0  0  0  0  0  0  0
   -0.5871   -0.1443   -1.3275 C   0  0  0  0  0  0  0  0  0  0  0  0
    0.1760   -1.0355   -0.7536 O   0  0  0  0  0  0  0  0  0  0  0  0
    0.7868   -1.0008    0.4269 C   0  0  0  0  0  0  0  0  0  0  0  0
    1.6589    0.0381    0.7175 C   0  0  0  0  0  0  0  0  0  0  0  0
    2.4639    1.0106    1.0094 C   0  0  0  0  0  0  0  0  0  0  0  0
   -3.4722    1.2997    0.5741 H   0  0  0  0  0  0  0  0  0  0  0  0
   -1.1717   -0.7654   -2.2052 H   0  0  0  0  0  0  0  0  0  0  0  0
   -0.0777    0.5973   -2.0160 H   0  0  0  0  0  0  0  0  0  0  0  0
    0.0359   -1.1808    1.2766 H   0  0  0  0  0  0  0  0  0  0  0  0
    1.3884   -2.0020    0.5360 H   0  0  0  0  0  0  0  0  0  0  0  0
    3.1641    1.8860    1.2610 H   0  0  0  0  0  0  0  0  0  0  0  0
  1  2  3  0
  2  3  1  0
  3  4  1  0
  4  5  1  0
  5  6  1  0
  6  7  3  0
  1  8  1  0
  3  9  1  0
  3 10  1  0
  5 11  1  0
  5 12  1  0
  7 13  1  0
M  END
