
     RDKit          3D

 23 22  0  0  0  0  0  0  0  0999 V2000
   -0.9934    0.8436    2.8297 C   0  0  0  0  0  0  0  0  0  0  0  0
   -0.9197    0.3170    1.7223 C   0  0  0  0  0  0  0  0  0  0  0  0
   -0.8148   -0.3173    0.3998 C   0  0  0  0  0  0  0  0  0  0  0  0
   -1.6162    0.5076   -0.5617 C   0  0  0  0  0  0  0  0  0  0  0  0
    0.6525   -0.3175   -0.0011 C   0  0  0  0  0  0  0  0  0  0  0  0
    1.1992    1.0907   -0.0716 C   0  0  0  0  0  0  0  0  0  0  0  0
    2.6564    1.0733   -0.4688 C   0  0  0  0  0  0  0  0  0  0  0  0
   -1.3089   -1.5918    0.4857 O   0  0  0  0  0  0  0  0  0  0  0  0
   -1.2836   -2.3204   -0.6655 C   0  0  0  0  0  0  0  0  0  0  0  0
   -1.0460    1.3078    3.7706 H   0  0  0  0  0  0  0  0  0  0  0  0
   -1.5447    1.6047   -0.3139 H   0  0  0  0  0  0  0  0  0  0  0  0
   -2.6867    0.2649   -0.5819 H   0  0  0  0  0  0  0  0  0  0  0  0
   -1.2530    0.3692   -1.6205 H   0  0  0  0  0  0  0  0  0  0  0  0
    1.2632   -0.8759    0.7214 H   0  0  0  0  0  0  0  0  0  0  0  0
    0.8050   -0.7720   -0.9966 H   0  0  0  0  0  0  0  0  0  0  0  0
    1.1071    1.6127    0.9097 H   0  0  0  0  0  0  0  0  0  0  0  0
    0.6575    1.7055   -0.8207 H   0  0  0  0  0  0  0  0  0  0  0  0
    3.1685    1.9712   -0.0732 H   0  0  0  0  0  0  0  0  0  0  0  0
    3.1165    0.1655   -0.0234 H   0  0  0  0  0  0  0  0  0  0  0  0
    2.7527    1.0115   -1.5759 H   0  0  0  0  0  0  0  0  0  0  0  0
   -0.2876   -2.4868   -1.1135 H   0  0  0  0  0  0  0  0  0  0  0  0
   -1.8952   -1.8479   -1.4871 H   0  0  0  0  0  0  0  0  0  0  0  0
   -1.7289   -3.3154   -0.4640 H   0  0  0  0  0  0  0  0  0  0  0  0
  1  2  3  0
  2  3  1  0
  3  4  1  0
  3  5  1  0
  5  6  1  0
  6  7  1  0
  3  8  1  0
  8  9  1  0
  1 10  1  0
  4 11  1  0
  4 12  1  0
  4 13  1  0
  5 14  1  0
  5 15  1  0
  6 16  1  0
  6 17  1  0
  7 18  1  0
  7 19  1  0
  7 20  1  0
  9 21  1  0
  9 22  1  0
  9 23  1  0
M  END
