
     RDKit          3D

 15 16  0  0  0  0  0  0  0  0999 V2000
    3.1910   -0.7145   -0.3875 C   0  0  0  0  0  0  0  0  0  0  0  0
    2.0245   -0.4523   -0.3947 C   0  0  0  0  0  0  0  0  0  0  0  0
    0.7130   -0.1580   -0.3793 C   0  0  0  0  0  0  0  0  0  0  0  0
   -0.3699   -0.9750    0.2185 C   0  0  0  0  0  0  0  0  0  0  0  0
   -0.9977    0.2127   -0.4402 C   0  0  0  0  0  0  0  0  0  0  0  0
   -2.3082    0.5103   -0.5942 C   0  0  0  0  0  0  0  0  0  0  0  0
   -2.8679    0.6270   -1.7005 O   0  0  0  0  0  0  0  0  0  0  0  0
    0.0840    1.0529    0.1809 C   0  0  0  0  0  0  0  0  0  0  0  0
   -0.0886   -0.0052   -1.4954 O   0  0  0  0  0  0  0  0  0  0  0  0
    4.2469   -0.9552   -0.3994 H   0  0  0  0  0  0  0  0  0  0  0  0
   -0.6171   -1.9271   -0.2609 H   0  0  0  0  0  0  0  0  0  0  0  0
   -0.3403   -0.9637    1.3284 H   0  0  0  0  0  0  0  0  0  0  0  0
   -2.9929    0.6750    0.2389 H   0  0  0  0  0  0  0  0  0  0  0  0
    0.2801    2.0187   -0.3071 H   0  0  0  0  0  0  0  0  0  0  0  0
    0.0430    1.0544    1.2887 H   0  0  0  0  0  0  0  0  0  0  0  0
  1  2  3  0
  2  3  1  0
  3  4  1  0
  4  5  1  0
  5  6  1  0
  6  7  2  0
  5  8  1  0
  5  9  1  0
  8  3  1  0
  9  3  1  0
  1 10  1  0
  4 11  1  0
  4 12  1  0
  6 13  1  0
  8 14  1  0
  8 15  1  0
M  END
