
     RDKit          3D

 15 17  0  0  0  0  0  0  0  0999 V2000
    2.9865   -0.6731    1.5607 C   0  0  0  0  0  0  0  0  0  0  0  0
    1.8922   -0.4706    1.0588 C   0  0  0  0  0  0  0  0  0  0  0  0
    0.6036   -0.2476    0.4734 C   0  0  0  0  0  0  0  0  0  0  0  0
   -0.5949   -0.3997    1.0597 C   0  0  0  0  0  0  0  0  0  0  0  0
   -1.5444   -0.0417    0.0019 C   0  0  0  0  0  0  0  0  0  0  0  0
   -0.9137    1.0943   -0.7197 C   0  0  0  0  0  0  0  0  0  0  0  0
   -1.3920    0.5609   -1.8947 O   0  0  0  0  0  0  0  0  0  0  0  0
   -0.9416   -0.5822   -1.2438 C   0  0  0  0  0  0  0  0  0  0  0  0
    0.2696    0.1936   -0.8842 C   0  0  0  0  0  0  0  0  0  0  0  0
    3.9338   -0.8301    1.9901 H   0  0  0  0  0  0  0  0  0  0  0  0
   -0.8415   -0.7090    2.0643 H   0  0  0  0  0  0  0  0  0  0  0  0
   -2.5914   -0.0775    0.1713 H   0  0  0  0  0  0  0  0  0  0  0  0
   -0.8965    2.0691   -0.4465 H   0  0  0  0  0  0  0  0  0  0  0  0
   -0.9944   -1.5268   -1.5991 H   0  0  0  0  0  0  0  0  0  0  0  0
    1.0247    0.4144   -1.5921 H   0  0  0  0  0  0  0  0  0  0  0  0
  1  2  3  0
  2  3  1  0
  3  4  2  0
  4  5  1  0
  5  6  1  0
  6  7  1  0
  7  8  1  0
  8  9  1  0
  9  3  1  0
  8  5  1  0
  9  6  1  0
  1 10  1  0
  4 11  1  0
  5 12  1  0
  6 13  1  0
  8 14  1  0
  9 15  1  0
M  END
