
     RDKit          3D

 19 19  0  0  0  0  0  0  0  0999 V2000
    2.7441    2.6143   -1.0224 C   0  0  0  0  0  0  0  0  0  0  0  0
    1.9766    1.6733   -0.4352 C   0  0  0  0  0  0  0  0  0  0  0  0
    1.2785    0.7886    0.1241 C   0  0  0  0  0  0  0  0  0  0  0  0
    0.6413   -0.5053   -0.3801 C   0  0  0  0  0  0  0  0  0  0  0  0
    0.0533   -1.3574    0.6662 C   0  0  0  0  0  0  0  0  0  0  0  0
   -1.5208   -1.1577    0.0199 C   0  0  0  0  0  0  0  0  0  0  0  0
   -2.0104   -0.6328    0.6735 C   0  0  0  0  0  0  0  0  0  0  0  0
   -2.7114    0.1071    1.6004 C   0  0  0  0  0  0  0  0  0  0  0  0
   -0.5572   -0.4814   -1.1926 C   0  0  0  0  0  0  0  0  0  0  0  0
    3.3211    3.3362   -1.4686 H   0  0  0  0  0  0  0  0  0  0  0  0
    1.4641    0.6002    1.2290 H   0  0  0  0  0  0  0  0  0  0  0  0
    0.1739    1.4194    0.3058 H   0  0  0  0  0  0  0  0  0  0  0  0
    1.4697   -1.1117   -0.9190 H   0  0  0  0  0  0  0  0  0  0  0  0
    0.3820   -2.3315    0.7930 H   0  0  0  0  0  0  0  0  0  0  0  0
   -0.0255   -0.7868    1.6595 H   0  0  0  0  0  0  0  0  0  0  0  0
   -1.7623   -2.1741   -0.5232 H   0  0  0  0  0  0  0  0  0  0  0  0
   -3.4338    0.8835    2.5558 H   0  0  0  0  0  0  0  0  0  0  0  0
   -0.4510   -1.3082   -2.0462 H   0  0  0  0  0  0  0  0  0  0  0  0
   -1.0323    0.4241   -1.4837 H   0  0  0  0  0  0  0  0  0  0  0  0
  1  2  3  0
  2  3  1  0
  3  4  1  0
  4  5  1  0
  5  6  1  0
  6  7  1  0
  7  8  3  0
  6  9  1  0
  9  4  1  0
  1 10  1  0
  3 11  1  0
  3 12  1  0
  4 13  1  0
  5 14  1  0
  5 15  1  0
  6 16  1  0
  8 17  1  0
  9 18  1  0
  9 19  1  0
M  END
