
     RDKit          3D

 18 17  0  0  0  0  0  0  0  0999 V2000
    2.5928    1.7990   -0.2091 C   0  0  0  0  0  0  0  0  0  0  0  0
    1.6542    1.2597    0.3425 C   0  0  0  0  0  0  0  0  0  0  0  0
    0.5445    0.6256    0.9895 C   0  0  0  0  0  0  0  0  0  0  0  0
    0.3391    0.7817    2.2082 O   0  0  0  0  0  0  0  0  0  0  0  0
   -0.3538   -0.2228    0.1676 C   0  0  0  0  0  0  0  0  0  0  0  0
   -0.9364    0.6651   -0.9121 C   0  0  0  0  0  0  0  0  0  0  0  0
   -1.4623   -0.8212    1.0076 C   0  0  0  0  0  0  0  0  0  0  0  0
    0.4825   -1.3251   -0.4454 C   0  0  0  0  0  0  0  0  0  0  0  0
    3.4175    2.2765   -0.6921 H   0  0  0  0  0  0  0  0  0  0  0  0
   -0.2122    1.4713   -1.1330 H   0  0  0  0  0  0  0  0  0  0  0  0
   -1.8745    1.0910   -0.5452 H   0  0  0  0  0  0  0  0  0  0  0  0
   -1.0584    0.0771   -1.8431 H   0  0  0  0  0  0  0  0  0  0  0  0
   -1.6201   -0.1361    1.8593 H   0  0  0  0  0  0  0  0  0  0  0  0
   -1.1841   -1.8204    1.3823 H   0  0  0  0  0  0  0  0  0  0  0  0
   -2.4165   -0.8736    0.4258 H   0  0  0  0  0  0  0  0  0  0  0  0
    0.5298   -2.1804    0.2749 H   0  0  0  0  0  0  0  0  0  0  0  0
    0.0485   -1.7253   -1.3690 H   0  0  0  0  0  0  0  0  0  0  0  0
    1.5095   -0.9422   -0.5658 H   0  0  0  0  0  0  0  0  0  0  0  0
  1  2  3  0
  2  3  1  0
  3  4  2  0
  3  5  1  0
  5  6  1  0
  5  7  1  0
  5  8  1  0
  1  9  1  0
  6 10  1  0
  6 11  1  0
  6 12  1  0
  7 13  1  0
  7 14  1  0
  7 15  1  0
  8 16  1  0
  8 17  1  0
  8 18  1  0
M  END
