
     RDKit          3D

 16 17  0  0  0  0  0  0  0  0999 V2000
    3.1067   -0.9696   -0.2643 C   0  0  0  0  0  0  0  0  0  0  0  0
    2.0657   -0.5193    0.1100 C   0  0  0  0  0  0  0  0  0  0  0  0
    0.8282    0.0355    0.5759 C   0  0  0  0  0  0  0  0  0  0  0  0
    0.3506    1.2062   -0.3127 C   0  0  0  0  0  0  0  0  0  0  0  0
   -0.9499    0.8149    0.3970 C   0  0  0  0  0  0  0  0  0  0  0  0
   -1.7768   -0.2987    0.1442 C   0  0  0  0  0  0  0  0  0  0  0  0
   -2.7042   -0.1792   -0.9228 O   0  0  0  0  0  0  0  0  0  0  0  0
   -0.4070   -0.5999   -0.0840 C   0  0  0  0  0  0  0  0  0  0  0  0
    4.0498   -1.3590   -0.5933 H   0  0  0  0  0  0  0  0  0  0  0  0
    0.7329    0.2226    1.6422 H   0  0  0  0  0  0  0  0  0  0  0  0
    0.3988    0.9356   -1.3634 H   0  0  0  0  0  0  0  0  0  0  0  0
    0.7229    2.1827   -0.0063 H   0  0  0  0  0  0  0  0  0  0  0  0
   -0.7544    1.0124    1.5017 H   0  0  0  0  0  0  0  0  0  0  0  0
   -2.2778   -0.8589    0.9903 H   0  0  0  0  0  0  0  0  0  0  0  0
   -3.2347   -0.9855   -1.0352 H   0  0  0  0  0  0  0  0  0  0  0  0
   -0.1507   -0.6398   -1.1925 H   0  0  0  0  0  0  0  0  0  0  0  0
  1  2  3  0
  2  3  1  0
  3  4  1  0
  4  5  1  0
  5  6  1  0
  6  7  1  0
  6  8  1  0
  8  3  1  0
  8  5  1  0
  1  9  1  0
  3 10  1  0
  4 11  1  0
  4 12  1  0
  5 13  1  0
  6 14  1  0
  7 15  1  0
  8 16  1  0
M  END
