
     RDKit          3D

 18 18  0  0  0  0  0  0  0  0999 V2000
    2.5349   -1.2493    0.1300 C   0  0  0  0  0  0  0  0  0  0  0  0
    1.4949   -0.9188   -0.2613 C   0  0  0  0  0  0  0  0  0  0  0  0
    0.3457   -0.5568   -0.6695 C   0  0  0  0  0  0  0  0  0  0  0  0
    0.4443    1.0916   -0.8844 C   0  0  0  0  0  0  0  0  0  0  0  0
   -0.9331    1.0710   -0.2592 C   0  0  0  0  0  0  0  0  0  0  0  0
   -1.1807    2.2864    0.4854 O   0  0  0  0  0  0  0  0  0  0  0  0
   -0.4331   -0.0053    0.6288 C   0  0  0  0  0  0  0  0  0  0  0  0
   -1.2604   -1.0644    1.1621 C   0  0  0  0  0  0  0  0  0  0  0  0
    4.1345   -1.7901    0.7267 H   0  0  0  0  0  0  0  0  0  0  0  0
   -0.3207   -0.9184   -1.3829 H   0  0  0  0  0  0  0  0  0  0  0  0
    0.5610    1.3917   -1.9094 H   0  0  0  0  0  0  0  0  0  0  0  0
    1.2378    1.4736   -0.1543 H   0  0  0  0  0  0  0  0  0  0  0  0
   -1.7317    0.7974   -0.9256 H   0  0  0  0  0  0  0  0  0  0  0  0
   -0.7500    2.0594    1.3733 H   0  0  0  0  0  0  0  0  0  0  0  0
    0.3663    0.3717    1.3303 H   0  0  0  0  0  0  0  0  0  0  0  0
   -2.2189   -0.6732    1.6314 H   0  0  0  0  0  0  0  0  0  0  0  0
   -0.6955   -1.5686    1.9999 H   0  0  0  0  0  0  0  0  0  0  0  0
   -1.5952   -1.7980    0.3815 H   0  0  0  0  0  0  0  0  0  0  0  0
  1  2  3  0
  2  3  1  0
  3  4  1  0
  4  5  1  0
  5  6  1  0
  5  7  1  0
  7  8  1  0
  7  3  1  0
  1  9  1  0
  3 10  1  0
  4 11  1  0
  4 12  1  0
  5 13  1  0
  6 14  1  0
  7 15  1  0
  8 16  1  0
  8 17  1  0
  8 18  1  0
M  END
