
     RDKit          3D

 19 18  0  0  0  0  0  0  0  0999 V2000
   -2.1803    0.2884    1.5038 C   0  0  0  0  0  0  0  0  0  0  0  0
   -2.2459   -0.2125    0.7490 C   0  0  0  0  0  0  0  0  0  0  0  0
   -2.3368   -0.7899   -0.1328 C   0  0  0  0  0  0  0  0  0  0  0  0
   -0.6483   -1.2733   -0.3844 C   0  0  0  0  0  0  0  0  0  0  0  0
    0.1234   -0.3513   -0.4042 O   0  0  0  0  0  0  0  0  0  0  0  0
    0.9070    0.5850   -0.4244 C   0  0  0  0  0  0  0  0  0  0  0  0
    2.1973    0.1719    0.4063 C   0  0  0  0  0  0  0  0  0  0  0  0
    1.3646    1.4914   -1.5303 C   0  0  0  0  0  0  0  0  0  0  0  0
    0.8961    1.7842   -2.4936 O   0  0  0  0  0  0  0  0  0  0  0  0
   -2.0154    1.3085    3.0422 H   0  0  0  0  0  0  0  0  0  0  0  0
   -2.4364   -0.6388   -1.2582 H   0  0  0  0  0  0  0  0  0  0  0  0
   -2.5297   -2.0537   -0.0179 H   0  0  0  0  0  0  0  0  0  0  0  0
   -0.5686   -1.7822    0.6855 H   0  0  0  0  0  0  0  0  0  0  0  0
   -0.6832   -2.1320   -1.0009 H   0  0  0  0  0  0  0  0  0  0  0  0
    0.5248    1.4436    0.3486 H   0  0  0  0  0  0  0  0  0  0  0  0
    1.8546    0.2631    1.5295 H   0  0  0  0  0  0  0  0  0  0  0  0
    2.2961   -0.9084    0.2450 H   0  0  0  0  0  0  0  0  0  0  0  0
    3.0127    0.8399    0.3051 H   0  0  0  0  0  0  0  0  0  0  0  0
    2.4679    1.9662   -1.2699 H   0  0  0  0  0  0  0  0  0  0  0  0
  1  2  3  0
  2  3  1  0
  3  4  1  0
  4  5  1  0
  5  6  1  0
  6  7  1  0
  6  8  1  0
  8  9  2  0
  1 10  1  0
  3 11  1  0
  3 12  1  0
  4 13  1  0
  4 14  1  0
  6 15  1  0
  7 16  1  0
  7 17  1  0
  7 18  1  0
  8 19  1  0
M  END
