
     RDKit          3D

 15 16  0  0  0  0  0  0  0  0999 V2000
    2.5517    0.3666    0.5407 C   0  0  0  0  0  0  0  0  0  0  0  0
    1.4480   -0.1254    0.4211 C   0  0  0  0  0  0  0  0  0  0  0  0
    0.0989   -0.7505    0.2594 C   0  0  0  0  0  0  0  0  0  0  0  0
   -0.0353   -1.4602   -0.9401 C   0  0  0  0  0  0  0  0  0  0  0  0
   -0.7548   -0.2673   -0.9504 C   0  0  0  0  0  0  0  0  0  0  0  0
   -0.7166    1.1156   -0.6260 C   0  0  0  0  0  0  0  0  0  0  0  0
   -0.7635    1.2789    0.6858 C   0  0  0  0  0  0  0  0  0  0  0  0
   -0.8183   -0.1069    1.2112 C   0  0  0  0  0  0  0  0  0  0  0  0
   -1.4893   -0.4731    2.1840 O   0  0  0  0  0  0  0  0  0  0  0  0
    3.4994    0.7958    0.6560 H   0  0  0  0  0  0  0  0  0  0  0  0
   -0.5241   -2.4677   -0.8782 H   0  0  0  0  0  0  0  0  0  0  0  0
    0.8435   -1.5558   -1.6397 H   0  0  0  0  0  0  0  0  0  0  0  0
   -1.8948   -0.5231   -0.8898 H   0  0  0  0  0  0  0  0  0  0  0  0
   -0.6568    1.9496   -1.3073 H   0  0  0  0  0  0  0  0  0  0  0  0
   -0.7880    2.2233    1.2734 H   0  0  0  0  0  0  0  0  0  0  0  0
  1  2  3  0
  2  3  1  0
  3  4  1  0
  4  5  1  0
  5  6  1  0
  6  7  2  0
  7  8  1  0
  8  9  2  0
  5  3  1  0
  8  3  1  0
  1 10  1  0
  4 11  1  0
  4 12  1  0
  5 13  1  0
  6 14  1  0
  7 15  1  0
M  END
