
     RDKit          3D

 17 19  0  0  0  0  0  0  0  0999 V2000
    2.7265   -1.2449   -1.3260 C   0  0  0  0  0  0  0  0  0  0  0  0
    1.9442   -1.0430   -0.8798 C   0  0  0  0  0  0  0  0  0  0  0  0
    0.7528   -0.7389   -0.2192 C   0  0  0  0  0  0  0  0  0  0  0  0
   -0.5461   -0.7694   -0.0655 C   0  0  0  0  0  0  0  0  0  0  0  0
   -0.7640    0.5316   -0.7461 C   0  0  0  0  0  0  0  0  0  0  0  0
   -1.9461    0.9938   -0.0678 C   0  0  0  0  0  0  0  0  0  0  0  0
   -1.6030    0.9358    1.2631 C   0  0  0  0  0  0  0  0  0  0  0  0
   -0.2994    0.2507    1.1624 C   0  0  0  0  0  0  0  0  0  0  0  0
    0.4312    0.7613    0.0284 C   0  0  0  0  0  0  0  0  0  0  0  0
    3.9757   -1.5826   -2.0495 H   0  0  0  0  0  0  0  0  0  0  0  0
    1.2617   -1.0160    1.0123 H   0  0  0  0  0  0  0  0  0  0  0  0
   -1.2779   -1.4919    0.1546 H   0  0  0  0  0  0  0  0  0  0  0  0
   -0.8072    0.5131   -1.8494 H   0  0  0  0  0  0  0  0  0  0  0  0
   -2.9554    1.2467   -0.4333 H   0  0  0  0  0  0  0  0  0  0  0  0
   -2.1158    1.3302    2.1068 H   0  0  0  0  0  0  0  0  0  0  0  0
    0.1059   -0.2023    2.0427 H   0  0  0  0  0  0  0  0  0  0  0  0
    1.1167    1.5257   -0.1338 H   0  0  0  0  0  0  0  0  0  0  0  0
  1  2  3  0
  2  3  1  0
  3  4  1  0
  4  5  1  0
  5  6  1  0
  6  7  2  0
  7  8  1  0
  8  9  1  0
  9  3  1  0
  8  4  1  0
  9  5  1  0
  1 10  1  0
  3 11  1  0
  4 12  1  0
  5 13  1  0
  6 14  1  0
  7 15  1  0
  8 16  1  0
  9 17  1  0
M  END
