
     RDKit          3D

 18 17  0  0  0  0  0  0  0  0999 V2000
   -2.2233   -1.4191    3.3921 C   0  0  0  0  0  0  0  0  0  0  0  0
   -1.5588   -0.7200    2.6427 C   0  0  0  0  0  0  0  0  0  0  0  0
   -0.7473    0.1119    1.7644 C   0  0  0  0  0  0  0  0  0  0  0  0
   -0.8376   -0.3551    0.3091 C   0  0  0  0  0  0  0  0  0  0  0  0
    0.0069    0.5087   -0.5573 C   0  0  0  0  0  0  0  0  0  0  0  0
   -0.1467    1.7132   -0.6051 O   0  0  0  0  0  0  0  0  0  0  0  0
    1.0709   -0.1069   -1.3877 C   0  0  0  0  0  0  0  0  0  0  0  0
    1.8134    0.9403   -2.1578 C   0  0  0  0  0  0  0  0  0  0  0  0
   -2.7932   -2.0414    4.0484 H   0  0  0  0  0  0  0  0  0  0  0  0
   -0.9697    1.1849    1.8391 H   0  0  0  0  0  0  0  0  0  0  0  0
    0.3363   -0.0002    2.0331 H   0  0  0  0  0  0  0  0  0  0  0  0
   -0.5048   -1.4058    0.3032 H   0  0  0  0  0  0  0  0  0  0  0  0
   -1.9046   -0.3642   -0.0469 H   0  0  0  0  0  0  0  0  0  0  0  0
    0.6068   -0.9020   -2.0019 H   0  0  0  0  0  0  0  0  0  0  0  0
    1.7739   -0.6401   -0.6802 H   0  0  0  0  0  0  0  0  0  0  0  0
    1.2071    1.8357   -2.3691 H   0  0  0  0  0  0  0  0  0  0  0  0
    2.1161    0.4675   -3.1223 H   0  0  0  0  0  0  0  0  0  0  0  0
    2.7546    1.1925   -1.5996 H   0  0  0  0  0  0  0  0  0  0  0  0
  1  2  3  0
  2  3  1  0
  3  4  1  0
  4  5  1  0
  5  6  2  0
  5  7  1  0
  7  8  1  0
  1  9  1  0
  3 10  1  0
  3 11  1  0
  4 12  1  0
  4 13  1  0
  7 14  1  0
  7 15  1  0
  8 16  1  0
  8 17  1  0
  8 18  1  0
M  END
