
     RDKit          3D

 13 12  0  0  0  0  0  0  0  0999 V2000
    4.1297   -0.5949    0.8760 C   0  0  0  0  0  0  0  0  0  0  0  0
    2.9743   -0.4310    0.5803 C   0  0  0  0  0  0  0  0  0  0  0  0
    1.6361   -0.2401    0.2126 C   0  0  0  0  0  0  0  0  0  0  0  0
    0.4617   -0.0762   -0.1311 C   0  0  0  0  0  0  0  0  0  0  0  0
   -0.9394    0.1393   -0.5559 C   0  0  0  0  0  0  0  0  0  0  0  0
   -1.7687   -0.9792   -0.2638 C   0  0  0  0  0  0  0  0  0  0  0  0
   -2.4667   -1.9434   -0.0308 C   0  0  0  0  0  0  0  0  0  0  0  0
   -1.3885    1.4457   -0.2430 C   0  0  0  0  0  0  0  0  0  0  0  0
   -1.7548    2.5384   -0.0012 C   0  0  0  0  0  0  0  0  0  0  0  0
    5.1693   -0.7262    1.1517 H   0  0  0  0  0  0  0  0  0  0  0  0
   -0.8540    0.0993   -1.7620 H   0  0  0  0  0  0  0  0  0  0  0  0
   -3.0889   -2.7832    0.1846 H   0  0  0  0  0  0  0  0  0  0  0  0
   -2.1102    3.5514    0.2364 H   0  0  0  0  0  0  0  0  0  0  0  0
  1  2  3  0
  2  3  1  0
  3  4  3  0
  4  5  1  0
  5  6  1  0
  6  7  3  0
  5  8  1  0
  8  9  3  0
  1 10  1  0
  5 11  1  0
  7 12  1  0
  9 13  1  0
M  END
