
     RDKit          3D

 14 16  0  0  0  0  0  0  0  0999 V2000
    1.5659    1.5984   -0.9685 C   0  0  0  0  0  0  0  0  0  0  0  0
    0.6178    1.0365   -0.7827 C   0  0  0  0  0  0  0  0  0  0  0  0
   -0.7391    0.2222   -0.5429 C   0  0  0  0  0  0  0  0  0  0  0  0
   -0.3151   -1.1871   -0.9735 C   0  0  0  0  0  0  0  0  0  0  0  0
   -0.5177   -1.0321    0.4114 C   0  0  0  0  0  0  0  0  0  0  0  0
    0.2760   -0.0207    1.1897 C   0  0  0  0  0  0  0  0  0  0  0  0
   -0.2370    0.9844    1.8898 O   0  0  0  0  0  0  0  0  0  0  0  0
   -1.0324    0.6781    0.8880 C   0  0  0  0  0  0  0  0  0  0  0  0
    2.6178    2.2078   -1.1739 H   0  0  0  0  0  0  0  0  0  0  0  0
    0.8104   -1.4752   -1.1353 H   0  0  0  0  0  0  0  0  0  0  0  0
   -0.9219   -1.7743   -1.6585 H   0  0  0  0  0  0  0  0  0  0  0  0
   -1.4018   -1.3964    0.8821 H   0  0  0  0  0  0  0  0  0  0  0  0
    1.2408    0.1129    0.8093 H   0  0  0  0  0  0  0  0  0  0  0  0
   -1.9637    0.0454    1.1650 H   0  0  0  0  0  0  0  0  0  0  0  0
  1  2  3  0
  2  3  1  0
  3  4  1  0
  4  5  1  0
  5  6  1  0
  6  7  1  0
  7  8  1  0
  5  3  1  0
  8  6  1  0
  8  3  1  0
  1  9  1  0
  4 10  1  0
  4 11  1  0
  5 12  1  0
  6 13  1  0
  8 14  1  0
M  END
