
     RDKit          3D

 19 19  0  0  0  0  0  0  0  0999 V2000
    3.1716   -1.2057    0.1871 C   0  0  0  0  0  0  0  0  0  0  0  0
    2.1402   -0.6310    0.4442 C   0  0  0  0  0  0  0  0  0  0  0  0
    0.8848    0.0638    0.7698 C   0  0  0  0  0  0  0  0  0  0  0  0
   -0.2988   -0.8388    0.9981 C   0  0  0  0  0  0  0  0  0  0  0  0
   -1.1262    0.1781    0.1991 C   0  0  0  0  0  0  0  0  0  0  0  0
   -2.1317   -0.5324   -0.6597 C   0  0  0  0  0  0  0  0  0  0  0  0
    0.1591    0.5608   -0.4896 C   0  0  0  0  0  0  0  0  0  0  0  0
    0.3628    2.0121   -0.7072 C   0  0  0  0  0  0  0  0  0  0  0  0
    0.2160    2.7913    0.2183 O   0  0  0  0  0  0  0  0  0  0  0  0
    4.0900   -1.7072   -0.0576 H   0  0  0  0  0  0  0  0  0  0  0  0
    0.9938    0.8607    1.5045 H   0  0  0  0  0  0  0  0  0  0  0  0
   -0.2311   -1.8099    0.4604 H   0  0  0  0  0  0  0  0  0  0  0  0
   -0.6676   -0.8975    2.0312 H   0  0  0  0  0  0  0  0  0  0  0  0
   -1.4890    1.0028    0.8154 H   0  0  0  0  0  0  0  0  0  0  0  0
   -2.9174    0.1591   -1.0423 H   0  0  0  0  0  0  0  0  0  0  0  0
   -1.5947   -0.9363   -1.5450 H   0  0  0  0  0  0  0  0  0  0  0  0
   -2.6727   -1.3205   -0.0911 H   0  0  0  0  0  0  0  0  0  0  0  0
    0.4694   -0.0888   -1.3334 H   0  0  0  0  0  0  0  0  0  0  0  0
    0.6414    2.3392   -1.7023 H   0  0  0  0  0  0  0  0  0  0  0  0
  1  2  3  0
  2  3  1  0
  3  4  1  0
  4  5  1  0
  5  6  1  0
  5  7  1  0
  7  8  1  0
  8  9  2  0
  7  3  1  0
  1 10  1  0
  3 11  1  0
  4 12  1  0
  4 13  1  0
  5 14  1  0
  6 15  1  0
  6 16  1  0
  6 17  1  0
  7 18  1  0
  8 19  1  0
M  END
