
     RDKit          3D

 19 20  0  0  0  0  0  0  0  0999 V2000
    2.0309   -0.8911   -2.1718 C   0  0  0  0  0  0  0  0  0  0  0  0
    1.5980   -0.1731   -1.3098 C   0  0  0  0  0  0  0  0  0  0  0  0
    1.0970    0.7063   -0.2640 C   0  0  0  0  0  0  0  0  0  0  0  0
   -0.3666    1.0409   -0.4322 C   0  0  0  0  0  0  0  0  0  0  0  0
   -1.1788   -0.1341   -0.8898 C   0  0  0  0  0  0  0  0  0  0  0  0
   -1.0081   -1.2813    0.0789 C   0  0  0  0  0  0  0  0  0  0  0  0
    0.2255   -1.2751    0.6847 O   0  0  0  0  0  0  0  0  0  0  0  0
    0.7037   -0.0340    0.9995 C   0  0  0  0  0  0  0  0  0  0  0  0
   -0.4124    1.0155    1.1048 C   0  0  0  0  0  0  0  0  0  0  0  0
    2.4125   -1.5375   -2.9481 H   0  0  0  0  0  0  0  0  0  0  0  0
    1.6987    1.5783   -0.0217 H   0  0  0  0  0  0  0  0  0  0  0  0
   -0.5971    2.0076   -0.8766 H   0  0  0  0  0  0  0  0  0  0  0  0
   -2.2505    0.1775   -0.8195 H   0  0  0  0  0  0  0  0  0  0  0  0
   -1.0112   -0.4209   -1.9352 H   0  0  0  0  0  0  0  0  0  0  0  0
   -1.7768   -1.2459    0.9043 H   0  0  0  0  0  0  0  0  0  0  0  0
   -1.1908   -2.2153   -0.4796 H   0  0  0  0  0  0  0  0  0  0  0  0
    1.3750    0.0674    1.8493 H   0  0  0  0  0  0  0  0  0  0  0  0
   -1.3439    0.6494    1.5241 H   0  0  0  0  0  0  0  0  0  0  0  0
   -0.0051    1.9654    1.4704 H   0  0  0  0  0  0  0  0  0  0  0  0
  1  2  3  0
  2  3  1  0
  3  4  1  0
  4  5  1  0
  5  6  1  0
  6  7  1  0
  7  8  1  0
  8  9  1  0
  8  3  1  0
  9  4  1  0
  1 10  1  0
  3 11  1  0
  4 12  1  0
  5 13  1  0
  5 14  1  0
  6 15  1  0
  6 16  1  0
  8 17  1  0
  9 18  1  0
  9 19  1  0
M  END
