
     RDKit          3D

 18 18  0  0  0  0  0  0  0  0999 V2000
    2.1746    0.0513   -2.1331 C   0  0  0  0  0  0  0  0  0  0  0  0
    1.2951   -0.1894   -1.1293 C   0  0  0  0  0  0  0  0  0  0  0  0
    0.5688   -0.3933   -0.2700 C   0  0  0  0  0  0  0  0  0  0  0  0
    1.2779   -1.6251    0.5133 O   0  0  0  0  0  0  0  0  0  0  0  0
    0.4072    0.4888    1.0027 C   0  0  0  0  0  0  0  0  0  0  0  0
   -0.8418    1.2318    0.7093 C   0  0  0  0  0  0  0  0  0  0  0  0
   -1.6757    0.2802   -0.1772 C   0  0  0  0  0  0  0  0  0  0  0  0
   -0.8392   -0.9935   -0.2815 C   0  0  0  0  0  0  0  0  0  0  0  0
    3.0013    0.2699   -3.0441 H   0  0  0  0  0  0  0  0  0  0  0  0
    1.6805   -1.0748    1.2818 H   0  0  0  0  0  0  0  0  0  0  0  0
    1.2937    0.9806    1.2963 H   0  0  0  0  0  0  0  0  0  0  0  0
    0.1251   -0.2296    1.8616 H   0  0  0  0  0  0  0  0  0  0  0  0
   -0.6404    2.1886    0.1752 H   0  0  0  0  0  0  0  0  0  0  0  0
   -1.4600    1.4981    1.5806 H   0  0  0  0  0  0  0  0  0  0  0  0
   -2.6384    0.0556    0.2610 H   0  0  0  0  0  0  0  0  0  0  0  0
   -1.7831    0.6913   -1.1838 H   0  0  0  0  0  0  0  0  0  0  0  0
   -0.9631   -1.6393   -1.1245 H   0  0  0  0  0  0  0  0  0  0  0  0
   -0.9823   -1.5911    0.6617 H   0  0  0  0  0  0  0  0  0  0  0  0
  1  2  3  0
  2  3  1  0
  3  4  1  0
  3  5  1  0
  5  6  1  0
  6  7  1  0
  7  8  1  0
  8  3  1  0
  1  9  1  0
  4 10  1  0
  5 11  1  0
  5 12  1  0
  6 13  1  0
  6 14  1  0
  7 15  1  0
  7 16  1  0
  8 17  1  0
  8 18  1  0
M  END
