
     RDKit          3D

 19 20  0  0  0  0  0  0  0  0999 V2000
    1.5550    0.2839    2.6024 C   0  0  0  0  0  0  0  0  0  0  0  0
    0.4949    0.3422    1.4345 C   0  0  0  0  0  0  0  0  0  0  0  0
   -0.1552    0.3937    0.7197 C   0  0  0  0  0  0  0  0  0  0  0  0
   -1.6795    1.1562    1.2637 C   0  0  0  0  0  0  0  0  0  0  0  0
   -0.0537    1.1343   -0.6802 C   0  0  0  0  0  0  0  0  0  0  0  0
    0.7166    0.6009   -1.6751 O   0  0  0  0  0  0  0  0  0  0  0  0
    0.1909   -0.6775   -1.6383 C   0  0  0  0  0  0  0  0  0  0  0  0
    1.1988   -1.7064   -1.2625 C   0  0  0  0  0  0  0  0  0  0  0  0
   -0.7289   -0.2159   -0.5465 C   0  0  0  0  0  0  0  0  0  0  0  0
    2.3130    0.2553    3.4223 H   0  0  0  0  0  0  0  0  0  0  0  0
   -1.2753    1.7463    2.0650 H   0  0  0  0  0  0  0  0  0  0  0  0
   -1.9806    1.6604    0.3703 H   0  0  0  0  0  0  0  0  0  0  0  0
   -2.2593    0.2738    1.5026 H   0  0  0  0  0  0  0  0  0  0  0  0
   -0.5436    2.0388   -0.8936 H   0  0  0  0  0  0  0  0  0  0  0  0
   -0.3793   -0.9876   -2.5390 H   0  0  0  0  0  0  0  0  0  0  0  0
    1.3871   -2.3236   -2.2070 H   0  0  0  0  0  0  0  0  0  0  0  0
    2.1678   -1.2319   -1.0602 H   0  0  0  0  0  0  0  0  0  0  0  0
    0.8176   -2.3934   -0.4748 H   0  0  0  0  0  0  0  0  0  0  0  0
   -1.7862   -0.3494   -0.6972 H   0  0  0  0  0  0  0  0  0  0  0  0
  1  2  3  0
  2  3  1  0
  3  4  1  0
  3  5  1  0
  5  6  1  0
  6  7  1  0
  7  8  1  0
  7  9  1  0
  9  3  1  0
  9  5  1  0
  1 10  1  0
  4 11  1  0
  4 12  1  0
  4 13  1  0
  5 14  1  0
  7 15  1  0
  8 16  1  0
  8 17  1  0
  8 18  1  0
  9 19  1  0
M  END
