
     RDKit          3D

 21 22  0  0  0  0  0  0  0  0999 V2000
    3.0753   -1.2538    0.7080 C   0  0  0  0  0  0  0  0  0  0  0  0
    2.1265   -0.4916    0.5768 C   0  0  0  0  0  0  0  0  0  0  0  0
    0.9580    0.4395    0.4414 C   0  0  0  0  0  0  0  0  0  0  0  0
    1.3844    1.7401    0.0955 C   0  0  0  0  0  0  0  0  0  0  0  0
    0.7780    1.0364   -0.9911 C   0  0  0  0  0  0  0  0  0  0  0  0
    0.4870   -0.4084   -1.2482 C   0  0  0  0  0  0  0  0  0  0  0  0
   -0.2413   -0.3356    0.0701 C   0  0  0  0  0  0  0  0  0  0  0  0
   -1.5825    0.2160    0.1790 C   0  0  0  0  0  0  0  0  0  0  0  0
   -2.6824   -0.7597   -0.2624 C   0  0  0  0  0  0  0  0  0  0  0  0
    3.8821   -1.9020    0.8298 H   0  0  0  0  0  0  0  0  0  0  0  0
    0.9156    2.5817    0.6948 H   0  0  0  0  0  0  0  0  0  0  0  0
    2.4669    2.0302   -0.0718 H   0  0  0  0  0  0  0  0  0  0  0  0
   -0.1564    1.5754   -1.2554 H   0  0  0  0  0  0  0  0  0  0  0  0
    1.3552   -1.0925   -1.1986 H   0  0  0  0  0  0  0  0  0  0  0  0
   -0.0880   -0.6265   -2.1402 H   0  0  0  0  0  0  0  0  0  0  0  0
   -0.2289   -1.3890    0.4990 H   0  0  0  0  0  0  0  0  0  0  0  0
   -1.7937    0.3312    1.2908 H   0  0  0  0  0  0  0  0  0  0  0  0
   -1.7859    1.2274   -0.2054 H   0  0  0  0  0  0  0  0  0  0  0  0
   -3.6284   -0.4579    0.2343 H   0  0  0  0  0  0  0  0  0  0  0  0
   -2.4087   -1.7494    0.1306 H   0  0  0  0  0  0  0  0  0  0  0  0
   -2.8330   -0.7118   -1.3400 H   0  0  0  0  0  0  0  0  0  0  0  0
  1  2  3  0
  2  3  1  0
  3  4  1  0
  4  5  1  0
  5  6  1  0
  6  7  1  0
  7  8  1  0
  8  9  1  0
  5  3  1  0
  7  3  1  0
  1 10  1  0
  4 11  1  0
  4 12  1  0
  5 13  1  0
  6 14  1  0
  6 15  1  0
  7 16  1  0
  8 17  1  0
  8 18  1  0
  9 19  1  0
  9 20  1  0
  9 21  1  0
M  END
