
     RDKit          3D

 21 21  0  0  0  0  0  0  0  0999 V2000
   -1.4412   -0.7673   -1.7421 C   0  0  0  0  0  0  0  0  0  0  0  0
   -0.8472    0.0205   -1.0576 C   0  0  0  0  0  0  0  0  0  0  0  0
   -0.0372    1.1303   -0.1246 C   0  0  0  0  0  0  0  0  0  0  0  0
   -0.1644    2.2491   -0.9671 C   0  0  0  0  0  0  0  0  0  0  0  0
   -1.0720    0.8181    1.0246 C   0  0  0  0  0  0  0  0  0  0  0  0
   -0.8202   -0.4831    1.3030 C   0  0  0  0  0  0  0  0  0  0  0  0
    0.3012   -1.0590    0.5590 C   0  0  0  0  0  0  0  0  0  0  0  0
    1.1656   -1.8545    1.5634 C   0  0  0  0  0  0  0  0  0  0  0  0
    1.0759    0.2964    0.2673 C   0  0  0  0  0  0  0  0  0  0  0  0
   -2.1797   -1.7839   -2.6281 H   0  0  0  0  0  0  0  0  0  0  0  0
    0.7521    2.1930   -1.7541 H   0  0  0  0  0  0  0  0  0  0  0  0
   -1.0639    2.3703   -1.6334 H   0  0  0  0  0  0  0  0  0  0  0  0
   -0.0383    3.1897   -0.3644 H   0  0  0  0  0  0  0  0  0  0  0  0
   -1.6941    1.5380    1.4263 H   0  0  0  0  0  0  0  0  0  0  0  0
   -1.3992   -1.0122    2.0585 H   0  0  0  0  0  0  0  0  0  0  0  0
    0.0876   -1.6471   -0.2770 H   0  0  0  0  0  0  0  0  0  0  0  0
    1.0653   -1.2736    2.5635 H   0  0  0  0  0  0  0  0  0  0  0  0
    0.7640   -2.8436    1.7245 H   0  0  0  0  0  0  0  0  0  0  0  0
    2.2577   -1.7420    1.2792 H   0  0  0  0  0  0  0  0  0  0  0  0
    1.3876    0.5037    1.3908 H   0  0  0  0  0  0  0  0  0  0  0  0
    1.9004    0.1571   -0.3692 H   0  0  0  0  0  0  0  0  0  0  0  0
  1  2  3  0
  2  3  1  0
  3  4  1  0
  3  5  1  0
  5  6  2  0
  6  7  1  0
  7  8  1  0
  7  9  1  0
  9  3  1  0
  1 10  1  0
  4 11  1  0
  4 12  1  0
  4 13  1  0
  5 14  1  0
  6 15  1  0
  7 16  1  0
  8 17  1  0
  8 18  1  0
  8 19  1  0
  9 20  1  0
  9 21  1  0
M  END
