
     RDKit          3D

 16 15  0  0  0  0  0  0  0  0999 V2000
    1.0158   -1.8476    1.2971 C   0  0  0  0  0  0  0  0  0  0  0  0
    0.5760   -0.9429    0.6316 C   0  0  0  0  0  0  0  0  0  0  0  0
    0.0348    0.1759   -0.1601 C   0  0  0  0  0  0  0  0  0  0  0  0
    0.9340    0.4534   -1.3412 C   0  0  0  0  0  0  0  0  0  0  0  0
   -0.0389    1.3446    0.6785 C   0  0  0  0  0  0  0  0  0  0  0  0
   -0.1180    2.3263    1.3992 C   0  0  0  0  0  0  0  0  0  0  0  0
   -1.3154   -0.2396   -0.7042 C   0  0  0  0  0  0  0  0  0  0  0  0
   -1.1943   -1.3670   -1.5140 O   0  0  0  0  0  0  0  0  0  0  0  0
    1.4249   -2.6460    1.8909 H   0  0  0  0  0  0  0  0  0  0  0  0
    0.3489    0.4995   -2.2944 H   0  0  0  0  0  0  0  0  0  0  0  0
    1.4515    1.4100   -1.1929 H   0  0  0  0  0  0  0  0  0  0  0  0
    1.7135   -0.3352   -1.4491 H   0  0  0  0  0  0  0  0  0  0  0  0
   -0.1859    3.1694    2.0401 H   0  0  0  0  0  0  0  0  0  0  0  0
   -1.9886   -0.4553    0.1435 H   0  0  0  0  0  0  0  0  0  0  0  0
   -1.7700    0.5589   -1.3201 H   0  0  0  0  0  0  0  0  0  0  0  0
   -0.8885   -2.1044   -0.9129 H   0  0  0  0  0  0  0  0  0  0  0  0
  1  2  3  0
  2  3  1  0
  3  4  1  0
  3  5  1  0
  5  6  3  0
  3  7  1  0
  7  8  1  0
  1  9  1  0
  4 10  1  0
  4 11  1  0
  4 12  1  0
  6 13  1  0
  7 14  1  0
  7 15  1  0
  8 16  1  0
M  END
