
     RDKit          3D

 18 18  0  0  0  0  0  0  0  0999 V2000
    3.4108    0.1556   -1.2909 C   0  0  0  0  0  0  0  0  0  0  0  0
    2.2023    0.2188   -1.2567 C   0  0  0  0  0  0  0  0  0  0  0  0
    0.7521    0.2937   -1.1902 C   0  0  0  0  0  0  0  0  0  0  0  0
    0.3153    0.8902    0.1534 C   0  0  0  0  0  0  0  0  0  0  0  0
   -0.6362   -0.2583    0.1300 C   0  0  0  0  0  0  0  0  0  0  0  0
   -0.7495   -1.0476    1.4182 C   0  0  0  0  0  0  0  0  0  0  0  0
   -1.9720    0.1157   -0.4803 C   0  0  0  0  0  0  0  0  0  0  0  0
    0.2205   -0.9161   -0.7536 O   0  0  0  0  0  0  0  0  0  0  0  0
    4.4813    0.0886   -1.3298 H   0  0  0  0  0  0  0  0  0  0  0  0
    0.2459    0.7331   -2.0611 H   0  0  0  0  0  0  0  0  0  0  0  0
    1.1013    0.8679    0.9271 H   0  0  0  0  0  0  0  0  0  0  0  0
   -0.1124    1.8760   -0.0272 H   0  0  0  0  0  0  0  0  0  0  0  0
   -1.6671   -1.6425    1.3617 H   0  0  0  0  0  0  0  0  0  0  0  0
    0.0924   -1.7479    1.5693 H   0  0  0  0  0  0  0  0  0  0  0  0
   -0.7572   -0.3392    2.2743 H   0  0  0  0  0  0  0  0  0  0  0  0
   -2.3068   -0.6281   -1.2315 H   0  0  0  0  0  0  0  0  0  0  0  0
   -2.7551    0.2514    0.2927 H   0  0  0  0  0  0  0  0  0  0  0  0
   -1.8658    1.0887   -1.0024 H   0  0  0  0  0  0  0  0  0  0  0  0
  1  2  3  0
  2  3  1  0
  3  4  1  0
  4  5  1  0
  5  6  1  0
  5  7  1  0
  5  8  1  0
  8  3  1  0
  1  9  1  0
  3 10  1  0
  4 11  1  0
  4 12  1  0
  6 13  1  0
  6 14  1  0
  6 15  1  0
  7 16  1  0
  7 17  1  0
  7 18  1  0
M  END
