
     RDKit          3D

 21 20  0  0  0  0  0  0  0  0999 V2000
   -0.3871   -0.4035    2.9042 C   0  0  0  0  0  0  0  0  0  0  0  0
   -0.4973   -0.5416    1.6995 C   0  0  0  0  0  0  0  0  0  0  0  0
   -0.6051   -0.7129    0.2504 C   0  0  0  0  0  0  0  0  0  0  0  0
   -1.9716   -1.3888   -0.0431 C   0  0  0  0  0  0  0  0  0  0  0  0
    0.3236   -1.6037   -0.2358 O   0  0  0  0  0  0  0  0  0  0  0  0
   -0.5540    0.6066   -0.4471 C   0  0  0  0  0  0  0  0  0  0  0  0
    0.6771    1.4178   -0.2228 C   0  0  0  0  0  0  0  0  0  0  0  0
    1.9062    0.7167   -0.6791 C   0  0  0  0  0  0  0  0  0  0  0  0
    1.8590    0.3964   -2.0387 O   0  0  0  0  0  0  0  0  0  0  0  0
   -0.3091   -0.2852    3.9564 H   0  0  0  0  0  0  0  0  0  0  0  0
   -1.9483   -1.6302   -1.1256 H   0  0  0  0  0  0  0  0  0  0  0  0
   -1.9641   -2.3045    0.5984 H   0  0  0  0  0  0  0  0  0  0  0  0
   -2.7693   -0.6901    0.1894 H   0  0  0  0  0  0  0  0  0  0  0  0
   -0.0048   -2.5448   -0.1501 H   0  0  0  0  0  0  0  0  0  0  0  0
   -1.4176    1.2533   -0.1078 H   0  0  0  0  0  0  0  0  0  0  0  0
   -0.7098    0.4941   -1.5473 H   0  0  0  0  0  0  0  0  0  0  0  0
    0.7666    1.5225    0.9016 H   0  0  0  0  0  0  0  0  0  0  0  0
    0.5654    2.4310   -0.6851 H   0  0  0  0  0  0  0  0  0  0  0  0
    2.0849   -0.2117   -0.1210 H   0  0  0  0  0  0  0  0  0  0  0  0
    2.8358    1.3468   -0.4764 H   0  0  0  0  0  0  0  0  0  0  0  0
    2.1192    1.1412   -2.6200 H   0  0  0  0  0  0  0  0  0  0  0  0
  1  2  3  0
  2  3  1  0
  3  4  1  0
  3  5  1  0
  3  6  1  0
  6  7  1  0
  7  8  1  0
  8  9  1  0
  1 10  1  0
  4 11  1  0
  4 12  1  0
  4 13  1  0
  5 14  1  0
  6 15  1  0
  6 16  1  0
  7 17  1  0
  7 18  1  0
  8 19  1  0
  8 20  1  0
  9 21  1  0
M  END
