
     RDKit          3D

 19 19  0  0  0  0  0  0  0  0999 V2000
    2.5456    1.2876   -0.6924 C   0  0  0  0  0  0  0  0  0  0  0  0
    2.1616    0.3425   -0.0523 C   0  0  0  0  0  0  0  0  0  0  0  0
    1.7021   -0.7932    0.7464 C   0  0  0  0  0  0  0  0  0  0  0  0
    0.2046   -0.8194    0.7973 C   0  0  0  0  0  0  0  0  0  0  0  0
   -0.4914   -0.9457   -0.5433 C   0  0  0  0  0  0  0  0  0  0  0  0
   -1.5970   -0.0892    0.0976 C   0  0  0  0  0  0  0  0  0  0  0  0
   -2.2705    0.7960   -0.8725 C   0  0  0  0  0  0  0  0  0  0  0  0
   -1.6822    1.0592   -1.9055 O   0  0  0  0  0  0  0  0  0  0  0  0
   -0.4419    0.5708    0.8635 C   0  0  0  0  0  0  0  0  0  0  0  0
    2.8950    2.1221   -1.2759 H   0  0  0  0  0  0  0  0  0  0  0  0
    2.0914   -1.7503    0.3976 H   0  0  0  0  0  0  0  0  0  0  0  0
    2.0625   -0.6220    1.7814 H   0  0  0  0  0  0  0  0  0  0  0  0
   -0.2245   -1.4869    1.5459 H   0  0  0  0  0  0  0  0  0  0  0  0
   -0.0461   -0.3868   -1.3687 H   0  0  0  0  0  0  0  0  0  0  0  0
   -0.8157   -1.9734   -0.7987 H   0  0  0  0  0  0  0  0  0  0  0  0
   -2.2470   -0.7247    0.7147 H   0  0  0  0  0  0  0  0  0  0  0  0
   -3.2380    1.2134   -0.7162 H   0  0  0  0  0  0  0  0  0  0  0  0
    0.0780    1.2747    0.1763 H   0  0  0  0  0  0  0  0  0  0  0  0
   -0.6864    0.9251    1.8593 H   0  0  0  0  0  0  0  0  0  0  0  0
  1  2  3  0
  2  3  1  0
  3  4  1  0
  4  5  1  0
  5  6  1  0
  6  7  1  0
  7  8  2  0
  6  9  1  0
  9  4  1  0
  1 10  1  0
  3 11  1  0
  3 12  1  0
  4 13  1  0
  5 14  1  0
  5 15  1  0
  6 16  1  0
  7 17  1  0
  9 18  1  0
  9 19  1  0
M  END
