
     RDKit          3D

 17 18  0  0  0  0  0  0  0  0999 V2000
   -0.6873    2.6218    0.2271 C   0  0  0  0  0  0  0  0  0  0  0  0
   -0.6812    1.4211    0.0389 C   0  0  0  0  0  0  0  0  0  0  0  0
   -0.6910   -0.0314   -0.2079 C   0  0  0  0  0  0  0  0  0  0  0  0
   -1.9363   -0.5807   -0.8368 C   0  0  0  0  0  0  0  0  0  0  0  0
    0.1230   -0.8934    0.6708 C   0  0  0  0  0  0  0  0  0  0  0  0
    1.0839   -0.3483    1.4947 O   0  0  0  0  0  0  0  0  0  0  0  0
    2.1734   -0.0154    0.7045 C   0  0  0  0  0  0  0  0  0  0  0  0
    1.7019    0.1442   -0.5909 O   0  0  0  0  0  0  0  0  0  0  0  0
    0.5912   -0.6718   -0.7027 C   0  0  0  0  0  0  0  0  0  0  0  0
   -0.6968    3.6775    0.3760 H   0  0  0  0  0  0  0  0  0  0  0  0
   -2.4078    0.2592   -1.4202 H   0  0  0  0  0  0  0  0  0  0  0  0
   -1.7291   -1.4292   -1.5143 H   0  0  0  0  0  0  0  0  0  0  0  0
   -2.6608   -0.9613   -0.0638 H   0  0  0  0  0  0  0  0  0  0  0  0
   -0.2957   -1.9029    0.8855 H   0  0  0  0  0  0  0  0  0  0  0  0
    2.5763    0.9514    1.0525 H   0  0  0  0  0  0  0  0  0  0  0  0
    2.9857   -0.7577    0.7507 H   0  0  0  0  0  0  0  0  0  0  0  0
    0.5507   -1.4829   -1.4361 H   0  0  0  0  0  0  0  0  0  0  0  0
  1  2  3  0
  2  3  1  0
  3  4  1  0
  3  5  1  0
  5  6  1  0
  6  7  1  0
  7  8  1  0
  8  9  1  0
  9  3  1  0
  9  5  1  0
  1 10  1  0
  4 11  1  0
  4 12  1  0
  4 13  1  0
  5 14  1  0
  7 15  1  0
  7 16  1  0
  9 17  1  0
M  END
