
     RDKit          3D

 21 20  0  0  0  0  0  0  0  0999 V2000
   -1.7279    1.0175   -1.2130 C   0  0  0  0  0  0  0  0  0  0  0  0
   -0.8090    0.6185   -0.6541 C   0  0  0  0  0  0  0  0  0  0  0  0
    0.4257    0.1017    0.0701 C   0  0  0  0  0  0  0  0  0  0  0  0
   -0.0100    0.1331    1.5371 C   0  0  0  0  0  0  0  0  0  0  0  0
    1.3604    1.0862   -0.0761 O   0  0  0  0  0  0  0  0  0  0  0  0
    0.9023    2.3049    0.4730 C   0  0  0  0  0  0  0  0  0  0  0  0
    0.6723   -1.2349   -0.4801 C   0  0  0  0  0  0  0  0  0  0  0  0
   -0.4991   -2.1883   -0.2366 C   0  0  0  0  0  0  0  0  0  0  0  0
    0.8671   -1.1996   -1.8740 O   0  0  0  0  0  0  0  0  0  0  0  0
   -2.6519    1.4062   -1.7910 H   0  0  0  0  0  0  0  0  0  0  0  0
   -0.3485   -0.8692    1.8164 H   0  0  0  0  0  0  0  0  0  0  0  0
    0.9326    0.3489    2.1177 H   0  0  0  0  0  0  0  0  0  0  0  0
   -0.7497    0.9340    1.7508 H   0  0  0  0  0  0  0  0  0  0  0  0
   -0.0274    2.5388   -0.0850 H   0  0  0  0  0  0  0  0  0  0  0  0
    1.6434    3.0615    0.0884 H   0  0  0  0  0  0  0  0  0  0  0  0
    0.8026    2.2920    1.5521 H   0  0  0  0  0  0  0  0  0  0  0  0
    1.5520   -1.6804    0.0216 H   0  0  0  0  0  0  0  0  0  0  0  0
   -0.3243   -2.8394    0.6185 H   0  0  0  0  0  0  0  0  0  0  0  0
   -1.4201   -1.5807   -0.1284 H   0  0  0  0  0  0  0  0  0  0  0  0
   -0.6170   -2.8235   -1.1341 H   0  0  0  0  0  0  0  0  0  0  0  0
    0.0264   -1.4271   -2.3732 H   0  0  0  0  0  0  0  0  0  0  0  0
  1  2  3  0
  2  3  1  0
  3  4  1  0
  3  5  1  0
  5  6  1  0
  3  7  1  0
  7  8  1  0
  7  9  1  0
  1 10  1  0
  4 11  1  0
  4 12  1  0
  4 13  1  0
  6 14  1  0
  6 15  1  0
  6 16  1  0
  7 17  1  0
  8 18  1  0
  8 19  1  0
  8 20  1  0
  9 21  1  0
M  END
