
     RDKit          3D

 17 16  0  0  0  0  0  0  0  0999 V2000
   -1.8321    2.0933   -1.1996 C   0  0  0  0  0  0  0  0  0  0  0  0
   -1.0885    1.1623   -0.9344 C   0  0  0  0  0  0  0  0  0  0  0  0
   -0.1863    0.0497   -0.6337 C   0  0  0  0  0  0  0  0  0  0  0  0
   -0.7995   -1.2353   -1.1394 C   0  0  0  0  0  0  0  0  0  0  0  0
   -1.0096   -1.1510   -2.5155 O   0  0  0  0  0  0  0  0  0  0  0  0
    0.0517    0.0350    0.7404 O   0  0  0  0  0  0  0  0  0  0  0  0
    1.3163    0.1902    1.2300 C   0  0  0  0  0  0  0  0  0  0  0  0
    1.5860    0.1760    2.7128 C   0  0  0  0  0  0  0  0  0  0  0  0
    2.2724    0.3484    0.4138 O   0  0  0  0  0  0  0  0  0  0  0  0
   -2.4763    2.9116   -1.4145 H   0  0  0  0  0  0  0  0  0  0  0  0
    0.7686    0.1992   -1.2025 H   0  0  0  0  0  0  0  0  0  0  0  0
   -0.2119   -2.1151   -0.8752 H   0  0  0  0  0  0  0  0  0  0  0  0
   -1.8154   -1.3098   -0.6805 H   0  0  0  0  0  0  0  0  0  0  0  0
   -1.6194   -1.8821   -2.8088 H   0  0  0  0  0  0  0  0  0  0  0  0
    2.6944    0.1653    2.8751 H   0  0  0  0  0  0  0  0  0  0  0  0
    1.1507    1.1004    3.1370 H   0  0  0  0  0  0  0  0  0  0  0  0
    1.1990   -0.7381    3.1754 H   0  0  0  0  0  0  0  0  0  0  0  0
  1  2  3  0
  2  3  1  0
  3  4  1  0
  4  5  1  0
  3  6  1  0
  6  7  1  0
  7  8  1  0
  7  9  2  0
  1 10  1  0
  3 11  1  0
  4 12  1  0
  4 13  1  0
  5 14  1  0
  8 15  1  0
  8 16  1  0
  8 17  1  0
M  END
