
     RDKit          3D

 21 21  0  0  0  0  0  0  0  0999 V2000
    2.8221   -1.9981    0.1273 C   0  0  0  0  0  0  0  0  0  0  0  0
    2.5711   -0.8491    0.0071 C   0  0  0  0  0  0  0  0  0  0  0  0
    2.2547    0.5721   -0.1666 C   0  0  0  0  0  0  0  0  0  0  0  0
    0.8965    0.7954   -0.7236 C   0  0  0  0  0  0  0  0  0  0  0  0
   -0.2609    0.3070    0.0696 C   0  0  0  0  0  0  0  0  0  0  0  0
   -1.5932    0.6046   -0.6337 C   0  0  0  0  0  0  0  0  0  0  0  0
   -2.7731    0.1327    0.1517 C   0  0  0  0  0  0  0  0  0  0  0  0
   -0.2855   -0.7635    1.0117 C   0  0  0  0  0  0  0  0  0  0  0  0
   -0.3335    0.6821    1.4475 O   0  0  0  0  0  0  0  0  0  0  0  0
    3.0671   -3.0768    0.2231 H   0  0  0  0  0  0  0  0  0  0  0  0
    2.9866    0.9600   -0.9481 H   0  0  0  0  0  0  0  0  0  0  0  0
    2.4633    1.1086    0.7715 H   0  0  0  0  0  0  0  0  0  0  0  0
    0.6995    1.8552   -1.0031 H   0  0  0  0  0  0  0  0  0  0  0  0
    0.8298    0.2516   -1.7174 H   0  0  0  0  0  0  0  0  0  0  0  0
   -1.5804    0.1097   -1.6430 H   0  0  0  0  0  0  0  0  0  0  0  0
   -1.6667    1.6896   -0.8165 H   0  0  0  0  0  0  0  0  0  0  0  0
   -2.6539    0.3582    1.2448 H   0  0  0  0  0  0  0  0  0  0  0  0
   -2.9958   -0.9488   -0.0080 H   0  0  0  0  0  0  0  0  0  0  0  0
   -3.6851    0.6657   -0.2415 H   0  0  0  0  0  0  0  0  0  0  0  0
   -1.2750   -1.2530    1.2453 H   0  0  0  0  0  0  0  0  0  0  0  0
    0.5123   -1.2034    1.6019 H   0  0  0  0  0  0  0  0  0  0  0  0
  1  2  3  0
  2  3  1  0
  3  4  1  0
  4  5  1  0
  5  6  1  0
  6  7  1  0
  5  8  1  0
  8  9  1  0
  9  5  1  0
  1 10  1  0
  3 11  1  0
  3 12  1  0
  4 13  1  0
  4 14  1  0
  6 15  1  0
  6 16  1  0
  7 17  1  0
  7 18  1  0
  7 19  1  0
  8 20  1  0
  8 21  1  0
M  END
