
     RDKit          3D

 19 18  0  0  0  0  0  0  0  0999 V2000
   -2.7010   -1.4405   -0.5415 C   0  0  0  0  0  0  0  0  0  0  0  0
   -1.6058   -1.0330    0.1667 C   0  0  0  0  0  0  0  0  0  0  0  0
   -0.4884   -0.6382    0.8678 C   0  0  0  0  0  0  0  0  0  0  0  0
   -0.7887    0.7640    1.4687 C   0  0  0  0  0  0  0  0  0  0  0  0
    0.2328    1.2584    2.2105 O   0  0  0  0  0  0  0  0  0  0  0  0
    0.7464   -0.5341    0.0031 C   0  0  0  0  0  0  0  0  0  0  0  0
    0.6495    0.4743   -1.1144 C   0  0  0  0  0  0  0  0  0  0  0  0
    1.9807    0.3848   -1.8288 C   0  0  0  0  0  0  0  0  0  0  0  0
    2.1586    1.1831   -2.7870 O   0  0  0  0  0  0  0  0  0  0  0  0
   -3.5119   -1.7519   -1.0863 H   0  0  0  0  0  0  0  0  0  0  0  0
   -0.1972   -1.2852    1.7400 H   0  0  0  0  0  0  0  0  0  0  0  0
   -0.9464    1.4338    0.5453 H   0  0  0  0  0  0  0  0  0  0  0  0
   -1.7386    0.6497    1.9923 H   0  0  0  0  0  0  0  0  0  0  0  0
    0.4464    0.7823    3.0725 H   0  0  0  0  0  0  0  0  0  0  0  0
    1.0509   -1.4983   -0.4570 H   0  0  0  0  0  0  0  0  0  0  0  0
    1.5880   -0.2190    0.6846 H   0  0  0  0  0  0  0  0  0  0  0  0
   -0.1942    0.2692   -1.7841 H   0  0  0  0  0  0  0  0  0  0  0  0
    0.5682    1.4957   -0.6970 H   0  0  0  0  0  0  0  0  0  0  0  0
    2.7506   -0.2950   -1.5616 H   0  0  0  0  0  0  0  0  0  0  0  0
  1  2  3  0
  2  3  1  0
  3  4  1  0
  4  5  1  0
  3  6  1  0
  6  7  1  0
  7  8  1  0
  8  9  2  0
  1 10  1  0
  3 11  1  0
  4 12  1  0
  4 13  1  0
  5 14  1  0
  6 15  1  0
  6 16  1  0
  7 17  1  0
  7 18  1  0
  8 19  1  0
M  END
