
     RDKit          3D

 19 19  0  0  0  0  0  0  0  0999 V2000
    2.5719    3.1806   -1.8131 C   0  0  0  0  0  0  0  0  0  0  0  0
    2.2535    1.9866   -2.0611 C   0  0  0  0  0  0  0  0  0  0  0  0
    1.8681    0.6346   -2.3512 C   0  0  0  0  0  0  0  0  0  0  0  0
    0.9258    0.1858   -1.2996 C   0  0  0  0  0  0  0  0  0  0  0  0
    0.1514   -0.1648   -0.4538 C   0  0  0  0  0  0  0  0  0  0  0  0
   -0.7983   -0.5850    0.5971 C   0  0  0  0  0  0  0  0  0  0  0  0
   -0.2274   -0.9344    1.9671 C   0  0  0  0  0  0  0  0  0  0  0  0
   -2.1879   -0.1914    0.4082 C   0  0  0  0  0  0  0  0  0  0  0  0
   -1.8523   -1.6113    0.1293 C   0  0  0  0  0  0  0  0  0  0  0  0
    2.8508    4.1595   -1.6039 H   0  0  0  0  0  0  0  0  0  0  0  0
    1.3820    0.5818   -3.3618 H   0  0  0  0  0  0  0  0  0  0  0  0
    2.7522   -0.0707   -2.3077 H   0  0  0  0  0  0  0  0  0  0  0  0
    0.0498   -2.0008    1.9186 H   0  0  0  0  0  0  0  0  0  0  0  0
    0.6714   -0.3561    2.2007 H   0  0  0  0  0  0  0  0  0  0  0  0
   -1.0214   -0.8426    2.7342 H   0  0  0  0  0  0  0  0  0  0  0  0
   -2.8948   -0.0604    1.2819 H   0  0  0  0  0  0  0  0  0  0  0  0
   -2.4959    0.4062   -0.4594 H   0  0  0  0  0  0  0  0  0  0  0  0
   -2.1883   -2.3887    0.8428 H   0  0  0  0  0  0  0  0  0  0  0  0
   -1.8107   -1.9288   -0.9282 H   0  0  0  0  0  0  0  0  0  0  0  0
  1  2  3  0
  2  3  1  0
  3  4  1  0
  4  5  3  0
  5  6  1  0
  6  7  1  0
  6  8  1  0
  8  9  1  0
  9  6  1  0
  1 10  1  0
  3 11  1  0
  3 12  1  0
  7 13  1  0
  7 14  1  0
  7 15  1  0
  8 16  1  0
  8 17  1  0
  9 18  1  0
  9 19  1  0
M  END
