
     RDKit          3D

 23 22  0  0  0  0  0  0  0  0999 V2000
   -1.5454    1.2372    2.5158 C   0  0  0  0  0  0  0  0  0  0  0  0
   -1.4013    0.2124    1.5564 C   0  0  0  0  0  0  0  0  0  0  0  0
   -1.2631   -0.7842    0.6494 C   0  0  0  0  0  0  0  0  0  0  0  0
   -2.3675   -0.6654   -0.4638 C   0  0  0  0  0  0  0  0  0  0  0  0
    0.0963   -0.9677    0.1144 C   0  0  0  0  0  0  0  0  0  0  0  0
    0.7764    0.2119   -0.4843 C   0  0  0  0  0  0  0  0  0  0  0  0
    0.2227    0.7682   -1.7113 C   0  0  0  0  0  0  0  0  0  0  0  0
    2.0987   -0.2847   -0.7790 O   0  0  0  0  0  0  0  0  0  0  0  0
    2.9341    0.2835    0.2500 C   0  0  0  0  0  0  0  0  0  0  0  0
   -1.6222    1.8649    3.1127 H   0  0  0  0  0  0  0  0  0  0  0  0
   -1.5511   -1.7926    1.1976 H   0  0  0  0  0  0  0  0  0  0  0  0
   -3.3305   -1.0161    0.0927 H   0  0  0  0  0  0  0  0  0  0  0  0
   -2.3753    0.3973   -0.6894 H   0  0  0  0  0  0  0  0  0  0  0  0
   -2.1077   -1.4015   -1.2424 H   0  0  0  0  0  0  0  0  0  0  0  0
    0.0720   -1.7941   -0.6058 H   0  0  0  0  0  0  0  0  0  0  0  0
    0.7403   -1.3758    1.0126 H   0  0  0  0  0  0  0  0  0  0  0  0
    0.8990    0.9527    0.3241 H   0  0  0  0  0  0  0  0  0  0  0  0
   -0.1436    1.8201   -1.5224 H   0  0  0  0  0  0  0  0  0  0  0  0
    1.0740    0.8992   -2.4702 H   0  0  0  0  0  0  0  0  0  0  0  0
   -0.6262    0.2087   -2.2129 H   0  0  0  0  0  0  0  0  0  0  0  0
    2.5034   -0.0080    1.2057 H   0  0  0  0  0  0  0  0  0  0  0  0
    2.9834    1.3598    0.1027 H   0  0  0  0  0  0  0  0  0  0  0  0
    3.9336   -0.1258    0.0474 H   0  0  0  0  0  0  0  0  0  0  0  0
  1  2  3  0
  2  3  1  0
  3  4  1  0
  3  5  1  0
  5  6  1  0
  6  7  1  0
  6  8  1  0
  8  9  1  0
  1 10  1  0
  3 11  1  0
  4 12  1  0
  4 13  1  0
  4 14  1  0
  5 15  1  0
  5 16  1  0
  6 17  1  0
  7 18  1  0
  7 19  1  0
  7 20  1  0
  9 21  1  0
  9 22  1  0
  9 23  1  0
M  END
