
     RDKit          3D

 17 17  0  0  0  0  0  0  0  0999 V2000
    3.5213   -0.9372   -1.5772 C   0  0  0  0  0  0  0  0  0  0  0  0
    2.4872   -1.2711   -1.0554 C   0  0  0  0  0  0  0  0  0  0  0  0
    1.2323   -1.6576   -0.4045 C   0  0  0  0  0  0  0  0  0  0  0  0
    0.4891   -0.5170   -0.1041 O   0  0  0  0  0  0  0  0  0  0  0  0
   -0.7439   -0.6438    0.5197 C   0  0  0  0  0  0  0  0  0  0  0  0
   -1.1352   -1.8085    0.7875 O   0  0  0  0  0  0  0  0  0  0  0  0
   -1.6003    0.4919    0.8769 C   0  0  0  0  0  0  0  0  0  0  0  0
   -1.0575    1.8606    1.0333 C   0  0  0  0  0  0  0  0  0  0  0  0
   -1.7465    1.5420   -0.2631 C   0  0  0  0  0  0  0  0  0  0  0  0
    4.4506   -0.6393   -2.0312 H   0  0  0  0  0  0  0  0  0  0  0  0
    1.4860   -2.2816    0.4777 H   0  0  0  0  0  0  0  0  0  0  0  0
    0.6329   -2.2881   -1.1117 H   0  0  0  0  0  0  0  0  0  0  0  0
   -2.5599    0.2600    1.3706 H   0  0  0  0  0  0  0  0  0  0  0  0
    0.0470    2.0082    1.0427 H   0  0  0  0  0  0  0  0  0  0  0  0
   -1.5916    2.5166    1.7507 H   0  0  0  0  0  0  0  0  0  0  0  0
   -1.1662    1.3752   -1.1774 H   0  0  0  0  0  0  0  0  0  0  0  0
   -2.7454    1.9896   -0.4026 H   0  0  0  0  0  0  0  0  0  0  0  0
  1  2  3  0
  2  3  1  0
  3  4  1  0
  4  5  1  0
  5  6  2  0
  5  7  1  0
  7  8  1  0
  8  9  1  0
  9  7  1  0
  1 10  1  0
  3 11  1  0
  3 12  1  0
  7 13  1  0
  8 14  1  0
  8 15  1  0
  9 16  1  0
  9 17  1  0
M  END
