
     RDKit          3D

 19 20  0  0  0  0  0  0  0  0999 V2000
    2.6742   -0.2126    1.5570 C   0  0  0  0  0  0  0  0  0  0  0  0
    1.6796   -0.2431    0.9077 C   0  0  0  0  0  0  0  0  0  0  0  0
    0.4633   -0.2944    0.1374 C   0  0  0  0  0  0  0  0  0  0  0  0
    0.2425   -1.4275   -0.7619 C   0  0  0  0  0  0  0  0  0  0  0  0
   -0.5152   -1.4131    0.5084 C   0  0  0  0  0  0  0  0  0  0  0  0
   -1.8699   -0.7168    0.4179 C   0  0  0  0  0  0  0  0  0  0  0  0
   -1.6005    0.4052   -0.3815 O   0  0  0  0  0  0  0  0  0  0  0  0
   -0.4497    0.8908    0.1947 C   0  0  0  0  0  0  0  0  0  0  0  0
    0.1022    2.1181   -0.4526 C   0  0  0  0  0  0  0  0  0  0  0  0
    3.5650   -0.1791    2.1598 H   0  0  0  0  0  0  0  0  0  0  0  0
   -0.3355   -1.3059   -1.7184 H   0  0  0  0  0  0  0  0  0  0  0  0
    1.0383   -2.1695   -0.8462 H   0  0  0  0  0  0  0  0  0  0  0  0
   -0.2771   -2.0348    1.3668 H   0  0  0  0  0  0  0  0  0  0  0  0
   -2.2549   -0.4335    1.4165 H   0  0  0  0  0  0  0  0  0  0  0  0
   -2.5676   -1.3593   -0.1570 H   0  0  0  0  0  0  0  0  0  0  0  0
   -0.6854    1.0859    1.2757 H   0  0  0  0  0  0  0  0  0  0  0  0
    0.5373    1.8956   -1.4281 H   0  0  0  0  0  0  0  0  0  0  0  0
    0.9210    2.4954    0.2191 H   0  0  0  0  0  0  0  0  0  0  0  0
   -0.6674    2.8987   -0.4546 H   0  0  0  0  0  0  0  0  0  0  0  0
  1  2  3  0
  2  3  1  0
  3  4  1  0
  4  5  1  0
  5  6  1  0
  6  7  1  0
  7  8  1  0
  8  9  1  0
  5  3  1  0
  8  3  1  0
  1 10  1  0
  4 11  1  0
  4 12  1  0
  5 13  1  0
  6 14  1  0
  6 15  1  0
  8 16  1  0
  9 17  1  0
  9 18  1  0
  9 19  1  0
M  END
