
     RDKit          3D

 17 17  0  0  0  0  0  0  0  0999 V2000
    2.8613   -1.0464   -0.5950 C   0  0  0  0  0  0  0  0  0  0  0  0
    1.7813   -0.5502   -0.7734 C   0  0  0  0  0  0  0  0  0  0  0  0
    0.4582    0.0731   -0.9712 C   0  0  0  0  0  0  0  0  0  0  0  0
    0.6311    1.4549   -1.0231 O   0  0  0  0  0  0  0  0  0  0  0  0
   -0.4690   -0.3249    0.1412 C   0  0  0  0  0  0  0  0  0  0  0  0
   -0.7146   -1.6571    0.2898 O   0  0  0  0  0  0  0  0  0  0  0  0
   -1.7683    0.4566    0.0879 C   0  0  0  0  0  0  0  0  0  0  0  0
   -1.7731    0.3965    1.5005 O   0  0  0  0  0  0  0  0  0  0  0  0
   -0.3619    0.4515    1.4119 C   0  0  0  0  0  0  0  0  0  0  0  0
    3.8204   -1.4713   -0.4493 H   0  0  0  0  0  0  0  0  0  0  0  0
   -0.0069   -0.2654   -1.9215 H   0  0  0  0  0  0  0  0  0  0  0  0
   -0.1187    1.8246   -1.5171 H   0  0  0  0  0  0  0  0  0  0  0  0
   -0.1490   -2.2645   -0.2294 H   0  0  0  0  0  0  0  0  0  0  0  0
   -1.6425    1.5323   -0.1909 H   0  0  0  0  0  0  0  0  0  0  0  0
   -2.6014   -0.0534   -0.3964 H   0  0  0  0  0  0  0  0  0  0  0  0
   -0.0599    1.5009    1.2771 H   0  0  0  0  0  0  0  0  0  0  0  0
    0.1129   -0.0570    2.2640 H   0  0  0  0  0  0  0  0  0  0  0  0
  1  2  3  0
  2  3  1  0
  3  4  1  0
  3  5  1  0
  5  6  1  0
  5  7  1  0
  7  8  1  0
  8  9  1  0
  9  5  1  0
  1 10  1  0
  3 11  1  0
  4 12  1  0
  6 13  1  0
  7 14  1  0
  7 15  1  0
  9 16  1  0
  9 17  1  0
M  END
