
     RDKit          3D

 19 19  0  0  0  0  0  0  0  0999 V2000
    2.0102    0.1827   -2.5488 C   0  0  0  0  0  0  0  0  0  0  0  0
    1.5935    0.2454   -1.4538 C   0  0  0  0  0  0  0  0  0  0  0  0
    1.1004    0.3074   -0.1008 C   0  0  0  0  0  0  0  0  0  0  0  0
    1.0124   -1.0049    0.5383 C   0  0  0  0  0  0  0  0  0  0  0  0
   -0.1405   -1.5276    0.8742 C   0  0  0  0  0  0  0  0  0  0  0  0
   -1.4184   -0.7826    0.6219 C   0  0  0  0  0  0  0  0  0  0  0  0
   -1.7661   -0.7771   -0.7113 O   0  0  0  0  0  0  0  0  0  0  0  0
   -1.1058    0.6848    0.9867 C   0  0  0  0  0  0  0  0  0  0  0  0
   -0.0681    1.2039    0.0627 C   0  0  0  0  0  0  0  0  0  0  0  0
    2.3929    0.1188   -3.6090 H   0  0  0  0  0  0  0  0  0  0  0  0
    1.9690    0.8488    0.4869 H   0  0  0  0  0  0  0  0  0  0  0  0
    1.9356   -1.5745    0.7780 H   0  0  0  0  0  0  0  0  0  0  0  0
   -0.2052   -2.4881    1.3319 H   0  0  0  0  0  0  0  0  0  0  0  0
   -2.2252   -1.1114    1.2760 H   0  0  0  0  0  0  0  0  0  0  0  0
   -2.1277    0.1238   -1.0091 H   0  0  0  0  0  0  0  0  0  0  0  0
   -2.0146    1.2835    0.9790 H   0  0  0  0  0  0  0  0  0  0  0  0
   -0.6252    0.6173    2.0103 H   0  0  0  0  0  0  0  0  0  0  0  0
    0.2412    2.2361    0.4513 H   0  0  0  0  0  0  0  0  0  0  0  0
   -0.5584    1.4136   -0.9642 H   0  0  0  0  0  0  0  0  0  0  0  0
  1  2  3  0
  2  3  1  0
  3  4  1  0
  4  5  2  0
  5  6  1  0
  6  7  1  0
  6  8  1  0
  8  9  1  0
  9  3  1  0
  1 10  1  0
  3 11  1  0
  4 12  1  0
  5 13  1  0
  6 14  1  0
  7 15  1  0
  8 16  1  0
  8 17  1  0
  9 18  1  0
  9 19  1  0
M  END
