
     RDKit          3D

 19 19  0  0  0  0  0  0  0  0999 V2000
    1.9861   -0.8495    1.5774 C   0  0  0  0  0  0  0  0  0  0  0  0
    1.2922   -0.5481    0.5933 C   0  0  0  0  0  0  0  0  0  0  0  0
    0.4981   -0.2258   -0.5006 C   0  0  0  0  0  0  0  0  0  0  0  0
    1.1604    0.7486   -1.4402 C   0  0  0  0  0  0  0  0  0  0  0  0
    1.7209    1.5549   -2.1989 C   0  0  0  0  0  0  0  0  0  0  0  0
   -0.4141   -1.1852   -1.1450 C   0  0  0  0  0  0  0  0  0  0  0  0
   -1.3294   -1.0053    0.0957 C   0  0  0  0  0  0  0  0  0  0  0  0
   -0.8511    0.4641    0.0028 C   0  0  0  0  0  0  0  0  0  0  0  0
   -0.7276    1.0517    1.3450 C   0  0  0  0  0  0  0  0  0  0  0  0
    2.5546   -1.1042    2.4149 H   0  0  0  0  0  0  0  0  0  0  0  0
    2.1644    2.2186   -2.8272 H   0  0  0  0  0  0  0  0  0  0  0  0
   -0.9467   -0.8084   -2.0499 H   0  0  0  0  0  0  0  0  0  0  0  0
   -0.1015   -2.2302   -1.1627 H   0  0  0  0  0  0  0  0  0  0  0  0
   -1.0377   -1.5239    0.9842 H   0  0  0  0  0  0  0  0  0  0  0  0
   -2.4078   -1.0846   -0.1923 H   0  0  0  0  0  0  0  0  0  0  0  0
   -1.3312    0.9668   -0.8198 H   0  0  0  0  0  0  0  0  0  0  0  0
   -1.1200    0.3293    2.1479 H   0  0  0  0  0  0  0  0  0  0  0  0
   -1.3913    1.9444    1.4825 H   0  0  0  0  0  0  0  0  0  0  0  0
    0.2816    1.2868    1.6927 H   0  0  0  0  0  0  0  0  0  0  0  0
  1  2  3  0
  2  3  1  0
  3  4  1  0
  4  5  3  0
  3  6  1  0
  6  7  1  0
  7  8  1  0
  8  9  1  0
  8  3  1  0
  1 10  1  0
  5 11  1  0
  6 12  1  0
  6 13  1  0
  7 14  1  0
  7 15  1  0
  8 16  1  0
  9 17  1  0
  9 18  1  0
  9 19  1  0
M  END
