
     RDKit          3D

 21 21  0  0  0  0  0  0  0  0999 V2000
   -1.8631    2.7737    0.7756 C   0  0  0  0  0  0  0  0  0  0  0  0
   -1.1260    1.8181    0.7945 C   0  0  0  0  0  0  0  0  0  0  0  0
   -0.2539    0.6466    0.8182 C   0  0  0  0  0  0  0  0  0  0  0  0
    0.2972    0.2340   -0.5741 C   0  0  0  0  0  0  0  0  0  0  0  0
    1.7595    0.0603   -0.6542 C   0  0  0  0  0  0  0  0  0  0  0  0
    2.4041   -0.9449    0.2083 C   0  0  0  0  0  0  0  0  0  0  0  0
   -0.6924   -0.5767    0.1007 C   0  0  0  0  0  0  0  0  0  0  0  0
   -2.1369   -0.5143   -0.4308 C   0  0  0  0  0  0  0  0  0  0  0  0
   -0.4559   -1.8314    0.6606 O   0  0  0  0  0  0  0  0  0  0  0  0
   -2.5132    3.6216    0.7770 H   0  0  0  0  0  0  0  0  0  0  0  0
    0.4511    0.5640    1.6639 H   0  0  0  0  0  0  0  0  0  0  0  0
   -0.0916    0.8656   -1.4358 H   0  0  0  0  0  0  0  0  0  0  0  0
    2.0483   -0.0420   -1.7449 H   0  0  0  0  0  0  0  0  0  0  0  0
    2.2161    1.0649   -0.3895 H   0  0  0  0  0  0  0  0  0  0  0  0
    3.3118   -1.3218   -0.3491 H   0  0  0  0  0  0  0  0  0  0  0  0
    2.8427   -0.4896    1.1469 H   0  0  0  0  0  0  0  0  0  0  0  0
    1.8390   -1.8174    0.5079 H   0  0  0  0  0  0  0  0  0  0  0  0
   -2.8343   -0.9801    0.2779 H   0  0  0  0  0  0  0  0  0  0  0  0
   -2.3619    0.5137   -0.7248 H   0  0  0  0  0  0  0  0  0  0  0  0
   -2.1847   -1.1254   -1.3772 H   0  0  0  0  0  0  0  0  0  0  0  0
   -0.6560   -2.5189   -0.0509 H   0  0  0  0  0  0  0  0  0  0  0  0
  1  2  3  0
  2  3  1  0
  3  4  1  0
  4  5  1  0
  5  6  1  0
  4  7  1  0
  7  8  1  0
  7  9  1  0
  7  3  1  0
  1 10  1  0
  3 11  1  0
  4 12  1  0
  5 13  1  0
  5 14  1  0
  6 15  1  0
  6 16  1  0
  6 17  1  0
  8 18  1  0
  8 19  1  0
  8 20  1  0
  9 21  1  0
M  END
