
     RDKit          3D

 17 18  0  0  0  0  0  0  0  0999 V2000
    3.0296   -0.3422   -0.0541 C   0  0  0  0  0  0  0  0  0  0  0  0
    1.9007   -0.3906   -0.3575 C   0  0  0  0  0  0  0  0  0  0  0  0
    0.4569   -0.4402   -0.7216 C   0  0  0  0  0  0  0  0  0  0  0  0
   -0.1969    0.8878   -0.4574 C   0  0  0  0  0  0  0  0  0  0  0  0
    0.4497    1.6014    0.5527 O   0  0  0  0  0  0  0  0  0  0  0  0
   -1.5667    0.5843    0.0395 C   0  0  0  0  0  0  0  0  0  0  0  0
   -1.4462   -0.8063    0.5946 C   0  0  0  0  0  0  0  0  0  0  0  0
   -0.3798   -0.9505    1.5399 O   0  0  0  0  0  0  0  0  0  0  0  0
   -0.2726   -1.3811    0.2150 C   0  0  0  0  0  0  0  0  0  0  0  0
    4.0761   -0.2965    0.2468 H   0  0  0  0  0  0  0  0  0  0  0  0
    0.3123   -0.7398   -1.7565 H   0  0  0  0  0  0  0  0  0  0  0  0
   -0.2565    1.4505   -1.3959 H   0  0  0  0  0  0  0  0  0  0  0  0
    0.5696    2.5564    0.3614 H   0  0  0  0  0  0  0  0  0  0  0  0
   -2.3485    0.6557   -0.7313 H   0  0  0  0  0  0  0  0  0  0  0  0
   -1.8646    1.2620    0.8704 H   0  0  0  0  0  0  0  0  0  0  0  0
   -2.3809   -1.1962    1.0259 H   0  0  0  0  0  0  0  0  0  0  0  0
   -0.0823   -2.4547    0.0280 H   0  0  0  0  0  0  0  0  0  0  0  0
  1  2  3  0
  2  3  1  0
  3  4  1  0
  4  5  1  0
  4  6  1  0
  6  7  1  0
  7  8  1  0
  8  9  1  0
  9  3  1  0
  9  7  1  0
  1 10  1  0
  3 11  1  0
  4 12  1  0
  5 13  1  0
  6 14  1  0
  6 15  1  0
  7 16  1  0
  9 17  1  0
M  END
