
     RDKit          3D

 21 21  0  0  0  0  0  0  0  0999 V2000
    3.0244    0.3535   -0.7407 C   0  0  0  0  0  0  0  0  0  0  0  0
    2.1012   -0.3588   -0.4888 C   0  0  0  0  0  0  0  0  0  0  0  0
    0.9911   -1.2246   -0.1827 C   0  0  0  0  0  0  0  0  0  0  0  0
   -0.2785   -0.4416   -0.0393 C   0  0  0  0  0  0  0  0  0  0  0  0
   -0.4033    0.6243    0.9959 C   0  0  0  0  0  0  0  0  0  0  0  0
    0.5775    1.7394    0.8701 C   0  0  0  0  0  0  0  0  0  0  0  0
   -1.1865   -0.3219   -1.2671 C   0  0  0  0  0  0  0  0  0  0  0  0
   -1.5384   -1.2949   -0.1937 C   0  0  0  0  0  0  0  0  0  0  0  0
   -2.6221   -1.0286    0.6289 O   0  0  0  0  0  0  0  0  0  0  0  0
    3.8415    0.9845   -0.9751 H   0  0  0  0  0  0  0  0  0  0  0  0
    1.1689   -1.8913    0.6849 H   0  0  0  0  0  0  0  0  0  0  0  0
    0.8378   -1.9232   -1.0560 H   0  0  0  0  0  0  0  0  0  0  0  0
   -0.3426    0.2367    2.0404 H   0  0  0  0  0  0  0  0  0  0  0  0
   -1.4312    1.0618    0.9034 H   0  0  0  0  0  0  0  0  0  0  0  0
    1.5107    1.4994    1.4512 H   0  0  0  0  0  0  0  0  0  0  0  0
    0.7724    2.0829   -0.1437 H   0  0  0  0  0  0  0  0  0  0  0  0
    0.1416    2.6238    1.4212 H   0  0  0  0  0  0  0  0  0  0  0  0
   -0.7906   -0.6835   -2.2415 H   0  0  0  0  0  0  0  0  0  0  0  0
   -1.8226    0.5654   -1.3657 H   0  0  0  0  0  0  0  0  0  0  0  0
   -1.4316   -2.3587   -0.4543 H   0  0  0  0  0  0  0  0  0  0  0  0
   -3.1199   -0.2444    0.2450 H   0  0  0  0  0  0  0  0  0  0  0  0
  1  2  3  0
  2  3  1  0
  3  4  1  0
  4  5  1  0
  5  6  1  0
  4  7  1  0
  7  8  1  0
  8  9  1  0
  8  4  1  0
  1 10  1  0
  3 11  1  0
  3 12  1  0
  5 13  1  0
  5 14  1  0
  6 15  1  0
  6 16  1  0
  6 17  1  0
  7 18  1  0
  7 19  1  0
  8 20  1  0
  9 21  1  0
M  END
