
     RDKit          3D

 14 14  0  0  0  0  0  0  0  0999 V2000
    3.2932    0.2474   -0.1259 C   0  0  0  0  0  0  0  0  0  0  0  0
    2.1899   -0.0861    0.2358 C   0  0  0  0  0  0  0  0  0  0  0  0
    0.8788   -0.4907    0.6610 C   0  0  0  0  0  0  0  0  0  0  0  0
    0.0748    0.5823    1.0339 O   0  0  0  0  0  0  0  0  0  0  0  0
   -1.0014   -0.1582    0.4932 C   0  0  0  0  0  0  0  0  0  0  0  0
   -2.0869    0.7094   -0.0258 C   0  0  0  0  0  0  0  0  0  0  0  0
   -0.0656   -0.7491   -0.4512 C   0  0  0  0  0  0  0  0  0  0  0  0
    0.0408   -1.2276   -1.5523 O   0  0  0  0  0  0  0  0  0  0  0  0
    4.2728    0.5559   -0.4465 H   0  0  0  0  0  0  0  0  0  0  0  0
    0.8187   -1.3219    1.3976 H   0  0  0  0  0  0  0  0  0  0  0  0
   -1.3194   -0.8918    1.2602 H   0  0  0  0  0  0  0  0  0  0  0  0
   -3.0624    0.1490    0.0113 H   0  0  0  0  0  0  0  0  0  0  0  0
   -1.8746    1.0801   -1.0600 H   0  0  0  0  0  0  0  0  0  0  0  0
   -2.1587    1.6012    0.6590 H   0  0  0  0  0  0  0  0  0  0  0  0
  1  2  3  0
  2  3  1  0
  3  4  1  0
  4  5  1  0
  5  6  1  0
  5  7  1  0
  7  8  2  0
  7  3  1  0
  1  9  1  0
  3 10  1  0
  5 11  1  0
  6 12  1  0
  6 13  1  0
  6 14  1  0
M  END
