
     RDKit          3D

 17 16  0  0  0  0  0  0  0  0999 V2000
   -1.0197    2.2668    1.0899 C   0  0  0  0  0  0  0  0  0  0  0  0
   -0.9628    1.1464    0.6463 C   0  0  0  0  0  0  0  0  0  0  0  0
   -0.9091   -0.2138    0.1140 C   0  0  0  0  0  0  0  0  0  0  0  0
   -1.5808   -1.1402    1.0949 C   0  0  0  0  0  0  0  0  0  0  0  0
    0.5129   -0.6004   -0.1422 C   0  0  0  0  0  0  0  0  0  0  0  0
    1.0956    0.3456   -1.1275 C   0  0  0  0  0  0  0  0  0  0  0  0
    0.4412    1.2951   -1.6246 O   0  0  0  0  0  0  0  0  0  0  0  0
    2.4792    0.1898   -1.5529 C   0  0  0  0  0  0  0  0  0  0  0  0
    3.1887   -0.7586   -1.0787 O   0  0  0  0  0  0  0  0  0  0  0  0
   -1.0623    3.2620    1.5012 H   0  0  0  0  0  0  0  0  0  0  0  0
   -1.4595   -0.2812   -0.8406 H   0  0  0  0  0  0  0  0  0  0  0  0
   -1.9342   -2.0344    0.5037 H   0  0  0  0  0  0  0  0  0  0  0  0
   -2.4994   -0.6821    1.5154 H   0  0  0  0  0  0  0  0  0  0  0  0
   -0.8968   -1.5417    1.8544 H   0  0  0  0  0  0  0  0  0  0  0  0
    0.5789   -1.6477   -0.5041 H   0  0  0  0  0  0  0  0  0  0  0  0
    1.0811   -0.4512    0.8120 H   0  0  0  0  0  0  0  0  0  0  0  0
    2.9469    0.8457   -2.2613 H   0  0  0  0  0  0  0  0  0  0  0  0
  1  2  3  0
  2  3  1  0
  3  4  1  0
  3  5  1  0
  5  6  1  0
  6  7  2  0
  6  8  1  0
  8  9  2  0
  1 10  1  0
  3 11  1  0
  4 12  1  0
  4 13  1  0
  4 14  1  0
  5 15  1  0
  5 16  1  0
  8 17  1  0
M  END
