
     RDKit          3D

 16 16  0  0  0  0  0  0  0  0999 V2000
    3.4623   -0.0535   -0.0337 C   0  0  0  0  0  0  0  0  0  0  0  0
    2.1612   -0.1488    0.3177 C   0  0  0  0  0  0  0  0  0  0  0  0
    0.7881   -0.2727    0.6841 C   0  0  0  0  0  0  0  0  0  0  0  0
   -0.0232   -1.4412    0.1904 C   0  0  0  0  0  0  0  0  0  0  0  0
   -0.8521   -1.9210    1.2084 O   0  0  0  0  0  0  0  0  0  0  0  0
   -0.2628   -0.1072   -0.3804 C   0  0  0  0  0  0  0  0  0  0  0  0
   -1.4016    0.5667   -0.0076 O   0  0  0  0  0  0  0  0  0  0  0  0
   -1.9033    1.4351   -0.9708 C   0  0  0  0  0  0  0  0  0  0  0  0
    4.3493    0.0255   -0.2834 H   0  0  0  0  0  0  0  0  0  0  0  0
    0.5663    0.1897    1.6807 H   0  0  0  0  0  0  0  0  0  0  0  0
    0.3916   -2.2356   -0.3972 H   0  0  0  0  0  0  0  0  0  0  0  0
   -1.2671   -1.0692    1.6016 H   0  0  0  0  0  0  0  0  0  0  0  0
    0.1591    0.0722   -1.3859 H   0  0  0  0  0  0  0  0  0  0  0  0
   -2.8229    1.9254   -0.5883 H   0  0  0  0  0  0  0  0  0  0  0  0
   -2.1532    0.7767   -1.8618 H   0  0  0  0  0  0  0  0  0  0  0  0
   -1.1916    2.2578   -1.2469 H   0  0  0  0  0  0  0  0  0  0  0  0
  1  2  3  0
  2  3  1  0
  3  4  1  0
  4  5  1  0
  4  6  1  0
  6  7  1  0
  7  8  1  0
  6  3  1  0
  1  9  1  0
  3 10  1  0
  4 11  1  0
  5 12  1  0
  6 13  1  0
  8 14  1  0
  8 15  1  0
  8 16  1  0
M  END
