
     RDKit          3D

 19 19  0  0  0  0  0  0  0  0999 V2000
    3.3424   -0.5965   -2.1626 C   0  0  0  0  0  0  0  0  0  0  0  0
    2.5553   -0.1212   -1.3914 C   0  0  0  0  0  0  0  0  0  0  0  0
    1.6029    0.4380   -0.4371 C   0  0  0  0  0  0  0  0  0  0  0  0
    1.2974   -0.4485    0.7535 C   0  0  0  0  0  0  0  0  0  0  0  0
   -0.0594    0.1491    0.5028 C   0  0  0  0  0  0  0  0  0  0  0  0
   -1.2249   -0.7589    0.8160 C   0  0  0  0  0  0  0  0  0  0  0  0
   -2.5454   -0.1019    0.5439 C   0  0  0  0  0  0  0  0  0  0  0  0
   -2.6186    0.2527   -0.8204 O   0  0  0  0  0  0  0  0  0  0  0  0
    0.2721    0.2185   -0.8510 O   0  0  0  0  0  0  0  0  0  0  0  0
    4.0507   -1.0079   -2.8381 H   0  0  0  0  0  0  0  0  0  0  0  0
    1.8113    1.4692   -0.0986 H   0  0  0  0  0  0  0  0  0  0  0  0
    1.3274   -1.5320    0.5546 H   0  0  0  0  0  0  0  0  0  0  0  0
    1.7997   -0.1315    1.6849 H   0  0  0  0  0  0  0  0  0  0  0  0
   -0.1479    1.1180    1.0191 H   0  0  0  0  0  0  0  0  0  0  0  0
   -1.1937   -0.9872    1.9140 H   0  0  0  0  0  0  0  0  0  0  0  0
   -1.1817   -1.7105    0.2675 H   0  0  0  0  0  0  0  0  0  0  0  0
   -3.3343   -0.8643    0.7030 H   0  0  0  0  0  0  0  0  0  0  0  0
   -2.7643    0.7559    1.1949 H   0  0  0  0  0  0  0  0  0  0  0  0
   -2.9888   -0.4817   -1.3549 H   0  0  0  0  0  0  0  0  0  0  0  0
  1  2  3  0
  2  3  1  0
  3  4  1  0
  4  5  1  0
  5  6  1  0
  6  7  1  0
  7  8  1  0
  5  9  1  0
  9  3  1  0
  1 10  1  0
  3 11  1  0
  4 12  1  0
  4 13  1  0
  5 14  1  0
  6 15  1  0
  6 16  1  0
  7 17  1  0
  7 18  1  0
  8 19  1  0
M  END
