
     RDKit          3D

 21 21  0  0  0  0  0  0  0  0999 V2000
   -1.3529    2.9347    1.6357 C   0  0  0  0  0  0  0  0  0  0  0  0
   -0.5595    1.3070    1.8924 C   0  0  0  0  0  0  0  0  0  0  0  0
    0.1025   -0.0804    2.0970 C   0  0  0  0  0  0  0  0  0  0  0  0
    0.4940    0.0366    0.4273 C   0  0  0  0  0  0  0  0  0  0  0  0
   -0.6740    0.2603   -0.4678 C   0  0  0  0  0  0  0  0  0  0  0  0
   -0.4374   -0.4595   -1.7614 C   0  0  0  0  0  0  0  0  0  0  0  0
    1.0509   -0.6764   -1.9486 C   0  0  0  0  0  0  0  0  0  0  0  0
    1.6854   -1.4233   -0.9284 O   0  0  0  0  0  0  0  0  0  0  0  0
    0.7542   -1.4218    0.1789 C   0  0  0  0  0  0  0  0  0  0  0  0
   -1.8967    4.0850    1.4416 H   0  0  0  0  0  0  0  0  0  0  0  0
    1.0153    0.3415    2.3974 H   0  0  0  0  0  0  0  0  0  0  0  0
   -0.7000   -0.6901    2.0465 H   0  0  0  0  0  0  0  0  0  0  0  0
    1.1472    0.8505    0.4586 H   0  0  0  0  0  0  0  0  0  0  0  0
   -1.5358   -0.4161    0.0268 H   0  0  0  0  0  0  0  0  0  0  0  0
   -1.0347    1.2667   -0.4549 H   0  0  0  0  0  0  0  0  0  0  0  0
   -0.7419    0.3070   -2.5706 H   0  0  0  0  0  0  0  0  0  0  0  0
   -1.0218   -1.3638   -1.8946 H   0  0  0  0  0  0  0  0  0  0  0  0
    1.2314   -1.3168   -2.8402 H   0  0  0  0  0  0  0  0  0  0  0  0
    1.5806    0.2860   -2.1039 H   0  0  0  0  0  0  0  0  0  0  0  0
   -0.1984   -1.8593   -0.2742 H   0  0  0  0  0  0  0  0  0  0  0  0
    1.0917   -1.9677    1.0394 H   0  0  0  0  0  0  0  0  0  0  0  0
  1  2  3  0
  2  3  1  0
  3  4  1  0
  4  5  1  0
  5  6  1  0
  6  7  1  0
  7  8  1  0
  8  9  1  0
  9  4  1  0
  1 10  1  0
  3 11  1  0
  3 12  1  0
  4 13  1  0
  5 14  1  0
  5 15  1  0
  6 16  1  0
  6 17  1  0
  7 18  1  0
  7 19  1  0
  9 20  1  0
  9 21  1  0
M  END
