
     RDKit          3D

 19 20  0  0  0  0  0  0  0  0999 V2000
    2.4318    1.2549    2.7262 C   0  0  0  0  0  0  0  0  0  0  0  0
    1.6840    0.3957    2.3810 C   0  0  0  0  0  0  0  0  0  0  0  0
    0.7790   -0.6659    1.9367 C   0  0  0  0  0  0  0  0  0  0  0  0
   -0.2595   -0.1614    0.9926 C   0  0  0  0  0  0  0  0  0  0  0  0
    0.2290    0.4580   -0.2818 C   0  0  0  0  0  0  0  0  0  0  0  0
    0.5891   -0.8191   -0.6743 O   0  0  0  0  0  0  0  0  0  0  0  0
   -0.6668   -1.0475   -0.1301 C   0  0  0  0  0  0  0  0  0  0  0  0
   -1.1194    0.1814   -0.8573 C   0  0  0  0  0  0  0  0  0  0  0  0
   -1.2328    0.0876   -2.3386 C   0  0  0  0  0  0  0  0  0  0  0  0
    3.1154    2.0221    3.0527 H   0  0  0  0  0  0  0  0  0  0  0  0
    1.3503   -1.5312    1.5528 H   0  0  0  0  0  0  0  0  0  0  0  0
    0.2529   -1.0253    2.8520 H   0  0  0  0  0  0  0  0  0  0  0  0
   -1.0608    0.4119    1.4601 H   0  0  0  0  0  0  0  0  0  0  0  0
    0.7758    1.3002   -0.3729 H   0  0  0  0  0  0  0  0  0  0  0  0
   -1.1468   -1.9322   -0.0798 H   0  0  0  0  0  0  0  0  0  0  0  0
   -1.9143    0.7586   -0.3728 H   0  0  0  0  0  0  0  0  0  0  0  0
   -1.2805    1.1406   -2.7378 H   0  0  0  0  0  0  0  0  0  0  0  0
   -2.1757   -0.4233   -2.6098 H   0  0  0  0  0  0  0  0  0  0  0  0
   -0.3504   -0.4051   -2.7591 H   0  0  0  0  0  0  0  0  0  0  0  0
  1  2  3  0
  2  3  1  0
  3  4  1  0
  4  5  1  0
  5  6  1  0
  6  7  1  0
  7  8  1  0
  8  9  1  0
  7  4  1  0
  8  5  1  0
  1 10  1  0
  3 11  1  0
  3 12  1  0
  4 13  1  0
  5 14  1  0
  7 15  1  0
  8 16  1  0
  9 17  1  0
  9 18  1  0
  9 19  1  0
M  END
