
     RDKit          3D

 21 22  0  0  0  0  0  0  0  0999 V2000
    2.4834   -2.0357   -0.0661 C   0  0  0  0  0  0  0  0  0  0  0  0
    1.7280   -1.1727   -0.4263 C   0  0  0  0  0  0  0  0  0  0  0  0
    0.8171   -0.1305   -0.8348 C   0  0  0  0  0  0  0  0  0  0  0  0
   -0.5262   -0.4800   -1.4354 C   0  0  0  0  0  0  0  0  0  0  0  0
   -1.1026   -0.1821   -0.0726 C   0  0  0  0  0  0  0  0  0  0  0  0
   -2.4107    0.5593   -0.0762 C   0  0  0  0  0  0  0  0  0  0  0  0
    0.1006    0.5725    0.3469 C   0  0  0  0  0  0  0  0  0  0  0  0
    0.6119    0.2495    1.7372 C   0  0  0  0  0  0  0  0  0  0  0  0
    1.0163    1.2848   -0.5366 C   0  0  0  0  0  0  0  0  0  0  0  0
    3.1415   -2.8159    0.2559 H   0  0  0  0  0  0  0  0  0  0  0  0
   -0.6026   -1.5160   -1.7728 H   0  0  0  0  0  0  0  0  0  0  0  0
   -0.8128    0.3067   -2.1705 H   0  0  0  0  0  0  0  0  0  0  0  0
   -1.2122   -1.1431    0.4845 H   0  0  0  0  0  0  0  0  0  0  0  0
   -2.1809    1.6594   -0.0851 H   0  0  0  0  0  0  0  0  0  0  0  0
   -3.0043    0.2970   -0.9772 H   0  0  0  0  0  0  0  0  0  0  0  0
   -2.9829    0.3591    0.8606 H   0  0  0  0  0  0  0  0  0  0  0  0
    0.6044    1.1852    2.3582 H   0  0  0  0  0  0  0  0  0  0  0  0
    0.0688   -0.5807    2.2106 H   0  0  0  0  0  0  0  0  0  0  0  0
    1.6964   -0.0240    1.6306 H   0  0  0  0  0  0  0  0  0  0  0  0
    1.9765    1.6009   -0.1441 H   0  0  0  0  0  0  0  0  0  0  0  0
    0.5905    2.0065   -1.2868 H   0  0  0  0  0  0  0  0  0  0  0  0
  1  2  3  0
  2  3  1  0
  3  4  1  0
  4  5  1  0
  5  6  1  0
  5  7  1  0
  7  8  1  0
  7  9  1  0
  7  3  1  0
  9  3  1  0
  1 10  1  0
  4 11  1  0
  4 12  1  0
  5 13  1  0
  6 14  1  0
  6 15  1  0
  6 16  1  0
  8 17  1  0
  8 18  1  0
  8 19  1  0
  9 20  1  0
  9 21  1  0
M  END
