
     RDKit          3D

 16 15  0  0  0  0  0  0  0  0999 V2000
   -1.9325   -1.8967    0.0009 C   0  0  0  0  0  0  0  0  0  0  0  0
   -1.2169   -0.8448    0.1850 C   0  0  0  0  0  0  0  0  0  0  0  0
   -0.4306    0.3034    0.4109 C   0  0  0  0  0  0  0  0  0  0  0  0
   -1.0104    1.4752   -0.3927 C   0  0  0  0  0  0  0  0  0  0  0  0
    0.9731    0.0698   -0.2408 C   0  0  0  0  0  0  0  0  0  0  0  0
    1.7355    1.1867   -0.0538 O   0  0  0  0  0  0  0  0  0  0  0  0
    1.5808   -1.1504    0.3844 C   0  0  0  0  0  0  0  0  0  0  0  0
    0.9699   -2.1866    0.3686 O   0  0  0  0  0  0  0  0  0  0  0  0
   -2.5564   -2.8075   -0.1644 H   0  0  0  0  0  0  0  0  0  0  0  0
   -0.3245    0.5259    1.4685 H   0  0  0  0  0  0  0  0  0  0  0  0
   -0.3442    2.3399   -0.4353 H   0  0  0  0  0  0  0  0  0  0  0  0
   -1.9807    1.8013    0.0446 H   0  0  0  0  0  0  0  0  0  0  0  0
   -1.2707    1.0528   -1.3953 H   0  0  0  0  0  0  0  0  0  0  0  0
    0.7548   -0.1247   -1.3042 H   0  0  0  0  0  0  0  0  0  0  0  0
    2.5018    1.3080   -0.6732 H   0  0  0  0  0  0  0  0  0  0  0  0
    2.5511   -1.0523    0.8267 H   0  0  0  0  0  0  0  0  0  0  0  0
  1  2  3  0
  2  3  1  0
  3  4  1  0
  3  5  1  0
  5  6  1  0
  5  7  1  0
  7  8  2  0
  1  9  1  0
  3 10  1  0
  4 11  1  0
  4 12  1  0
  4 13  1  0
  5 14  1  0
  6 15  1  0
  7 16  1  0
M  END
