
     RDKit          3D

 17 18  0  0  0  0  0  0  0  0999 V2000
    2.3999   -1.3885    1.5343 C   0  0  0  0  0  0  0  0  0  0  0  0
    1.3321   -1.0933    1.0596 C   0  0  0  0  0  0  0  0  0  0  0  0
    0.0382   -0.7145    0.4650 C   0  0  0  0  0  0  0  0  0  0  0  0
   -0.3790    0.6741    0.9000 C   0  0  0  0  0  0  0  0  0  0  0  0
   -1.3531    1.1462   -0.1297 C   0  0  0  0  0  0  0  0  0  0  0  0
   -0.1034    1.0734   -0.9486 C   0  0  0  0  0  0  0  0  0  0  0  0
    0.5869    1.4567    0.2260 O   0  0  0  0  0  0  0  0  0  0  0  0
    0.2166   -0.3982   -1.0336 C   0  0  0  0  0  0  0  0  0  0  0  0
   -0.7037   -1.0332   -1.8119 O   0  0  0  0  0  0  0  0  0  0  0  0
    3.3512   -1.6418    1.9669 H   0  0  0  0  0  0  0  0  0  0  0  0
   -0.7109   -1.4795    0.6367 H   0  0  0  0  0  0  0  0  0  0  0  0
   -0.5396    0.8691    1.9325 H   0  0  0  0  0  0  0  0  0  0  0  0
   -2.1627    0.4571   -0.3682 H   0  0  0  0  0  0  0  0  0  0  0  0
   -1.6682    2.1937    0.0841 H   0  0  0  0  0  0  0  0  0  0  0  0
    0.0151    1.6874   -1.8102 H   0  0  0  0  0  0  0  0  0  0  0  0
    1.2513   -0.6179   -1.2877 H   0  0  0  0  0  0  0  0  0  0  0  0
   -1.5706   -1.1907   -1.4150 H   0  0  0  0  0  0  0  0  0  0  0  0
  1  2  3  0
  2  3  1  0
  3  4  1  0
  4  5  1  0
  5  6  1  0
  6  7  1  0
  6  8  1  0
  8  9  1  0
  8  3  1  0
  7  4  1  0
  1 10  1  0
  3 11  1  0
  4 12  1  0
  5 13  1  0
  5 14  1  0
  6 15  1  0
  8 16  1  0
  9 17  1  0
M  END
