
     RDKit          3D

 19 19  0  0  0  0  0  0  0  0999 V2000
    3.0689    0.8379   -0.6067 C   0  0  0  0  0  0  0  0  0  0  0  0
    2.1832    0.1484   -0.1557 C   0  0  0  0  0  0  0  0  0  0  0  0
    1.1219   -0.6903    0.3881 C   0  0  0  0  0  0  0  0  0  0  0  0
    0.4098   -1.4989   -0.6387 C   0  0  0  0  0  0  0  0  0  0  0  0
   -0.7009   -0.6136   -1.0764 C   0  0  0  0  0  0  0  0  0  0  0  0
   -0.9510    0.3428   -0.2127 C   0  0  0  0  0  0  0  0  0  0  0  0
   -1.9698    1.4289   -0.2656 C   0  0  0  0  0  0  0  0  0  0  0  0
    0.0058    0.1967    0.9450 C   0  0  0  0  0  0  0  0  0  0  0  0
   -0.6355   -0.5138    1.9292 O   0  0  0  0  0  0  0  0  0  0  0  0
    3.8368    1.4437   -1.0185 H   0  0  0  0  0  0  0  0  0  0  0  0
    1.5141   -1.3385    1.2065 H   0  0  0  0  0  0  0  0  0  0  0  0
   -0.0364   -2.3883   -0.1275 H   0  0  0  0  0  0  0  0  0  0  0  0
    1.0485   -1.8206   -1.4822 H   0  0  0  0  0  0  0  0  0  0  0  0
   -1.2282   -0.7686   -2.0153 H   0  0  0  0  0  0  0  0  0  0  0  0
   -2.1898    1.7224   -1.3235 H   0  0  0  0  0  0  0  0  0  0  0  0
   -2.9315    1.1115    0.2332 H   0  0  0  0  0  0  0  0  0  0  0  0
   -1.6331    2.3176    0.2948 H   0  0  0  0  0  0  0  0  0  0  0  0
    0.4177    1.1648    1.2623 H   0  0  0  0  0  0  0  0  0  0  0  0
   -1.3305   -1.0821    1.5153 H   0  0  0  0  0  0  0  0  0  0  0  0
  1  2  3  0
  2  3  1  0
  3  4  1  0
  4  5  1  0
  5  6  2  0
  6  7  1  0
  6  8  1  0
  8  9  1  0
  8  3  1  0
  1 10  1  0
  3 11  1  0
  4 12  1  0
  4 13  1  0
  5 14  1  0
  7 15  1  0
  7 16  1  0
  7 17  1  0
  8 18  1  0
  9 19  1  0
M  END
