
     RDKit          3D

 20 19  0  0  0  0  0  0  0  0999 V2000
    1.7931    2.3376   -0.7751 C   0  0  0  0  0  0  0  0  0  0  0  0
    1.3975    1.2244   -0.5404 C   0  0  0  0  0  0  0  0  0  0  0  0
    0.8947   -0.1442   -0.2329 C   0  0  0  0  0  0  0  0  0  0  0  0
    0.6003   -0.7999   -1.5344 C   0  0  0  0  0  0  0  0  0  0  0  0
   -0.3389   -0.0191    0.6485 C   0  0  0  0  0  0  0  0  0  0  0  0
   -1.4582    0.7305    0.0176 C   0  0  0  0  0  0  0  0  0  0  0  0
   -0.7848   -1.3927    1.1014 C   0  0  0  0  0  0  0  0  0  0  0  0
    0.1015    0.7072    1.7779 O   0  0  0  0  0  0  0  0  0  0  0  0
    2.1385    3.3493   -0.9846 H   0  0  0  0  0  0  0  0  0  0  0  0
    1.6289   -0.7454    0.3219 H   0  0  0  0  0  0  0  0  0  0  0  0
    1.1019   -0.2242   -2.3530 H   0  0  0  0  0  0  0  0  0  0  0  0
    0.9196   -1.8645   -1.5002 H   0  0  0  0  0  0  0  0  0  0  0  0
   -0.4944   -0.7742   -1.7339 H   0  0  0  0  0  0  0  0  0  0  0  0
   -1.6845    1.6562    0.6162 H   0  0  0  0  0  0  0  0  0  0  0  0
   -2.4032    0.1271    0.1476 H   0  0  0  0  0  0  0  0  0  0  0  0
   -1.3439    0.9844   -1.0406 H   0  0  0  0  0  0  0  0  0  0  0  0
   -0.2628   -2.1771    0.4738 H   0  0  0  0  0  0  0  0  0  0  0  0
   -0.4623   -1.5746    2.1477 H   0  0  0  0  0  0  0  0  0  0  0  0
   -1.8859   -1.4990    1.0149 H   0  0  0  0  0  0  0  0  0  0  0  0
    0.5429    0.0981    2.4277 H   0  0  0  0  0  0  0  0  0  0  0  0
  1  2  3  0
  2  3  1  0
  3  4  1  0
  3  5  1  0
  5  6  1  0
  5  7  1  0
  5  8  1  0
  1  9  1  0
  3 10  1  0
  4 11  1  0
  4 12  1  0
  4 13  1  0
  6 14  1  0
  6 15  1  0
  6 16  1  0
  7 17  1  0
  7 18  1  0
  7 19  1  0
  8 20  1  0
M  END
