
     RDKit          3D

 19 21  0  0  0  0  0  0  0  0999 V2000
    3.0125    0.8859    1.5219 C   0  0  0  0  0  0  0  0  0  0  0  0
    2.2718    0.6555    0.5935 C   0  0  0  0  0  0  0  0  0  0  0  0
    1.3830    0.3859   -0.5569 C   0  0  0  0  0  0  0  0  0  0  0  0
    1.1058   -1.1070   -0.8602 C   0  0  0  0  0  0  0  0  0  0  0  0
    0.1014   -0.2209   -0.3020 C   0  0  0  0  0  0  0  0  0  0  0  0
   -0.5430   -0.3834    1.0233 C   0  0  0  0  0  0  0  0  0  0  0  0
   -1.8806   -0.3572    0.3106 C   0  0  0  0  0  0  0  0  0  0  0  0
   -2.2446    0.8948   -0.3498 C   0  0  0  0  0  0  0  0  0  0  0  0
   -1.1760    0.1228   -0.9874 C   0  0  0  0  0  0  0  0  0  0  0  0
    3.6526    1.0989    2.3482 H   0  0  0  0  0  0  0  0  0  0  0  0
    1.5060    1.0159   -1.4590 H   0  0  0  0  0  0  0  0  0  0  0  0
    1.0442   -1.3841   -1.9326 H   0  0  0  0  0  0  0  0  0  0  0  0
    1.5745   -1.8452   -0.1849 H   0  0  0  0  0  0  0  0  0  0  0  0
   -0.3433   -1.3202    1.5772 H   0  0  0  0  0  0  0  0  0  0  0  0
   -0.3956    0.5332    1.6489 H   0  0  0  0  0  0  0  0  0  0  0  0
   -2.4371   -1.3020    0.1801 H   0  0  0  0  0  0  0  0  0  0  0  0
   -2.0334    1.8308    0.2258 H   0  0  0  0  0  0  0  0  0  0  0  0
   -3.2106    0.9389   -0.8920 H   0  0  0  0  0  0  0  0  0  0  0  0
   -1.3875   -0.4426   -1.9044 H   0  0  0  0  0  0  0  0  0  0  0  0
  1  2  3  0
  2  3  1  0
  3  4  1  0
  4  5  1  0
  5  6  1  0
  6  7  1  0
  7  8  1  0
  8  9  1  0
  5  3  1  0
  9  7  1  0
  9  5  1  0
  1 10  1  0
  3 11  1  0
  4 12  1  0
  4 13  1  0
  6 14  1  0
  6 15  1  0
  7 16  1  0
  8 17  1  0
  8 18  1  0
  9 19  1  0
M  END
