
     RDKit          3D

 18 18  0  0  0  0  0  0  0  0999 V2000
    3.1062   -0.8338   -1.5633 C   0  0  0  0  0  0  0  0  0  0  0  0
    2.0595   -0.5391   -1.1039 C   0  0  0  0  0  0  0  0  0  0  0  0
    0.7839   -0.1956   -0.5246 C   0  0  0  0  0  0  0  0  0  0  0  0
    0.2924    1.0153   -0.7540 C   0  0  0  0  0  0  0  0  0  0  0  0
   -1.0196    1.4516   -0.1930 C   0  0  0  0  0  0  0  0  0  0  0  0
   -1.1434    0.7198    1.1508 C   0  0  0  0  0  0  0  0  0  0  0  0
   -1.2453   -0.7556    0.7952 C   0  0  0  0  0  0  0  0  0  0  0  0
    0.0825   -1.2265    0.3037 C   0  0  0  0  0  0  0  0  0  0  0  0
    4.0767   -1.1145   -2.0097 H   0  0  0  0  0  0  0  0  0  0  0  0
    0.8280    1.7242   -1.3580 H   0  0  0  0  0  0  0  0  0  0  0  0
   -1.8303    1.0613   -0.8243 H   0  0  0  0  0  0  0  0  0  0  0  0
   -1.0536    2.5496   -0.0392 H   0  0  0  0  0  0  0  0  0  0  0  0
   -1.9846    1.0808    1.7440 H   0  0  0  0  0  0  0  0  0  0  0  0
   -0.1663    0.8357    1.7009 H   0  0  0  0  0  0  0  0  0  0  0  0
   -2.0676   -0.9035    0.0532 H   0  0  0  0  0  0  0  0  0  0  0  0
   -1.4951   -1.3458    1.7210 H   0  0  0  0  0  0  0  0  0  0  0  0
    0.7353   -1.3875    1.2079 H   0  0  0  0  0  0  0  0  0  0  0  0
    0.0414   -2.1365   -0.3068 H   0  0  0  0  0  0  0  0  0  0  0  0
  1  2  3  0
  2  3  1  0
  3  4  2  0
  4  5  1  0
  5  6  1  0
  6  7  1  0
  7  8  1  0
  8  3  1  0
  1  9  1  0
  4 10  1  0
  5 11  1  0
  5 12  1  0
  6 13  1  0
  6 14  1  0
  7 15  1  0
  7 16  1  0
  8 17  1  0
  8 18  1  0
M  END
