
     RDKit          3D

 17 18  0  0  0  0  0  0  0  0999 V2000
    1.0563   -1.3139    2.9184 C   0  0  0  0  0  0  0  0  0  0  0  0
    0.8955   -1.0627    1.5695 C   0  0  0  0  0  0  0  0  0  0  0  0
    0.7186   -0.8288    0.2080 C   0  0  0  0  0  0  0  0  0  0  0  0
    1.9372   -0.4340   -0.4456 O   0  0  0  0  0  0  0  0  0  0  0  0
   -0.3751   -1.3659   -0.6125 C   0  0  0  0  0  0  0  0  0  0  0  0
   -0.3863    0.0466   -0.2232 C   0  0  0  0  0  0  0  0  0  0  0  0
   -0.3064    1.0700   -1.2813 C   0  0  0  0  0  0  0  0  0  0  0  0
   -1.3324    1.7091   -0.3390 C   0  0  0  0  0  0  0  0  0  0  0  0
   -1.2322    0.6893    0.5855 O   0  0  0  0  0  0  0  0  0  0  0  0
    1.1765   -1.4760    3.8706 H   0  0  0  0  0  0  0  0  0  0  0  0
    2.5497   -0.1538    0.2749 H   0  0  0  0  0  0  0  0  0  0  0  0
   -0.9856   -2.1506   -0.1082 H   0  0  0  0  0  0  0  0  0  0  0  0
   -0.2518   -1.5684   -1.7292 H   0  0  0  0  0  0  0  0  0  0  0  0
    0.5876    1.6687   -1.4303 H   0  0  0  0  0  0  0  0  0  0  0  0
   -0.8061    0.6921   -2.2298 H   0  0  0  0  0  0  0  0  0  0  0  0
   -2.3125    1.7802   -0.8633 H   0  0  0  0  0  0  0  0  0  0  0  0
   -0.9328    2.6979    0.0291 H   0  0  0  0  0  0  0  0  0  0  0  0
  1  2  3  0
  2  3  1  0
  3  4  1  0
  3  5  1  0
  5  6  1  0
  6  7  1  0
  7  8  1  0
  8  9  1  0
  6  3  1  0
  9  6  1  0
  1 10  1  0
  4 11  1  0
  5 12  1  0
  5 13  1  0
  7 14  1  0
  7 15  1  0
  8 16  1  0
  8 17  1  0
M  END
