
     RDKit          3D

 15 15  0  0  0  0  0  0  0  0999 V2000
    1.1641    1.9241    1.2056 C   0  0  0  0  0  0  0  0  0  0  0  0
    0.6328    0.8297    0.9792 C   0  0  0  0  0  0  0  0  0  0  0  0
    0.0111   -0.4555    0.7388 C   0  0  0  0  0  0  0  0  0  0  0  0
   -0.7423   -0.9540    1.8026 O   0  0  0  0  0  0  0  0  0  0  0  0
    1.0547   -1.4061    0.2419 C   0  0  0  0  0  0  0  0  0  0  0  0
    2.0067   -1.9834    0.8200 O   0  0  0  0  0  0  0  0  0  0  0  0
    0.4660   -1.2987   -1.0083 O   0  0  0  0  0  0  0  0  0  0  0  0
   -0.6975   -0.5838   -0.5668 C   0  0  0  0  0  0  0  0  0  0  0  0
   -0.8970    0.7207   -1.3411 C   0  0  0  0  0  0  0  0  0  0  0  0
    1.6103    2.8735    1.4105 H   0  0  0  0  0  0  0  0  0  0  0  0
   -0.1086   -1.4969    2.3632 H   0  0  0  0  0  0  0  0  0  0  0  0
   -1.5768   -1.2479   -0.5454 H   0  0  0  0  0  0  0  0  0  0  0  0
   -1.9499    0.6841   -1.7074 H   0  0  0  0  0  0  0  0  0  0  0  0
   -0.7952    1.5880   -0.6409 H   0  0  0  0  0  0  0  0  0  0  0  0
   -0.1785    0.8061   -2.1632 H   0  0  0  0  0  0  0  0  0  0  0  0
  1  2  3  0
  2  3  1  0
  3  4  1  0
  3  5  1  0
  5  6  2  0
  5  7  1  0
  7  8  1  0
  8  9  1  0
  8  3  1  0
  1 10  1  0
  4 11  1  0
  8 12  1  0
  9 13  1  0
  9 14  1  0
  9 15  1  0
M  END
