
     RDKit          3D

 21 20  0  0  0  0  0  0  0  0999 V2000
   -4.4881   -1.2169    1.3408 C   0  0  0  0  0  0  0  0  0  0  0  0
   -3.3553   -1.0121    1.1436 C   0  0  0  0  0  0  0  0  0  0  0  0
   -1.8733   -0.7450    0.9068 C   0  0  0  0  0  0  0  0  0  0  0  0
   -1.6484    0.6609    0.5420 C   0  0  0  0  0  0  0  0  0  0  0  0
   -0.0890    1.0250    0.6156 C   0  0  0  0  0  0  0  0  0  0  0  0
    0.5431    0.3130   -0.4657 C   0  0  0  0  0  0  0  0  0  0  0  0
    1.7471    0.1294   -0.7700 C   0  0  0  0  0  0  0  0  0  0  0  0
    3.0101   -0.0420   -1.0784 C   0  0  0  0  0  0  0  0  0  0  0  0
    4.3813   -0.2373   -1.4205 C   0  0  0  0  0  0  0  0  0  0  0  0
   -5.6028   -1.4058    1.5332 H   0  0  0  0  0  0  0  0  0  0  0  0
   -1.5775   -1.5475    0.1684 H   0  0  0  0  0  0  0  0  0  0  0  0
   -1.4502   -1.0666    1.9018 H   0  0  0  0  0  0  0  0  0  0  0  0
   -2.3300    1.3904    0.8462 H   0  0  0  0  0  0  0  0  0  0  0  0
   -1.8640    0.6157   -0.6323 H   0  0  0  0  0  0  0  0  0  0  0  0
    0.2422    0.8317    1.6929 H   0  0  0  0  0  0  0  0  0  0  0  0
   -0.0604    2.1248    0.4827 H   0  0  0  0  0  0  0  0  0  0  0  0
    0.1471    1.1933   -1.4057 H   0  0  0  0  0  0  0  0  0  0  0  0
   -0.2109   -0.4567   -1.0248 H   0  0  0  0  0  0  0  0  0  0  0  0
    4.7830    0.4039   -2.2575 H   0  0  0  0  0  0  0  0  0  0  0  0
    4.9668    0.1705   -0.5054 H   0  0  0  0  0  0  0  0  0  0  0  0
    4.7290   -1.2762   -1.6138 H   0  0  0  0  0  0  0  0  0  0  0  0
  1  2  3  0
  2  3  1  0
  3  4  1  0
  4  5  1  0
  5  6  1  0
  6  7  1  0
  7  8  3  0
  8  9  1  0
  1 10  1  0
  3 11  1  0
  3 12  1  0
  4 13  1  0
  4 14  1  0
  5 15  1  0
  5 16  1  0
  6 17  1  0
  6 18  1  0
  9 19  1  0
  9 20  1  0
  9 21  1  0
M  END
