
     RDKit          3D

 17 18  0  0  0  0  0  0  0  0999 V2000
    2.4977    1.3991   -0.2220 C   0  0  0  0  0  0  0  0  0  0  0  0
    1.3513    1.1532   -0.3402 C   0  0  0  0  0  0  0  0  0  0  0  0
   -0.0859    0.8201   -0.4981 C   0  0  0  0  0  0  0  0  0  0  0  0
   -0.2911    0.0674   -1.7650 C   0  0  0  0  0  0  0  0  0  0  0  0
   -0.7649   -1.1454   -1.5459 C   0  0  0  0  0  0  0  0  0  0  0  0
   -0.9295   -1.3377   -0.0835 C   0  0  0  0  0  0  0  0  0  0  0  0
   -1.9771   -0.3726    0.4032 O   0  0  0  0  0  0  0  0  0  0  0  0
   -0.5089   -0.1825    0.5407 C   0  0  0  0  0  0  0  0  0  0  0  0
   -0.1032   -0.0287    1.9624 C   0  0  0  0  0  0  0  0  0  0  0  0
    3.5475    1.6402   -0.1217 H   0  0  0  0  0  0  0  0  0  0  0  0
   -0.6774    1.7408   -0.4324 H   0  0  0  0  0  0  0  0  0  0  0  0
   -0.0708    0.4883   -2.7334 H   0  0  0  0  0  0  0  0  0  0  0  0
   -1.0073   -1.9042   -2.2743 H   0  0  0  0  0  0  0  0  0  0  0  0
   -1.1210   -2.3281    0.3249 H   0  0  0  0  0  0  0  0  0  0  0  0
   -0.9733    0.2235    2.5864 H   0  0  0  0  0  0  0  0  0  0  0  0
    0.7095    0.7460    2.0679 H   0  0  0  0  0  0  0  0  0  0  0  0
    0.4044   -0.9794    2.2989 H   0  0  0  0  0  0  0  0  0  0  0  0
  1  2  3  0
  2  3  1  0
  3  4  1  0
  4  5  2  0
  5  6  1  0
  6  7  1  0
  7  8  1  0
  8  9  1  0
  8  3  1  0
  8  6  1  0
  1 10  1  0
  3 11  1  0
  4 12  1  0
  5 13  1  0
  6 14  1  0
  9 15  1  0
  9 16  1  0
  9 17  1  0
M  END
