
     RDKit          3D

 19 20  0  0  0  0  0  0  0  0999 V2000
    3.8435   -0.9260    0.9832 C   0  0  0  0  0  0  0  0  0  0  0  0
    2.6668   -1.0959    0.7990 C   0  0  0  0  0  0  0  0  0  0  0  0
    1.2335   -1.2811    0.5612 C   0  0  0  0  0  0  0  0  0  0  0  0
    0.3912   -0.0731    0.9653 C   0  0  0  0  0  0  0  0  0  0  0  0
   -0.3151   -0.4662   -0.2991 C   0  0  0  0  0  0  0  0  0  0  0  0
   -0.7998    0.6345   -1.1720 C   0  0  0  0  0  0  0  0  0  0  0  0
   -1.7795    1.6443   -0.7071 C   0  0  0  0  0  0  0  0  0  0  0  0
   -2.3093    0.5359   -1.4990 C   0  0  0  0  0  0  0  0  0  0  0  0
    0.8968   -0.9791   -0.7597 O   0  0  0  0  0  0  0  0  0  0  0  0
    4.8989   -0.7886    1.1598 H   0  0  0  0  0  0  0  0  0  0  0  0
    0.8441   -2.2502    0.9058 H   0  0  0  0  0  0  0  0  0  0  0  0
    1.0234    0.8356    0.8973 H   0  0  0  0  0  0  0  0  0  0  0  0
   -0.1711   -0.2023    1.8946 H   0  0  0  0  0  0  0  0  0  0  0  0
   -1.0496   -1.2670   -0.0864 H   0  0  0  0  0  0  0  0  0  0  0  0
   -0.1380    0.9517   -2.0047 H   0  0  0  0  0  0  0  0  0  0  0  0
   -1.7486    2.6440   -1.1762 H   0  0  0  0  0  0  0  0  0  0  0  0
   -2.0545    1.6973    0.3734 H   0  0  0  0  0  0  0  0  0  0  0  0
   -2.9031   -0.2221   -0.9702 H   0  0  0  0  0  0  0  0  0  0  0  0
   -2.5296    0.6084   -2.5772 H   0  0  0  0  0  0  0  0  0  0  0  0
  1  2  3  0
  2  3  1  0
  3  4  1  0
  4  5  1  0
  5  6  1  0
  6  7  1  0
  7  8  1  0
  5  9  1  0
  9  3  1  0
  8  6  1  0
  1 10  1  0
  3 11  1  0
  4 12  1  0
  4 13  1  0
  5 14  1  0
  6 15  1  0
  7 16  1  0
  7 17  1  0
  8 18  1  0
  8 19  1  0
M  END
