
     RDKit          3D

 21 21  0  0  0  0  0  0  0  0999 V2000
    3.6551    0.6141    0.5031 C   0  0  0  0  0  0  0  0  0  0  0  0
    2.6642    0.0682    0.0876 C   0  0  0  0  0  0  0  0  0  0  0  0
    1.4201   -0.5924   -0.4154 C   0  0  0  0  0  0  0  0  0  0  0  0
    0.6906    0.3714   -1.2377 C   0  0  0  0  0  0  0  0  0  0  0  0
   -0.4672    0.8760   -0.9282 C   0  0  0  0  0  0  0  0  0  0  0  0
   -1.1653    0.5040    0.3230 C   0  0  0  0  0  0  0  0  0  0  0  0
   -2.6509    0.6000    0.0893 C   0  0  0  0  0  0  0  0  0  0  0  0
   -0.8447   -0.9511    0.5814 C   0  0  0  0  0  0  0  0  0  0  0  0
    0.6442   -1.0464    0.7821 C   0  0  0  0  0  0  0  0  0  0  0  0
    4.5222    1.0932    0.8749 H   0  0  0  0  0  0  0  0  0  0  0  0
    1.8127   -1.4572   -1.0118 H   0  0  0  0  0  0  0  0  0  0  0  0
    1.1509    0.6901   -2.1789 H   0  0  0  0  0  0  0  0  0  0  0  0
   -0.9941    1.6066   -1.5722 H   0  0  0  0  0  0  0  0  0  0  0  0
   -0.8202    1.1531    1.1462 H   0  0  0  0  0  0  0  0  0  0  0  0
   -3.0116   -0.3500   -0.3966 H   0  0  0  0  0  0  0  0  0  0  0  0
   -3.1413    0.7614    1.0636 H   0  0  0  0  0  0  0  0  0  0  0  0
   -2.9075    1.4839   -0.5563 H   0  0  0  0  0  0  0  0  0  0  0  0
   -1.3767   -1.3540    1.4440 H   0  0  0  0  0  0  0  0  0  0  0  0
   -1.0934   -1.5116   -0.3425 H   0  0  0  0  0  0  0  0  0  0  0  0
    0.9535   -2.1054    1.0056 H   0  0  0  0  0  0  0  0  0  0  0  0
    0.9595   -0.4538    1.6880 H   0  0  0  0  0  0  0  0  0  0  0  0
  1  2  3  0
  2  3  1  0
  3  4  1  0
  4  5  2  0
  5  6  1  0
  6  7  1  0
  6  8  1  0
  8  9  1  0
  9  3  1  0
  1 10  1  0
  3 11  1  0
  4 12  1  0
  5 13  1  0
  6 14  1  0
  7 15  1  0
  7 16  1  0
  7 17  1  0
  8 18  1  0
  8 19  1  0
  9 20  1  0
  9 21  1  0
M  END
