
     RDKit          3D

 22 21  0  0  0  0  0  0  0  0999 V2000
   -0.9371    2.4259    0.8937 C   0  0  0  0  0  0  0  0  0  0  0  0
   -0.8056    1.6519    0.2343 C   0  0  0  0  0  0  0  0  0  0  0  0
   -0.5956    0.5404   -0.6961 C   0  0  0  0  0  0  0  0  0  0  0  0
   -1.3138   -0.7524   -0.3606 C   0  0  0  0  0  0  0  0  0  0  0  0
   -2.7781   -0.4261   -0.1141 C   0  0  0  0  0  0  0  0  0  0  0  0
    0.9422    0.2064   -0.7584 C   0  0  0  0  0  0  0  0  0  0  0  0
    1.4754   -0.2898    0.5638 C   0  0  0  0  0  0  0  0  0  0  0  0
    2.8501   -0.8485    0.3075 C   0  0  0  0  0  0  0  0  0  0  0  0
   -1.0726    3.2842    1.6068 H   0  0  0  0  0  0  0  0  0  0  0  0
   -0.8128    0.8370   -1.7801 H   0  0  0  0  0  0  0  0  0  0  0  0
   -1.4619   -1.3756   -1.4151 H   0  0  0  0  0  0  0  0  0  0  0  0
   -0.9379   -1.4828    0.2875 H   0  0  0  0  0  0  0  0  0  0  0  0
   -3.2056   -1.3509    0.4462 H   0  0  0  0  0  0  0  0  0  0  0  0
   -3.3960   -0.2869   -0.9942 H   0  0  0  0  0  0  0  0  0  0  0  0
   -2.8482    0.4359    0.6530 H   0  0  0  0  0  0  0  0  0  0  0  0
    1.2518   -0.3833   -1.6559 H   0  0  0  0  0  0  0  0  0  0  0  0
    1.4163    1.2362   -0.9365 H   0  0  0  0  0  0  0  0  0  0  0  0
    0.8141   -0.9303    1.1383 H   0  0  0  0  0  0  0  0  0  0  0  0
    1.6832    0.6284    1.2200 H   0  0  0  0  0  0  0  0  0  0  0  0
    2.9724   -1.3289   -0.6847 H   0  0  0  0  0  0  0  0  0  0  0  0
    3.0502   -1.6784    1.0652 H   0  0  0  0  0  0  0  0  0  0  0  0
    3.7093   -0.1126    0.4487 H   0  0  0  0  0  0  0  0  0  0  0  0
  1  2  3  0
  2  3  1  0
  3  4  1  0
  4  5  1  0
  3  6  1  0
  6  7  1  0
  7  8  1  0
  1  9  1  0
  3 10  1  0
  4 11  1  0
  4 12  1  0
  5 13  1  0
  5 14  1  0
  5 15  1  0
  6 16  1  0
  6 17  1  0
  7 18  1  0
  7 19  1  0
  8 20  1  0
  8 21  1  0
  8 22  1  0
M  END
