
     RDKit          3D

 19 18  0  0  0  0  0  0  0  0999 V2000
    2.9593    0.4403    2.4639 C   0  0  0  0  0  0  0  0  0  0  0  0
    1.9375    0.6825    1.8682 C   0  0  0  0  0  0  0  0  0  0  0  0
    0.7366    0.9785    1.1410 C   0  0  0  0  0  0  0  0  0  0  0  0
   -0.0734    1.7674    1.6920 O   0  0  0  0  0  0  0  0  0  0  0  0
    0.5204    0.3660   -0.1671 C   0  0  0  0  0  0  0  0  0  0  0  0
    1.5995   -0.4486   -0.4764 O   0  0  0  0  0  0  0  0  0  0  0  0
   -0.7402   -0.4454   -0.2636 C   0  0  0  0  0  0  0  0  0  0  0  0
   -0.8185   -1.0081   -1.6669 C   0  0  0  0  0  0  0  0  0  0  0  0
   -1.9810    0.3531   -0.0064 C   0  0  0  0  0  0  0  0  0  0  0  0
    3.8553    0.2111    2.9984 H   0  0  0  0  0  0  0  0  0  0  0  0
    0.4946    1.2062   -0.9212 H   0  0  0  0  0  0  0  0  0  0  0  0
    1.8322   -0.9690    0.3320 H   0  0  0  0  0  0  0  0  0  0  0  0
   -0.7190   -1.2816    0.4577 H   0  0  0  0  0  0  0  0  0  0  0  0
   -0.2852   -0.3275   -2.3327 H   0  0  0  0  0  0  0  0  0  0  0  0
   -0.4392   -2.0504   -1.6780 H   0  0  0  0  0  0  0  0  0  0  0  0
   -1.9002   -1.0425   -1.9807 H   0  0  0  0  0  0  0  0  0  0  0  0
   -2.7875   -0.0344   -0.6609 H   0  0  0  0  0  0  0  0  0  0  0  0
   -2.3510    0.1826    1.0442 H   0  0  0  0  0  0  0  0  0  0  0  0
   -1.8402    1.4201   -0.2196 H   0  0  0  0  0  0  0  0  0  0  0  0
  1  2  3  0
  2  3  1  0
  3  4  2  0
  3  5  1  0
  5  6  1  0
  5  7  1  0
  7  8  1  0
  7  9  1  0
  1 10  1  0
  5 11  1  0
  6 12  1  0
  7 13  1  0
  8 14  1  0
  8 15  1  0
  8 16  1  0
  9 17  1  0
  9 18  1  0
  9 19  1  0
M  END
