
     RDKit          3D

 21 21  0  0  0  0  0  0  0  0999 V2000
    3.0490    0.5061   -1.8151 C   0  0  0  0  0  0  0  0  0  0  0  0
    2.1708    0.6292   -1.0049 C   0  0  0  0  0  0  0  0  0  0  0  0
    1.0971    0.8042   -0.0043 C   0  0  0  0  0  0  0  0  0  0  0  0
    1.4275    0.1005    1.1416 O   0  0  0  0  0  0  0  0  0  0  0  0
   -0.2233    0.3572   -0.5885 C   0  0  0  0  0  0  0  0  0  0  0  0
   -0.0821   -1.0991   -0.9581 C   0  0  0  0  0  0  0  0  0  0  0  0
   -1.3031    0.6289    0.3998 C   0  0  0  0  0  0  0  0  0  0  0  0
   -1.2529   -0.0095    1.7346 C   0  0  0  0  0  0  0  0  0  0  0  0
   -2.3306   -0.3558    0.7731 C   0  0  0  0  0  0  0  0  0  0  0  0
    3.8328    0.4086   -2.5330 H   0  0  0  0  0  0  0  0  0  0  0  0
    1.0980    1.8827    0.2678 H   0  0  0  0  0  0  0  0  0  0  0  0
    2.1924   -0.5152    1.0050 H   0  0  0  0  0  0  0  0  0  0  0  0
   -0.4031    0.9107   -1.5280 H   0  0  0  0  0  0  0  0  0  0  0  0
    0.9517   -1.2024   -1.4009 H   0  0  0  0  0  0  0  0  0  0  0  0
   -0.0567   -1.7582   -0.0525 H   0  0  0  0  0  0  0  0  0  0  0  0
   -0.7926   -1.4351   -1.7211 H   0  0  0  0  0  0  0  0  0  0  0  0
   -1.6765    1.6949    0.3493 H   0  0  0  0  0  0  0  0  0  0  0  0
   -1.4610    0.6548    2.5950 H   0  0  0  0  0  0  0  0  0  0  0  0
   -0.5532   -0.8172    1.9683 H   0  0  0  0  0  0  0  0  0  0  0  0
   -2.3381   -1.3753    0.3268 H   0  0  0  0  0  0  0  0  0  0  0  0
   -3.3462   -0.0101    1.0452 H   0  0  0  0  0  0  0  0  0  0  0  0
  1  2  3  0
  2  3  1  0
  3  4  1  0
  3  5  1  0
  5  6  1  0
  5  7  1  0
  7  8  1  0
  8  9  1  0
  9  7  1  0
  1 10  1  0
  3 11  1  0
  4 12  1  0
  5 13  1  0
  6 14  1  0
  6 15  1  0
  6 16  1  0
  7 17  1  0
  8 18  1  0
  8 19  1  0
  9 20  1  0
  9 21  1  0
M  END
