
     RDKit          3D

 19 19  0  0  0  0  0  0  0  0999 V2000
   -3.6777   -0.2897   -0.7719 C   0  0  0  0  0  0  0  0  0  0  0  0
   -2.6359   -0.1779   -0.1993 C   0  0  0  0  0  0  0  0  0  0  0  0
   -1.3635   -0.0514    0.4732 C   0  0  0  0  0  0  0  0  0  0  0  0
   -0.7517    1.3124    0.2598 C   0  0  0  0  0  0  0  0  0  0  0  0
    0.5644    1.2069    0.1995 C   0  0  0  0  0  0  0  0  0  0  0  0
    0.9324   -0.2019    0.3648 C   0  0  0  0  0  0  0  0  0  0  0  0
    2.1882   -0.5846   -0.3819 C   0  0  0  0  0  0  0  0  0  0  0  0
    3.2342    0.1801    0.0815 O   0  0  0  0  0  0  0  0  0  0  0  0
   -0.2791   -0.9226   -0.1811 C   0  0  0  0  0  0  0  0  0  0  0  0
   -4.6095   -0.3919   -1.2728 H   0  0  0  0  0  0  0  0  0  0  0  0
   -1.4553   -0.3085    1.5250 H   0  0  0  0  0  0  0  0  0  0  0  0
   -1.2869    2.2631    0.1651 H   0  0  0  0  0  0  0  0  0  0  0  0
    1.2538    2.0571    0.0484 H   0  0  0  0  0  0  0  0  0  0  0  0
    1.0688   -0.3880    1.4519 H   0  0  0  0  0  0  0  0  0  0  0  0
    2.3896   -1.6494   -0.1299 H   0  0  0  0  0  0  0  0  0  0  0  0
    1.9947   -0.4532   -1.4719 H   0  0  0  0  0  0  0  0  0  0  0  0
    3.1188    1.1147   -0.1999 H   0  0  0  0  0  0  0  0  0  0  0  0
   -0.3497   -1.9692    0.1376 H   0  0  0  0  0  0  0  0  0  0  0  0
   -0.3359   -0.7461   -1.2534 H   0  0  0  0  0  0  0  0  0  0  0  0
  1  2  3  0
  2  3  1  0
  3  4  1  0
  4  5  2  0
  5  6  1  0
  6  7  1  0
  7  8  1  0
  6  9  1  0
  9  3  1  0
  1 10  1  0
  3 11  1  0
  4 12  1  0
  5 13  1  0
  6 14  1  0
  7 15  1  0
  7 16  1  0
  8 17  1  0
  9 18  1  0
  9 19  1  0
M  END
