
     RDKit          3D

 19 18  0  0  0  0  0  0  0  0999 V2000
    1.3879   -1.5223    1.9468 C   0  0  0  0  0  0  0  0  0  0  0  0
    0.7274   -0.8600    1.1625 C   0  0  0  0  0  0  0  0  0  0  0  0
   -0.0731   -0.0882    0.2135 C   0  0  0  0  0  0  0  0  0  0  0  0
   -0.0231   -0.8067   -1.1182 C   0  0  0  0  0  0  0  0  0  0  0  0
   -1.5024    0.0020    0.6713 C   0  0  0  0  0  0  0  0  0  0  0  0
   -2.3488    0.7697   -0.2505 C   0  0  0  0  0  0  0  0  0  0  0  0
   -2.3350    1.9900   -0.2330 O   0  0  0  0  0  0  0  0  0  0  0  0
    0.4624    1.1590    0.0404 O   0  0  0  0  0  0  0  0  0  0  0  0
    1.7630    1.1454   -0.4507 C   0  0  0  0  0  0  0  0  0  0  0  0
    1.9526   -2.0894    2.6408 H   0  0  0  0  0  0  0  0  0  0  0  0
    0.9902   -1.2480   -1.2614 H   0  0  0  0  0  0  0  0  0  0  0  0
   -0.8266   -1.5498   -1.1811 H   0  0  0  0  0  0  0  0  0  0  0  0
   -0.1626   -0.0888   -1.9509 H   0  0  0  0  0  0  0  0  0  0  0  0
   -1.4737    0.5146    1.6754 H   0  0  0  0  0  0  0  0  0  0  0  0
   -1.9233   -1.0025    0.8670 H   0  0  0  0  0  0  0  0  0  0  0  0
   -3.0019    0.2818   -0.9641 H   0  0  0  0  0  0  0  0  0  0  0  0
    2.4138    0.6073    0.2448 H   0  0  0  0  0  0  0  0  0  0  0  0
    1.8426    0.6083   -1.4310 H   0  0  0  0  0  0  0  0  0  0  0  0
    2.1306    2.1778   -0.6216 H   0  0  0  0  0  0  0  0  0  0  0  0
  1  2  3  0
  2  3  1  0
  3  4  1  0
  3  5  1  0
  5  6  1  0
  6  7  2  0
  3  8  1  0
  8  9  1  0
  1 10  1  0
  4 11  1  0
  4 12  1  0
  4 13  1  0
  5 14  1  0
  5 15  1  0
  6 16  1  0
  9 17  1  0
  9 18  1  0
  9 19  1  0
M  END
