
     RDKit          3D

 22 21  0  0  0  0  0  0  0  0999 V2000
    2.9196   -0.8320    0.9338 C   0  0  0  0  0  0  0  0  0  0  0  0
    2.0944    0.1689    0.9689 C   0  0  0  0  0  0  0  0  0  0  0  0
    1.2873    1.1795    1.0024 C   0  0  0  0  0  0  0  0  0  0  0  0
    0.3315    1.1283   -0.2182 C   0  0  0  0  0  0  0  0  0  0  0  0
   -0.5726    0.0158   -0.3326 C   0  0  0  0  0  0  0  0  0  0  0  0
   -0.0188   -1.3780   -0.5375 C   0  0  0  0  0  0  0  0  0  0  0  0
   -1.5783    0.1922   -1.4944 C   0  0  0  0  0  0  0  0  0  0  0  0
   -1.4643   -0.1665    0.9441 C   0  0  0  0  0  0  0  0  0  0  0  0
    3.7039   -1.7825    0.8919 H   0  0  0  0  0  0  0  0  0  0  0  0
    1.9893    2.1839    0.6453 H   0  0  0  0  0  0  0  0  0  0  0  0
    0.9703    1.5670    1.9106 H   0  0  0  0  0  0  0  0  0  0  0  0
   -0.1592    2.0887   -0.3562 H   0  0  0  0  0  0  0  0  0  0  0  0
    1.1165    1.1661   -1.0841 H   0  0  0  0  0  0  0  0  0  0  0  0
   -0.9732   -2.0445   -0.8346 H   0  0  0  0  0  0  0  0  0  0  0  0
    0.6175   -1.4446   -1.4174 H   0  0  0  0  0  0  0  0  0  0  0  0
    0.3496   -1.8832    0.3458 H   0  0  0  0  0  0  0  0  0  0  0  0
   -2.4593    0.8363   -1.1983 H   0  0  0  0  0  0  0  0  0  0  0  0
   -2.0264   -0.8324   -1.5620 H   0  0  0  0  0  0  0  0  0  0  0  0
   -1.1132    0.5611   -2.3890 H   0  0  0  0  0  0  0  0  0  0  0  0
   -2.3367   -0.7569    0.5840 H   0  0  0  0  0  0  0  0  0  0  0  0
   -1.8194    0.8016    1.3226 H   0  0  0  0  0  0  0  0  0  0  0  0
   -0.8585   -0.7686    1.6167 H   0  0  0  0  0  0  0  0  0  0  0  0
  1  2  3  0
  2  3  1  0
  3  4  1  0
  4  5  1  0
  5  6  1  0
  5  7  1  0
  5  8  1  0
  1  9  1  0
  3 10  1  0
  3 11  1  0
  4 12  1  0
  4 13  1  0
  6 14  1  0
  6 15  1  0
  6 16  1  0
  7 17  1  0
  7 18  1  0
  7 19  1  0
  8 20  1  0
  8 21  1  0
  8 22  1  0
M  END
