
     RDKit          3D

 19 18  0  0  0  0  0  0  0  0999 V2000
    1.7754    1.8239   -0.6992 C   0  0  0  0  0  0  0  0  0  0  0  0
    1.0787    0.8620   -0.4764 C   0  0  0  0  0  0  0  0  0  0  0  0
    0.2207   -0.3156   -0.2194 C   0  0  0  0  0  0  0  0  0  0  0  0
    0.2781   -1.1866   -1.4539 C   0  0  0  0  0  0  0  0  0  0  0  0
    0.7188   -1.0587    0.9752 C   0  0  0  0  0  0  0  0  0  0  0  0
   -1.2045    0.1552   -0.0532 C   0  0  0  0  0  0  0  0  0  0  0  0
   -1.3558    1.1225    1.0997 C   0  0  0  0  0  0  0  0  0  0  0  0
    2.3982    2.6806   -0.8816 H   0  0  0  0  0  0  0  0  0  0  0  0
    0.8339   -2.1051   -1.1794 H   0  0  0  0  0  0  0  0  0  0  0  0
    0.8384   -0.6976   -2.2818 H   0  0  0  0  0  0  0  0  0  0  0  0
   -0.7332   -1.5121   -1.7807 H   0  0  0  0  0  0  0  0  0  0  0  0
    1.4042   -1.8711    0.6114 H   0  0  0  0  0  0  0  0  0  0  0  0
   -0.0641   -1.5172    1.5817 H   0  0  0  0  0  0  0  0  0  0  0  0
    1.3683   -0.3730    1.5549 H   0  0  0  0  0  0  0  0  0  0  0  0
   -1.8712   -0.6908    0.1229 H   0  0  0  0  0  0  0  0  0  0  0  0
   -1.5476    0.6828   -0.9588 H   0  0  0  0  0  0  0  0  0  0  0  0
   -0.7125    0.7126    1.9287 H   0  0  0  0  0  0  0  0  0  0  0  0
   -2.3840    1.1490    1.4797 H   0  0  0  0  0  0  0  0  0  0  0  0
   -1.0417    2.1391    0.8175 H   0  0  0  0  0  0  0  0  0  0  0  0
  1  2  3  0
  2  3  1  0
  3  4  1  0
  3  5  1  0
  3  6  1  0
  6  7  1  0
  1  8  1  0
  4  9  1  0
  4 10  1  0
  4 11  1  0
  5 12  1  0
  5 13  1  0
  5 14  1  0
  6 15  1  0
  6 16  1  0
  7 17  1  0
  7 18  1  0
  7 19  1  0
M  END
