
     RDKit          3D

 21 21  0  0  0  0  0  0  0  0999 V2000
    3.3408   -1.4702    0.6405 C   0  0  0  0  0  0  0  0  0  0  0  0
    2.3747   -0.7587    0.6492 C   0  0  0  0  0  0  0  0  0  0  0  0
    1.1839    0.1037    0.6825 C   0  0  0  0  0  0  0  0  0  0  0  0
    1.1128    0.9796   -0.5500 C   0  0  0  0  0  0  0  0  0  0  0  0
   -0.2029    1.7581   -0.4229 C   0  0  0  0  0  0  0  0  0  0  0  0
   -1.2937    0.7204   -0.6266 C   0  0  0  0  0  0  0  0  0  0  0  0
   -0.8565   -0.6364   -0.1288 C   0  0  0  0  0  0  0  0  0  0  0  0
   -2.1300   -1.3211    0.3879 C   0  0  0  0  0  0  0  0  0  0  0  0
    0.0259   -0.5937    0.9123 O   0  0  0  0  0  0  0  0  0  0  0  0
    4.2073   -2.1079    0.6410 H   0  0  0  0  0  0  0  0  0  0  0  0
    1.3488    0.7997    1.5478 H   0  0  0  0  0  0  0  0  0  0  0  0
    1.0092    0.3010   -1.4256 H   0  0  0  0  0  0  0  0  0  0  0  0
    1.9814    1.6314   -0.5985 H   0  0  0  0  0  0  0  0  0  0  0  0
   -0.2550    2.0626    0.6601 H   0  0  0  0  0  0  0  0  0  0  0  0
   -0.2618    2.5951   -1.1136 H   0  0  0  0  0  0  0  0  0  0  0  0
   -1.4551    0.6414   -1.7225 H   0  0  0  0  0  0  0  0  0  0  0  0
   -2.2436    1.0562   -0.1675 H   0  0  0  0  0  0  0  0  0  0  0  0
   -0.5108   -1.2795   -0.9815 H   0  0  0  0  0  0  0  0  0  0  0  0
   -2.5695   -1.9868   -0.3601 H   0  0  0  0  0  0  0  0  0  0  0  0
   -2.8971   -0.5771    0.6780 H   0  0  0  0  0  0  0  0  0  0  0  0
   -1.9088   -1.9179    1.2984 H   0  0  0  0  0  0  0  0  0  0  0  0
  1  2  3  0
  2  3  1  0
  3  4  1  0
  4  5  1  0
  5  6  1  0
  6  7  1  0
  7  8  1  0
  7  9  1  0
  9  3  1  0
  1 10  1  0
  3 11  1  0
  4 12  1  0
  4 13  1  0
  5 14  1  0
  5 15  1  0
  6 16  1  0
  6 17  1  0
  7 18  1  0
  8 19  1  0
  8 20  1  0
  8 21  1  0
M  END
