
     RDKit          3D

  8  7  0  0  0  0  0  0  0  0999 V2000
    2.8086   -0.8453   -0.0847 C   0  0  0  0  0  0  0  0  0  0  0  0
    1.6583   -0.5009   -0.0003 C   0  0  0  0  0  0  0  0  0  0  0  0
    0.3011   -0.0952    0.0936 C   0  0  0  0  0  0  0  0  0  0  0  0
   -0.8628    0.2746    0.1702 C   0  0  0  0  0  0  0  0  0  0  0  0
   -2.2318    0.7012    0.2790 C   0  0  0  0  0  0  0  0  0  0  0  0
   -2.9721    0.1510    1.1239 O   0  0  0  0  0  0  0  0  0  0  0  0
    3.8391   -1.1734   -0.1574 H   0  0  0  0  0  0  0  0  0  0  0  0
   -2.5404    1.4880   -0.3929 H   0  0  0  0  0  0  0  0  0  0  0  0
  1  2  3  0
  2  3  1  0
  3  4  3  0
  4  5  1  0
  5  6  2  0
  1  7  1  0
  5  8  1  0
M  END
