
     RDKit          3D

 17 18  0  0  0  0  0  0  0  0999 V2000
    2.7397   -1.3563   -1.4109 C   0  0  0  0  0  0  0  0  0  0  0  0
    1.6449   -1.2457   -0.9084 C   0  0  0  0  0  0  0  0  0  0  0  0
    0.3069   -1.0883   -0.3076 C   0  0  0  0  0  0  0  0  0  0  0  0
   -0.6747   -0.4109   -1.2401 C   0  0  0  0  0  0  0  0  0  0  0  0
   -0.6984    0.8255   -0.3801 C   0  0  0  0  0  0  0  0  0  0  0  0
   -1.8543    0.9925    0.3930 O   0  0  0  0  0  0  0  0  0  0  0  0
   -1.2871    1.1499    1.6607 C   0  0  0  0  0  0  0  0  0  0  0  0
   -0.4665    0.0262    1.7255 O   0  0  0  0  0  0  0  0  0  0  0  0
    0.2760    0.1432    0.5548 C   0  0  0  0  0  0  0  0  0  0  0  0
    3.7011   -1.4624   -1.8351 H   0  0  0  0  0  0  0  0  0  0  0  0
   -0.0319   -2.0246    0.1381 H   0  0  0  0  0  0  0  0  0  0  0  0
   -0.2267   -0.2249   -2.2424 H   0  0  0  0  0  0  0  0  0  0  0  0
   -1.6311   -0.9630   -1.3099 H   0  0  0  0  0  0  0  0  0  0  0  0
   -0.3357    1.7480   -0.8635 H   0  0  0  0  0  0  0  0  0  0  0  0
   -2.0508    1.1687    2.4575 H   0  0  0  0  0  0  0  0  0  0  0  0
   -0.6475    2.0305    1.6314 H   0  0  0  0  0  0  0  0  0  0  0  0
    1.2362    0.6917    0.6592 H   0  0  0  0  0  0  0  0  0  0  0  0
  1  2  3  0
  2  3  1  0
  3  4  1  0
  4  5  1  0
  5  6  1  0
  6  7  1  0
  7  8  1  0
  8  9  1  0
  9  3  1  0
  9  5  1  0
  1 10  1  0
  3 11  1  0
  4 12  1  0
  4 13  1  0
  5 14  1  0
  7 15  1  0
  7 16  1  0
  9 17  1  0
M  END
