
     RDKit          3D

 15 16  0  0  0  0  0  0  0  0999 V2000
    2.8594    0.5725   -0.2678 C   0  0  0  0  0  0  0  0  0  0  0  0
    1.8074   -0.0231   -0.4220 C   0  0  0  0  0  0  0  0  0  0  0  0
    0.5344   -0.7315   -0.5844 C   0  0  0  0  0  0  0  0  0  0  0  0
   -0.0890   -1.1852    0.6913 C   0  0  0  0  0  0  0  0  0  0  0  0
   -0.6633   -0.1216   -0.0955 C   0  0  0  0  0  0  0  0  0  0  0  0
   -0.7921    1.2678    0.4608 C   0  0  0  0  0  0  0  0  0  0  0  0
   -2.0782    1.2366   -0.1881 O   0  0  0  0  0  0  0  0  0  0  0  0
   -1.9559   -0.0424   -0.6986 C   0  0  0  0  0  0  0  0  0  0  0  0
   -2.6996   -0.7575   -1.3852 O   0  0  0  0  0  0  0  0  0  0  0  0
    3.7696    1.1043   -0.1215 H   0  0  0  0  0  0  0  0  0  0  0  0
    0.4505   -1.4651   -1.4270 H   0  0  0  0  0  0  0  0  0  0  0  0
   -0.5300   -2.2129    0.7528 H   0  0  0  0  0  0  0  0  0  0  0  0
    0.3532   -0.8887    1.6774 H   0  0  0  0  0  0  0  0  0  0  0  0
   -0.8556    1.2330    1.5677 H   0  0  0  0  0  0  0  0  0  0  0  0
   -0.1107    2.0139    0.0401 H   0  0  0  0  0  0  0  0  0  0  0  0
  1  2  3  0
  2  3  1  0
  3  4  1  0
  4  5  1  0
  5  6  1  0
  6  7  1  0
  7  8  1  0
  8  9  2  0
  5  3  1  0
  8  5  1  0
  1 10  1  0
  3 11  1  0
  4 12  1  0
  4 13  1  0
  6 14  1  0
  6 15  1  0
M  END
