
     RDKit          3D

 19 18  0  0  0  0  0  0  0  0999 V2000
   -1.1511    1.5020    1.7202 C   0  0  0  0  0  0  0  0  0  0  0  0
   -0.5305    0.9676    0.8629 C   0  0  0  0  0  0  0  0  0  0  0  0
    0.2388    0.3275   -0.2052 C   0  0  0  0  0  0  0  0  0  0  0  0
   -0.1006    1.0191   -1.5546 C   0  0  0  0  0  0  0  0  0  0  0  0
    1.5692    0.4505   -0.0536 O   0  0  0  0  0  0  0  0  0  0  0  0
    2.1744   -0.0012    1.0697 C   0  0  0  0  0  0  0  0  0  0  0  0
   -0.1948   -1.0701   -0.3672 C   0  0  0  0  0  0  0  0  0  0  0  0
   -1.6222   -1.4754   -0.5026 C   0  0  0  0  0  0  0  0  0  0  0  0
    0.6448   -1.9486   -0.3934 O   0  0  0  0  0  0  0  0  0  0  0  0
   -1.7094    2.0051    2.4952 H   0  0  0  0  0  0  0  0  0  0  0  0
    0.1809    0.2915   -2.3303 H   0  0  0  0  0  0  0  0  0  0  0  0
    0.4764    1.9455   -1.6460 H   0  0  0  0  0  0  0  0  0  0  0  0
   -1.1859    1.1442   -1.5424 H   0  0  0  0  0  0  0  0  0  0  0  0
    3.2863    0.1826    1.0376 H   0  0  0  0  0  0  0  0  0  0  0  0
    2.0442   -1.0888    1.1643 H   0  0  0  0  0  0  0  0  0  0  0  0
    1.8378    0.4699    2.0117 H   0  0  0  0  0  0  0  0  0  0  0  0
   -1.8229   -2.4749   -0.1027 H   0  0  0  0  0  0  0  0  0  0  0  0
   -2.3036   -0.7317   -0.0682 H   0  0  0  0  0  0  0  0  0  0  0  0
   -1.8317   -1.5149   -1.5956 H   0  0  0  0  0  0  0  0  0  0  0  0
  1  2  3  0
  2  3  1  0
  3  4  1  0
  3  5  1  0
  5  6  1  0
  3  7  1  0
  7  8  1  0
  7  9  2  0
  1 10  1  0
  4 11  1  0
  4 12  1  0
  4 13  1  0
  6 14  1  0
  6 15  1  0
  6 16  1  0
  8 17  1  0
  8 18  1  0
  8 19  1  0
M  END
