
     RDKit          3D

 19 20  0  0  0  0  0  0  0  0999 V2000
   -3.0857    1.7138    0.9002 C   0  0  0  0  0  0  0  0  0  0  0  0
   -2.5472    0.8500    0.2586 C   0  0  0  0  0  0  0  0  0  0  0  0
   -1.8928   -0.2158   -0.5014 C   0  0  0  0  0  0  0  0  0  0  0  0
   -0.5152   -0.5070    0.0585 C   0  0  0  0  0  0  0  0  0  0  0  0
    0.3466   -1.5358   -0.5276 C   0  0  0  0  0  0  0  0  0  0  0  0
    0.6241   -0.1178   -0.8694 C   0  0  0  0  0  0  0  0  0  0  0  0
    1.7490    0.6293   -0.2286 C   0  0  0  0  0  0  0  0  0  0  0  0
    2.5292    0.1011    0.8376 C   0  0  0  0  0  0  0  0  0  0  0  0
    1.5387    1.0131    1.1473 O   0  0  0  0  0  0  0  0  0  0  0  0
   -3.5680    2.4590    1.4724 H   0  0  0  0  0  0  0  0  0  0  0  0
   -1.8508    0.0127   -1.5856 H   0  0  0  0  0  0  0  0  0  0  0  0
   -2.5543   -1.1199   -0.4085 H   0  0  0  0  0  0  0  0  0  0  0  0
   -0.4107   -0.2483    1.1309 H   0  0  0  0  0  0  0  0  0  0  0  0
    0.0345   -2.2088   -1.3288 H   0  0  0  0  0  0  0  0  0  0  0  0
    1.0551   -2.0352    0.1927 H   0  0  0  0  0  0  0  0  0  0  0  0
    0.3644    0.1852   -1.9046 H   0  0  0  0  0  0  0  0  0  0  0  0
    2.1717    1.4604   -0.8475 H   0  0  0  0  0  0  0  0  0  0  0  0
    3.5664    0.5056    0.9968 H   0  0  0  0  0  0  0  0  0  0  0  0
    2.4452   -0.9416    1.2070 H   0  0  0  0  0  0  0  0  0  0  0  0
  1  2  3  0
  2  3  1  0
  3  4  1  0
  4  5  1  0
  5  6  1  0
  6  7  1  0
  7  8  1  0
  8  9  1  0
  6  4  1  0
  9  7  1  0
  1 10  1  0
  3 11  1  0
  3 12  1  0
  4 13  1  0
  5 14  1  0
  5 15  1  0
  6 16  1  0
  7 17  1  0
  8 18  1  0
  8 19  1  0
M  END
