
     RDKit          3D

 19 20  0  0  0  0  0  0  0  0999 V2000
    1.5520    1.7633    2.7590 C   0  0  0  0  0  0  0  0  0  0  0  0
    0.8594    1.8141    1.7642 C   0  0  0  0  0  0  0  0  0  0  0  0
    0.0357    1.8623    0.5432 C   0  0  0  0  0  0  0  0  0  0  0  0
    0.0729    0.5570   -0.1740 C   0  0  0  0  0  0  0  0  0  0  0  0
    0.5032    0.3551   -1.4131 C   0  0  0  0  0  0  0  0  0  0  0  0
    0.3749   -1.0996   -1.7611 C   0  0  0  0  0  0  0  0  0  0  0  0
   -0.3669   -1.7459   -0.6367 C   0  0  0  0  0  0  0  0  0  0  0  0
   -1.6714   -1.2679   -0.1643 C   0  0  0  0  0  0  0  0  0  0  0  0
   -0.3805   -0.7159    0.4278 C   0  0  0  0  0  0  0  0  0  0  0  0
    2.1701    1.7025    3.6301 H   0  0  0  0  0  0  0  0  0  0  0  0
    0.3515    2.6883   -0.1109 H   0  0  0  0  0  0  0  0  0  0  0  0
   -1.0099    2.0830    0.8996 H   0  0  0  0  0  0  0  0  0  0  0  0
    0.8916    1.0763   -2.1038 H   0  0  0  0  0  0  0  0  0  0  0  0
   -0.0556   -1.2662   -2.7484 H   0  0  0  0  0  0  0  0  0  0  0  0
    1.4205   -1.5001   -1.7759 H   0  0  0  0  0  0  0  0  0  0  0  0
   -0.0576   -2.7905   -0.3708 H   0  0  0  0  0  0  0  0  0  0  0  0
   -2.3032   -0.5559   -0.6940 H   0  0  0  0  0  0  0  0  0  0  0  0
   -2.2493   -1.9762    0.4754 H   0  0  0  0  0  0  0  0  0  0  0  0
   -0.1375   -0.9835    1.4536 H   0  0  0  0  0  0  0  0  0  0  0  0
  1  2  3  0
  2  3  1  0
  3  4  1  0
  4  5  2  0
  5  6  1  0
  6  7  1  0
  7  8  1  0
  8  9  1  0
  9  4  1  0
  9  7  1  0
  1 10  1  0
  3 11  1  0
  3 12  1  0
  5 13  1  0
  6 14  1  0
  6 15  1  0
  7 16  1  0
  8 17  1  0
  8 18  1  0
  9 19  1  0
M  END
