
     RDKit          3D

 17 19  0  0  0  0  0  0  0  0999 V2000
    3.1164   -0.4864    1.1808 C   0  0  0  0  0  0  0  0  0  0  0  0
    1.9279   -0.3851    0.8875 C   0  0  0  0  0  0  0  0  0  0  0  0
    0.5143   -0.2900    0.5427 C   0  0  0  0  0  0  0  0  0  0  0  0
   -0.1186    1.0828    0.4573 C   0  0  0  0  0  0  0  0  0  0  0  0
   -0.7995    0.6310   -0.8133 C   0  0  0  0  0  0  0  0  0  0  0  0
   -2.0174   -0.1908   -0.4510 C   0  0  0  0  0  0  0  0  0  0  0  0
   -1.5844   -1.4312   -0.0613 O   0  0  0  0  0  0  0  0  0  0  0  0
   -0.2125   -1.4532    0.0239 C   0  0  0  0  0  0  0  0  0  0  0  0
    0.2414   -0.4411   -0.9235 C   0  0  0  0  0  0  0  0  0  0  0  0
    4.1363   -0.5631    1.4478 H   0  0  0  0  0  0  0  0  0  0  0  0
    0.5555    1.9310    0.3886 H   0  0  0  0  0  0  0  0  0  0  0  0
   -0.8481    1.2262    1.2986 H   0  0  0  0  0  0  0  0  0  0  0  0
   -0.8982    1.3522   -1.6099 H   0  0  0  0  0  0  0  0  0  0  0  0
   -2.4850    0.2741    0.4654 H   0  0  0  0  0  0  0  0  0  0  0  0
   -2.7410   -0.1828   -1.2767 H   0  0  0  0  0  0  0  0  0  0  0  0
    0.2278   -2.4472    0.1255 H   0  0  0  0  0  0  0  0  0  0  0  0
    0.9848   -0.5184   -1.6824 H   0  0  0  0  0  0  0  0  0  0  0  0
  1  2  3  0
  2  3  1  0
  3  4  1  0
  4  5  1  0
  5  6  1  0
  6  7  1  0
  7  8  1  0
  8  9  1  0
  8  3  1  0
  9  3  1  0
  9  5  1  0
  1 10  1  0
  4 11  1  0
  4 12  1  0
  5 13  1  0
  6 14  1  0
  6 15  1  0
  8 16  1  0
  9 17  1  0
M  END
