
     RDKit          3D

 19 19  0  0  0  0  0  0  0  0999 V2000
    3.5779    1.0108    0.1043 C   0  0  0  0  0  0  0  0  0  0  0  0
    2.4240    1.0357   -0.2493 C   0  0  0  0  0  0  0  0  0  0  0  0
    1.0048    1.0423   -0.6745 C   0  0  0  0  0  0  0  0  0  0  0  0
    0.1653    0.2742    0.2941 C   0  0  0  0  0  0  0  0  0  0  0  0
    0.6692   -1.1367    0.3385 O   0  0  0  0  0  0  0  0  0  0  0  0
   -0.6277   -0.8812   -0.0381 C   0  0  0  0  0  0  0  0  0  0  0  0
   -1.0853   -1.0727   -1.4517 C   0  0  0  0  0  0  0  0  0  0  0  0
   -1.6827   -1.3004    0.9936 C   0  0  0  0  0  0  0  0  0  0  0  0
   -1.4628   -0.6106    2.1940 O   0  0  0  0  0  0  0  0  0  0  0  0
    4.5952    0.9703    0.4187 H   0  0  0  0  0  0  0  0  0  0  0  0
    0.9867    0.6460   -1.6918 H   0  0  0  0  0  0  0  0  0  0  0  0
    0.6455    2.0911   -0.7103 H   0  0  0  0  0  0  0  0  0  0  0  0
    0.0832    0.7074    1.3062 H   0  0  0  0  0  0  0  0  0  0  0  0
   -0.2209   -0.9538   -2.1179 H   0  0  0  0  0  0  0  0  0  0  0  0
   -1.6357   -2.0129   -1.6143 H   0  0  0  0  0  0  0  0  0  0  0  0
   -1.8094   -0.2540   -1.7374 H   0  0  0  0  0  0  0  0  0  0  0  0
   -1.6475   -2.3998    1.1272 H   0  0  0  0  0  0  0  0  0  0  0  0
   -2.6937   -1.0542    0.6263 H   0  0  0  0  0  0  0  0  0  0  0  0
   -1.2861   -1.3091    2.8825 H   0  0  0  0  0  0  0  0  0  0  0  0
  1  2  3  0
  2  3  1  0
  3  4  1  0
  4  5  1  0
  5  6  1  0
  6  7  1  0
  6  8  1  0
  8  9  1  0
  6  4  1  0
  1 10  1  0
  3 11  1  0
  3 12  1  0
  4 13  1  0
  7 14  1  0
  7 15  1  0
  7 16  1  0
  8 17  1  0
  8 18  1  0
  9 19  1  0
M  END
