
     RDKit          3D

 23 23  0  0  0  0  0  0  0  0999 V2000
    3.0109   -1.6636    0.7856 C   0  0  0  0  0  0  0  0  0  0  0  0
    2.2338   -0.8056    0.1723 C   0  0  0  0  0  0  0  0  0  0  0  0
    1.4024    0.1270   -0.5150 C   0  0  0  0  0  0  0  0  0  0  0  0
    0.8065    1.2218    0.2556 C   0  0  0  0  0  0  0  0  0  0  0  0
    0.7087    2.6362   -0.1676 C   0  0  0  0  0  0  0  0  0  0  0  0
   -0.0107    0.0642   -0.5377 C   0  0  0  0  0  0  0  0  0  0  0  0
   -1.0359   -0.4064    0.4715 C   0  0  0  0  0  0  0  0  0  0  0  0
   -0.9334   -1.7608    1.0045 C   0  0  0  0  0  0  0  0  0  0  0  0
   -2.4191   -0.4655   -0.3507 C   0  0  0  0  0  0  0  0  0  0  0  0
    3.7904   -2.5140    1.3895 H   0  0  0  0  0  0  0  0  0  0  0  0
    1.8776    0.4088   -1.5317 H   0  0  0  0  0  0  0  0  0  0  0  0
    0.7957    1.0254    1.4013 H   0  0  0  0  0  0  0  0  0  0  0  0
    0.7716    2.7706   -1.2599 H   0  0  0  0  0  0  0  0  0  0  0  0
    1.6203    3.1066    0.3903 H   0  0  0  0  0  0  0  0  0  0  0  0
   -0.2023    3.1907    0.2047 H   0  0  0  0  0  0  0  0  0  0  0  0
   -0.5138    0.5571   -1.4498 H   0  0  0  0  0  0  0  0  0  0  0  0
   -1.2225    0.3579    1.2097 H   0  0  0  0  0  0  0  0  0  0  0  0
    0.1492   -2.0535    1.2686 H   0  0  0  0  0  0  0  0  0  0  0  0
   -1.6109   -1.9615    1.8658 H   0  0  0  0  0  0  0  0  0  0  0  0
   -1.2758   -2.4512    0.1511 H   0  0  0  0  0  0  0  0  0  0  0  0
   -2.1795   -1.1765   -1.1256 H   0  0  0  0  0  0  0  0  0  0  0  0
   -3.1920   -0.7627    0.3629 H   0  0  0  0  0  0  0  0  0  0  0  0
   -2.5710    0.5549   -0.7741 H   0  0  0  0  0  0  0  0  0  0  0  0
  1  2  3  0
  2  3  1  0
  3  4  1  0
  4  5  1  0
  4  6  1  0
  6  7  1  0
  7  8  1  0
  7  9  1  0
  6  3  1  0
  1 10  1  0
  3 11  1  0
  4 12  1  0
  5 13  1  0
  5 14  1  0
  5 15  1  0
  6 16  1  0
  7 17  1  0
  8 18  1  0
  8 19  1  0
  8 20  1  0
  9 21  1  0
  9 22  1  0
  9 23  1  0
M  END
