
     RDKit          3D

 19 20  0  0  0  0  0  0  0  0999 V2000
   -2.2288    2.0662   -0.0915 C   0  0  0  0  0  0  0  0  0  0  0  0
   -1.5412    1.1123   -0.3058 C   0  0  0  0  0  0  0  0  0  0  0  0
   -0.6947   -0.0209   -0.5619 C   0  0  0  0  0  0  0  0  0  0  0  0
   -1.0454   -1.0811   -1.5319 C   0  0  0  0  0  0  0  0  0  0  0  0
   -1.1492   -1.3663   -0.0469 C   0  0  0  0  0  0  0  0  0  0  0  0
    0.1051   -1.4320    0.7725 C   0  0  0  0  0  0  0  0  0  0  0  0
    0.6310   -0.1781    0.1184 C   0  0  0  0  0  0  0  0  0  0  0  0
    0.9908    0.8361    0.9971 O   0  0  0  0  0  0  0  0  0  0  0  0
    2.2755    1.2497    0.6546 C   0  0  0  0  0  0  0  0  0  0  0  0
   -2.8545    2.9199    0.0998 H   0  0  0  0  0  0  0  0  0  0  0  0
   -2.0051   -0.9814   -2.0566 H   0  0  0  0  0  0  0  0  0  0  0  0
   -0.2132   -1.5526   -2.0755 H   0  0  0  0  0  0  0  0  0  0  0  0
   -2.1367   -1.4976    0.3935 H   0  0  0  0  0  0  0  0  0  0  0  0
   -0.0651   -1.2713    1.8501 H   0  0  0  0  0  0  0  0  0  0  0  0
    0.6656   -2.3660    0.5263 H   0  0  0  0  0  0  0  0  0  0  0  0
    1.4095   -0.4385   -0.6435 H   0  0  0  0  0  0  0  0  0  0  0  0
    2.9442    0.3712    0.7544 H   0  0  0  0  0  0  0  0  0  0  0  0
    2.3244    1.6392   -0.3824 H   0  0  0  0  0  0  0  0  0  0  0  0
    2.5879    1.9912    1.4161 H   0  0  0  0  0  0  0  0  0  0  0  0
  1  2  3  0
  2  3  1  0
  3  4  1  0
  4  5  1  0
  5  6  1  0
  6  7  1  0
  7  8  1  0
  8  9  1  0
  5  3  1  0
  7  3  1  0
  1 10  1  0
  4 11  1  0
  4 12  1  0
  5 13  1  0
  6 14  1  0
  6 15  1  0
  7 16  1  0
  9 17  1  0
  9 18  1  0
  9 19  1  0
M  END
