
     RDKit          3D

 15 16  0  0  0  0  0  0  0  0999 V2000
    3.2717   -0.8380    0.0757 C   0  0  0  0  0  0  0  0  0  0  0  0
    2.1567   -0.5133   -0.0977 C   0  0  0  0  0  0  0  0  0  0  0  0
    0.8831   -0.1416   -0.3174 C   0  0  0  0  0  0  0  0  0  0  0  0
    0.0231    0.7020    0.5477 C   0  0  0  0  0  0  0  0  0  0  0  0
   -0.7255    0.3312   -0.6918 C   0  0  0  0  0  0  0  0  0  0  0  0
   -2.0027    0.7568   -0.9949 C   0  0  0  0  0  0  0  0  0  0  0  0
   -3.0633    1.1141   -1.2267 C   0  0  0  0  0  0  0  0  0  0  0  0
   -0.2836   -1.0609   -0.5078 C   0  0  0  0  0  0  0  0  0  0  0  0
    0.4066    0.5827   -1.4005 O   0  0  0  0  0  0  0  0  0  0  0  0
    4.3132   -1.1229    0.2316 H   0  0  0  0  0  0  0  0  0  0  0  0
   -0.3508    0.2652    1.4950 H   0  0  0  0  0  0  0  0  0  0  0  0
    0.2922    1.7706    0.6223 H   0  0  0  0  0  0  0  0  0  0  0  0
   -4.0689    1.4710   -1.4561 H   0  0  0  0  0  0  0  0  0  0  0  0
   -0.6566   -1.6051    0.3786 H   0  0  0  0  0  0  0  0  0  0  0  0
   -0.1953   -1.7119   -1.4284 H   0  0  0  0  0  0  0  0  0  0  0  0
  1  2  3  0
  2  3  1  0
  3  4  1  0
  4  5  1  0
  5  6  1  0
  6  7  3  0
  5  8  1  0
  5  9  1  0
  8  3  1  0
  9  3  1  0
  1 10  1  0
  4 11  1  0
  4 12  1  0
  7 13  1  0
  8 14  1  0
  8 15  1  0
M  END
