
     RDKit          3D

 20 20  0  0  0  0  0  0  0  0999 V2000
    2.9373    0.4730    0.9589 C   0  0  0  0  0  0  0  0  0  0  0  0
    2.2177   -0.3290    0.3861 C   0  0  0  0  0  0  0  0  0  0  0  0
    1.3475   -1.2698   -0.3098 C   0  0  0  0  0  0  0  0  0  0  0  0
    0.0087   -1.6035    0.3822 C   0  0  0  0  0  0  0  0  0  0  0  0
    0.0902   -0.7893   -0.8837 C   0  0  0  0  0  0  0  0  0  0  0  0
   -0.3873    0.6124   -0.8354 C   0  0  0  0  0  0  0  0  0  0  0  0
   -1.7447    0.6654   -1.5587 C   0  0  0  0  0  0  0  0  0  0  0  0
   -0.6782    1.1318    0.5545 C   0  0  0  0  0  0  0  0  0  0  0  0
    3.5746    1.1672    1.4521 H   0  0  0  0  0  0  0  0  0  0  0  0
    1.8287   -2.1807   -0.7749 H   0  0  0  0  0  0  0  0  0  0  0  0
   -0.3453   -2.6460    0.3379 H   0  0  0  0  0  0  0  0  0  0  0  0
   -0.1724   -1.1094    1.3575 H   0  0  0  0  0  0  0  0  0  0  0  0
   -0.2674   -1.3571   -1.7903 H   0  0  0  0  0  0  0  0  0  0  0  0
    0.2619    1.3463   -1.3696 H   0  0  0  0  0  0  0  0  0  0  0  0
   -1.6473    0.3064   -2.5917 H   0  0  0  0  0  0  0  0  0  0  0  0
   -2.3946   -0.0411   -0.9785 H   0  0  0  0  0  0  0  0  0  0  0  0
   -2.1774    1.6915   -1.4932 H   0  0  0  0  0  0  0  0  0  0  0  0
   -1.4225    0.4616    1.0101 H   0  0  0  0  0  0  0  0  0  0  0  0
    0.1919    1.3612    1.1552 H   0  0  0  0  0  0  0  0  0  0  0  0
   -1.2214    2.1094    0.3988 H   0  0  0  0  0  0  0  0  0  0  0  0
  1  2  3  0
  2  3  1  0
  3  4  1  0
  4  5  1  0
  5  6  1  0
  6  7  1  0
  6  8  1  0
  5  3  1  0
  1  9  1  0
  3 10  1  0
  4 11  1  0
  4 12  1  0
  5 13  1  0
  6 14  1  0
  7 15  1  0
  7 16  1  0
  7 17  1  0
  8 18  1  0
  8 19  1  0
  8 20  1  0
M  END
