
     RDKit          3D

 17 16  0  0  0  0  0  0  0  0999 V2000
    2.2361    0.8903   -0.9516 C   0  0  0  0  0  0  0  0  0  0  0  0
    1.8015   -0.0447   -0.2938 C   0  0  0  0  0  0  0  0  0  0  0  0
    1.2697   -1.1493    0.5097 C   0  0  0  0  0  0  0  0  0  0  0  0
   -0.2463   -1.2036    0.2741 C   0  0  0  0  0  0  0  0  0  0  0  0
   -0.4314   -1.4180   -1.0682 O   0  0  0  0  0  0  0  0  0  0  0  0
   -0.7949    0.1074    0.7100 C   0  0  0  0  0  0  0  0  0  0  0  0
   -0.7293    0.4829    1.8676 O   0  0  0  0  0  0  0  0  0  0  0  0
   -1.4548    1.0235   -0.2672 C   0  0  0  0  0  0  0  0  0  0  0  0
   -1.8968    2.1853    0.3232 O   0  0  0  0  0  0  0  0  0  0  0  0
    2.6172    1.6884   -1.5346 H   0  0  0  0  0  0  0  0  0  0  0  0
    1.4385   -0.9633    1.5957 H   0  0  0  0  0  0  0  0  0  0  0  0
    1.7613   -2.0697    0.1866 H   0  0  0  0  0  0  0  0  0  0  0  0
   -0.6472   -2.0282    0.8874 H   0  0  0  0  0  0  0  0  0  0  0  0
    0.3895   -1.4128   -1.6032 H   0  0  0  0  0  0  0  0  0  0  0  0
   -0.7121    1.2945   -1.0540 H   0  0  0  0  0  0  0  0  0  0  0  0
   -2.3032    0.5490   -0.7873 H   0  0  0  0  0  0  0  0  0  0  0  0
   -2.2978    2.0683    1.2057 H   0  0  0  0  0  0  0  0  0  0  0  0
  1  2  3  0
  2  3  1  0
  3  4  1  0
  4  5  1  0
  4  6  1  0
  6  7  2  0
  6  8  1  0
  8  9  1  0
  1 10  1  0
  3 11  1  0
  3 12  1  0
  4 13  1  0
  5 14  1  0
  8 15  1  0
  8 16  1  0
  9 17  1  0
M  END
