
     RDKit          3D

 19 20  0  0  0  0  0  0  0  0999 V2000
    3.2616    0.8459    0.3464 C   0  0  0  0  0  0  0  0  0  0  0  0
    2.2292    0.2559    0.4133 C   0  0  0  0  0  0  0  0  0  0  0  0
    0.9749   -0.4881    0.4969 C   0  0  0  0  0  0  0  0  0  0  0  0
    0.8910   -1.8098   -0.1733 C   0  0  0  0  0  0  0  0  0  0  0  0
    0.1273   -0.6474   -0.6966 C   0  0  0  0  0  0  0  0  0  0  0  0
   -0.8094    0.1267    0.1659 C   0  0  0  0  0  0  0  0  0  0  0  0
   -2.2180   -0.3914    0.2755 C   0  0  0  0  0  0  0  0  0  0  0  0
   -0.8255    1.5914   -0.2326 C   0  0  0  0  0  0  0  0  0  0  0  0
   -0.0436   -0.0569    1.3034 O   0  0  0  0  0  0  0  0  0  0  0  0
    4.1996    1.3684    0.3001 H   0  0  0  0  0  0  0  0  0  0  0  0
    0.3733   -2.6015    0.4118 H   0  0  0  0  0  0  0  0  0  0  0  0
    1.8062   -2.1417   -0.6607 H   0  0  0  0  0  0  0  0  0  0  0  0
    0.3972   -0.2083   -1.6794 H   0  0  0  0  0  0  0  0  0  0  0  0
   -2.3482   -1.1521   -0.5198 H   0  0  0  0  0  0  0  0  0  0  0  0
   -2.4321   -0.8881    1.2310 H   0  0  0  0  0  0  0  0  0  0  0  0
   -2.9841    0.3973    0.1279 H   0  0  0  0  0  0  0  0  0  0  0  0
   -1.1859    2.2444    0.5812 H   0  0  0  0  0  0  0  0  0  0  0  0
   -1.5831    1.6599   -1.0678 H   0  0  0  0  0  0  0  0  0  0  0  0
    0.1695    1.8956   -0.6231 H   0  0  0  0  0  0  0  0  0  0  0  0
  1  2  3  0
  2  3  1  0
  3  4  1  0
  4  5  1  0
  5  6  1  0
  6  7  1  0
  6  8  1  0
  6  9  1  0
  5  3  1  0
  9  3  1  0
  1 10  1  0
  4 11  1  0
  4 12  1  0
  5 13  1  0
  7 14  1  0
  7 15  1  0
  7 16  1  0
  8 17  1  0
  8 18  1  0
  8 19  1  0
M  END
