
     RDKit          3D

 21 21  0  0  0  0  0  0  0  0999 V2000
    1.8564    2.2851   -0.2192 C   0  0  0  0  0  0  0  0  0  0  0  0
    1.2721    1.2754    0.0912 C   0  0  0  0  0  0  0  0  0  0  0  0
    0.5678    0.0751    0.4786 C   0  0  0  0  0  0  0  0  0  0  0  0
    0.5831   -0.9706   -0.6057 C   0  0  0  0  0  0  0  0  0  0  0  0
    1.5662   -2.0514   -0.2850 C   0  0  0  0  0  0  0  0  0  0  0  0
   -0.7458   -1.2363   -0.3116 O   0  0  0  0  0  0  0  0  0  0  0  0
   -0.8833    0.0880    0.1705 C   0  0  0  0  0  0  0  0  0  0  0  0
   -1.3516    0.9722   -0.9415 C   0  0  0  0  0  0  0  0  0  0  0  0
   -1.7410    0.1441    1.3916 C   0  0  0  0  0  0  0  0  0  0  0  0
    2.3812    3.1793   -0.5038 H   0  0  0  0  0  0  0  0  0  0  0  0
    0.7882   -0.3350    1.4741 H   0  0  0  0  0  0  0  0  0  0  0  0
    0.7156   -0.5172   -1.6162 H   0  0  0  0  0  0  0  0  0  0  0  0
    1.3103   -2.4537    0.7232 H   0  0  0  0  0  0  0  0  0  0  0  0
    1.6082   -2.8492   -1.0600 H   0  0  0  0  0  0  0  0  0  0  0  0
    2.5782   -1.5572   -0.1982 H   0  0  0  0  0  0  0  0  0  0  0  0
   -2.2153    0.4347   -1.4323 H   0  0  0  0  0  0  0  0  0  0  0  0
   -1.7953    1.9169   -0.5434 H   0  0  0  0  0  0  0  0  0  0  0  0
   -0.6086    1.1335   -1.7288 H   0  0  0  0  0  0  0  0  0  0  0  0
   -2.5794    0.8448    1.2116 H   0  0  0  0  0  0  0  0  0  0  0  0
   -1.1398    0.4760    2.2833 H   0  0  0  0  0  0  0  0  0  0  0  0
   -2.1673   -0.8546    1.6216 H   0  0  0  0  0  0  0  0  0  0  0  0
  1  2  3  0
  2  3  1  0
  3  4  1  0
  4  5  1  0
  4  6  1  0
  6  7  1  0
  7  8  1  0
  7  9  1  0
  7  3  1  0
  1 10  1  0
  3 11  1  0
  4 12  1  0
  5 13  1  0
  5 14  1  0
  5 15  1  0
  8 16  1  0
  8 17  1  0
  8 18  1  0
  9 19  1  0
  9 20  1  0
  9 21  1  0
M  END
