
     RDKit          3D

 19 19  0  0  0  0  0  0  0  0999 V2000
    2.5420   -0.4749    1.8955 C   0  0  0  0  0  0  0  0  0  0  0  0
    1.6971   -0.5327    1.0370 C   0  0  0  0  0  0  0  0  0  0  0  0
    0.6664   -0.5846    0.0139 C   0  0  0  0  0  0  0  0  0  0  0  0
   -0.0370   -1.7529    0.0420 O   0  0  0  0  0  0  0  0  0  0  0  0
   -1.3161   -1.7392   -0.4256 C   0  0  0  0  0  0  0  0  0  0  0  0
   -1.6715   -0.5710   -1.2740 C   0  0  0  0  0  0  0  0  0  0  0  0
   -1.1373    0.6012   -0.9940 C   0  0  0  0  0  0  0  0  0  0  0  0
   -0.2158    0.6462    0.1606 C   0  0  0  0  0  0  0  0  0  0  0  0
    0.6077    1.8854    0.2281 C   0  0  0  0  0  0  0  0  0  0  0  0
    3.2881   -0.4097    2.6713 H   0  0  0  0  0  0  0  0  0  0  0  0
    1.1173   -0.4951   -1.0190 H   0  0  0  0  0  0  0  0  0  0  0  0
   -1.4592   -2.6704   -1.0474 H   0  0  0  0  0  0  0  0  0  0  0  0
   -2.0431   -1.8495    0.4324 H   0  0  0  0  0  0  0  0  0  0  0  0
   -2.3527   -0.6672   -2.1066 H   0  0  0  0  0  0  0  0  0  0  0  0
   -1.3753    1.4567   -1.5866 H   0  0  0  0  0  0  0  0  0  0  0  0
   -0.8084    0.5362    1.0794 H   0  0  0  0  0  0  0  0  0  0  0  0
   -0.0010    2.7810    0.0730 H   0  0  0  0  0  0  0  0  0  0  0  0
    1.0270    1.9481    1.2735 H   0  0  0  0  0  0  0  0  0  0  0  0
    1.4719    1.8923   -0.4534 H   0  0  0  0  0  0  0  0  0  0  0  0
  1  2  3  0
  2  3  1  0
  3  4  1  0
  4  5  1  0
  5  6  1  0
  6  7  2  0
  7  8  1  0
  8  9  1  0
  8  3  1  0
  1 10  1  0
  3 11  1  0
  5 12  1  0
  5 13  1  0
  6 14  1  0
  7 15  1  0
  8 16  1  0
  9 17  1  0
  9 18  1  0
  9 19  1  0
M  END
