
     RDKit          3D

 17 16  0  0  0  0  0  0  0  0999 V2000
   -1.8121    2.8364    0.1614 C   0  0  0  0  0  0  0  0  0  0  0  0
   -1.5310    1.7577   -0.3978 C   0  0  0  0  0  0  0  0  0  0  0  0
   -1.2110    0.4662   -1.0661 C   0  0  0  0  0  0  0  0  0  0  0  0
   -2.4218   -0.4463   -0.7630 C   0  0  0  0  0  0  0  0  0  0  0  0
    0.0006   -0.0710   -0.6454 C   0  0  0  0  0  0  0  0  0  0  0  0
    1.1020   -0.5779   -0.2687 C   0  0  0  0  0  0  0  0  0  0  0  0
    2.3420   -1.1549    0.1689 C   0  0  0  0  0  0  0  0  0  0  0  0
    2.9097   -0.8610    1.5083 C   0  0  0  0  0  0  0  0  0  0  0  0
    2.9626   -1.9215   -0.5896 O   0  0  0  0  0  0  0  0  0  0  0  0
   -2.0443    3.7371    0.6481 H   0  0  0  0  0  0  0  0  0  0  0  0
   -1.2817    0.6017   -2.1850 H   0  0  0  0  0  0  0  0  0  0  0  0
   -3.3597    0.1285   -0.7818 H   0  0  0  0  0  0  0  0  0  0  0  0
   -2.2929   -1.0053    0.1756 H   0  0  0  0  0  0  0  0  0  0  0  0
   -2.4583   -1.1887   -1.5982 H   0  0  0  0  0  0  0  0  0  0  0  0
    3.5652    0.0702    1.4944 H   0  0  0  0  0  0  0  0  0  0  0  0
    3.4745   -1.7117    1.9417 H   0  0  0  0  0  0  0  0  0  0  0  0
    2.0562   -0.6593    2.1970 H   0  0  0  0  0  0  0  0  0  0  0  0
  1  2  3  0
  2  3  1  0
  3  4  1  0
  3  5  1  0
  5  6  3  0
  6  7  1  0
  7  8  1  0
  7  9  2  0
  1 10  1  0
  3 11  1  0
  4 12  1  0
  4 13  1  0
  4 14  1  0
  8 15  1  0
  8 16  1  0
  8 17  1  0
M  END
