
     RDKit          3D

 17 18  0  0  0  0  0  0  0  0999 V2000
    2.2321   -1.8260   -0.7097 C   0  0  0  0  0  0  0  0  0  0  0  0
    1.3371   -1.1413   -0.3164 C   0  0  0  0  0  0  0  0  0  0  0  0
    0.3540   -0.3607    0.1163 C   0  0  0  0  0  0  0  0  0  0  0  0
   -0.3077   -0.4250    1.4654 C   0  0  0  0  0  0  0  0  0  0  0  0
   -1.0594    0.6537    0.7131 C   0  0  0  0  0  0  0  0  0  0  0  0
   -1.0385   -0.2913   -0.4545 C   0  0  0  0  0  0  0  0  0  0  0  0
   -1.1586    0.2598   -1.7050 O   0  0  0  0  0  0  0  0  0  0  0  0
    0.3095    1.1020    0.2377 C   0  0  0  0  0  0  0  0  0  0  0  0
    0.2835    1.8476   -0.9391 O   0  0  0  0  0  0  0  0  0  0  0  0
    3.0496   -2.4513   -1.0490 H   0  0  0  0  0  0  0  0  0  0  0  0
   -0.8533   -1.3477    1.6666 H   0  0  0  0  0  0  0  0  0  0  0  0
    0.2806   -0.0148    2.3091 H   0  0  0  0  0  0  0  0  0  0  0  0
   -1.8005    1.2248    1.0474 H   0  0  0  0  0  0  0  0  0  0  0  0
   -1.5802   -1.2326   -0.2759 H   0  0  0  0  0  0  0  0  0  0  0  0
   -2.0210   -0.0668   -2.0910 H   0  0  0  0  0  0  0  0  0  0  0  0
    0.9300    1.5993    0.9862 H   0  0  0  0  0  0  0  0  0  0  0  0
    1.0428    2.4702   -1.0012 H   0  0  0  0  0  0  0  0  0  0  0  0
  1  2  3  0
  2  3  1  0
  3  4  1  0
  4  5  1  0
  5  6  1  0
  6  7  1  0
  5  8  1  0
  8  9  1  0
  6  3  1  0
  8  3  1  0
  1 10  1  0
  4 11  1  0
  4 12  1  0
  5 13  1  0
  6 14  1  0
  7 15  1  0
  8 16  1  0
  9 17  1  0
M  END
