
     RDKit          3D

 18 18  0  0  0  0  0  0  0  0999 V2000
    2.8108   -1.2872   -0.1491 C   0  0  0  0  0  0  0  0  0  0  0  0
    1.7018   -0.9248   -0.4529 C   0  0  0  0  0  0  0  0  0  0  0  0
    0.3323   -0.4981   -0.8301 C   0  0  0  0  0  0  0  0  0  0  0  0
    0.2982    0.9233   -1.2143 C   0  0  0  0  0  0  0  0  0  0  0  0
    0.0897    1.6981   -0.1581 C   0  0  0  0  0  0  0  0  0  0  0  0
   -0.0362    0.8602    1.0427 C   0  0  0  0  0  0  0  0  0  0  0  0
   -0.4667   -0.4777    0.4816 C   0  0  0  0  0  0  0  0  0  0  0  0
   -1.9445   -0.5324    0.2161 C   0  0  0  0  0  0  0  0  0  0  0  0
    3.7873   -1.6156    0.1176 H   0  0  0  0  0  0  0  0  0  0  0  0
   -0.1227   -1.1834   -1.5417 H   0  0  0  0  0  0  0  0  0  0  0  0
    0.4240    1.3022   -2.2148 H   0  0  0  0  0  0  0  0  0  0  0  0
    0.0148    2.7975   -0.1336 H   0  0  0  0  0  0  0  0  0  0  0  0
   -0.7435    1.2545    1.7972 H   0  0  0  0  0  0  0  0  0  0  0  0
    0.9812    0.7131    1.4602 H   0  0  0  0  0  0  0  0  0  0  0  0
   -0.1111   -1.2808    1.1322 H   0  0  0  0  0  0  0  0  0  0  0  0
   -2.2016   -0.2757   -0.8431 H   0  0  0  0  0  0  0  0  0  0  0  0
   -2.3223   -1.5848    0.3468 H   0  0  0  0  0  0  0  0  0  0  0  0
   -2.4915    0.1115    0.9433 H   0  0  0  0  0  0  0  0  0  0  0  0
  1  2  3  0
  2  3  1  0
  3  4  1  0
  4  5  2  0
  5  6  1  0
  6  7  1  0
  7  8  1  0
  7  3  1  0
  1  9  1  0
  3 10  1  0
  4 11  1  0
  5 12  1  0
  6 13  1  0
  6 14  1  0
  7 15  1  0
  8 16  1  0
  8 17  1  0
  8 18  1  0
M  END
