
     RDKit          3D

 14 14  0  0  0  0  0  0  0  0999 V2000
    2.8484    0.9006    0.8158 C   0  0  0  0  0  0  0  0  0  0  0  0
    1.8078    0.0153    0.4340 C   0  0  0  0  0  0  0  0  0  0  0  0
    0.6552   -0.9711   -0.0144 C   0  0  0  0  0  0  0  0  0  0  0  0
   -0.5478   -1.1400    0.7245 C   0  0  0  0  0  0  0  0  0  0  0  0
   -0.4391   -0.3027   -0.4879 C   0  0  0  0  0  0  0  0  0  0  0  0
   -1.1303   -0.8098   -1.6651 O   0  0  0  0  0  0  0  0  0  0  0  0
   -1.0715    1.2208   -0.2161 C   0  0  0  0  0  0  0  0  0  0  0  0
   -1.5057    2.2847   -0.0069 C   0  0  0  0  0  0  0  0  0  0  0  0
    3.5959    1.5410    1.0743 H   0  0  0  0  0  0  0  0  0  0  0  0
    1.2310   -1.6016   -0.8259 H   0  0  0  0  0  0  0  0  0  0  0  0
   -1.1259   -2.1140    0.5884 H   0  0  0  0  0  0  0  0  0  0  0  0
   -0.7499   -0.5644    1.7534 H   0  0  0  0  0  0  0  0  0  0  0  0
   -1.7211   -1.5875   -1.3958 H   0  0  0  0  0  0  0  0  0  0  0  0
   -1.8468    3.1286    0.1745 H   0  0  0  0  0  0  0  0  0  0  0  0
  1  2  3  0
  2  3  1  0
  3  4  1  0
  4  5  1  0
  5  6  1  0
  5  7  1  0
  7  8  3  0
  5  3  1  0
  1  9  1  0
  3 10  1  0
  4 11  1  0
  4 12  1  0
  6 13  1  0
  8 14  1  0
M  END
