
     RDKit          3D

 23 23  0  0  0  0  0  0  0  0999 V2000
   -0.9710    1.5691   -1.6492 C   0  0  0  0  0  0  0  0  0  0  0  0
   -0.5738    1.0863   -0.9638 C   0  0  0  0  0  0  0  0  0  0  0  0
    0.1178    0.2869    0.1819 C   0  0  0  0  0  0  0  0  0  0  0  0
    1.4469    0.8003    0.4583 C   0  0  0  0  0  0  0  0  0  0  0  0
    2.4638    0.7274   -0.6832 C   0  0  0  0  0  0  0  0  0  0  0  0
   -0.8322    0.2582    1.3342 C   0  0  0  0  0  0  0  0  0  0  0  0
   -1.9574   -0.6087    0.7312 C   0  0  0  0  0  0  0  0  0  0  0  0
   -1.2153   -1.7499    0.1426 C   0  0  0  0  0  0  0  0  0  0  0  0
    0.0985   -1.1537   -0.3105 C   0  0  0  0  0  0  0  0  0  0  0  0
   -1.4719    2.2100   -2.5358 H   0  0  0  0  0  0  0  0  0  0  0  0
    1.3767    1.8369    0.8592 H   0  0  0  0  0  0  0  0  0  0  0  0
    1.9304    0.2261    1.3098 H   0  0  0  0  0  0  0  0  0  0  0  0
    3.3550    1.2927   -0.3760 H   0  0  0  0  0  0  0  0  0  0  0  0
    2.7218   -0.3142   -0.8745 H   0  0  0  0  0  0  0  0  0  0  0  0
    2.0201    1.2570   -1.5343 H   0  0  0  0  0  0  0  0  0  0  0  0
   -1.1847    1.2614    1.5996 H   0  0  0  0  0  0  0  0  0  0  0  0
   -0.4617   -0.3214    2.2148 H   0  0  0  0  0  0  0  0  0  0  0  0
   -2.7033   -0.8718    1.4924 H   0  0  0  0  0  0  0  0  0  0  0  0
   -2.4554   -0.0514   -0.0940 H   0  0  0  0  0  0  0  0  0  0  0  0
   -1.0309   -2.6013    0.8382 H   0  0  0  0  0  0  0  0  0  0  0  0
   -1.7580   -2.2198   -0.7261 H   0  0  0  0  0  0  0  0  0  0  0  0
    0.1598   -1.1458   -1.4377 H   0  0  0  0  0  0  0  0  0  0  0  0
    0.9248   -1.7743    0.0228 H   0  0  0  0  0  0  0  0  0  0  0  0
  1  2  3  0
  2  3  1  0
  3  4  1  0
  4  5  1  0
  3  6  1  0
  6  7  1  0
  7  8  1  0
  8  9  1  0
  9  3  1  0
  1 10  1  0
  4 11  1  0
  4 12  1  0
  5 13  1  0
  5 14  1  0
  5 15  1  0
  6 16  1  0
  6 17  1  0
  7 18  1  0
  7 19  1  0
  8 20  1  0
  8 21  1  0
  9 22  1  0
  9 23  1  0
M  END
