
     RDKit          3D

 21 20  0  0  0  0  0  0  0  0999 V2000
   -4.2740    1.1063   -0.2439 C   0  0  0  0  0  0  0  0  0  0  0  0
   -3.3683    0.3426   -0.0150 C   0  0  0  0  0  0  0  0  0  0  0  0
   -2.2513   -0.5789    0.2632 C   0  0  0  0  0  0  0  0  0  0  0  0
   -0.9833    0.1839   -0.0582 C   0  0  0  0  0  0  0  0  0  0  0  0
    0.2535   -0.6625    0.1885 C   0  0  0  0  0  0  0  0  0  0  0  0
    1.4451    0.2325   -0.1763 C   0  0  0  0  0  0  0  0  0  0  0  0
    1.3805    0.6299   -1.5024 O   0  0  0  0  0  0  0  0  0  0  0  0
    2.7054   -0.5111    0.1477 C   0  0  0  0  0  0  0  0  0  0  0  0
    3.8092    0.3161   -0.1083 O   0  0  0  0  0  0  0  0  0  0  0  0
   -5.0914    1.7730   -0.4553 H   0  0  0  0  0  0  0  0  0  0  0  0
   -2.2723   -1.4568   -0.4150 H   0  0  0  0  0  0  0  0  0  0  0  0
   -2.2928   -0.8937    1.3243 H   0  0  0  0  0  0  0  0  0  0  0  0
   -0.9613    1.0725    0.6091 H   0  0  0  0  0  0  0  0  0  0  0  0
   -1.0399    0.4521   -1.1339 H   0  0  0  0  0  0  0  0  0  0  0  0
    0.2761   -0.9058    1.2455 H   0  0  0  0  0  0  0  0  0  0  0  0
    0.2207   -1.5257   -0.4873 H   0  0  0  0  0  0  0  0  0  0  0  0
    1.4377    1.1564    0.4367 H   0  0  0  0  0  0  0  0  0  0  0  0
    2.0162    0.1922   -2.0904 H   0  0  0  0  0  0  0  0  0  0  0  0
    2.7129   -0.6910    1.2426 H   0  0  0  0  0  0  0  0  0  0  0  0
    2.7969   -1.4825   -0.3658 H   0  0  0  0  0  0  0  0  0  0  0  0
    3.4805    1.2504    0.0254 H   0  0  0  0  0  0  0  0  0  0  0  0
  1  2  3  0
  2  3  1  0
  3  4  1  0
  4  5  1  0
  5  6  1  0
  6  7  1  0
  6  8  1  0
  8  9  1  0
  1 10  1  0
  3 11  1  0
  3 12  1  0
  4 13  1  0
  4 14  1  0
  5 15  1  0
  5 16  1  0
  6 17  1  0
  7 18  1  0
  8 19  1  0
  8 20  1  0
  9 21  1  0
M  END
