
     RDKit          3D

 16 16  0  0  0  0  0  0  0  0999 V2000
    2.1209   -1.5211   -1.8429 C   0  0  0  0  0  0  0  0  0  0  0  0
    1.3728   -1.1591   -0.9999 C   0  0  0  0  0  0  0  0  0  0  0  0
    0.4373   -0.6970    0.0240 C   0  0  0  0  0  0  0  0  0  0  0  0
    0.7294    0.7295    0.4398 C   0  0  0  0  0  0  0  0  0  0  0  0
   -0.5646    1.1480    1.0908 C   0  0  0  0  0  0  0  0  0  0  0  0
   -1.6469    0.3425    0.3703 C   0  0  0  0  0  0  0  0  0  0  0  0
   -0.9226   -0.5700   -0.5334 C   0  0  0  0  0  0  0  0  0  0  0  0
   -1.3454   -1.1024   -1.5193 O   0  0  0  0  0  0  0  0  0  0  0  0
    2.8138   -1.8549   -2.5990 H   0  0  0  0  0  0  0  0  0  0  0  0
    0.4424   -1.3633    0.9084 H   0  0  0  0  0  0  0  0  0  0  0  0
    0.8257    1.3401   -0.4932 H   0  0  0  0  0  0  0  0  0  0  0  0
    1.6001    0.8152    1.1062 H   0  0  0  0  0  0  0  0  0  0  0  0
   -0.8068    2.2258    0.8730 H   0  0  0  0  0  0  0  0  0  0  0  0
   -0.5481    0.9674    2.1669 H   0  0  0  0  0  0  0  0  0  0  0  0
   -2.1274   -0.2817    1.1534 H   0  0  0  0  0  0  0  0  0  0  0  0
   -2.3804    0.9810   -0.1453 H   0  0  0  0  0  0  0  0  0  0  0  0
  1  2  3  0
  2  3  1  0
  3  4  1  0
  4  5  1  0
  5  6  1  0
  6  7  1  0
  7  8  2  0
  7  3  1  0
  1  9  1  0
  3 10  1  0
  4 11  1  0
  4 12  1  0
  5 13  1  0
  5 14  1  0
  6 15  1  0
  6 16  1  0
M  END
