
     RDKit          3D

 17 17  0  0  0  0  0  0  0  0999 V2000
    4.4926   -0.2810   -0.7446 C   0  0  0  0  0  0  0  0  0  0  0  0
    3.3098   -0.2234   -0.5424 C   0  0  0  0  0  0  0  0  0  0  0  0
    1.9015   -0.1606   -0.3025 C   0  0  0  0  0  0  0  0  0  0  0  0
    0.7175   -0.1012   -0.0983 C   0  0  0  0  0  0  0  0  0  0  0  0
   -0.6997   -0.0163    0.1387 C   0  0  0  0  0  0  0  0  0  0  0  0
   -1.1963   -0.9696    1.1912 C   0  0  0  0  0  0  0  0  0  0  0  0
   -1.5543    0.0210   -1.0839 C   0  0  0  0  0  0  0  0  0  0  0  0
   -2.3389    1.0031   -0.4508 O   0  0  0  0  0  0  0  0  0  0  0  0
   -1.2030    1.3930    0.2320 C   0  0  0  0  0  0  0  0  0  0  0  0
    5.5475   -0.3280   -0.9434 H   0  0  0  0  0  0  0  0  0  0  0  0
   -1.8843   -0.4737    1.9000 H   0  0  0  0  0  0  0  0  0  0  0  0
   -1.7430   -1.7906    0.6449 H   0  0  0  0  0  0  0  0  0  0  0  0
   -0.3329   -1.4252    1.7210 H   0  0  0  0  0  0  0  0  0  0  0  0
   -1.0093    0.4351   -1.9789 H   0  0  0  0  0  0  0  0  0  0  0  0
   -2.1014   -0.9268   -1.2937 H   0  0  0  0  0  0  0  0  0  0  0  0
   -1.3396    1.7912    1.2401 H   0  0  0  0  0  0  0  0  0  0  0  0
   -0.5662    2.0530   -0.4179 H   0  0  0  0  0  0  0  0  0  0  0  0
  1  2  3  0
  2  3  1  0
  3  4  3  0
  4  5  1  0
  5  6  1  0
  5  7  1  0
  7  8  1  0
  8  9  1  0
  9  5  1  0
  1 10  1  0
  6 11  1  0
  6 12  1  0
  6 13  1  0
  7 14  1  0
  7 15  1  0
  9 16  1  0
  9 17  1  0
M  END
