
     RDKit          3D

 21 21  0  0  0  0  0  0  0  0999 V2000
    1.4629    2.6331   -0.6287 C   0  0  0  0  0  0  0  0  0  0  0  0
    0.8167    1.7198   -0.1802 C   0  0  0  0  0  0  0  0  0  0  0  0
    0.0043    0.5987    0.3532 C   0  0  0  0  0  0  0  0  0  0  0  0
    0.5310    0.1986    1.7347 C   0  0  0  0  0  0  0  0  0  0  0  0
    1.3563   -1.0123    1.3758 C   0  0  0  0  0  0  0  0  0  0  0  0
    0.6752   -1.6060    0.3455 O   0  0  0  0  0  0  0  0  0  0  0  0
    0.1834   -0.6102   -0.4967 C   0  0  0  0  0  0  0  0  0  0  0  0
   -1.1110   -1.1279   -1.0790 C   0  0  0  0  0  0  0  0  0  0  0  0
   -1.8112   -0.1405   -1.9455 C   0  0  0  0  0  0  0  0  0  0  0  0
    2.0412    3.4198   -1.0201 H   0  0  0  0  0  0  0  0  0  0  0  0
   -1.0470    0.9076    0.4066 H   0  0  0  0  0  0  0  0  0  0  0  0
    1.2074    0.9873    2.1120 H   0  0  0  0  0  0  0  0  0  0  0  0
   -0.2695    0.0087    2.4424 H   0  0  0  0  0  0  0  0  0  0  0  0
    1.3409   -1.6955    2.2479 H   0  0  0  0  0  0  0  0  0  0  0  0
    2.3874   -0.7762    1.1071 H   0  0  0  0  0  0  0  0  0  0  0  0
    0.9295   -0.4139   -1.2979 H   0  0  0  0  0  0  0  0  0  0  0  0
   -1.7575   -1.4410   -0.2543 H   0  0  0  0  0  0  0  0  0  0  0  0
   -0.8621   -2.0398   -1.6702 H   0  0  0  0  0  0  0  0  0  0  0  0
   -1.5189    0.8874   -1.6123 H   0  0  0  0  0  0  0  0  0  0  0  0
   -2.9014   -0.2111   -1.7563 H   0  0  0  0  0  0  0  0  0  0  0  0
   -1.6578   -0.2864   -3.0316 H   0  0  0  0  0  0  0  0  0  0  0  0
  1  2  3  0
  2  3  1  0
  3  4  1  0
  4  5  1  0
  5  6  1  0
  6  7  1  0
  7  8  1  0
  8  9  1  0
  7  3  1  0
  1 10  1  0
  3 11  1  0
  4 12  1  0
  4 13  1  0
  5 14  1  0
  5 15  1  0
  7 16  1  0
  8 17  1  0
  8 18  1  0
  9 19  1  0
  9 20  1  0
  9 21  1  0
M  END
