
     RDKit          3D

 12 13  0  0  0  0  0  0  0  0999 V2000
    2.4388    0.0728   -0.6431 C   0  0  0  0  0  0  0  0  0  0  0  0
    1.3608    0.4321   -0.1792 C   0  0  0  0  0  0  0  0  0  0  0  0
    0.0626    0.8868    0.3991 C   0  0  0  0  0  0  0  0  0  0  0  0
   -0.5413    1.7388   -0.4362 O   0  0  0  0  0  0  0  0  0  0  0  0
   -1.1866    0.5885   -0.4891 C   0  0  0  0  0  0  0  0  0  0  0  0
   -0.7193   -0.8062   -0.1742 C   0  0  0  0  0  0  0  0  0  0  0  0
   -0.5244   -0.2018    1.1770 C   0  0  0  0  0  0  0  0  0  0  0  0
   -0.7595   -0.5170    2.2889 O   0  0  0  0  0  0  0  0  0  0  0  0
    3.3636   -0.2179   -1.0470 H   0  0  0  0  0  0  0  0  0  0  0  0
   -2.1901    0.7258    0.0329 H   0  0  0  0  0  0  0  0  0  0  0  0
    0.1953   -1.1483   -0.6814 H   0  0  0  0  0  0  0  0  0  0  0  0
   -1.4998   -1.5536   -0.2476 H   0  0  0  0  0  0  0  0  0  0  0  0
  1  2  3  0
  2  3  1  0
  3  4  1  0
  4  5  1  0
  5  6  1  0
  6  7  1  0
  7  8  2  0
  5  3  1  0
  7  3  1  0
  1  9  1  0
  5 10  1  0
  6 11  1  0
  6 12  1  0
M  END
