
     RDKit          3D

 19 20  0  0  0  0  0  0  0  0999 V2000
    1.7859    1.1239   -1.2663 C   0  0  0  0  0  0  0  0  0  0  0  0
    1.5517   -0.0303   -0.3279 C   0  0  0  0  0  0  0  0  0  0  0  0
    1.3966   -0.8279    0.3006 C   0  0  0  0  0  0  0  0  0  0  0  0
    0.9812   -0.4881    1.9258 C   0  0  0  0  0  0  0  0  0  0  0  0
    0.0119   -1.5423    1.6782 O   0  0  0  0  0  0  0  0  0  0  0  0
   -0.2077   -1.1788    0.5293 C   0  0  0  0  0  0  0  0  0  0  0  0
   -0.8136    0.2410    0.2006 C   0  0  0  0  0  0  0  0  0  0  0  0
   -1.0717    0.7049   -1.1840 C   0  0  0  0  0  0  0  0  0  0  0  0
   -2.2257    0.3706   -0.1435 C   0  0  0  0  0  0  0  0  0  0  0  0
    1.9925    2.2269   -2.1375 H   0  0  0  0  0  0  0  0  0  0  0  0
    2.1923   -1.7098    0.6742 H   0  0  0  0  0  0  0  0  0  0  0  0
    1.0759    0.4764    2.1771 H   0  0  0  0  0  0  0  0  0  0  0  0
    1.7034   -1.2659    2.5207 H   0  0  0  0  0  0  0  0  0  0  0  0
   -0.4743   -1.8554   -0.2306 H   0  0  0  0  0  0  0  0  0  0  0  0
   -0.2974    1.0187    0.8661 H   0  0  0  0  0  0  0  0  0  0  0  0
   -0.9445    1.8424   -1.3648 H   0  0  0  0  0  0  0  0  0  0  0  0
   -1.1289    0.1765   -2.0825 H   0  0  0  0  0  0  0  0  0  0  0  0
   -2.7368    1.2938    0.0762 H   0  0  0  0  0  0  0  0  0  0  0  0
   -2.7907   -0.5767   -0.3436 H   0  0  0  0  0  0  0  0  0  0  0  0
  1  2  3  0
  2  3  1  0
  3  4  1  0
  4  5  1  0
  5  6  1  0
  6  7  1  0
  7  8  1  0
  8  9  1  0
  6  3  1  0
  9  7  1  0
  1 10  1  0
  3 11  1  0
  4 12  1  0
  4 13  1  0
  6 14  1  0
  7 15  1  0
  8 16  1  0
  8 17  1  0
  9 18  1  0
  9 19  1  0
M  END
