
     RDKit          3D

 19 19  0  0  0  0  0  0  0  0999 V2000
    2.4041   -0.5797    1.7593 C   0  0  0  0  0  0  0  0  0  0  0  0
    1.8573   -0.8461    0.7180 C   0  0  0  0  0  0  0  0  0  0  0  0
    1.1900   -1.1918   -0.5361 C   0  0  0  0  0  0  0  0  0  0  0  0
    1.1317   -0.1958   -1.4761 O   0  0  0  0  0  0  0  0  0  0  0  0
   -0.2212    0.0442   -1.1722 C   0  0  0  0  0  0  0  0  0  0  0  0
   -0.3211    1.2795   -0.3022 C   0  0  0  0  0  0  0  0  0  0  0  0
   -1.7589    1.5698    0.0453 C   0  0  0  0  0  0  0  0  0  0  0  0
   -0.3094   -1.2629   -0.4144 C   0  0  0  0  0  0  0  0  0  0  0  0
   -0.8183   -1.0887    0.8533 O   0  0  0  0  0  0  0  0  0  0  0  0
    2.8785   -0.3492    2.6996 H   0  0  0  0  0  0  0  0  0  0  0  0
    1.5918   -2.1439   -0.9401 H   0  0  0  0  0  0  0  0  0  0  0  0
   -0.8335    0.0809   -2.0977 H   0  0  0  0  0  0  0  0  0  0  0  0
    0.2827    1.0492    0.6226 H   0  0  0  0  0  0  0  0  0  0  0  0
    0.1880    2.1484   -0.7676 H   0  0  0  0  0  0  0  0  0  0  0  0
   -1.8897    2.6783    0.0719 H   0  0  0  0  0  0  0  0  0  0  0  0
   -2.4298    1.0793   -0.6776 H   0  0  0  0  0  0  0  0  0  0  0  0
   -1.9586    1.1705    1.0733 H   0  0  0  0  0  0  0  0  0  0  0  0
   -0.7799   -2.0511   -1.0347 H   0  0  0  0  0  0  0  0  0  0  0  0
   -0.2038   -1.3910    1.5753 H   0  0  0  0  0  0  0  0  0  0  0  0
  1  2  3  0
  2  3  1  0
  3  4  1  0
  4  5  1  0
  5  6  1  0
  6  7  1  0
  5  8  1  0
  8  9  1  0
  8  3  1  0
  1 10  1  0
  3 11  1  0
  5 12  1  0
  6 13  1  0
  6 14  1  0
  7 15  1  0
  7 16  1  0
  7 17  1  0
  8 18  1  0
  9 19  1  0
M  END
