
     RDKit          3D

 17 17  0  0  0  0  0  0  0  0999 V2000
    3.6676   -1.6219    1.2869 C   0  0  0  0  0  0  0  0  0  0  0  0
    3.0197   -1.2040    0.9256 C   0  0  0  0  0  0  0  0  0  0  0  0
    2.0318   -0.5397    0.3645 C   0  0  0  0  0  0  0  0  0  0  0  0
    0.8862    0.2568   -0.2890 C   0  0  0  0  0  0  0  0  0  0  0  0
   -0.1740    0.9688   -0.9024 C   0  0  0  0  0  0  0  0  0  0  0  0
   -0.9860    1.4505    0.5346 C   0  0  0  0  0  0  0  0  0  0  0  0
   -1.0473   -0.5163   -0.8397 C   0  0  0  0  0  0  0  0  0  0  0  0
   -1.0303    0.4941   -1.9045 C   0  0  0  0  0  0  0  0  0  0  0  0
   -2.4344    0.6332   -2.0714 O   0  0  0  0  0  0  0  0  0  0  0  0
    5.0173   -2.5135    2.0164 H   0  0  0  0  0  0  0  0  0  0  0  0
   -1.6586    2.3241    0.0559 H   0  0  0  0  0  0  0  0  0  0  0  0
   -1.5999    0.6962    0.9182 H   0  0  0  0  0  0  0  0  0  0  0  0
   -0.3452    1.8886    1.1959 H   0  0  0  0  0  0  0  0  0  0  0  0
   -1.6609   -0.5861    0.1301 H   0  0  0  0  0  0  0  0  0  0  0  0
   -0.3003   -1.3765   -0.6481 H   0  0  0  0  0  0  0  0  0  0  0  0
   -0.5345    0.1268   -2.8718 H   0  0  0  0  0  0  0  0  0  0  0  0
   -2.8512   -0.4813   -1.9478 H   0  0  0  0  0  0  0  0  0  0  0  0
  1  2  3  0
  2  3  1  0
  3  4  3  0
  4  5  1  0
  5  6  1  0
  5  7  1  0
  7  8  1  0
  8  9  1  0
  8  5  1  0
  1 10  1  0
  6 11  1  0
  6 12  1  0
  6 13  1  0
  7 14  1  0
  7 15  1  0
  8 16  1  0
  9 17  1  0
M  END
