
     RDKit          3D

 17 16  0  0  0  0  0  0  0  0999 V2000
    3.7801    0.2346    0.0769 C   0  0  0  0  0  0  0  0  0  0  0  0
    2.8269   -0.4844   -0.1580 C   0  0  0  0  0  0  0  0  0  0  0  0
    1.7180   -1.3520   -0.4346 C   0  0  0  0  0  0  0  0  0  0  0  0
    1.8785   -2.5563   -0.7559 O   0  0  0  0  0  0  0  0  0  0  0  0
    0.3249   -0.8378   -0.3463 C   0  0  0  0  0  0  0  0  0  0  0  0
    0.2915    0.4915    0.0138 O   0  0  0  0  0  0  0  0  0  0  0  0
   -1.0125    0.9599    0.0819 C   0  0  0  0  0  0  0  0  0  0  0  0
   -1.8654    0.2267    1.0851 C   0  0  0  0  0  0  0  0  0  0  0  0
   -3.1616    0.7949    1.0620 O   0  0  0  0  0  0  0  0  0  0  0  0
    4.6258    0.8507    0.2761 H   0  0  0  0  0  0  0  0  0  0  0  0
   -0.1220   -1.4163    0.5170 H   0  0  0  0  0  0  0  0  0  0  0  0
   -0.2887   -1.0928   -1.2202 H   0  0  0  0  0  0  0  0  0  0  0  0
   -0.9687    2.0244    0.4177 H   0  0  0  0  0  0  0  0  0  0  0  0
   -1.5048    0.8928   -0.9120 H   0  0  0  0  0  0  0  0  0  0  0  0
   -2.0398   -0.8444    0.7876 H   0  0  0  0  0  0  0  0  0  0  0  0
   -1.4838    0.3273    2.1098 H   0  0  0  0  0  0  0  0  0  0  0  0
   -2.9984    1.7813    1.1337 H   0  0  0  0  0  0  0  0  0  0  0  0
  1  2  3  0
  2  3  1  0
  3  4  2  0
  3  5  1  0
  5  6  1  0
  6  7  1  0
  7  8  1  0
  8  9  1  0
  1 10  1  0
  5 11  1  0
  5 12  1  0
  7 13  1  0
  7 14  1  0
  8 15  1  0
  8 16  1  0
  9 17  1  0
M  END
