
     RDKit          3D

 17 16  0  0  0  0  0  0  0  0999 V2000
    3.6124   -1.9835   -1.7423 C   0  0  0  0  0  0  0  0  0  0  0  0
    2.7988   -1.4545   -1.3498 C   0  0  0  0  0  0  0  0  0  0  0  0
    1.5988   -0.6490   -0.7711 C   0  0  0  0  0  0  0  0  0  0  0  0
    0.6852   -0.0182   -0.3107 C   0  0  0  0  0  0  0  0  0  0  0  0
   -0.4693    0.7822    0.2482 C   0  0  0  0  0  0  0  0  0  0  0  0
   -1.5890    0.5860   -0.7312 C   0  0  0  0  0  0  0  0  0  0  0  0
   -2.7290    1.2587   -0.3559 O   0  0  0  0  0  0  0  0  0  0  0  0
   -0.7175    0.2013    1.6056 C   0  0  0  0  0  0  0  0  0  0  0  0
    0.3978    0.4049    2.4300 O   0  0  0  0  0  0  0  0  0  0  0  0
    4.4667   -2.5260   -2.1408 H   0  0  0  0  0  0  0  0  0  0  0  0
   -0.0563    1.8065    0.1854 H   0  0  0  0  0  0  0  0  0  0  0  0
   -1.8162   -0.5005   -0.9031 H   0  0  0  0  0  0  0  0  0  0  0  0
   -1.2767    1.0200   -1.7479 H   0  0  0  0  0  0  0  0  0  0  0  0
   -2.9281    1.9187   -1.1163 H   0  0  0  0  0  0  0  0  0  0  0  0
   -1.6387    0.4356    2.0980 H   0  0  0  0  0  0  0  0  0  0  0  0
   -0.6674   -0.9454    1.4724 H   0  0  0  0  0  0  0  0  0  0  0  0
    0.3285   -0.3367    3.1293 H   0  0  0  0  0  0  0  0  0  0  0  0
  1  2  3  0
  2  3  1  0
  3  4  3  0
  4  5  1  0
  5  6  1  0
  6  7  1  0
  5  8  1  0
  8  9  1  0
  1 10  1  0
  5 11  1  0
  6 12  1  0
  6 13  1  0
  7 14  1  0
  8 15  1  0
  8 16  1  0
  9 17  1  0
M  END
