
     RDKit          3D

 17 17  0  0  0  0  0  0  0  0999 V2000
    3.3726    0.3334   -2.6205 C   0  0  0  0  0  0  0  0  0  0  0  0
    2.7608    0.3293   -2.0343 C   0  0  0  0  0  0  0  0  0  0  0  0
    1.6145    0.3002   -0.9133 C   0  0  0  0  0  0  0  0  0  0  0  0
    0.7332    0.2841   -0.0778 C   0  0  0  0  0  0  0  0  0  0  0  0
   -0.3168    0.2631    0.8943 C   0  0  0  0  0  0  0  0  0  0  0  0
    0.0163    0.2781    2.3665 C   0  0  0  0  0  0  0  0  0  0  0  0
   -1.4348    1.1324    0.6045 O   0  0  0  0  0  0  0  0  0  0  0  0
   -1.5695   -0.3660    0.5304 C   0  0  0  0  0  0  0  0  0  0  0  0
   -1.8485   -0.6893   -0.9307 C   0  0  0  0  0  0  0  0  0  0  0  0
    4.2429    0.3601   -3.4535 H   0  0  0  0  0  0  0  0  0  0  0  0
   -0.7071    0.9539    2.9253 H   0  0  0  0  0  0  0  0  0  0  0  0
    0.1255   -0.7042    2.8156 H   0  0  0  0  0  0  0  0  0  0  0  0
    1.0407    0.7992    2.5364 H   0  0  0  0  0  0  0  0  0  0  0  0
   -2.2325   -0.7826    1.2596 H   0  0  0  0  0  0  0  0  0  0  0  0
   -1.2190   -0.1563   -1.6524 H   0  0  0  0  0  0  0  0  0  0  0  0
   -1.6650   -1.8102   -1.1032 H   0  0  0  0  0  0  0  0  0  0  0  0
   -2.9131   -0.5252   -1.1468 H   0  0  0  0  0  0  0  0  0  0  0  0
  1  2  3  0
  2  3  1  0
  3  4  3  0
  4  5  1  0
  5  6  1  0
  5  7  1  0
  7  8  1  0
  8  9  1  0
  8  5  1  0
  1 10  1  0
  6 11  1  0
  6 12  1  0
  6 13  1  0
  8 14  1  0
  9 15  1  0
  9 16  1  0
  9 17  1  0
M  END
