
     RDKit          3D

 14 14  0  0  0  0  0  0  0  0999 V2000
    3.5343    0.2513   -0.5386 C   0  0  0  0  0  0  0  0  0  0  0  0
    2.4696   -0.2227   -0.1972 C   0  0  0  0  0  0  0  0  0  0  0  0
    1.1770   -0.7770    0.2225 C   0  0  0  0  0  0  0  0  0  0  0  0
    0.4785   -1.5392   -0.7247 O   0  0  0  0  0  0  0  0  0  0  0  0
   -0.0671   -0.2303   -0.4124 C   0  0  0  0  0  0  0  0  0  0  0  0
   -1.3430   -0.2444    0.3124 C   0  0  0  0  0  0  0  0  0  0  0  0
   -2.3853    0.7613    0.0027 C   0  0  0  0  0  0  0  0  0  0  0  0
   -1.5897   -1.0616    1.1744 O   0  0  0  0  0  0  0  0  0  0  0  0
    4.4544    0.6614   -0.8401 H   0  0  0  0  0  0  0  0  0  0  0  0
    1.1466   -1.1179    1.2844 H   0  0  0  0  0  0  0  0  0  0  0  0
    0.1212    0.5325   -1.1937 H   0  0  0  0  0  0  0  0  0  0  0  0
   -3.3666    0.5085    0.4809 H   0  0  0  0  0  0  0  0  0  0  0  0
   -2.5743    0.6821   -1.1061 H   0  0  0  0  0  0  0  0  0  0  0  0
   -2.0556    1.7959    0.2613 H   0  0  0  0  0  0  0  0  0  0  0  0
  1  2  3  0
  2  3  1  0
  3  4  1  0
  4  5  1  0
  5  6  1  0
  6  7  1  0
  6  8  2  0
  5  3  1  0
  1  9  1  0
  3 10  1  0
  5 11  1  0
  7 12  1  0
  7 13  1  0
  7 14  1  0
M  END
