
     RDKit          3D

 23 22  0  0  0  0  0  0  0  0999 V2000
    0.8256   -2.6788   -0.7374 C   0  0  0  0  0  0  0  0  0  0  0  0
    1.3700   -1.7530   -0.2742 C   0  0  0  0  0  0  0  0  0  0  0  0
    2.0729   -0.6014    0.3102 C   0  0  0  0  0  0  0  0  0  0  0  0
    3.2274   -0.4127   -0.4924 O   0  0  0  0  0  0  0  0  0  0  0  0
    1.2824    0.6500    0.3673 C   0  0  0  0  0  0  0  0  0  0  0  0
    0.0445    0.6832    1.1638 C   0  0  0  0  0  0  0  0  0  0  0  0
   -1.0659   -0.2237    0.8189 C   0  0  0  0  0  0  0  0  0  0  0  0
   -1.6133   -0.0676   -0.5742 C   0  0  0  0  0  0  0  0  0  0  0  0
   -2.1520    1.3014   -0.8455 C   0  0  0  0  0  0  0  0  0  0  0  0
    0.2971   -3.5397   -1.1755 H   0  0  0  0  0  0  0  0  0  0  0  0
    2.4531   -0.9269    1.3144 H   0  0  0  0  0  0  0  0  0  0  0  0
    3.0894    0.3168   -1.1346 H   0  0  0  0  0  0  0  0  0  0  0  0
    1.9683    1.4627    0.7739 H   0  0  0  0  0  0  0  0  0  0  0  0
    1.0946    0.9888   -0.7002 H   0  0  0  0  0  0  0  0  0  0  0  0
   -0.3222    1.7361    1.2739 H   0  0  0  0  0  0  0  0  0  0  0  0
    0.3482    0.4126    2.2296 H   0  0  0  0  0  0  0  0  0  0  0  0
   -0.8165   -1.2690    0.9990 H   0  0  0  0  0  0  0  0  0  0  0  0
   -1.9488    0.0179    1.5042 H   0  0  0  0  0  0  0  0  0  0  0  0
   -2.4718   -0.7962   -0.6633 H   0  0  0  0  0  0  0  0  0  0  0  0
   -0.8979   -0.3582   -1.3477 H   0  0  0  0  0  0  0  0  0  0  0  0
   -3.2464    1.3335   -1.0464 H   0  0  0  0  0  0  0  0  0  0  0  0
   -1.6551    1.7044   -1.7489 H   0  0  0  0  0  0  0  0  0  0  0  0
   -1.8835    2.0200   -0.0147 H   0  0  0  0  0  0  0  0  0  0  0  0
  1  2  3  0
  2  3  1  0
  3  4  1  0
  3  5  1  0
  5  6  1  0
  6  7  1  0
  7  8  1  0
  8  9  1  0
  1 10  1  0
  3 11  1  0
  4 12  1  0
  5 13  1  0
  5 14  1  0
  6 15  1  0
  6 16  1  0
  7 17  1  0
  7 18  1  0
  8 19  1  0
  8 20  1  0
  9 21  1  0
  9 22  1  0
  9 23  1  0
M  END
