
     RDKit          3D

 14 14  0  0  0  0  0  0  0  0999 V2000
    0.8361   -0.7793   -2.3528 C   0  0  0  0  0  0  0  0  0  0  0  0
    0.7958   -0.3227   -1.2397 C   0  0  0  0  0  0  0  0  0  0  0  0
    0.7690    0.2179    0.0986 C   0  0  0  0  0  0  0  0  0  0  0  0
    0.6480   -0.7585    1.2034 C   0  0  0  0  0  0  0  0  0  0  0  0
    1.3944   -1.3440    1.9453 O   0  0  0  0  0  0  0  0  0  0  0  0
   -0.8175   -0.7080    1.0033 C   0  0  0  0  0  0  0  0  0  0  0  0
   -0.6153    0.7271    0.4984 C   0  0  0  0  0  0  0  0  0  0  0  0
   -0.5417    1.6788    1.4860 O   0  0  0  0  0  0  0  0  0  0  0  0
    0.8539   -1.1865   -3.3331 H   0  0  0  0  0  0  0  0  0  0  0  0
    1.5220    1.0292    0.2863 H   0  0  0  0  0  0  0  0  0  0  0  0
   -1.2441   -1.3865    0.2617 H   0  0  0  0  0  0  0  0  0  0  0  0
   -1.3323   -0.6515    1.9817 H   0  0  0  0  0  0  0  0  0  0  0  0
   -1.2693    0.9735   -0.3726 H   0  0  0  0  0  0  0  0  0  0  0  0
   -0.9988    2.5104    1.2227 H   0  0  0  0  0  0  0  0  0  0  0  0
  1  2  3  0
  2  3  1  0
  3  4  1  0
  4  5  2  0
  4  6  1  0
  6  7  1  0
  7  8  1  0
  7  3  1  0
  1  9  1  0
  3 10  1  0
  6 11  1  0
  6 12  1  0
  7 13  1  0
  8 14  1  0
M  END
