
     RDKit          3D

 21 21  0  0  0  0  0  0  0  0999 V2000
    2.6808    1.5761    0.3020 C   0  0  0  0  0  0  0  0  0  0  0  0
    1.6592    0.9634    0.1212 C   0  0  0  0  0  0  0  0  0  0  0  0
    0.4254    0.2463   -0.0952 C   0  0  0  0  0  0  0  0  0  0  0  0
    0.5820   -1.0565   -0.4861 O   0  0  0  0  0  0  0  0  0  0  0  0
    1.2610   -1.8595    0.3876 C   0  0  0  0  0  0  0  0  0  0  0  0
   -0.3864    0.9317   -1.2045 C   0  0  0  0  0  0  0  0  0  0  0  0
   -1.6734    0.1479   -1.0812 C   0  0  0  0  0  0  0  0  0  0  0  0
   -1.8472   -0.0908    0.3785 C   0  0  0  0  0  0  0  0  0  0  0  0
   -0.5490    0.3600    1.0527 C   0  0  0  0  0  0  0  0  0  0  0  0
    3.5872    2.1358    0.4672 H   0  0  0  0  0  0  0  0  0  0  0  0
    0.7338   -1.8997    1.3691 H   0  0  0  0  0  0  0  0  0  0  0  0
    2.3260   -1.5804    0.5065 H   0  0  0  0  0  0  0  0  0  0  0  0
    1.2559   -2.8933   -0.0375 H   0  0  0  0  0  0  0  0  0  0  0  0
    0.1594    0.6941   -2.1479 H   0  0  0  0  0  0  0  0  0  0  0  0
   -0.5065    1.9994   -1.0204 H   0  0  0  0  0  0  0  0  0  0  0  0
   -2.5273    0.6578   -1.5635 H   0  0  0  0  0  0  0  0  0  0  0  0
   -1.4843   -0.8490   -1.5624 H   0  0  0  0  0  0  0  0  0  0  0  0
   -1.9723   -1.1616    0.6490 H   0  0  0  0  0  0  0  0  0  0  0  0
   -2.7170    0.4701    0.7368 H   0  0  0  0  0  0  0  0  0  0  0  0
   -0.7136    1.4358    1.3040 H   0  0  0  0  0  0  0  0  0  0  0  0
   -0.2938   -0.2275    1.9242 H   0  0  0  0  0  0  0  0  0  0  0  0
  1  2  3  0
  2  3  1  0
  3  4  1  0
  4  5  1  0
  3  6  1  0
  6  7  1  0
  7  8  1  0
  8  9  1  0
  9  3  1  0
  1 10  1  0
  5 11  1  0
  5 12  1  0
  5 13  1  0
  6 14  1  0
  6 15  1  0
  7 16  1  0
  7 17  1  0
  8 18  1  0
  8 19  1  0
  9 20  1  0
  9 21  1  0
M  END
