
     RDKit          3D

 19 18  0  0  0  0  0  0  0  0999 V2000
   -0.4841    2.7832   -0.3407 C   0  0  0  0  0  0  0  0  0  0  0  0
   -0.7041    1.6456   -0.1025 C   0  0  0  0  0  0  0  0  0  0  0  0
   -0.9958    0.2357    0.1808 C   0  0  0  0  0  0  0  0  0  0  0  0
   -2.3384   -0.1709   -0.0453 C   0  0  0  0  0  0  0  0  0  0  0  0
   -3.2318    0.7535    0.1269 O   0  0  0  0  0  0  0  0  0  0  0  0
   -0.0116   -0.6439   -0.9388 C   0  0  0  0  0  0  0  0  0  0  0  0
    1.4285    0.2894   -0.4497 C   0  0  0  0  0  0  0  0  0  0  0  0
    0.2119   -1.5597   -0.1408 O   0  0  0  0  0  0  0  0  0  0  0  0
    1.1097   -1.6853    0.8631 C   0  0  0  0  0  0  0  0  0  0  0  0
   -0.2746    3.8318   -0.5790 H   0  0  0  0  0  0  0  0  0  0  0  0
   -0.5698   -0.0122    1.1415 H   0  0  0  0  0  0  0  0  0  0  0  0
   -2.7328   -1.1000   -0.3204 H   0  0  0  0  0  0  0  0  0  0  0  0
   -0.1884    0.1334   -1.6019 H   0  0  0  0  0  0  0  0  0  0  0  0
    1.3274    0.2434    0.5913 H   0  0  0  0  0  0  0  0  0  0  0  0
    1.1883    1.1903   -0.9934 H   0  0  0  0  0  0  0  0  0  0  0  0
    2.1709   -0.3345   -0.8895 H   0  0  0  0  0  0  0  0  0  0  0  0
    2.1586   -1.6189    0.5154 H   0  0  0  0  0  0  0  0  0  0  0  0
    1.0328   -2.8045    1.1494 H   0  0  0  0  0  0  0  0  0  0  0  0
    0.9033   -1.1765    1.8335 H   0  0  0  0  0  0  0  0  0  0  0  0
  1  2  3  0
  2  3  1  0
  3  4  1  0
  4  5  2  0
  3  6  1  0
  6  7  1  0
  6  8  1  0
  8  9  1  0
  1 10  1  0
  3 11  1  0
  4 12  1  0
  6 13  1  0
  7 14  1  0
  7 15  1  0
  7 16  1  0
  9 17  1  0
  9 18  1  0
  9 19  1  0
M  END
