
     RDKit          3D

 12 11  0  0  0  0  0  0  0  0999 V2000
    4.3745    0.2180    1.0765 C   0  0  0  0  0  0  0  0  0  0  0  0
    3.2136    0.1205    0.5898 C   0  0  0  0  0  0  0  0  0  0  0  0
    2.0291    0.0348    0.1102 C   0  0  0  0  0  0  0  0  0  0  0  0
    0.8304   -0.0409   -0.3940 C   0  0  0  0  0  0  0  0  0  0  0  0
   -0.7384   -0.1337   -1.0821 C   0  0  0  0  0  0  0  0  0  0  0  0
   -0.6721   -0.3061   -2.2499 O   0  0  0  0  0  0  0  0  0  0  0  0
   -1.5262    0.0368   -0.0316 O   0  0  0  0  0  0  0  0  0  0  0  0
   -2.9309   -0.0899   -0.2342 C   0  0  0  0  0  0  0  0  0  0  0  0
    5.2552    0.2849    1.4438 H   0  0  0  0  0  0  0  0  0  0  0  0
   -3.2407   -1.0685    0.1069 H   0  0  0  0  0  0  0  0  0  0  0  0
   -3.2018    0.2633   -1.2275 H   0  0  0  0  0  0  0  0  0  0  0  0
   -3.3927    0.6808    0.5192 H   0  0  0  0  0  0  0  0  0  0  0  0
  1  2  3  0
  2  3  1  0
  3  4  3  0
  4  5  1  0
  5  6  2  0
  5  7  1  0
  7  8  1  0
  1  9  1  0
  8 10  1  0
  8 11  1  0
  8 12  1  0
M  END
