
     RDKit          3D

 19 20  0  0  0  0  0  0  0  0999 V2000
    3.5661   -0.0030    0.8758 C   0  0  0  0  0  0  0  0  0  0  0  0
    2.5324   -0.4744    0.4558 C   0  0  0  0  0  0  0  0  0  0  0  0
    1.2574   -1.0277   -0.0626 C   0  0  0  0  0  0  0  0  0  0  0  0
    0.0958   -0.7864    0.6954 C   0  0  0  0  0  0  0  0  0  0  0  0
   -0.4664    0.3469    1.3773 C   0  0  0  0  0  0  0  0  0  0  0  0
   -1.3897    1.0278    0.7181 C   0  0  0  0  0  0  0  0  0  0  0  0
   -1.8661    0.6989   -0.6469 C   0  0  0  0  0  0  0  0  0  0  0  0
   -0.9627   -0.3254   -1.3546 C   0  0  0  0  0  0  0  0  0  0  0  0
    0.3600   -0.1730   -0.7329 C   0  0  0  0  0  0  0  0  0  0  0  0
    4.4727    0.3971    1.2561 H   0  0  0  0  0  0  0  0  0  0  0  0
    1.4440   -2.0430   -0.4829 H   0  0  0  0  0  0  0  0  0  0  0  0
   -0.6417   -1.6506    0.7278 H   0  0  0  0  0  0  0  0  0  0  0  0
   -0.1725    0.6420    2.3584 H   0  0  0  0  0  0  0  0  0  0  0  0
   -1.8604    1.9028    1.1762 H   0  0  0  0  0  0  0  0  0  0  0  0
   -1.7467    1.6335   -1.2535 H   0  0  0  0  0  0  0  0  0  0  0  0
   -2.9189    0.4154   -0.6912 H   0  0  0  0  0  0  0  0  0  0  0  0
   -0.9614   -0.1455   -2.4544 H   0  0  0  0  0  0  0  0  0  0  0  0
   -1.4076   -1.3553   -1.2155 H   0  0  0  0  0  0  0  0  0  0  0  0
    0.6656    0.9200   -0.7468 H   0  0  0  0  0  0  0  0  0  0  0  0
  1  2  3  0
  2  3  1  0
  3  4  1  0
  4  5  1  0
  5  6  2  0
  6  7  1  0
  7  8  1  0
  8  9  1  0
  9  3  1  0
  9  4  1  0
  1 10  1  0
  3 11  1  0
  4 12  1  0
  5 13  1  0
  6 14  1  0
  7 15  1  0
  7 16  1  0
  8 17  1  0
  8 18  1  0
  9 19  1  0
M  END
