
     RDKit          3D

 17 18  0  0  0  0  0  0  0  0999 V2000
   -2.0215    1.7633   -1.6282 C   0  0  0  0  0  0  0  0  0  0  0  0
   -1.3284    0.8589   -1.0905 C   0  0  0  0  0  0  0  0  0  0  0  0
   -0.5302   -0.1809   -0.4980 C   0  0  0  0  0  0  0  0  0  0  0  0
    0.1693    0.1740    0.8085 C   0  0  0  0  0  0  0  0  0  0  0  0
   -0.6650    0.5836    1.8389 O   0  0  0  0  0  0  0  0  0  0  0  0
    1.6006    0.5859    0.6997 C   0  0  0  0  0  0  0  0  0  0  0  0
    1.2631   -0.7579    1.2510 C   0  0  0  0  0  0  0  0  0  0  0  0
   -0.1404   -1.3096   -1.2717 C   0  0  0  0  0  0  0  0  0  0  0  0
   -1.3403   -1.3772   -0.3946 O   0  0  0  0  0  0  0  0  0  0  0  0
   -2.6101    2.5269   -2.0628 H   0  0  0  0  0  0  0  0  0  0  0  0
   -1.3892    1.1828    1.5669 H   0  0  0  0  0  0  0  0  0  0  0  0
    2.0832    0.6298   -0.3060 H   0  0  0  0  0  0  0  0  0  0  0  0
    2.0483    1.3372    1.3835 H   0  0  0  0  0  0  0  0  0  0  0  0
    1.3591   -0.8281    2.3697 H   0  0  0  0  0  0  0  0  0  0  0  0
    1.4461   -1.6800    0.6813 H   0  0  0  0  0  0  0  0  0  0  0  0
    0.5392   -2.1178   -0.9991 H   0  0  0  0  0  0  0  0  0  0  0  0
   -0.4838   -1.3909   -2.3486 H   0  0  0  0  0  0  0  0  0  0  0  0
  1  2  3  0
  2  3  1  0
  3  4  1  0
  4  5  1  0
  4  6  1  0
  6  7  1  0
  3  8  1  0
  8  9  1  0
  9  3  1  0
  7  4  1  0
  1 10  1  0
  5 11  1  0
  6 12  1  0
  6 13  1  0
  7 14  1  0
  7 15  1  0
  8 16  1  0
  8 17  1  0
M  END
