
     RDKit          3D

 19 19  0  0  0  0  0  0  0  0999 V2000
    3.8911    0.2765   -0.3041 C   0  0  0  0  0  0  0  0  0  0  0  0
    2.3564   -0.4049   -0.6432 C   0  0  0  0  0  0  0  0  0  0  0  0
    1.2181   -0.9304   -0.8857 C   0  0  0  0  0  0  0  0  0  0  0  0
    0.5460    0.0927    0.4547 C   0  0  0  0  0  0  0  0  0  0  0  0
   -0.8326   -0.0235    0.5061 C   0  0  0  0  0  0  0  0  0  0  0  0
   -1.3936    1.4839    0.4974 C   0  0  0  0  0  0  0  0  0  0  0  0
   -1.6136   -0.6258    1.3585 O   0  0  0  0  0  0  0  0  0  0  0  0
   -1.1146   -0.4565   -0.9747 C   0  0  0  0  0  0  0  0  0  0  0  0
    0.0026   -1.3457   -0.9778 C   0  0  0  0  0  0  0  0  0  0  0  0
    4.9582    0.7729   -0.0634 H   0  0  0  0  0  0  0  0  0  0  0  0
    1.1392    0.6554    1.0954 H   0  0  0  0  0  0  0  0  0  0  0  0
   -0.5385    2.1216    0.3599 H   0  0  0  0  0  0  0  0  0  0  0  0
   -1.8234    1.5492    1.5075 H   0  0  0  0  0  0  0  0  0  0  0  0
   -2.1050    1.6195   -0.3516 H   0  0  0  0  0  0  0  0  0  0  0  0
   -1.5094   -0.1442    2.2913 H   0  0  0  0  0  0  0  0  0  0  0  0
   -2.0739   -0.8980   -1.0209 H   0  0  0  0  0  0  0  0  0  0  0  0
   -0.9938    0.4849   -1.6384 H   0  0  0  0  0  0  0  0  0  0  0  0
    0.0218   -2.3502   -1.4562 H   0  0  0  0  0  0  0  0  0  0  0  0
   -0.1351   -1.8773    0.2451 H   0  0  0  0  0  0  0  0  0  0  0  0
  1  2  3  0
  2  3  1  0
  3  4  2  0
  4  5  1  0
  5  6  1  0
  5  7  1  0
  5  8  1  0
  8  9  1  0
  9  3  1  0
  1 10  1  0
  4 11  1  0
  6 12  1  0
  6 13  1  0
  6 14  1  0
  7 15  1  0
  8 16  1  0
  8 17  1  0
  9 18  1  0
  9 19  1  0
M  END
