
     RDKit          3D

 15 16  0  0  0  0  0  0  0  0999 V2000
   -2.4037    1.1226    0.7280 C   0  0  0  0  0  0  0  0  0  0  0  0
   -1.3985    0.5259    0.4280 C   0  0  0  0  0  0  0  0  0  0  0  0
   -0.1662   -0.1799    0.0767 C   0  0  0  0  0  0  0  0  0  0  0  0
   -0.3466   -1.5960   -0.3809 C   0  0  0  0  0  0  0  0  0  0  0  0
    0.9118    0.0613    1.0510 C   0  0  0  0  0  0  0  0  0  0  0  0
    1.1961   -0.1399    2.2189 O   0  0  0  0  0  0  0  0  0  0  0  0
    1.6798    0.7495   -0.0323 C   0  0  0  0  0  0  0  0  0  0  0  0
    1.9195    0.0923   -1.2212 O   0  0  0  0  0  0  0  0  0  0  0  0
    0.6641    0.6090   -0.9437 C   0  0  0  0  0  0  0  0  0  0  0  0
   -3.2994    1.6610    0.9853 H   0  0  0  0  0  0  0  0  0  0  0  0
   -1.3020   -1.6537   -0.9505 H   0  0  0  0  0  0  0  0  0  0  0  0
   -0.3796   -2.2932    0.5066 H   0  0  0  0  0  0  0  0  0  0  0  0
    0.4544   -1.8556   -1.0751 H   0  0  0  0  0  0  0  0  0  0  0  0
    2.3212    1.6215    0.2415 H   0  0  0  0  0  0  0  0  0  0  0  0
    0.1491    1.2751   -1.6320 H   0  0  0  0  0  0  0  0  0  0  0  0
  1  2  3  0
  2  3  1  0
  3  4  1  0
  3  5  1  0
  5  6  2  0
  5  7  1  0
  7  8  1  0
  8  9  1  0
  9  3  1  0
  9  7  1  0
  1 10  1  0
  4 11  1  0
  4 12  1  0
  4 13  1  0
  7 14  1  0
  9 15  1  0
M  END
