
     RDKit          3D

 16 16  0  0  0  0  0  0  0  0999 V2000
    3.5201   -0.2697    0.7157 C   0  0  0  0  0  0  0  0  0  0  0  0
    2.3448   -0.1730    0.4629 C   0  0  0  0  0  0  0  0  0  0  0  0
    0.9270   -0.0343    0.1478 C   0  0  0  0  0  0  0  0  0  0  0  0
    0.2665   -1.1900    0.5479 O   0  0  0  0  0  0  0  0  0  0  0  0
   -1.0598   -1.1862    0.2206 C   0  0  0  0  0  0  0  0  0  0  0  0
   -1.5852    0.1117   -0.2959 C   0  0  0  0  0  0  0  0  0  0  0  0
   -0.8541    1.3179    0.1797 C   0  0  0  0  0  0  0  0  0  0  0  0
    0.3347    1.0282    0.8489 O   0  0  0  0  0  0  0  0  0  0  0  0
    4.5688   -0.3578    0.9485 H   0  0  0  0  0  0  0  0  0  0  0  0
    0.7683    0.1119   -0.9346 H   0  0  0  0  0  0  0  0  0  0  0  0
   -1.6552   -1.5577    1.0899 H   0  0  0  0  0  0  0  0  0  0  0  0
   -1.2029   -1.9648   -0.5854 H   0  0  0  0  0  0  0  0  0  0  0  0
   -2.6548    0.1939    0.0562 H   0  0  0  0  0  0  0  0  0  0  0  0
   -1.6815    0.0756   -1.4197 H   0  0  0  0  0  0  0  0  0  0  0  0
   -0.5388    1.9064   -0.7324 H   0  0  0  0  0  0  0  0  0  0  0  0
   -1.4979    1.9880    0.8114 H   0  0  0  0  0  0  0  0  0  0  0  0
  1  2  3  0
  2  3  1  0
  3  4  1  0
  4  5  1  0
  5  6  1  0
  6  7  1  0
  7  8  1  0
  8  3  1  0
  1  9  1  0
  3 10  1  0
  5 11  1  0
  5 12  1  0
  6 13  1  0
  6 14  1  0
  7 15  1  0
  7 16  1  0
M  END
