
     RDKit          3D

 14 15  0  0  0  0  0  0  0  0999 V2000
    2.8683   -0.1342    1.1385 C   0  0  0  0  0  0  0  0  0  0  0  0
    1.7773    0.2782    0.8106 C   0  0  0  0  0  0  0  0  0  0  0  0
    0.4465    0.7594    0.4252 C   0  0  0  0  0  0  0  0  0  0  0  0
   -0.7002    0.0317    0.8451 C   0  0  0  0  0  0  0  0  0  0  0  0
   -1.2600   -1.1322    0.2952 O   0  0  0  0  0  0  0  0  0  0  0  0
   -1.7805   -0.1847   -0.6338 C   0  0  0  0  0  0  0  0  0  0  0  0
   -0.2960    0.1890   -0.6760 C   0  0  0  0  0  0  0  0  0  0  0  0
    0.3668   -0.9678   -1.1872 O   0  0  0  0  0  0  0  0  0  0  0  0
    3.8346   -0.5174    1.4367 H   0  0  0  0  0  0  0  0  0  0  0  0
    0.4481    1.8915    0.4403 H   0  0  0  0  0  0  0  0  0  0  0  0
   -1.5699    0.6824    1.1696 H   0  0  0  0  0  0  0  0  0  0  0  0
   -2.4669    0.5438   -0.2282 H   0  0  0  0  0  0  0  0  0  0  0  0
   -2.1252   -0.6248   -1.5708 H   0  0  0  0  0  0  0  0  0  0  0  0
    0.4572   -0.8149   -2.1422 H   0  0  0  0  0  0  0  0  0  0  0  0
  1  2  3  0
  2  3  1  0
  3  4  1  0
  4  5  1  0
  5  6  1  0
  6  7  1  0
  7  8  1  0
  7  3  1  0
  7  4  1  0
  1  9  1  0
  3 10  1  0
  4 11  1  0
  6 12  1  0
  6 13  1  0
  8 14  1  0
M  END
