
     RDKit          3D

 21 22  0  0  0  0  0  0  0  0999 V2000
    3.9641    0.3140    1.0288 C   0  0  0  0  0  0  0  0  0  0  0  0
    2.7908    0.5567    1.0485 C   0  0  0  0  0  0  0  0  0  0  0  0
    1.3416    0.8524    1.0984 C   0  0  0  0  0  0  0  0  0  0  0  0
    0.5873   -0.1306    0.2267 C   0  0  0  0  0  0  0  0  0  0  0  0
    0.8761   -0.2207   -1.2335 C   0  0  0  0  0  0  0  0  0  0  0  0
   -0.3499    0.4630   -0.8334 C   0  0  0  0  0  0  0  0  0  0  0  0
   -1.7175   -0.1267   -0.9367 C   0  0  0  0  0  0  0  0  0  0  0  0
   -2.5531   -0.0086    0.3726 C   0  0  0  0  0  0  0  0  0  0  0  0
   -2.1661   -1.3125   -0.2101 C   0  0  0  0  0  0  0  0  0  0  0  0
    5.0177    0.0850    1.0224 H   0  0  0  0  0  0  0  0  0  0  0  0
    1.1731    1.8816    0.7243 H   0  0  0  0  0  0  0  0  0  0  0  0
    1.0339    0.7320    2.1386 H   0  0  0  0  0  0  0  0  0  0  0  0
    0.2554   -1.0387    0.7606 H   0  0  0  0  0  0  0  0  0  0  0  0
    1.7247    0.4525   -1.5549 H   0  0  0  0  0  0  0  0  0  0  0  0
    0.8444   -1.2196   -1.6951 H   0  0  0  0  0  0  0  0  0  0  0  0
   -0.3647    1.5905   -0.8400 H   0  0  0  0  0  0  0  0  0  0  0  0
   -2.2838    0.1700   -1.8505 H   0  0  0  0  0  0  0  0  0  0  0  0
   -3.5910    0.3935    0.2501 H   0  0  0  0  0  0  0  0  0  0  0  0
   -2.0382    0.4122    1.2553 H   0  0  0  0  0  0  0  0  0  0  0  0
   -3.0212   -1.8849   -0.6654 H   0  0  0  0  0  0  0  0  0  0  0  0
   -1.5236   -1.9612    0.3967 H   0  0  0  0  0  0  0  0  0  0  0  0
  1  2  3  0
  2  3  1  0
  3  4  1  0
  4  5  1  0
  5  6  1  0
  6  7  1  0
  7  8  1  0
  8  9  1  0
  6  4  1  0
  9  7  1  0
  1 10  1  0
  3 11  1  0
  3 12  1  0
  4 13  1  0
  5 14  1  0
  5 15  1  0
  6 16  1  0
  7 17  1  0
  8 18  1  0
  8 19  1  0
  9 20  1  0
  9 21  1  0
M  END
