
     RDKit          3D

 21 21  0  0  0  0  0  0  0  0999 V2000
   -2.4151   -1.4055    0.2413 C   0  0  0  0  0  0  0  0  0  0  0  0
   -1.5464   -0.8502   -0.3892 C   0  0  0  0  0  0  0  0  0  0  0  0
   -0.4696   -0.1697   -1.1388 C   0  0  0  0  0  0  0  0  0  0  0  0
   -1.0192    1.0274   -1.8550 C   0  0  0  0  0  0  0  0  0  0  0  0
    0.0973   -1.0157   -2.0933 O   0  0  0  0  0  0  0  0  0  0  0  0
    0.6029    0.1775   -0.1427 C   0  0  0  0  0  0  0  0  0  0  0  0
    1.1802   -1.0492    0.5610 C   0  0  0  0  0  0  0  0  0  0  0  0
    0.4336    0.0479    1.2994 C   0  0  0  0  0  0  0  0  0  0  0  0
    1.3408    0.8903    2.1879 C   0  0  0  0  0  0  0  0  0  0  0  0
   -3.1835   -1.9032    0.7962 H   0  0  0  0  0  0  0  0  0  0  0  0
   -0.7050    1.0621   -2.9244 H   0  0  0  0  0  0  0  0  0  0  0  0
   -0.7663    1.9847   -1.3603 H   0  0  0  0  0  0  0  0  0  0  0  0
   -2.1274    0.9515   -1.8629 H   0  0  0  0  0  0  0  0  0  0  0  0
    0.0682   -0.6306   -2.9927 H   0  0  0  0  0  0  0  0  0  0  0  0
    1.3894    0.8736   -0.5212 H   0  0  0  0  0  0  0  0  0  0  0  0
    2.2587   -1.1528    0.6643 H   0  0  0  0  0  0  0  0  0  0  0  0
    0.6271   -2.0088    0.4867 H   0  0  0  0  0  0  0  0  0  0  0  0
   -0.5150   -0.2228    1.7883 H   0  0  0  0  0  0  0  0  0  0  0  0
    1.1786    1.9773    2.0038 H   0  0  0  0  0  0  0  0  0  0  0  0
    2.4125    0.6970    1.9922 H   0  0  0  0  0  0  0  0  0  0  0  0
    1.1583    0.7190    3.2594 H   0  0  0  0  0  0  0  0  0  0  0  0
  1  2  3  0
  2  3  1  0
  3  4  1  0
  3  5  1  0
  3  6  1  0
  6  7  1  0
  7  8  1  0
  8  9  1  0
  8  6  1  0
  1 10  1  0
  4 11  1  0
  4 12  1  0
  4 13  1  0
  5 14  1  0
  6 15  1  0
  7 16  1  0
  7 17  1  0
  8 18  1  0
  9 19  1  0
  9 20  1  0
  9 21  1  0
M  END
