
     RDKit          3D

 17 18  0  0  0  0  0  0  0  0999 V2000
    2.7536    1.1757    0.3191 C   0  0  0  0  0  0  0  0  0  0  0  0
    1.7886    0.5854   -0.0774 C   0  0  0  0  0  0  0  0  0  0  0  0
    0.6175   -0.1027   -0.5473 C   0  0  0  0  0  0  0  0  0  0  0  0
    0.8135   -0.9650   -1.6093 O   0  0  0  0  0  0  0  0  0  0  0  0
    0.5072   -1.6086   -0.4338 C   0  0  0  0  0  0  0  0  0  0  0  0
   -0.9795   -1.8345   -0.2642 C   0  0  0  0  0  0  0  0  0  0  0  0
   -1.5682   -0.6262   -0.7109 O   0  0  0  0  0  0  0  0  0  0  0  0
   -0.7480    0.3093   -0.1148 C   0  0  0  0  0  0  0  0  0  0  0  0
   -1.0959    1.7184   -0.3957 C   0  0  0  0  0  0  0  0  0  0  0  0
    3.5998    1.7085    0.6836 H   0  0  0  0  0  0  0  0  0  0  0  0
    1.2345   -2.0821    0.2009 H   0  0  0  0  0  0  0  0  0  0  0  0
   -1.2896   -2.0103    0.7610 H   0  0  0  0  0  0  0  0  0  0  0  0
   -1.3702   -2.6000   -0.9899 H   0  0  0  0  0  0  0  0  0  0  0  0
   -0.8101    0.1439    0.9982 H   0  0  0  0  0  0  0  0  0  0  0  0
   -0.5839    2.3692    0.3441 H   0  0  0  0  0  0  0  0  0  0  0  0
   -0.6818    1.9794   -1.4102 H   0  0  0  0  0  0  0  0  0  0  0  0
   -2.1875    1.8395   -0.3903 H   0  0  0  0  0  0  0  0  0  0  0  0
  1  2  3  0
  2  3  1  0
  3  4  1  0
  4  5  1  0
  5  6  1  0
  6  7  1  0
  7  8  1  0
  8  9  1  0
  5  3  1  0
  8  3  1  0
  1 10  1  0
  5 11  1  0
  6 12  1  0
  6 13  1  0
  8 14  1  0
  9 15  1  0
  9 16  1  0
  9 17  1  0
M  END
