
     RDKit          3D

 15 15  0  0  0  0  0  0  0  0999 V2000
    2.0305    1.3727   -2.1257 C   0  0  0  0  0  0  0  0  0  0  0  0
    1.2747    0.9764   -1.3267 C   0  0  0  0  0  0  0  0  0  0  0  0
    0.3275    0.4946   -0.3422 C   0  0  0  0  0  0  0  0  0  0  0  0
    0.0506    1.0370    0.8309 C   0  0  0  0  0  0  0  0  0  0  0  0
   -0.9861    0.2416    1.5774 C   0  0  0  0  0  0  0  0  0  0  0  0
   -0.8385   -1.0939    0.8858 C   0  0  0  0  0  0  0  0  0  0  0  0
   -0.9611   -2.1514    1.3967 O   0  0  0  0  0  0  0  0  0  0  0  0
   -0.5124   -0.7159   -0.5347 C   0  0  0  0  0  0  0  0  0  0  0  0
    0.2598   -1.7034   -1.0814 O   0  0  0  0  0  0  0  0  0  0  0  0
    2.7298    1.7578   -2.8874 H   0  0  0  0  0  0  0  0  0  0  0  0
    0.5421    1.9536    1.1608 H   0  0  0  0  0  0  0  0  0  0  0  0
   -0.6060    0.2178    2.6192 H   0  0  0  0  0  0  0  0  0  0  0  0
   -1.9930    0.6353    1.4658 H   0  0  0  0  0  0  0  0  0  0  0  0
   -1.4520   -0.4869   -1.0744 H   0  0  0  0  0  0  0  0  0  0  0  0
    0.1339   -2.5353   -0.5642 H   0  0  0  0  0  0  0  0  0  0  0  0
  1  2  3  0
  2  3  1  0
  3  4  2  0
  4  5  1  0
  5  6  1  0
  6  7  2  0
  6  8  1  0
  8  9  1  0
  8  3  1  0
  1 10  1  0
  4 11  1  0
  5 12  1  0
  5 13  1  0
  8 14  1  0
  9 15  1  0
M  END
