
     RDKit          3D

 17 17  0  0  0  0  0  0  0  0999 V2000
   -1.7211    2.7874   -0.5605 C   0  0  0  0  0  0  0  0  0  0  0  0
   -0.7019    1.5632   -0.1469 C   0  0  0  0  0  0  0  0  0  0  0  0
    0.0235    0.6946    0.1458 C   0  0  0  0  0  0  0  0  0  0  0  0
   -0.6241   -0.5459    0.8631 C   0  0  0  0  0  0  0  0  0  0  0  0
   -1.8271   -1.0528    0.2323 C   0  0  0  0  0  0  0  0  0  0  0  0
   -0.1237   -0.9452    1.8014 O   0  0  0  0  0  0  0  0  0  0  0  0
    0.4379    0.0423   -1.1858 O   0  0  0  0  0  0  0  0  0  0  0  0
    1.4358    0.5199   -0.1102 C   0  0  0  0  0  0  0  0  0  0  0  0
    2.2293   -0.7691    0.1038 C   0  0  0  0  0  0  0  0  0  0  0  0
   -2.1226    3.2693   -0.7304 H   0  0  0  0  0  0  0  0  0  0  0  0
   -1.5344   -1.5644   -0.7851 H   0  0  0  0  0  0  0  0  0  0  0  0
   -2.6013   -0.3237   -0.0403 H   0  0  0  0  0  0  0  0  0  0  0  0
   -2.2976   -1.8816    0.7647 H   0  0  0  0  0  0  0  0  0  0  0  0
    2.0171    1.4057   -0.4863 H   0  0  0  0  0  0  0  0  0  0  0  0
    1.5880   -1.6792   -0.0520 H   0  0  0  0  0  0  0  0  0  0  0  0
    2.8305   -0.7633    0.9917 H   0  0  0  0  0  0  0  0  0  0  0  0
    2.9916   -0.7573   -0.8054 H   0  0  0  0  0  0  0  0  0  0  0  0
  1  2  3  0
  2  3  1  0
  3  4  1  0
  4  5  1  0
  4  6  2  0
  3  7  1  0
  7  8  1  0
  8  9  1  0
  8  3  1  0
  1 10  1  0
  5 11  1  0
  5 12  1  0
  5 13  1  0
  8 14  1  0
  9 15  1  0
  9 16  1  0
  9 17  1  0
M  END
