
     RDKit          3D

 21 20  0  0  0  0  0  0  0  0999 V2000
   -3.5515    1.5043    0.8034 C   0  0  0  0  0  0  0  0  0  0  0  0
   -2.7056    0.7724    0.6825 C   0  0  0  0  0  0  0  0  0  0  0  0
   -1.3025   -0.4107    0.5046 C   0  0  0  0  0  0  0  0  0  0  0  0
   -2.0595   -0.8608   -0.7706 C   0  0  0  0  0  0  0  0  0  0  0  0
   -2.7488   -1.2763   -1.9016 C   0  0  0  0  0  0  0  0  0  0  0  0
   -0.3846    0.5522    0.1315 C   0  0  0  0  0  0  0  0  0  0  0  0
    0.9497   -0.0630   -0.0491 C   0  0  0  0  0  0  0  0  0  0  0  0
    1.9578   -0.0342    1.0743 C   0  0  0  0  0  0  0  0  0  0  0  0
    3.3187   -0.2834    0.3893 C   0  0  0  0  0  0  0  0  0  0  0  0
   -4.3362    2.2045    0.9075 H   0  0  0  0  0  0  0  0  0  0  0  0
   -1.5563   -1.1817    1.0204 H   0  0  0  0  0  0  0  0  0  0  0  0
   -3.2580   -1.5787   -2.7169 H   0  0  0  0  0  0  0  0  0  0  0  0
   -0.6938    1.0750   -0.9033 H   0  0  0  0  0  0  0  0  0  0  0  0
   -0.4250    1.4482    0.8307 H   0  0  0  0  0  0  0  0  0  0  0  0
    0.6417   -1.2961    0.0317 H   0  0  0  0  0  0  0  0  0  0  0  0
    1.3773   -0.0273   -1.0314 H   0  0  0  0  0  0  0  0  0  0  0  0
    1.8028   -0.8008    1.8489 H   0  0  0  0  0  0  0  0  0  0  0  0
    2.0371    0.9862    1.4933 H   0  0  0  0  0  0  0  0  0  0  0  0
    4.0841   -0.6624    1.0238 H   0  0  0  0  0  0  0  0  0  0  0  0
    3.1816   -0.8426   -0.5796 H   0  0  0  0  0  0  0  0  0  0  0  0
    3.6709    0.7752    0.0172 H   0  0  0  0  0  0  0  0  0  0  0  0
  1  2  3  0
  2  3  1  0
  3  4  1  0
  4  5  3  0
  3  6  1  0
  6  7  1  0
  7  8  1  0
  8  9  1  0
  1 10  1  0
  3 11  1  0
  5 12  1  0
  6 13  1  0
  6 14  1  0
  7 15  1  0
  7 16  1  0
  8 17  1  0
  8 18  1  0
  9 19  1  0
  9 20  1  0
  9 21  1  0
M  END
