
     RDKit          3D

 21 21  0  0  0  0  0  0  0  0999 V2000
    2.3355    2.2344    0.0313 C   0  0  0  0  0  0  0  0  0  0  0  0
    1.7919    1.1717    0.2216 C   0  0  0  0  0  0  0  0  0  0  0  0
    1.1541   -0.1301    0.4493 C   0  0  0  0  0  0  0  0  0  0  0  0
    2.0507   -1.2336   -0.0027 C   0  0  0  0  0  0  0  0  0  0  0  0
   -0.1662   -0.0843   -0.2811 C   0  0  0  0  0  0  0  0  0  0  0  0
   -0.9655   -1.2848   -0.1848 C   0  0  0  0  0  0  0  0  0  0  0  0
   -2.2261   -1.0132    0.0577 C   0  0  0  0  0  0  0  0  0  0  0  0
   -2.4412    0.4507    0.1589 C   0  0  0  0  0  0  0  0  0  0  0  0
   -1.0150    0.9525    0.4247 C   0  0  0  0  0  0  0  0  0  0  0  0
    2.8090    3.1674   -0.1272 H   0  0  0  0  0  0  0  0  0  0  0  0
    0.9840   -0.2413    1.5464 H   0  0  0  0  0  0  0  0  0  0  0  0
    2.6097   -1.6860    0.8605 H   0  0  0  0  0  0  0  0  0  0  0  0
    2.8347   -0.9178   -0.7222 H   0  0  0  0  0  0  0  0  0  0  0  0
    1.4579   -2.0639   -0.4355 H   0  0  0  0  0  0  0  0  0  0  0  0
    0.0746    0.2228   -1.3226 H   0  0  0  0  0  0  0  0  0  0  0  0
   -0.6635   -2.3525   -0.2848 H   0  0  0  0  0  0  0  0  0  0  0  0
   -3.0711   -1.7074    0.1833 H   0  0  0  0  0  0  0  0  0  0  0  0
   -2.7891    0.9194   -0.7613 H   0  0  0  0  0  0  0  0  0  0  0  0
   -3.0843    0.6611    1.0471 H   0  0  0  0  0  0  0  0  0  0  0  0
   -0.8052    0.9716    1.5132 H   0  0  0  0  0  0  0  0  0  0  0  0
   -0.8749    1.9632    0.0143 H   0  0  0  0  0  0  0  0  0  0  0  0
  1  2  3  0
  2  3  1  0
  3  4  1  0
  3  5  1  0
  5  6  1  0
  6  7  2  0
  7  8  1  0
  8  9  1  0
  9  5  1  0
  1 10  1  0
  3 11  1  0
  4 12  1  0
  4 13  1  0
  4 14  1  0
  5 15  1  0
  6 16  1  0
  7 17  1  0
  8 18  1  0
  8 19  1  0
  9 20  1  0
  9 21  1  0
M  END
