
     RDKit          3D

 13 13  0  0  0  0  0  0  0  0999 V2000
    1.9580   -0.4700   -1.1007 C   0  0  0  0  0  0  0  0  0  0  0  0
    0.9340   -0.7106   -0.6713 C   0  0  0  0  0  0  0  0  0  0  0  0
   -0.6599   -1.1093    0.0217 C   0  0  0  0  0  0  0  0  0  0  0  0
   -0.3491   -1.1607    1.2495 O   0  0  0  0  0  0  0  0  0  0  0  0
    0.0523    0.2155    1.1941 C   0  0  0  0  0  0  0  0  0  0  0  0
   -1.1198    0.2926    0.1212 C   0  0  0  0  0  0  0  0  0  0  0  0
   -0.6964    1.1719   -0.9176 O   0  0  0  0  0  0  0  0  0  0  0  0
    2.9020   -0.2645   -1.5025 H   0  0  0  0  0  0  0  0  0  0  0  0
   -0.9620   -1.7993   -0.7359 H   0  0  0  0  0  0  0  0  0  0  0  0
   -0.4112    0.7358    2.0790 H   0  0  0  0  0  0  0  0  0  0  0  0
    1.0076    0.3985    0.8725 H   0  0  0  0  0  0  0  0  0  0  0  0
   -2.0540    0.6493    0.4910 H   0  0  0  0  0  0  0  0  0  0  0  0
   -0.6015    2.0508   -0.3513 H   0  0  0  0  0  0  0  0  0  0  0  0
  1  2  3  0
  2  3  1  0
  3  4  1  0
  4  5  1  0
  5  6  1  0
  6  7  1  0
  6  3  1  0
  1  8  1  0
  3  9  1  0
  5 10  1  0
  5 11  1  0
  6 12  1  0
  7 13  1  0
M  END
