
     RDKit          3D

 19 20  0  0  0  0  0  0  0  0999 V2000
   -2.1287   -2.5234    1.2838 C   0  0  0  0  0  0  0  0  0  0  0  0
   -1.7320   -1.4231    0.9831 C   0  0  0  0  0  0  0  0  0  0  0  0
   -1.2409   -0.0860    0.5980 C   0  0  0  0  0  0  0  0  0  0  0  0
    0.0957   -0.0958   -0.1316 C   0  0  0  0  0  0  0  0  0  0  0  0
    0.6646    1.1883   -0.5545 C   0  0  0  0  0  0  0  0  0  0  0  0
    1.3047    0.4019    0.5669 C   0  0  0  0  0  0  0  0  0  0  0  0
    2.6148   -0.2912    0.1957 C   0  0  0  0  0  0  0  0  0  0  0  0
   -2.1490    0.9709    0.4201 C   0  0  0  0  0  0  0  0  0  0  0  0
   -1.3903    0.8806    1.6177 O   0  0  0  0  0  0  0  0  0  0  0  0
   -2.4738   -3.5062    1.5441 H   0  0  0  0  0  0  0  0  0  0  0  0
    0.1996   -0.9899   -0.7958 H   0  0  0  0  0  0  0  0  0  0  0  0
    0.1497    2.1528   -0.2920 H   0  0  0  0  0  0  0  0  0  0  0  0
    1.1952    1.1934   -1.5443 H   0  0  0  0  0  0  0  0  0  0  0  0
    1.1738    0.7359    1.6030 H   0  0  0  0  0  0  0  0  0  0  0  0
    2.8112   -0.2505   -0.8764 H   0  0  0  0  0  0  0  0  0  0  0  0
    3.4487    0.1835    0.7885 H   0  0  0  0  0  0  0  0  0  0  0  0
    2.5739   -1.3340    0.5144 H   0  0  0  0  0  0  0  0  0  0  0  0
   -1.8696    1.8914   -0.1624 H   0  0  0  0  0  0  0  0  0  0  0  0
   -3.2478    0.9015    0.5647 H   0  0  0  0  0  0  0  0  0  0  0  0
  1  2  3  0
  2  3  1  0
  3  4  1  0
  4  5  1  0
  5  6  1  0
  6  7  1  0
  3  8  1  0
  8  9  1  0
  9  3  1  0
  6  4  1  0
  1 10  1  0
  4 11  1  0
  5 12  1  0
  5 13  1  0
  6 14  1  0
  7 15  1  0
  7 16  1  0
  7 17  1  0
  8 18  1  0
  8 19  1  0
M  END
