
     RDKit          3D

 17 17  0  0  0  0  0  0  0  0999 V2000
    2.2920    1.1282    0.3532 C   0  0  0  0  0  0  0  0  0  0  0  0
    1.5704    0.3283   -0.1927 C   0  0  0  0  0  0  0  0  0  0  0  0
    0.6952   -0.6421   -0.8266 C   0  0  0  0  0  0  0  0  0  0  0  0
    1.1415   -1.9382   -0.6732 O   0  0  0  0  0  0  0  0  0  0  0  0
   -0.7266   -0.4532   -0.3747 C   0  0  0  0  0  0  0  0  0  0  0  0
   -0.9255   -0.6091    1.1025 C   0  0  0  0  0  0  0  0  0  0  0  0
   -1.1207    0.8690    1.1632 C   0  0  0  0  0  0  0  0  0  0  0  0
   -1.2356    0.9062   -0.3044 C   0  0  0  0  0  0  0  0  0  0  0  0
   -1.6054    1.7390   -1.1055 O   0  0  0  0  0  0  0  0  0  0  0  0
    2.9101    1.8406    0.8347 H   0  0  0  0  0  0  0  0  0  0  0  0
    0.6985   -0.4373   -1.9378 H   0  0  0  0  0  0  0  0  0  0  0  0
    2.0041   -2.0078   -1.1854 H   0  0  0  0  0  0  0  0  0  0  0  0
   -1.4661   -1.0847   -0.9506 H   0  0  0  0  0  0  0  0  0  0  0  0
   -0.0065   -0.9704    1.6233 H   0  0  0  0  0  0  0  0  0  0  0  0
   -1.8217   -1.2250    1.3284 H   0  0  0  0  0  0  0  0  0  0  0  0
   -0.2884    1.4698    1.5747 H   0  0  0  0  0  0  0  0  0  0  0  0
   -2.1153    1.0865    1.6200 H   0  0  0  0  0  0  0  0  0  0  0  0
  1  2  3  0
  2  3  1  0
  3  4  1  0
  3  5  1  0
  5  6  1  0
  6  7  1  0
  7  8  1  0
  8  9  2  0
  8  5  1  0
  1 10  1  0
  3 11  1  0
  4 12  1  0
  5 13  1  0
  6 14  1  0
  6 15  1  0
  7 16  1  0
  7 17  1  0
M  END
