
     RDKit          3D

 23 22  0  0  0  0  0  0  0  0999 V2000
    2.0088   -0.0301    2.8589 C   0  0  0  0  0  0  0  0  0  0  0  0
    1.5903    0.3906    1.6825 C   0  0  0  0  0  0  0  0  0  0  0  0
    1.1377    0.8221    0.4630 C   0  0  0  0  0  0  0  0  0  0  0  0
    2.1457    1.1858   -0.4010 O   0  0  0  0  0  0  0  0  0  0  0  0
   -0.0903    0.2393   -0.0967 C   0  0  0  0  0  0  0  0  0  0  0  0
   -1.3065    0.5595    0.6560 C   0  0  0  0  0  0  0  0  0  0  0  0
   -2.6097    0.0548    0.1518 C   0  0  0  0  0  0  0  0  0  0  0  0
   -0.1394   -0.1553   -1.5252 C   0  0  0  0  0  0  0  0  0  0  0  0
    0.7963   -1.3523   -1.7870 C   0  0  0  0  0  0  0  0  0  0  0  0
    2.3310   -0.3562    3.8060 H   0  0  0  0  0  0  0  0  0  0  0  0
    0.6604    1.9375    0.7978 H   0  0  0  0  0  0  0  0  0  0  0  0
    2.9595    0.5669   -0.2947 H   0  0  0  0  0  0  0  0  0  0  0  0
    0.0822   -0.9408    0.4108 H   0  0  0  0  0  0  0  0  0  0  0  0
   -1.3601    1.6683    0.8396 H   0  0  0  0  0  0  0  0  0  0  0  0
   -1.1536    0.1758    1.7261 H   0  0  0  0  0  0  0  0  0  0  0  0
   -3.4432    0.7201    0.5769 H   0  0  0  0  0  0  0  0  0  0  0  0
   -2.6873    0.1758   -0.9302 H   0  0  0  0  0  0  0  0  0  0  0  0
   -2.8958   -0.9656    0.4662 H   0  0  0  0  0  0  0  0  0  0  0  0
    0.2936    0.7229   -2.1028 H   0  0  0  0  0  0  0  0  0  0  0  0
   -1.1409   -0.3558   -1.9182 H   0  0  0  0  0  0  0  0  0  0  0  0
    1.8036   -1.2045   -1.4332 H   0  0  0  0  0  0  0  0  0  0  0  0
    0.7010   -1.6999   -2.8128 H   0  0  0  0  0  0  0  0  0  0  0  0
    0.3165   -2.1589   -1.1337 H   0  0  0  0  0  0  0  0  0  0  0  0
  1  2  3  0
  2  3  1  0
  3  4  1  0
  3  5  1  0
  5  6  1  0
  6  7  1  0
  5  8  1  0
  8  9  1  0
  1 10  1  0
  3 11  1  0
  4 12  1  0
  5 13  1  0
  6 14  1  0
  6 15  1  0
  7 16  1  0
  7 17  1  0
  7 18  1  0
  8 19  1  0
  8 20  1  0
  9 21  1  0
  9 22  1  0
  9 23  1  0
M  END
