
     RDKit          3D

 15 15  0  0  0  0  0  0  0  0999 V2000
    2.7499    0.1281    0.0315 C   0  0  0  0  0  0  0  0  0  0  0  0
    1.5644    0.2636    0.1780 C   0  0  0  0  0  0  0  0  0  0  0  0
    0.1049    0.4222    0.3827 C   0  0  0  0  0  0  0  0  0  0  0  0
   -0.1459    1.1429    1.5231 O   0  0  0  0  0  0  0  0  0  0  0  0
   -0.5347    1.0593   -0.7841 C   0  0  0  0  0  0  0  0  0  0  0  0
   -1.0629    0.1495   -1.5625 C   0  0  0  0  0  0  0  0  0  0  0  0
   -0.8360   -1.1768   -1.0062 C   0  0  0  0  0  0  0  0  0  0  0  0
   -0.9459   -2.2516   -1.6429 O   0  0  0  0  0  0  0  0  0  0  0  0
   -0.4593   -0.9750    0.4284 C   0  0  0  0  0  0  0  0  0  0  0  0
    3.8145   -0.0104   -0.0914 H   0  0  0  0  0  0  0  0  0  0  0  0
   -1.1034    1.4101    1.5419 H   0  0  0  0  0  0  0  0  0  0  0  0
   -0.5236    2.1547   -0.9078 H   0  0  0  0  0  0  0  0  0  0  0  0
   -1.5869    0.4235   -2.4875 H   0  0  0  0  0  0  0  0  0  0  0  0
   -1.3441   -1.0175    1.0954 H   0  0  0  0  0  0  0  0  0  0  0  0
    0.3090   -1.7227    0.7525 H   0  0  0  0  0  0  0  0  0  0  0  0
  1  2  3  0
  2  3  1  0
  3  4  1  0
  3  5  1  0
  5  6  2  0
  6  7  1  0
  7  8  2  0
  7  9  1  0
  9  3  1  0
  1 10  1  0
  4 11  1  0
  5 12  1  0
  6 13  1  0
  9 14  1  0
  9 15  1  0
M  END
