
     RDKit          3D

 19 20  0  0  0  0  0  0  0  0999 V2000
    3.4353    0.0683   -0.1062 C   0  0  0  0  0  0  0  0  0  0  0  0
    2.2467   -0.0203   -0.0357 C   0  0  0  0  0  0  0  0  0  0  0  0
    0.9274   -0.1181    0.0658 C   0  0  0  0  0  0  0  0  0  0  0  0
   -0.0180   -0.5707   -1.0106 C   0  0  0  0  0  0  0  0  0  0  0  0
   -0.9048   -0.2361    0.1634 C   0  0  0  0  0  0  0  0  0  0  0  0
   -2.2646   -0.3226    0.2483 C   0  0  0  0  0  0  0  0  0  0  0  0
    0.1317   -0.9300    1.0115 C   0  0  0  0  0  0  0  0  0  0  0  0
   -0.0415    0.9971    0.3195 C   0  0  0  0  0  0  0  0  0  0  0  0
   -0.1528    1.8678   -0.7404 O   0  0  0  0  0  0  0  0  0  0  0  0
    4.5160    0.1318   -0.1621 H   0  0  0  0  0  0  0  0  0  0  0  0
   -0.0920    0.1714   -1.8134 H   0  0  0  0  0  0  0  0  0  0  0  0
    0.0296   -1.6283   -1.3021 H   0  0  0  0  0  0  0  0  0  0  0  0
   -2.7617    0.6043    0.6326 H   0  0  0  0  0  0  0  0  0  0  0  0
   -2.7676   -0.5124   -0.7374 H   0  0  0  0  0  0  0  0  0  0  0  0
   -2.6365   -1.1366    0.9109 H   0  0  0  0  0  0  0  0  0  0  0  0
    0.1611   -2.0223    0.9057 H   0  0  0  0  0  0  0  0  0  0  0  0
    0.1448   -0.5863    2.0835 H   0  0  0  0  0  0  0  0  0  0  0  0
   -0.0352    1.4343    1.3209 H   0  0  0  0  0  0  0  0  0  0  0  0
    0.0822    2.8086   -0.4975 H   0  0  0  0  0  0  0  0  0  0  0  0
  1  2  3  0
  2  3  1  0
  3  4  1  0
  4  5  1  0
  5  6  1  0
  5  7  1  0
  5  8  1  0
  8  9  1  0
  7  3  1  0
  8  3  1  0
  1 10  1  0
  4 11  1  0
  4 12  1  0
  6 13  1  0
  6 14  1  0
  6 15  1  0
  7 16  1  0
  7 17  1  0
  8 18  1  0
  9 19  1  0
M  END
