
     RDKit          3D

 17 18  0  0  0  0  0  0  0  0999 V2000
    2.0318   -1.3422    1.2165 C   0  0  0  0  0  0  0  0  0  0  0  0
    0.8836   -1.2623    0.7554 C   0  0  0  0  0  0  0  0  0  0  0  0
   -0.4697   -1.1626    0.2382 C   0  0  0  0  0  0  0  0  0  0  0  0
   -0.3662   -1.1233   -1.1653 O   0  0  0  0  0  0  0  0  0  0  0  0
    0.3026    0.0881   -1.3982 C   0  0  0  0  0  0  0  0  0  0  0  0
   -0.5604    1.2236   -1.8133 C   0  0  0  0  0  0  0  0  0  0  0  0
   -0.2502    1.0783   -0.3972 C   0  0  0  0  0  0  0  0  0  0  0  0
   -1.0181    0.2181    0.5670 C   0  0  0  0  0  0  0  0  0  0  0  0
   -0.6818    0.5150    1.8790 O   0  0  0  0  0  0  0  0  0  0  0  0
    3.0075   -1.4273    1.6158 H   0  0  0  0  0  0  0  0  0  0  0  0
   -1.1475   -1.9295    0.5972 H   0  0  0  0  0  0  0  0  0  0  0  0
    1.3958    0.1026   -1.4853 H   0  0  0  0  0  0  0  0  0  0  0  0
   -1.5247    0.9828   -2.2995 H   0  0  0  0  0  0  0  0  0  0  0  0
   -0.0297    2.0561   -2.3306 H   0  0  0  0  0  0  0  0  0  0  0  0
    0.4571    1.7866    0.0948 H   0  0  0  0  0  0  0  0  0  0  0  0
   -2.0916    0.2237    0.4358 H   0  0  0  0  0  0  0  0  0  0  0  0
    0.0615   -0.0277    2.2423 H   0  0  0  0  0  0  0  0  0  0  0  0
  1  2  3  0
  2  3  1  0
  3  4  1  0
  4  5  1  0
  5  6  1  0
  6  7  1  0
  7  8  1  0
  8  9  1  0
  8  3  1  0
  7  5  1  0
  1 10  1  0
  3 11  1  0
  5 12  1  0
  6 13  1  0
  6 14  1  0
  7 15  1  0
  8 16  1  0
  9 17  1  0
M  END
