
     RDKit          3D

 14 13  0  0  0  0  0  0  0  0999 V2000
   -0.8173   -1.4345    1.8467 C   0  0  0  0  0  0  0  0  0  0  0  0
   -0.6765   -0.7331    0.9162 C   0  0  0  0  0  0  0  0  0  0  0  0
   -0.4930    0.1314   -0.1954 C   0  0  0  0  0  0  0  0  0  0  0  0
   -0.8089    1.5821    0.2280 C   0  0  0  0  0  0  0  0  0  0  0  0
    0.8792    0.0867   -0.7186 C   0  0  0  0  0  0  0  0  0  0  0  0
    1.5244    1.2188   -0.6961 O   0  0  0  0  0  0  0  0  0  0  0  0
    1.5377   -1.0644   -1.2360 C   0  0  0  0  0  0  0  0  0  0  0  0
    1.0414   -2.2127   -1.2499 O   0  0  0  0  0  0  0  0  0  0  0  0
   -0.9409   -2.1149    2.7729 H   0  0  0  0  0  0  0  0  0  0  0  0
   -1.2058   -0.1423   -1.0306 H   0  0  0  0  0  0  0  0  0  0  0  0
   -1.8337    1.6193    0.6049 H   0  0  0  0  0  0  0  0  0  0  0  0
   -0.6831    2.2683   -0.6366 H   0  0  0  0  0  0  0  0  0  0  0  0
   -0.0654    1.7739    1.0471 H   0  0  0  0  0  0  0  0  0  0  0  0
    2.5418   -0.9786   -1.6526 H   0  0  0  0  0  0  0  0  0  0  0  0
  1  2  3  0
  2  3  1  0
  3  4  1  0
  3  5  1  0
  5  6  2  0
  5  7  1  0
  7  8  2  0
  1  9  1  0
  3 10  1  0
  4 11  1  0
  4 12  1  0
  4 13  1  0
  7 14  1  0
M  END
