
     RDKit          3D

 17 17  0  0  0  0  0  0  0  0999 V2000
    4.8291   -0.0708    0.0539 C   0  0  0  0  0  0  0  0  0  0  0  0
    3.6380   -0.2046   -0.0879 C   0  0  0  0  0  0  0  0  0  0  0  0
    2.2324   -0.3678   -0.2797 C   0  0  0  0  0  0  0  0  0  0  0  0
    1.0482   -0.5083   -0.4613 C   0  0  0  0  0  0  0  0  0  0  0  0
   -0.3888   -0.6851   -0.6656 C   0  0  0  0  0  0  0  0  0  0  0  0
   -1.0724    0.6359   -0.9395 C   0  0  0  0  0  0  0  0  0  0  0  0
   -2.1379    0.2129    0.0777 C   0  0  0  0  0  0  0  0  0  0  0  0
   -2.4308    1.2480    0.9499 O   0  0  0  0  0  0  0  0  0  0  0  0
   -1.0996   -0.7447    0.6690 C   0  0  0  0  0  0  0  0  0  0  0  0
    5.8817    0.0661    0.1803 H   0  0  0  0  0  0  0  0  0  0  0  0
   -0.6762   -1.5024   -1.3391 H   0  0  0  0  0  0  0  0  0  0  0  0
   -0.4617    1.5051   -0.6071 H   0  0  0  0  0  0  0  0  0  0  0  0
   -1.4359    0.7169   -1.9717 H   0  0  0  0  0  0  0  0  0  0  0  0
   -2.9869   -0.2977   -0.3925 H   0  0  0  0  0  0  0  0  0  0  0  0
   -2.8503    2.0151    0.4886 H   0  0  0  0  0  0  0  0  0  0  0  0
   -1.5309   -1.7205    0.9328 H   0  0  0  0  0  0  0  0  0  0  0  0
   -0.5580   -0.2979    1.5183 H   0  0  0  0  0  0  0  0  0  0  0  0
  1  2  3  0
  2  3  1  0
  3  4  3  0
  4  5  1  0
  5  6  1  0
  6  7  1  0
  7  8  1  0
  7  9  1  0
  9  5  1  0
  1 10  1  0
  5 11  1  0
  6 12  1  0
  6 13  1  0
  7 14  1  0
  8 15  1  0
  9 16  1  0
  9 17  1  0
M  END
