
     RDKit          3D

 21 20  0  0  0  0  0  0  0  0999 V2000
    0.6341    1.1770    2.5816 C   0  0  0  0  0  0  0  0  0  0  0  0
    0.0296    0.9684    1.5407 C   0  0  0  0  0  0  0  0  0  0  0  0
   -0.6772    0.6980    0.3159 C   0  0  0  0  0  0  0  0  0  0  0  0
   -0.3597    1.8040   -0.7120 C   0  0  0  0  0  0  0  0  0  0  0  0
   -2.0526    0.7089    0.5432 O   0  0  0  0  0  0  0  0  0  0  0  0
   -0.2212   -0.6482   -0.2330 C   0  0  0  0  0  0  0  0  0  0  0  0
   -0.5974   -1.7037    0.7830 C   0  0  0  0  0  0  0  0  0  0  0  0
    1.1550   -0.5462   -0.3532 O   0  0  0  0  0  0  0  0  0  0  0  0
    1.6738   -0.7561   -1.5988 C   0  0  0  0  0  0  0  0  0  0  0  0
    1.1925    1.3515    3.5173 H   0  0  0  0  0  0  0  0  0  0  0  0
    0.6315    2.2068   -0.4935 H   0  0  0  0  0  0  0  0  0  0  0  0
   -1.1156    2.6186   -0.4817 H   0  0  0  0  0  0  0  0  0  0  0  0
   -0.5201    1.4673   -1.7449 H   0  0  0  0  0  0  0  0  0  0  0  0
   -2.5013   -0.0852    0.1526 H   0  0  0  0  0  0  0  0  0  0  0  0
   -0.7085   -0.8855   -1.2120 H   0  0  0  0  0  0  0  0  0  0  0  0
   -1.0209   -2.6149    0.2821 H   0  0  0  0  0  0  0  0  0  0  0  0
   -1.3863   -1.3268    1.4724 H   0  0  0  0  0  0  0  0  0  0  0  0
    0.2675   -2.0300    1.4037 H   0  0  0  0  0  0  0  0  0  0  0  0
    2.7949   -0.6324   -1.4861 H   0  0  0  0  0  0  0  0  0  0  0  0
    1.5029   -1.7812   -1.9825 H   0  0  0  0  0  0  0  0  0  0  0  0
    1.2791    0.0098   -2.2947 H   0  0  0  0  0  0  0  0  0  0  0  0
  1  2  3  0
  2  3  1  0
  3  4  1  0
  3  5  1  0
  3  6  1  0
  6  7  1  0
  6  8  1  0
  8  9  1  0
  1 10  1  0
  4 11  1  0
  4 12  1  0
  4 13  1  0
  5 14  1  0
  6 15  1  0
  7 16  1  0
  7 17  1  0
  7 18  1  0
  9 19  1  0
  9 20  1  0
  9 21  1  0
M  END
