
     RDKit          3D

 19 18  0  0  0  0  0  0  0  0999 V2000
    2.3949    0.4175   -1.7563 C   0  0  0  0  0  0  0  0  0  0  0  0
    1.5258   -0.3124   -1.3656 C   0  0  0  0  0  0  0  0  0  0  0  0
    0.4590   -1.1864   -0.8802 C   0  0  0  0  0  0  0  0  0  0  0  0
    0.9143   -2.5060   -1.0044 O   0  0  0  0  0  0  0  0  0  0  0  0
    0.2271   -0.9405    0.5749 C   0  0  0  0  0  0  0  0  0  0  0  0
   -0.1784    0.4646    0.9087 C   0  0  0  0  0  0  0  0  0  0  0  0
   -0.3542    0.5271    2.2926 O   0  0  0  0  0  0  0  0  0  0  0  0
   -1.5202    0.8272    0.2950 C   0  0  0  0  0  0  0  0  0  0  0  0
   -1.8444    2.1197    0.7241 O   0  0  0  0  0  0  0  0  0  0  0  0
    3.1657    1.0657   -2.0834 H   0  0  0  0  0  0  0  0  0  0  0  0
   -0.4658   -1.1015   -1.4646 H   0  0  0  0  0  0  0  0  0  0  0  0
    1.6007   -2.5903   -1.7010 H   0  0  0  0  0  0  0  0  0  0  0  0
   -0.5960   -1.6104    0.9043 H   0  0  0  0  0  0  0  0  0  0  0  0
    1.1506   -1.1681    1.1388 H   0  0  0  0  0  0  0  0  0  0  0  0
    0.5430    1.2239    0.5422 H   0  0  0  0  0  0  0  0  0  0  0  0
   -0.4170    1.4768    2.5489 H   0  0  0  0  0  0  0  0  0  0  0  0
   -1.5053    0.8304   -0.7963 H   0  0  0  0  0  0  0  0  0  0  0  0
   -2.3347    0.1691    0.7102 H   0  0  0  0  0  0  0  0  0  0  0  0
   -2.7650    2.2937    0.4121 H   0  0  0  0  0  0  0  0  0  0  0  0
  1  2  3  0
  2  3  1  0
  3  4  1  0
  3  5  1  0
  5  6  1  0
  6  7  1  0
  6  8  1  0
  8  9  1  0
  1 10  1  0
  3 11  1  0
  4 12  1  0
  5 13  1  0
  5 14  1  0
  6 15  1  0
  7 16  1  0
  8 17  1  0
  8 18  1  0
  9 19  1  0
M  END
