
     RDKit          3D

 23 22  0  0  0  0  0  0  0  0999 V2000
   -3.5736    1.6993   -0.7281 C   0  0  0  0  0  0  0  0  0  0  0  0
   -2.5549    1.6474   -0.1050 C   0  0  0  0  0  0  0  0  0  0  0  0
   -1.3166    1.6063    0.6479 C   0  0  0  0  0  0  0  0  0  0  0  0
   -0.1612    1.7340   -0.2984 C   0  0  0  0  0  0  0  0  0  0  0  0
   -0.1532    0.6328   -1.3208 C   0  0  0  0  0  0  0  0  0  0  0  0
   -0.0452   -0.7151   -0.6548 C   0  0  0  0  0  0  0  0  0  0  0  0
    1.1417   -0.7440    0.0737 O   0  0  0  0  0  0  0  0  0  0  0  0
    1.3224   -1.9613    0.7235 C   0  0  0  0  0  0  0  0  0  0  0  0
    2.6241   -1.9068    1.4806 C   0  0  0  0  0  0  0  0  0  0  0  0
   -4.4969    1.7285   -1.3000 H   0  0  0  0  0  0  0  0  0  0  0  0
   -1.2844    2.4966    1.3361 H   0  0  0  0  0  0  0  0  0  0  0  0
   -1.2936    0.6738    1.2314 H   0  0  0  0  0  0  0  0  0  0  0  0
   -0.2750    2.7263   -0.7999 H   0  0  0  0  0  0  0  0  0  0  0  0
    0.8201    1.7927    0.2390 H   0  0  0  0  0  0  0  0  0  0  0  0
    0.7050    0.7710   -2.0214 H   0  0  0  0  0  0  0  0  0  0  0  0
   -1.0714    0.7145   -1.9481 H   0  0  0  0  0  0  0  0  0  0  0  0
   -0.0379   -1.4618   -1.4807 H   0  0  0  0  0  0  0  0  0  0  0  0
   -0.9250   -0.8579   -0.0244 H   0  0  0  0  0  0  0  0  0  0  0  0
    1.3473   -2.8159    0.0320 H   0  0  0  0  0  0  0  0  0  0  0  0
    0.4712   -2.1152    1.4219 H   0  0  0  0  0  0  0  0  0  0  0  0
    3.4499   -1.6782    0.7962 H   0  0  0  0  0  0  0  0  0  0  0  0
    2.5563   -1.0936    2.2298 H   0  0  0  0  0  0  0  0  0  0  0  0
    2.7507   -2.8732    2.0255 H   0  0  0  0  0  0  0  0  0  0  0  0
  1  2  3  0
  2  3  1  0
  3  4  1  0
  4  5  1  0
  5  6  1  0
  6  7  1  0
  7  8  1  0
  8  9  1  0
  1 10  1  0
  3 11  1  0
  3 12  1  0
  4 13  1  0
  4 14  1  0
  5 15  1  0
  5 16  1  0
  6 17  1  0
  6 18  1  0
  8 19  1  0
  8 20  1  0
  9 21  1  0
  9 22  1  0
  9 23  1  0
M  END
