
     RDKit          3D

 19 20  0  0  0  0  0  0  0  0999 V2000
    3.0105    0.3160    0.3745 C   0  0  0  0  0  0  0  0  0  0  0  0
    2.0471    0.1857   -0.3391 C   0  0  0  0  0  0  0  0  0  0  0  0
    0.9020    0.0404   -1.2154 C   0  0  0  0  0  0  0  0  0  0  0  0
    0.0395   -1.1450   -0.7737 C   0  0  0  0  0  0  0  0  0  0  0  0
   -0.6867   -0.7216    0.2594 C   0  0  0  0  0  0  0  0  0  0  0  0
   -1.6860   -1.5883    0.9975 C   0  0  0  0  0  0  0  0  0  0  0  0
   -0.2935    0.6320    0.5229 C   0  0  0  0  0  0  0  0  0  0  0  0
   -0.5424    1.9212    0.0479 C   0  0  0  0  0  0  0  0  0  0  0  0
   -0.1784    1.0504   -0.9792 C   0  0  0  0  0  0  0  0  0  0  0  0
    3.8598    0.4366    0.9945 H   0  0  0  0  0  0  0  0  0  0  0  0
    1.1584   -0.0789   -2.2687 H   0  0  0  0  0  0  0  0  0  0  0  0
    0.0534   -2.1204   -1.2435 H   0  0  0  0  0  0  0  0  0  0  0  0
   -2.4352   -0.9249    1.5067 H   0  0  0  0  0  0  0  0  0  0  0  0
   -1.1894   -2.2253    1.7433 H   0  0  0  0  0  0  0  0  0  0  0  0
   -2.2612   -2.1950    0.2710 H   0  0  0  0  0  0  0  0  0  0  0  0
    0.6876    0.5709    1.1057 H   0  0  0  0  0  0  0  0  0  0  0  0
    0.1511    2.7792    0.2827 H   0  0  0  0  0  0  0  0  0  0  0  0
   -1.5895    2.3153    0.1334 H   0  0  0  0  0  0  0  0  0  0  0  0
   -1.0471    0.7517   -1.6512 H   0  0  0  0  0  0  0  0  0  0  0  0
  1  2  3  0
  2  3  1  0
  3  4  1  0
  4  5  2  0
  5  6  1  0
  5  7  1  0
  7  8  1  0
  8  9  1  0
  9  3  1  0
  9  7  1  0
  1 10  1  0
  3 11  1  0
  4 12  1  0
  6 13  1  0
  6 14  1  0
  6 15  1  0
  7 16  1  0
  8 17  1  0
  8 18  1  0
  9 19  1  0
M  END
