
     RDKit          3D

 18 18  0  0  0  0  0  0  0  0999 V2000
    3.6120   -0.0572   -0.0405 C   0  0  0  0  0  0  0  0  0  0  0  0
    2.5448   -0.5907    0.1237 C   0  0  0  0  0  0  0  0  0  0  0  0
    1.2653   -1.2343    0.3461 C   0  0  0  0  0  0  0  0  0  0  0  0
    0.1279   -0.3014    0.1117 C   0  0  0  0  0  0  0  0  0  0  0  0
    0.1348    0.9755   -0.2551 C   0  0  0  0  0  0  0  0  0  0  0  0
   -1.2512    1.5057   -0.3664 C   0  0  0  0  0  0  0  0  0  0  0  0
   -2.0366    0.2420   -0.6479 C   0  0  0  0  0  0  0  0  0  0  0  0
   -1.3031   -0.7392    0.2774 C   0  0  0  0  0  0  0  0  0  0  0  0
    4.5526    0.4227   -0.1893 H   0  0  0  0  0  0  0  0  0  0  0  0
    1.1989   -1.7046    1.3699 H   0  0  0  0  0  0  0  0  0  0  0  0
    1.1041   -2.1044   -0.3554 H   0  0  0  0  0  0  0  0  0  0  0  0
    1.0667    1.5014   -0.4336 H   0  0  0  0  0  0  0  0  0  0  0  0
   -1.5975    1.8938    0.6155 H   0  0  0  0  0  0  0  0  0  0  0  0
   -1.3716    2.2397   -1.1788 H   0  0  0  0  0  0  0  0  0  0  0  0
   -3.0855    0.3001   -0.3630 H   0  0  0  0  0  0  0  0  0  0  0  0
   -1.8833   -0.0926   -1.7079 H   0  0  0  0  0  0  0  0  0  0  0  0
   -1.6157   -0.4788    1.3023 H   0  0  0  0  0  0  0  0  0  0  0  0
   -1.4626   -1.7776   -0.0071 H   0  0  0  0  0  0  0  0  0  0  0  0
  1  2  3  0
  2  3  1  0
  3  4  1  0
  4  5  2  0
  5  6  1  0
  6  7  1  0
  7  8  1  0
  8  4  1  0
  1  9  1  0
  3 10  1  0
  3 11  1  0
  5 12  1  0
  6 13  1  0
  6 14  1  0
  7 15  1  0
  7 16  1  0
  8 17  1  0
  8 18  1  0
M  END
