
     RDKit          3D

 21 21  0  0  0  0  0  0  0  0999 V2000
   -2.0068    2.6060    0.0133 C   0  0  0  0  0  0  0  0  0  0  0  0
   -1.3255    1.6151   -0.0848 C   0  0  0  0  0  0  0  0  0  0  0  0
   -0.4838    0.3945   -0.2060 C   0  0  0  0  0  0  0  0  0  0  0  0
   -0.2573    0.1702   -1.6643 C   0  0  0  0  0  0  0  0  0  0  0  0
   -1.3186   -0.7239    0.3649 C   0  0  0  0  0  0  0  0  0  0  0  0
    0.7643    0.6820    0.5739 C   0  0  0  0  0  0  0  0  0  0  0  0
    1.7751   -0.4071    0.5986 C   0  0  0  0  0  0  0  0  0  0  0  0
    1.5802   -1.7372    1.1085 C   0  0  0  0  0  0  0  0  0  0  0  0
    1.7082   -1.4568   -0.3130 O   0  0  0  0  0  0  0  0  0  0  0  0
   -2.5969    3.4831    0.1118 H   0  0  0  0  0  0  0  0  0  0  0  0
   -0.5829    1.0402   -2.2968 H   0  0  0  0  0  0  0  0  0  0  0  0
    0.7913   -0.0440   -1.9339 H   0  0  0  0  0  0  0  0  0  0  0  0
   -0.8826   -0.6888   -2.0440 H   0  0  0  0  0  0  0  0  0  0  0  0
   -1.2681   -0.8031    1.4572 H   0  0  0  0  0  0  0  0  0  0  0  0
   -1.0935   -1.6616   -0.1796 H   0  0  0  0  0  0  0  0  0  0  0  0
   -2.4099   -0.5261    0.1378 H   0  0  0  0  0  0  0  0  0  0  0  0
    0.4405    1.0060    1.5924 H   0  0  0  0  0  0  0  0  0  0  0  0
    1.2061    1.6043    0.1136 H   0  0  0  0  0  0  0  0  0  0  0  0
    2.8314   -0.0028    0.6749 H   0  0  0  0  0  0  0  0  0  0  0  0
    2.4780   -2.3170    1.4646 H   0  0  0  0  0  0  0  0  0  0  0  0
    0.6508   -2.2331    1.3594 H   0  0  0  0  0  0  0  0  0  0  0  0
  1  2  3  0
  2  3  1  0
  3  4  1  0
  3  5  1  0
  3  6  1  0
  6  7  1  0
  7  8  1  0
  8  9  1  0
  9  7  1  0
  1 10  1  0
  4 11  1  0
  4 12  1  0
  4 13  1  0
  5 14  1  0
  5 15  1  0
  5 16  1  0
  6 17  1  0
  6 18  1  0
  7 19  1  0
  8 20  1  0
  8 21  1  0
M  END
