
     RDKit          3D

 19 19  0  0  0  0  0  0  0  0999 V2000
    2.9032   -1.3545   -0.9063 C   0  0  0  0  0  0  0  0  0  0  0  0
    2.0928   -0.8124   -0.1977 C   0  0  0  0  0  0  0  0  0  0  0  0
    1.1180   -0.1334    0.6717 C   0  0  0  0  0  0  0  0  0  0  0  0
    0.2480    0.8122   -0.1111 C   0  0  0  0  0  0  0  0  0  0  0  0
    0.9639    1.8232   -0.7618 O   0  0  0  0  0  0  0  0  0  0  0  0
   -1.0602    0.3834   -0.6598 C   0  0  0  0  0  0  0  0  0  0  0  0
   -1.4726   -1.0581   -0.6574 C   0  0  0  0  0  0  0  0  0  0  0  0
   -1.0710    1.2137    0.5611 C   0  0  0  0  0  0  0  0  0  0  0  0
   -1.2958    0.7069    1.8148 O   0  0  0  0  0  0  0  0  0  0  0  0
    3.6081   -1.8313   -1.5468 H   0  0  0  0  0  0  0  0  0  0  0  0
    0.5576   -0.8900    1.2329 H   0  0  0  0  0  0  0  0  0  0  0  0
    1.7447    0.4127    1.4332 H   0  0  0  0  0  0  0  0  0  0  0  0
    0.5758    2.0239   -1.6561 H   0  0  0  0  0  0  0  0  0  0  0  0
   -1.3808    0.9291   -1.5925 H   0  0  0  0  0  0  0  0  0  0  0  0
   -1.3766   -1.5460    0.3251 H   0  0  0  0  0  0  0  0  0  0  0  0
   -0.9835   -1.6501   -1.4604 H   0  0  0  0  0  0  0  0  0  0  0  0
   -2.5701   -1.0797   -0.9122 H   0  0  0  0  0  0  0  0  0  0  0  0
   -1.3376    2.3085    0.4805 H   0  0  0  0  0  0  0  0  0  0  0  0
   -1.2638   -0.2579    1.9025 H   0  0  0  0  0  0  0  0  0  0  0  0
  1  2  3  0
  2  3  1  0
  3  4  1  0
  4  5  1  0
  4  6  1  0
  6  7  1  0
  6  8  1  0
  8  9  1  0
  8  4  1  0
  1 10  1  0
  3 11  1  0
  3 12  1  0
  5 13  1  0
  6 14  1  0
  7 15  1  0
  7 16  1  0
  7 17  1  0
  8 18  1  0
  9 19  1  0
M  END
