
     RDKit          3D

 19 19  0  0  0  0  0  0  0  0999 V2000
   -2.7588   -1.7871    0.0428 C   0  0  0  0  0  0  0  0  0  0  0  0
   -1.8848   -1.0174    0.1527 C   0  0  0  0  0  0  0  0  0  0  0  0
   -0.9527   -0.2178    0.2538 C   0  0  0  0  0  0  0  0  0  0  0  0
   -1.7010    1.3457    0.3332 C   0  0  0  0  0  0  0  0  0  0  0  0
   -0.2263   -0.3144    1.7731 C   0  0  0  0  0  0  0  0  0  0  0  0
    0.5180   -0.0171    0.6873 C   0  0  0  0  0  0  0  0  0  0  0  0
    1.3270   -0.0908   -0.3782 C   0  0  0  0  0  0  0  0  0  0  0  0
    2.1421   -0.1764   -1.4368 C   0  0  0  0  0  0  0  0  0  0  0  0
    2.8632   -0.2608   -2.3448 C   0  0  0  0  0  0  0  0  0  0  0  0
   -3.5487   -2.4715   -0.0389 H   0  0  0  0  0  0  0  0  0  0  0  0
   -1.6772    1.6718   -0.6829 H   0  0  0  0  0  0  0  0  0  0  0  0
   -2.7999    1.0377    0.5403 H   0  0  0  0  0  0  0  0  0  0  0  0
   -1.3732    2.0019    1.1277 H   0  0  0  0  0  0  0  0  0  0  0  0
   -0.6351   -1.2619    2.1354 H   0  0  0  0  0  0  0  0  0  0  0  0
   -0.5765    0.5274    2.4959 H   0  0  0  0  0  0  0  0  0  0  0  0
    0.7547    1.3315    0.9627 H   0  0  0  0  0  0  0  0  0  0  0  0
    3.3524   -1.1192   -2.8473 H   0  0  0  0  0  0  0  0  0  0  0  0
    3.0821    0.7390   -3.0208 H   0  0  0  0  0  0  0  0  0  0  0  0
    4.0947    0.0795   -1.7073 H   0  0  0  0  0  0  0  0  0  0  0  0
  1  2  3  0
  2  3  1  0
  3  4  1  0
  3  5  1  0
  5  6  1  0
  6  7  1  0
  7  8  3  0
  8  9  1  0
  6  3  1  0
  1 10  1  0
  4 11  1  0
  4 12  1  0
  4 13  1  0
  5 14  1  0
  5 15  1  0
  6 16  1  0
  9 17  1  0
  9 18  1  0
  9 19  1  0
M  END
