
     RDKit          3D

 17 17  0  0  0  0  0  0  0  0999 V2000
    3.2664   -1.0842    0.0807 C   0  0  0  0  0  0  0  0  0  0  0  0
    2.1393   -0.8034   -0.2413 C   0  0  0  0  0  0  0  0  0  0  0  0
    0.8003   -0.4615   -0.6484 C   0  0  0  0  0  0  0  0  0  0  0  0
   -0.1358   -1.5168   -0.5301 O   0  0  0  0  0  0  0  0  0  0  0  0
   -1.1023   -0.5206   -0.4236 C   0  0  0  0  0  0  0  0  0  0  0  0
   -2.2251   -0.8311    0.4928 C   0  0  0  0  0  0  0  0  0  0  0  0
   -3.0929    0.0181    0.6127 O   0  0  0  0  0  0  0  0  0  0  0  0
   -0.0416    0.2769    0.3475 C   0  0  0  0  0  0  0  0  0  0  0  0
   -0.2235    1.7355    0.1449 C   0  0  0  0  0  0  0  0  0  0  0  0
    4.2586   -1.3436    0.3644 H   0  0  0  0  0  0  0  0  0  0  0  0
    0.7753    0.0307   -1.6384 H   0  0  0  0  0  0  0  0  0  0  0  0
   -1.3482   -0.0042   -1.3472 H   0  0  0  0  0  0  0  0  0  0  0  0
   -2.3030   -1.7662    1.0498 H   0  0  0  0  0  0  0  0  0  0  0  0
    0.0051   -0.0921    1.3822 H   0  0  0  0  0  0  0  0  0  0  0  0
   -0.4280    2.1954    1.1555 H   0  0  0  0  0  0  0  0  0  0  0  0
    0.7084    2.1542   -0.2924 H   0  0  0  0  0  0  0  0  0  0  0  0
   -1.0530    2.0128   -0.5091 H   0  0  0  0  0  0  0  0  0  0  0  0
  1  2  3  0
  2  3  1  0
  3  4  1  0
  4  5  1  0
  5  6  1  0
  6  7  2  0
  5  8  1  0
  8  9  1  0
  8  3  1  0
  1 10  1  0
  3 11  1  0
  5 12  1  0
  6 13  1  0
  8 14  1  0
  9 15  1  0
  9 16  1  0
  9 17  1  0
M  END
