
     RDKit          3D

 15 15  0  0  0  0  0  0  0  0999 V2000
    2.0615   -1.8700    0.2856 C   0  0  0  0  0  0  0  0  0  0  0  0
    1.2282   -0.9076    0.5255 C   0  0  0  0  0  0  0  0  0  0  0  0
    0.3069    0.1414    0.8086 C   0  0  0  0  0  0  0  0  0  0  0  0
   -1.1190   -0.2684    0.4011 C   0  0  0  0  0  0  0  0  0  0  0  0
   -1.1449    0.1668   -1.0489 C   0  0  0  0  0  0  0  0  0  0  0  0
    0.0717    0.7585   -1.3373 O   0  0  0  0  0  0  0  0  0  0  0  0
    0.4838    1.3256   -0.1390 C   0  0  0  0  0  0  0  0  0  0  0  0
    2.7137   -2.6221    0.0800 H   0  0  0  0  0  0  0  0  0  0  0  0
    0.3429    0.4332    1.8600 H   0  0  0  0  0  0  0  0  0  0  0  0
   -1.1081   -1.3826    0.4918 H   0  0  0  0  0  0  0  0  0  0  0  0
   -1.8768    0.2306    1.0009 H   0  0  0  0  0  0  0  0  0  0  0  0
   -1.3331   -0.7056   -1.7144 H   0  0  0  0  0  0  0  0  0  0  0  0
   -1.9299    0.9425   -1.2175 H   0  0  0  0  0  0  0  0  0  0  0  0
   -0.2175    2.1117    0.2024 H   0  0  0  0  0  0  0  0  0  0  0  0
    1.5204    1.6458   -0.1988 H   0  0  0  0  0  0  0  0  0  0  0  0
  1  2  3  0
  2  3  1  0
  3  4  1  0
  4  5  1  0
  5  6  1  0
  6  7  1  0
  7  3  1  0
  1  8  1  0
  3  9  1  0
  4 10  1  0
  4 11  1  0
  5 12  1  0
  5 13  1  0
  7 14  1  0
  7 15  1  0
M  END
