
     RDKit          3D

 18 17  0  0  0  0  0  0  0  0999 V2000
    2.8924    1.8493    0.4597 C   0  0  0  0  0  0  0  0  0  0  0  0
    2.0848    0.9446    0.4331 C   0  0  0  0  0  0  0  0  0  0  0  0
    1.1216   -0.1627    0.4137 C   0  0  0  0  0  0  0  0  0  0  0  0
    1.5719   -1.1846   -0.5368 C   0  0  0  0  0  0  0  0  0  0  0  0
    1.1121   -2.3029   -0.4809 O   0  0  0  0  0  0  0  0  0  0  0  0
   -0.2276    0.4203    0.0852 C   0  0  0  0  0  0  0  0  0  0  0  0
   -1.2659   -0.6762    0.0505 C   0  0  0  0  0  0  0  0  0  0  0  0
   -2.5985   -0.0140   -0.2863 C   0  0  0  0  0  0  0  0  0  0  0  0
    3.6136    2.6341    0.4735 H   0  0  0  0  0  0  0  0  0  0  0  0
    1.0626   -0.6373    1.4351 H   0  0  0  0  0  0  0  0  0  0  0  0
    2.3079   -0.9410   -1.2806 H   0  0  0  0  0  0  0  0  0  0  0  0
   -0.1839    0.9983   -0.8519 H   0  0  0  0  0  0  0  0  0  0  0  0
   -0.4632    1.1516    0.8976 H   0  0  0  0  0  0  0  0  0  0  0  0
   -1.0186   -1.3818   -0.7560 H   0  0  0  0  0  0  0  0  0  0  0  0
   -1.3224   -1.1585    1.0222 H   0  0  0  0  0  0  0  0  0  0  0  0
   -2.6553    0.9027    0.3591 H   0  0  0  0  0  0  0  0  0  0  0  0
   -2.6105    0.2739   -1.3591 H   0  0  0  0  0  0  0  0  0  0  0  0
   -3.4210   -0.7157   -0.0780 H   0  0  0  0  0  0  0  0  0  0  0  0
  1  2  3  0
  2  3  1  0
  3  4  1  0
  4  5  2  0
  3  6  1  0
  6  7  1  0
  7  8  1  0
  1  9  1  0
  3 10  1  0
  4 11  1  0
  6 12  1  0
  6 13  1  0
  7 14  1  0
  7 15  1  0
  8 16  1  0
  8 17  1  0
  8 18  1  0
M  END
