
     RDKit          3D

 21 21  0  0  0  0  0  0  0  0999 V2000
    1.7630    0.9520   -2.5394 C   0  0  0  0  0  0  0  0  0  0  0  0
    1.6456    0.5733   -1.2938 C   0  0  0  0  0  0  0  0  0  0  0  0
    1.5206    0.1817   -0.0764 C   0  0  0  0  0  0  0  0  0  0  0  0
    0.8149   -1.0966    0.3095 C   0  0  0  0  0  0  0  0  0  0  0  0
   -0.4595   -0.2973    0.4068 C   0  0  0  0  0  0  0  0  0  0  0  0
   -1.1952   -0.1268   -0.9105 C   0  0  0  0  0  0  0  0  0  0  0  0
   -1.3563   -0.7050    1.5580 C   0  0  0  0  0  0  0  0  0  0  0  0
    0.3902    0.8934    0.7789 C   0  0  0  0  0  0  0  0  0  0  0  0
   -0.0179    2.0507    0.0879 O   0  0  0  0  0  0  0  0  0  0  0  0
    1.8462    1.2863   -3.6362 H   0  0  0  0  0  0  0  0  0  0  0  0
    2.4895    0.2607    0.5973 H   0  0  0  0  0  0  0  0  0  0  0  0
    1.1519   -1.5271    1.2889 H   0  0  0  0  0  0  0  0  0  0  0  0
    0.7768   -1.8207   -0.5130 H   0  0  0  0  0  0  0  0  0  0  0  0
   -0.8506    0.7969   -1.4006 H   0  0  0  0  0  0  0  0  0  0  0  0
   -2.2866   -0.0533   -0.6412 H   0  0  0  0  0  0  0  0  0  0  0  0
   -1.1161   -1.0035   -1.5689 H   0  0  0  0  0  0  0  0  0  0  0  0
   -1.2311   -0.0162    2.4206 H   0  0  0  0  0  0  0  0  0  0  0  0
   -2.4144   -0.6934    1.2254 H   0  0  0  0  0  0  0  0  0  0  0  0
   -1.1283   -1.7121    1.9189 H   0  0  0  0  0  0  0  0  0  0  0  0
    0.6797    1.0466    1.7960 H   0  0  0  0  0  0  0  0  0  0  0  0
   -1.0224    2.0812    0.1919 H   0  0  0  0  0  0  0  0  0  0  0  0
  1  2  3  0
  2  3  1  0
  3  4  1  0
  4  5  1  0
  5  6  1  0
  5  7  1  0
  5  8  1  0
  8  9  1  0
  8  3  1  0
  1 10  1  0
  3 11  1  0
  4 12  1  0
  4 13  1  0
  6 14  1  0
  6 15  1  0
  6 16  1  0
  7 17  1  0
  7 18  1  0
  7 19  1  0
  8 20  1  0
  9 21  1  0
M  END
