
     RDKit          3D

 17 17  0  0  0  0  0  0  0  0999 V2000
   -2.9336    0.4475   -2.2786 C   0  0  0  0  0  0  0  0  0  0  0  0
   -2.0378   -0.2796   -1.6507 C   0  0  0  0  0  0  0  0  0  0  0  0
   -1.0256   -1.1245   -0.9111 C   0  0  0  0  0  0  0  0  0  0  0  0
   -0.3514   -0.0250   -0.0937 C   0  0  0  0  0  0  0  0  0  0  0  0
    0.7856   -0.1039    0.7898 C   0  0  0  0  0  0  0  0  0  0  0  0
    1.2076    1.2050    1.2111 C   0  0  0  0  0  0  0  0  0  0  0  0
    1.6002    2.4044    1.5743 C   0  0  0  0  0  0  0  0  0  0  0  0
    1.9017   -1.0574    0.5057 C   0  0  0  0  0  0  0  0  0  0  0  0
    1.0456   -1.2407    1.6035 O   0  0  0  0  0  0  0  0  0  0  0  0
   -3.5792    0.9504   -2.7241 H   0  0  0  0  0  0  0  0  0  0  0  0
   -0.3649   -1.5776   -1.5680 H   0  0  0  0  0  0  0  0  0  0  0  0
   -1.5918   -1.7749   -0.1738 H   0  0  0  0  0  0  0  0  0  0  0  0
   -0.1357    0.8726   -0.8144 H   0  0  0  0  0  0  0  0  0  0  0  0
   -1.2103    0.4938    0.5130 H   0  0  0  0  0  0  0  0  0  0  0  0
    1.8918    3.3183    1.8340 H   0  0  0  0  0  0  0  0  0  0  0  0
    1.8818   -1.7685   -0.3418 H   0  0  0  0  0  0  0  0  0  0  0  0
    2.9159   -0.7398    0.7526 H   0  0  0  0  0  0  0  0  0  0  0  0
  1  2  3  0
  2  3  1  0
  3  4  1  0
  4  5  1  0
  5  6  1  0
  6  7  3  0
  5  8  1  0
  8  9  1  0
  9  5  1  0
  1 10  1  0
  3 11  1  0
  3 12  1  0
  4 13  1  0
  4 14  1  0
  7 15  1  0
  8 16  1  0
  8 17  1  0
M  END
