
     RDKit          3D

 19 19  0  0  0  0  0  0  0  0999 V2000
   -2.2658    2.3876   -0.9984 C   0  0  0  0  0  0  0  0  0  0  0  0
   -1.7182    1.4818   -0.8217 C   0  0  0  0  0  0  0  0  0  0  0  0
   -1.0354    0.3694   -0.6255 C   0  0  0  0  0  0  0  0  0  0  0  0
   -1.4413   -0.7839   -1.4053 O   0  0  0  0  0  0  0  0  0  0  0  0
    0.4946    0.6344   -0.9369 C   0  0  0  0  0  0  0  0  0  0  0  0
    0.8402    2.0541   -0.9331 O   0  0  0  0  0  0  0  0  0  0  0  0
    0.1193    0.1418    0.3669 C   0  0  0  0  0  0  0  0  0  0  0  0
    0.2235   -1.3319    0.7211 C   0  0  0  0  0  0  0  0  0  0  0  0
    1.4049   -1.6436    1.5649 C   0  0  0  0  0  0  0  0  0  0  0  0
   -3.0381    3.6842   -1.2598 H   0  0  0  0  0  0  0  0  0  0  0  0
   -0.6325   -1.1922   -1.7392 H   0  0  0  0  0  0  0  0  0  0  0  0
    0.9762    0.0994   -1.6878 H   0  0  0  0  0  0  0  0  0  0  0  0
    1.4169    2.1950   -0.1019 H   0  0  0  0  0  0  0  0  0  0  0  0
    0.1128    0.8189    1.2406 H   0  0  0  0  0  0  0  0  0  0  0  0
    0.0411   -1.9998   -0.1399 H   0  0  0  0  0  0  0  0  0  0  0  0
   -0.6921   -1.4996    1.4259 H   0  0  0  0  0  0  0  0  0  0  0  0
    1.4662   -2.7836    1.6476 H   0  0  0  0  0  0  0  0  0  0  0  0
    1.3269   -1.2529    2.5941 H   0  0  0  0  0  0  0  0  0  0  0  0
    2.4008   -1.3790    1.0886 H   0  0  0  0  0  0  0  0  0  0  0  0
  1  2  3  0
  2  3  1  0
  3  4  1  0
  3  5  1  0
  5  6  1  0
  5  7  1  0
  7  8  1  0
  8  9  1  0
  7  3  1  0
  1 10  1  0
  4 11  1  0
  5 12  1  0
  6 13  1  0
  7 14  1  0
  8 15  1  0
  8 16  1  0
  9 17  1  0
  9 18  1  0
  9 19  1  0
M  END
