
     RDKit          3D

 19 18  0  0  0  0  0  0  0  0999 V2000
   -1.5104   -2.8098    0.0855 C   0  0  0  0  0  0  0  0  0  0  0  0
   -0.9645   -1.9994   -0.5687 C   0  0  0  0  0  0  0  0  0  0  0  0
   -0.3080   -1.0103   -1.3351 C   0  0  0  0  0  0  0  0  0  0  0  0
   -0.1714    0.3456   -0.6371 C   0  0  0  0  0  0  0  0  0  0  0  0
    0.7767    0.3049    0.3879 C   0  0  0  0  0  0  0  0  0  0  0  0
    1.7282    0.2879    1.4090 C   0  0  0  0  0  0  0  0  0  0  0  0
    2.5815    0.2782    2.3500 C   0  0  0  0  0  0  0  0  0  0  0  0
   -1.4595    0.6818   -0.2660 O   0  0  0  0  0  0  0  0  0  0  0  0
   -1.9408    1.7490   -1.0128 C   0  0  0  0  0  0  0  0  0  0  0  0
   -2.0306   -3.5998    0.6993 H   0  0  0  0  0  0  0  0  0  0  0  0
   -0.4514   -0.8971   -2.4041 H   0  0  0  0  0  0  0  0  0  0  0  0
    0.8831   -1.3527   -1.2513 H   0  0  0  0  0  0  0  0  0  0  0  0
    0.1704    1.1085   -1.4309 H   0  0  0  0  0  0  0  0  0  0  0  0
    2.3036    0.5396    3.4253 H   0  0  0  0  0  0  0  0  0  0  0  0
    3.5063    1.0763    2.2070 H   0  0  0  0  0  0  0  0  0  0  0  0
    3.1637   -0.7173    2.5012 H   0  0  0  0  0  0  0  0  0  0  0  0
   -1.8367    1.5006   -2.1088 H   0  0  0  0  0  0  0  0  0  0  0  0
   -1.4113    2.6857   -0.8012 H   0  0  0  0  0  0  0  0  0  0  0  0
   -3.0290    1.8281   -0.7653 H   0  0  0  0  0  0  0  0  0  0  0  0
  1  2  3  0
  2  3  1  0
  3  4  1  0
  4  5  1  0
  5  6  3  0
  6  7  1  0
  4  8  1  0
  8  9  1  0
  1 10  1  0
  3 11  1  0
  3 12  1  0
  4 13  1  0
  7 14  1  0
  7 15  1  0
  7 16  1  0
  9 17  1  0
  9 18  1  0
  9 19  1  0
M  END
