
     RDKit          3D

 17 17  0  0  0  0  0  0  0  0999 V2000
    0.5688    3.1886    0.0053 C   0  0  0  0  0  0  0  0  0  0  0  0
    0.5584    1.9835   -0.1959 C   0  0  0  0  0  0  0  0  0  0  0  0
    0.5675    0.5329   -0.4414 C   0  0  0  0  0  0  0  0  0  0  0  0
   -0.3613    0.2112   -1.3717 O   0  0  0  0  0  0  0  0  0  0  0  0
   -0.7713   -1.0770   -1.4486 C   0  0  0  0  0  0  0  0  0  0  0  0
   -0.8086   -1.8076   -0.2909 O   0  0  0  0  0  0  0  0  0  0  0  0
   -0.9152   -0.9301    0.7854 C   0  0  0  0  0  0  0  0  0  0  0  0
    0.4427   -0.2187    0.8624 C   0  0  0  0  0  0  0  0  0  0  0  0
    1.4648   -1.1223    1.0506 O   0  0  0  0  0  0  0  0  0  0  0  0
    0.5954    4.2346    0.1740 H   0  0  0  0  0  0  0  0  0  0  0  0
    1.5846    0.3010   -0.8414 H   0  0  0  0  0  0  0  0  0  0  0  0
   -1.7530   -1.1374   -1.9955 H   0  0  0  0  0  0  0  0  0  0  0  0
   -0.0573   -1.6159   -2.1407 H   0  0  0  0  0  0  0  0  0  0  0  0
   -1.1821   -1.4208    1.7205 H   0  0  0  0  0  0  0  0  0  0  0  0
   -1.6438   -0.1164    0.5021 H   0  0  0  0  0  0  0  0  0  0  0  0
    0.3460    0.5186    1.6840 H   0  0  0  0  0  0  0  0  0  0  0  0
    1.3644   -1.5243    1.9418 H   0  0  0  0  0  0  0  0  0  0  0  0
  1  2  3  0
  2  3  1  0
  3  4  1  0
  4  5  1  0
  5  6  1  0
  6  7  1  0
  7  8  1  0
  8  9  1  0
  8  3  1  0
  1 10  1  0
  3 11  1  0
  5 12  1  0
  5 13  1  0
  7 14  1  0
  7 15  1  0
  8 16  1  0
  9 17  1  0
M  END
