
     RDKit          3D

 21 20  0  0  0  0  0  0  0  0999 V2000
    2.4886    1.2833   -1.5309 C   0  0  0  0  0  0  0  0  0  0  0  0
    1.7570    0.3103   -1.5114 C   0  0  0  0  0  0  0  0  0  0  0  0
    0.8846   -0.8560   -1.4731 C   0  0  0  0  0  0  0  0  0  0  0  0
   -0.4455   -0.5961   -0.8795 C   0  0  0  0  0  0  0  0  0  0  0  0
   -0.4806   -0.1256    0.5326 C   0  0  0  0  0  0  0  0  0  0  0  0
   -1.9740    0.0515    0.8678 C   0  0  0  0  0  0  0  0  0  0  0  0
    0.1190    1.2408    0.7574 C   0  0  0  0  0  0  0  0  0  0  0  0
    0.0933   -1.0733    1.4960 C   0  0  0  0  0  0  0  0  0  0  0  0
   -0.5938   -1.7890    2.1958 O   0  0  0  0  0  0  0  0  0  0  0  0
    3.1449    2.1262   -1.5509 H   0  0  0  0  0  0  0  0  0  0  0  0
    0.7096   -1.1815   -2.5352 H   0  0  0  0  0  0  0  0  0  0  0  0
    1.3671   -1.7250   -0.9776 H   0  0  0  0  0  0  0  0  0  0  0  0
   -1.0536    0.0996   -1.4888 H   0  0  0  0  0  0  0  0  0  0  0  0
   -1.0142   -1.5674   -0.9037 H   0  0  0  0  0  0  0  0  0  0  0  0
   -2.4844    0.6262    0.0857 H   0  0  0  0  0  0  0  0  0  0  0  0
   -2.3704   -0.9866    0.9300 H   0  0  0  0  0  0  0  0  0  0  0  0
   -2.0899    0.5062    1.8744 H   0  0  0  0  0  0  0  0  0  0  0  0
    1.1701    1.2205    1.0361 H   0  0  0  0  0  0  0  0  0  0  0  0
   -0.4082    1.7193    1.6343 H   0  0  0  0  0  0  0  0  0  0  0  0
    0.0155    1.8606   -0.1526 H   0  0  0  0  0  0  0  0  0  0  0  0
    1.1650   -1.1441    1.5935 H   0  0  0  0  0  0  0  0  0  0  0  0
  1  2  3  0
  2  3  1  0
  3  4  1  0
  4  5  1  0
  5  6  1  0
  5  7  1  0
  5  8  1  0
  8  9  2  0
  1 10  1  0
  3 11  1  0
  3 12  1  0
  4 13  1  0
  4 14  1  0
  6 15  1  0
  6 16  1  0
  6 17  1  0
  7 18  1  0
  7 19  1  0
  7 20  1  0
  8 21  1  0
M  END
