
     RDKit          3D

 21 20  0  0  0  0  0  0  0  0999 V2000
    2.1203    1.5988    2.4317 C   0  0  0  0  0  0  0  0  0  0  0  0
    1.8793    0.4898    2.1348 C   0  0  0  0  0  0  0  0  0  0  0  0
    1.5647   -0.9300    1.7278 C   0  0  0  0  0  0  0  0  0  0  0  0
    0.9267   -0.9522    0.3589 C   0  0  0  0  0  0  0  0  0  0  0  0
   -0.2461   -0.2232    0.4108 O   0  0  0  0  0  0  0  0  0  0  0  0
   -0.9245   -0.1776   -0.7964 C   0  0  0  0  0  0  0  0  0  0  0  0
   -2.2847   -0.7800   -0.7462 C   0  0  0  0  0  0  0  0  0  0  0  0
   -0.9991    1.2214   -1.3630 C   0  0  0  0  0  0  0  0  0  0  0  0
    0.2990    1.7119   -1.5721 O   0  0  0  0  0  0  0  0  0  0  0  0
    2.3510    2.6033    2.6872 H   0  0  0  0  0  0  0  0  0  0  0  0
    2.5506   -1.4385    1.7106 H   0  0  0  0  0  0  0  0  0  0  0  0
    0.9489   -1.4140    2.4821 H   0  0  0  0  0  0  0  0  0  0  0  0
    0.7932   -1.9995    0.0731 H   0  0  0  0  0  0  0  0  0  0  0  0
    1.6747   -0.5144   -0.3360 H   0  0  0  0  0  0  0  0  0  0  0  0
   -0.3144   -0.7635   -1.5155 H   0  0  0  0  0  0  0  0  0  0  0  0
   -3.1168   -0.0956   -0.9375 H   0  0  0  0  0  0  0  0  0  0  0  0
   -2.4606   -1.2852    0.2501 H   0  0  0  0  0  0  0  0  0  0  0  0
   -2.3790   -1.6052   -1.4796 H   0  0  0  0  0  0  0  0  0  0  0  0
   -1.4988    1.1806   -2.3513 H   0  0  0  0  0  0  0  0  0  0  0  0
   -1.5651    1.9338   -0.7326 H   0  0  0  0  0  0  0  0  0  0  0  0
    0.6804    1.4393   -2.4370 H   0  0  0  0  0  0  0  0  0  0  0  0
  1  2  3  0
  2  3  1  0
  3  4  1  0
  4  5  1  0
  5  6  1  0
  6  7  1  0
  6  8  1  0
  8  9  1  0
  1 10  1  0
  3 11  1  0
  3 12  1  0
  4 13  1  0
  4 14  1  0
  6 15  1  0
  7 16  1  0
  7 17  1  0
  7 18  1  0
  8 19  1  0
  8 20  1  0
  9 21  1  0
M  END
