
     RDKit          3D

 17 16  0  0  0  0  0  0  0  0999 V2000
   -3.1777    0.1083   -1.2566 C   0  0  0  0  0  0  0  0  0  0  0  0
   -2.2846   -0.1367   -0.4833 C   0  0  0  0  0  0  0  0  0  0  0  0
   -1.2064   -0.4126    0.4676 C   0  0  0  0  0  0  0  0  0  0  0  0
   -1.5774    0.0740    1.6929 O   0  0  0  0  0  0  0  0  0  0  0  0
    0.0956    0.1606   -0.0355 C   0  0  0  0  0  0  0  0  0  0  0  0
    1.2451   -0.0809    0.8818 C   0  0  0  0  0  0  0  0  0  0  0  0
    1.4899   -1.4271    1.0939 O   0  0  0  0  0  0  0  0  0  0  0  0
    2.4604    0.5116    0.2546 C   0  0  0  0  0  0  0  0  0  0  0  0
    3.4637   -0.1479    0.0020 O   0  0  0  0  0  0  0  0  0  0  0  0
   -3.9597    0.3161   -1.9546 H   0  0  0  0  0  0  0  0  0  0  0  0
   -1.1284   -1.5318    0.5190 H   0  0  0  0  0  0  0  0  0  0  0  0
   -1.7240    1.0673    1.5791 H   0  0  0  0  0  0  0  0  0  0  0  0
   -0.0560    1.2731   -0.0917 H   0  0  0  0  0  0  0  0  0  0  0  0
    0.3224   -0.1555   -1.0691 H   0  0  0  0  0  0  0  0  0  0  0  0
    1.0857    0.4715    1.8435 H   0  0  0  0  0  0  0  0  0  0  0  0
    2.4360   -1.6595    0.9187 H   0  0  0  0  0  0  0  0  0  0  0  0
    2.5154    1.5696   -0.0117 H   0  0  0  0  0  0  0  0  0  0  0  0
  1  2  3  0
  2  3  1  0
  3  4  1  0
  3  5  1  0
  5  6  1  0
  6  7  1  0
  6  8  1  0
  8  9  2  0
  1 10  1  0
  3 11  1  0
  4 12  1  0
  5 13  1  0
  5 14  1  0
  6 15  1  0
  7 16  1  0
  8 17  1  0
M  END
