
     RDKit          3D

 15 15  0  0  0  0  0  0  0  0999 V2000
    0.9699    2.3195   -0.8260 C   0  0  0  0  0  0  0  0  0  0  0  0
    1.0399    1.0784   -0.6565 C   0  0  0  0  0  0  0  0  0  0  0  0
    1.1144   -0.3435   -0.4865 C   0  0  0  0  0  0  0  0  0  0  0  0
    0.7838   -0.8219    0.8797 C   0  0  0  0  0  0  0  0  0  0  0  0
   -0.2341   -1.7758    0.6689 O   0  0  0  0  0  0  0  0  0  0  0  0
   -0.8729   -1.2837   -0.4948 C   0  0  0  0  0  0  0  0  0  0  0  0
   -1.5922   -0.0768   -0.0706 C   0  0  0  0  0  0  0  0  0  0  0  0
   -2.1378    0.8138    0.2599 C   0  0  0  0  0  0  0  0  0  0  0  0
    0.1513   -0.9552   -1.3230 O   0  0  0  0  0  0  0  0  0  0  0  0
    0.9280    3.3151   -0.9521 H   0  0  0  0  0  0  0  0  0  0  0  0
    2.0976   -0.7927   -0.8378 H   0  0  0  0  0  0  0  0  0  0  0  0
    0.3734    0.0264    1.4697 H   0  0  0  0  0  0  0  0  0  0  0  0
    1.6427   -1.2887    1.4281 H   0  0  0  0  0  0  0  0  0  0  0  0
   -1.5353   -2.0233   -0.9511 H   0  0  0  0  0  0  0  0  0  0  0  0
   -2.7287    1.8083    0.6410 H   0  0  0  0  0  0  0  0  0  0  0  0
  1  2  3  0
  2  3  1  0
  3  4  1  0
  4  5  1  0
  5  6  1  0
  6  7  1  0
  7  8  3  0
  6  9  1  0
  9  3  1  0
  1 10  1  0
  3 11  1  0
  4 12  1  0
  4 13  1  0
  6 14  1  0
  8 15  1  0
M  END
