
     RDKit          3D

 17 18  0  0  0  0  0  0  0  0999 V2000
    2.7596    1.1479   -0.9963 C   0  0  0  0  0  0  0  0  0  0  0  0
    1.8823    0.3409   -0.8148 C   0  0  0  0  0  0  0  0  0  0  0  0
    0.8165   -0.6466   -0.5682 C   0  0  0  0  0  0  0  0  0  0  0  0
   -0.5314   -0.0338   -0.8102 C   0  0  0  0  0  0  0  0  0  0  0  0
   -1.0462   -1.0754    0.1495 C   0  0  0  0  0  0  0  0  0  0  0  0
   -2.2333   -0.8001    0.7768 O   0  0  0  0  0  0  0  0  0  0  0  0
    0.2075   -0.5700    0.8034 C   0  0  0  0  0  0  0  0  0  0  0  0
   -0.2582    0.8043    0.4019 C   0  0  0  0  0  0  0  0  0  0  0  0
   -1.3569    1.2021    1.1348 O   0  0  0  0  0  0  0  0  0  0  0  0
    3.5203    1.8727   -1.1539 H   0  0  0  0  0  0  0  0  0  0  0  0
    0.9955   -1.6469   -0.9641 H   0  0  0  0  0  0  0  0  0  0  0  0
   -0.9366    0.2444   -1.6788 H   0  0  0  0  0  0  0  0  0  0  0  0
   -0.8949   -2.1315   -0.1883 H   0  0  0  0  0  0  0  0  0  0  0  0
   -2.8790   -1.5419    0.5931 H   0  0  0  0  0  0  0  0  0  0  0  0
    0.6078   -0.8504    1.6709 H   0  0  0  0  0  0  0  0  0  0  0  0
    0.5195    1.5422    0.2103 H   0  0  0  0  0  0  0  0  0  0  0  0
   -1.1727    2.1421    1.4342 H   0  0  0  0  0  0  0  0  0  0  0  0
  1  2  3  0
  2  3  1  0
  3  4  1  0
  4  5  1  0
  5  6  1  0
  5  7  1  0
  7  8  1  0
  8  9  1  0
  7  3  1  0
  8  4  1  0
  1 10  1  0
  3 11  1  0
  4 12  1  0
  5 13  1  0
  6 14  1  0
  7 15  1  0
  8 16  1  0
  9 17  1  0
M  END
