
     RDKit          3D

 23 22  0  0  0  0  0  0  0  0999 V2000
    1.1506    2.8535    1.3461 C   0  0  0  0  0  0  0  0  0  0  0  0
    0.9278    1.7864    0.8286 C   0  0  0  0  0  0  0  0  0  0  0  0
    0.6523    0.4632    0.2155 C   0  0  0  0  0  0  0  0  0  0  0  0
    0.7746   -0.4604    1.2298 O   0  0  0  0  0  0  0  0  0  0  0  0
    1.8775   -1.2956    1.0294 C   0  0  0  0  0  0  0  0  0  0  0  0
   -0.7065    0.4810   -0.3883 C   0  0  0  0  0  0  0  0  0  0  0  0
   -0.7748    1.5612   -1.4539 C   0  0  0  0  0  0  0  0  0  0  0  0
   -1.2024   -0.8364   -0.8848 C   0  0  0  0  0  0  0  0  0  0  0  0
   -1.2874   -1.8728    0.2066 C   0  0  0  0  0  0  0  0  0  0  0  0
    1.3492    3.8004    1.7849 H   0  0  0  0  0  0  0  0  0  0  0  0
    1.4617    0.3525   -0.5651 H   0  0  0  0  0  0  0  0  0  0  0  0
    1.7794   -1.8563    0.0646 H   0  0  0  0  0  0  0  0  0  0  0  0
    2.8215   -0.7411    1.0767 H   0  0  0  0  0  0  0  0  0  0  0  0
    1.9139   -2.0768    1.8172 H   0  0  0  0  0  0  0  0  0  0  0  0
   -1.4098    0.8392    0.4222 H   0  0  0  0  0  0  0  0  0  0  0  0
   -1.7372    1.4747   -1.9922 H   0  0  0  0  0  0  0  0  0  0  0  0
    0.0800    1.4229   -2.1281 H   0  0  0  0  0  0  0  0  0  0  0  0
   -0.7373    2.5684   -1.0208 H   0  0  0  0  0  0  0  0  0  0  0  0
   -2.2431   -0.6517   -1.2834 H   0  0  0  0  0  0  0  0  0  0  0  0
   -0.6039   -1.2575   -1.6959 H   0  0  0  0  0  0  0  0  0  0  0  0
   -1.3349   -1.4532    1.2203 H   0  0  0  0  0  0  0  0  0  0  0  0
   -0.4964   -2.6533    0.0807 H   0  0  0  0  0  0  0  0  0  0  0  0
   -2.2547   -2.4483    0.0899 H   0  0  0  0  0  0  0  0  0  0  0  0
  1  2  3  0
  2  3  1  0
  3  4  1  0
  4  5  1  0
  3  6  1  0
  6  7  1  0
  6  8  1  0
  8  9  1  0
  1 10  1  0
  3 11  1  0
  5 12  1  0
  5 13  1  0
  5 14  1  0
  6 15  1  0
  7 16  1  0
  7 17  1  0
  7 18  1  0
  8 19  1  0
  8 20  1  0
  9 21  1  0
  9 22  1  0
  9 23  1  0
M  END
