
     RDKit          3D

 17 18  0  0  0  0  0  0  0  0999 V2000
    2.4679   -1.0629   -1.7036 C   0  0  0  0  0  0  0  0  0  0  0  0
    1.3637   -1.0215   -1.1723 C   0  0  0  0  0  0  0  0  0  0  0  0
    0.0347   -0.9740   -0.5611 C   0  0  0  0  0  0  0  0  0  0  0  0
   -0.8628    0.1201   -1.0818 C   0  0  0  0  0  0  0  0  0  0  0  0
   -1.0444    0.5959    0.3387 C   0  0  0  0  0  0  0  0  0  0  0  0
   -2.2636    0.4477    0.9517 O   0  0  0  0  0  0  0  0  0  0  0  0
    0.1609    1.0880    1.0173 C   0  0  0  0  0  0  0  0  0  0  0  0
    0.1644    1.5083    2.3267 O   0  0  0  0  0  0  0  0  0  0  0  0
    0.0359   -0.3924    0.8288 C   0  0  0  0  0  0  0  0  0  0  0  0
    3.4254   -1.0829   -2.1534 H   0  0  0  0  0  0  0  0  0  0  0  0
   -0.4425   -1.9769   -0.5766 H   0  0  0  0  0  0  0  0  0  0  0  0
   -1.7789   -0.2321   -1.5680 H   0  0  0  0  0  0  0  0  0  0  0  0
   -0.2945    0.8979   -1.6605 H   0  0  0  0  0  0  0  0  0  0  0  0
   -2.7072   -0.3540    0.5281 H   0  0  0  0  0  0  0  0  0  0  0  0
    0.9303    1.5477    0.3302 H   0  0  0  0  0  0  0  0  0  0  0  0
    1.0374    1.9495    2.5022 H   0  0  0  0  0  0  0  0  0  0  0  0
   -0.2269   -1.0585    1.6536 H   0  0  0  0  0  0  0  0  0  0  0  0
  1  2  3  0
  2  3  1  0
  3  4  1  0
  4  5  1  0
  5  6  1  0
  5  7  1  0
  7  8  1  0
  7  9  1  0
  9  3  1  0
  9  5  1  0
  1 10  1  0
  3 11  1  0
  4 12  1  0
  4 13  1  0
  6 14  1  0
  7 15  1  0
  8 16  1  0
  9 17  1  0
M  END
