
     RDKit          3D

 17 16  0  0  0  0  0  0  0  0999 V2000
    2.1580   -1.7662   -1.3502 C   0  0  0  0  0  0  0  0  0  0  0  0
    1.6192   -0.8242   -0.8374 C   0  0  0  0  0  0  0  0  0  0  0  0
    0.8890    0.4114   -0.1385 C   0  0  0  0  0  0  0  0  0  0  0  0
    1.0977    1.4139   -1.0131 O   0  0  0  0  0  0  0  0  0  0  0  0
    1.3780    0.5095    1.1612 C   0  0  0  0  0  0  0  0  0  0  0  0
    1.8263    0.6176    2.3727 C   0  0  0  0  0  0  0  0  0  0  0  0
   -0.5675   -0.1450   -0.1088 C   0  0  0  0  0  0  0  0  0  0  0  0
   -1.4483    0.8871    0.1714 O   0  0  0  0  0  0  0  0  0  0  0  0
   -2.7501    0.4127    0.0690 C   0  0  0  0  0  0  0  0  0  0  0  0
    2.5838   -2.4841   -1.7546 H   0  0  0  0  0  0  0  0  0  0  0  0
    1.6551    1.0735   -1.7985 H   0  0  0  0  0  0  0  0  0  0  0  0
    2.1338    0.7046    3.2375 H   0  0  0  0  0  0  0  0  0  0  0  0
   -0.5958   -0.8542    0.8019 H   0  0  0  0  0  0  0  0  0  0  0  0
   -0.7704   -0.7242   -0.9997 H   0  0  0  0  0  0  0  0  0  0  0  0
   -3.5016    1.1965    0.2996 H   0  0  0  0  0  0  0  0  0  0  0  0
   -2.8396   -0.4112    0.8384 H   0  0  0  0  0  0  0  0  0  0  0  0
   -2.8676   -0.0175   -0.9509 H   0  0  0  0  0  0  0  0  0  0  0  0
  1  2  3  0
  2  3  1  0
  3  4  1  0
  3  5  1  0
  5  6  3  0
  3  7  1  0
  7  8  1  0
  8  9  1  0
  1 10  1  0
  4 11  1  0
  6 12  1  0
  7 13  1  0
  7 14  1  0
  9 15  1  0
  9 16  1  0
  9 17  1  0
M  END
