
     RDKit          3D

 18 18  0  0  0  0  0  0  0  0999 V2000
   -2.8190   -0.5393   -1.9287 C   0  0  0  0  0  0  0  0  0  0  0  0
   -1.6969   -0.2437   -1.5432 C   0  0  0  0  0  0  0  0  0  0  0  0
   -0.3714    0.1107   -1.0877 C   0  0  0  0  0  0  0  0  0  0  0  0
    0.6512   -0.6114   -1.6777 O   0  0  0  0  0  0  0  0  0  0  0  0
    0.5958   -1.5374   -0.6663 C   0  0  0  0  0  0  0  0  0  0  0  0
    0.0324   -0.4877    0.2444 C   0  0  0  0  0  0  0  0  0  0  0  0
    1.1021    0.2369    0.9881 C   0  0  0  0  0  0  0  0  0  0  0  0
    0.7307    1.6608    1.3268 C   0  0  0  0  0  0  0  0  0  0  0  0
   -3.8244   -0.8229   -2.2691 H   0  0  0  0  0  0  0  0  0  0  0  0
   -0.2380    1.2152   -1.1330 H   0  0  0  0  0  0  0  0  0  0  0  0
    1.5949   -1.8768   -0.3312 H   0  0  0  0  0  0  0  0  0  0  0  0
   -0.1454   -2.3424   -0.8342 H   0  0  0  0  0  0  0  0  0  0  0  0
   -0.8261   -0.8277    0.8266 H   0  0  0  0  0  0  0  0  0  0  0  0
    1.2499   -0.2973    1.9658 H   0  0  0  0  0  0  0  0  0  0  0  0
    2.0692    0.2506    0.4923 H   0  0  0  0  0  0  0  0  0  0  0  0
    1.3393    2.0402    2.1925 H   0  0  0  0  0  0  0  0  0  0  0  0
   -0.3268    1.7246    1.6481 H   0  0  0  0  0  0  0  0  0  0  0  0
    0.8823    2.3476    0.4727 H   0  0  0  0  0  0  0  0  0  0  0  0
  1  2  3  0
  2  3  1  0
  3  4  1  0
  4  5  1  0
  5  6  1  0
  6  7  1  0
  7  8  1  0
  6  3  1  0
  1  9  1  0
  3 10  1  0
  5 11  1  0
  5 12  1  0
  6 13  1  0
  7 14  1  0
  7 15  1  0
  8 16  1  0
  8 17  1  0
  8 18  1  0
M  END
