
     RDKit          3D

 15 17  0  0  0  0  0  0  0  0999 V2000
    1.4090   -2.1001    1.4565 C   0  0  0  0  0  0  0  0  0  0  0  0
    0.9478   -1.0986    0.7824 C   0  0  0  0  0  0  0  0  0  0  0  0
    0.4936   -0.1237    0.1430 C   0  0  0  0  0  0  0  0  0  0  0  0
    0.0314    1.2419    0.6133 C   0  0  0  0  0  0  0  0  0  0  0  0
    0.3332    2.3454   -0.1543 O   0  0  0  0  0  0  0  0  0  0  0  0
   -0.9947    0.2599    0.1366 C   0  0  0  0  0  0  0  0  0  0  0  0
   -1.0830   -0.0386   -1.2959 C   0  0  0  0  0  0  0  0  0  0  0  0
   -0.6413   -1.2969   -1.7139 O   0  0  0  0  0  0  0  0  0  0  0  0
    0.2726   -0.3043   -1.4321 C   0  0  0  0  0  0  0  0  0  0  0  0
    1.8329   -3.0368    2.0617 H   0  0  0  0  0  0  0  0  0  0  0  0
    0.1101    1.3546    1.7104 H   0  0  0  0  0  0  0  0  0  0  0  0
   -0.3813    2.6806   -0.7470 H   0  0  0  0  0  0  0  0  0  0  0  0
   -1.6341   -0.2689    0.8817 H   0  0  0  0  0  0  0  0  0  0  0  0
   -1.7736    0.5450   -1.9823 H   0  0  0  0  0  0  0  0  0  0  0  0
    1.0775   -0.1596   -2.0921 H   0  0  0  0  0  0  0  0  0  0  0  0
  1  2  3  0
  2  3  1  0
  3  4  1  0
  4  5  1  0
  4  6  1  0
  6  7  1  0
  7  8  1  0
  8  9  1  0
  6  3  1  0
  9  7  1  0
  9  3  1  0
  1 10  1  0
  4 11  1  0
  5 12  1  0
  6 13  1  0
  7 14  1  0
  9 15  1  0
M  END
