
     RDKit          3D

 13 14  0  0  0  0  0  0  0  0999 V2000
   -1.8182    0.1436   -1.9998 C   0  0  0  0  0  0  0  0  0  0  0  0
   -1.0239    0.4979   -1.1183 C   0  0  0  0  0  0  0  0  0  0  0  0
   -0.0699    0.9299   -0.0923 C   0  0  0  0  0  0  0  0  0  0  0  0
    1.0396    1.4508   -0.5959 O   0  0  0  0  0  0  0  0  0  0  0  0
    1.3273    0.2384   -0.1400 C   0  0  0  0  0  0  0  0  0  0  0  0
    0.4450   -0.9347    0.1029 C   0  0  0  0  0  0  0  0  0  0  0  0
    0.2709   -2.0603   -0.2747 O   0  0  0  0  0  0  0  0  0  0  0  0
   -0.1649   -0.0041    1.1018 C   0  0  0  0  0  0  0  0  0  0  0  0
    0.6314    0.3030    2.1769 O   0  0  0  0  0  0  0  0  0  0  0  0
   -2.4890   -0.1749   -2.7458 H   0  0  0  0  0  0  0  0  0  0  0  0
    1.9610    0.3380    0.8000 H   0  0  0  0  0  0  0  0  0  0  0  0
   -1.2265   -0.2142    1.3433 H   0  0  0  0  0  0  0  0  0  0  0  0
    1.1172   -0.5134    2.4510 H   0  0  0  0  0  0  0  0  0  0  0  0
  1  2  3  0
  2  3  1  0
  3  4  1  0
  4  5  1  0
  5  6  1  0
  6  7  2  0
  6  8  1  0
  8  9  1  0
  5  3  1  0
  8  3  1  0
  1 10  1  0
  5 11  1  0
  8 12  1  0
  9 13  1  0
M  END
