
     RDKit          3D

 23 23  0  0  0  0  0  0  0  0999 V2000
    3.8535   -0.1567   -0.1142 C   0  0  0  0  0  0  0  0  0  0  0  0
    2.6664   -0.3418    0.0807 C   0  0  0  0  0  0  0  0  0  0  0  0
    1.2417   -0.5892    0.3210 C   0  0  0  0  0  0  0  0  0  0  0  0
    0.6820   -1.3513   -0.8856 C   0  0  0  0  0  0  0  0  0  0  0  0
   -0.7914   -1.0355   -0.7965 C   0  0  0  0  0  0  0  0  0  0  0  0
   -0.9050    0.3138   -0.1540 C   0  0  0  0  0  0  0  0  0  0  0  0
   -1.4385    1.3753   -1.0755 C   0  0  0  0  0  0  0  0  0  0  0  0
   -1.8272    0.2135    1.0455 C   0  0  0  0  0  0  0  0  0  0  0  0
    0.4974    0.7082    0.2498 C   0  0  0  0  0  0  0  0  0  0  0  0
    4.8890    0.0199   -0.2928 H   0  0  0  0  0  0  0  0  0  0  0  0
    1.0728   -1.1532    1.2612 H   0  0  0  0  0  0  0  0  0  0  0  0
    1.1696   -0.9141   -1.7701 H   0  0  0  0  0  0  0  0  0  0  0  0
    0.8955   -2.4230   -0.7442 H   0  0  0  0  0  0  0  0  0  0  0  0
   -1.2437   -1.8159   -0.1437 H   0  0  0  0  0  0  0  0  0  0  0  0
   -1.3037   -1.1056   -1.7767 H   0  0  0  0  0  0  0  0  0  0  0  0
   -2.2884    1.0489   -1.6889 H   0  0  0  0  0  0  0  0  0  0  0  0
   -1.7782    2.2221   -0.4200 H   0  0  0  0  0  0  0  0  0  0  0  0
   -0.6003    1.8093   -1.6876 H   0  0  0  0  0  0  0  0  0  0  0  0
   -1.8065   -0.7984    1.5052 H   0  0  0  0  0  0  0  0  0  0  0  0
   -1.6181    1.0103    1.7927 H   0  0  0  0  0  0  0  0  0  0  0  0
   -2.8633    0.3538    0.6539 H   0  0  0  0  0  0  0  0  0  0  0  0
    0.9523    1.2992   -0.5868 H   0  0  0  0  0  0  0  0  0  0  0  0
    0.5440    1.3106    1.1593 H   0  0  0  0  0  0  0  0  0  0  0  0
  1  2  3  0
  2  3  1  0
  3  4  1  0
  4  5  1  0
  5  6  1  0
  6  7  1  0
  6  8  1  0
  6  9  1  0
  9  3  1  0
  1 10  1  0
  3 11  1  0
  4 12  1  0
  4 13  1  0
  5 14  1  0
  5 15  1  0
  7 16  1  0
  7 17  1  0
  7 18  1  0
  8 19  1  0
  8 20  1  0
  8 21  1  0
  9 22  1  0
  9 23  1  0
M  END
