
     RDKit          3D

 21 20  0  0  0  0  0  0  0  0999 V2000
    4.2042    0.8760    0.5884 C   0  0  0  0  0  0  0  0  0  0  0  0
    3.2316    0.1616    0.6067 C   0  0  0  0  0  0  0  0  0  0  0  0
    2.0387   -0.6903    0.6418 C   0  0  0  0  0  0  0  0  0  0  0  0
    0.8750    0.1543    0.2272 C   0  0  0  0  0  0  0  0  0  0  0  0
   -0.4406   -0.5830    0.2117 C   0  0  0  0  0  0  0  0  0  0  0  0
   -0.7954   -1.0980    1.4369 O   0  0  0  0  0  0  0  0  0  0  0  0
   -1.4402    0.4296   -0.3186 C   0  0  0  0  0  0  0  0  0  0  0  0
   -2.8096   -0.1441   -0.4936 C   0  0  0  0  0  0  0  0  0  0  0  0
   -0.9524    0.8658   -1.5633 O   0  0  0  0  0  0  0  0  0  0  0  0
    5.0821    1.4987    0.5669 H   0  0  0  0  0  0  0  0  0  0  0  0
    1.8733   -1.0623    1.6780 H   0  0  0  0  0  0  0  0  0  0  0  0
    2.1710   -1.5931    0.0134 H   0  0  0  0  0  0  0  0  0  0  0  0
    0.7734    0.9724    0.9720 H   0  0  0  0  0  0  0  0  0  0  0  0
    1.0354    0.5695   -0.7902 H   0  0  0  0  0  0  0  0  0  0  0  0
   -0.4202   -1.4471   -0.5065 H   0  0  0  0  0  0  0  0  0  0  0  0
   -1.7760   -0.8944    1.5627 H   0  0  0  0  0  0  0  0  0  0  0  0
   -1.4430    1.3299    0.3305 H   0  0  0  0  0  0  0  0  0  0  0  0
   -2.8483   -1.2197   -0.6609 H   0  0  0  0  0  0  0  0  0  0  0  0
   -3.3361    0.3938   -1.3157 H   0  0  0  0  0  0  0  0  0  0  0  0
   -3.3983    0.0922    0.4376 H   0  0  0  0  0  0  0  0  0  0  0  0
   -1.6245    1.3882   -2.0281 H   0  0  0  0  0  0  0  0  0  0  0  0
  1  2  3  0
  2  3  1  0
  3  4  1  0
  4  5  1  0
  5  6  1  0
  5  7  1  0
  7  8  1  0
  7  9  1  0
  1 10  1  0
  3 11  1  0
  3 12  1  0
  4 13  1  0
  4 14  1  0
  5 15  1  0
  6 16  1  0
  7 17  1  0
  8 18  1  0
  8 19  1  0
  8 20  1  0
  9 21  1  0
M  END
