
     RDKit          3D

 21 22  0  0  0  0  0  0  0  0999 V2000
    3.3402    0.1519   -0.2464 C   0  0  0  0  0  0  0  0  0  0  0  0
    2.4165    0.3392   -0.1066 C   0  0  0  0  0  0  0  0  0  0  0  0
    1.2579    0.5539    0.0620 C   0  0  0  0  0  0  0  0  0  0  0  0
    0.0333    0.3695   -0.9518 C   0  0  0  0  0  0  0  0  0  0  0  0
   -1.1619    0.5744   -0.0738 C   0  0  0  0  0  0  0  0  0  0  0  0
   -1.0403    1.4849    1.1219 C   0  0  0  0  0  0  0  0  0  0  0  0
   -1.0781   -0.8185    0.2760 C   0  0  0  0  0  0  0  0  0  0  0  0
   -1.3984   -1.9307   -0.7249 C   0  0  0  0  0  0  0  0  0  0  0  0
   -0.2141   -1.1481   -1.0132 C   0  0  0  0  0  0  0  0  0  0  0  0
    4.9642   -0.1773   -0.5078 H   0  0  0  0  0  0  0  0  0  0  0  0
    0.8304   -0.2044    0.9538 H   0  0  0  0  0  0  0  0  0  0  0  0
    0.8539    1.6020    0.4522 H   0  0  0  0  0  0  0  0  0  0  0  0
    0.0157    0.8464   -1.9026 H   0  0  0  0  0  0  0  0  0  0  0  0
   -1.9808    0.9334   -0.7185 H   0  0  0  0  0  0  0  0  0  0  0  0
   -0.8512    2.5502    0.9623 H   0  0  0  0  0  0  0  0  0  0  0  0
   -2.0511    1.4940    1.6830 H   0  0  0  0  0  0  0  0  0  0  0  0
   -0.3768    1.0114    1.9191 H   0  0  0  0  0  0  0  0  0  0  0  0
   -0.6013   -1.1737    1.2138 H   0  0  0  0  0  0  0  0  0  0  0  0
   -1.3304   -2.9141   -0.2479 H   0  0  0  0  0  0  0  0  0  0  0  0
   -2.3623   -1.8210   -1.3248 H   0  0  0  0  0  0  0  0  0  0  0  0
    0.7345   -1.7233   -0.8255 H   0  0  0  0  0  0  0  0  0  0  0  0
  1  2  3  0
  2  3  1  0
  3  4  1  0
  4  5  1  0
  5  6  1  0
  5  7  1  0
  7  8  1  0
  8  9  1  0
  9  4  1  0
  9  7  1  0
  1 10  1  0
  3 11  1  0
  3 12  1  0
  4 13  1  0
  5 14  1  0
  6 15  1  0
  6 16  1  0
  6 17  1  0
  7 18  1  0
  8 19  1  0
  8 20  1  0
  9 21  1  0
M  END
