
     RDKit          3D

 15 15  0  0  0  0  0  0  0  0999 V2000
    2.7814   -1.5040    0.5511 C   0  0  0  0  0  0  0  0  0  0  0  0
    1.9661   -0.7849   -0.0421 C   0  0  0  0  0  0  0  0  0  0  0  0
    1.0367    0.0274   -0.7429 C   0  0  0  0  0  0  0  0  0  0  0  0
    1.3062    0.5020   -1.8553 O   0  0  0  0  0  0  0  0  0  0  0  0
   -0.2890    0.3318   -0.1598 C   0  0  0  0  0  0  0  0  0  0  0  0
   -0.9561    1.4881   -0.6893 C   0  0  0  0  0  0  0  0  0  0  0  0
   -1.5211    2.5043   -1.1579 C   0  0  0  0  0  0  0  0  0  0  0  0
   -0.6302   -0.0995    1.2151 C   0  0  0  0  0  0  0  0  0  0  0  0
   -1.1283   -0.9252    0.0855 C   0  0  0  0  0  0  0  0  0  0  0  0
    3.4633   -2.1128    1.0693 H   0  0  0  0  0  0  0  0  0  0  0  0
   -1.9999    3.3447   -1.5313 H   0  0  0  0  0  0  0  0  0  0  0  0
   -1.3459    0.5588    1.7623 H   0  0  0  0  0  0  0  0  0  0  0  0
    0.1239   -0.5585    1.8823 H   0  0  0  0  0  0  0  0  0  0  0  0
   -2.1479   -0.8516   -0.2837 H   0  0  0  0  0  0  0  0  0  0  0  0
   -0.6594   -1.9207   -0.1033 H   0  0  0  0  0  0  0  0  0  0  0  0
  1  2  3  0
  2  3  1  0
  3  4  2  0
  3  5  1  0
  5  6  1  0
  6  7  3  0
  5  8  1  0
  8  9  1  0
  9  5  1  0
  1 10  1  0
  7 11  1  0
  8 12  1  0
  8 13  1  0
  9 14  1  0
  9 15  1  0
M  END
