
     RDKit          3D

 19 20  0  0  0  0  0  0  0  0999 V2000
    2.1051    2.2815   -1.6906 C   0  0  0  0  0  0  0  0  0  0  0  0
    1.4258    1.5496   -0.8097 C   0  0  0  0  0  0  0  0  0  0  0  0
    0.7555    0.8454    0.0737 C   0  0  0  0  0  0  0  0  0  0  0  0
    0.5589   -0.6178   -0.3972 C   0  0  0  0  0  0  0  0  0  0  0  0
    0.5835   -1.8299    0.3922 C   0  0  0  0  0  0  0  0  0  0  0  0
    0.1567   -1.5203    1.6961 O   0  0  0  0  0  0  0  0  0  0  0  0
   -0.7697   -0.4812    1.5840 C   0  0  0  0  0  0  0  0  0  0  0  0
   -0.4835    0.1956    0.2391 C   0  0  0  0  0  0  0  0  0  0  0  0
   -1.7317    0.5290   -0.5572 C   0  0  0  0  0  0  0  0  0  0  0  0
    2.6695    2.8843   -2.4049 H   0  0  0  0  0  0  0  0  0  0  0  0
    1.4582    0.6689    1.0955 H   0  0  0  0  0  0  0  0  0  0  0  0
    0.6734   -0.6679   -1.5125 H   0  0  0  0  0  0  0  0  0  0  0  0
    1.5154   -2.3776    0.4459 H   0  0  0  0  0  0  0  0  0  0  0  0
   -0.2033   -2.5552   -0.0425 H   0  0  0  0  0  0  0  0  0  0  0  0
   -0.6775    0.2285    2.4179 H   0  0  0  0  0  0  0  0  0  0  0  0
   -1.7718   -0.9038    1.5675 H   0  0  0  0  0  0  0  0  0  0  0  0
   -1.9300    1.6173   -0.5359 H   0  0  0  0  0  0  0  0  0  0  0  0
   -2.6119    0.0714   -0.0085 H   0  0  0  0  0  0  0  0  0  0  0  0
   -1.7227    0.0821   -1.5530 H   0  0  0  0  0  0  0  0  0  0  0  0
  1  2  3  0
  2  3  1  0
  3  4  1  0
  4  5  1  0
  5  6  1  0
  6  7  1  0
  7  8  1  0
  8  9  1  0
  8  3  1  0
  8  4  1  0
  1 10  1  0
  3 11  1  0
  4 12  1  0
  5 13  1  0
  5 14  1  0
  7 15  1  0
  7 16  1  0
  9 17  1  0
  9 18  1  0
  9 19  1  0
M  END
