
     RDKit          3D

 19 19  0  0  0  0  0  0  0  0999 V2000
    3.1929   -0.5751    0.3946 C   0  0  0  0  0  0  0  0  0  0  0  0
    2.1062   -0.2726   -0.0284 C   0  0  0  0  0  0  0  0  0  0  0  0
    0.7648    0.1182   -0.5377 C   0  0  0  0  0  0  0  0  0  0  0  0
    0.6181    1.4932   -0.3495 O   0  0  0  0  0  0  0  0  0  0  0  0
    0.1693    1.6420    0.9660 C   0  0  0  0  0  0  0  0  0  0  0  0
   -0.8836    0.5862    1.0607 C   0  0  0  0  0  0  0  0  0  0  0  0
   -0.2818   -0.5533    0.2763 C   0  0  0  0  0  0  0  0  0  0  0  0
   -1.3879   -1.1746   -0.5394 C   0  0  0  0  0  0  0  0  0  0  0  0
   -2.0522   -0.2485   -1.3037 O   0  0  0  0  0  0  0  0  0  0  0  0
    4.1419   -0.8532    0.7701 H   0  0  0  0  0  0  0  0  0  0  0  0
    0.7425   -0.0845   -1.6054 H   0  0  0  0  0  0  0  0  0  0  0  0
    1.0184    1.3435    1.6145 H   0  0  0  0  0  0  0  0  0  0  0  0
   -0.2004    2.6492    1.1563 H   0  0  0  0  0  0  0  0  0  0  0  0
   -1.1160    0.2983    2.1113 H   0  0  0  0  0  0  0  0  0  0  0  0
   -1.8147    0.9646    0.5973 H   0  0  0  0  0  0  0  0  0  0  0  0
    0.0993   -1.2983    0.9880 H   0  0  0  0  0  0  0  0  0  0  0  0
   -1.0506   -2.0105   -1.1694 H   0  0  0  0  0  0  0  0  0  0  0  0
   -2.1322   -1.5797    0.2046 H   0  0  0  0  0  0  0  0  0  0  0  0
   -1.9339   -0.4447   -2.2662 H   0  0  0  0  0  0  0  0  0  0  0  0
  1  2  3  0
  2  3  1  0
  3  4  1  0
  4  5  1  0
  5  6  1  0
  6  7  1  0
  7  8  1  0
  8  9  1  0
  7  3  1  0
  1 10  1  0
  3 11  1  0
  5 12  1  0
  5 13  1  0
  6 14  1  0
  6 15  1  0
  7 16  1  0
  8 17  1  0
  8 18  1  0
  9 19  1  0
M  END
