
     RDKit          3D

 23 22  0  0  0  0  0  0  0  0999 V2000
   -2.7134    1.6108    1.0502 C   0  0  0  0  0  0  0  0  0  0  0  0
   -2.3222    0.8810    0.1622 C   0  0  0  0  0  0  0  0  0  0  0  0
   -1.8723    0.0482   -0.8512 C   0  0  0  0  0  0  0  0  0  0  0  0
   -0.4276   -0.5491   -0.5925 C   0  0  0  0  0  0  0  0  0  0  0  0
    0.4466    0.6608   -0.3170 C   0  0  0  0  0  0  0  0  0  0  0  0
    1.9139    0.3561   -0.2473 C   0  0  0  0  0  0  0  0  0  0  0  0
    2.6755    1.6815    0.0013 C   0  0  0  0  0  0  0  0  0  0  0  0
   -0.5203   -1.6132    0.0894 O   0  0  0  0  0  0  0  0  0  0  0  0
   -0.5949   -2.6467    0.7118 C   0  0  0  0  0  0  0  0  0  0  0  0
   -3.1007    2.3000    1.9172 H   0  0  0  0  0  0  0  0  0  0  0  0
   -1.8186    0.5185   -1.8343 H   0  0  0  0  0  0  0  0  0  0  0  0
   -2.4897   -0.9038   -1.0214 H   0  0  0  0  0  0  0  0  0  0  0  0
   -0.0364   -0.8528   -1.6558 H   0  0  0  0  0  0  0  0  0  0  0  0
    0.1304    1.5276   -0.8864 H   0  0  0  0  0  0  0  0  0  0  0  0
    0.2045    0.9818    0.7990 H   0  0  0  0  0  0  0  0  0  0  0  0
    2.1904   -0.0667   -1.2629 H   0  0  0  0  0  0  0  0  0  0  0  0
    2.2159   -0.3367    0.5189 H   0  0  0  0  0  0  0  0  0  0  0  0
    2.2127    2.1520    0.9104 H   0  0  0  0  0  0  0  0  0  0  0  0
    3.7506    1.5401    0.0507 H   0  0  0  0  0  0  0  0  0  0  0  0
    2.3116    2.3660   -0.8357 H   0  0  0  0  0  0  0  0  0  0  0  0
    0.3043   -3.3050    1.0017 H   0  0  0  0  0  0  0  0  0  0  0  0
   -1.4362   -2.8749    1.4557 H   0  0  0  0  0  0  0  0  0  0  0  0
   -1.0242   -3.4755   -0.1217 H   0  0  0  0  0  0  0  0  0  0  0  0
  1  2  3  0
  2  3  1  0
  3  4  1  0
  4  5  1  0
  5  6  1  0
  6  7  1  0
  4  8  1  0
  8  9  1  0
  1 10  1  0
  3 11  1  0
  3 12  1  0
  4 13  1  0
  5 14  1  0
  5 15  1  0
  6 16  1  0
  6 17  1  0
  7 18  1  0
  7 19  1  0
  7 20  1  0
  9 21  1  0
  9 22  1  0
  9 23  1  0
M  END
