
     RDKit          3D

 23 22  0  0  0  0  0  0  0  0999 V2000
    1.1950    2.6591    0.1599 C   0  0  0  0  0  0  0  0  0  0  0  0
    0.9686    1.4974    0.3942 C   0  0  0  0  0  0  0  0  0  0  0  0
    0.7137    0.1176    0.6933 C   0  0  0  0  0  0  0  0  0  0  0  0
    1.9147   -0.7273    0.2449 C   0  0  0  0  0  0  0  0  0  0  0  0
   -0.4867   -0.4326    0.0240 C   0  0  0  0  0  0  0  0  0  0  0  0
   -0.5516   -1.9117    0.4781 C   0  0  0  0  0  0  0  0  0  0  0  0
   -0.2267   -0.4821   -1.4707 C   0  0  0  0  0  0  0  0  0  0  0  0
   -1.7002    0.0595    0.3616 O   0  0  0  0  0  0  0  0  0  0  0  0
   -1.9718    1.3770    0.1918 C   0  0  0  0  0  0  0  0  0  0  0  0
    1.3824    3.6969   -0.0368 H   0  0  0  0  0  0  0  0  0  0  0  0
    0.6275   -0.0563    1.7877 H   0  0  0  0  0  0  0  0  0  0  0  0
    1.7934   -1.7817    0.4679 H   0  0  0  0  0  0  0  0  0  0  0  0
    2.7885   -0.2784    0.7997 H   0  0  0  0  0  0  0  0  0  0  0  0
    2.1432   -0.5568   -0.8296 H   0  0  0  0  0  0  0  0  0  0  0  0
   -1.5802   -2.2963    0.4405 H   0  0  0  0  0  0  0  0  0  0  0  0
    0.0380   -2.5426   -0.2352 H   0  0  0  0  0  0  0  0  0  0  0  0
   -0.1655   -2.0200    1.4927 H   0  0  0  0  0  0  0  0  0  0  0  0
    0.4492   -1.3450   -1.6472 H   0  0  0  0  0  0  0  0  0  0  0  0
    0.2593    0.4453   -1.8370 H   0  0  0  0  0  0  0  0  0  0  0  0
   -1.1517   -0.6909   -2.0417 H   0  0  0  0  0  0  0  0  0  0  0  0
   -1.8842    1.7596   -0.8439 H   0  0  0  0  0  0  0  0  0  0  0  0
   -3.0744    1.5012    0.4471 H   0  0  0  0  0  0  0  0  0  0  0  0
   -1.4807    2.0081    0.9586 H   0  0  0  0  0  0  0  0  0  0  0  0
  1  2  3  0
  2  3  1  0
  3  4  1  0
  3  5  1  0
  5  6  1  0
  5  7  1  0
  5  8  1  0
  8  9  1  0
  1 10  1  0
  3 11  1  0
  4 12  1  0
  4 13  1  0
  4 14  1  0
  6 15  1  0
  6 16  1  0
  6 17  1  0
  7 18  1  0
  7 19  1  0
  7 20  1  0
  9 21  1  0
  9 22  1  0
  9 23  1  0
M  END
