
     RDKit          3D

 20 20  0  0  0  0  0  0  0  0999 V2000
   -2.7081    2.2799   -0.6129 C   0  0  0  0  0  0  0  0  0  0  0  0
   -2.0362    1.2766   -0.4681 C   0  0  0  0  0  0  0  0  0  0  0  0
   -1.2231    0.0567   -0.3180 C   0  0  0  0  0  0  0  0  0  0  0  0
   -1.8053   -0.7293    0.8327 C   0  0  0  0  0  0  0  0  0  0  0  0
    0.1796    0.4927   -0.0448 C   0  0  0  0  0  0  0  0  0  0  0  0
    1.1440   -0.6429    0.1346 C   0  0  0  0  0  0  0  0  0  0  0  0
    2.5750   -0.1972    0.4130 C   0  0  0  0  0  0  0  0  0  0  0  0
    2.2050   -0.9405   -0.8500 C   0  0  0  0  0  0  0  0  0  0  0  0
   -3.3089    3.1438   -0.7383 H   0  0  0  0  0  0  0  0  0  0  0  0
   -1.3260   -0.5430   -1.2232 H   0  0  0  0  0  0  0  0  0  0  0  0
   -1.3970   -1.7799    0.8570 H   0  0  0  0  0  0  0  0  0  0  0  0
   -2.9010   -0.8433    0.7040 H   0  0  0  0  0  0  0  0  0  0  0  0
   -1.6294   -0.2010    1.7923 H   0  0  0  0  0  0  0  0  0  0  0  0
    0.4894    1.2022   -0.8412 H   0  0  0  0  0  0  0  0  0  0  0  0
    0.1696    1.1024    0.9020 H   0  0  0  0  0  0  0  0  0  0  0  0
    0.7594   -1.4621    0.7681 H   0  0  0  0  0  0  0  0  0  0  0  0
    3.1434   -0.7007    1.2066 H   0  0  0  0  0  0  0  0  0  0  0  0
    2.8302    0.8827    0.2088 H   0  0  0  0  0  0  0  0  0  0  0  0
    2.5975   -1.9766   -0.8969 H   0  0  0  0  0  0  0  0  0  0  0  0
    2.2420   -0.4205   -1.8259 H   0  0  0  0  0  0  0  0  0  0  0  0
  1  2  3  0
  2  3  1  0
  3  4  1  0
  3  5  1  0
  5  6  1  0
  6  7  1  0
  7  8  1  0
  8  6  1  0
  1  9  1  0
  3 10  1  0
  4 11  1  0
  4 12  1  0
  4 13  1  0
  5 14  1  0
  5 15  1  0
  6 16  1  0
  7 17  1  0
  7 18  1  0
  8 19  1  0
  8 20  1  0
M  END
