
     RDKit          3D

 15 15  0  0  0  0  0  0  0  0999 V2000
    1.9355    0.4722    1.8112 C   0  0  0  0  0  0  0  0  0  0  0  0
    1.0317    0.1283    1.0902 C   0  0  0  0  0  0  0  0  0  0  0  0
   -0.0477   -0.2962    0.1979 C   0  0  0  0  0  0  0  0  0  0  0  0
   -0.7380   -1.5293    0.6434 C   0  0  0  0  0  0  0  0  0  0  0  0
   -1.8912   -1.7938    0.4506 O   0  0  0  0  0  0  0  0  0  0  0  0
    0.3099   -0.2538   -1.2717 C   0  0  0  0  0  0  0  0  0  0  0  0
   -0.1133    1.1651   -1.2485 C   0  0  0  0  0  0  0  0  0  0  0  0
    0.1623    2.1744   -1.8414 O   0  0  0  0  0  0  0  0  0  0  0  0
   -1.0400    0.7924   -0.1579 C   0  0  0  0  0  0  0  0  0  0  0  0
    2.7277    0.7920    2.4445 H   0  0  0  0  0  0  0  0  0  0  0  0
   -0.1258   -2.2464    1.1933 H   0  0  0  0  0  0  0  0  0  0  0  0
    1.3747   -0.4346   -1.5064 H   0  0  0  0  0  0  0  0  0  0  0  0
   -0.4274   -0.8506   -1.8426 H   0  0  0  0  0  0  0  0  0  0  0  0
   -1.9505    0.3253   -0.5811 H   0  0  0  0  0  0  0  0  0  0  0  0
   -1.2079    1.5552    0.6186 H   0  0  0  0  0  0  0  0  0  0  0  0
  1  2  3  0
  2  3  1  0
  3  4  1  0
  4  5  2  0
  3  6  1  0
  6  7  1  0
  7  8  2  0
  7  9  1  0
  9  3  1  0
  1 10  1  0
  4 11  1  0
  6 12  1  0
  6 13  1  0
  9 14  1  0
  9 15  1  0
M  END
