
     RDKit          3D

 19 18  0  0  0  0  0  0  0  0999 V2000
    3.4067    1.4049   -0.8814 C   0  0  0  0  0  0  0  0  0  0  0  0
    2.2742    1.3759   -0.4509 C   0  0  0  0  0  0  0  0  0  0  0  0
    0.9420    1.3429    0.0740 C   0  0  0  0  0  0  0  0  0  0  0  0
    0.5665    2.2159    0.8899 O   0  0  0  0  0  0  0  0  0  0  0  0
   -0.0120    0.2890   -0.3299 C   0  0  0  0  0  0  0  0  0  0  0  0
   -1.3116    0.5241    0.3850 C   0  0  0  0  0  0  0  0  0  0  0  0
   -2.3615   -0.4859    0.0541 C   0  0  0  0  0  0  0  0  0  0  0  0
    0.6165   -1.0401    0.0700 C   0  0  0  0  0  0  0  0  0  0  0  0
   -0.2052   -2.1090   -0.2674 O   0  0  0  0  0  0  0  0  0  0  0  0
    4.4027    1.4130   -1.2665 H   0  0  0  0  0  0  0  0  0  0  0  0
   -0.2128    0.3003   -1.4252 H   0  0  0  0  0  0  0  0  0  0  0  0
   -1.1337    0.5176    1.4802 H   0  0  0  0  0  0  0  0  0  0  0  0
   -1.6639    1.5321    0.1184 H   0  0  0  0  0  0  0  0  0  0  0  0
   -2.2539   -1.4255    0.6290 H   0  0  0  0  0  0  0  0  0  0  0  0
   -3.3550   -0.0383    0.3019 H   0  0  0  0  0  0  0  0  0  0  0  0
   -2.3523   -0.7394   -1.0326 H   0  0  0  0  0  0  0  0  0  0  0  0
    1.5634   -1.1621   -0.4608 H   0  0  0  0  0  0  0  0  0  0  0  0
    0.8210   -0.9874    1.1606 H   0  0  0  0  0  0  0  0  0  0  0  0
    0.2689   -2.9280    0.0226 H   0  0  0  0  0  0  0  0  0  0  0  0
  1  2  3  0
  2  3  1  0
  3  4  2  0
  3  5  1  0
  5  6  1  0
  6  7  1  0
  5  8  1  0
  8  9  1  0
  1 10  1  0
  5 11  1  0
  6 12  1  0
  6 13  1  0
  7 14  1  0
  7 15  1  0
  7 16  1  0
  8 17  1  0
  8 18  1  0
  9 19  1  0
M  END
