
     RDKit          3D

 19 19  0  0  0  0  0  0  0  0999 V2000
    3.0098   -1.6983    0.3641 C   0  0  0  0  0  0  0  0  0  0  0  0
    2.4817   -0.6620    0.0344 C   0  0  0  0  0  0  0  0  0  0  0  0
    1.8303    0.6061   -0.3568 C   0  0  0  0  0  0  0  0  0  0  0  0
    0.3711    0.4054   -0.3289 C   0  0  0  0  0  0  0  0  0  0  0  0
   -0.4480    0.5430   -1.3517 C   0  0  0  0  0  0  0  0  0  0  0  0
   -1.8639    0.2688   -0.9932 C   0  0  0  0  0  0  0  0  0  0  0  0
   -1.7615   -0.3975    0.3508 C   0  0  0  0  0  0  0  0  0  0  0  0
   -0.3968    0.0089    0.8748 C   0  0  0  0  0  0  0  0  0  0  0  0
   -0.4863    1.1471    1.6899 O   0  0  0  0  0  0  0  0  0  0  0  0
    3.4725   -2.6143    0.6616 H   0  0  0  0  0  0  0  0  0  0  0  0
    2.1433    1.3539    0.4128 H   0  0  0  0  0  0  0  0  0  0  0  0
    2.2033    0.8746   -1.3671 H   0  0  0  0  0  0  0  0  0  0  0  0
   -0.1845    0.8283   -2.3915 H   0  0  0  0  0  0  0  0  0  0  0  0
   -2.3368   -0.4381   -1.7017 H   0  0  0  0  0  0  0  0  0  0  0  0
   -2.4699    1.2109   -0.9614 H   0  0  0  0  0  0  0  0  0  0  0  0
   -1.8327   -1.5201    0.2546 H   0  0  0  0  0  0  0  0  0  0  0  0
   -2.5300   -0.0143    1.0514 H   0  0  0  0  0  0  0  0  0  0  0  0
    0.0223   -0.8405    1.4156 H   0  0  0  0  0  0  0  0  0  0  0  0
   -1.2238    0.9383    2.3422 H   0  0  0  0  0  0  0  0  0  0  0  0
  1  2  3  0
  2  3  1  0
  3  4  1  0
  4  5  2  0
  5  6  1  0
  6  7  1  0
  7  8  1  0
  8  9  1  0
  8  4  1  0
  1 10  1  0
  3 11  1  0
  3 12  1  0
  5 13  1  0
  6 14  1  0
  6 15  1  0
  7 16  1  0
  7 17  1  0
  8 18  1  0
  9 19  1  0
M  END
