
     RDKit          3D

 19 19  0  0  0  0  0  0  0  0999 V2000
    5.0130    0.7502    0.1824 C   0  0  0  0  0  0  0  0  0  0  0  0
    3.5167    0.6061    0.2229 C   0  0  0  0  0  0  0  0  0  0  0  0
    1.8056    0.4701    0.2745 C   0  0  0  0  0  0  0  0  0  0  0  0
    1.0305    0.3982    0.3013 C   0  0  0  0  0  0  0  0  0  0  0  0
   -0.2354    0.2658    0.3611 C   0  0  0  0  0  0  0  0  0  0  0  0
   -1.5607   -0.1336    1.1239 C   0  0  0  0  0  0  0  0  0  0  0  0
   -2.6917    0.5702    0.1807 C   0  0  0  0  0  0  0  0  0  0  0  0
   -0.6273    0.0712   -1.2618 C   0  0  0  0  0  0  0  0  0  0  0  0
   -0.0398   -1.1658   -0.4171 C   0  0  0  0  0  0  0  0  0  0  0  0
    5.7298    0.8147    0.1512 H   0  0  0  0  0  0  0  0  0  0  0  0
   -1.7137   -1.2353    0.9623 H   0  0  0  0  0  0  0  0  0  0  0  0
   -1.5305    0.1308    2.1433 H   0  0  0  0  0  0  0  0  0  0  0  0
   -2.1712    1.4120   -0.3840 H   0  0  0  0  0  0  0  0  0  0  0  0
   -3.5297    0.3936    0.6774 H   0  0  0  0  0  0  0  0  0  0  0  0
   -2.7681   -0.2434   -0.7328 H   0  0  0  0  0  0  0  0  0  0  0  0
    0.2284    0.4353   -1.9718 H   0  0  0  0  0  0  0  0  0  0  0  0
   -1.3391   -0.3770   -1.8090 H   0  0  0  0  0  0  0  0  0  0  0  0
   -0.3225   -2.0186   -0.1377 H   0  0  0  0  0  0  0  0  0  0  0  0
    1.2059   -1.1447   -0.5488 H   0  0  0  0  0  0  0  0  0  0  0  0
  1  2  3  0
  2  3  1  0
  3  4  3  0
  4  5  1  0
  5  6  1  0
  6  7  1  0
  5  8  1  0
  8  9  1  0
  9  5  1  0
  1 10  1  0
  6 11  1  0
  6 12  1  0
  7 13  1  0
  7 14  1  0
  7 15  1  0
  8 16  1  0
  8 17  1  0
  9 18  1  0
  9 19  1  0
M  END
