
     RDKit          3D

 18 18  0  0  0  0  0  0  0  0999 V2000
   -2.2938    2.2345    0.1162 C   0  0  0  0  0  0  0  0  0  0  0  0
   -1.5502    1.2873    0.3179 C   0  0  0  0  0  0  0  0  0  0  0  0
   -0.6676    0.1419    0.5551 C   0  0  0  0  0  0  0  0  0  0  0  0
   -1.4853   -1.0300    1.0501 C   0  0  0  0  0  0  0  0  0  0  0  0
    0.0339   -0.2079   -0.7467 C   0  0  0  0  0  0  0  0  0  0  0  0
    0.8264    0.7769   -1.3187 O   0  0  0  0  0  0  0  0  0  0  0  0
    1.4457   -0.4586   -0.8170 C   0  0  0  0  0  0  0  0  0  0  0  0
    2.4025   -0.1925    0.3029 C   0  0  0  0  0  0  0  0  0  0  0  0
   -2.9381    3.0589   -0.0507 H   0  0  0  0  0  0  0  0  0  0  0  0
    0.0807    0.4637    1.3257 H   0  0  0  0  0  0  0  0  0  0  0  0
   -2.3351   -0.6023    1.6268 H   0  0  0  0  0  0  0  0  0  0  0  0
   -0.9134   -1.7468    1.6469 H   0  0  0  0  0  0  0  0  0  0  0  0
   -1.8587   -1.5594    0.1297 H   0  0  0  0  0  0  0  0  0  0  0  0
   -0.6308   -0.7558   -1.4624 H   0  0  0  0  0  0  0  0  0  0  0  0
    1.8554   -1.0081   -1.6742 H   0  0  0  0  0  0  0  0  0  0  0  0
    3.4681   -0.2849   -0.0473 H   0  0  0  0  0  0  0  0  0  0  0  0
    2.3019   -0.9384    1.1209 H   0  0  0  0  0  0  0  0  0  0  0  0
    2.2583    0.8214    0.7692 H   0  0  0  0  0  0  0  0  0  0  0  0
  1  2  3  0
  2  3  1  0
  3  4  1  0
  3  5  1  0
  5  6  1  0
  6  7  1  0
  7  8  1  0
  7  5  1  0
  1  9  1  0
  3 10  1  0
  4 11  1  0
  4 12  1  0
  4 13  1  0
  5 14  1  0
  7 15  1  0
  8 16  1  0
  8 17  1  0
  8 18  1  0
M  END
