
     RDKit          3D

 23 22  0  0  0  0  0  0  0  0999 V2000
    2.8985   -0.6405   -0.2125 C   0  0  0  0  0  0  0  0  0  0  0  0
    1.9908   -0.0920    0.3999 C   0  0  0  0  0  0  0  0  0  0  0  0
    0.9196    0.5852    1.1326 C   0  0  0  0  0  0  0  0  0  0  0  0
   -0.2557    0.8288    0.2602 C   0  0  0  0  0  0  0  0  0  0  0  0
    0.1360    1.6878   -0.9028 C   0  0  0  0  0  0  0  0  0  0  0  0
   -1.1866    1.5817    1.0169 O   0  0  0  0  0  0  0  0  0  0  0  0
   -0.9768   -0.3975   -0.1863 C   0  0  0  0  0  0  0  0  0  0  0  0
   -0.1602   -1.3649   -0.9776 C   0  0  0  0  0  0  0  0  0  0  0  0
   -1.6079   -1.1591    0.9572 C   0  0  0  0  0  0  0  0  0  0  0  0
    3.6791   -1.1229   -0.7432 H   0  0  0  0  0  0  0  0  0  0  0  0
    0.6799    0.0683    2.0830 H   0  0  0  0  0  0  0  0  0  0  0  0
    1.3365    1.5867    1.4190 H   0  0  0  0  0  0  0  0  0  0  0  0
    0.7222    2.5648   -0.5972 H   0  0  0  0  0  0  0  0  0  0  0  0
   -0.8211    2.0990   -1.3335 H   0  0  0  0  0  0  0  0  0  0  0  0
    0.6177    1.1437   -1.7285 H   0  0  0  0  0  0  0  0  0  0  0  0
   -0.8366    1.8500    1.8792 H   0  0  0  0  0  0  0  0  0  0  0  0
   -1.8260   -0.0717   -0.8564 H   0  0  0  0  0  0  0  0  0  0  0  0
   -0.8944   -2.0160   -1.5408 H   0  0  0  0  0  0  0  0  0  0  0  0
    0.3732   -2.0571   -0.3075 H   0  0  0  0  0  0  0  0  0  0  0  0
    0.4541   -0.8906   -1.7471 H   0  0  0  0  0  0  0  0  0  0  0  0
   -2.4475   -1.7457    0.5280 H   0  0  0  0  0  0  0  0  0  0  0  0
   -0.8562   -1.9259    1.2885 H   0  0  0  0  0  0  0  0  0  0  0  0
   -1.9387   -0.5120    1.7730 H   0  0  0  0  0  0  0  0  0  0  0  0
  1  2  3  0
  2  3  1  0
  3  4  1  0
  4  5  1  0
  4  6  1  0
  4  7  1  0
  7  8  1  0
  7  9  1  0
  1 10  1  0
  3 11  1  0
  3 12  1  0
  5 13  1  0
  5 14  1  0
  5 15  1  0
  6 16  1  0
  7 17  1  0
  8 18  1  0
  8 19  1  0
  8 20  1  0
  9 21  1  0
  9 22  1  0
  9 23  1  0
M  END
