
     RDKit          3D

 21 20  0  0  0  0  0  0  0  0999 V2000
   -0.1929    1.5280   -2.5439 C   0  0  0  0  0  0  0  0  0  0  0  0
   -0.5882    0.8015   -1.4669 C   0  0  0  0  0  0  0  0  0  0  0  0
   -0.9941    0.0812   -0.3790 C   0  0  0  0  0  0  0  0  0  0  0  0
   -1.3514    0.9217    0.5732 O   0  0  0  0  0  0  0  0  0  0  0  0
   -2.2307    1.1261    1.4590 C   0  0  0  0  0  0  0  0  0  0  0  0
    0.4221   -0.5683   -0.0129 C   0  0  0  0  0  0  0  0  0  0  0  0
    0.7931   -1.3005   -1.3615 C   0  0  0  0  0  0  0  0  0  0  0  0
    0.6658   -1.2595    1.0639 O   0  0  0  0  0  0  0  0  0  0  0  0
    1.9654   -0.7901    1.5292 C   0  0  0  0  0  0  0  0  0  0  0  0
    0.1372    2.1501   -3.4306 H   0  0  0  0  0  0  0  0  0  0  0  0
   -1.7004   -0.7349   -0.5356 H   0  0  0  0  0  0  0  0  0  0  0  0
   -2.0371    2.2194    1.9073 H   0  0  0  0  0  0  0  0  0  0  0  0
   -3.2576    1.2584    1.0396 H   0  0  0  0  0  0  0  0  0  0  0  0
   -2.2691    0.5349    2.4440 H   0  0  0  0  0  0  0  0  0  0  0  0
    1.1779    0.3337   -0.0291 H   0  0  0  0  0  0  0  0  0  0  0  0
    1.8041   -0.9230   -1.6983 H   0  0  0  0  0  0  0  0  0  0  0  0
    0.0464   -1.0516   -2.1478 H   0  0  0  0  0  0  0  0  0  0  0  0
    0.7826   -2.3752   -1.1325 H   0  0  0  0  0  0  0  0  0  0  0  0
    2.2795   -1.2892    2.4399 H   0  0  0  0  0  0  0  0  0  0  0  0
    1.8869    0.3087    1.6324 H   0  0  0  0  0  0  0  0  0  0  0  0
    2.6607   -0.9714    0.6493 H   0  0  0  0  0  0  0  0  0  0  0  0
  1  2  3  0
  2  3  1  0
  3  4  1  0
  4  5  1  0
  3  6  1  0
  6  7  1  0
  6  8  1  0
  8  9  1  0
  1 10  1  0
  3 11  1  0
  5 12  1  0
  5 13  1  0
  5 14  1  0
  6 15  1  0
  7 16  1  0
  7 17  1  0
  7 18  1  0
  9 19  1  0
  9 20  1  0
  9 21  1  0
M  END
