
     RDKit          3D

 15 14  0  0  0  0  0  0  0  0999 V2000
    0.1290    2.4929    0.1122 C   0  0  0  0  0  0  0  0  0  0  0  0
    0.4055    1.2946    0.0691 C   0  0  0  0  0  0  0  0  0  0  0  0
    0.7193   -0.1402   -0.0015 C   0  0  0  0  0  0  0  0  0  0  0  0
    0.0686   -0.8303    1.1867 C   0  0  0  0  0  0  0  0  0  0  0  0
    0.5774   -0.2897    2.3504 O   0  0  0  0  0  0  0  0  0  0  0  0
    0.2920   -0.7296   -1.2822 C   0  0  0  0  0  0  0  0  0  0  0  0
    1.1457   -1.2734   -2.0171 O   0  0  0  0  0  0  0  0  0  0  0  0
   -1.0837   -0.6836   -1.6832 C   0  0  0  0  0  0  0  0  0  0  0  0
   -2.0340   -0.1529   -1.0497 O   0  0  0  0  0  0  0  0  0  0  0  0
   -0.0934    3.5231    0.1599 H   0  0  0  0  0  0  0  0  0  0  0  0
    1.8306   -0.2889    0.1194 H   0  0  0  0  0  0  0  0  0  0  0  0
   -1.0242   -0.5468    1.1744 H   0  0  0  0  0  0  0  0  0  0  0  0
    0.1297   -1.9094    1.0988 H   0  0  0  0  0  0  0  0  0  0  0  0
    0.3060    0.6841    2.3959 H   0  0  0  0  0  0  0  0  0  0  0  0
   -1.3685   -1.1500   -2.6331 H   0  0  0  0  0  0  0  0  0  0  0  0
  1  2  3  0
  2  3  1  0
  3  4  1  0
  4  5  1  0
  3  6  1  0
  6  7  2  0
  6  8  1  0
  8  9  2  0
  1 10  1  0
  3 11  1  0
  4 12  1  0
  4 13  1  0
  5 14  1  0
  8 15  1  0
M  END
