
     RDKit          3D

 23 23  0  0  0  0  0  0  0  0999 V2000
    2.9281    0.6516   -0.7232 C   0  0  0  0  0  0  0  0  0  0  0  0
    2.3266   -0.0197   -0.3387 C   0  0  0  0  0  0  0  0  0  0  0  0
    1.3943   -1.0714    0.2890 C   0  0  0  0  0  0  0  0  0  0  0  0
   -0.0142   -0.5993   -0.1012 C   0  0  0  0  0  0  0  0  0  0  0  0
   -0.1818   -0.6192   -1.5702 C   0  0  0  0  0  0  0  0  0  0  0  0
   -1.1294   -1.1932    0.6912 C   0  0  0  0  0  0  0  0  0  0  0  0
   -1.0013   -0.0289    1.6374 C   0  0  0  0  0  0  0  0  0  0  0  0
   -0.2669    0.7315    0.5752 C   0  0  0  0  0  0  0  0  0  0  0  0
   -1.1768    1.6710   -0.1781 C   0  0  0  0  0  0  0  0  0  0  0  0
    3.7081    1.5369   -1.2484 H   0  0  0  0  0  0  0  0  0  0  0  0
    1.5027   -0.9675    1.3920 H   0  0  0  0  0  0  0  0  0  0  0  0
    1.6308   -2.0347   -0.1093 H   0  0  0  0  0  0  0  0  0  0  0  0
    0.2595   -1.5519   -1.9800 H   0  0  0  0  0  0  0  0  0  0  0  0
   -1.3035   -0.7409   -1.7499 H   0  0  0  0  0  0  0  0  0  0  0  0
    0.0975    0.2593   -2.1427 H   0  0  0  0  0  0  0  0  0  0  0  0
   -2.0823   -1.1389    0.1748 H   0  0  0  0  0  0  0  0  0  0  0  0
   -0.8572   -2.1869    1.0404 H   0  0  0  0  0  0  0  0  0  0  0  0
   -1.9480    0.4253    1.9747 H   0  0  0  0  0  0  0  0  0  0  0  0
   -0.3502   -0.2525    2.5187 H   0  0  0  0  0  0  0  0  0  0  0  0
    0.6335    1.2309    0.9447 H   0  0  0  0  0  0  0  0  0  0  0  0
   -0.8814    1.7516   -1.2505 H   0  0  0  0  0  0  0  0  0  0  0  0
   -1.0309    2.6975    0.2466 H   0  0  0  0  0  0  0  0  0  0  0  0
   -2.2573    1.4496   -0.0925 H   0  0  0  0  0  0  0  0  0  0  0  0
  1  2  3  0
  2  3  1  0
  3  4  1  0
  4  5  1  0
  4  6  1  0
  6  7  1  0
  7  8  1  0
  8  9  1  0
  8  4  1  0
  1 10  1  0
  3 11  1  0
  3 12  1  0
  5 13  1  0
  5 14  1  0
  5 15  1  0
  6 16  1  0
  6 17  1  0
  7 18  1  0
  7 19  1  0
  8 20  1  0
  9 21  1  0
  9 22  1  0
  9 23  1  0
M  END
