
     RDKit          3D

 19 20  0  0  0  0  0  0  0  0999 V2000
    3.0021   -0.4010   -0.5139 C   0  0  0  0  0  0  0  0  0  0  0  0
    1.8440   -0.2383   -0.1815 C   0  0  0  0  0  0  0  0  0  0  0  0
    0.4628   -0.0264    0.2343 C   0  0  0  0  0  0  0  0  0  0  0  0
    0.2069    1.2388    0.9680 C   0  0  0  0  0  0  0  0  0  0  0  0
   -1.1698    1.6152    0.6019 C   0  0  0  0  0  0  0  0  0  0  0  0
   -1.5261    0.9605   -0.4827 C   0  0  0  0  0  0  0  0  0  0  0  0
   -0.4575    0.0679   -0.9868 C   0  0  0  0  0  0  0  0  0  0  0  0
   -0.7245   -1.4114   -0.7727 C   0  0  0  0  0  0  0  0  0  0  0  0
   -0.2612   -1.2628    0.6879 C   0  0  0  0  0  0  0  0  0  0  0  0
    4.0137   -0.5340   -0.7977 H   0  0  0  0  0  0  0  0  0  0  0  0
    0.9599    1.9943    0.6539 H   0  0  0  0  0  0  0  0  0  0  0  0
    0.3371    1.1126    2.0685 H   0  0  0  0  0  0  0  0  0  0  0  0
   -1.8116    2.3477    1.1645 H   0  0  0  0  0  0  0  0  0  0  0  0
   -2.5217    1.0723   -0.9601 H   0  0  0  0  0  0  0  0  0  0  0  0
    0.0252    0.3478   -1.9186 H   0  0  0  0  0  0  0  0  0  0  0  0
    0.0150   -2.0303   -1.3055 H   0  0  0  0  0  0  0  0  0  0  0  0
   -1.7708   -1.7248   -0.8400 H   0  0  0  0  0  0  0  0  0  0  0  0
   -1.0956   -1.0831    1.3856 H   0  0  0  0  0  0  0  0  0  0  0  0
    0.4722   -2.0449    0.9948 H   0  0  0  0  0  0  0  0  0  0  0  0
  1  2  3  0
  2  3  1  0
  3  4  1  0
  4  5  1  0
  5  6  2  0
  6  7  1  0
  7  8  1  0
  8  9  1  0
  7  3  1  0
  9  3  1  0
  1 10  1  0
  4 11  1  0
  4 12  1  0
  5 13  1  0
  6 14  1  0
  7 15  1  0
  8 16  1  0
  8 17  1  0
  9 18  1  0
  9 19  1  0
M  END
