
     RDKit          3D

 17 16  0  0  0  0  0  0  0  0999 V2000
    1.6580   -1.2671    1.8742 C   0  0  0  0  0  0  0  0  0  0  0  0
    0.9802   -0.6742    0.6799 C   0  0  0  0  0  0  0  0  0  0  0  0
    0.4703   -0.2020   -0.2495 C   0  0  0  0  0  0  0  0  0  0  0  0
   -0.9273   -0.8370   -0.8004 C   0  0  0  0  0  0  0  0  0  0  0  0
   -1.9830   -0.7096    0.2834 C   0  0  0  0  0  0  0  0  0  0  0  0
    0.9851    0.5678   -1.3747 O   0  0  0  0  0  0  0  0  0  0  0  0
    1.1245    1.8366   -0.8534 C   0  0  0  0  0  0  0  0  0  0  0  0
    2.0773   -1.6424    2.6462 H   0  0  0  0  0  0  0  0  0  0  0  0
   -0.2069    0.8734    0.1944 H   0  0  0  0  0  0  0  0  0  0  0  0
   -1.1293   -0.4916   -1.7619 H   0  0  0  0  0  0  0  0  0  0  0  0
   -0.6230   -1.9287   -0.7049 H   0  0  0  0  0  0  0  0  0  0  0  0
   -2.8232   -1.3764    0.2645 H   0  0  0  0  0  0  0  0  0  0  0  0
   -2.2422    0.3849    0.2739 H   0  0  0  0  0  0  0  0  0  0  0  0
   -1.4219   -0.8833    1.2346 H   0  0  0  0  0  0  0  0  0  0  0  0
    2.0165    1.5397   -0.0621 H   0  0  0  0  0  0  0  0  0  0  0  0
    0.4152    2.2874   -0.1196 H   0  0  0  0  0  0  0  0  0  0  0  0
    1.6298    2.5063   -1.5246 H   0  0  0  0  0  0  0  0  0  0  0  0
  1  2  3  0
  2  3  1  0
  3  4  1  0
  4  5  1  0
  3  6  1  0
  6  7  1  0
  1  8  1  0
  3  9  1  0
  4 10  1  0
  4 11  1  0
  5 12  1  0
  5 13  1  0
  5 14  1  0
  7 15  1  0
  7 16  1  0
  7 17  1  0
M  END
