
     RDKit          3D

 19 20  0  0  0  0  0  0  0  0999 V2000
    0.6436    2.7776   -1.4722 C   0  0  0  0  0  0  0  0  0  0  0  0
    0.0632    1.7120   -1.5321 C   0  0  0  0  0  0  0  0  0  0  0  0
   -0.6511    0.4424   -1.5881 C   0  0  0  0  0  0  0  0  0  0  0  0
    0.2531   -0.7947   -1.4021 C   0  0  0  0  0  0  0  0  0  0  0  0
   -0.7817   -0.3934   -0.3919 C   0  0  0  0  0  0  0  0  0  0  0  0
   -0.3441    0.0068    0.9661 C   0  0  0  0  0  0  0  0  0  0  0  0
   -0.6269   -1.0891    1.9706 C   0  0  0  0  0  0  0  0  0  0  0  0
    0.6474   -0.9837    2.5189 O   0  0  0  0  0  0  0  0  0  0  0  0
    1.0537   -0.2579    1.3782 C   0  0  0  0  0  0  0  0  0  0  0  0
    1.1666    3.7010   -1.4139 H   0  0  0  0  0  0  0  0  0  0  0  0
   -1.4501    0.3767   -2.3712 H   0  0  0  0  0  0  0  0  0  0  0  0
    0.0589   -1.6177   -2.1006 H   0  0  0  0  0  0  0  0  0  0  0  0
    1.3277   -0.6128   -1.2301 H   0  0  0  0  0  0  0  0  0  0  0  0
   -1.6716   -1.0929   -0.3933 H   0  0  0  0  0  0  0  0  0  0  0  0
   -0.7651    0.9894    1.2530 H   0  0  0  0  0  0  0  0  0  0  0  0
   -0.7743   -2.0967    1.5385 H   0  0  0  0  0  0  0  0  0  0  0  0
   -1.3984   -0.8436    2.7207 H   0  0  0  0  0  0  0  0  0  0  0  0
    1.6810   -0.8900    0.7580 H   0  0  0  0  0  0  0  0  0  0  0  0
    1.5681    0.6666    1.7387 H   0  0  0  0  0  0  0  0  0  0  0  0
  1  2  3  0
  2  3  1  0
  3  4  1  0
  4  5  1  0
  5  6  1  0
  6  7  1  0
  7  8  1  0
  8  9  1  0
  5  3  1  0
  9  6  1  0
  1 10  1  0
  3 11  1  0
  4 12  1  0
  4 13  1  0
  5 14  1  0
  6 15  1  0
  7 16  1  0
  7 17  1  0
  9 18  1  0
  9 19  1  0
M  END
