
     RDKit          3D

 19 20  0  0  0  0  0  0  0  0999 V2000
    2.4964    1.4107   -0.3664 C   0  0  0  0  0  0  0  0  0  0  0  0
    1.8376    0.5375    0.1268 C   0  0  0  0  0  0  0  0  0  0  0  0
    1.0562   -0.5339    0.7351 C   0  0  0  0  0  0  0  0  0  0  0  0
    0.7806   -1.6070   -0.3079 C   0  0  0  0  0  0  0  0  0  0  0  0
   -0.6045   -1.0332   -0.4580 C   0  0  0  0  0  0  0  0  0  0  0  0
   -0.7131   -0.0026   -1.3978 O   0  0  0  0  0  0  0  0  0  0  0  0
   -1.6535    0.8298   -0.7520 C   0  0  0  0  0  0  0  0  0  0  0  0
   -0.9470    1.0390    0.5871 C   0  0  0  0  0  0  0  0  0  0  0  0
   -0.3998   -0.3027    0.8755 C   0  0  0  0  0  0  0  0  0  0  0  0
    3.0890    2.1945   -0.8060 H   0  0  0  0  0  0  0  0  0  0  0  0
    1.5287   -0.9771    1.6374 H   0  0  0  0  0  0  0  0  0  0  0  0
    0.7432   -2.6257    0.1333 H   0  0  0  0  0  0  0  0  0  0  0  0
    1.4272   -1.5763   -1.1820 H   0  0  0  0  0  0  0  0  0  0  0  0
   -1.4384   -1.7330   -0.4312 H   0  0  0  0  0  0  0  0  0  0  0  0
   -2.5609    0.2052   -0.6282 H   0  0  0  0  0  0  0  0  0  0  0  0
   -1.8174    1.7615   -1.2931 H   0  0  0  0  0  0  0  0  0  0  0  0
   -0.2016    1.8230    0.5004 H   0  0  0  0  0  0  0  0  0  0  0  0
   -1.7294    1.3891    1.2923 H   0  0  0  0  0  0  0  0  0  0  0  0
   -0.8932   -0.7988    1.7346 H   0  0  0  0  0  0  0  0  0  0  0  0
  1  2  3  0
  2  3  1  0
  3  4  1  0
  4  5  1  0
  5  6  1  0
  6  7  1  0
  7  8  1  0
  8  9  1  0
  9  3  1  0
  9  5  1  0
  1 10  1  0
  3 11  1  0
  4 12  1  0
  4 13  1  0
  5 14  1  0
  7 15  1  0
  7 16  1  0
  8 17  1  0
  8 18  1  0
  9 19  1  0
M  END
