
     RDKit          3D

 21 21  0  0  0  0  0  0  0  0999 V2000
    3.0732    1.1628   -1.4293 C   0  0  0  0  0  0  0  0  0  0  0  0
    2.1135    0.9229   -0.9191 C   0  0  0  0  0  0  0  0  0  0  0  0
    0.8855    0.6159   -0.2917 C   0  0  0  0  0  0  0  0  0  0  0  0
    0.0733    1.4758    0.2348 C   0  0  0  0  0  0  0  0  0  0  0  0
   -1.2223    1.1842    0.9187 C   0  0  0  0  0  0  0  0  0  0  0  0
   -1.4325   -0.2705    1.2194 C   0  0  0  0  0  0  0  0  0  0  0  0
   -0.1744   -1.1009    1.0406 C   0  0  0  0  0  0  0  0  0  0  0  0
    0.4765   -0.8433   -0.2654 C   0  0  0  0  0  0  0  0  0  0  0  0
   -0.4244   -1.1603   -1.4298 C   0  0  0  0  0  0  0  0  0  0  0  0
    4.1133    1.4445   -1.9905 H   0  0  0  0  0  0  0  0  0  0  0  0
    0.3133    2.5373    0.1663 H   0  0  0  0  0  0  0  0  0  0  0  0
   -2.0647    1.6891    0.4962 H   0  0  0  0  0  0  0  0  0  0  0  0
   -1.0671    1.6939    1.9457 H   0  0  0  0  0  0  0  0  0  0  0  0
   -2.2341   -0.6958    0.6009 H   0  0  0  0  0  0  0  0  0  0  0  0
   -1.7399   -0.3929    2.2688 H   0  0  0  0  0  0  0  0  0  0  0  0
    0.5047   -0.8492    1.8664 H   0  0  0  0  0  0  0  0  0  0  0  0
   -0.5019   -2.1698    1.1492 H   0  0  0  0  0  0  0  0  0  0  0  0
    1.3808   -1.4568   -0.4082 H   0  0  0  0  0  0  0  0  0  0  0  0
   -1.4181   -1.4524   -1.0510 H   0  0  0  0  0  0  0  0  0  0  0  0
   -0.0754   -2.0439   -2.0148 H   0  0  0  0  0  0  0  0  0  0  0  0
   -0.5795   -0.2907   -2.1071 H   0  0  0  0  0  0  0  0  0  0  0  0
  1  2  3  0
  2  3  1  0
  3  4  2  0
  4  5  1  0
  5  6  1  0
  6  7  1  0
  7  8  1  0
  8  9  1  0
  8  3  1  0
  1 10  1  0
  4 11  1  0
  5 12  1  0
  5 13  1  0
  6 14  1  0
  6 15  1  0
  7 16  1  0
  7 17  1  0
  8 18  1  0
  9 19  1  0
  9 20  1  0
  9 21  1  0
M  END
