
     RDKit          3D

 15 15  0  0  0  0  0  0  0  0999 V2000
    2.7464    0.7761    0.6096 C   0  0  0  0  0  0  0  0  0  0  0  0
    1.6710    0.3968    0.2158 C   0  0  0  0  0  0  0  0  0  0  0  0
    0.3648   -0.0432   -0.2770 C   0  0  0  0  0  0  0  0  0  0  0  0
    0.4713   -0.2532   -1.7647 C   0  0  0  0  0  0  0  0  0  0  0  0
    0.7622    0.6810   -2.4918 O   0  0  0  0  0  0  0  0  0  0  0  0
   -0.6510    0.9480    0.0816 C   0  0  0  0  0  0  0  0  0  0  0  0
   -1.6214    0.3215    0.7297 C   0  0  0  0  0  0  0  0  0  0  0  0
   -1.2679   -1.1120    0.8163 C   0  0  0  0  0  0  0  0  0  0  0  0
    0.0249   -1.2354    0.3498 O   0  0  0  0  0  0  0  0  0  0  0  0
    3.7094    1.1244    0.9456 H   0  0  0  0  0  0  0  0  0  0  0  0
    0.3009   -1.2013   -2.2269 H   0  0  0  0  0  0  0  0  0  0  0  0
   -0.6368    2.0044   -0.1312 H   0  0  0  0  0  0  0  0  0  0  0  0
   -2.5253    0.7510    1.1367 H   0  0  0  0  0  0  0  0  0  0  0  0
   -1.3835   -1.4911    1.8496 H   0  0  0  0  0  0  0  0  0  0  0  0
   -1.9651   -1.6671    0.1566 H   0  0  0  0  0  0  0  0  0  0  0  0
  1  2  3  0
  2  3  1  0
  3  4  1  0
  4  5  2  0
  3  6  1  0
  6  7  2  0
  7  8  1  0
  8  9  1  0
  9  3  1  0
  1 10  1  0
  4 11  1  0
  6 12  1  0
  7 13  1  0
  8 14  1  0
  8 15  1  0
M  END
