
     RDKit          3D

 17 18  0  0  0  0  0  0  0  0999 V2000
    0.7047    1.0748    2.6700 C   0  0  0  0  0  0  0  0  0  0  0  0
    0.9550    0.7688    1.5115 C   0  0  0  0  0  0  0  0  0  0  0  0
    1.2654    0.3813    0.1332 C   0  0  0  0  0  0  0  0  0  0  0  0
    2.6532    0.3650   -0.1092 O   0  0  0  0  0  0  0  0  0  0  0  0
    0.3859    0.9303   -0.9145 C   0  0  0  0  0  0  0  0  0  0  0  0
   -0.9775    0.9757   -0.5726 O   0  0  0  0  0  0  0  0  0  0  0  0
   -1.0174   -0.3671   -0.8849 C   0  0  0  0  0  0  0  0  0  0  0  0
   -1.9040   -1.2402   -0.0804 C   0  0  0  0  0  0  0  0  0  0  0  0
    0.4339   -0.5787   -0.5800 C   0  0  0  0  0  0  0  0  0  0  0  0
    0.5001    1.3537    3.6717 H   0  0  0  0  0  0  0  0  0  0  0  0
    3.0481    1.2695   -0.0223 H   0  0  0  0  0  0  0  0  0  0  0  0
    0.7134    1.2204   -1.9087 H   0  0  0  0  0  0  0  0  0  0  0  0
   -1.2327   -0.4726   -1.9877 H   0  0  0  0  0  0  0  0  0  0  0  0
   -1.4405   -2.2091    0.1765 H   0  0  0  0  0  0  0  0  0  0  0  0
   -2.2237   -0.7644    0.8685 H   0  0  0  0  0  0  0  0  0  0  0  0
   -2.8216   -1.4723   -0.6592 H   0  0  0  0  0  0  0  0  0  0  0  0
    0.9578   -1.2351   -1.3120 H   0  0  0  0  0  0  0  0  0  0  0  0
  1  2  3  0
  2  3  1  0
  3  4  1  0
  3  5  1  0
  5  6  1  0
  6  7  1  0
  7  8  1  0
  7  9  1  0
  9  3  1  0
  9  5  1  0
  1 10  1  0
  4 11  1  0
  5 12  1  0
  7 13  1  0
  8 14  1  0
  8 15  1  0
  8 16  1  0
  9 17  1  0
M  END
