
     RDKit          3D

 13 14  0  0  0  0  0  0  0  0999 V2000
    2.6650   -0.8229   -1.0771 C   0  0  0  0  0  0  0  0  0  0  0  0
    1.2398   -0.8317   -0.7306 C   0  0  0  0  0  0  0  0  0  0  0  0
    0.0925   -0.8548   -0.4651 C   0  0  0  0  0  0  0  0  0  0  0  0
   -0.6867    0.2358   -1.2593 O   0  0  0  0  0  0  0  0  0  0  0  0
   -1.2559    1.2144   -0.5912 C   0  0  0  0  0  0  0  0  0  0  0  0
   -1.7638    2.3395   -0.6235 O   0  0  0  0  0  0  0  0  0  0  0  0
   -1.2483    0.6412    0.8899 C   0  0  0  0  0  0  0  0  0  0  0  0
   -0.0413    1.0843    1.3925 O   0  0  0  0  0  0  0  0  0  0  0  0
   -0.0922   -0.1710    0.9963 C   0  0  0  0  0  0  0  0  0  0  0  0
    3.6784   -0.8202   -1.3420 H   0  0  0  0  0  0  0  0  0  0  0  0
   -0.5610   -1.6474   -0.2942 H   0  0  0  0  0  0  0  0  0  0  0  0
   -2.1976    0.5456    1.3447 H   0  0  0  0  0  0  0  0  0  0  0  0
    0.1711   -0.9129    1.7595 H   0  0  0  0  0  0  0  0  0  0  0  0
  1  2  3  0
  2  3  1  0
  3  4  1  0
  4  5  1  0
  5  6  2  0
  5  7  1  0
  7  8  1  0
  8  9  1  0
  9  3  1  0
  9  7  1  0
  1 10  1  0
  3 11  1  0
  7 12  1  0
  9 13  1  0
M  END
