
     RDKit          3D

 21 21  0  0  0  0  0  0  0  0999 V2000
    3.6673    0.7123   -0.4117 C   0  0  0  0  0  0  0  0  0  0  0  0
    2.7206   -0.0291   -0.3291 C   0  0  0  0  0  0  0  0  0  0  0  0
    1.5633   -0.9388   -0.2025 C   0  0  0  0  0  0  0  0  0  0  0  0
    0.3312   -0.2705   -0.7110 C   0  0  0  0  0  0  0  0  0  0  0  0
   -0.1066    0.9982   -0.0444 C   0  0  0  0  0  0  0  0  0  0  0  0
   -0.5770    2.0274   -0.8664 O   0  0  0  0  0  0  0  0  0  0  0  0
   -0.9474   -0.2883    0.0134 C   0  0  0  0  0  0  0  0  0  0  0  0
   -2.2295   -0.2476   -0.7910 C   0  0  0  0  0  0  0  0  0  0  0  0
   -1.1005   -0.8398    1.3926 C   0  0  0  0  0  0  0  0  0  0  0  0
    4.5065    1.3807   -0.4708 H   0  0  0  0  0  0  0  0  0  0  0  0
    1.4825   -1.3112    0.8369 H   0  0  0  0  0  0  0  0  0  0  0  0
    1.8022   -1.8228   -0.8297 H   0  0  0  0  0  0  0  0  0  0  0  0
    0.2506   -0.2686   -1.8294 H   0  0  0  0  0  0  0  0  0  0  0  0
    0.4134    1.3201    0.8725 H   0  0  0  0  0  0  0  0  0  0  0  0
   -0.6530    2.8614   -0.3655 H   0  0  0  0  0  0  0  0  0  0  0  0
   -2.0341    0.4390   -1.6569 H   0  0  0  0  0  0  0  0  0  0  0  0
   -3.0628    0.2348   -0.2107 H   0  0  0  0  0  0  0  0  0  0  0  0
   -2.5537   -1.2292   -1.1505 H   0  0  0  0  0  0  0  0  0  0  0  0
   -0.1297   -0.7724    1.9647 H   0  0  0  0  0  0  0  0  0  0  0  0
   -1.5614   -1.8232    1.4415 H   0  0  0  0  0  0  0  0  0  0  0  0
   -1.7820   -0.1325    1.9505 H   0  0  0  0  0  0  0  0  0  0  0  0
  1  2  3  0
  2  3  1  0
  3  4  1  0
  4  5  1  0
  5  6  1  0
  5  7  1  0
  7  8  1  0
  7  9  1  0
  7  4  1  0
  1 10  1  0
  3 11  1  0
  3 12  1  0
  4 13  1  0
  5 14  1  0
  6 15  1  0
  8 16  1  0
  8 17  1  0
  8 18  1  0
  9 19  1  0
  9 20  1  0
  9 21  1  0
M  END
