
     RDKit          3D

 21 22  0  0  0  0  0  0  0  0999 V2000
    3.5261    0.9817    0.9488 C   0  0  0  0  0  0  0  0  0  0  0  0
    2.3168    0.3972    0.4270 C   0  0  0  0  0  0  0  0  0  0  0  0
    1.1423   -0.1950   -0.0871 C   0  0  0  0  0  0  0  0  0  0  0  0
    1.1687   -1.7137    0.5560 C   0  0  0  0  0  0  0  0  0  0  0  0
    0.2352    0.0536   -1.0518 C   0  0  0  0  0  0  0  0  0  0  0  0
   -1.1732   -0.8006   -0.8102 C   0  0  0  0  0  0  0  0  0  0  0  0
   -1.4890    0.0857    0.3556 C   0  0  0  0  0  0  0  0  0  0  0  0
   -2.3141    1.3250   -0.2421 C   0  0  0  0  0  0  0  0  0  0  0  0
   -0.0556    0.5974    0.2961 C   0  0  0  0  0  0  0  0  0  0  0  0
    4.3848    1.4010    1.3015 H   0  0  0  0  0  0  0  0  0  0  0  0
    1.4329   -2.4073   -0.2396 H   0  0  0  0  0  0  0  0  0  0  0  0
    2.0227   -1.7931    1.3018 H   0  0  0  0  0  0  0  0  0  0  0  0
    0.2432   -1.9284    1.1230 H   0  0  0  0  0  0  0  0  0  0  0  0
    0.3042    0.1598   -2.0461 H   0  0  0  0  0  0  0  0  0  0  0  0
   -0.9797   -1.8375   -0.7864 H   0  0  0  0  0  0  0  0  0  0  0  0
   -1.8043   -0.4642   -1.7272 H   0  0  0  0  0  0  0  0  0  0  0  0
   -1.9358   -0.2929    1.1860 H   0  0  0  0  0  0  0  0  0  0  0  0
   -2.1877    1.2700   -1.3075 H   0  0  0  0  0  0  0  0  0  0  0  0
   -3.2762    1.2904    0.1941 H   0  0  0  0  0  0  0  0  0  0  0  0
   -1.6627    2.1885    0.1091 H   0  0  0  0  0  0  0  0  0  0  0  0
    0.1013    1.6825    0.4990 H   0  0  0  0  0  0  0  0  0  0  0  0
  1  2  3  0
  2  3  1  0
  3  4  1  0
  3  5  1  0
  5  6  1  0
  6  7  1  0
  7  8  1  0
  7  9  1  0
  9  3  1  0
  9  5  1  0
  1 10  1  0
  4 11  1  0
  4 12  1  0
  4 13  1  0
  5 14  1  0
  6 15  1  0
  6 16  1  0
  7 17  1  0
  8 18  1  0
  8 19  1  0
  8 20  1  0
  9 21  1  0
M  END
