
     RDKit          3D

 19 20  0  0  0  0  0  0  0  0999 V2000
   -1.1892    3.2430    0.9157 C   0  0  0  0  0  0  0  0  0  0  0  0
   -0.8746    2.0909    0.8369 C   0  0  0  0  0  0  0  0  0  0  0  0
   -0.4797    0.6882    0.7177 C   0  0  0  0  0  0  0  0  0  0  0  0
   -1.6536   -0.0704    0.1077 C   0  0  0  0  0  0  0  0  0  0  0  0
   -0.3603   -0.5759    0.1409 C   0  0  0  0  0  0  0  0  0  0  0  0
    0.1979   -1.7335    0.9412 C   0  0  0  0  0  0  0  0  0  0  0  0
    0.5492    0.0158   -0.9469 C   0  0  0  0  0  0  0  0  0  0  0  0
    1.7729   -0.7620   -1.3001 C   0  0  0  0  0  0  0  0  0  0  0  0
    0.8341    0.9131    0.0362 O   0  0  0  0  0  0  0  0  0  0  0  0
   -1.4897    4.3394    0.9918 H   0  0  0  0  0  0  0  0  0  0  0  0
   -2.5196   -0.0896    0.7894 H   0  0  0  0  0  0  0  0  0  0  0  0
   -2.0800    0.3746   -0.9025 H   0  0  0  0  0  0  0  0  0  0  0  0
    0.4159   -1.3682    1.9919 H   0  0  0  0  0  0  0  0  0  0  0  0
    1.0954   -2.1249    0.5046 H   0  0  0  0  0  0  0  0  0  0  0  0
   -0.5671   -2.5237    1.0736 H   0  0  0  0  0  0  0  0  0  0  0  0
   -0.0235    0.3964   -1.8280 H   0  0  0  0  0  0  0  0  0  0  0  0
    2.4377   -0.1690   -1.9950 H   0  0  0  0  0  0  0  0  0  0  0  0
    1.5616   -1.7434   -1.7184 H   0  0  0  0  0  0  0  0  0  0  0  0
    2.3728   -0.9010   -0.3569 H   0  0  0  0  0  0  0  0  0  0  0  0
  1  2  3  0
  2  3  1  0
  3  4  1  0
  4  5  1  0
  5  6  1  0
  5  7  1  0
  7  8  1  0
  7  9  1  0
  5  3  1  0
  9  3  1  0
  1 10  1  0
  4 11  1  0
  4 12  1  0
  6 13  1  0
  6 14  1  0
  6 15  1  0
  7 16  1  0
  8 17  1  0
  8 18  1  0
  8 19  1  0
M  END
