
     RDKit          3D

 13 13  0  0  0  0  0  0  0  0999 V2000
    3.8985    0.8240   -0.4973 C   0  0  0  0  0  0  0  0  0  0  0  0
    2.9976   -0.0228   -0.2936 C   0  0  0  0  0  0  0  0  0  0  0  0
    1.9778   -1.0105   -0.0657 C   0  0  0  0  0  0  0  0  0  0  0  0
    2.2854   -2.1799    0.1762 O   0  0  0  0  0  0  0  0  0  0  0  0
    0.5851   -0.5585   -0.1368 C   0  0  0  0  0  0  0  0  0  0  0  0
   -0.5751   -0.1598   -0.1920 C   0  0  0  0  0  0  0  0  0  0  0  0
   -1.9569    0.3085   -0.2452 C   0  0  0  0  0  0  0  0  0  0  0  0
   -2.8068    0.1685    0.9692 C   0  0  0  0  0  0  0  0  0  0  0  0
   -2.3287    1.3995    0.5685 O   0  0  0  0  0  0  0  0  0  0  0  0
    4.6315    1.5318   -0.6533 H   0  0  0  0  0  0  0  0  0  0  0  0
   -2.5181    0.1359   -1.2003 H   0  0  0  0  0  0  0  0  0  0  0  0
   -3.8763   -0.0794    0.8716 H   0  0  0  0  0  0  0  0  0  0  0  0
   -2.3141   -0.3573    1.8259 H   0  0  0  0  0  0  0  0  0  0  0  0
  1  2  3  0
  2  3  1  0
  3  4  2  0
  3  5  1  0
  5  6  3  0
  6  7  1  0
  7  8  1  0
  8  9  1  0
  9  7  1  0
  1 10  1  0
  7 11  1  0
  8 12  1  0
  8 13  1  0
M  END
