
     RDKit          3D

 21 20  0  0  0  0  0  0  0  0999 V2000
   -2.5234    1.8646   -0.0168 C   0  0  0  0  0  0  0  0  0  0  0  0
   -2.0625    0.8190    0.3642 C   0  0  0  0  0  0  0  0  0  0  0  0
   -1.4819   -0.4450    0.8132 C   0  0  0  0  0  0  0  0  0  0  0  0
   -2.0665   -1.5658    0.0116 C   0  0  0  0  0  0  0  0  0  0  0  0
    0.0074   -0.4443    0.8593 C   0  0  0  0  0  0  0  0  0  0  0  0
    0.6488   -0.1839   -0.4351 C   0  0  0  0  0  0  0  0  0  0  0  0
   -0.0538    0.0104   -1.4101 O   0  0  0  0  0  0  0  0  0  0  0  0
    2.1076   -0.1486   -0.6016 C   0  0  0  0  0  0  0  0  0  0  0  0
    2.6993    1.2208   -0.6792 C   0  0  0  0  0  0  0  0  0  0  0  0
   -2.9259    2.8009   -0.3738 H   0  0  0  0  0  0  0  0  0  0  0  0
   -1.8409   -0.5832    1.8713 H   0  0  0  0  0  0  0  0  0  0  0  0
   -1.7360   -2.5448    0.3897 H   0  0  0  0  0  0  0  0  0  0  0  0
   -3.1805   -1.5147    0.1392 H   0  0  0  0  0  0  0  0  0  0  0  0
   -1.8714   -1.5221   -1.0543 H   0  0  0  0  0  0  0  0  0  0  0  0
    0.3250   -1.4526    1.2104 H   0  0  0  0  0  0  0  0  0  0  0  0
    0.3225    0.2931    1.6507 H   0  0  0  0  0  0  0  0  0  0  0  0
    2.5593   -0.7705    0.2126 H   0  0  0  0  0  0  0  0  0  0  0  0
    2.4084   -0.6899   -1.5466 H   0  0  0  0  0  0  0  0  0  0  0  0
    2.7960    1.6010   -1.7176 H   0  0  0  0  0  0  0  0  0  0  0  0
    2.1300    1.9956   -0.1249 H   0  0  0  0  0  0  0  0  0  0  0  0
    3.7385    1.2602   -0.2485 H   0  0  0  0  0  0  0  0  0  0  0  0
  1  2  3  0
  2  3  1  0
  3  4  1  0
  3  5  1  0
  5  6  1  0
  6  7  2  0
  6  8  1  0
  8  9  1  0
  1 10  1  0
  3 11  1  0
  4 12  1  0
  4 13  1  0
  4 14  1  0
  5 15  1  0
  5 16  1  0
  8 17  1  0
  8 18  1  0
  9 19  1  0
  9 20  1  0
  9 21  1  0
M  END
