
     RDKit          3D

 23 23  0  0  0  0  0  0  0  0999 V2000
    3.2119   -0.3232   -1.3322 C   0  0  0  0  0  0  0  0  0  0  0  0
    2.0640    0.0490   -1.2431 C   0  0  0  0  0  0  0  0  0  0  0  0
    0.6826    0.5231   -1.1334 C   0  0  0  0  0  0  0  0  0  0  0  0
   -0.0001   -0.3225   -0.0678 C   0  0  0  0  0  0  0  0  0  0  0  0
    0.0296   -1.7836   -0.4790 C   0  0  0  0  0  0  0  0  0  0  0  0
    0.7804   -0.1341    1.2093 C   0  0  0  0  0  0  0  0  0  0  0  0
   -1.4127    0.1391    0.0249 C   0  0  0  0  0  0  0  0  0  0  0  0
   -1.5657    1.6235    0.4119 C   0  0  0  0  0  0  0  0  0  0  0  0
   -2.0620    0.5323    1.2863 C   0  0  0  0  0  0  0  0  0  0  0  0
    4.2286   -0.6351   -1.4172 H   0  0  0  0  0  0  0  0  0  0  0  0
    0.1497    0.4014   -2.1174 H   0  0  0  0  0  0  0  0  0  0  0  0
    0.6206    1.5825   -0.8547 H   0  0  0  0  0  0  0  0  0  0  0  0
    0.0507   -1.8238   -1.5919 H   0  0  0  0  0  0  0  0  0  0  0  0
    0.9027   -2.3123   -0.0785 H   0  0  0  0  0  0  0  0  0  0  0  0
   -0.9351   -2.2480   -0.1774 H   0  0  0  0  0  0  0  0  0  0  0  0
    0.5134   -0.8545    1.9958 H   0  0  0  0  0  0  0  0  0  0  0  0
    0.6628    0.8992    1.5919 H   0  0  0  0  0  0  0  0  0  0  0  0
    1.8642   -0.2648    1.0085 H   0  0  0  0  0  0  0  0  0  0  0  0
   -2.0537   -0.2006   -0.8266 H   0  0  0  0  0  0  0  0  0  0  0  0
   -2.2697    2.2096   -0.2153 H   0  0  0  0  0  0  0  0  0  0  0  0
   -0.6907    2.1719    0.7509 H   0  0  0  0  0  0  0  0  0  0  0  0
   -1.6009    0.3671    2.2774 H   0  0  0  0  0  0  0  0  0  0  0  0
   -3.1702    0.4039    1.3174 H   0  0  0  0  0  0  0  0  0  0  0  0
  1  2  3  0
  2  3  1  0
  3  4  1  0
  4  5  1  0
  4  6  1  0
  4  7  1  0
  7  8  1  0
  8  9  1  0
  9  7  1  0
  1 10  1  0
  3 11  1  0
  3 12  1  0
  5 13  1  0
  5 14  1  0
  5 15  1  0
  6 16  1  0
  6 17  1  0
  6 18  1  0
  7 19  1  0
  8 20  1  0
  8 21  1  0
  9 22  1  0
  9 23  1  0
M  END
