
     RDKit          3D

 21 21  0  0  0  0  0  0  0  0999 V2000
   -2.6979    2.4094   -0.6296 C   0  0  0  0  0  0  0  0  0  0  0  0
   -2.1444    1.3996   -0.2598 C   0  0  0  0  0  0  0  0  0  0  0  0
   -1.4648    0.2070    0.1919 C   0  0  0  0  0  0  0  0  0  0  0  0
   -2.2806   -0.4625    1.2912 C   0  0  0  0  0  0  0  0  0  0  0  0
   -0.1757    0.4513    0.6533 O   0  0  0  0  0  0  0  0  0  0  0  0
    0.6962   -0.2870   -0.1261 C   0  0  0  0  0  0  0  0  0  0  0  0
    1.7366   -1.0807    0.6389 C   0  0  0  0  0  0  0  0  0  0  0  0
    2.7177   -0.7050   -0.4622 C   0  0  0  0  0  0  0  0  0  0  0  0
    1.8663    0.5333   -0.6870 C   0  0  0  0  0  0  0  0  0  0  0  0
   -3.2049    3.2970   -0.9619 H   0  0  0  0  0  0  0  0  0  0  0  0
   -1.4684   -0.5119   -0.6768 H   0  0  0  0  0  0  0  0  0  0  0  0
   -3.2291   -0.8600    0.8270 H   0  0  0  0  0  0  0  0  0  0  0  0
   -2.5016    0.3130    2.0597 H   0  0  0  0  0  0  0  0  0  0  0  0
   -1.7503   -1.3241    1.7228 H   0  0  0  0  0  0  0  0  0  0  0  0
    0.2173   -0.8956   -0.9232 H   0  0  0  0  0  0  0  0  0  0  0  0
    1.5355   -2.1645    0.7297 H   0  0  0  0  0  0  0  0  0  0  0  0
    1.9517   -0.5649    1.6049 H   0  0  0  0  0  0  0  0  0  0  0  0
    3.7463   -0.5004   -0.1244 H   0  0  0  0  0  0  0  0  0  0  0  0
    2.6274   -1.4220   -1.3133 H   0  0  0  0  0  0  0  0  0  0  0  0
    1.7256    0.8196   -1.7457 H   0  0  0  0  0  0  0  0  0  0  0  0
    2.0973    1.3485    0.0134 H   0  0  0  0  0  0  0  0  0  0  0  0
  1  2  3  0
  2  3  1  0
  3  4  1  0
  3  5  1  0
  5  6  1  0
  6  7  1  0
  7  8  1  0
  8  9  1  0
  9  6  1  0
  1 10  1  0
  3 11  1  0
  4 12  1  0
  4 13  1  0
  4 14  1  0
  6 15  1  0
  7 16  1  0
  7 17  1  0
  8 18  1  0
  8 19  1  0
  9 20  1  0
  9 21  1  0
M  END
