
     RDKit          3D

 19 19  0  0  0  0  0  0  0  0999 V2000
    1.3566    2.1707    0.7811 C   0  0  0  0  0  0  0  0  0  0  0  0
    1.1835    0.9225    0.2639 C   0  0  0  0  0  0  0  0  0  0  0  0
    1.0156   -0.3789   -0.2849 C   0  0  0  0  0  0  0  0  0  0  0  0
    2.1123   -0.9472   -0.8262 O   0  0  0  0  0  0  0  0  0  0  0  0
   -0.2293   -0.5238   -1.2137 C   0  0  0  0  0  0  0  0  0  0  0  0
   -1.3241    0.4419   -1.1518 C   0  0  0  0  0  0  0  0  0  0  0  0
   -0.5828   -1.6489   -0.3860 O   0  0  0  0  0  0  0  0  0  0  0  0
    0.1816   -1.1757    0.6965 C   0  0  0  0  0  0  0  0  0  0  0  0
   -0.6091   -0.2493    1.6293 C   0  0  0  0  0  0  0  0  0  0  0  0
    1.4786    3.0858    1.1754 H   0  0  0  0  0  0  0  0  0  0  0  0
    2.3063   -0.6262   -1.7869 H   0  0  0  0  0  0  0  0  0  0  0  0
    0.0859   -0.8600   -2.2284 H   0  0  0  0  0  0  0  0  0  0  0  0
   -1.7169    0.6546   -2.2150 H   0  0  0  0  0  0  0  0  0  0  0  0
   -2.2690   -0.0710   -0.7237 H   0  0  0  0  0  0  0  0  0  0  0  0
   -1.1686    1.4229   -0.6845 H   0  0  0  0  0  0  0  0  0  0  0  0
    0.6620   -1.9231    1.2692 H   0  0  0  0  0  0  0  0  0  0  0  0
   -1.6809   -0.2684    1.3130 H   0  0  0  0  0  0  0  0  0  0  0  0
   -0.1808    0.7521    1.7398 H   0  0  0  0  0  0  0  0  0  0  0  0
   -0.6209   -0.7782    2.6330 H   0  0  0  0  0  0  0  0  0  0  0  0
  1  2  3  0
  2  3  1  0
  3  4  1  0
  3  5  1  0
  5  6  1  0
  5  7  1  0
  7  8  1  0
  8  9  1  0
  8  3  1  0
  1 10  1  0
  4 11  1  0
  5 12  1  0
  6 13  1  0
  6 14  1  0
  6 15  1  0
  8 16  1  0
  9 17  1  0
  9 18  1  0
  9 19  1  0
M  END
