
     RDKit          3D

  6  5  0  0  0  0  0  0  0  0999 V2000
    1.3081    0.6511   -0.9689 C   0  0  0  0  0  0  0  0  0  0  0  0
    0.2705    0.1538   -0.6078 C   0  0  0  0  0  0  0  0  0  0  0  0
   -0.9604   -0.4556   -0.1934 C   0  0  0  0  0  0  0  0  0  0  0  0
   -1.0111   -0.8988    0.9830 O   0  0  0  0  0  0  0  0  0  0  0  0
    2.2234    1.1089   -1.2978 H   0  0  0  0  0  0  0  0  0  0  0  0
   -1.8304   -0.5594   -0.8071 H   0  0  0  0  0  0  0  0  0  0  0  0
  1  2  3  0
  2  3  1  0
  3  4  2  0
  1  5  1  0
  3  6  1  0
M  END
