
     RDKit          3D

 19 19  0  0  0  0  0  0  0  0999 V2000
    2.8449   -1.5944    0.2273 C   0  0  0  0  0  0  0  0  0  0  0  0
    1.9739   -0.7640    0.1861 C   0  0  0  0  0  0  0  0  0  0  0  0
    0.9004    0.2287    0.1294 C   0  0  0  0  0  0  0  0  0  0  0  0
    0.9953    1.4690   -0.2993 C   0  0  0  0  0  0  0  0  0  0  0  0
   -0.3332    2.1751   -0.2009 C   0  0  0  0  0  0  0  0  0  0  0  0
   -1.2719    0.9520   -0.2840 C   0  0  0  0  0  0  0  0  0  0  0  0
   -0.4866   -0.0086    0.5688 C   0  0  0  0  0  0  0  0  0  0  0  0
   -0.8860   -1.4476    0.3438 C   0  0  0  0  0  0  0  0  0  0  0  0
   -0.8103   -1.8041   -0.9741 O   0  0  0  0  0  0  0  0  0  0  0  0
    3.6061   -2.3270    0.2607 H   0  0  0  0  0  0  0  0  0  0  0  0
    1.9337    1.8820   -0.6667 H   0  0  0  0  0  0  0  0  0  0  0  0
   -0.4467    2.7147    0.7378 H   0  0  0  0  0  0  0  0  0  0  0  0
   -0.4981    2.8688   -1.0321 H   0  0  0  0  0  0  0  0  0  0  0  0
   -1.2475    0.5715   -1.3180 H   0  0  0  0  0  0  0  0  0  0  0  0
   -2.2649    1.1880    0.0930 H   0  0  0  0  0  0  0  0  0  0  0  0
   -0.6324    0.2254    1.6486 H   0  0  0  0  0  0  0  0  0  0  0  0
   -0.1995   -2.0690    0.9615 H   0  0  0  0  0  0  0  0  0  0  0  0
   -1.9053   -1.5888    0.7879 H   0  0  0  0  0  0  0  0  0  0  0  0
   -1.2720   -2.6716   -1.1011 H   0  0  0  0  0  0  0  0  0  0  0  0
  1  2  3  0
  2  3  1  0
  3  4  2  0
  4  5  1  0
  5  6  1  0
  6  7  1  0
  7  8  1  0
  8  9  1  0
  7  3  1  0
  1 10  1  0
  4 11  1  0
  5 12  1  0
  5 13  1  0
  6 14  1  0
  6 15  1  0
  7 16  1  0
  8 17  1  0
  8 18  1  0
  9 19  1  0
M  END
