
     RDKit          3D

 19 18  0  0  0  0  0  0  0  0999 V2000
    3.7555    1.5704    1.3418 C   0  0  0  0  0  0  0  0  0  0  0  0
    3.1994    0.4302    1.1345 C   0  0  0  0  0  0  0  0  0  0  0  0
    2.5780   -0.8515    0.8885 C   0  0  0  0  0  0  0  0  0  0  0  0
    3.3963   -1.6168   -0.0028 O   0  0  0  0  0  0  0  0  0  0  0  0
    1.2949   -0.5777    0.2514 C   0  0  0  0  0  0  0  0  0  0  0  0
    0.2399   -0.3322   -0.2797 C   0  0  0  0  0  0  0  0  0  0  0  0
   -1.0460   -0.0065   -0.9276 C   0  0  0  0  0  0  0  0  0  0  0  0
   -2.1331    0.3153    0.0815 C   0  0  0  0  0  0  0  0  0  0  0  0
   -3.4337    0.6447   -0.6460 C   0  0  0  0  0  0  0  0  0  0  0  0
    4.1874    2.4389    1.4847 H   0  0  0  0  0  0  0  0  0  0  0  0
    2.4524   -1.4258    1.8307 H   0  0  0  0  0  0  0  0  0  0  0  0
    2.8624   -1.7705   -0.8241 H   0  0  0  0  0  0  0  0  0  0  0  0
   -0.8527    0.9136   -1.5306 H   0  0  0  0  0  0  0  0  0  0  0  0
   -1.3420   -0.8663   -1.5659 H   0  0  0  0  0  0  0  0  0  0  0  0
   -1.8347    1.1972    0.6753 H   0  0  0  0  0  0  0  0  0  0  0  0
   -2.2307   -0.5450    0.7595 H   0  0  0  0  0  0  0  0  0  0  0  0
   -4.0669    1.3292   -0.0919 H   0  0  0  0  0  0  0  0  0  0  0  0
   -3.1281    1.2092   -1.5788 H   0  0  0  0  0  0  0  0  0  0  0  0
   -3.8985   -0.2856   -1.0004 H   0  0  0  0  0  0  0  0  0  0  0  0
  1  2  3  0
  2  3  1  0
  3  4  1  0
  3  5  1  0
  5  6  3  0
  6  7  1  0
  7  8  1  0
  8  9  1  0
  1 10  1  0
  3 11  1  0
  4 12  1  0
  7 13  1  0
  7 14  1  0
  8 15  1  0
  8 16  1  0
  9 17  1  0
  9 18  1  0
  9 19  1  0
M  END
