
     RDKit          3D

 23 22  0  0  0  0  0  0  0  0999 V2000
    0.3335   -2.8980   -1.3110 C   0  0  0  0  0  0  0  0  0  0  0  0
    0.1167   -1.7820   -0.8797 C   0  0  0  0  0  0  0  0  0  0  0  0
   -0.1696   -0.4361   -0.3541 C   0  0  0  0  0  0  0  0  0  0  0  0
   -1.2140   -0.5644    0.7158 C   0  0  0  0  0  0  0  0  0  0  0  0
   -1.5905    0.7476    1.3300 C   0  0  0  0  0  0  0  0  0  0  0  0
   -2.1418    1.6740    0.2724 C   0  0  0  0  0  0  0  0  0  0  0  0
    1.1277    0.0768    0.2379 C   0  0  0  0  0  0  0  0  0  0  0  0
    2.2109    0.1406   -0.8245 C   0  0  0  0  0  0  0  0  0  0  0  0
    3.4045    0.6120   -0.2817 O   0  0  0  0  0  0  0  0  0  0  0  0
    0.5294   -3.8722   -1.6768 H   0  0  0  0  0  0  0  0  0  0  0  0
   -0.4796    0.1733   -1.2034 H   0  0  0  0  0  0  0  0  0  0  0  0
   -0.8567   -1.2897    1.4543 H   0  0  0  0  0  0  0  0  0  0  0  0
   -2.1127   -1.0290    0.2323 H   0  0  0  0  0  0  0  0  0  0  0  0
   -0.7293    1.1992    1.8414 H   0  0  0  0  0  0  0  0  0  0  0  0
   -2.4132    0.5388    2.0635 H   0  0  0  0  0  0  0  0  0  0  0  0
   -2.6955    2.4649    0.7802 H   0  0  0  0  0  0  0  0  0  0  0  0
   -2.8772    1.1119   -0.3513 H   0  0  0  0  0  0  0  0  0  0  0  0
   -1.2953    2.0566   -0.3301 H   0  0  0  0  0  0  0  0  0  0  0  0
    1.5036   -0.6163    1.0188 H   0  0  0  0  0  0  0  0  0  0  0  0
    1.0099    1.0700    0.6997 H   0  0  0  0  0  0  0  0  0  0  0  0
    2.3372   -0.8515   -1.3056 H   0  0  0  0  0  0  0  0  0  0  0  0
    1.9307    0.8444   -1.6335 H   0  0  0  0  0  0  0  0  0  0  0  0
    4.0711    0.6290   -1.0154 H   0  0  0  0  0  0  0  0  0  0  0  0
  1  2  3  0
  2  3  1  0
  3  4  1  0
  4  5  1  0
  5  6  1  0
  3  7  1  0
  7  8  1  0
  8  9  1  0
  1 10  1  0
  3 11  1  0
  4 12  1  0
  4 13  1  0
  5 14  1  0
  5 15  1  0
  6 16  1  0
  6 17  1  0
  6 18  1  0
  7 19  1  0
  7 20  1  0
  8 21  1  0
  8 22  1  0
  9 23  1  0
M  END
