
     RDKit          3D

 16 16  0  0  0  0  0  0  0  0999 V2000
    4.3726    0.1550   -0.9127 C   0  0  0  0  0  0  0  0  0  0  0  0
    3.0539    0.2452   -0.4167 C   0  0  0  0  0  0  0  0  0  0  0  0
    1.8366    0.3511    0.0388 C   0  0  0  0  0  0  0  0  0  0  0  0
    0.5670    0.4842    0.5191 C   0  0  0  0  0  0  0  0  0  0  0  0
   -0.8529    0.6188    1.0316 C   0  0  0  0  0  0  0  0  0  0  0  0
   -1.7852    1.0166   -0.1640 C   0  0  0  0  0  0  0  0  0  0  0  0
   -1.7413   -0.3280    0.2152 C   0  0  0  0  0  0  0  0  0  0  0  0
   -1.1779   -1.1907   -1.0171 C   0  0  0  0  0  0  0  0  0  0  0  0
    5.0769    0.1104   -1.1764 H   0  0  0  0  0  0  0  0  0  0  0  0
   -0.9972    0.8205    2.0120 H   0  0  0  0  0  0  0  0  0  0  0  0
   -1.1251    1.1868   -1.2479 H   0  0  0  0  0  0  0  0  0  0  0  0
   -2.3662    1.9076   -0.1539 H   0  0  0  0  0  0  0  0  0  0  0  0
   -1.6036   -1.1684    0.9713 H   0  0  0  0  0  0  0  0  0  0  0  0
   -1.1729   -0.5951   -1.9298 H   0  0  0  0  0  0  0  0  0  0  0  0
   -1.8749   -2.0691   -1.0633 H   0  0  0  0  0  0  0  0  0  0  0  0
   -0.2098   -1.5449   -0.6975 H   0  0  0  0  0  0  0  0  0  0  0  0
  1  2  3  0
  2  3  1  0
  3  4  3  0
  4  5  1  0
  5  6  1  0
  6  7  1  0
  7  8  1  0
  7  5  1  0
  1  9  1  0
  5 10  1  0
  6 11  1  0
  6 12  1  0
  7 13  1  0
  8 14  1  0
  8 15  1  0
  8 16  1  0
M  END
