
     RDKit          3D

 19 21  0  0  0  0  0  0  0  0999 V2000
    3.4923   -0.4745    0.1614 C   0  0  0  0  0  0  0  0  0  0  0  0
    2.3113   -0.2285    0.1764 C   0  0  0  0  0  0  0  0  0  0  0  0
    0.8973    0.0440    0.2073 C   0  0  0  0  0  0  0  0  0  0  0  0
    0.3799    1.4325   -0.0827 C   0  0  0  0  0  0  0  0  0  0  0  0
   -0.7464    0.7882   -0.8741 C   0  0  0  0  0  0  0  0  0  0  0  0
   -1.8923    0.3947    0.0199 C   0  0  0  0  0  0  0  0  0  0  0  0
   -1.4810   -0.8680    0.7394 C   0  0  0  0  0  0  0  0  0  0  0  0
   -0.0397   -1.0945    0.3568 C   0  0  0  0  0  0  0  0  0  0  0  0
    0.0881   -0.4428   -0.9363 C   0  0  0  0  0  0  0  0  0  0  0  0
    4.5437   -0.7089    0.1368 H   0  0  0  0  0  0  0  0  0  0  0  0
    0.0527    1.9284    0.8370 H   0  0  0  0  0  0  0  0  0  0  0  0
    1.0470    2.0470   -0.7525 H   0  0  0  0  0  0  0  0  0  0  0  0
   -1.0026    1.2825   -1.8064 H   0  0  0  0  0  0  0  0  0  0  0  0
   -2.0530    1.1921    0.7960 H   0  0  0  0  0  0  0  0  0  0  0  0
   -2.8221    0.1976   -0.5579 H   0  0  0  0  0  0  0  0  0  0  0  0
   -2.0512   -1.7501    0.3369 H   0  0  0  0  0  0  0  0  0  0  0  0
   -1.6312   -0.8034    1.8314 H   0  0  0  0  0  0  0  0  0  0  0  0
    0.4154   -2.0798    0.4820 H   0  0  0  0  0  0  0  0  0  0  0  0
    0.4918   -0.8564   -1.8424 H   0  0  0  0  0  0  0  0  0  0  0  0
  1  2  3  0
  2  3  1  0
  3  4  1  0
  4  5  1  0
  5  6  1  0
  6  7  1  0
  7  8  1  0
  8  9  1  0
  8  3  1  0
  9  3  1  0
  9  5  1  0
  1 10  1  0
  4 11  1  0
  4 12  1  0
  5 13  1  0
  6 14  1  0
  6 15  1  0
  7 16  1  0
  7 17  1  0
  8 18  1  0
  9 19  1  0
M  END
