
     RDKit          3D

 19 20  0  0  0  0  0  0  0  0999 V2000
    2.0183    1.3581   -2.3083 C   0  0  0  0  0  0  0  0  0  0  0  0
    1.4250    1.3029   -1.2600 C   0  0  0  0  0  0  0  0  0  0  0  0
    0.7204    1.2317    0.0339 C   0  0  0  0  0  0  0  0  0  0  0  0
    1.3778    0.3598    0.9405 O   0  0  0  0  0  0  0  0  0  0  0  0
    0.6553   -0.7425    0.4245 C   0  0  0  0  0  0  0  0  0  0  0  0
    0.2630   -1.7675    1.4286 C   0  0  0  0  0  0  0  0  0  0  0  0
   -0.3556    0.2218   -0.0132 C   0  0  0  0  0  0  0  0  0  0  0  0
   -1.6462    0.4930    0.5651 C   0  0  0  0  0  0  0  0  0  0  0  0
   -1.4433    0.0670   -0.9037 C   0  0  0  0  0  0  0  0  0  0  0  0
    2.5623    1.4166   -3.2373 H   0  0  0  0  0  0  0  0  0  0  0  0
    0.4374    2.1988    0.4669 H   0  0  0  0  0  0  0  0  0  0  0  0
    1.2975   -1.2049   -0.3719 H   0  0  0  0  0  0  0  0  0  0  0  0
    0.6974   -1.5387    2.4056 H   0  0  0  0  0  0  0  0  0  0  0  0
    0.5774   -2.8026    1.1513 H   0  0  0  0  0  0  0  0  0  0  0  0
   -0.8593   -1.8200    1.5231 H   0  0  0  0  0  0  0  0  0  0  0  0
   -1.9209    1.5664    0.7413 H   0  0  0  0  0  0  0  0  0  0  0  0
   -2.2087   -0.1968    1.2227 H   0  0  0  0  0  0  0  0  0  0  0  0
   -1.8431   -0.9473   -1.1240 H   0  0  0  0  0  0  0  0  0  0  0  0
   -1.7546    0.8042   -1.6852 H   0  0  0  0  0  0  0  0  0  0  0  0
  1  2  3  0
  2  3  1  0
  3  4  1  0
  4  5  1  0
  5  6  1  0
  5  7  1  0
  7  8  1  0
  8  9  1  0
  7  3  1  0
  9  7  1  0
  1 10  1  0
  3 11  1  0
  5 12  1  0
  6 13  1  0
  6 14  1  0
  6 15  1  0
  8 16  1  0
  8 17  1  0
  9 18  1  0
  9 19  1  0
M  END
