
     RDKit          3D

 20 20  0  0  0  0  0  0  0  0999 V2000
    3.6875    0.0271   -0.3633 C   0  0  0  0  0  0  0  0  0  0  0  0
    2.5106   -0.2029   -0.5195 C   0  0  0  0  0  0  0  0  0  0  0  0
    1.0719   -0.4783   -0.7223 C   0  0  0  0  0  0  0  0  0  0  0  0
    0.3142   -0.7069    0.5824 C   0  0  0  0  0  0  0  0  0  0  0  0
   -0.8267    0.0974   -0.0568 C   0  0  0  0  0  0  0  0  0  0  0  0
   -1.5556    0.9596    0.9310 C   0  0  0  0  0  0  0  0  0  0  0  0
   -1.6889   -0.7619   -0.9460 C   0  0  0  0  0  0  0  0  0  0  0  0
    0.2454    0.8008   -0.8673 C   0  0  0  0  0  0  0  0  0  0  0  0
    4.7247    0.2332   -0.2352 H   0  0  0  0  0  0  0  0  0  0  0  0
    0.8813   -1.2251   -1.4935 H   0  0  0  0  0  0  0  0  0  0  0  0
    0.7883   -0.1934    1.4391 H   0  0  0  0  0  0  0  0  0  0  0  0
    0.0562   -1.7639    0.7705 H   0  0  0  0  0  0  0  0  0  0  0  0
   -1.2165    1.9882    0.8245 H   0  0  0  0  0  0  0  0  0  0  0  0
   -2.6464    0.8915    0.6932 H   0  0  0  0  0  0  0  0  0  0  0  0
   -1.3708    0.6143    1.9627 H   0  0  0  0  0  0  0  0  0  0  0  0
   -2.6576   -0.2591   -1.1419 H   0  0  0  0  0  0  0  0  0  0  0  0
   -1.2160   -0.9321   -1.9364 H   0  0  0  0  0  0  0  0  0  0  0  0
   -1.8281   -1.7531   -0.4660 H   0  0  0  0  0  0  0  0  0  0  0  0
    0.7483    1.6006   -0.2682 H   0  0  0  0  0  0  0  0  0  0  0  0
   -0.0218    1.0640   -1.8927 H   0  0  0  0  0  0  0  0  0  0  0  0
  1  2  3  0
  2  3  1  0
  3  4  1  0
  4  5  1  0
  5  6  1  0
  5  7  1  0
  5  8  1  0
  8  3  1  0
  1  9  1  0
  3 10  1  0
  4 11  1  0
  4 12  1  0
  6 13  1  0
  6 14  1  0
  6 15  1  0
  7 16  1  0
  7 17  1  0
  7 18  1  0
  8 19  1  0
  8 20  1  0
M  END
