
     RDKit          3D

 21 21  0  0  0  0  0  0  0  0999 V2000
    2.8642    1.4152   -0.6771 C   0  0  0  0  0  0  0  0  0  0  0  0
    2.2715    0.4099   -0.3901 C   0  0  0  0  0  0  0  0  0  0  0  0
    1.5691   -0.8271   -0.0419 C   0  0  0  0  0  0  0  0  0  0  0  0
    0.1223   -0.5135    0.2152 C   0  0  0  0  0  0  0  0  0  0  0  0
   -0.5520   -1.8446    0.5758 C   0  0  0  0  0  0  0  0  0  0  0  0
   -0.5739    0.0336   -1.0016 C   0  0  0  0  0  0  0  0  0  0  0  0
   -1.4372    1.1445   -0.4796 C   0  0  0  0  0  0  0  0  0  0  0  0
   -1.2265    1.0869    0.9978 C   0  0  0  0  0  0  0  0  0  0  0  0
   -0.0902    0.3545    1.2562 O   0  0  0  0  0  0  0  0  0  0  0  0
    3.3872    2.3201   -0.9173 H   0  0  0  0  0  0  0  0  0  0  0  0
    2.0035   -1.3346    0.8368 H   0  0  0  0  0  0  0  0  0  0  0  0
    1.5841   -1.5052   -0.9357 H   0  0  0  0  0  0  0  0  0  0  0  0
   -0.3721   -1.9822    1.6534 H   0  0  0  0  0  0  0  0  0  0  0  0
   -0.0582   -2.6102   -0.0381 H   0  0  0  0  0  0  0  0  0  0  0  0
   -1.6371   -1.7624    0.3997 H   0  0  0  0  0  0  0  0  0  0  0  0
   -1.2242   -0.7387   -1.4558 H   0  0  0  0  0  0  0  0  0  0  0  0
    0.1486    0.3685   -1.7865 H   0  0  0  0  0  0  0  0  0  0  0  0
   -2.4982    1.0238   -0.7827 H   0  0  0  0  0  0  0  0  0  0  0  0
   -1.0837    2.1543   -0.8376 H   0  0  0  0  0  0  0  0  0  0  0  0
   -2.1341    0.6964    1.5131 H   0  0  0  0  0  0  0  0  0  0  0  0
   -1.0633    2.1109    1.4417 H   0  0  0  0  0  0  0  0  0  0  0  0
  1  2  3  0
  2  3  1  0
  3  4  1  0
  4  5  1  0
  4  6  1  0
  6  7  1  0
  7  8  1  0
  8  9  1  0
  9  4  1  0
  1 10  1  0
  3 11  1  0
  3 12  1  0
  5 13  1  0
  5 14  1  0
  5 15  1  0
  6 16  1  0
  6 17  1  0
  7 18  1  0
  7 19  1  0
  8 20  1  0
  8 21  1  0
M  END
