
     RDKit          3D

 19 20  0  0  0  0  0  0  0  0999 V2000
    2.2625   -0.0646    2.3844 C   0  0  0  0  0  0  0  0  0  0  0  0
    1.6563   -0.2093    1.3582 C   0  0  0  0  0  0  0  0  0  0  0  0
    0.9111   -0.3927    0.1418 C   0  0  0  0  0  0  0  0  0  0  0  0
   -0.3612   -1.1966    0.4072 C   0  0  0  0  0  0  0  0  0  0  0  0
   -1.4067   -0.3434   -0.2244 C   0  0  0  0  0  0  0  0  0  0  0  0
   -1.0910   -0.2069   -1.6823 C   0  0  0  0  0  0  0  0  0  0  0  0
   -0.0365    0.5654   -1.8367 C   0  0  0  0  0  0  0  0  0  0  0  0
    0.4423    0.9019   -0.4797 C   0  0  0  0  0  0  0  0  0  0  0  0
   -0.9091    1.0402    0.2455 C   0  0  0  0  0  0  0  0  0  0  0  0
    2.7959    0.0533    3.3153 H   0  0  0  0  0  0  0  0  0  0  0  0
    1.5088   -0.9467   -0.6251 H   0  0  0  0  0  0  0  0  0  0  0  0
   -0.4891   -1.2675    1.5041 H   0  0  0  0  0  0  0  0  0  0  0  0
   -0.3109   -2.1990   -0.0370 H   0  0  0  0  0  0  0  0  0  0  0  0
   -2.4261   -0.5376    0.0102 H   0  0  0  0  0  0  0  0  0  0  0  0
   -1.6670   -0.6859   -2.4522 H   0  0  0  0  0  0  0  0  0  0  0  0
    0.3868    0.8839   -2.7567 H   0  0  0  0  0  0  0  0  0  0  0  0
    1.0823    1.7407   -0.3788 H   0  0  0  0  0  0  0  0  0  0  0  0
   -0.7950    1.0866    1.3239 H   0  0  0  0  0  0  0  0  0  0  0  0
   -1.5532    1.7784   -0.2179 H   0  0  0  0  0  0  0  0  0  0  0  0
  1  2  3  0
  2  3  1  0
  3  4  1  0
  4  5  1  0
  5  6  1  0
  6  7  2  0
  7  8  1  0
  8  9  1  0
  8  3  1  0
  9  5  1  0
  1 10  1  0
  3 11  1  0
  4 12  1  0
  4 13  1  0
  5 14  1  0
  6 15  1  0
  7 16  1  0
  8 17  1  0
  9 18  1  0
  9 19  1  0
M  END
