
     RDKit          3D

 21 21  0  0  0  0  0  0  0  0999 V2000
   -0.2782    1.7162    1.9475 C   0  0  0  0  0  0  0  0  0  0  0  0
   -0.1203    1.0193    0.9569 C   0  0  0  0  0  0  0  0  0  0  0  0
    0.0744    0.1882   -0.2313 C   0  0  0  0  0  0  0  0  0  0  0  0
    1.5098    0.1012   -0.6688 C   0  0  0  0  0  0  0  0  0  0  0  0
    2.3382   -0.4882    0.4270 C   0  0  0  0  0  0  0  0  0  0  0  0
   -0.9157    0.5336   -1.3258 C   0  0  0  0  0  0  0  0  0  0  0  0
   -1.8871   -0.3800   -0.5758 C   0  0  0  0  0  0  0  0  0  0  0  0
   -2.4267    0.3162    0.4928 O   0  0  0  0  0  0  0  0  0  0  0  0
   -0.6420   -1.1292   -0.0883 C   0  0  0  0  0  0  0  0  0  0  0  0
   -0.4131    2.3130    2.8162 H   0  0  0  0  0  0  0  0  0  0  0  0
    1.8546    1.1563   -0.8353 H   0  0  0  0  0  0  0  0  0  0  0  0
    1.6405   -0.4732   -1.5882 H   0  0  0  0  0  0  0  0  0  0  0  0
    3.2442    0.1081    0.6076 H   0  0  0  0  0  0  0  0  0  0  0  0
    2.5907   -1.5233    0.1655 H   0  0  0  0  0  0  0  0  0  0  0  0
    1.7439   -0.5515    1.3823 H   0  0  0  0  0  0  0  0  0  0  0  0
   -0.6214    0.1659   -2.3239 H   0  0  0  0  0  0  0  0  0  0  0  0
   -1.2113    1.5886   -1.2662 H   0  0  0  0  0  0  0  0  0  0  0  0
   -2.5631   -0.9589   -1.1901 H   0  0  0  0  0  0  0  0  0  0  0  0
   -2.8032   -0.3330    1.1626 H   0  0  0  0  0  0  0  0  0  0  0  0
   -0.7405   -1.4619    0.9612 H   0  0  0  0  0  0  0  0  0  0  0  0
   -0.3734   -1.9076   -0.8260 H   0  0  0  0  0  0  0  0  0  0  0  0
  1  2  3  0
  2  3  1  0
  3  4  1  0
  4  5  1  0
  3  6  1  0
  6  7  1  0
  7  8  1  0
  7  9  1  0
  9  3  1  0
  1 10  1  0
  4 11  1  0
  4 12  1  0
  5 13  1  0
  5 14  1  0
  5 15  1  0
  6 16  1  0
  6 17  1  0
  7 18  1  0
  8 19  1  0
  9 20  1  0
  9 21  1  0
M  END
