
     RDKit          3D

 21 21  0  0  0  0  0  0  0  0999 V2000
    2.6121   -0.0362    2.9321 C   0  0  0  0  0  0  0  0  0  0  0  0
    1.8002   -0.2418    2.1608 C   0  0  0  0  0  0  0  0  0  0  0  0
    0.8252   -0.4709    1.2523 C   0  0  0  0  0  0  0  0  0  0  0  0
   -0.5652   -0.8618    1.4780 C   0  0  0  0  0  0  0  0  0  0  0  0
   -1.0157   -0.8375   -0.0798 C   0  0  0  0  0  0  0  0  0  0  0  0
   -0.4607    0.1680   -0.6251 C   0  0  0  0  0  0  0  0  0  0  0  0
   -0.3863    0.8202   -1.9286 C   0  0  0  0  0  0  0  0  0  0  0  0
   -1.2076    0.0248   -2.9378 C   0  0  0  0  0  0  0  0  0  0  0  0
    0.4750    0.8659    0.4575 C   0  0  0  0  0  0  0  0  0  0  0  0
    3.4731    0.1660    3.7523 H   0  0  0  0  0  0  0  0  0  0  0  0
    1.2282   -1.1317    0.3482 H   0  0  0  0  0  0  0  0  0  0  0  0
   -1.2038   -0.0844    1.9056 H   0  0  0  0  0  0  0  0  0  0  0  0
   -0.8369   -1.8221    1.8029 H   0  0  0  0  0  0  0  0  0  0  0  0
   -1.6573   -1.5847   -0.4320 H   0  0  0  0  0  0  0  0  0  0  0  0
   -0.8182    1.8768   -1.8771 H   0  0  0  0  0  0  0  0  0  0  0  0
    0.6094    0.9639   -2.3770 H   0  0  0  0  0  0  0  0  0  0  0  0
   -1.2725    0.6571   -3.8338 H   0  0  0  0  0  0  0  0  0  0  0  0
   -2.1588   -0.3506   -2.5447 H   0  0  0  0  0  0  0  0  0  0  0  0
   -0.5468   -0.8277   -3.2612 H   0  0  0  0  0  0  0  0  0  0  0  0
    1.3224    1.2839    0.0062 H   0  0  0  0  0  0  0  0  0  0  0  0
   -0.2159    1.4229    1.0604 H   0  0  0  0  0  0  0  0  0  0  0  0
  1  2  3  0
  2  3  1  0
  3  4  1  0
  4  5  1  0
  5  6  2  0
  6  7  1  0
  7  8  1  0
  6  9  1  0
  9  3  1  0
  1 10  1  0
  3 11  1  0
  4 12  1  0
  4 13  1  0
  5 14  1  0
  7 15  1  0
  7 16  1  0
  8 17  1  0
  8 18  1  0
  8 19  1  0
  9 20  1  0
  9 21  1  0
M  END
