
     RDKit          3D

 21 21  0  0  0  0  0  0  0  0999 V2000
   -2.2460    0.2668    1.8015 C   0  0  0  0  0  0  0  0  0  0  0  0
   -1.4140    0.3658    0.9756 C   0  0  0  0  0  0  0  0  0  0  0  0
   -0.4631    0.5014    0.0389 C   0  0  0  0  0  0  0  0  0  0  0  0
    0.8012    0.2571    0.6854 O   0  0  0  0  0  0  0  0  0  0  0  0
    1.8888    0.8166    0.1360 C   0  0  0  0  0  0  0  0  0  0  0  0
    2.9979    0.8261    1.2038 C   0  0  0  0  0  0  0  0  0  0  0  0
   -0.6008   -0.6468   -1.0314 C   0  0  0  0  0  0  0  0  0  0  0  0
   -1.9658   -0.6693   -1.6869 C   0  0  0  0  0  0  0  0  0  0  0  0
   -1.5117   -1.7665   -0.8046 C   0  0  0  0  0  0  0  0  0  0  0  0
   -3.0963    0.1486    2.6499 H   0  0  0  0  0  0  0  0  0  0  0  0
   -0.3470    1.3758   -0.5985 H   0  0  0  0  0  0  0  0  0  0  0  0
    2.2876    0.1078   -0.7155 H   0  0  0  0  0  0  0  0  0  0  0  0
    1.8416    1.8029   -0.3301 H   0  0  0  0  0  0  0  0  0  0  0  0
    3.4474   -0.1310    1.4191 H   0  0  0  0  0  0  0  0  0  0  0  0
    3.7117    1.6458    0.9440 H   0  0  0  0  0  0  0  0  0  0  0  0
    2.5168    1.2061    2.1651 H   0  0  0  0  0  0  0  0  0  0  0  0
    0.2238   -0.6589   -1.7328 H   0  0  0  0  0  0  0  0  0  0  0  0
   -2.7066    0.0752   -1.2917 H   0  0  0  0  0  0  0  0  0  0  0  0
   -2.0975   -0.8966   -2.7336 H   0  0  0  0  0  0  0  0  0  0  0  0
   -2.0564   -1.8865    0.1601 H   0  0  0  0  0  0  0  0  0  0  0  0
   -1.2115   -2.7402   -1.2543 H   0  0  0  0  0  0  0  0  0  0  0  0
  1  2  3  0
  2  3  1  0
  3  4  1  0
  4  5  1  0
  5  6  1  0
  3  7  1  0
  7  8  1  0
  8  9  1  0
  9  7  1  0
  1 10  1  0
  3 11  1  0
  5 12  1  0
  5 13  1  0
  6 14  1  0
  6 15  1  0
  6 16  1  0
  7 17  1  0
  8 18  1  0
  8 19  1  0
  9 20  1  0
  9 21  1  0
M  END
