
     RDKit          3D

 11 11  0  0  0  0  0  0  0  0999 V2000
   -2.6727   -0.4447    0.5472 C   0  0  0  0  0  0  0  0  0  0  0  0
   -1.5111   -0.3614    0.2039 C   0  0  0  0  0  0  0  0  0  0  0  0
   -0.1401   -0.2473   -0.1948 C   0  0  0  0  0  0  0  0  0  0  0  0
    0.4890   -1.0438   -1.0274 O   0  0  0  0  0  0  0  0  0  0  0  0
    1.7369   -0.6423   -1.1624 C   0  0  0  0  0  0  0  0  0  0  0  0
    2.5758   -1.2142   -1.8975 O   0  0  0  0  0  0  0  0  0  0  0  0
    1.9535    0.4168   -0.4286 O   0  0  0  0  0  0  0  0  0  0  0  0
    0.7995    0.6840    0.1850 C   0  0  0  0  0  0  0  0  0  0  0  0
    0.5589    1.7268    1.0685 O   0  0  0  0  0  0  0  0  0  0  0  0
   -3.6911   -0.5023    0.8587 H   0  0  0  0  0  0  0  0  0  0  0  0
   -0.0986    1.6285    1.8474 H   0  0  0  0  0  0  0  0  0  0  0  0
  1  2  3  0
  2  3  1  0
  3  4  1  0
  4  5  1  0
  5  6  2  0
  5  7  1  0
  7  8  1  0
  8  9  1  0
  8  3  2  0
  1 10  1  0
  9 11  1  0
M  END
