
     RDKit          3D

 19 18  0  0  0  0  0  0  0  0999 V2000
    2.6238   -1.2955   -0.2684 C   0  0  0  0  0  0  0  0  0  0  0  0
    1.6408   -0.6173   -0.4412 C   0  0  0  0  0  0  0  0  0  0  0  0
    0.4294    0.2011   -0.6313 C   0  0  0  0  0  0  0  0  0  0  0  0
    0.8176    1.6424   -0.6644 C   0  0  0  0  0  0  0  0  0  0  0  0
   -0.2238   -0.1196   -1.8111 O   0  0  0  0  0  0  0  0  0  0  0  0
   -0.5003   -0.1439    0.5128 C   0  0  0  0  0  0  0  0  0  0  0  0
   -1.7746    0.6560    0.3936 C   0  0  0  0  0  0  0  0  0  0  0  0
   -0.7962   -1.5913    0.4195 C   0  0  0  0  0  0  0  0  0  0  0  0
   -1.9210   -2.0422    0.4384 O   0  0  0  0  0  0  0  0  0  0  0  0
    3.5005   -1.8999   -0.1139 H   0  0  0  0  0  0  0  0  0  0  0  0
    1.8540    1.7840   -1.0418 H   0  0  0  0  0  0  0  0  0  0  0  0
    0.6778    2.0560    0.3569 H   0  0  0  0  0  0  0  0  0  0  0  0
    0.0733    2.1796   -1.3194 H   0  0  0  0  0  0  0  0  0  0  0  0
   -0.1089   -1.0961   -1.9484 H   0  0  0  0  0  0  0  0  0  0  0  0
   -0.0078    0.0325    1.4908 H   0  0  0  0  0  0  0  0  0  0  0  0
   -1.5897    1.7205    0.6679 H   0  0  0  0  0  0  0  0  0  0  0  0
   -2.5424    0.2621    1.0981 H   0  0  0  0  0  0  0  0  0  0  0  0
   -2.1785    0.5531   -0.6249 H   0  0  0  0  0  0  0  0  0  0  0  0
    0.0259   -2.2817    0.3302 H   0  0  0  0  0  0  0  0  0  0  0  0
  1  2  3  0
  2  3  1  0
  3  4  1  0
  3  5  1  0
  3  6  1  0
  6  7  1  0
  6  8  1  0
  8  9  2  0
  1 10  1  0
  4 11  1  0
  4 12  1  0
  4 13  1  0
  5 14  1  0
  6 15  1  0
  7 16  1  0
  7 17  1  0
  7 18  1  0
  8 19  1  0
M  END
