
     RDKit          3D

 15 15  0  0  0  0  0  0  0  0999 V2000
    2.8096    1.1714   -1.7120 C   0  0  0  0  0  0  0  0  0  0  0  0
    1.8909    0.4426   -1.4128 C   0  0  0  0  0  0  0  0  0  0  0  0
    0.8114   -0.4281   -1.0368 C   0  0  0  0  0  0  0  0  0  0  0  0
   -0.4063    0.1811   -1.4968 O   0  0  0  0  0  0  0  0  0  0  0  0
   -1.3929   -0.3667   -0.6853 C   0  0  0  0  0  0  0  0  0  0  0  0
   -2.6104   -0.5679   -0.9301 O   0  0  0  0  0  0  0  0  0  0  0  0
   -0.6889   -0.6862    0.6006 C   0  0  0  0  0  0  0  0  0  0  0  0
   -1.0381    0.3551    1.6162 C   0  0  0  0  0  0  0  0  0  0  0  0
    0.6536   -0.6125    0.3176 O   0  0  0  0  0  0  0  0  0  0  0  0
    3.6272    1.7971   -1.9699 H   0  0  0  0  0  0  0  0  0  0  0  0
    0.8415   -1.4182   -1.5623 H   0  0  0  0  0  0  0  0  0  0  0  0
   -1.0248   -1.7070    0.8758 H   0  0  0  0  0  0  0  0  0  0  0  0
   -0.1264    0.8377    2.0628 H   0  0  0  0  0  0  0  0  0  0  0  0
   -1.7061    1.1426    1.1763 H   0  0  0  0  0  0  0  0  0  0  0  0
   -1.6405   -0.1412    2.4231 H   0  0  0  0  0  0  0  0  0  0  0  0
  1  2  3  0
  2  3  1  0
  3  4  1  0
  4  5  1  0
  5  6  2  0
  5  7  1  0
  7  8  1  0
  7  9  1  0
  9  3  1  0
  1 10  1  0
  3 11  1  0
  7 12  1  0
  8 13  1  0
  8 14  1  0
  8 15  1  0
M  END
