
     RDKit          3D

 17 17  0  0  0  0  0  0  0  0999 V2000
    3.0480   -0.9867   -0.2839 C   0  0  0  0  0  0  0  0  0  0  0  0
    2.2616   -0.4018   -0.4770 C   0  0  0  0  0  0  0  0  0  0  0  0
    1.2172    0.3921   -0.7359 C   0  0  0  0  0  0  0  0  0  0  0  0
    0.8014    1.4032    0.3940 C   0  0  0  0  0  0  0  0  0  0  0  0
   -0.0381    0.1469    0.2149 C   0  0  0  0  0  0  0  0  0  0  0  0
    0.2009   -0.9680    1.0553 O   0  0  0  0  0  0  0  0  0  0  0  0
   -1.4478    0.3816   -0.0690 C   0  0  0  0  0  0  0  0  0  0  0  0
   -2.4212   -0.6368   -0.5391 C   0  0  0  0  0  0  0  0  0  0  0  0
   -1.9334    1.5132    0.0872 O   0  0  0  0  0  0  0  0  0  0  0  0
    3.9892   -1.6838   -0.0578 H   0  0  0  0  0  0  0  0  0  0  0  0
    0.8268    0.7003   -1.7695 H   0  0  0  0  0  0  0  0  0  0  0  0
    0.3654    2.3454    0.1172 H   0  0  0  0  0  0  0  0  0  0  0  0
    1.5364    1.3306    1.2488 H   0  0  0  0  0  0  0  0  0  0  0  0
   -0.3060   -0.8573    1.9316 H   0  0  0  0  0  0  0  0  0  0  0  0
   -1.9810   -1.6557   -0.4019 H   0  0  0  0  0  0  0  0  0  0  0  0
   -3.3427   -0.5651    0.1145 H   0  0  0  0  0  0  0  0  0  0  0  0
   -2.7769   -0.4585   -1.5614 H   0  0  0  0  0  0  0  0  0  0  0  0
  1  2  3  0
  2  3  1  0
  3  4  1  0
  4  5  1  0
  5  6  1  0
  5  7  1  0
  7  8  1  0
  7  9  2  0
  5  3  1  0
  1 10  1  0
  3 11  1  0
  4 12  1  0
  4 13  1  0
  6 14  1  0
  8 15  1  0
  8 16  1  0
  8 17  1  0
M  END
