
     RDKit          3D

 13 13  0  0  0  0  0  0  0  0999 V2000
    4.0897    0.2831   -0.8778 C   0  0  0  0  0  0  0  0  0  0  0  0
    2.9604    0.1100   -0.5731 C   0  0  0  0  0  0  0  0  0  0  0  0
    1.6991   -0.1063   -0.2265 C   0  0  0  0  0  0  0  0  0  0  0  0
    0.3433   -0.3561    0.1613 C   0  0  0  0  0  0  0  0  0  0  0  0
   -0.8710   -0.5809    0.4860 C   0  0  0  0  0  0  0  0  0  0  0  0
   -2.1244   -0.1674   -0.3778 C   0  0  0  0  0  0  0  0  0  0  0  0
   -1.8289    0.5516    0.8323 C   0  0  0  0  0  0  0  0  0  0  0  0
    5.1602    0.4458   -1.1845 H   0  0  0  0  0  0  0  0  0  0  0  0
   -1.1418   -1.5380    1.1357 H   0  0  0  0  0  0  0  0  0  0  0  0
   -1.7427    0.3465   -1.3417 H   0  0  0  0  0  0  0  0  0  0  0  0
   -2.8027   -1.0129   -0.5672 H   0  0  0  0  0  0  0  0  0  0  0  0
   -2.3277    0.4279    1.7897 H   0  0  0  0  0  0  0  0  0  0  0  0
   -1.4137    1.5967    0.7438 H   0  0  0  0  0  0  0  0  0  0  0  0
  1  2  3  0
  2  3  1  0
  3  4  3  0
  4  5  1  0
  5  6  1  0
  6  7  1  0
  7  5  1  0
  1  8  1  0
  5  9  1  0
  6 10  1  0
  6 11  1  0
  7 12  1  0
  7 13  1  0
M  END
