
     RDKit          3D

 17 17  0  0  0  0  0  0  0  0999 V2000
    1.6889   -1.0435    2.3064 C   0  0  0  0  0  0  0  0  0  0  0  0
    1.3499   -0.2715    1.4729 C   0  0  0  0  0  0  0  0  0  0  0  0
    0.9243    0.6426    0.4607 C   0  0  0  0  0  0  0  0  0  0  0  0
    1.8051    0.6524   -0.6286 O   0  0  0  0  0  0  0  0  0  0  0  0
   -0.4466    0.2639    0.1227 C   0  0  0  0  0  0  0  0  0  0  0  0
   -0.5311   -1.0414   -0.6306 C   0  0  0  0  0  0  0  0  0  0  0  0
   -1.4612   -0.3991   -1.5342 C   0  0  0  0  0  0  0  0  0  0  0  0
   -2.0636   -0.6808   -2.5936 O   0  0  0  0  0  0  0  0  0  0  0  0
   -1.4750    0.8348   -0.7089 C   0  0  0  0  0  0  0  0  0  0  0  0
    2.0370   -1.8362    3.1426 H   0  0  0  0  0  0  0  0  0  0  0  0
    0.9677    1.7022    0.8833 H   0  0  0  0  0  0  0  0  0  0  0  0
    2.1251    1.5956   -0.7828 H   0  0  0  0  0  0  0  0  0  0  0  0
   -0.9230    0.0198    1.2482 H   0  0  0  0  0  0  0  0  0  0  0  0
   -0.8203   -1.9213   -0.0446 H   0  0  0  0  0  0  0  0  0  0  0  0
    0.5055   -1.2222   -1.1335 H   0  0  0  0  0  0  0  0  0  0  0  0
   -2.4800    0.9836   -0.1773 H   0  0  0  0  0  0  0  0  0  0  0  0
   -1.2026    1.7211   -1.3547 H   0  0  0  0  0  0  0  0  0  0  0  0
  1  2  3  0
  2  3  1  0
  3  4  1  0
  3  5  1  0
  5  6  1  0
  6  7  1  0
  7  8  2  0
  7  9  1  0
  9  5  1  0
  1 10  1  0
  3 11  1  0
  4 12  1  0
  5 13  1  0
  6 14  1  0
  6 15  1  0
  9 16  1  0
  9 17  1  0
M  END
