
     RDKit          3D

 17 18  0  0  0  0  0  0  0  0999 V2000
    2.9446   -2.0180   -0.4250 C   0  0  0  0  0  0  0  0  0  0  0  0
    1.8915   -1.4206   -0.3356 C   0  0  0  0  0  0  0  0  0  0  0  0
    0.6183   -0.7176   -0.2470 C   0  0  0  0  0  0  0  0  0  0  0  0
    0.1740    0.0250   -1.2418 C   0  0  0  0  0  0  0  0  0  0  0  0
   -1.1073    0.6335   -0.9464 C   0  0  0  0  0  0  0  0  0  0  0  0
   -1.5070    1.9171   -0.5201 C   0  0  0  0  0  0  0  0  0  0  0  0
   -0.7978    1.2140    0.4852 C   0  0  0  0  0  0  0  0  0  0  0  0
   -1.0578    0.1650    1.2754 O   0  0  0  0  0  0  0  0  0  0  0  0
   -0.1721   -0.8645    0.9892 C   0  0  0  0  0  0  0  0  0  0  0  0
    3.8734   -2.5235   -0.5029 H   0  0  0  0  0  0  0  0  0  0  0  0
    0.7683    0.1073   -2.1283 H   0  0  0  0  0  0  0  0  0  0  0  0
   -1.9177   -0.1584   -0.9831 H   0  0  0  0  0  0  0  0  0  0  0  0
   -1.0406    2.8067   -1.0040 H   0  0  0  0  0  0  0  0  0  0  0  0
   -2.5952    2.1149   -0.3615 H   0  0  0  0  0  0  0  0  0  0  0  0
    0.2607    1.5787    0.6622 H   0  0  0  0  0  0  0  0  0  0  0  0
   -0.8250   -1.7708    0.8141 H   0  0  0  0  0  0  0  0  0  0  0  0
    0.4897   -1.0887    1.8607 H   0  0  0  0  0  0  0  0  0  0  0  0
  1  2  3  0
  2  3  1  0
  3  4  2  0
  4  5  1  0
  5  6  1  0
  6  7  1  0
  7  8  1  0
  8  9  1  0
  9  3  1  0
  7  5  1  0
  1 10  1  0
  4 11  1  0
  5 12  1  0
  6 13  1  0
  6 14  1  0
  7 15  1  0
  9 16  1  0
  9 17  1  0
M  END
