
     RDKit          3D

 21 20  0  0  0  0  0  0  0  0999 V2000
    1.3124   -0.6673   -3.1085 C   0  0  0  0  0  0  0  0  0  0  0  0
    1.3075    0.0517   -2.1470 C   0  0  0  0  0  0  0  0  0  0  0  0
    1.3044    0.8975   -1.0548 C   0  0  0  0  0  0  0  0  0  0  0  0
    2.4742    0.6873   -0.1669 C   0  0  0  0  0  0  0  0  0  0  0  0
    3.6494    1.0123   -0.6620 O   0  0  0  0  0  0  0  0  0  0  0  0
    0.0513    1.0341   -0.2628 C   0  0  0  0  0  0  0  0  0  0  0  0
   -0.3413   -0.3437    0.3226 C   0  0  0  0  0  0  0  0  0  0  0  0
   -1.5528   -0.0821    1.1636 C   0  0  0  0  0  0  0  0  0  0  0  0
   -2.1345   -1.2304    1.8914 C   0  0  0  0  0  0  0  0  0  0  0  0
    1.3200   -1.3958   -4.0525 H   0  0  0  0  0  0  0  0  0  0  0  0
    1.5084    1.9752   -1.4706 H   0  0  0  0  0  0  0  0  0  0  0  0
    2.5258    0.3153    0.7972 H   0  0  0  0  0  0  0  0  0  0  0  0
   -0.7754    1.5271   -0.7503 H   0  0  0  0  0  0  0  0  0  0  0  0
    0.2960    1.6426    0.6620 H   0  0  0  0  0  0  0  0  0  0  0  0
    0.4985   -0.8349    0.7943 H   0  0  0  0  0  0  0  0  0  0  0  0
   -0.6616   -0.9488   -0.5471 H   0  0  0  0  0  0  0  0  0  0  0  0
   -2.3723    0.3067    0.4652 H   0  0  0  0  0  0  0  0  0  0  0  0
   -1.3160    0.7536    1.8389 H   0  0  0  0  0  0  0  0  0  0  0  0
   -3.1873   -1.4833    1.4879 H   0  0  0  0  0  0  0  0  0  0  0  0
   -1.5955   -2.2053    1.8124 H   0  0  0  0  0  0  0  0  0  0  0  0
   -2.3112   -1.0115    2.9867 H   0  0  0  0  0  0  0  0  0  0  0  0
  1  2  3  0
  2  3  1  0
  3  4  1  0
  4  5  2  0
  3  6  1  0
  6  7  1  0
  7  8  1  0
  8  9  1  0
  1 10  1  0
  3 11  1  0
  4 12  1  0
  6 13  1  0
  6 14  1  0
  7 15  1  0
  7 16  1  0
  8 17  1  0
  8 18  1  0
  9 19  1  0
  9 20  1  0
  9 21  1  0
M  END
