
     RDKit          3D

 17 17  0  0  0  0  0  0  0  0999 V2000
    3.4969    1.3727   -2.6683 C   0  0  0  0  0  0  0  0  0  0  0  0
    2.6285    0.7402   -1.6324 C   0  0  0  0  0  0  0  0  0  0  0  0
    1.9541    0.2505   -0.8098 C   0  0  0  0  0  0  0  0  0  0  0  0
    1.1941   -0.3030    0.1304 C   0  0  0  0  0  0  0  0  0  0  0  0
    0.4083   -0.8477    1.0966 C   0  0  0  0  0  0  0  0  0  0  0  0
   -1.0586   -0.6358    0.7179 C   0  0  0  0  0  0  0  0  0  0  0  0
   -1.8553   -1.7817    1.1085 O   0  0  0  0  0  0  0  0  0  0  0  0
   -1.6961    0.6950    0.9230 C   0  0  0  0  0  0  0  0  0  0  0  0
   -1.4515    0.1556   -0.4398 C   0  0  0  0  0  0  0  0  0  0  0  0
    4.0363    1.7689   -3.3037 H   0  0  0  0  0  0  0  0  0  0  0  0
    0.6053   -1.9232    1.3168 H   0  0  0  0  0  0  0  0  0  0  0  0
    0.5569   -0.3653    2.1404 H   0  0  0  0  0  0  0  0  0  0  0  0
   -1.8755   -1.9293    2.0780 H   0  0  0  0  0  0  0  0  0  0  0  0
   -1.2240    1.5651    1.2821 H   0  0  0  0  0  0  0  0  0  0  0  0
   -2.7200    0.5518    1.3823 H   0  0  0  0  0  0  0  0  0  0  0  0
   -2.3379   -0.0130   -1.0542 H   0  0  0  0  0  0  0  0  0  0  0  0
   -0.6614    0.6991   -1.0068 H   0  0  0  0  0  0  0  0  0  0  0  0
  1  2  3  0
  2  3  1  0
  3  4  3  0
  4  5  1  0
  5  6  1  0
  6  7  1  0
  6  8  1  0
  8  9  1  0
  9  6  1  0
  1 10  1  0
  5 11  1  0
  5 12  1  0
  7 13  1  0
  8 14  1  0
  8 15  1  0
  9 16  1  0
  9 17  1  0
M  END
