
     RDKit          3D

 21 20  0  0  0  0  0  0  0  0999 V2000
    1.6872    3.0701    0.1957 C   0  0  0  0  0  0  0  0  0  0  0  0
    0.9300    2.4618    0.9082 C   0  0  0  0  0  0  0  0  0  0  0  0
    0.0050    1.7098    1.7524 C   0  0  0  0  0  0  0  0  0  0  0  0
   -0.0717    0.3167    1.1995 C   0  0  0  0  0  0  0  0  0  0  0  0
   -0.8844   -0.3943    1.8288 O   0  0  0  0  0  0  0  0  0  0  0  0
    0.7310   -0.0829    0.0727 C   0  0  0  0  0  0  0  0  0  0  0  0
    0.5539   -1.5216   -0.3455 C   0  0  0  0  0  0  0  0  0  0  0  0
   -0.8723   -1.8280   -0.7414 C   0  0  0  0  0  0  0  0  0  0  0  0
   -1.3272   -0.9532   -1.8966 C   0  0  0  0  0  0  0  0  0  0  0  0
    2.3863    3.6078   -0.4454 H   0  0  0  0  0  0  0  0  0  0  0  0
    0.3621    1.7019    2.8022 H   0  0  0  0  0  0  0  0  0  0  0  0
   -1.0064    2.2002    1.7539 H   0  0  0  0  0  0  0  0  0  0  0  0
    0.5661    0.5310   -0.8645 H   0  0  0  0  0  0  0  0  0  0  0  0
    1.8249    0.0766    0.3401 H   0  0  0  0  0  0  0  0  0  0  0  0
    0.8921   -2.1883    0.4764 H   0  0  0  0  0  0  0  0  0  0  0  0
    1.2102   -1.7620   -1.2381 H   0  0  0  0  0  0  0  0  0  0  0  0
   -1.5893   -1.7577    0.0877 H   0  0  0  0  0  0  0  0  0  0  0  0
   -0.9271   -2.8795   -1.1634 H   0  0  0  0  0  0  0  0  0  0  0  0
   -2.4160   -1.1641   -2.0351 H   0  0  0  0  0  0  0  0  0  0  0  0
   -0.8240   -1.2421   -2.8429 H   0  0  0  0  0  0  0  0  0  0  0  0
   -1.2305    0.0980   -1.6207 H   0  0  0  0  0  0  0  0  0  0  0  0
  1  2  3  0
  2  3  1  0
  3  4  1  0
  4  5  2  0
  4  6  1  0
  6  7  1  0
  7  8  1  0
  8  9  1  0
  1 10  1  0
  3 11  1  0
  3 12  1  0
  6 13  1  0
  6 14  1  0
  7 15  1  0
  7 16  1  0
  8 17  1  0
  8 18  1  0
  9 19  1  0
  9 20  1  0
  9 21  1  0
M  END
