
     RDKit          3D

 16 17  0  0  0  0  0  0  0  0999 V2000
    1.7353    0.9418   -1.8630 C   0  0  0  0  0  0  0  0  0  0  0  0
    1.3151    0.5937   -0.7821 C   0  0  0  0  0  0  0  0  0  0  0  0
    0.8165    0.1873    0.5482 C   0  0  0  0  0  0  0  0  0  0  0  0
    0.9009   -1.3392    0.6343 C   0  0  0  0  0  0  0  0  0  0  0  0
   -0.6152   -1.3154    0.4145 C   0  0  0  0  0  0  0  0  0  0  0  0
   -1.2963   -0.7902    1.4796 O   0  0  0  0  0  0  0  0  0  0  0  0
   -0.6742    0.0390    0.5271 C   0  0  0  0  0  0  0  0  0  0  0  0
   -1.5669    1.0693   -0.0402 C   0  0  0  0  0  0  0  0  0  0  0  0
    2.1034    1.2635   -2.8017 H   0  0  0  0  0  0  0  0  0  0  0  0
    1.2428    0.7208    1.3951 H   0  0  0  0  0  0  0  0  0  0  0  0
    1.1854   -1.6809    1.6559 H   0  0  0  0  0  0  0  0  0  0  0  0
    1.4560   -1.8235   -0.1642 H   0  0  0  0  0  0  0  0  0  0  0  0
   -1.0620   -1.9482   -0.3390 H   0  0  0  0  0  0  0  0  0  0  0  0
   -2.3068    1.3740    0.7296 H   0  0  0  0  0  0  0  0  0  0  0  0
   -1.0657    1.9966   -0.3727 H   0  0  0  0  0  0  0  0  0  0  0  0
   -2.1681    0.7116   -0.9199 H   0  0  0  0  0  0  0  0  0  0  0  0
  1  2  3  0
  2  3  1  0
  3  4  1  0
  4  5  1  0
  5  6  1  0
  6  7  1  0
  7  8  1  0
  7  3  1  0
  7  5  1  0
  1  9  1  0
  3 10  1  0
  4 11  1  0
  4 12  1  0
  5 13  1  0
  8 14  1  0
  8 15  1  0
  8 16  1  0
M  END
