
     RDKit          3D

 19 19  0  0  0  0  0  0  0  0999 V2000
    3.0449    0.0469   -1.1166 C   0  0  0  0  0  0  0  0  0  0  0  0
    1.9568   -0.3332   -0.7936 C   0  0  0  0  0  0  0  0  0  0  0  0
    0.6312   -0.7935   -0.4265 C   0  0  0  0  0  0  0  0  0  0  0  0
    0.5820   -1.4280    0.8114 O   0  0  0  0  0  0  0  0  0  0  0  0
   -0.0602   -0.3173    1.3913 C   0  0  0  0  0  0  0  0  0  0  0  0
   -0.2866    0.2883    0.0687 C   0  0  0  0  0  0  0  0  0  0  0  0
    0.3262    1.6942   -0.0041 C   0  0  0  0  0  0  0  0  0  0  0  0
   -1.5480    0.3188   -0.4504 O   0  0  0  0  0  0  0  0  0  0  0  0
   -2.3018   -0.8137   -0.2375 C   0  0  0  0  0  0  0  0  0  0  0  0
    3.9961    0.3748   -1.4001 H   0  0  0  0  0  0  0  0  0  0  0  0
    0.1275   -1.3938   -1.2088 H   0  0  0  0  0  0  0  0  0  0  0  0
    0.7115    0.2215    2.0104 H   0  0  0  0  0  0  0  0  0  0  0  0
   -0.9111   -0.5584    2.0278 H   0  0  0  0  0  0  0  0  0  0  0  0
    1.0333    1.8390    0.8505 H   0  0  0  0  0  0  0  0  0  0  0  0
   -0.4873    2.4379    0.0461 H   0  0  0  0  0  0  0  0  0  0  0  0
    0.8878    1.8131   -0.9599 H   0  0  0  0  0  0  0  0  0  0  0  0
   -3.2985   -0.6330   -0.7188 H   0  0  0  0  0  0  0  0  0  0  0  0
   -2.5053   -1.0374    0.8192 H   0  0  0  0  0  0  0  0  0  0  0  0
   -1.8984   -1.7262   -0.7091 H   0  0  0  0  0  0  0  0  0  0  0  0
  1  2  3  0
  2  3  1  0
  3  4  1  0
  4  5  1  0
  5  6  1  0
  6  7  1  0
  6  8  1  0
  8  9  1  0
  6  3  1  0
  1 10  1  0
  3 11  1  0
  5 12  1  0
  5 13  1  0
  7 14  1  0
  7 15  1  0
  7 16  1  0
  9 17  1  0
  9 18  1  0
  9 19  1  0
M  END
