
     RDKit          3D

 14 13  0  0  0  0  0  0  0  0999 V2000
    2.0654    2.1295   -0.7403 C   0  0  0  0  0  0  0  0  0  0  0  0
    1.2781    1.3525   -1.1266 C   0  0  0  0  0  0  0  0  0  0  0  0
    0.1637    0.2928   -1.6684 C   0  0  0  0  0  0  0  0  0  0  0  0
   -0.9286    1.1256   -1.6893 O   0  0  0  0  0  0  0  0  0  0  0  0
    0.1417   -0.6593   -0.5722 C   0  0  0  0  0  0  0  0  0  0  0  0
    0.9417   -1.6295   -0.3802 O   0  0  0  0  0  0  0  0  0  0  0  0
   -0.8730   -0.5146    0.3985 O   0  0  0  0  0  0  0  0  0  0  0  0
   -1.0784   -1.3120    1.4830 C   0  0  0  0  0  0  0  0  0  0  0  0
    2.7116    2.7890   -0.4217 H   0  0  0  0  0  0  0  0  0  0  0  0
    0.4893    0.0162   -2.6337 H   0  0  0  0  0  0  0  0  0  0  0  0
   -1.3394    1.1685   -0.7730 H   0  0  0  0  0  0  0  0  0  0  0  0
   -1.9518   -2.0061    1.2532 H   0  0  0  0  0  0  0  0  0  0  0  0
   -1.3862   -0.7514    2.4076 H   0  0  0  0  0  0  0  0  0  0  0  0
   -0.2338   -2.0012    1.6542 H   0  0  0  0  0  0  0  0  0  0  0  0
  1  2  3  0
  2  3  1  0
  3  4  1  0
  3  5  1  0
  5  6  2  0
  5  7  1  0
  7  8  1  0
  1  9  1  0
  3 10  1  0
  4 11  1  0
  8 12  1  0
  8 13  1  0
  8 14  1  0
M  END
