
     RDKit          3D

 21 21  0  0  0  0  0  0  0  0999 V2000
    3.1685   -0.2347   -1.4888 C   0  0  0  0  0  0  0  0  0  0  0  0
    2.1155   -0.3494   -0.9714 C   0  0  0  0  0  0  0  0  0  0  0  0
    1.0449   -0.4703   -0.4617 C   0  0  0  0  0  0  0  0  0  0  0  0
   -0.2988   -0.6473    0.1663 C   0  0  0  0  0  0  0  0  0  0  0  0
   -1.3350   -0.8362   -1.0041 C   0  0  0  0  0  0  0  0  0  0  0  0
   -2.5883   -1.0016   -0.5882 O   0  0  0  0  0  0  0  0  0  0  0  0
   -0.8014    0.4787    0.9350 C   0  0  0  0  0  0  0  0  0  0  0  0
   -0.1549    1.0350    2.1917 C   0  0  0  0  0  0  0  0  0  0  0  0
    0.0770    1.7264    0.9376 C   0  0  0  0  0  0  0  0  0  0  0  0
    4.1765   -0.1326   -1.9876 H   0  0  0  0  0  0  0  0  0  0  0  0
    0.7809   -1.7170   -1.1445 H   0  0  0  0  0  0  0  0  0  0  0  0
    0.3925   -0.0278   -1.6874 H   0  0  0  0  0  0  0  0  0  0  0  0
   -0.2889   -1.6592    0.6082 H   0  0  0  0  0  0  0  0  0  0  0  0
   -1.2365    0.0253   -1.6748 H   0  0  0  0  0  0  0  0  0  0  0  0
   -0.9398   -1.6919   -1.6272 H   0  0  0  0  0  0  0  0  0  0  0  0
   -2.6336   -1.5083    0.2986 H   0  0  0  0  0  0  0  0  0  0  0  0
   -1.8875    0.7790    0.7749 H   0  0  0  0  0  0  0  0  0  0  0  0
   -0.8395    1.4228    2.9890 H   0  0  0  0  0  0  0  0  0  0  0  0
    0.6842    0.4489    2.6106 H   0  0  0  0  0  0  0  0  0  0  0  0
   -0.4463    2.6922    0.7510 H   0  0  0  0  0  0  0  0  0  0  0  0
    1.0108    1.6678    0.3727 H   0  0  0  0  0  0  0  0  0  0  0  0
  1  2  3  0
  2  3  1  0
  3  4  1  0
  4  5  1  0
  5  6  1  0
  4  7  1  0
  7  8  1  0
  8  9  1  0
  9  7  1  0
  1 10  1  0
  3 11  1  0
  3 12  1  0
  4 13  1  0
  5 14  1  0
  5 15  1  0
  6 16  1  0
  7 17  1  0
  8 18  1  0
  8 19  1  0
  9 20  1  0
  9 21  1  0
M  END
