
     RDKit          3D

 19 20  0  0  0  0  0  0  0  0999 V2000
    3.3937   -0.0508    0.7079 C   0  0  0  0  0  0  0  0  0  0  0  0
    2.3139   -0.5672    0.6551 C   0  0  0  0  0  0  0  0  0  0  0  0
    0.9844   -1.1749    0.5881 C   0  0  0  0  0  0  0  0  0  0  0  0
    0.0634   -0.2669   -0.1558 C   0  0  0  0  0  0  0  0  0  0  0  0
   -1.3356   -0.7272   -0.3203 C   0  0  0  0  0  0  0  0  0  0  0  0
   -1.8644    0.6775   -0.0162 C   0  0  0  0  0  0  0  0  0  0  0  0
   -2.8472    0.7354    0.9385 O   0  0  0  0  0  0  0  0  0  0  0  0
   -0.4559    0.9929    0.4824 C   0  0  0  0  0  0  0  0  0  0  0  0
    0.5700    1.0387   -0.5689 C   0  0  0  0  0  0  0  0  0  0  0  0
    4.3624    0.3921    0.7546 H   0  0  0  0  0  0  0  0  0  0  0  0
    1.0950   -2.1085   -0.0330 H   0  0  0  0  0  0  0  0  0  0  0  0
    0.6153   -1.4877    1.5828 H   0  0  0  0  0  0  0  0  0  0  0  0
   -1.6352   -1.3806    0.5488 H   0  0  0  0  0  0  0  0  0  0  0  0
   -1.6251   -1.1330   -1.2898 H   0  0  0  0  0  0  0  0  0  0  0  0
   -2.0785    1.2661   -0.9323 H   0  0  0  0  0  0  0  0  0  0  0  0
   -3.1309   -0.1743    1.1769 H   0  0  0  0  0  0  0  0  0  0  0  0
   -0.2838    1.1974    1.5342 H   0  0  0  0  0  0  0  0  0  0  0  0
    0.2778    1.4571   -1.5634 H   0  0  0  0  0  0  0  0  0  0  0  0
    1.5806    1.3137   -0.2697 H   0  0  0  0  0  0  0  0  0  0  0  0
  1  2  3  0
  2  3  1  0
  3  4  1  0
  4  5  1  0
  5  6  1  0
  6  7  1  0
  6  8  1  0
  8  9  1  0
  8  4  1  0
  9  4  1  0
  1 10  1  0
  3 11  1  0
  3 12  1  0
  5 13  1  0
  5 14  1  0
  6 15  1  0
  7 16  1  0
  8 17  1  0
  9 18  1  0
  9 19  1  0
M  END
