
     RDKit          3D

 17 16  0  0  0  0  0  0  0  0999 V2000
    2.5094    2.6064   -1.6359 C   0  0  0  0  0  0  0  0  0  0  0  0
    2.0500    1.2545   -1.3943 C   0  0  0  0  0  0  0  0  0  0  0  0
    1.6699    0.1051   -1.1699 C   0  0  0  0  0  0  0  0  0  0  0  0
    0.5503    0.0869   -0.2178 O   0  0  0  0  0  0  0  0  0  0  0  0
   -0.0425   -1.0202    0.2672 C   0  0  0  0  0  0  0  0  0  0  0  0
    0.4248   -2.1799   -0.1347 O   0  0  0  0  0  0  0  0  0  0  0  0
   -1.1743   -1.0555    1.1892 C   0  0  0  0  0  0  0  0  0  0  0  0
   -2.3808   -0.4716    0.4331 C   0  0  0  0  0  0  0  0  0  0  0  0
   -1.0649   -0.0738    2.2555 O   0  0  0  0  0  0  0  0  0  0  0  0
    2.8741    3.7065   -1.8130 H   0  0  0  0  0  0  0  0  0  0  0  0
    1.8258   -0.7497   -1.7756 H   0  0  0  0  0  0  0  0  0  0  0  0
    2.5961   -0.1960   -0.3071 H   0  0  0  0  0  0  0  0  0  0  0  0
   -1.3173   -1.9627    1.7252 H   0  0  0  0  0  0  0  0  0  0  0  0
   -2.9520    0.2410    1.0402 H   0  0  0  0  0  0  0  0  0  0  0  0
   -3.0374   -1.2236    0.0096 H   0  0  0  0  0  0  0  0  0  0  0  0
   -1.9923    0.2035   -0.4156 H   0  0  0  0  0  0  0  0  0  0  0  0
   -0.5388    0.7291    1.9441 H   0  0  0  0  0  0  0  0  0  0  0  0
  1  2  3  0
  2  3  1  0
  3  4  1  0
  4  5  1  0
  5  6  2  0
  5  7  1  0
  7  8  1  0
  7  9  1  0
  1 10  1  0
  3 11  1  0
  3 12  1  0
  7 13  1  0
  8 14  1  0
  8 15  1  0
  8 16  1  0
  9 17  1  0
M  END
