
     RDKit          3D

 23 23  0  0  0  0  0  0  0  0999 V2000
    2.1289   -1.2128   -1.8615 C   0  0  0  0  0  0  0  0  0  0  0  0
    1.7005   -0.7485   -0.9817 C   0  0  0  0  0  0  0  0  0  0  0  0
    1.0969   -0.1038    0.2917 C   0  0  0  0  0  0  0  0  0  0  0  0
    1.9032   -0.0501    1.4341 C   0  0  0  0  0  0  0  0  0  0  0  0
   -0.0175   -1.3062    0.4831 C   0  0  0  0  0  0  0  0  0  0  0  0
   -1.3220   -0.7601    0.0847 C   0  0  0  0  0  0  0  0  0  0  0  0
   -1.1453    0.7279    0.1986 C   0  0  0  0  0  0  0  0  0  0  0  0
   -2.2213    1.3909   -0.6334 C   0  0  0  0  0  0  0  0  0  0  0  0
    0.2560    1.0254   -0.2106 C   0  0  0  0  0  0  0  0  0  0  0  0
    2.6078   -1.7549   -2.8773 H   0  0  0  0  0  0  0  0  0  0  0  0
    2.7889    0.5960    1.4304 H   0  0  0  0  0  0  0  0  0  0  0  0
    2.1846   -1.0585    1.9130 H   0  0  0  0  0  0  0  0  0  0  0  0
    1.2224    0.4202    2.2819 H   0  0  0  0  0  0  0  0  0  0  0  0
    0.3057   -1.9705   -0.4264 H   0  0  0  0  0  0  0  0  0  0  0  0
    0.1028   -1.8305    1.3805 H   0  0  0  0  0  0  0  0  0  0  0  0
   -2.1637   -1.1305    0.7394 H   0  0  0  0  0  0  0  0  0  0  0  0
   -1.5939   -1.0004   -0.9909 H   0  0  0  0  0  0  0  0  0  0  0  0
   -1.2900    0.9606    1.2977 H   0  0  0  0  0  0  0  0  0  0  0  0
   -2.2389    2.4898   -0.4670 H   0  0  0  0  0  0  0  0  0  0  0  0
   -3.1959    0.9366   -0.2723 H   0  0  0  0  0  0  0  0  0  0  0  0
   -2.0292    1.2987   -1.7062 H   0  0  0  0  0  0  0  0  0  0  0  0
    0.6019    1.9681    0.2411 H   0  0  0  0  0  0  0  0  0  0  0  0
    0.3180    1.1126   -1.3491 H   0  0  0  0  0  0  0  0  0  0  0  0
  1  2  3  0
  2  3  1  0
  3  4  1  0
  3  5  1  0
  5  6  1  0
  6  7  1  0
  7  8  1  0
  7  9  1  0
  9  3  1  0
  1 10  1  0
  4 11  1  0
  4 12  1  0
  4 13  1  0
  5 14  1  0
  5 15  1  0
  6 16  1  0
  6 17  1  0
  7 18  1  0
  8 19  1  0
  8 20  1  0
  8 21  1  0
  9 22  1  0
  9 23  1  0
M  END
