
     RDKit          3D

 17 17  0  0  0  0  0  0  0  0999 V2000
    1.6279    1.8879    0.9665 C   0  0  0  0  0  0  0  0  0  0  0  0
    1.6777    0.6750    0.8935 C   0  0  0  0  0  0  0  0  0  0  0  0
    1.7162   -0.7172    0.8253 C   0  0  0  0  0  0  0  0  0  0  0  0
    2.5405   -1.2839    1.6978 O   0  0  0  0  0  0  0  0  0  0  0  0
    0.9987   -1.6145   -0.0449 C   0  0  0  0  0  0  0  0  0  0  0  0
    0.1282   -0.9583   -0.9274 O   0  0  0  0  0  0  0  0  0  0  0  0
   -0.8141   -0.2326   -0.1863 C   0  0  0  0  0  0  0  0  0  0  0  0
   -1.1877    1.0915   -0.7922 C   0  0  0  0  0  0  0  0  0  0  0  0
   -2.1868    0.0072   -0.7188 C   0  0  0  0  0  0  0  0  0  0  0  0
    1.5756    2.9645    1.0143 H   0  0  0  0  0  0  0  0  0  0  0  0
    0.3635   -2.3665    0.4945 H   0  0  0  0  0  0  0  0  0  0  0  0
    1.7017   -2.1735   -0.7419 H   0  0  0  0  0  0  0  0  0  0  0  0
   -0.6994   -0.3070    0.9334 H   0  0  0  0  0  0  0  0  0  0  0  0
   -1.1759    1.9269   -0.0463 H   0  0  0  0  0  0  0  0  0  0  0  0
   -0.7650    1.3914   -1.7699 H   0  0  0  0  0  0  0  0  0  0  0  0
   -2.5258   -0.4283   -1.6796 H   0  0  0  0  0  0  0  0  0  0  0  0
   -2.9751    0.1373    0.0819 H   0  0  0  0  0  0  0  0  0  0  0  0
  1  2  3  0
  2  3  1  0
  3  4  2  0
  3  5  1  0
  5  6  1  0
  6  7  1  0
  7  8  1  0
  8  9  1  0
  9  7  1  0
  1 10  1  0
  5 11  1  0
  5 12  1  0
  7 13  1  0
  8 14  1  0
  8 15  1  0
  9 16  1  0
  9 17  1  0
M  END
