
     RDKit          3D

 25 24  0  0  0  0  0  0  0  0999 V2000
    2.2753    2.3373    1.0501 C   0  0  0  0  0  0  0  0  0  0  0  0
    1.5405    1.8736    0.2186 C   0  0  0  0  0  0  0  0  0  0  0  0
    0.6313    1.3070   -0.7916 C   0  0  0  0  0  0  0  0  0  0  0  0
    0.0412   -0.0011   -0.3256 C   0  0  0  0  0  0  0  0  0  0  0  0
    1.0528   -1.0661   -0.0433 C   0  0  0  0  0  0  0  0  0  0  0  0
   -0.6720    0.3174    0.9836 C   0  0  0  0  0  0  0  0  0  0  0  0
   -1.3267   -0.8639    1.6144 C   0  0  0  0  0  0  0  0  0  0  0  0
   -0.9765   -0.4463   -1.3453 C   0  0  0  0  0  0  0  0  0  0  0  0
   -0.4059   -0.6612   -2.7049 C   0  0  0  0  0  0  0  0  0  0  0  0
    2.9360    2.7721    1.7910 H   0  0  0  0  0  0  0  0  0  0  0  0
   -0.2241    2.0096   -0.8858 H   0  0  0  0  0  0  0  0  0  0  0  0
    1.1517    1.2475   -1.7578 H   0  0  0  0  0  0  0  0  0  0  0  0
    0.6835   -1.6730    0.8074 H   0  0  0  0  0  0  0  0  0  0  0  0
    1.9993   -0.5504    0.2665 H   0  0  0  0  0  0  0  0  0  0  0  0
    1.2706   -1.6959   -0.9315 H   0  0  0  0  0  0  0  0  0  0  0  0
   -1.3753    1.1441    0.8821 H   0  0  0  0  0  0  0  0  0  0  0  0
    0.1600    0.6448    1.6767 H   0  0  0  0  0  0  0  0  0  0  0  0
   -1.5163   -1.7016    0.9313 H   0  0  0  0  0  0  0  0  0  0  0  0
   -0.7744   -1.2192    2.5231 H   0  0  0  0  0  0  0  0  0  0  0  0
   -2.3225   -0.5312    2.0290 H   0  0  0  0  0  0  0  0  0  0  0  0
   -1.5235   -1.3692   -1.0560 H   0  0  0  0  0  0  0  0  0  0  0  0
   -1.7109    0.4146   -1.4024 H   0  0  0  0  0  0  0  0  0  0  0  0
    0.6266   -0.3407   -2.8530 H   0  0  0  0  0  0  0  0  0  0  0  0
   -0.4537   -1.7602   -2.9828 H   0  0  0  0  0  0  0  0  0  0  0  0
   -1.0870   -0.1881   -3.4750 H   0  0  0  0  0  0  0  0  0  0  0  0
  1  2  3  0
  2  3  1  0
  3  4  1  0
  4  5  1  0
  4  6  1  0
  6  7  1  0
  4  8  1  0
  8  9  1  0
  1 10  1  0
  3 11  1  0
  3 12  1  0
  5 13  1  0
  5 14  1  0
  5 15  1  0
  6 16  1  0
  6 17  1  0
  7 18  1  0
  7 19  1  0
  7 20  1  0
  8 21  1  0
  8 22  1  0
  9 23  1  0
  9 24  1  0
  9 25  1  0
M  END
