
     RDKit          3D

 14 13  0  0  0  0  0  0  0  0999 V2000
   -3.2629    0.5945    0.0126 C   0  0  0  0  0  0  0  0  0  0  0  0
   -2.1155    0.6053   -0.0090 C   0  0  0  0  0  0  0  0  0  0  0  0
   -0.5658    0.6286   -0.0145 C   0  0  0  0  0  0  0  0  0  0  0  0
   -0.1743   -0.8109   -0.0804 C   0  0  0  0  0  0  0  0  0  0  0  0
    1.3654   -0.9218   -0.2429 C   0  0  0  0  0  0  0  0  0  0  0  0
    1.6202   -2.1625   -0.7473 O   0  0  0  0  0  0  0  0  0  0  0  0
    2.1716   -0.1600   -0.0068 C   0  0  0  0  0  0  0  0  0  0  0  0
    3.1284    0.7366    0.2959 C   0  0  0  0  0  0  0  0  0  0  0  0
   -4.4113    0.5834    0.0388 H   0  0  0  0  0  0  0  0  0  0  0  0
   -0.3269    1.1447   -0.9355 H   0  0  0  0  0  0  0  0  0  0  0  0
   -0.2028    1.0609    0.8910 H   0  0  0  0  0  0  0  0  0  0  0  0
   -0.3470   -1.3158    0.9282 H   0  0  0  0  0  0  0  0  0  0  0  0
   -0.6500   -1.3424   -0.8753 H   0  0  0  0  0  0  0  0  0  0  0  0
    3.7708    1.3595    0.5072 H   0  0  0  0  0  0  0  0  0  0  0  0
  1  2  3  0
  2  3  1  0
  3  4  1  0
  4  5  1  0
  5  6  2  0
  5  7  1  0
  7  8  3  0
  1  9  1  0
  3 10  1  0
  3 11  1  0
  4 12  1  0
  4 13  1  0
  8 14  1  0
M  END
