
     RDKit          3D

 23 23  0  0  0  0  0  0  0  0999 V2000
    1.2766    2.1394    1.6213 C   0  0  0  0  0  0  0  0  0  0  0  0
    1.2521    1.3689    0.6937 C   0  0  0  0  0  0  0  0  0  0  0  0
    1.2102    0.4114   -0.4238 C   0  0  0  0  0  0  0  0  0  0  0  0
    2.5557   -0.1898   -0.7911 C   0  0  0  0  0  0  0  0  0  0  0  0
    0.3668    0.7658   -1.5949 C   0  0  0  0  0  0  0  0  0  0  0  0
   -0.0000   -0.3790   -0.6521 C   0  0  0  0  0  0  0  0  0  0  0  0
   -1.2627   -0.1945    0.1108 C   0  0  0  0  0  0  0  0  0  0  0  0
   -2.2823   -1.2075   -0.4279 C   0  0  0  0  0  0  0  0  0  0  0  0
   -1.1253   -0.4268    1.5822 C   0  0  0  0  0  0  0  0  0  0  0  0
    1.3163    2.8228    2.4453 H   0  0  0  0  0  0  0  0  0  0  0  0
    3.0723    0.5607   -1.4255 H   0  0  0  0  0  0  0  0  0  0  0  0
    2.4026   -1.1595   -1.2989 H   0  0  0  0  0  0  0  0  0  0  0  0
    3.1298   -0.2687    0.1533 H   0  0  0  0  0  0  0  0  0  0  0  0
   -0.2256    1.7014   -1.5206 H   0  0  0  0  0  0  0  0  0  0  0  0
    0.6644    0.4755   -2.6093 H   0  0  0  0  0  0  0  0  0  0  0  0
    0.1696   -1.4101   -1.0531 H   0  0  0  0  0  0  0  0  0  0  0  0
   -1.6894    0.8182   -0.0674 H   0  0  0  0  0  0  0  0  0  0  0  0
   -2.1991   -2.1604    0.1396 H   0  0  0  0  0  0  0  0  0  0  0  0
   -2.0362   -1.4797   -1.4899 H   0  0  0  0  0  0  0  0  0  0  0  0
   -3.3015   -0.8247   -0.3920 H   0  0  0  0  0  0  0  0  0  0  0  0
   -1.6105   -1.3533    1.8839 H   0  0  0  0  0  0  0  0  0  0  0  0
   -0.0584   -0.4151    1.9171 H   0  0  0  0  0  0  0  0  0  0  0  0
   -1.6254    0.4048    2.1460 H   0  0  0  0  0  0  0  0  0  0  0  0
  1  2  3  0
  2  3  1  0
  3  4  1  0
  3  5  1  0
  5  6  1  0
  6  7  1  0
  7  8  1  0
  7  9  1  0
  6  3  1  0
  1 10  1  0
  4 11  1  0
  4 12  1  0
  4 13  1  0
  5 14  1  0
  5 15  1  0
  6 16  1  0
  7 17  1  0
  8 18  1  0
  8 19  1  0
  8 20  1  0
  9 21  1  0
  9 22  1  0
  9 23  1  0
M  END
