
     RDKit          3D

 17 16  0  0  0  0  0  0  0  0999 V2000
    1.7215   -2.5916    0.8132 C   0  0  0  0  0  0  0  0  0  0  0  0
    1.5043   -1.6774    0.1792 C   0  0  0  0  0  0  0  0  0  0  0  0
    1.2539   -0.6261   -0.5780 C   0  0  0  0  0  0  0  0  0  0  0  0
    2.6270    0.0799   -0.9611 C   0  0  0  0  0  0  0  0  0  0  0  0
    2.8546    1.0366   -0.2076 O   0  0  0  0  0  0  0  0  0  0  0  0
    0.4161    0.4956   -0.2781 C   0  0  0  0  0  0  0  0  0  0  0  0
   -0.8825    0.6553   -0.0787 C   0  0  0  0  0  0  0  0  0  0  0  0
   -2.0578    0.8214    0.1034 C   0  0  0  0  0  0  0  0  0  0  0  0
   -3.6186    1.0133    0.3425 C   0  0  0  0  0  0  0  0  0  0  0  0
    1.9557   -3.6130    1.4956 H   0  0  0  0  0  0  0  0  0  0  0  0
    0.9413   -1.0477   -1.6718 H   0  0  0  0  0  0  0  0  0  0  0  0
    3.2070   -0.2354   -1.7284 H   0  0  0  0  0  0  0  0  0  0  0  0
    1.0129    1.0943    0.6213 H   0  0  0  0  0  0  0  0  0  0  0  0
    0.7531    1.3297   -1.0970 H   0  0  0  0  0  0  0  0  0  0  0  0
   -3.7021    1.9103    1.0079 H   0  0  0  0  0  0  0  0  0  0  0  0
   -4.0291    1.1688   -0.6508 H   0  0  0  0  0  0  0  0  0  0  0  0
   -3.9572    0.1858    0.9454 H   0  0  0  0  0  0  0  0  0  0  0  0
  1  2  3  0
  2  3  1  0
  3  4  1  0
  4  5  2  0
  3  6  1  0
  6  7  1  0
  7  8  3  0
  8  9  1  0
  1 10  1  0
  3 11  1  0
  4 12  1  0
  6 13  1  0
  6 14  1  0
  9 15  1  0
  9 16  1  0
  9 17  1  0
M  END
