
     RDKit          3D

 17 18  0  0  0  0  0  0  0  0999 V2000
    2.7449   -0.2775   -0.4779 C   0  0  0  0  0  0  0  0  0  0  0  0
    1.7666   -0.0690    0.2088 C   0  0  0  0  0  0  0  0  0  0  0  0
    0.5738    0.1594    1.0468 C   0  0  0  0  0  0  0  0  0  0  0  0
   -0.0175    1.4395    0.6091 C   0  0  0  0  0  0  0  0  0  0  0  0
    0.0881    2.5097    1.1484 O   0  0  0  0  0  0  0  0  0  0  0  0
   -0.7690    1.1484   -0.6287 C   0  0  0  0  0  0  0  0  0  0  0  0
   -1.4368   -0.1677   -0.2722 C   0  0  0  0  0  0  0  0  0  0  0  0
   -0.6894   -1.3975   -0.6141 C   0  0  0  0  0  0  0  0  0  0  0  0
   -0.4896   -0.8439    0.7273 C   0  0  0  0  0  0  0  0  0  0  0  0
    3.5999   -0.4767   -1.0708 H   0  0  0  0  0  0  0  0  0  0  0  0
    0.8364    0.1735    2.1227 H   0  0  0  0  0  0  0  0  0  0  0  0
   -0.1029    1.0317   -1.5149 H   0  0  0  0  0  0  0  0  0  0  0  0
   -1.5342    1.9263   -0.8557 H   0  0  0  0  0  0  0  0  0  0  0  0
   -2.4795   -0.1571    0.0416 H   0  0  0  0  0  0  0  0  0  0  0  0
   -1.2240   -2.3778   -0.6707 H   0  0  0  0  0  0  0  0  0  0  0  0
    0.0812   -1.2827   -1.4067 H   0  0  0  0  0  0  0  0  0  0  0  0
   -0.9479   -1.3386    1.6071 H   0  0  0  0  0  0  0  0  0  0  0  0
  1  2  3  0
  2  3  1  0
  3  4  1  0
  4  5  2  0
  4  6  1  0
  6  7  1  0
  7  8  1  0
  8  9  1  0
  9  3  1  0
  9  7  1  0
  1 10  1  0
  3 11  1  0
  6 12  1  0
  6 13  1  0
  7 14  1  0
  8 15  1  0
  8 16  1  0
  9 17  1  0
M  END
