
     RDKit          3D

 17 18  0  0  0  0  0  0  0  0999 V2000
    2.3240    1.7708    1.3173 C   0  0  0  0  0  0  0  0  0  0  0  0
    1.4738    1.0490    0.8014 C   0  0  0  0  0  0  0  0  0  0  0  0
    0.6141    0.2983    0.2813 C   0  0  0  0  0  0  0  0  0  0  0  0
    0.9020    0.5399   -1.3109 O   0  0  0  0  0  0  0  0  0  0  0  0
    0.7422   -1.1570    0.2059 C   0  0  0  0  0  0  0  0  0  0  0  0
   -0.2857   -1.6024   -0.4549 C   0  0  0  0  0  0  0  0  0  0  0  0
   -1.1727   -0.4242   -0.8452 C   0  0  0  0  0  0  0  0  0  0  0  0
   -2.0980   -0.1338    0.3006 C   0  0  0  0  0  0  0  0  0  0  0  0
   -0.8750    0.6373    0.1776 C   0  0  0  0  0  0  0  0  0  0  0  0
    3.2052    2.5378    1.8386 H   0  0  0  0  0  0  0  0  0  0  0  0
    1.7828    0.0533   -1.3130 H   0  0  0  0  0  0  0  0  0  0  0  0
    1.5449   -1.8323    0.6193 H   0  0  0  0  0  0  0  0  0  0  0  0
   -0.4568   -2.6184   -0.6665 H   0  0  0  0  0  0  0  0  0  0  0  0
   -1.3050   -0.2002   -1.8623 H   0  0  0  0  0  0  0  0  0  0  0  0
   -3.0662    0.3223    0.0020 H   0  0  0  0  0  0  0  0  0  0  0  0
   -2.2757   -0.9863    1.0099 H   0  0  0  0  0  0  0  0  0  0  0  0
   -1.0537    1.7459   -0.1009 H   0  0  0  0  0  0  0  0  0  0  0  0
  1  2  3  0
  2  3  1  0
  3  4  1  0
  3  5  1  0
  5  6  2  0
  6  7  1  0
  7  8  1  0
  8  9  1  0
  9  3  1  0
  9  7  1  0
  1 10  1  0
  4 11  1  0
  5 12  1  0
  6 13  1  0
  7 14  1  0
  8 15  1  0
  8 16  1  0
  9 17  1  0
M  END
