
     RDKit          3D

 17 19  0  0  0  0  0  0  0  0999 V2000
    2.6907    0.7138    1.3663 C   0  0  0  0  0  0  0  0  0  0  0  0
    1.7318    0.4444    0.6904 C   0  0  0  0  0  0  0  0  0  0  0  0
    0.5742    0.1383   -0.1428 C   0  0  0  0  0  0  0  0  0  0  0  0
   -0.4082    1.2224   -0.4761 C   0  0  0  0  0  0  0  0  0  0  0  0
   -1.7597    0.5822   -0.6363 C   0  0  0  0  0  0  0  0  0  0  0  0
   -2.3758   -0.0017    0.4572 O   0  0  0  0  0  0  0  0  0  0  0  0
   -1.6233   -0.8689   -0.2883 C   0  0  0  0  0  0  0  0  0  0  0  0
   -0.1629   -1.1066    0.0477 C   0  0  0  0  0  0  0  0  0  0  0  0
    0.7475   -0.9630   -1.1503 C   0  0  0  0  0  0  0  0  0  0  0  0
    3.5437    0.9490    1.9744 H   0  0  0  0  0  0  0  0  0  0  0  0
   -0.1249    1.6349   -1.4700 H   0  0  0  0  0  0  0  0  0  0  0  0
   -0.3912    2.0464    0.2397 H   0  0  0  0  0  0  0  0  0  0  0  0
   -2.4022    0.8901   -1.4932 H   0  0  0  0  0  0  0  0  0  0  0  0
   -2.1194   -1.5880   -0.9972 H   0  0  0  0  0  0  0  0  0  0  0  0
    0.0350   -1.8471    0.8204 H   0  0  0  0  0  0  0  0  0  0  0  0
    0.3267   -0.7596   -2.1416 H   0  0  0  0  0  0  0  0  0  0  0  0
    1.7180   -1.4867   -1.1650 H   0  0  0  0  0  0  0  0  0  0  0  0
  1  2  3  0
  2  3  1  0
  3  4  1  0
  4  5  1  0
  5  6  1  0
  6  7  1  0
  7  8  1  0
  8  9  1  0
  8  3  1  0
  9  3  1  0
  7  5  1  0
  1 10  1  0
  4 11  1  0
  4 12  1  0
  5 13  1  0
  7 14  1  0
  8 15  1  0
  9 16  1  0
  9 17  1  0
M  END
