
     RDKit          3D

 18 18  0  0  0  0  0  0  0  0999 V2000
    2.7106    1.4063    0.6335 C   0  0  0  0  0  0  0  0  0  0  0  0
    1.9135    0.3378    0.8593 C   0  0  0  0  0  0  0  0  0  0  0  0
    1.1383   -0.7038    1.0750 C   0  0  0  0  0  0  0  0  0  0  0  0
   -0.1569   -0.5179    0.1261 C   0  0  0  0  0  0  0  0  0  0  0  0
   -1.2420   -1.4481    0.3144 C   0  0  0  0  0  0  0  0  0  0  0  0
    0.4389   -0.5651   -1.1860 O   0  0  0  0  0  0  0  0  0  0  0  0
   -0.1418    0.6012   -0.8210 C   0  0  0  0  0  0  0  0  0  0  0  0
   -1.2453    1.0706   -1.6903 C   0  0  0  0  0  0  0  0  0  0  0  0
    3.3568    2.2759    0.4672 H   0  0  0  0  0  0  0  0  0  0  0  0
    0.6890   -0.7463    2.1038 H   0  0  0  0  0  0  0  0  0  0  0  0
    1.5191   -1.6841    0.7921 H   0  0  0  0  0  0  0  0  0  0  0  0
   -1.0486   -2.5348    0.2510 H   0  0  0  0  0  0  0  0  0  0  0  0
   -1.5433   -1.3235    1.4324 H   0  0  0  0  0  0  0  0  0  0  0  0
   -2.1981   -1.2224   -0.2216 H   0  0  0  0  0  0  0  0  0  0  0  0
    0.4510    1.4838   -0.4083 H   0  0  0  0  0  0  0  0  0  0  0  0
   -2.2264    1.2281   -1.1471 H   0  0  0  0  0  0  0  0  0  0  0  0
   -0.9582    2.0566   -2.1594 H   0  0  0  0  0  0  0  0  0  0  0  0
   -1.4568    0.2857   -2.4858 H   0  0  0  0  0  0  0  0  0  0  0  0
  1  2  3  0
  2  3  1  0
  3  4  1  0
  4  5  1  0
  4  6  1  0
  6  7  1  0
  7  8  1  0
  7  4  1  0
  1  9  1  0
  3 10  1  0
  3 11  1  0
  5 12  1  0
  5 13  1  0
  5 14  1  0
  7 15  1  0
  8 16  1  0
  8 17  1  0
  8 18  1  0
M  END
