
     RDKit          3D

 11 10  0  0  0  0  0  0  0  0999 V2000
   -2.5944    1.9412    0.4646 C   0  0  0  0  0  0  0  0  0  0  0  0
   -2.1849    0.8308    0.4256 C   0  0  0  0  0  0  0  0  0  0  0  0
   -1.6752   -0.5907    0.3664 C   0  0  0  0  0  0  0  0  0  0  0  0
   -2.4083   -1.5018    0.4479 O   0  0  0  0  0  0  0  0  0  0  0  0
   -0.2192   -0.6101    0.1953 C   0  0  0  0  0  0  0  0  0  0  0  0
    1.0355   -0.6243    0.0585 C   0  0  0  0  0  0  0  0  0  0  0  0
    2.4787   -0.6566   -0.0848 C   0  0  0  0  0  0  0  0  0  0  0  0
   -2.9820    2.9655    0.5135 H   0  0  0  0  0  0  0  0  0  0  0  0
    2.8377   -1.4509   -0.7788 H   0  0  0  0  0  0  0  0  0  0  0  0
    2.7639    0.3360   -0.5555 H   0  0  0  0  0  0  0  0  0  0  0  0
    2.9483   -0.6390    0.9117 H   0  0  0  0  0  0  0  0  0  0  0  0
  1  2  3  0
  2  3  1  0
  3  4  2  0
  3  5  1  0
  5  6  3  0
  6  7  1  0
  1  8  1  0
  7  9  1  0
  7 10  1  0
  7 11  1  0
M  END
