
     RDKit          3D

  9  8  0  0  0  0  0  0  0  0999 V2000
    1.3847   -1.5887    0.4202 C   0  0  0  0  0  0  0  0  0  0  0  0
    0.6406   -0.7698   -0.0597 C   0  0  0  0  0  0  0  0  0  0  0  0
   -0.2797    0.2075   -0.6405 C   0  0  0  0  0  0  0  0  0  0  0  0
   -0.8016    1.1079    0.4040 C   0  0  0  0  0  0  0  0  0  0  0  0
   -1.5875    1.9920    0.1017 O   0  0  0  0  0  0  0  0  0  0  0  0
    2.0366   -2.3293    0.8582 H   0  0  0  0  0  0  0  0  0  0  0  0
   -1.1421   -0.3873   -1.0633 H   0  0  0  0  0  0  0  0  0  0  0  0
    0.2203    0.8065   -1.4451 H   0  0  0  0  0  0  0  0  0  0  0  0
   -0.4713    0.9612    1.4245 H   0  0  0  0  0  0  0  0  0  0  0  0
  1  2  3  0
  2  3  1  0
  3  4  1  0
  4  5  2  0
  1  6  1  0
  3  7  1  0
  3  8  1  0
  4  9  1  0
M  END
