
     RDKit          3D

 17 18  0  0  0  0  0  0  0  0999 V2000
    2.8072    1.1281   -0.4569 C   0  0  0  0  0  0  0  0  0  0  0  0
    1.7398    0.5646   -0.4956 C   0  0  0  0  0  0  0  0  0  0  0  0
    0.4391   -0.0973   -0.5437 C   0  0  0  0  0  0  0  0  0  0  0  0
    0.4229   -1.5089   -0.8903 C   0  0  0  0  0  0  0  0  0  0  0  0
    0.1599   -1.1825    0.5245 C   0  0  0  0  0  0  0  0  0  0  0  0
   -1.2173   -0.5962    0.7694 C   0  0  0  0  0  0  0  0  0  0  0  0
   -0.6567    0.6544    0.1215 C   0  0  0  0  0  0  0  0  0  0  0  0
   -1.5735    1.4198   -0.7068 C   0  0  0  0  0  0  0  0  0  0  0  0
   -2.7521    1.4257   -0.4599 O   0  0  0  0  0  0  0  0  0  0  0  0
    3.7444    1.6301   -0.4070 H   0  0  0  0  0  0  0  0  0  0  0  0
    1.3845   -2.0003   -1.1017 H   0  0  0  0  0  0  0  0  0  0  0  0
   -0.4385   -2.0054   -1.4123 H   0  0  0  0  0  0  0  0  0  0  0  0
    0.9005   -1.2130    1.3114 H   0  0  0  0  0  0  0  0  0  0  0  0
   -1.5056   -0.4785    1.8185 H   0  0  0  0  0  0  0  0  0  0  0  0
   -1.9842   -1.0337    0.0951 H   0  0  0  0  0  0  0  0  0  0  0  0
   -0.2629    1.3117    0.9535 H   0  0  0  0  0  0  0  0  0  0  0  0
   -1.2074    1.9815   -1.5391 H   0  0  0  0  0  0  0  0  0  0  0  0
  1  2  3  0
  2  3  1  0
  3  4  1  0
  4  5  1  0
  5  6  1  0
  6  7  1  0
  7  8  1  0
  8  9  2  0
  5  3  1  0
  7  3  1  0
  1 10  1  0
  4 11  1  0
  4 12  1  0
  5 13  1  0
  6 14  1  0
  6 15  1  0
  7 16  1  0
  8 17  1  0
M  END
