
     RDKit          3D

 21 21  0  0  0  0  0  0  0  0999 V2000
    3.4886    0.6165    0.6383 C   0  0  0  0  0  0  0  0  0  0  0  0
    2.4214    0.1193    0.9392 C   0  0  0  0  0  0  0  0  0  0  0  0
    1.1383   -0.4529    1.3088 C   0  0  0  0  0  0  0  0  0  0  0  0
    0.1146    0.6198    1.5528 O   0  0  0  0  0  0  0  0  0  0  0  0
   -0.0324   -0.4574    0.5414 C   0  0  0  0  0  0  0  0  0  0  0  0
   -1.1530   -1.3826    0.9870 C   0  0  0  0  0  0  0  0  0  0  0  0
   -0.2464    0.0752   -0.8239 C   0  0  0  0  0  0  0  0  0  0  0  0
   -1.6720   -0.1565   -1.2531 C   0  0  0  0  0  0  0  0  0  0  0  0
    0.0872    1.4953   -1.0733 C   0  0  0  0  0  0  0  0  0  0  0  0
    4.4007    1.0561    0.3671 H   0  0  0  0  0  0  0  0  0  0  0  0
    1.2215   -1.1275    2.1948 H   0  0  0  0  0  0  0  0  0  0  0  0
   -1.5502   -2.0042    0.1811 H   0  0  0  0  0  0  0  0  0  0  0  0
   -0.7717   -2.0102    1.8177 H   0  0  0  0  0  0  0  0  0  0  0  0
   -2.0056   -0.8227    1.4283 H   0  0  0  0  0  0  0  0  0  0  0  0
    0.4019   -0.5516   -1.5069 H   0  0  0  0  0  0  0  0  0  0  0  0
   -1.7661   -1.0987   -1.8566 H   0  0  0  0  0  0  0  0  0  0  0  0
   -2.0274    0.6508   -1.9302 H   0  0  0  0  0  0  0  0  0  0  0  0
   -2.3900   -0.2279   -0.4407 H   0  0  0  0  0  0  0  0  0  0  0  0
    1.1481    1.7320   -1.1506 H   0  0  0  0  0  0  0  0  0  0  0  0
   -0.4445    2.1298   -0.3094 H   0  0  0  0  0  0  0  0  0  0  0  0
   -0.3630    1.7974   -2.0463 H   0  0  0  0  0  0  0  0  0  0  0  0
  1  2  3  0
  2  3  1  0
  3  4  1  0
  4  5  1  0
  5  6  1  0
  5  7  1  0
  7  8  1  0
  7  9  1  0
  5  3  1  0
  1 10  1  0
  3 11  1  0
  6 12  1  0
  6 13  1  0
  6 14  1  0
  7 15  1  0
  8 16  1  0
  8 17  1  0
  8 18  1  0
  9 19  1  0
  9 20  1  0
  9 21  1  0
M  END
