
     RDKit          3D

 16 15  0  0  0  0  0  0  0  0999 V2000
    4.0452   -2.1781   -0.6820 C   0  0  0  0  0  0  0  0  0  0  0  0
    2.9294   -1.7295   -0.5280 C   0  0  0  0  0  0  0  0  0  0  0  0
    1.6209   -1.1993   -0.3700 C   0  0  0  0  0  0  0  0  0  0  0  0
    0.5113   -0.7366   -0.2328 C   0  0  0  0  0  0  0  0  0  0  0  0
   -0.8308   -0.1501   -0.0646 C   0  0  0  0  0  0  0  0  0  0  0  0
   -1.0549    0.9765   -1.0552 C   0  0  0  0  0  0  0  0  0  0  0  0
   -0.9777    0.3649    1.3424 C   0  0  0  0  0  0  0  0  0  0  0  0
   -2.2441    0.9054    1.4609 O   0  0  0  0  0  0  0  0  0  0  0  0
    5.0350   -2.5614   -0.8220 H   0  0  0  0  0  0  0  0  0  0  0  0
   -1.6019   -0.9337   -0.2248 H   0  0  0  0  0  0  0  0  0  0  0  0
   -1.3930    0.5450   -2.0043 H   0  0  0  0  0  0  0  0  0  0  0  0
   -0.0573    1.4973   -1.1440 H   0  0  0  0  0  0  0  0  0  0  0  0
   -1.8205    1.6687   -0.6571 H   0  0  0  0  0  0  0  0  0  0  0  0
   -0.2401    1.1056    1.6317 H   0  0  0  0  0  0  0  0  0  0  0  0
   -0.9448   -0.5341    2.0127 H   0  0  0  0  0  0  0  0  0  0  0  0
   -2.9767    0.2828    1.3372 H   0  0  0  0  0  0  0  0  0  0  0  0
  1  2  3  0
  2  3  1  0
  3  4  3  0
  4  5  1  0
  5  6  1  0
  5  7  1  0
  7  8  1  0
  1  9  1  0
  5 10  1  0
  6 11  1  0
  6 12  1  0
  6 13  1  0
  7 14  1  0
  7 15  1  0
  8 16  1  0
M  END
