
     RDKit          3D

 19 20  0  0  0  0  0  0  0  0999 V2000
    2.7715   -1.4651   -0.1127 C   0  0  0  0  0  0  0  0  0  0  0  0
    1.6825   -1.0236   -0.2715 C   0  0  0  0  0  0  0  0  0  0  0  0
    0.3338   -0.4964   -0.4853 C   0  0  0  0  0  0  0  0  0  0  0  0
   -0.2105   -0.5414   -1.7594 O   0  0  0  0  0  0  0  0  0  0  0  0
   -0.2951    0.8428   -1.7876 C   0  0  0  0  0  0  0  0  0  0  0  0
    0.1129    0.9602   -0.3473 C   0  0  0  0  0  0  0  0  0  0  0  0
   -0.4688   -0.0111    0.6375 C   0  0  0  0  0  0  0  0  0  0  0  0
    0.2109   -0.0232    1.9951 C   0  0  0  0  0  0  0  0  0  0  0  0
   -1.9844   -0.0879    0.6042 C   0  0  0  0  0  0  0  0  0  0  0  0
    3.7489   -1.8714    0.0145 H   0  0  0  0  0  0  0  0  0  0  0  0
   -1.3373    1.2415   -1.9197 H   0  0  0  0  0  0  0  0  0  0  0  0
    0.4442    1.2652   -2.5054 H   0  0  0  0  0  0  0  0  0  0  0  0
    0.8974    1.6502   -0.0258 H   0  0  0  0  0  0  0  0  0  0  0  0
    0.6700    0.9680    2.1994 H   0  0  0  0  0  0  0  0  0  0  0  0
   -0.5170   -0.3067    2.7814 H   0  0  0  0  0  0  0  0  0  0  0  0
    1.0045   -0.7693    1.9809 H   0  0  0  0  0  0  0  0  0  0  0  0
   -2.2873   -0.9762    1.2163 H   0  0  0  0  0  0  0  0  0  0  0  0
   -2.3125   -0.1479   -0.4340 H   0  0  0  0  0  0  0  0  0  0  0  0
   -2.4635    0.7922    1.0692 H   0  0  0  0  0  0  0  0  0  0  0  0
  1  2  3  0
  2  3  1  0
  3  4  1  0
  4  5  1  0
  5  6  1  0
  6  7  1  0
  7  8  1  0
  7  9  1  0
  6  3  1  0
  7  3  1  0
  1 10  1  0
  5 11  1  0
  5 12  1  0
  6 13  1  0
  8 14  1  0
  8 15  1  0
  8 16  1  0
  9 17  1  0
  9 18  1  0
  9 19  1  0
M  END
