
     RDKit          3D

 15 16  0  0  0  0  0  0  0  0999 V2000
   -2.4394    0.8157   -1.7480 C   0  0  0  0  0  0  0  0  0  0  0  0
   -1.8252    0.3518   -0.8229 C   0  0  0  0  0  0  0  0  0  0  0  0
   -1.0504   -0.2028    0.3098 C   0  0  0  0  0  0  0  0  0  0  0  0
   -0.1872    0.6471    1.1340 C   0  0  0  0  0  0  0  0  0  0  0  0
    0.4977    1.7183    0.5480 O   0  0  0  0  0  0  0  0  0  0  0  0
    1.0268    0.9611   -0.5006 C   0  0  0  0  0  0  0  0  0  0  0  0
    0.4019   -0.2515    0.1458 C   0  0  0  0  0  0  0  0  0  0  0  0
    1.2176   -1.3839    0.5123 C   0  0  0  0  0  0  0  0  0  0  0  0
    1.8886   -2.3292    0.8365 C   0  0  0  0  0  0  0  0  0  0  0  0
   -2.9861    1.2445   -2.5628 H   0  0  0  0  0  0  0  0  0  0  0  0
   -1.5264   -1.0592    0.8184 H   0  0  0  0  0  0  0  0  0  0  0  0
   -0.1186    0.5037    2.2300 H   0  0  0  0  0  0  0  0  0  0  0  0
    0.4964    1.1837   -1.4528 H   0  0  0  0  0  0  0  0  0  0  0  0
    2.1287    0.9452   -0.5622 H   0  0  0  0  0  0  0  0  0  0  0  0
    2.4758   -3.1446    1.1145 H   0  0  0  0  0  0  0  0  0  0  0  0
  1  2  3  0
  2  3  1  0
  3  4  1  0
  4  5  1  0
  5  6  1  0
  6  7  1  0
  7  8  1  0
  8  9  3  0
  7  3  1  0
  7  4  1  0
  1 10  1  0
  3 11  1  0
  4 12  1  0
  6 13  1  0
  6 14  1  0
  9 15  1  0
M  END
