
     RDKit          3D

  9  8  0  0  0  0  0  0  0  0999 V2000
    1.9238    0.2975    1.3158 C   0  0  0  0  0  0  0  0  0  0  0  0
    0.8582    0.4137    0.7238 C   0  0  0  0  0  0  0  0  0  0  0  0
   -0.3822    0.5272    0.0332 C   0  0  0  0  0  0  0  0  0  0  0  0
   -0.9284   -0.5413   -0.8239 C   0  0  0  0  0  0  0  0  0  0  0  0
   -1.0341    1.5833    0.1630 O   0  0  0  0  0  0  0  0  0  0  0  0
    2.8490    0.1852    1.8140 H   0  0  0  0  0  0  0  0  0  0  0  0
   -1.6843   -0.1127   -1.5337 H   0  0  0  0  0  0  0  0  0  0  0  0
   -0.1635   -1.0199   -1.4716 H   0  0  0  0  0  0  0  0  0  0  0  0
   -1.4385   -1.3330   -0.2205 H   0  0  0  0  0  0  0  0  0  0  0  0
  1  2  3  0
  2  3  1  0
  3  4  1  0
  3  5  2  0
  1  6  1  0
  4  7  1  0
  4  8  1  0
  4  9  1  0
M  END
