
     RDKit          3D

 17 18  0  0  0  0  0  0  0  0999 V2000
    1.5414   -0.4136    2.8927 C   0  0  0  0  0  0  0  0  0  0  0  0
    1.3683   -0.7039    1.7328 C   0  0  0  0  0  0  0  0  0  0  0  0
    1.1420   -1.0558    0.3170 C   0  0  0  0  0  0  0  0  0  0  0  0
    0.4286    0.0804   -0.3304 C   0  0  0  0  0  0  0  0  0  0  0  0
    1.1510    1.2956   -0.2843 O   0  0  0  0  0  0  0  0  0  0  0  0
   -1.0408    0.1689   -0.1197 C   0  0  0  0  0  0  0  0  0  0  0  0
   -1.9142    1.0329   -0.9674 C   0  0  0  0  0  0  0  0  0  0  0  0
   -0.9956    1.1194   -1.9868 O   0  0  0  0  0  0  0  0  0  0  0  0
   -0.4291   -0.0736   -1.5161 C   0  0  0  0  0  0  0  0  0  0  0  0
    1.6781   -0.1627    3.9268 H   0  0  0  0  0  0  0  0  0  0  0  0
    2.1026   -1.3171   -0.1806 H   0  0  0  0  0  0  0  0  0  0  0  0
    0.5240   -1.9858    0.2681 H   0  0  0  0  0  0  0  0  0  0  0  0
    1.6878    1.3197    0.5658 H   0  0  0  0  0  0  0  0  0  0  0  0
   -1.5261   -0.7213    0.3568 H   0  0  0  0  0  0  0  0  0  0  0  0
   -2.2284    2.0014   -0.5471 H   0  0  0  0  0  0  0  0  0  0  0  0
   -2.8058    0.4419   -1.3308 H   0  0  0  0  0  0  0  0  0  0  0  0
   -0.6840   -1.0264   -1.9708 H   0  0  0  0  0  0  0  0  0  0  0  0
  1  2  3  0
  2  3  1  0
  3  4  1  0
  4  5  1  0
  4  6  1  0
  6  7  1  0
  7  8  1  0
  8  9  1  0
  9  4  1  0
  9  6  1  0
  1 10  1  0
  3 11  1  0
  3 12  1  0
  5 13  1  0
  6 14  1  0
  7 15  1  0
  7 16  1  0
  9 17  1  0
M  END
