
     RDKit          3D

 15 14  0  0  0  0  0  0  0  0999 V2000
    2.1024   -2.6021   -2.7627 C   0  0  0  0  0  0  0  0  0  0  0  0
    1.8975   -2.1424   -1.5672 C   0  0  0  0  0  0  0  0  0  0  0  0
    1.6654   -1.6610   -0.2492 C   0  0  0  0  0  0  0  0  0  0  0  0
    2.3070   -2.2419    0.7425 O   0  0  0  0  0  0  0  0  0  0  0  0
    0.8105   -0.6326   -0.0059 C   0  0  0  0  0  0  0  0  0  0  0  0
   -0.0298    0.3986    0.2563 C   0  0  0  0  0  0  0  0  0  0  0  0
   -0.9140    1.4550    0.5174 C   0  0  0  0  0  0  0  0  0  0  0  0
   -1.9227    1.0617    1.6358 C   0  0  0  0  0  0  0  0  0  0  0  0
   -0.2085    2.5465    1.1145 O   0  0  0  0  0  0  0  0  0  0  0  0
    2.2607   -2.9429   -3.6749 H   0  0  0  0  0  0  0  0  0  0  0  0
   -1.4501    1.7766   -0.3863 H   0  0  0  0  0  0  0  0  0  0  0  0
   -2.0714   -0.0632    1.5489 H   0  0  0  0  0  0  0  0  0  0  0  0
   -1.5094    1.2042    2.6374 H   0  0  0  0  0  0  0  0  0  0  0  0
   -2.8776    1.5589    1.5048 H   0  0  0  0  0  0  0  0  0  0  0  0
   -0.0600    2.2847    2.0804 H   0  0  0  0  0  0  0  0  0  0  0  0
  1  2  3  0
  2  3  1  0
  3  4  2  0
  3  5  1  0
  5  6  3  0
  6  7  1  0
  7  8  1  0
  7  9  1  0
  1 10  1  0
  7 11  1  0
  8 12  1  0
  8 13  1  0
  8 14  1  0
  9 15  1  0
M  END
