
     RDKit          3D

 21 22  0  0  0  0  0  0  0  0999 V2000
    2.4828   -1.9677    0.0895 C   0  0  0  0  0  0  0  0  0  0  0  0
    1.8397   -0.9532    0.0503 C   0  0  0  0  0  0  0  0  0  0  0  0
    1.0728    0.2556    0.0261 C   0  0  0  0  0  0  0  0  0  0  0  0
   -0.0009    0.1691    1.1256 C   0  0  0  0  0  0  0  0  0  0  0  0
   -0.7681    1.4381    0.8213 C   0  0  0  0  0  0  0  0  0  0  0  0
   -0.7077    1.5517   -0.7112 C   0  0  0  0  0  0  0  0  0  0  0  0
    0.0825    0.3136   -1.1391 C   0  0  0  0  0  0  0  0  0  0  0  0
   -0.7738   -0.8713   -0.8794 C   0  0  0  0  0  0  0  0  0  0  0  0
   -0.7684   -1.0349    0.6474 C   0  0  0  0  0  0  0  0  0  0  0  0
    3.0412   -2.8667    0.1084 H   0  0  0  0  0  0  0  0  0  0  0  0
    1.6604    1.1831    0.1130 H   0  0  0  0  0  0  0  0  0  0  0  0
    0.4074    0.1043    2.1159 H   0  0  0  0  0  0  0  0  0  0  0  0
   -1.7973    1.4144    1.1789 H   0  0  0  0  0  0  0  0  0  0  0  0
   -0.1690    2.2735    1.2787 H   0  0  0  0  0  0  0  0  0  0  0  0
   -1.7321    1.5368   -1.0855 H   0  0  0  0  0  0  0  0  0  0  0  0
   -0.1206    2.4382   -1.0053 H   0  0  0  0  0  0  0  0  0  0  0  0
    0.5414    0.3961   -2.1010 H   0  0  0  0  0  0  0  0  0  0  0  0
   -1.8320   -0.5853   -1.1518 H   0  0  0  0  0  0  0  0  0  0  0  0
   -0.4750   -1.7909   -1.3903 H   0  0  0  0  0  0  0  0  0  0  0  0
   -1.7991   -1.0666    1.0515 H   0  0  0  0  0  0  0  0  0  0  0  0
   -0.1842   -1.9381    0.8570 H   0  0  0  0  0  0  0  0  0  0  0  0
  1  2  3  0
  2  3  1  0
  3  4  1  0
  4  5  1  0
  5  6  1  0
  6  7  1  0
  7  8  1  0
  8  9  1  0
  7  3  1  0
  9  4  1  0
  1 10  1  0
  3 11  1  0
  4 12  1  0
  5 13  1  0
  5 14  1  0
  6 15  1  0
  6 16  1  0
  7 17  1  0
  8 18  1  0
  8 19  1  0
  9 20  1  0
  9 21  1  0
M  END
