
     RDKit          3D

 17 18  0  0  0  0  0  0  0  0999 V2000
    2.6355   -0.0180    1.3093 C   0  0  0  0  0  0  0  0  0  0  0  0
    1.7237    0.1417    0.5216 C   0  0  0  0  0  0  0  0  0  0  0  0
    0.6246    0.3530   -0.4085 C   0  0  0  0  0  0  0  0  0  0  0  0
    0.2638   -0.8036   -1.3592 C   0  0  0  0  0  0  0  0  0  0  0  0
   -0.6494   -0.3397   -0.2556 C   0  0  0  0  0  0  0  0  0  0  0  0
   -0.9708   -1.2927    0.8355 C   0  0  0  0  0  0  0  0  0  0  0  0
   -1.6106    0.6155   -0.5986 O   0  0  0  0  0  0  0  0  0  0  0  0
   -0.9891    1.8487   -0.4764 C   0  0  0  0  0  0  0  0  0  0  0  0
    0.3380    1.6236   -0.8380 O   0  0  0  0  0  0  0  0  0  0  0  0
    3.4478   -0.1477    1.9908 H   0  0  0  0  0  0  0  0  0  0  0  0
    0.8458   -1.7058   -1.1793 H   0  0  0  0  0  0  0  0  0  0  0  0
    0.0608   -0.4664   -2.4107 H   0  0  0  0  0  0  0  0  0  0  0  0
   -0.4759   -1.0404    1.8169 H   0  0  0  0  0  0  0  0  0  0  0  0
   -0.6802   -2.3431    0.6201 H   0  0  0  0  0  0  0  0  0  0  0  0
   -2.0748   -1.2746    1.0492 H   0  0  0  0  0  0  0  0  0  0  0  0
   -1.0222    2.2540    0.5497 H   0  0  0  0  0  0  0  0  0  0  0  0
   -1.4670    2.5954   -1.1668 H   0  0  0  0  0  0  0  0  0  0  0  0
  1  2  3  0
  2  3  1  0
  3  4  1  0
  4  5  1  0
  5  6  1  0
  5  7  1  0
  7  8  1  0
  8  9  1  0
  5  3  1  0
  9  3  1  0
  1 10  1  0
  4 11  1  0
  4 12  1  0
  6 13  1  0
  6 14  1  0
  6 15  1  0
  8 16  1  0
  8 17  1  0
M  END
