
     RDKit          3D

 19 19  0  0  0  0  0  0  0  0999 V2000
    4.8162   -1.3092    1.4420 C   0  0  0  0  0  0  0  0  0  0  0  0
    3.2756   -0.9362    0.7065 C   0  0  0  0  0  0  0  0  0  0  0  0
    2.4264   -0.7468    0.3093 C   0  0  0  0  0  0  0  0  0  0  0  0
    1.2709   -0.4692   -0.2449 C   0  0  0  0  0  0  0  0  0  0  0  0
   -0.1755   -0.0924   -0.9344 C   0  0  0  0  0  0  0  0  0  0  0  0
   -0.9254   -0.8300    0.3132 C   0  0  0  0  0  0  0  0  0  0  0  0
   -2.2642   -0.2825    0.1393 C   0  0  0  0  0  0  0  0  0  0  0  0
   -1.8965    1.2466    0.3790 C   0  0  0  0  0  0  0  0  0  0  0  0
   -0.4874    1.3160   -0.3943 C   0  0  0  0  0  0  0  0  0  0  0  0
    5.5691   -1.5069    1.8052 H   0  0  0  0  0  0  0  0  0  0  0  0
   -0.2898   -0.4742   -1.7944 H   0  0  0  0  0  0  0  0  0  0  0  0
   -0.5467   -1.7594    0.5161 H   0  0  0  0  0  0  0  0  0  0  0  0
   -0.5127   -0.0977    1.2379 H   0  0  0  0  0  0  0  0  0  0  0  0
   -2.7934   -0.4815   -0.7316 H   0  0  0  0  0  0  0  0  0  0  0  0
   -2.8822   -0.5431    1.0630 H   0  0  0  0  0  0  0  0  0  0  0  0
   -2.5838    1.9169    0.0047 H   0  0  0  0  0  0  0  0  0  0  0  0
   -1.6388    1.2955    1.4652 H   0  0  0  0  0  0  0  0  0  0  0  0
   -0.6667    2.1261   -1.1330 H   0  0  0  0  0  0  0  0  0  0  0  0
    0.3045    1.6279    0.3835 H   0  0  0  0  0  0  0  0  0  0  0  0
  1  2  3  0
  2  3  1  0
  3  4  3  0
  4  5  1  0
  5  6  1  0
  6  7  1  0
  7  8  1  0
  8  9  1  0
  9  5  1  0
  1 10  1  0
  5 11  1  0
  6 12  1  0
  6 13  1  0
  7 14  1  0
  7 15  1  0
  8 16  1  0
  8 17  1  0
  9 18  1  0
  9 19  1  0
M  END
