
     RDKit          3D

 15 14  0  0  0  0  0  0  0  0999 V2000
   -2.8566   -1.9520   -0.5593 C   0  0  0  0  0  0  0  0  0  0  0  0
   -2.4364   -0.8370   -0.2889 C   0  0  0  0  0  0  0  0  0  0  0  0
   -1.9251    0.5016    0.0110 C   0  0  0  0  0  0  0  0  0  0  0  0
   -2.5571    1.0238    1.1336 O   0  0  0  0  0  0  0  0  0  0  0  0
   -0.4905    0.3595    0.2739 C   0  0  0  0  0  0  0  0  0  0  0  0
    0.7079    0.2616    0.4984 C   0  0  0  0  0  0  0  0  0  0  0  0
    2.0949    0.1725    0.7635 C   0  0  0  0  0  0  0  0  0  0  0  0
    3.1247    0.0642   -0.3075 C   0  0  0  0  0  0  0  0  0  0  0  0
    2.5044    0.1833    1.9595 O   0  0  0  0  0  0  0  0  0  0  0  0
   -3.2108   -2.9276   -0.7816 H   0  0  0  0  0  0  0  0  0  0  0  0
   -2.0449    1.1780   -0.8709 H   0  0  0  0  0  0  0  0  0  0  0  0
   -2.9758    1.9031    0.9584 H   0  0  0  0  0  0  0  0  0  0  0  0
    3.8625   -0.7386   -0.0676 H   0  0  0  0  0  0  0  0  0  0  0  0
    3.5970    1.0433   -0.4961 H   0  0  0  0  0  0  0  0  0  0  0  0
    2.6058   -0.2356   -1.2643 H   0  0  0  0  0  0  0  0  0  0  0  0
  1  2  3  0
  2  3  1  0
  3  4  1  0
  3  5  1  0
  5  6  3  0
  6  7  1  0
  7  8  1  0
  7  9  2  0
  1 10  1  0
  3 11  1  0
  4 12  1  0
  8 13  1  0
  8 14  1  0
  8 15  1  0
M  END
