
     RDKit          3D

 21 21  0  0  0  0  0  0  0  0999 V2000
   -3.3585   -2.1750   -0.2206 C   0  0  0  0  0  0  0  0  0  0  0  0
   -2.5314   -1.3209    0.0287 C   0  0  0  0  0  0  0  0  0  0  0  0
   -1.5385   -0.2705    0.3175 C   0  0  0  0  0  0  0  0  0  0  0  0
   -0.8332   -0.5611    1.6125 C   0  0  0  0  0  0  0  0  0  0  0  0
   -0.6041   -0.2078   -0.8446 C   0  0  0  0  0  0  0  0  0  0  0  0
    0.4686    0.8452   -0.6594 C   0  0  0  0  0  0  0  0  0  0  0  0
    1.3324    0.8166   -1.8676 O   0  0  0  0  0  0  0  0  0  0  0  0
    1.8426    0.4454   -0.5908 C   0  0  0  0  0  0  0  0  0  0  0  0
    2.9086    1.3992   -0.0956 C   0  0  0  0  0  0  0  0  0  0  0  0
   -4.0902   -2.9072   -0.4462 H   0  0  0  0  0  0  0  0  0  0  0  0
   -2.1173    0.6737    0.4512 H   0  0  0  0  0  0  0  0  0  0  0  0
   -0.6745   -1.6646    1.7594 H   0  0  0  0  0  0  0  0  0  0  0  0
   -1.4205   -0.1229    2.4418 H   0  0  0  0  0  0  0  0  0  0  0  0
    0.1523   -0.0327    1.5805 H   0  0  0  0  0  0  0  0  0  0  0  0
   -0.1540   -1.2025   -0.9825 H   0  0  0  0  0  0  0  0  0  0  0  0
   -1.2008    0.0855   -1.7433 H   0  0  0  0  0  0  0  0  0  0  0  0
    0.1115    1.8633   -0.4132 H   0  0  0  0  0  0  0  0  0  0  0  0
    2.0908   -0.6234   -0.4364 H   0  0  0  0  0  0  0  0  0  0  0  0
    2.6636    2.4552   -0.3307 H   0  0  0  0  0  0  0  0  0  0  0  0
    3.8928    1.1875   -0.5614 H   0  0  0  0  0  0  0  0  0  0  0  0
    3.0596    1.3169    1.0010 H   0  0  0  0  0  0  0  0  0  0  0  0
  1  2  3  0
  2  3  1  0
  3  4  1  0
  3  5  1  0
  5  6  1  0
  6  7  1  0
  7  8  1  0
  8  9  1  0
  8  6  1  0
  1 10  1  0
  3 11  1  0
  4 12  1  0
  4 13  1  0
  4 14  1  0
  5 15  1  0
  5 16  1  0
  6 17  1  0
  8 18  1  0
  9 19  1  0
  9 20  1  0
  9 21  1  0
M  END
