
     RDKit          3D

 19 19  0  0  0  0  0  0  0  0999 V2000
    2.3083    1.9103    0.0627 C   0  0  0  0  0  0  0  0  0  0  0  0
    1.8930    0.8358    0.0421 C   0  0  0  0  0  0  0  0  0  0  0  0
    1.3416   -0.5206    0.0126 C   0  0  0  0  0  0  0  0  0  0  0  0
    2.0324   -1.7582   -0.1421 C   0  0  0  0  0  0  0  0  0  0  0  0
    2.5066   -2.6089   -0.2581 C   0  0  0  0  0  0  0  0  0  0  0  0
   -0.1735   -0.6709    0.5282 C   0  0  0  0  0  0  0  0  0  0  0  0
   -1.1730    0.1080   -0.2367 C   0  0  0  0  0  0  0  0  0  0  0  0
   -2.5718    0.2648   -0.2869 C   0  0  0  0  0  0  0  0  0  0  0  0
   -1.8570    1.3108    0.4923 C   0  0  0  0  0  0  0  0  0  0  0  0
    2.5997    2.6600    0.0752 H   0  0  0  0  0  0  0  0  0  0  0  0
    0.8482   -0.4281   -1.2861 H   0  0  0  0  0  0  0  0  0  0  0  0
    3.0609   -3.5666   -0.3822 H   0  0  0  0  0  0  0  0  0  0  0  0
   -0.4462   -1.7160    0.6211 H   0  0  0  0  0  0  0  0  0  0  0  0
   -0.0171   -0.0997    1.4651 H   0  0  0  0  0  0  0  0  0  0  0  0
   -0.6225    0.4873   -1.2420 H   0  0  0  0  0  0  0  0  0  0  0  0
   -3.0384    0.5738   -1.2805 H   0  0  0  0  0  0  0  0  0  0  0  0
   -3.3180   -0.3658    0.2717 H   0  0  0  0  0  0  0  0  0  0  0  0
   -1.5828    2.2640   -0.0384 H   0  0  0  0  0  0  0  0  0  0  0  0
   -1.7904    1.3199    1.5821 H   0  0  0  0  0  0  0  0  0  0  0  0
  1  2  3  0
  2  3  1  0
  3  4  1  0
  4  5  3  0
  3  6  1  0
  6  7  1  0
  7  8  1  0
  8  9  1  0
  9  7  1  0
  1 10  1  0
  3 11  1  0
  5 12  1  0
  6 13  1  0
  6 14  1  0
  7 15  1  0
  8 16  1  0
  8 17  1  0
  9 18  1  0
  9 19  1  0
M  END
