
     RDKit          3D

 18 18  0  0  0  0  0  0  0  0999 V2000
    1.0651    2.6341    0.0828 C   0  0  0  0  0  0  0  0  0  0  0  0
    0.4508    1.6034   -0.1306 C   0  0  0  0  0  0  0  0  0  0  0  0
   -0.2654    0.3549   -0.3931 C   0  0  0  0  0  0  0  0  0  0  0  0
   -1.0024   -0.1977    0.8153 C   0  0  0  0  0  0  0  0  0  0  0  0
   -2.3730   -0.6829    0.3960 C   0  0  0  0  0  0  0  0  0  0  0  0
   -0.0516   -1.2102    0.8645 O   0  0  0  0  0  0  0  0  0  0  0  0
    0.6343   -0.8284   -0.3050 C   0  0  0  0  0  0  0  0  0  0  0  0
    2.1006   -0.5482   -0.0846 C   0  0  0  0  0  0  0  0  0  0  0  0
    1.6018    3.5374    0.2519 H   0  0  0  0  0  0  0  0  0  0  0  0
   -0.8571    0.3713   -1.3322 H   0  0  0  0  0  0  0  0  0  0  0  0
   -1.0089    0.4898    1.6804 H   0  0  0  0  0  0  0  0  0  0  0  0
   -2.3838   -0.8941   -0.7048 H   0  0  0  0  0  0  0  0  0  0  0  0
   -2.6299   -1.5841    0.9659 H   0  0  0  0  0  0  0  0  0  0  0  0
   -3.1138    0.1179    0.5909 H   0  0  0  0  0  0  0  0  0  0  0  0
    0.4372   -1.5744   -1.1298 H   0  0  0  0  0  0  0  0  0  0  0  0
    2.6896   -0.8364   -0.9793 H   0  0  0  0  0  0  0  0  0  0  0  0
    2.2732    0.4898    0.2211 H   0  0  0  0  0  0  0  0  0  0  0  0
    2.4333   -1.2422    0.7285 H   0  0  0  0  0  0  0  0  0  0  0  0
  1  2  3  0
  2  3  1  0
  3  4  1  0
  4  5  1  0
  4  6  1  0
  6  7  1  0
  7  8  1  0
  7  3  1  0
  1  9  1  0
  3 10  1  0
  4 11  1  0
  5 12  1  0
  5 13  1  0
  5 14  1  0
  7 15  1  0
  8 16  1  0
  8 17  1  0
  8 18  1  0
M  END
