
     RDKit          3D

 17 18  0  0  0  0  0  0  0  0999 V2000
    2.9569   -1.0054   -0.3620 C   0  0  0  0  0  0  0  0  0  0  0  0
    1.7743   -0.7810   -0.2577 C   0  0  0  0  0  0  0  0  0  0  0  0
    0.3690   -0.4959   -0.1316 C   0  0  0  0  0  0  0  0  0  0  0  0
   -0.2401    0.5330    0.4366 C   0  0  0  0  0  0  0  0  0  0  0  0
    0.4805    1.6512    1.0851 C   0  0  0  0  0  0  0  0  0  0  0  0
   -1.6611    0.3628    0.3426 C   0  0  0  0  0  0  0  0  0  0  0  0
   -2.5792    0.4918   -0.5718 O   0  0  0  0  0  0  0  0  0  0  0  0
   -1.6227   -0.1939   -1.1183 C   0  0  0  0  0  0  0  0  0  0  0  0
   -0.7636   -1.3503   -0.6853 C   0  0  0  0  0  0  0  0  0  0  0  0
    4.0125   -1.1940   -0.4580 H   0  0  0  0  0  0  0  0  0  0  0  0
    1.5327    1.7464    0.7466 H   0  0  0  0  0  0  0  0  0  0  0  0
   -0.0863    2.6083    0.9145 H   0  0  0  0  0  0  0  0  0  0  0  0
    0.4588    1.4452    2.1836 H   0  0  0  0  0  0  0  0  0  0  0  0
   -2.0117   -0.3888    1.1265 H   0  0  0  0  0  0  0  0  0  0  0  0
   -1.0142    0.4426   -1.8386 H   0  0  0  0  0  0  0  0  0  0  0  0
   -0.4429   -1.9314   -1.5502 H   0  0  0  0  0  0  0  0  0  0  0  0
   -1.1628   -1.9405    0.1378 H   0  0  0  0  0  0  0  0  0  0  0  0
  1  2  3  0
  2  3  1  0
  3  4  2  0
  4  5  1  0
  4  6  1  0
  6  7  1  0
  7  8  1  0
  8  9  1  0
  9  3  1  0
  8  6  1  0
  1 10  1  0
  5 11  1  0
  5 12  1  0
  5 13  1  0
  6 14  1  0
  8 15  1  0
  9 16  1  0
  9 17  1  0
M  END
