
     RDKit          3D

 15 17  0  0  0  0  0  0  0  0999 V2000
    2.8776    0.7118    0.3014 C   0  0  0  0  0  0  0  0  0  0  0  0
    1.7146    0.4557    0.5128 C   0  0  0  0  0  0  0  0  0  0  0  0
    0.2983    0.1692    0.7761 C   0  0  0  0  0  0  0  0  0  0  0  0
   -0.5283    1.3804    0.4016 C   0  0  0  0  0  0  0  0  0  0  0  0
   -0.2890    1.8584   -0.8643 O   0  0  0  0  0  0  0  0  0  0  0  0
   -1.0143    0.6735   -0.8274 C   0  0  0  0  0  0  0  0  0  0  0  0
   -0.4164   -0.5778   -0.2934 C   0  0  0  0  0  0  0  0  0  0  0  0
   -1.0119   -1.8044   -0.2935 C   0  0  0  0  0  0  0  0  0  0  0  0
    0.1885   -1.5049   -1.0858 O   0  0  0  0  0  0  0  0  0  0  0  0
    3.9019    0.9559    0.1189 H   0  0  0  0  0  0  0  0  0  0  0  0
    0.1607   -0.2127    1.7942 H   0  0  0  0  0  0  0  0  0  0  0  0
   -1.1899    1.8570    1.1079 H   0  0  0  0  0  0  0  0  0  0  0  0
   -2.0527    0.7509   -1.1461 H   0  0  0  0  0  0  0  0  0  0  0  0
   -0.7411   -2.6460    0.4046 H   0  0  0  0  0  0  0  0  0  0  0  0
   -1.8980   -2.0672   -0.9070 H   0  0  0  0  0  0  0  0  0  0  0  0
  1  2  3  0
  2  3  1  0
  3  4  1  0
  4  5  1  0
  5  6  1  0
  6  7  1  0
  7  8  1  0
  8  9  1  0
  7  3  1  0
  6  4  1  0
  9  7  1  0
  1 10  1  0
  3 11  1  0
  4 12  1  0
  6 13  1  0
  8 14  1  0
  8 15  1  0
M  END
