
     RDKit          3D

 17 17  0  0  0  0  0  0  0  0999 V2000
    3.1735   -0.9176   -0.6768 C   0  0  0  0  0  0  0  0  0  0  0  0
    2.0442   -0.5059   -0.4890 C   0  0  0  0  0  0  0  0  0  0  0  0
    0.6792   -0.0286   -0.2468 C   0  0  0  0  0  0  0  0  0  0  0  0
    0.5012    1.4058   -0.4786 C   0  0  0  0  0  0  0  0  0  0  0  0
    0.3423    2.5806   -0.6629 C   0  0  0  0  0  0  0  0  0  0  0  0
    0.1898   -0.4251    1.1041 C   0  0  0  0  0  0  0  0  0  0  0  0
   -0.9340   -0.9759    0.2536 C   0  0  0  0  0  0  0  0  0  0  0  0
   -2.1621   -0.0915    0.4125 C   0  0  0  0  0  0  0  0  0  0  0  0
   -0.2352   -0.8018   -0.9146 O   0  0  0  0  0  0  0  0  0  0  0  0
    4.1639   -1.2599   -0.8349 H   0  0  0  0  0  0  0  0  0  0  0  0
    0.2035    3.6185   -0.8232 H   0  0  0  0  0  0  0  0  0  0  0  0
    0.7769   -1.2564    1.5663 H   0  0  0  0  0  0  0  0  0  0  0  0
   -0.0939    0.3863    1.7880 H   0  0  0  0  0  0  0  0  0  0  0  0
   -1.1471   -2.0550    0.4340 H   0  0  0  0  0  0  0  0  0  0  0  0
   -1.8905    0.9467    0.6136 H   0  0  0  0  0  0  0  0  0  0  0  0
   -2.7992   -0.1404   -0.5135 H   0  0  0  0  0  0  0  0  0  0  0  0
   -2.8123   -0.4798    1.2227 H   0  0  0  0  0  0  0  0  0  0  0  0
  1  2  3  0
  2  3  1  0
  3  4  1  0
  4  5  3  0
  3  6  1  0
  6  7  1  0
  7  8  1  0
  7  9  1  0
  9  3  1  0
  1 10  1  0
  5 11  1  0
  6 12  1  0
  6 13  1  0
  7 14  1  0
  8 15  1  0
  8 16  1  0
  8 17  1  0
M  END
