
     RDKit          3D

 19 20  0  0  0  0  0  0  0  0999 V2000
   -0.0403    2.5103    1.4593 C   0  0  0  0  0  0  0  0  0  0  0  0
   -0.0673    1.4068    1.0471 C   0  0  0  0  0  0  0  0  0  0  0  0
   -0.1074   -0.0438    0.5333 C   0  0  0  0  0  0  0  0  0  0  0  0
    0.1668   -0.9475    1.6585 C   0  0  0  0  0  0  0  0  0  0  0  0
   -1.5455   -0.1719    0.1774 O   0  0  0  0  0  0  0  0  0  0  0  0
   -1.1587   -1.0634   -0.8143 C   0  0  0  0  0  0  0  0  0  0  0  0
    0.1357   -0.2374   -0.8362 C   0  0  0  0  0  0  0  0  0  0  0  0
    1.1261   -0.4325   -1.8176 C   0  0  0  0  0  0  0  0  0  0  0  0
    0.2467    0.8521   -1.8520 C   0  0  0  0  0  0  0  0  0  0  0  0
   -0.0271    3.5064    1.8184 H   0  0  0  0  0  0  0  0  0  0  0  0
    0.9446   -1.7345    1.4869 H   0  0  0  0  0  0  0  0  0  0  0  0
   -0.7467   -1.4807    2.0061 H   0  0  0  0  0  0  0  0  0  0  0  0
    0.5370   -0.4000    2.5836 H   0  0  0  0  0  0  0  0  0  0  0  0
   -1.6421   -0.9311   -1.8095 H   0  0  0  0  0  0  0  0  0  0  0  0
   -0.9987   -2.0859   -0.4878 H   0  0  0  0  0  0  0  0  0  0  0  0
    2.1909   -0.2463   -1.7627 H   0  0  0  0  0  0  0  0  0  0  0  0
    0.8424   -1.1542   -2.6678 H   0  0  0  0  0  0  0  0  0  0  0  0
   -0.5704    0.8796   -2.6090 H   0  0  0  0  0  0  0  0  0  0  0  0
    0.7139    1.7741   -1.4856 H   0  0  0  0  0  0  0  0  0  0  0  0
  1  2  3  0
  2  3  1  0
  3  4  1  0
  3  5  1  0
  5  6  1  0
  6  7  1  0
  7  8  1  0
  8  9  1  0
  7  3  1  0
  9  7  1  0
  1 10  1  0
  4 11  1  0
  4 12  1  0
  4 13  1  0
  6 14  1  0
  6 15  1  0
  8 16  1  0
  8 17  1  0
  9 18  1  0
  9 19  1  0
M  END
