
     RDKit          3D

 19 20  0  0  0  0  0  0  0  0999 V2000
    2.7703    0.3788   -1.3508 C   0  0  0  0  0  0  0  0  0  0  0  0
    1.6156   -0.1273   -1.1877 C   0  0  0  0  0  0  0  0  0  0  0  0
    0.2461   -0.7133   -0.9754 C   0  0  0  0  0  0  0  0  0  0  0  0
    0.2194   -1.9145   -0.0542 C   0  0  0  0  0  0  0  0  0  0  0  0
   -0.9519   -1.2100    0.6659 C   0  0  0  0  0  0  0  0  0  0  0  0
   -0.3611    0.0542    0.1733 C   0  0  0  0  0  0  0  0  0  0  0  0
   -1.1306    1.2614   -0.0255 C   0  0  0  0  0  0  0  0  0  0  0  0
   -0.3447    1.7008    1.2006 C   0  0  0  0  0  0  0  0  0  0  0  0
    0.5631    0.6954    0.9683 O   0  0  0  0  0  0  0  0  0  0  0  0
    3.5566    0.7397   -1.4630 H   0  0  0  0  0  0  0  0  0  0  0  0
   -0.2968   -0.7580   -1.9020 H   0  0  0  0  0  0  0  0  0  0  0  0
   -0.0751   -2.8358   -0.5981 H   0  0  0  0  0  0  0  0  0  0  0  0
    1.1241   -1.9684    0.5036 H   0  0  0  0  0  0  0  0  0  0  0  0
   -1.9070   -1.4579    0.1304 H   0  0  0  0  0  0  0  0  0  0  0  0
   -0.9499   -1.2525    1.7530 H   0  0  0  0  0  0  0  0  0  0  0  0
   -2.2154    1.2039    0.2526 H   0  0  0  0  0  0  0  0  0  0  0  0
   -0.9667    1.9004   -0.9359 H   0  0  0  0  0  0  0  0  0  0  0  0
   -0.9169    1.5607    2.1443 H   0  0  0  0  0  0  0  0  0  0  0  0
    0.0209    2.7423    1.0035 H   0  0  0  0  0  0  0  0  0  0  0  0
  1  2  3  0
  2  3  1  0
  3  4  1  0
  4  5  1  0
  5  6  1  0
  6  7  1  0
  7  8  1  0
  8  9  1  0
  6  3  1  0
  9  6  1  0
  1 10  1  0
  3 11  1  0
  4 12  1  0
  4 13  1  0
  5 14  1  0
  5 15  1  0
  7 16  1  0
  7 17  1  0
  8 18  1  0
  8 19  1  0
M  END
