
     RDKit          3D

 17 16  0  0  0  0  0  0  0  0999 V2000
    2.9634    1.4680    0.8623 C   0  0  0  0  0  0  0  0  0  0  0  0
    2.1805    1.1103    0.0389 C   0  0  0  0  0  0  0  0  0  0  0  0
    1.1975    0.6442   -0.9795 C   0  0  0  0  0  0  0  0  0  0  0  0
    0.2237   -0.2261   -0.5181 C   0  0  0  0  0  0  0  0  0  0  0  0
   -0.9004   -0.0709    0.5722 C   0  0  0  0  0  0  0  0  0  0  0  0
   -1.2543   -1.4739    0.6266 C   0  0  0  0  0  0  0  0  0  0  0  0
   -1.5499   -2.7279    0.6651 C   0  0  0  0  0  0  0  0  0  0  0  0
   -1.9578    0.7623    0.0879 C   0  0  0  0  0  0  0  0  0  0  0  0
   -2.2191    1.1872   -0.9765 O   0  0  0  0  0  0  0  0  0  0  0  0
    3.5937    1.7644    1.5088 H   0  0  0  0  0  0  0  0  0  0  0  0
    1.8216    0.1675   -1.8225 H   0  0  0  0  0  0  0  0  0  0  0  0
    0.7632    1.5855   -1.4364 H   0  0  0  0  0  0  0  0  0  0  0  0
   -0.4860   -0.4861   -1.4442 H   0  0  0  0  0  0  0  0  0  0  0  0
    0.6149   -1.3076   -0.3069 H   0  0  0  0  0  0  0  0  0  0  0  0
   -0.4803    0.2724    1.5006 H   0  0  0  0  0  0  0  0  0  0  0  0
   -1.7812   -3.7584    0.7113 H   0  0  0  0  0  0  0  0  0  0  0  0
   -2.7295    1.0890    0.9104 H   0  0  0  0  0  0  0  0  0  0  0  0
  1  2  3  0
  2  3  1  0
  3  4  1  0
  4  5  1  0
  5  6  1  0
  6  7  3  0
  5  8  1  0
  8  9  2  0
  1 10  1  0
  3 11  1  0
  3 12  1  0
  4 13  1  0
  4 14  1  0
  5 15  1  0
  7 16  1  0
  8 17  1  0
M  END
