
     RDKit          3D

 23 23  0  0  0  0  0  0  0  0999 V2000
    3.1730    1.1500    1.4086 C   0  0  0  0  0  0  0  0  0  0  0  0
    2.0185    0.3313    1.0508 C   0  0  0  0  0  0  0  0  0  0  0  0
    0.8828   -0.4446    0.7004 C   0  0  0  0  0  0  0  0  0  0  0  0
   -0.0715   -0.3247    1.8963 C   0  0  0  0  0  0  0  0  0  0  0  0
    0.1076    0.9749   -0.1149 C   0  0  0  0  0  0  0  0  0  0  0  0
   -0.6672   -0.1179   -0.7074 C   0  0  0  0  0  0  0  0  0  0  0  0
   -1.7025   -0.9284   -0.0837 C   0  0  0  0  0  0  0  0  0  0  0  0
   -1.0653    0.2818   -2.1354 C   0  0  0  0  0  0  0  0  0  0  0  0
    0.7162   -0.8952   -0.6282 C   0  0  0  0  0  0  0  0  0  0  0  0
    4.1386    1.8440    1.7230 H   0  0  0  0  0  0  0  0  0  0  0  0
   -0.9279    0.3609    1.7134 H   0  0  0  0  0  0  0  0  0  0  0  0
   -0.2618   -1.2035    2.4696 H   0  0  0  0  0  0  0  0  0  0  0  0
    0.5092    0.3608    2.6604 H   0  0  0  0  0  0  0  0  0  0  0  0
   -0.0490    1.6425    0.6261 H   0  0  0  0  0  0  0  0  0  0  0  0
    1.0051    1.2479   -0.7681 H   0  0  0  0  0  0  0  0  0  0  0  0
   -2.1565   -1.5409   -0.9642 H   0  0  0  0  0  0  0  0  0  0  0  0
   -2.5758   -0.3619    0.3383 H   0  0  0  0  0  0  0  0  0  0  0  0
   -1.4274   -1.7247    0.6065 H   0  0  0  0  0  0  0  0  0  0  0  0
   -0.2084    0.3892   -2.8093 H   0  0  0  0  0  0  0  0  0  0  0  0
   -1.4701    1.3656   -2.0580 H   0  0  0  0  0  0  0  0  0  0  0  0
   -1.9071   -0.3178   -2.4691 H   0  0  0  0  0  0  0  0  0  0  0  0
    1.3007   -0.2234   -1.4101 H   0  0  0  0  0  0  0  0  0  0  0  0
    0.6387   -1.8658   -1.0451 H   0  0  0  0  0  0  0  0  0  0  0  0
  1  2  3  0
  2  3  1  0
  3  4  1  0
  3  5  1  0
  5  6  1  0
  6  7  1  0
  6  8  1  0
  6  9  1  0
  9  3  1  0
  1 10  1  0
  4 11  1  0
  4 12  1  0
  4 13  1  0
  5 14  1  0
  5 15  1  0
  7 16  1  0
  7 17  1  0
  7 18  1  0
  8 19  1  0
  8 20  1  0
  8 21  1  0
  9 22  1  0
  9 23  1  0
M  END
