
     RDKit          3D

 21 21  0  0  0  0  0  0  0  0999 V2000
    2.2807   -1.6292   -0.9116 C   0  0  0  0  0  0  0  0  0  0  0  0
    1.3647   -1.0310   -0.2597 C   0  0  0  0  0  0  0  0  0  0  0  0
    0.3561   -0.3752    0.4294 C   0  0  0  0  0  0  0  0  0  0  0  0
    0.8007    0.1584    1.8004 C   0  0  0  0  0  0  0  0  0  0  0  0
   -0.8023   -1.3252    0.7235 C   0  0  0  0  0  0  0  0  0  0  0  0
   -1.8096   -1.1347   -0.0600 C   0  0  0  0  0  0  0  0  0  0  0  0
   -1.4735   -0.0034   -1.0135 C   0  0  0  0  0  0  0  0  0  0  0  0
   -0.3848    0.7051   -0.2599 C   0  0  0  0  0  0  0  0  0  0  0  0
    0.3466    1.7753   -0.9323 C   0  0  0  0  0  0  0  0  0  0  0  0
    3.0348   -2.1187   -1.4264 H   0  0  0  0  0  0  0  0  0  0  0  0
    1.3570   -0.5975    2.3249 H   0  0  0  0  0  0  0  0  0  0  0  0
    1.4919    1.0154    1.5659 H   0  0  0  0  0  0  0  0  0  0  0  0
   -0.1004    0.5000    2.3370 H   0  0  0  0  0  0  0  0  0  0  0  0
   -0.6766   -2.0447    1.5296 H   0  0  0  0  0  0  0  0  0  0  0  0
   -2.7396   -1.6417   -0.0840 H   0  0  0  0  0  0  0  0  0  0  0  0
   -2.3940    0.6179   -1.1132 H   0  0  0  0  0  0  0  0  0  0  0  0
   -1.1905   -0.4112   -1.9612 H   0  0  0  0  0  0  0  0  0  0  0  0
   -1.0002    1.2361    0.5834 H   0  0  0  0  0  0  0  0  0  0  0  0
    0.6198    2.5815   -0.2056 H   0  0  0  0  0  0  0  0  0  0  0  0
    1.2532    1.4160   -1.4105 H   0  0  0  0  0  0  0  0  0  0  0  0
   -0.3340    2.3068   -1.6564 H   0  0  0  0  0  0  0  0  0  0  0  0
  1  2  3  0
  2  3  1  0
  3  4  1  0
  3  5  1  0
  5  6  2  0
  6  7  1  0
  7  8  1  0
  8  9  1  0
  8  3  1  0
  1 10  1  0
  4 11  1  0
  4 12  1  0
  4 13  1  0
  5 14  1  0
  6 15  1  0
  7 16  1  0
  7 17  1  0
  8 18  1  0
  9 19  1  0
  9 20  1  0
  9 21  1  0
M  END
