
     RDKit          3D

 19 20  0  0  0  0  0  0  0  0999 V2000
    3.0682    0.3474    0.4658 C   0  0  0  0  0  0  0  0  0  0  0  0
    1.9949   -0.1383    0.3520 C   0  0  0  0  0  0  0  0  0  0  0  0
    0.6915   -0.7499    0.2175 C   0  0  0  0  0  0  0  0  0  0  0  0
   -0.3466   -0.4516    1.2440 C   0  0  0  0  0  0  0  0  0  0  0  0
   -1.3120   -0.0316    0.1311 C   0  0  0  0  0  0  0  0  0  0  0  0
   -1.6718    1.4156    0.1202 C   0  0  0  0  0  0  0  0  0  0  0  0
   -0.2120   -0.3455   -0.8501 C   0  0  0  0  0  0  0  0  0  0  0  0
    0.1038    0.5165   -1.8642 O   0  0  0  0  0  0  0  0  0  0  0  0
    0.3883   -1.7479   -0.8265 C   0  0  0  0  0  0  0  0  0  0  0  0
    4.0395    0.7884    0.5865 H   0  0  0  0  0  0  0  0  0  0  0  0
   -0.1024    0.3652    1.9514 H   0  0  0  0  0  0  0  0  0  0  0  0
   -0.6605   -1.3931    1.7550 H   0  0  0  0  0  0  0  0  0  0  0  0
   -2.1494   -0.7494    0.0507 H   0  0  0  0  0  0  0  0  0  0  0  0
   -1.8092    1.8353   -0.8926 H   0  0  0  0  0  0  0  0  0  0  0  0
   -0.8488    1.9978    0.5907 H   0  0  0  0  0  0  0  0  0  0  0  0
   -2.6174    1.6186    0.6879 H   0  0  0  0  0  0  0  0  0  0  0  0
    0.6815    1.2496   -1.5418 H   0  0  0  0  0  0  0  0  0  0  0  0
    1.0513   -1.9456   -1.6670 H   0  0  0  0  0  0  0  0  0  0  0  0
   -0.2887   -2.5814   -0.5108 H   0  0  0  0  0  0  0  0  0  0  0  0
  1  2  3  0
  2  3  1  0
  3  4  1  0
  4  5  1  0
  5  6  1  0
  5  7  1  0
  7  8  1  0
  7  9  1  0
  7  3  1  0
  9  3  1  0
  1 10  1  0
  4 11  1  0
  4 12  1  0
  5 13  1  0
  6 14  1  0
  6 15  1  0
  6 16  1  0
  8 17  1  0
  9 18  1  0
  9 19  1  0
M  END
