
     RDKit          3D

 19 18  0  0  0  0  0  0  0  0999 V2000
    2.4372   -2.8122    0.2974 C   0  0  0  0  0  0  0  0  0  0  0  0
    1.4739   -2.0931   -0.0436 C   0  0  0  0  0  0  0  0  0  0  0  0
    0.3839   -1.3021   -0.4139 C   0  0  0  0  0  0  0  0  0  0  0  0
   -0.2006   -1.9060   -1.4981 O   0  0  0  0  0  0  0  0  0  0  0  0
   -0.1612   -0.1522    0.0005 C   0  0  0  0  0  0  0  0  0  0  0  0
   -1.4145    0.5059    0.3819 C   0  0  0  0  0  0  0  0  0  0  0  0
   -2.4356    0.6274   -0.7147 C   0  0  0  0  0  0  0  0  0  0  0  0
    0.6989    0.2209    1.1896 O   0  0  0  0  0  0  0  0  0  0  0  0
    1.4441    1.3579    0.8284 C   0  0  0  0  0  0  0  0  0  0  0  0
    3.2638   -3.4334    0.6100 H   0  0  0  0  0  0  0  0  0  0  0  0
    0.3803    0.7056   -0.7138 H   0  0  0  0  0  0  0  0  0  0  0  0
   -1.1638    1.5116    0.7597 H   0  0  0  0  0  0  0  0  0  0  0  0
   -1.8367   -0.0360    1.2526 H   0  0  0  0  0  0  0  0  0  0  0  0
   -3.0489   -0.2721   -0.9071 H   0  0  0  0  0  0  0  0  0  0  0  0
   -3.0779    1.4873   -0.5078 H   0  0  0  0  0  0  0  0  0  0  0  0
   -1.9400    0.8219   -1.7219 H   0  0  0  0  0  0  0  0  0  0  0  0
    1.9831    1.1054   -0.1017 H   0  0  0  0  0  0  0  0  0  0  0  0
    2.2626    1.3689    1.6469 H   0  0  0  0  0  0  0  0  0  0  0  0
    0.9515    2.2942    0.9395 H   0  0  0  0  0  0  0  0  0  0  0  0
  1  2  3  0
  2  3  1  0
  3  4  2  0
  3  5  1  0
  5  6  1  0
  6  7  1  0
  5  8  1  0
  8  9  1  0
  1 10  1  0
  5 11  1  0
  6 12  1  0
  6 13  1  0
  7 14  1  0
  7 15  1  0
  7 16  1  0
  9 17  1  0
  9 18  1  0
  9 19  1  0
M  END
