
     RDKit          3D

 21 22  0  0  0  0  0  0  0  0999 V2000
   -3.5976    0.0774    1.0496 C   0  0  0  0  0  0  0  0  0  0  0  0
   -2.8011   -0.5290    0.3775 C   0  0  0  0  0  0  0  0  0  0  0  0
   -1.8258   -1.2972   -0.4369 C   0  0  0  0  0  0  0  0  0  0  0  0
   -0.7113   -0.3520   -0.7759 C   0  0  0  0  0  0  0  0  0  0  0  0
    0.0696    0.2741    0.3198 C   0  0  0  0  0  0  0  0  0  0  0  0
    0.9162    1.4801   -0.0238 C   0  0  0  0  0  0  0  0  0  0  0  0
    2.2312    0.9555   -0.5462 C   0  0  0  0  0  0  0  0  0  0  0  0
    1.8567   -0.3539   -1.1962 C   0  0  0  0  0  0  0  0  0  0  0  0
    0.6815   -0.8606   -0.4342 C   0  0  0  0  0  0  0  0  0  0  0  0
   -4.2937    0.6081    1.6545 H   0  0  0  0  0  0  0  0  0  0  0  0
   -2.3915   -1.6307   -1.3256 H   0  0  0  0  0  0  0  0  0  0  0  0
   -1.4511   -2.1659    0.1260 H   0  0  0  0  0  0  0  0  0  0  0  0
   -0.7865    0.2489   -1.7087 H   0  0  0  0  0  0  0  0  0  0  0  0
   -0.2258    0.1397    1.3892 H   0  0  0  0  0  0  0  0  0  0  0  0
    0.4044    2.0147   -0.8384 H   0  0  0  0  0  0  0  0  0  0  0  0
    1.1064    2.0781    0.8681 H   0  0  0  0  0  0  0  0  0  0  0  0
    2.7038    1.6368   -1.2840 H   0  0  0  0  0  0  0  0  0  0  0  0
    2.9572    0.7912    0.2707 H   0  0  0  0  0  0  0  0  0  0  0  0
    1.6877   -0.2615   -2.2795 H   0  0  0  0  0  0  0  0  0  0  0  0
    2.6998   -1.0542   -1.0527 H   0  0  0  0  0  0  0  0  0  0  0  0
    0.7697   -1.7996    0.1483 H   0  0  0  0  0  0  0  0  0  0  0  0
  1  2  3  0
  2  3  1  0
  3  4  1  0
  4  5  1  0
  5  6  1  0
  6  7  1  0
  7  8  1  0
  8  9  1  0
  9  4  1  0
  9  5  1  0
  1 10  1  0
  3 11  1  0
  3 12  1  0
  4 13  1  0
  5 14  1  0
  6 15  1  0
  6 16  1  0
  7 17  1  0
  7 18  1  0
  8 19  1  0
  8 20  1  0
  9 21  1  0
M  END
