
     RDKit          3D

 19 20  0  0  0  0  0  0  0  0999 V2000
    3.3543    0.4873   -0.0194 C   0  0  0  0  0  0  0  0  0  0  0  0
    2.1353    0.5388    0.0207 C   0  0  0  0  0  0  0  0  0  0  0  0
    0.6722    0.6165    0.0568 C   0  0  0  0  0  0  0  0  0  0  0  0
    0.0640    0.7270   -1.3030 C   0  0  0  0  0  0  0  0  0  0  0  0
    0.5311   -0.5665   -1.5189 O   0  0  0  0  0  0  0  0  0  0  0  0
   -0.0103   -0.6706   -0.2415 C   0  0  0  0  0  0  0  0  0  0  0  0
   -0.0483   -1.8076    0.5434 C   0  0  0  0  0  0  0  0  0  0  0  0
   -1.1758    0.1023   -0.7645 C   0  0  0  0  0  0  0  0  0  0  0  0
   -1.9283    0.9339    0.2408 C   0  0  0  0  0  0  0  0  0  0  0  0
    4.4123    0.4308   -0.0684 H   0  0  0  0  0  0  0  0  0  0  0  0
    0.2792    1.2518    0.8441 H   0  0  0  0  0  0  0  0  0  0  0  0
    0.1385    1.5001   -1.9455 H   0  0  0  0  0  0  0  0  0  0  0  0
    0.0656   -1.6143    1.6295 H   0  0  0  0  0  0  0  0  0  0  0  0
   -0.9955   -2.4004    0.4143 H   0  0  0  0  0  0  0  0  0  0  0  0
    0.7653   -2.5431    0.2839 H   0  0  0  0  0  0  0  0  0  0  0  0
   -1.7640   -0.4327   -1.5071 H   0  0  0  0  0  0  0  0  0  0  0  0
   -1.8002    2.0208    0.0179 H   0  0  0  0  0  0  0  0  0  0  0  0
   -1.6768    0.6948    1.2889 H   0  0  0  0  0  0  0  0  0  0  0  0
   -3.0184    0.7313    0.0621 H   0  0  0  0  0  0  0  0  0  0  0  0
  1  2  3  0
  2  3  1  0
  3  4  1  0
  4  5  1  0
  5  6  1  0
  6  7  1  0
  6  8  1  0
  8  9  1  0
  6  3  1  0
  8  4  1  0
  1 10  1  0
  3 11  1  0
  4 12  1  0
  7 13  1  0
  7 14  1  0
  7 15  1  0
  8 16  1  0
  9 17  1  0
  9 18  1  0
  9 19  1  0
M  END
