
     RDKit          3D

 21 20  0  0  0  0  0  0  0  0999 V2000
    2.6886   -1.3825   -0.1828 C   0  0  0  0  0  0  0  0  0  0  0  0
    1.7550   -0.9142    0.3799 C   0  0  0  0  0  0  0  0  0  0  0  0
    0.6291   -0.3317    1.0732 C   0  0  0  0  0  0  0  0  0  0  0  0
   -0.2760    0.4207    0.1511 C   0  0  0  0  0  0  0  0  0  0  0  0
   -1.3200    0.9311    0.9489 O   0  0  0  0  0  0  0  0  0  0  0  0
   -0.9169   -0.4387   -0.9004 C   0  0  0  0  0  0  0  0  0  0  0  0
   -1.7386   -1.5055   -0.2218 C   0  0  0  0  0  0  0  0  0  0  0  0
    0.4194    1.6269   -0.4502 C   0  0  0  0  0  0  0  0  0  0  0  0
    0.8901    2.3890    0.6210 O   0  0  0  0  0  0  0  0  0  0  0  0
    3.5372   -1.8055   -0.6727 H   0  0  0  0  0  0  0  0  0  0  0  0
    0.0140   -1.1079    1.5944 H   0  0  0  0  0  0  0  0  0  0  0  0
    0.9535    0.3694    1.8709 H   0  0  0  0  0  0  0  0  0  0  0  0
   -1.7305    1.7229    0.5308 H   0  0  0  0  0  0  0  0  0  0  0  0
   -0.2050   -0.9301   -1.5729 H   0  0  0  0  0  0  0  0  0  0  0  0
   -1.5998    0.2265   -1.4862 H   0  0  0  0  0  0  0  0  0  0  0  0
   -2.2465   -1.0293    0.6373 H   0  0  0  0  0  0  0  0  0  0  0  0
   -1.0838   -2.3365    0.0395 H   0  0  0  0  0  0  0  0  0  0  0  0
   -2.5201   -1.8303   -0.9605 H   0  0  0  0  0  0  0  0  0  0  0  0
    1.2274    1.3539   -1.1344 H   0  0  0  0  0  0  0  0  0  0  0  0
   -0.3501    2.2601   -0.9644 H   0  0  0  0  0  0  0  0  0  0  0  0
    1.8730    2.3118    0.6994 H   0  0  0  0  0  0  0  0  0  0  0  0
  1  2  3  0
  2  3  1  0
  3  4  1  0
  4  5  1  0
  4  6  1  0
  6  7  1  0
  4  8  1  0
  8  9  1  0
  1 10  1  0
  3 11  1  0
  3 12  1  0
  5 13  1  0
  6 14  1  0
  6 15  1  0
  7 16  1  0
  7 17  1  0
  7 18  1  0
  8 19  1  0
  8 20  1  0
  9 21  1  0
M  END
