
     RDKit          3D

 23 23  0  0  0  0  0  0  0  0999 V2000
    4.0147   -1.4550   -0.4424 C   0  0  0  0  0  0  0  0  0  0  0  0
    2.8244   -1.0749   -0.7622 C   0  0  0  0  0  0  0  0  0  0  0  0
    1.5588   -0.6836   -1.1226 C   0  0  0  0  0  0  0  0  0  0  0  0
    0.6360   -0.7454    0.1153 C   0  0  0  0  0  0  0  0  0  0  0  0
   -0.6593   -0.2825   -0.4768 C   0  0  0  0  0  0  0  0  0  0  0  0
   -0.5007    1.1460   -1.0357 C   0  0  0  0  0  0  0  0  0  0  0  0
   -1.5257    0.7842   -0.0214 C   0  0  0  0  0  0  0  0  0  0  0  0
   -1.4703    1.2796    1.4096 C   0  0  0  0  0  0  0  0  0  0  0  0
   -1.7867    0.0988    2.3202 C   0  0  0  0  0  0  0  0  0  0  0  0
    5.0191   -1.7573   -0.1739 H   0  0  0  0  0  0  0  0  0  0  0  0
    1.0348   -1.4601   -1.8091 H   0  0  0  0  0  0  0  0  0  0  0  0
    1.4187    0.2479   -1.6852 H   0  0  0  0  0  0  0  0  0  0  0  0
    0.6100   -1.7775    0.5142 H   0  0  0  0  0  0  0  0  0  0  0  0
    1.0459   -0.0289    0.8814 H   0  0  0  0  0  0  0  0  0  0  0  0
   -1.0878   -1.0633   -1.1561 H   0  0  0  0  0  0  0  0  0  0  0  0
   -0.6897    1.2182   -2.1092 H   0  0  0  0  0  0  0  0  0  0  0  0
    0.3535    1.7431   -0.6965 H   0  0  0  0  0  0  0  0  0  0  0  0
   -2.5549    0.7995   -0.4269 H   0  0  0  0  0  0  0  0  0  0  0  0
   -2.2205    2.0572    1.6289 H   0  0  0  0  0  0  0  0  0  0  0  0
   -0.4831    1.6630    1.6834 H   0  0  0  0  0  0  0  0  0  0  0  0
   -2.3199    0.4058    3.2397 H   0  0  0  0  0  0  0  0  0  0  0  0
   -0.8422   -0.4605    2.5836 H   0  0  0  0  0  0  0  0  0  0  0  0
   -2.3753   -0.6543    1.7052 H   0  0  0  0  0  0  0  0  0  0  0  0
  1  2  3  0
  2  3  1  0
  3  4  1  0
  4  5  1  0
  5  6  1  0
  6  7  1  0
  7  8  1  0
  8  9  1  0
  7  5  1  0
  1 10  1  0
  3 11  1  0
  3 12  1  0
  4 13  1  0
  4 14  1  0
  5 15  1  0
  6 16  1  0
  6 17  1  0
  7 18  1  0
  8 19  1  0
  8 20  1  0
  9 21  1  0
  9 22  1  0
  9 23  1  0
M  END
