
     RDKit          3D

 17 17  0  0  0  0  0  0  0  0999 V2000
    3.0126   -0.6795    1.2484 C   0  0  0  0  0  0  0  0  0  0  0  0
    1.5705   -0.2323    0.7213 C   0  0  0  0  0  0  0  0  0  0  0  0
    0.5177    0.1104    0.3205 C   0  0  0  0  0  0  0  0  0  0  0  0
    0.4711    1.6114    0.0388 C   0  0  0  0  0  0  0  0  0  0  0  0
   -0.8936    1.8634   -0.2035 C   0  0  0  0  0  0  0  0  0  0  0  0
   -1.7402    0.6927   -0.1914 C   0  0  0  0  0  0  0  0  0  0  0  0
   -2.0981    0.3581    1.0788 O   0  0  0  0  0  0  0  0  0  0  0  0
   -0.5493   -0.3352   -0.6487 C   0  0  0  0  0  0  0  0  0  0  0  0
   -0.9501   -1.5954   -0.4362 O   0  0  0  0  0  0  0  0  0  0  0  0
    3.8725   -0.9337    1.5492 H   0  0  0  0  0  0  0  0  0  0  0  0
    1.3241   -0.0247   -1.0457 H   0  0  0  0  0  0  0  0  0  0  0  0
    1.2326    2.3235   -0.1531 H   0  0  0  0  0  0  0  0  0  0  0  0
   -1.1522    2.9551   -0.3733 H   0  0  0  0  0  0  0  0  0  0  0  0
   -2.4287    0.5277   -0.9964 H   0  0  0  0  0  0  0  0  0  0  0  0
   -1.3201    0.4766    1.7097 H   0  0  0  0  0  0  0  0  0  0  0  0
   -0.4515   -0.0646   -1.7357 H   0  0  0  0  0  0  0  0  0  0  0  0
   -0.4173   -2.2878   -0.8826 H   0  0  0  0  0  0  0  0  0  0  0  0
  1  2  3  0
  2  3  1  0
  3  4  1  0
  4  5  2  0
  5  6  1  0
  6  7  1  0
  6  8  1  0
  8  9  1  0
  8  3  1  0
  1 10  1  0
  3 11  1  0
  4 12  1  0
  5 13  1  0
  6 14  1  0
  7 15  1  0
  8 16  1  0
  9 17  1  0
M  END
