
     RDKit          3D

 19 20  0  0  0  0  0  0  0  0999 V2000
    2.7172    1.4931    0.6616 C   0  0  0  0  0  0  0  0  0  0  0  0
    2.0738    0.6511    0.1112 C   0  0  0  0  0  0  0  0  0  0  0  0
    1.2803   -0.3812   -0.5368 C   0  0  0  0  0  0  0  0  0  0  0  0
    0.9941   -1.5504    0.3791 C   0  0  0  0  0  0  0  0  0  0  0  0
   -0.1622   -2.0940   -0.1330 O   0  0  0  0  0  0  0  0  0  0  0  0
   -0.9644   -1.0636   -0.5405 C   0  0  0  0  0  0  0  0  0  0  0  0
   -1.0747    0.1358    0.3263 C   0  0  0  0  0  0  0  0  0  0  0  0
   -2.2301    1.0860    0.1913 C   0  0  0  0  0  0  0  0  0  0  0  0
   -0.1146    0.1319   -0.8178 C   0  0  0  0  0  0  0  0  0  0  0  0
    3.3003    2.2545    1.1391 H   0  0  0  0  0  0  0  0  0  0  0  0
    1.7631   -0.7211   -1.4544 H   0  0  0  0  0  0  0  0  0  0  0  0
    0.8782   -1.2666    1.4280 H   0  0  0  0  0  0  0  0  0  0  0  0
    1.8646   -2.2341    0.3109 H   0  0  0  0  0  0  0  0  0  0  0  0
   -1.8279   -1.2933   -1.1719 H   0  0  0  0  0  0  0  0  0  0  0  0
   -0.7239    0.0046    1.3701 H   0  0  0  0  0  0  0  0  0  0  0  0
   -3.0986    0.7988    0.8060 H   0  0  0  0  0  0  0  0  0  0  0  0
   -1.8802    2.1083    0.5017 H   0  0  0  0  0  0  0  0  0  0  0  0
   -2.5053    1.1690   -0.8792 H   0  0  0  0  0  0  0  0  0  0  0  0
   -0.2898    0.7713   -1.6918 H   0  0  0  0  0  0  0  0  0  0  0  0
  1  2  3  0
  2  3  1  0
  3  4  1  0
  4  5  1  0
  5  6  1  0
  6  7  1  0
  7  8  1  0
  7  9  1  0
  9  3  1  0
  9  6  1  0
  1 10  1  0
  3 11  1  0
  4 12  1  0
  4 13  1  0
  6 14  1  0
  7 15  1  0
  8 16  1  0
  8 17  1  0
  8 18  1  0
  9 19  1  0
M  END
