
     RDKit          3D

 21 21  0  0  0  0  0  0  0  0999 V2000
    3.4710    0.8047    0.5914 C   0  0  0  0  0  0  0  0  0  0  0  0
    2.2685    0.7594    0.6857 C   0  0  0  0  0  0  0  0  0  0  0  0
    0.7946    0.6811    0.7895 C   0  0  0  0  0  0  0  0  0  0  0  0
    0.3007    0.0048   -0.4395 C   0  0  0  0  0  0  0  0  0  0  0  0
    0.9121   -1.3746   -0.5080 C   0  0  0  0  0  0  0  0  0  0  0  0
   -1.1848   -0.0459   -0.5813 C   0  0  0  0  0  0  0  0  0  0  0  0
   -1.9294   -0.7587    0.5076 C   0  0  0  0  0  0  0  0  0  0  0  0
   -2.5311    0.4062    0.9309 O   0  0  0  0  0  0  0  0  0  0  0  0
   -1.9657    1.1293   -0.1182 C   0  0  0  0  0  0  0  0  0  0  0  0
    4.5350    0.8609    0.5149 H   0  0  0  0  0  0  0  0  0  0  0  0
    0.4541    1.7278    0.9025 H   0  0  0  0  0  0  0  0  0  0  0  0
    0.5312    0.1338    1.7130 H   0  0  0  0  0  0  0  0  0  0  0  0
    0.6972    0.5672   -1.3239 H   0  0  0  0  0  0  0  0  0  0  0  0
    1.1396   -1.7849    0.4864 H   0  0  0  0  0  0  0  0  0  0  0  0
    0.2101   -2.0989   -0.9922 H   0  0  0  0  0  0  0  0  0  0  0  0
    1.8793   -1.3436   -1.0709 H   0  0  0  0  0  0  0  0  0  0  0  0
   -1.4493   -0.4196   -1.6026 H   0  0  0  0  0  0  0  0  0  0  0  0
   -2.6701   -1.4758    0.1132 H   0  0  0  0  0  0  0  0  0  0  0  0
   -1.2630   -1.1993    1.2757 H   0  0  0  0  0  0  0  0  0  0  0  0
   -1.4199    2.0401    0.1590 H   0  0  0  0  0  0  0  0  0  0  0  0
   -2.7802    1.3860   -0.8459 H   0  0  0  0  0  0  0  0  0  0  0  0
  1  2  3  0
  2  3  1  0
  3  4  1  0
  4  5  1  0
  4  6  1  0
  6  7  1  0
  7  8  1  0
  8  9  1  0
  9  6  1  0
  1 10  1  0
  3 11  1  0
  3 12  1  0
  4 13  1  0
  5 14  1  0
  5 15  1  0
  5 16  1  0
  6 17  1  0
  7 18  1  0
  7 19  1  0
  9 20  1  0
  9 21  1  0
M  END
