
     RDKit          3D

 19 20  0  0  0  0  0  0  0  0999 V2000
    3.2395   -1.2035   -0.5652 C   0  0  0  0  0  0  0  0  0  0  0  0
    2.2360   -0.5919   -0.3100 C   0  0  0  0  0  0  0  0  0  0  0  0
    1.0426    0.1508    0.0100 C   0  0  0  0  0  0  0  0  0  0  0  0
    0.3502    0.9611   -1.0931 C   0  0  0  0  0  0  0  0  0  0  0  0
   -0.9699    0.5312   -0.4492 C   0  0  0  0  0  0  0  0  0  0  0  0
   -1.6562    1.6064    0.3268 C   0  0  0  0  0  0  0  0  0  0  0  0
   -0.1346   -0.3312    0.4797 C   0  0  0  0  0  0  0  0  0  0  0  0
   -0.5951   -1.7156    0.8082 C   0  0  0  0  0  0  0  0  0  0  0  0
    0.6735    0.3841    1.3251 O   0  0  0  0  0  0  0  0  0  0  0  0
    4.1364   -1.7555   -0.7959 H   0  0  0  0  0  0  0  0  0  0  0  0
    0.5102    2.0414   -1.0390 H   0  0  0  0  0  0  0  0  0  0  0  0
    0.4419    0.4972   -2.0758 H   0  0  0  0  0  0  0  0  0  0  0  0
   -1.5963   -0.1060   -1.0857 H   0  0  0  0  0  0  0  0  0  0  0  0
   -2.2214    1.1994    1.2159 H   0  0  0  0  0  0  0  0  0  0  0  0
   -0.8569    2.2555    0.7739 H   0  0  0  0  0  0  0  0  0  0  0  0
   -2.3069    2.1945   -0.3336 H   0  0  0  0  0  0  0  0  0  0  0  0
   -1.6562   -1.6307    1.1826 H   0  0  0  0  0  0  0  0  0  0  0  0
   -0.0166   -2.0906    1.6747 H   0  0  0  0  0  0  0  0  0  0  0  0
   -0.6202   -2.3964   -0.0494 H   0  0  0  0  0  0  0  0  0  0  0  0
  1  2  3  0
  2  3  1  0
  3  4  1  0
  4  5  1  0
  5  6  1  0
  5  7  1  0
  7  8  1  0
  7  9  1  0
  7  3  1  0
  9  3  1  0
  1 10  1  0
  4 11  1  0
  4 12  1  0
  5 13  1  0
  6 14  1  0
  6 15  1  0
  6 16  1  0
  8 17  1  0
  8 18  1  0
  8 19  1  0
M  END
