
     RDKit          3D

 15 14  0  0  0  0  0  0  0  0999 V2000
   -1.0422   -0.1416    2.3603 C   0  0  0  0  0  0  0  0  0  0  0  0
   -0.6020    0.0886    1.2679 C   0  0  0  0  0  0  0  0  0  0  0  0
   -0.0806    0.3756   -0.0529 C   0  0  0  0  0  0  0  0  0  0  0  0
    1.3390   -0.0220   -0.0704 C   0  0  0  0  0  0  0  0  0  0  0  0
    2.5061   -0.3474   -0.0676 C   0  0  0  0  0  0  0  0  0  0  0  0
   -0.0959    1.8260   -0.2987 C   0  0  0  0  0  0  0  0  0  0  0  0
   -0.1116    3.0153   -0.5066 C   0  0  0  0  0  0  0  0  0  0  0  0
   -0.7640   -0.2431   -1.0644 O   0  0  0  0  0  0  0  0  0  0  0  0
   -0.7862   -1.6059   -1.0147 C   0  0  0  0  0  0  0  0  0  0  0  0
   -1.4434   -0.3418    3.3281 H   0  0  0  0  0  0  0  0  0  0  0  0
    3.5400   -0.6170   -0.0694 H   0  0  0  0  0  0  0  0  0  0  0  0
   -0.1302    4.0681   -0.6731 H   0  0  0  0  0  0  0  0  0  0  0  0
   -1.2338   -2.0494   -0.1309 H   0  0  0  0  0  0  0  0  0  0  0  0
    0.2538   -2.0314   -1.1060 H   0  0  0  0  0  0  0  0  0  0  0  0
   -1.3490   -1.9740   -1.9015 H   0  0  0  0  0  0  0  0  0  0  0  0
  1  2  3  0
  2  3  1  0
  3  4  1  0
  4  5  3  0
  3  6  1  0
  6  7  3  0
  3  8  1  0
  8  9  1  0
  1 10  1  0
  5 11  1  0
  7 12  1  0
  9 13  1  0
  9 14  1  0
  9 15  1  0
M  END
