
     RDKit          3D

 19 20  0  0  0  0  0  0  0  0999 V2000
    2.0675   -0.0992    2.4250 C   0  0  0  0  0  0  0  0  0  0  0  0
    1.0356   -0.1505    1.8715 C   0  0  0  0  0  0  0  0  0  0  0  0
   -0.2756   -0.1943    1.1515 C   0  0  0  0  0  0  0  0  0  0  0  0
   -0.4657    1.1428    0.5042 C   0  0  0  0  0  0  0  0  0  0  0  0
   -0.0214    1.1683   -0.9374 C   0  0  0  0  0  0  0  0  0  0  0  0
   -0.6820    0.0557   -1.7257 C   0  0  0  0  0  0  0  0  0  0  0  0
   -0.2779   -1.2491   -1.1458 C   0  0  0  0  0  0  0  0  0  0  0  0
    0.9816   -1.4090   -0.5811 O   0  0  0  0  0  0  0  0  0  0  0  0
   -0.2184   -1.3489    0.2284 C   0  0  0  0  0  0  0  0  0  0  0  0
    3.0223   -0.0583    2.9574 H   0  0  0  0  0  0  0  0  0  0  0  0
   -1.0305   -0.4014    1.9464 H   0  0  0  0  0  0  0  0  0  0  0  0
   -1.5403    1.4005    0.5434 H   0  0  0  0  0  0  0  0  0  0  0  0
    0.0772    1.9455    1.0380 H   0  0  0  0  0  0  0  0  0  0  0  0
   -0.3736    2.1244   -1.3783 H   0  0  0  0  0  0  0  0  0  0  0  0
    1.0807    1.1640   -1.0489 H   0  0  0  0  0  0  0  0  0  0  0  0
   -1.7800    0.1820   -1.5511 H   0  0  0  0  0  0  0  0  0  0  0  0
   -0.5090    0.1958   -2.7901 H   0  0  0  0  0  0  0  0  0  0  0  0
   -0.6363   -2.1315   -1.7516 H   0  0  0  0  0  0  0  0  0  0  0  0
   -0.4544   -2.3369    0.7314 H   0  0  0  0  0  0  0  0  0  0  0  0
  1  2  3  0
  2  3  1  0
  3  4  1  0
  4  5  1  0
  5  6  1  0
  6  7  1  0
  7  8  1  0
  8  9  1  0
  9  3  1  0
  9  7  1  0
  1 10  1  0
  3 11  1  0
  4 12  1  0
  4 13  1  0
  5 14  1  0
  5 15  1  0
  6 16  1  0
  6 17  1  0
  7 18  1  0
  9 19  1  0
M  END
