
     RDKit          3D

 19 20  0  0  0  0  0  0  0  0999 V2000
   -3.6121    0.8269   -0.5906 C   0  0  0  0  0  0  0  0  0  0  0  0
   -2.5690    0.4932   -0.1305 C   0  0  0  0  0  0  0  0  0  0  0  0
   -1.3141    0.0774    0.4477 C   0  0  0  0  0  0  0  0  0  0  0  0
   -0.8450   -1.3069    0.0932 C   0  0  0  0  0  0  0  0  0  0  0  0
    0.5120   -0.7885   -0.2648 C   0  0  0  0  0  0  0  0  0  0  0  0
    1.1005   -1.1919   -1.4830 O   0  0  0  0  0  0  0  0  0  0  0  0
    1.2032    0.2584    0.4877 C   0  0  0  0  0  0  0  0  0  0  0  0
    2.4624    0.8160   -0.0937 C   0  0  0  0  0  0  0  0  0  0  0  0
   -0.0654    0.6215   -0.2035 C   0  0  0  0  0  0  0  0  0  0  0  0
   -4.5403    1.1379   -1.0027 H   0  0  0  0  0  0  0  0  0  0  0  0
   -1.2599    0.3087    1.5531 H   0  0  0  0  0  0  0  0  0  0  0  0
   -0.8847   -2.0446    0.9103 H   0  0  0  0  0  0  0  0  0  0  0  0
   -1.4365   -1.6898   -0.7654 H   0  0  0  0  0  0  0  0  0  0  0  0
    1.7459   -1.9196   -1.2093 H   0  0  0  0  0  0  0  0  0  0  0  0
    1.1525    0.3400    1.6040 H   0  0  0  0  0  0  0  0  0  0  0  0
    3.3566    0.2191    0.2489 H   0  0  0  0  0  0  0  0  0  0  0  0
    2.4612    0.8742   -1.1887 H   0  0  0  0  0  0  0  0  0  0  0  0
    2.6309    1.8472    0.3311 H   0  0  0  0  0  0  0  0  0  0  0  0
   -0.0981    1.1207   -1.1679 H   0  0  0  0  0  0  0  0  0  0  0  0
  1  2  3  0
  2  3  1  0
  3  4  1  0
  4  5  1  0
  5  6  1  0
  5  7  1  0
  7  8  1  0
  7  9  1  0
  9  3  1  0
  9  5  1  0
  1 10  1  0
  3 11  1  0
  4 12  1  0
  4 13  1  0
  6 14  1  0
  7 15  1  0
  8 16  1  0
  8 17  1  0
  8 18  1  0
  9 19  1  0
M  END
