
     RDKit          3D

 21 21  0  0  0  0  0  0  0  0999 V2000
    2.7655   -1.6414    0.6389 C   0  0  0  0  0  0  0  0  0  0  0  0
    1.9600   -1.0296    0.0066 C   0  0  0  0  0  0  0  0  0  0  0  0
    0.9585   -0.2504   -0.7620 C   0  0  0  0  0  0  0  0  0  0  0  0
    1.0955    1.2427   -0.6686 C   0  0  0  0  0  0  0  0  0  0  0  0
   -0.0424    0.5631    0.0628 C   0  0  0  0  0  0  0  0  0  0  0  0
   -1.3969    0.8028   -0.5661 C   0  0  0  0  0  0  0  0  0  0  0  0
   -2.1680   -0.4219   -0.8935 C   0  0  0  0  0  0  0  0  0  0  0  0
    0.0915    0.3744    1.5543 C   0  0  0  0  0  0  0  0  0  0  0  0
   -0.1053   -0.9521    1.8989 O   0  0  0  0  0  0  0  0  0  0  0  0
    3.5194   -2.2095    1.2129 H   0  0  0  0  0  0  0  0  0  0  0  0
    0.5432   -0.7393   -1.6284 H   0  0  0  0  0  0  0  0  0  0  0  0
    1.9587    1.6121   -0.1022 H   0  0  0  0  0  0  0  0  0  0  0  0
    0.8767    1.8575   -1.5549 H   0  0  0  0  0  0  0  0  0  0  0  0
   -2.0229    1.3634    0.1998 H   0  0  0  0  0  0  0  0  0  0  0  0
   -1.3007    1.5102   -1.4106 H   0  0  0  0  0  0  0  0  0  0  0  0
   -1.9566   -0.6407   -1.9877 H   0  0  0  0  0  0  0  0  0  0  0  0
   -1.8928   -1.3383   -0.3714 H   0  0  0  0  0  0  0  0  0  0  0  0
   -3.2644   -0.2001   -0.7653 H   0  0  0  0  0  0  0  0  0  0  0  0
    1.1278    0.6987    1.8591 H   0  0  0  0  0  0  0  0  0  0  0  0
   -0.6571    0.9845    2.1279 H   0  0  0  0  0  0  0  0  0  0  0  0
   -0.0898   -1.5862    1.1496 H   0  0  0  0  0  0  0  0  0  0  0  0
  1  2  3  0
  2  3  1  0
  3  4  1  0
  4  5  1  0
  5  6  1  0
  6  7  1  0
  5  8  1  0
  8  9  1  0
  5  3  1  0
  1 10  1  0
  3 11  1  0
  4 12  1  0
  4 13  1  0
  6 14  1  0
  6 15  1  0
  7 16  1  0
  7 17  1  0
  7 18  1  0
  8 19  1  0
  8 20  1  0
  9 21  1  0
M  END
