
     RDKit          3D

 21 22  0  0  0  0  0  0  0  0999 V2000
    3.3093    1.5536   -0.7687 C   0  0  0  0  0  0  0  0  0  0  0  0
    2.2587    0.9754   -0.7090 C   0  0  0  0  0  0  0  0  0  0  0  0
    0.9847    0.2715   -0.6111 C   0  0  0  0  0  0  0  0  0  0  0  0
    1.1168   -1.1159   -0.0761 C   0  0  0  0  0  0  0  0  0  0  0  0
   -0.1934   -1.4304    0.6173 C   0  0  0  0  0  0  0  0  0  0  0  0
   -0.8987   -0.1176    0.6804 C   0  0  0  0  0  0  0  0  0  0  0  0
   -2.1873   -0.0240   -0.1513 C   0  0  0  0  0  0  0  0  0  0  0  0
   -2.1829    0.1074    1.3331 C   0  0  0  0  0  0  0  0  0  0  0  0
    0.1135    0.9390    0.4243 C   0  0  0  0  0  0  0  0  0  0  0  0
    4.2396    2.0561   -0.8376 H   0  0  0  0  0  0  0  0  0  0  0  0
    0.4271    0.2800   -1.5650 H   0  0  0  0  0  0  0  0  0  0  0  0
    1.3005   -1.7978   -0.9388 H   0  0  0  0  0  0  0  0  0  0  0  0
    1.9768   -1.1353    0.6497 H   0  0  0  0  0  0  0  0  0  0  0  0
   -0.0141   -1.8565    1.6376 H   0  0  0  0  0  0  0  0  0  0  0  0
   -0.7334   -2.1570   -0.0327 H   0  0  0  0  0  0  0  0  0  0  0  0
   -2.5333   -0.9407   -0.6541 H   0  0  0  0  0  0  0  0  0  0  0  0
   -2.3253    0.8868   -0.7766 H   0  0  0  0  0  0  0  0  0  0  0  0
   -2.6066   -0.6709    1.9906 H   0  0  0  0  0  0  0  0  0  0  0  0
   -2.3618    1.1604    1.7031 H   0  0  0  0  0  0  0  0  0  0  0  0
   -0.3535    1.8694    0.0493 H   0  0  0  0  0  0  0  0  0  0  0  0
    0.6633    1.1465    1.3639 H   0  0  0  0  0  0  0  0  0  0  0  0
  1  2  3  0
  2  3  1  0
  3  4  1  0
  4  5  1  0
  5  6  1  0
  6  7  1  0
  7  8  1  0
  6  9  1  0
  9  3  1  0
  8  6  1  0
  1 10  1  0
  3 11  1  0
  4 12  1  0
  4 13  1  0
  5 14  1  0
  5 15  1  0
  7 16  1  0
  7 17  1  0
  8 18  1  0
  8 19  1  0
  9 20  1  0
  9 21  1  0
M  END
