
     RDKit          3D

 15 15  0  0  0  0  0  0  0  0999 V2000
   -2.1265    2.0527    0.7774 C   0  0  0  0  0  0  0  0  0  0  0  0
   -1.4147    1.0755    0.7306 C   0  0  0  0  0  0  0  0  0  0  0  0
   -0.5432   -0.1135    0.6985 C   0  0  0  0  0  0  0  0  0  0  0  0
    0.4037   -0.1874   -0.4524 C   0  0  0  0  0  0  0  0  0  0  0  0
    1.7056    0.2880   -0.1207 O   0  0  0  0  0  0  0  0  0  0  0  0
    2.6757    0.2686   -1.1124 C   0  0  0  0  0  0  0  0  0  0  0  0
    2.3735   -0.1616   -2.2492 O   0  0  0  0  0  0  0  0  0  0  0  0
   -1.2036   -1.4469    1.0546 C   0  0  0  0  0  0  0  0  0  0  0  0
   -0.3150   -0.7830    1.8685 O   0  0  0  0  0  0  0  0  0  0  0  0
   -2.7467    2.9167    0.8077 H   0  0  0  0  0  0  0  0  0  0  0  0
    0.5333   -1.2172   -0.8221 H   0  0  0  0  0  0  0  0  0  0  0  0
    0.0258    0.4567   -1.2738 H   0  0  0  0  0  0  0  0  0  0  0  0
    3.6969    0.6143   -0.9424 H   0  0  0  0  0  0  0  0  0  0  0  0
   -2.2839   -1.3910    1.2202 H   0  0  0  0  0  0  0  0  0  0  0  0
   -0.7808   -2.3720    0.5832 H   0  0  0  0  0  0  0  0  0  0  0  0
  1  2  3  0
  2  3  1  0
  3  4  1  0
  4  5  1  0
  5  6  1  0
  6  7  2  0
  3  8  1  0
  8  9  1  0
  9  3  1  0
  1 10  1  0
  4 11  1  0
  4 12  1  0
  6 13  1  0
  8 14  1  0
  8 15  1  0
M  END
