
     RDKit          3D

 17 17  0  0  0  0  0  0  0  0999 V2000
    2.7132   -0.2524    0.6752 C   0  0  0  0  0  0  0  0  0  0  0  0
    1.7254    0.4386    0.6233 C   0  0  0  0  0  0  0  0  0  0  0  0
    0.5065    1.2763    0.5790 C   0  0  0  0  0  0  0  0  0  0  0  0
   -0.6030    0.4672   -0.0265 C   0  0  0  0  0  0  0  0  0  0  0  0
   -1.8034    1.1381   -0.1255 O   0  0  0  0  0  0  0  0  0  0  0  0
   -0.8295   -0.8727    0.6707 C   0  0  0  0  0  0  0  0  0  0  0  0
   -1.1064   -1.4273   -0.6727 C   0  0  0  0  0  0  0  0  0  0  0  0
   -1.7422   -2.3528   -1.1047 O   0  0  0  0  0  0  0  0  0  0  0  0
   -0.2622   -0.3472   -1.2305 C   0  0  0  0  0  0  0  0  0  0  0  0
    3.5945   -0.8593    0.7056 H   0  0  0  0  0  0  0  0  0  0  0  0
    0.7206    2.1467   -0.0303 H   0  0  0  0  0  0  0  0  0  0  0  0
    0.1955    1.5142    1.6294 H   0  0  0  0  0  0  0  0  0  0  0  0
   -1.7525    1.9028   -0.7534 H   0  0  0  0  0  0  0  0  0  0  0  0
    0.0894   -1.3240    1.0849 H   0  0  0  0  0  0  0  0  0  0  0  0
   -1.6853   -0.8405    1.3686 H   0  0  0  0  0  0  0  0  0  0  0  0
    0.8143   -0.6625   -1.1819 H   0  0  0  0  0  0  0  0  0  0  0  0
   -0.5748    0.0548   -2.2114 H   0  0  0  0  0  0  0  0  0  0  0  0
  1  2  3  0
  2  3  1  0
  3  4  1  0
  4  5  1  0
  4  6  1  0
  6  7  1  0
  7  8  2  0
  7  9  1  0
  9  4  1  0
  1 10  1  0
  3 11  1  0
  3 12  1  0
  5 13  1  0
  6 14  1  0
  6 15  1  0
  9 16  1  0
  9 17  1  0
M  END
