
     RDKit          3D

 14 13  0  0  0  0  0  0  0  0999 V2000
    2.9731    0.5108    0.1821 C   0  0  0  0  0  0  0  0  0  0  0  0
    1.9872   -0.0173   -0.2522 C   0  0  0  0  0  0  0  0  0  0  0  0
    0.7746   -0.6788   -0.7775 C   0  0  0  0  0  0  0  0  0  0  0  0
   -0.1716   -0.7456    0.3808 C   0  0  0  0  0  0  0  0  0  0  0  0
   -0.3040   -1.7559    1.0389 O   0  0  0  0  0  0  0  0  0  0  0  0
   -0.9863    0.4434    0.7609 C   0  0  0  0  0  0  0  0  0  0  0  0
   -2.2923    0.4413    0.0729 C   0  0  0  0  0  0  0  0  0  0  0  0
   -2.4138    0.7625   -1.1050 O   0  0  0  0  0  0  0  0  0  0  0  0
    3.8402    0.9785    0.5829 H   0  0  0  0  0  0  0  0  0  0  0  0
    0.3814   -0.1136   -1.6267 H   0  0  0  0  0  0  0  0  0  0  0  0
    0.9681   -1.7302   -1.0810 H   0  0  0  0  0  0  0  0  0  0  0  0
   -0.4144    1.3880    0.6154 H   0  0  0  0  0  0  0  0  0  0  0  0
   -1.1646    0.3791    1.8677 H   0  0  0  0  0  0  0  0  0  0  0  0
   -3.1776    0.1376    0.6545 H   0  0  0  0  0  0  0  0  0  0  0  0
  1  2  3  0
  2  3  1  0
  3  4  1  0
  4  5  2  0
  4  6  1  0
  6  7  1  0
  7  8  2  0
  1  9  1  0
  3 10  1  0
  3 11  1  0
  6 12  1  0
  6 13  1  0
  7 14  1  0
M  END
