
     RDKit          3D

 17 17  0  0  0  0  0  0  0  0999 V2000
    0.2264    2.3978    1.4283 C   0  0  0  0  0  0  0  0  0  0  0  0
    0.0053    1.3239    0.8968 C   0  0  0  0  0  0  0  0  0  0  0  0
   -0.2677    0.0183    0.2784 C   0  0  0  0  0  0  0  0  0  0  0  0
   -1.5599   -0.5425    0.8116 C   0  0  0  0  0  0  0  0  0  0  0  0
   -0.2965    0.1550   -1.2385 C   0  0  0  0  0  0  0  0  0  0  0  0
    0.9867   -0.3883   -1.6883 C   0  0  0  0  0  0  0  0  0  0  0  0
    1.6339   -0.9442   -0.6830 C   0  0  0  0  0  0  0  0  0  0  0  0
    0.8831   -0.8464    0.5430 C   0  0  0  0  0  0  0  0  0  0  0  0
    1.1616   -1.3964    1.6289 O   0  0  0  0  0  0  0  0  0  0  0  0
    0.4318    3.3360    1.8782 H   0  0  0  0  0  0  0  0  0  0  0  0
   -1.9398   -1.2544    0.0333 H   0  0  0  0  0  0  0  0  0  0  0  0
   -2.3282    0.2088    0.9892 H   0  0  0  0  0  0  0  0  0  0  0  0
   -1.3241   -1.1546    1.6975 H   0  0  0  0  0  0  0  0  0  0  0  0
   -1.1733   -0.4007   -1.6160 H   0  0  0  0  0  0  0  0  0  0  0  0
   -0.3832    1.2298   -1.4654 H   0  0  0  0  0  0  0  0  0  0  0  0
    1.3243   -0.3200   -2.7302 H   0  0  0  0  0  0  0  0  0  0  0  0
    2.6194   -1.4219   -0.7639 H   0  0  0  0  0  0  0  0  0  0  0  0
  1  2  3  0
  2  3  1  0
  3  4  1  0
  3  5  1  0
  5  6  1  0
  6  7  2  0
  7  8  1  0
  8  9  2  0
  8  3  1  0
  1 10  1  0
  4 11  1  0
  4 12  1  0
  4 13  1  0
  5 14  1  0
  5 15  1  0
  6 16  1  0
  7 17  1  0
M  END
