
     RDKit          3D

 17 18  0  0  0  0  0  0  0  0999 V2000
    2.8223    0.9546   -1.9080 C   0  0  0  0  0  0  0  0  0  0  0  0
    1.8116    0.6083   -1.3162 C   0  0  0  0  0  0  0  0  0  0  0  0
    0.6219    0.2215   -0.6235 C   0  0  0  0  0  0  0  0  0  0  0  0
   -0.2437   -0.6754   -1.0666 C   0  0  0  0  0  0  0  0  0  0  0  0
   -1.3098   -0.7688   -0.0775 C   0  0  0  0  0  0  0  0  0  0  0  0
   -0.6870   -1.3186    1.1777 C   0  0  0  0  0  0  0  0  0  0  0  0
    0.1764   -0.4082    1.6239 C   0  0  0  0  0  0  0  0  0  0  0  0
    0.1173    0.7274    0.7014 C   0  0  0  0  0  0  0  0  0  0  0  0
   -1.3884    0.7120    0.3597 C   0  0  0  0  0  0  0  0  0  0  0  0
    3.7040    1.2489   -2.4036 H   0  0  0  0  0  0  0  0  0  0  0  0
   -0.1559   -1.2184   -1.9841 H   0  0  0  0  0  0  0  0  0  0  0  0
   -2.2399   -1.1916   -0.3523 H   0  0  0  0  0  0  0  0  0  0  0  0
   -0.9319   -2.2826    1.5969 H   0  0  0  0  0  0  0  0  0  0  0  0
    0.8059   -0.4828    2.4991 H   0  0  0  0  0  0  0  0  0  0  0  0
    0.4917    1.6658    1.0073 H   0  0  0  0  0  0  0  0  0  0  0  0
   -2.0016    0.8383    1.2462 H   0  0  0  0  0  0  0  0  0  0  0  0
   -1.5929    1.3698   -0.4804 H   0  0  0  0  0  0  0  0  0  0  0  0
  1  2  3  0
  2  3  1  0
  3  4  2  0
  4  5  1  0
  5  6  1  0
  6  7  2  0
  7  8  1  0
  8  9  1  0
  8  3  1  0
  9  5  1  0
  1 10  1  0
  4 11  1  0
  5 12  1  0
  6 13  1  0
  7 14  1  0
  8 15  1  0
  9 16  1  0
  9 17  1  0
M  END
