
     RDKit          3D

 19 19  0  0  0  0  0  0  0  0999 V2000
    2.7625   -0.4157    0.2492 C   0  0  0  0  0  0  0  0  0  0  0  0
    1.5671   -0.7457    0.7641 C   0  0  0  0  0  0  0  0  0  0  0  0
    0.4391   -1.0422    1.2322 C   0  0  0  0  0  0  0  0  0  0  0  0
   -0.4477    0.4891    0.4452 C   0  0  0  0  0  0  0  0  0  0  0  0
   -0.1840    1.0035    1.4936 C   0  0  0  0  0  0  0  0  0  0  0  0
    0.1230    1.6250    2.7969 C   0  0  0  0  0  0  0  0  0  0  0  0
   -0.2678   -0.0028   -0.8253 C   0  0  0  0  0  0  0  0  0  0  0  0
   -0.5017    0.6393   -2.1920 C   0  0  0  0  0  0  0  0  0  0  0  0
   -1.5703   -0.2150   -1.6827 C   0  0  0  0  0  0  0  0  0  0  0  0
    3.8150   -0.1276   -0.2245 H   0  0  0  0  0  0  0  0  0  0  0  0
    0.1090   -1.1095    2.1730 H   0  0  0  0  0  0  0  0  0  0  0  0
   -0.2061   -1.7498    0.5629 H   0  0  0  0  0  0  0  0  0  0  0  0
   -1.5901   -0.0881    0.8679 H   0  0  0  0  0  0  0  0  0  0  0  0
    0.3654    2.1197    3.8766 H   0  0  0  0  0  0  0  0  0  0  0  0
    0.1329   -1.1736   -0.8805 H   0  0  0  0  0  0  0  0  0  0  0  0
    0.0967    0.2685   -3.0741 H   0  0  0  0  0  0  0  0  0  0  0  0
   -0.5602    1.7823   -2.1166 H   0  0  0  0  0  0  0  0  0  0  0  0
   -2.5400    0.0230   -1.3695 H   0  0  0  0  0  0  0  0  0  0  0  0
   -1.5428   -1.2804   -2.0963 H   0  0  0  0  0  0  0  0  0  0  0  0
  1  2  3  0
  2  3  1  0
  3  4  1  0
  4  5  1  0
  5  6  3  0
  4  7  1  0
  7  8  1  0
  8  9  1  0
  9  7  1  0
  1 10  1  0
  3 11  1  0
  3 12  1  0
  4 13  1  0
  6 14  1  0
  7 15  1  0
  8 16  1  0
  8 17  1  0
  9 18  1  0
  9 19  1  0
M  END
