
     RDKit          3D

 17 18  0  0  0  0  0  0  0  0999 V2000
    2.7440    0.7337   -0.7598 C   0  0  0  0  0  0  0  0  0  0  0  0
    1.7576    0.5820   -0.0775 C   0  0  0  0  0  0  0  0  0  0  0  0
    0.5621    0.4050    0.7193 C   0  0  0  0  0  0  0  0  0  0  0  0
    0.1345   -1.0133    0.9713 C   0  0  0  0  0  0  0  0  0  0  0  0
   -1.2707   -0.4585    1.0282 C   0  0  0  0  0  0  0  0  0  0  0  0
   -0.6468    0.2481   -0.1479 C   0  0  0  0  0  0  0  0  0  0  0  0
   -1.2441    1.1341   -0.9599 C   0  0  0  0  0  0  0  0  0  0  0  0
   -0.8705    1.3376   -2.1246 O   0  0  0  0  0  0  0  0  0  0  0  0
   -0.0926   -1.1100   -0.5109 C   0  0  0  0  0  0  0  0  0  0  0  0
    3.6122    0.8822   -1.3504 H   0  0  0  0  0  0  0  0  0  0  0  0
    0.4249    1.0578    1.5781 H   0  0  0  0  0  0  0  0  0  0  0  0
    0.5438   -1.6851    1.5809 H   0  0  0  0  0  0  0  0  0  0  0  0
   -1.4351    0.2188    1.8749 H   0  0  0  0  0  0  0  0  0  0  0  0
   -2.0662   -1.1750    0.7989 H   0  0  0  0  0  0  0  0  0  0  0  0
   -2.1127    1.7630   -0.6851 H   0  0  0  0  0  0  0  0  0  0  0  0
   -0.8502   -1.8654   -0.7939 H   0  0  0  0  0  0  0  0  0  0  0  0
    0.8097   -1.0550   -1.1415 H   0  0  0  0  0  0  0  0  0  0  0  0
  1  2  3  0
  2  3  1  0
  3  4  1  0
  4  5  1  0
  5  6  1  0
  6  7  1  0
  7  8  2  0
  6  9  1  0
  6  3  1  0
  9  4  1  0
  1 10  1  0
  3 11  1  0
  4 12  1  0
  5 13  1  0
  5 14  1  0
  7 15  1  0
  9 16  1  0
  9 17  1  0
M  END
