
     RDKit          3D

 17 18  0  0  0  0  0  0  0  0999 V2000
    2.0917    0.5740    1.7648 C   0  0  0  0  0  0  0  0  0  0  0  0
    1.2168    0.0204    1.1636 C   0  0  0  0  0  0  0  0  0  0  0  0
    0.1815   -0.6580    0.4301 C   0  0  0  0  0  0  0  0  0  0  0  0
   -0.0945   -1.9562    0.8549 O   0  0  0  0  0  0  0  0  0  0  0  0
   -1.0414    0.2140    0.2689 C   0  0  0  0  0  0  0  0  0  0  0  0
   -1.3933   -0.7144   -0.8621 C   0  0  0  0  0  0  0  0  0  0  0  0
    0.0895   -0.4521   -1.0380 C   0  0  0  0  0  0  0  0  0  0  0  0
   -0.2511    0.9806   -0.7450 C   0  0  0  0  0  0  0  0  0  0  0  0
    0.7529    1.7995   -0.3068 O   0  0  0  0  0  0  0  0  0  0  0  0
    2.8753    1.0635    2.3205 H   0  0  0  0  0  0  0  0  0  0  0  0
    0.7361   -2.4915    0.7593 H   0  0  0  0  0  0  0  0  0  0  0  0
   -1.6391    0.5578    0.9879 H   0  0  0  0  0  0  0  0  0  0  0  0
   -2.0189   -0.2997   -1.6560 H   0  0  0  0  0  0  0  0  0  0  0  0
   -1.6567   -1.7090   -0.4720 H   0  0  0  0  0  0  0  0  0  0  0  0
    0.6665   -0.8067   -1.7703 H   0  0  0  0  0  0  0  0  0  0  0  0
   -0.8968    1.3923   -1.5457 H   0  0  0  0  0  0  0  0  0  0  0  0
    0.3814    2.4853    0.3068 H   0  0  0  0  0  0  0  0  0  0  0  0
  1  2  3  0
  2  3  1  0
  3  4  1  0
  3  5  1  0
  5  6  1  0
  6  7  1  0
  7  8  1  0
  8  9  1  0
  7  3  1  0
  8  5  1  0
  1 10  1  0
  4 11  1  0
  5 12  1  0
  6 13  1  0
  6 14  1  0
  7 15  1  0
  8 16  1  0
  9 17  1  0
M  END
