
     RDKit          3D

 21 21  0  0  0  0  0  0  0  0999 V2000
   -2.6278    0.9477    1.3258 C   0  0  0  0  0  0  0  0  0  0  0  0
   -1.9016    0.0018    0.9630 C   0  0  0  0  0  0  0  0  0  0  0  0
   -1.0049   -1.1637    0.5425 C   0  0  0  0  0  0  0  0  0  0  0  0
    0.2510   -0.7810   -0.1021 C   0  0  0  0  0  0  0  0  0  0  0  0
    0.1165   -0.0692   -1.3162 O   0  0  0  0  0  0  0  0  0  0  0  0
   -0.3238    1.2325   -1.1566 C   0  0  0  0  0  0  0  0  0  0  0  0
    0.6501    2.0102   -0.2826 C   0  0  0  0  0  0  0  0  0  0  0  0
    1.5783   -0.9597    0.4816 C   0  0  0  0  0  0  0  0  0  0  0  0
    1.1297   -2.0727   -0.3514 C   0  0  0  0  0  0  0  0  0  0  0  0
   -3.0901    1.5653    1.5549 H   0  0  0  0  0  0  0  0  0  0  0  0
   -0.9969   -1.8502    1.3998 H   0  0  0  0  0  0  0  0  0  0  0  0
   -1.6109   -1.7242   -0.2464 H   0  0  0  0  0  0  0  0  0  0  0  0
   -1.3219    1.4646   -0.9494 H   0  0  0  0  0  0  0  0  0  0  0  0
   -0.1360    1.6924   -2.2044 H   0  0  0  0  0  0  0  0  0  0  0  0
    1.6598    2.0598   -0.7646 H   0  0  0  0  0  0  0  0  0  0  0  0
    0.3803    3.0527   -0.0802 H   0  0  0  0  0  0  0  0  0  0  0  0
    0.8059    1.4861    0.6750 H   0  0  0  0  0  0  0  0  0  0  0  0
    1.6345   -1.1990    1.5707 H   0  0  0  0  0  0  0  0  0  0  0  0
    2.5172   -0.4842    0.1505 H   0  0  0  0  0  0  0  0  0  0  0  0
    1.4843   -2.2061   -1.3641 H   0  0  0  0  0  0  0  0  0  0  0  0
    0.8064   -3.0030    0.1540 H   0  0  0  0  0  0  0  0  0  0  0  0
  1  2  3  0
  2  3  1  0
  3  4  1  0
  4  5  1  0
  5  6  1  0
  6  7  1  0
  4  8  1  0
  8  9  1  0
  9  4  1  0
  1 10  1  0
  3 11  1  0
  3 12  1  0
  6 13  1  0
  6 14  1  0
  7 15  1  0
  7 16  1  0
  7 17  1  0
  8 18  1  0
  8 19  1  0
  9 20  1  0
  9 21  1  0
M  END
