
     RDKit          3D

 17 17  0  0  0  0  0  0  0  0999 V2000
    4.0082    1.1439   -0.5271 C   0  0  0  0  0  0  0  0  0  0  0  0
    2.8933    0.7044   -0.3629 C   0  0  0  0  0  0  0  0  0  0  0  0
    1.5344    0.1962   -0.1645 C   0  0  0  0  0  0  0  0  0  0  0  0
    0.8619    0.7540    0.9980 O   0  0  0  0  0  0  0  0  0  0  0  0
    1.1956   -0.6916    0.9256 C   0  0  0  0  0  0  0  0  0  0  0  0
   -0.0528   -1.5374    0.8048 C   0  0  0  0  0  0  0  0  0  0  0  0
   -1.2634   -0.7286    0.6515 C   0  0  0  0  0  0  0  0  0  0  0  0
   -2.2489   -0.0451    0.5227 C   0  0  0  0  0  0  0  0  0  0  0  0
   -3.4358    0.8067    0.3561 C   0  0  0  0  0  0  0  0  0  0  0  0
    4.9972    1.5145   -0.6668 H   0  0  0  0  0  0  0  0  0  0  0  0
    0.9092    0.1582   -1.0778 H   0  0  0  0  0  0  0  0  0  0  0  0
    1.9631   -0.9741    1.6721 H   0  0  0  0  0  0  0  0  0  0  0  0
   -0.0116   -2.2168   -0.0835 H   0  0  0  0  0  0  0  0  0  0  0  0
   -0.1105   -2.1578    1.7466 H   0  0  0  0  0  0  0  0  0  0  0  0
   -4.2367    0.4277    1.0420 H   0  0  0  0  0  0  0  0  0  0  0  0
   -3.7744    0.7907   -0.6770 H   0  0  0  0  0  0  0  0  0  0  0  0
   -3.2288    1.8550    0.6565 H   0  0  0  0  0  0  0  0  0  0  0  0
  1  2  3  0
  2  3  1  0
  3  4  1  0
  4  5  1  0
  5  6  1  0
  6  7  1  0
  7  8  3  0
  8  9  1  0
  5  3  1  0
  1 10  1  0
  3 11  1  0
  5 12  1  0
  6 13  1  0
  6 14  1  0
  9 15  1  0
  9 16  1  0
  9 17  1  0
M  END
