
     RDKit          3D

 21 21  0  0  0  0  0  0  0  0999 V2000
    3.5491    0.0819   -0.9586 C   0  0  0  0  0  0  0  0  0  0  0  0
    2.4155   -0.0932   -0.6020 C   0  0  0  0  0  0  0  0  0  0  0  0
    1.0658   -0.3049   -0.1525 C   0  0  0  0  0  0  0  0  0  0  0  0
    0.1144   -0.4737   -1.3397 C   0  0  0  0  0  0  0  0  0  0  0  0
   -1.2699   -0.8022   -0.8955 C   0  0  0  0  0  0  0  0  0  0  0  0
   -1.6500   -0.4114    0.4651 C   0  0  0  0  0  0  0  0  0  0  0  0
   -0.7559    0.4377    1.2529 C   0  0  0  0  0  0  0  0  0  0  0  0
   -1.4112    1.5968    1.7367 O   0  0  0  0  0  0  0  0  0  0  0  0
    0.4924    0.9187    0.5758 C   0  0  0  0  0  0  0  0  0  0  0  0
    4.5656    0.2247   -1.2907 H   0  0  0  0  0  0  0  0  0  0  0  0
    0.9224   -1.1896    0.4804 H   0  0  0  0  0  0  0  0  0  0  0  0
    0.0912    0.5471   -1.8249 H   0  0  0  0  0  0  0  0  0  0  0  0
    0.5196   -1.1778   -2.0919 H   0  0  0  0  0  0  0  0  0  0  0  0
   -1.9655   -0.3622   -1.6737 H   0  0  0  0  0  0  0  0  0  0  0  0
   -1.3988   -1.9159   -1.0574 H   0  0  0  0  0  0  0  0  0  0  0  0
   -1.8751   -1.3456    1.0635 H   0  0  0  0  0  0  0  0  0  0  0  0
   -2.6638    0.0923    0.4162 H   0  0  0  0  0  0  0  0  0  0  0  0
   -0.4088   -0.0766    2.2002 H   0  0  0  0  0  0  0  0  0  0  0  0
   -1.9100    1.3532    2.5782 H   0  0  0  0  0  0  0  0  0  0  0  0
    1.2597    1.2132    1.3186 H   0  0  0  0  0  0  0  0  0  0  0  0
    0.3134    1.6876   -0.2007 H   0  0  0  0  0  0  0  0  0  0  0  0
  1  2  3  0
  2  3  1  0
  3  4  1  0
  4  5  1  0
  5  6  1  0
  6  7  1  0
  7  8  1  0
  7  9  1  0
  9  3  1  0
  1 10  1  0
  3 11  1  0
  4 12  1  0
  4 13  1  0
  5 14  1  0
  5 15  1  0
  6 16  1  0
  6 17  1  0
  7 18  1  0
  8 19  1  0
  9 20  1  0
  9 21  1  0
M  END
