
     RDKit          3D

 17 17  0  0  0  0  0  0  0  0999 V2000
    2.4199   -0.3390    1.9588 C   0  0  0  0  0  0  0  0  0  0  0  0
    1.3899   -0.6978    1.4443 C   0  0  0  0  0  0  0  0  0  0  0  0
    0.1458   -1.1516    0.8147 C   0  0  0  0  0  0  0  0  0  0  0  0
   -0.7486    0.0886    0.7129 C   0  0  0  0  0  0  0  0  0  0  0  0
   -0.1920    0.6530   -0.6023 C   0  0  0  0  0  0  0  0  0  0  0  0
   -1.1279    1.5956   -1.2094 C   0  0  0  0  0  0  0  0  0  0  0  0
   -2.2923    1.3016   -1.3301 O   0  0  0  0  0  0  0  0  0  0  0  0
   -0.0758   -0.6511   -1.3752 C   0  0  0  0  0  0  0  0  0  0  0  0
    0.4421   -1.5335   -0.4628 O   0  0  0  0  0  0  0  0  0  0  0  0
    3.3285   -0.0320    2.4291 H   0  0  0  0  0  0  0  0  0  0  0  0
   -0.3594   -1.9287    1.4277 H   0  0  0  0  0  0  0  0  0  0  0  0
   -0.5870    0.7583    1.5564 H   0  0  0  0  0  0  0  0  0  0  0  0
   -1.7970   -0.1577    0.5683 H   0  0  0  0  0  0  0  0  0  0  0  0
    0.8181    1.0567   -0.4370 H   0  0  0  0  0  0  0  0  0  0  0  0
   -0.7735    2.5515   -1.5475 H   0  0  0  0  0  0  0  0  0  0  0  0
    0.5260   -0.5373   -2.2947 H   0  0  0  0  0  0  0  0  0  0  0  0
   -1.1169   -0.9766   -1.6532 H   0  0  0  0  0  0  0  0  0  0  0  0
  1  2  3  0
  2  3  1  0
  3  4  1  0
  4  5  1  0
  5  6  1  0
  6  7  2  0
  5  8  1  0
  8  9  1  0
  9  3  1  0
  1 10  1  0
  3 11  1  0
  4 12  1  0
  4 13  1  0
  5 14  1  0
  6 15  1  0
  8 16  1  0
  8 17  1  0
M  END
