
     RDKit          3D

 17 19  0  0  0  0  0  0  0  0999 V2000
    2.2842   -1.4307   -1.2466 C   0  0  0  0  0  0  0  0  0  0  0  0
    1.3947   -0.7149   -0.9420 C   0  0  0  0  0  0  0  0  0  0  0  0
    0.3398    0.1124   -0.6020 C   0  0  0  0  0  0  0  0  0  0  0  0
    0.5161    1.5616   -0.0954 C   0  0  0  0  0  0  0  0  0  0  0  0
   -0.1238    1.0172    1.1983 C   0  0  0  0  0  0  0  0  0  0  0  0
   -0.7776   -0.0040    0.2480 C   0  0  0  0  0  0  0  0  0  0  0  0
   -1.3014   -1.2242    0.8408 C   0  0  0  0  0  0  0  0  0  0  0  0
   -1.5611    0.6273   -0.7539 O   0  0  0  0  0  0  0  0  0  0  0  0
   -0.3368    1.1670   -1.2443 C   0  0  0  0  0  0  0  0  0  0  0  0
    3.1040   -2.0806   -1.5083 H   0  0  0  0  0  0  0  0  0  0  0  0
    1.5402    1.8736   -0.1236 H   0  0  0  0  0  0  0  0  0  0  0  0
    0.5613    0.4909    1.8544 H   0  0  0  0  0  0  0  0  0  0  0  0
   -0.8518    1.7076    1.6175 H   0  0  0  0  0  0  0  0  0  0  0  0
   -1.2212   -1.2087    1.9516 H   0  0  0  0  0  0  0  0  0  0  0  0
   -2.4067   -1.3013    0.6287 H   0  0  0  0  0  0  0  0  0  0  0  0
   -0.8797   -2.1696    0.4107 H   0  0  0  0  0  0  0  0  0  0  0  0
   -0.2803    1.5765   -2.2338 H   0  0  0  0  0  0  0  0  0  0  0  0
  1  2  3  0
  2  3  1  0
  3  4  1  0
  4  5  1  0
  5  6  1  0
  6  7  1  0
  6  8  1  0
  8  9  1  0
  6  3  1  0
  9  3  1  0
  9  4  1  0
  1 10  1  0
  4 11  1  0
  5 12  1  0
  5 13  1  0
  7 14  1  0
  7 15  1  0
  7 16  1  0
  9 17  1  0
M  END
