
     RDKit          3D

 23 22  0  0  0  0  0  0  0  0999 V2000
    2.8242   -1.0936   -2.6641 C   0  0  0  0  0  0  0  0  0  0  0  0
    2.2164   -1.0152   -1.5651 C   0  0  0  0  0  0  0  0  0  0  0  0
    1.6568   -0.9633   -0.5568 C   0  0  0  0  0  0  0  0  0  0  0  0
    0.4198    0.0992   -0.5866 C   0  0  0  0  0  0  0  0  0  0  0  0
   -0.3926    0.0509    0.6009 C   0  0  0  0  0  0  0  0  0  0  0  0
   -1.5280    1.0665    0.4594 C   0  0  0  0  0  0  0  0  0  0  0  0
   -1.1396    2.4790    0.2430 C   0  0  0  0  0  0  0  0  0  0  0  0
    0.0652   -0.3657    1.7853 O   0  0  0  0  0  0  0  0  0  0  0  0
   -0.6171   -1.5675    2.1830 C   0  0  0  0  0  0  0  0  0  0  0  0
    3.4964   -1.1795   -3.9102 H   0  0  0  0  0  0  0  0  0  0  0  0
    2.2990   -0.3621    0.3061 H   0  0  0  0  0  0  0  0  0  0  0  0
    1.2579   -1.8374    0.0971 H   0  0  0  0  0  0  0  0  0  0  0  0
   -0.1771   -0.2725   -1.5300 H   0  0  0  0  0  0  0  0  0  0  0  0
    0.8150    1.0577   -0.8360 H   0  0  0  0  0  0  0  0  0  0  0  0
   -1.0620   -0.9854    0.2237 H   0  0  0  0  0  0  0  0  0  0  0  0
   -2.2978    1.0146    1.2650 H   0  0  0  0  0  0  0  0  0  0  0  0
   -2.1568    0.7898   -0.4406 H   0  0  0  0  0  0  0  0  0  0  0  0
   -2.1245    3.0117   -0.0742 H   0  0  0  0  0  0  0  0  0  0  0  0
   -0.6497    3.0173    1.0527 H   0  0  0  0  0  0  0  0  0  0  0  0
   -0.4423    2.5311   -0.6506 H   0  0  0  0  0  0  0  0  0  0  0  0
   -0.5422   -2.3550    1.4424 H   0  0  0  0  0  0  0  0  0  0  0  0
   -1.7032   -1.2777    2.2937 H   0  0  0  0  0  0  0  0  0  0  0  0
   -0.2178   -1.8428    3.1431 H   0  0  0  0  0  0  0  0  0  0  0  0
  1  2  3  0
  2  3  1  0
  3  4  1  0
  4  5  1  0
  5  6  1  0
  6  7  1  0
  5  8  1  0
  8  9  1  0
  1 10  1  0
  3 11  1  0
  3 12  1  0
  4 13  1  0
  4 14  1  0
  5 15  1  0
  6 16  1  0
  6 17  1  0
  7 18  1  0
  7 19  1  0
  7 20  1  0
  9 21  1  0
  9 22  1  0
  9 23  1  0
M  END
