
     RDKit          3D

 19 19  0  0  0  0  0  0  0  0999 V2000
    2.6666    0.7234    2.6736 C   0  0  0  0  0  0  0  0  0  0  0  0
    1.8762    0.3531    1.8326 C   0  0  0  0  0  0  0  0  0  0  0  0
    0.9395   -0.0899    0.8459 C   0  0  0  0  0  0  0  0  0  0  0  0
    0.9832   -1.2742    0.2667 C   0  0  0  0  0  0  0  0  0  0  0  0
   -0.1428   -1.4081   -0.7127 C   0  0  0  0  0  0  0  0  0  0  0  0
   -1.0040   -0.1843   -0.5445 C   0  0  0  0  0  0  0  0  0  0  0  0
   -1.2128    0.4651   -1.8774 C   0  0  0  0  0  0  0  0  0  0  0  0
   -0.1947    0.7232    0.3525 C   0  0  0  0  0  0  0  0  0  0  0  0
   -0.9512    1.2182    1.4143 O   0  0  0  0  0  0  0  0  0  0  0  0
    3.3479    1.0622    3.4138 H   0  0  0  0  0  0  0  0  0  0  0  0
    1.6849   -2.0845    0.4134 H   0  0  0  0  0  0  0  0  0  0  0  0
   -0.7218   -2.3382   -0.5391 H   0  0  0  0  0  0  0  0  0  0  0  0
    0.2646   -1.5001   -1.7532 H   0  0  0  0  0  0  0  0  0  0  0  0
   -1.9664   -0.3690   -0.0847 H   0  0  0  0  0  0  0  0  0  0  0  0
   -2.2915    0.4937   -2.1347 H   0  0  0  0  0  0  0  0  0  0  0  0
   -0.8686    1.5382   -1.8461 H   0  0  0  0  0  0  0  0  0  0  0  0
   -0.6497   -0.0664   -2.7000 H   0  0  0  0  0  0  0  0  0  0  0  0
    0.1604    1.6333   -0.2057 H   0  0  0  0  0  0  0  0  0  0  0  0
   -1.9197    1.1044    1.1849 H   0  0  0  0  0  0  0  0  0  0  0  0
  1  2  3  0
  2  3  1  0
  3  4  2  0
  4  5  1  0
  5  6  1  0
  6  7  1  0
  6  8  1  0
  8  9  1  0
  8  3  1  0
  1 10  1  0
  4 11  1  0
  5 12  1  0
  5 13  1  0
  6 14  1  0
  7 15  1  0
  7 16  1  0
  7 17  1  0
  8 18  1  0
  9 19  1  0
M  END
