
     RDKit          3D

 19 18  0  0  0  0  0  0  0  0999 V2000
   -1.6980   -1.9530    1.4410 C   0  0  0  0  0  0  0  0  0  0  0  0
   -1.5110   -1.2517    0.5716 C   0  0  0  0  0  0  0  0  0  0  0  0
   -1.2871   -0.3311   -0.5513 C   0  0  0  0  0  0  0  0  0  0  0  0
   -2.5247    0.5509   -0.6575 C   0  0  0  0  0  0  0  0  0  0  0  0
   -0.0546    0.5092   -0.2951 C   0  0  0  0  0  0  0  0  0  0  0  0
    1.0659   -0.3088   -0.1423 O   0  0  0  0  0  0  0  0  0  0  0  0
    2.1702    0.5238    0.0684 C   0  0  0  0  0  0  0  0  0  0  0  0
    3.4241   -0.1549    0.3114 C   0  0  0  0  0  0  0  0  0  0  0  0
    3.5465   -1.3660    0.3495 O   0  0  0  0  0  0  0  0  0  0  0  0
   -1.8849   -2.6900    2.3232 H   0  0  0  0  0  0  0  0  0  0  0  0
   -1.1785   -0.8961   -1.4834 H   0  0  0  0  0  0  0  0  0  0  0  0
   -2.8719    0.7829    0.3991 H   0  0  0  0  0  0  0  0  0  0  0  0
   -3.3042   -0.0499   -1.1446 H   0  0  0  0  0  0  0  0  0  0  0  0
   -2.3813    1.4904   -1.1777 H   0  0  0  0  0  0  0  0  0  0  0  0
    0.1007    1.1528   -1.2122 H   0  0  0  0  0  0  0  0  0  0  0  0
   -0.2149    1.2036    0.5431 H   0  0  0  0  0  0  0  0  0  0  0  0
    1.9237    1.1513    0.9701 H   0  0  0  0  0  0  0  0  0  0  0  0
    2.3091    1.2312   -0.7944 H   0  0  0  0  0  0  0  0  0  0  0  0
    4.3709    0.4054    0.4808 H   0  0  0  0  0  0  0  0  0  0  0  0
  1  2  3  0
  2  3  1  0
  3  4  1  0
  3  5  1  0
  5  6  1  0
  6  7  1  0
  7  8  1  0
  8  9  2  0
  1 10  1  0
  3 11  1  0
  4 12  1  0
  4 13  1  0
  4 14  1  0
  5 15  1  0
  5 16  1  0
  7 17  1  0
  7 18  1  0
  8 19  1  0
M  END
