
     RDKit          3D

 19 20  0  0  0  0  0  0  0  0999 V2000
    2.6560   -2.2721    0.3977 C   0  0  0  0  0  0  0  0  0  0  0  0
    1.9244   -1.3199    0.2433 C   0  0  0  0  0  0  0  0  0  0  0  0
    1.0660   -0.1893    0.0372 C   0  0  0  0  0  0  0  0  0  0  0  0
    1.1059    0.9669    0.6411 C   0  0  0  0  0  0  0  0  0  0  0  0
    0.0305    1.8830    0.1370 C   0  0  0  0  0  0  0  0  0  0  0  0
   -0.9194    0.9810   -0.6130 C   0  0  0  0  0  0  0  0  0  0  0  0
   -1.7424    0.0681    0.2522 C   0  0  0  0  0  0  0  0  0  0  0  0
   -1.1456   -1.1166   -0.4834 C   0  0  0  0  0  0  0  0  0  0  0  0
   -0.0391   -0.1908   -0.9443 C   0  0  0  0  0  0  0  0  0  0  0  0
    3.3189   -3.1046    0.5366 H   0  0  0  0  0  0  0  0  0  0  0  0
    1.7954    1.2856    1.4097 H   0  0  0  0  0  0  0  0  0  0  0  0
    0.5004    2.5786   -0.5883 H   0  0  0  0  0  0  0  0  0  0  0  0
   -0.4552    2.4427    0.9482 H   0  0  0  0  0  0  0  0  0  0  0  0
   -1.4298    1.4739   -1.4466 H   0  0  0  0  0  0  0  0  0  0  0  0
   -1.4911    0.0830    1.3320 H   0  0  0  0  0  0  0  0  0  0  0  0
   -2.8143    0.1318    0.0467 H   0  0  0  0  0  0  0  0  0  0  0  0
   -0.8376   -1.8884    0.2307 H   0  0  0  0  0  0  0  0  0  0  0  0
   -1.7732   -1.5077   -1.3108 H   0  0  0  0  0  0  0  0  0  0  0  0
    0.2503   -0.3052   -2.0045 H   0  0  0  0  0  0  0  0  0  0  0  0
  1  2  3  0
  2  3  1  0
  3  4  2  0
  4  5  1  0
  5  6  1  0
  6  7  1  0
  7  8  1  0
  8  9  1  0
  9  3  1  0
  9  6  1  0
  1 10  1  0
  4 11  1  0
  5 12  1  0
  5 13  1  0
  6 14  1  0
  7 15  1  0
  7 16  1  0
  8 17  1  0
  8 18  1  0
  9 19  1  0
M  END
