
     RDKit          3D

 19 18  0  0  0  0  0  0  0  0999 V2000
    4.1697   -0.1850   -0.5434 C   0  0  0  0  0  0  0  0  0  0  0  0
    3.1787   -0.8888   -0.5833 C   0  0  0  0  0  0  0  0  0  0  0  0
    1.9727   -1.7145   -0.6343 C   0  0  0  0  0  0  0  0  0  0  0  0
    0.9731   -1.0817    0.2521 C   0  0  0  0  0  0  0  0  0  0  0  0
    0.1199   -0.5565    0.9842 C   0  0  0  0  0  0  0  0  0  0  0  0
   -0.8878    0.0340    1.8383 C   0  0  0  0  0  0  0  0  0  0  0  0
   -0.9604    1.3894    1.4702 O   0  0  0  0  0  0  0  0  0  0  0  0
   -1.3230    1.4424    0.1354 C   0  0  0  0  0  0  0  0  0  0  0  0
   -2.6684    0.7964   -0.1115 C   0  0  0  0  0  0  0  0  0  0  0  0
    5.0442    0.4447   -0.4909 H   0  0  0  0  0  0  0  0  0  0  0  0
    2.1747   -2.7559   -0.2983 H   0  0  0  0  0  0  0  0  0  0  0  0
    1.5774   -1.8009   -1.6701 H   0  0  0  0  0  0  0  0  0  0  0  0
   -0.6450   -0.0840    2.9215 H   0  0  0  0  0  0  0  0  0  0  0  0
   -1.8920   -0.4226    1.5874 H   0  0  0  0  0  0  0  0  0  0  0  0
   -1.3527    2.4812   -0.2452 H   0  0  0  0  0  0  0  0  0  0  0  0
   -0.5803    0.9131   -0.5264 H   0  0  0  0  0  0  0  0  0  0  0  0
   -2.4939   -0.2586   -0.3475 H   0  0  0  0  0  0  0  0  0  0  0  0
   -3.1627    1.3461   -0.9589 H   0  0  0  0  0  0  0  0  0  0  0  0
   -3.2442    0.9011    0.8297 H   0  0  0  0  0  0  0  0  0  0  0  0
  1  2  3  0
  2  3  1  0
  3  4  1  0
  4  5  3  0
  5  6  1  0
  6  7  1  0
  7  8  1  0
  8  9  1  0
  1 10  1  0
  3 11  1  0
  3 12  1  0
  6 13  1  0
  6 14  1  0
  8 15  1  0
  8 16  1  0
  9 17  1  0
  9 18  1  0
  9 19  1  0
M  END
