
     RDKit          3D

 19 20  0  0  0  0  0  0  0  0999 V2000
    2.7214   -1.2500   -1.0788 C   0  0  0  0  0  0  0  0  0  0  0  0
    1.6519   -0.8511   -0.6964 C   0  0  0  0  0  0  0  0  0  0  0  0
    0.4217   -0.3667   -0.2508 C   0  0  0  0  0  0  0  0  0  0  0  0
   -0.8522   -1.0648   -0.6212 C   0  0  0  0  0  0  0  0  0  0  0  0
   -1.8416   -0.1408    0.1223 C   0  0  0  0  0  0  0  0  0  0  0  0
   -0.8795    0.7888    0.7747 C   0  0  0  0  0  0  0  0  0  0  0  0
    0.2204   -0.1677    1.2591 C   0  0  0  0  0  0  0  0  0  0  0  0
    0.1213    1.1166   -0.3423 C   0  0  0  0  0  0  0  0  0  0  0  0
    1.2189    1.8391    0.0883 O   0  0  0  0  0  0  0  0  0  0  0  0
    3.6709   -1.6239   -1.4224 H   0  0  0  0  0  0  0  0  0  0  0  0
   -0.8647   -2.0419   -0.1148 H   0  0  0  0  0  0  0  0  0  0  0  0
   -1.0597   -1.1015   -1.6899 H   0  0  0  0  0  0  0  0  0  0  0  0
   -2.4683   -0.7069    0.8168 H   0  0  0  0  0  0  0  0  0  0  0  0
   -2.4566    0.4108   -0.6295 H   0  0  0  0  0  0  0  0  0  0  0  0
   -1.1842    1.5655    1.4177 H   0  0  0  0  0  0  0  0  0  0  0  0
   -0.1574   -1.0518    1.7762 H   0  0  0  0  0  0  0  0  0  0  0  0
    1.0390    0.3873    1.7378 H   0  0  0  0  0  0  0  0  0  0  0  0
   -0.3744    1.4500   -1.2529 H   0  0  0  0  0  0  0  0  0  0  0  0
    1.0730    2.8089    0.1060 H   0  0  0  0  0  0  0  0  0  0  0  0
  1  2  3  0
  2  3  1  0
  3  4  1  0
  4  5  1  0
  5  6  1  0
  6  7  1  0
  6  8  1  0
  8  9  1  0
  7  3  1  0
  8  3  1  0
  1 10  1  0
  4 11  1  0
  4 12  1  0
  5 13  1  0
  5 14  1  0
  6 15  1  0
  7 16  1  0
  7 17  1  0
  8 18  1  0
  9 19  1  0
M  END
