
     RDKit          3D

 17 17  0  0  0  0  0  0  0  0999 V2000
    2.1250    2.1043   -0.7035 C   0  0  0  0  0  0  0  0  0  0  0  0
    1.5915    0.8971   -0.6855 C   0  0  0  0  0  0  0  0  0  0  0  0
    1.0160   -0.3762   -0.6451 C   0  0  0  0  0  0  0  0  0  0  0  0
   -0.3223   -0.5495   -0.0136 C   0  0  0  0  0  0  0  0  0  0  0  0
   -1.4075    0.1359   -0.5641 O   0  0  0  0  0  0  0  0  0  0  0  0
   -1.5340    1.4986   -0.5431 C   0  0  0  0  0  0  0  0  0  0  0  0
   -0.7458    2.2747   -0.0064 O   0  0  0  0  0  0  0  0  0  0  0  0
   -0.6517   -1.9232    0.5137 C   0  0  0  0  0  0  0  0  0  0  0  0
   -0.4309   -0.7763    1.4585 C   0  0  0  0  0  0  0  0  0  0  0  0
    2.4937    2.9687   -0.7052 H   0  0  0  0  0  0  0  0  0  0  0  0
    1.7520   -1.1689   -0.2719 H   0  0  0  0  0  0  0  0  0  0  0  0
    0.9386   -0.7165   -1.7626 H   0  0  0  0  0  0  0  0  0  0  0  0
   -2.4151    1.9377   -1.0474 H   0  0  0  0  0  0  0  0  0  0  0  0
    0.1292   -2.6994    0.5337 H   0  0  0  0  0  0  0  0  0  0  0  0
   -1.6736   -2.3186    0.3120 H   0  0  0  0  0  0  0  0  0  0  0  0
   -1.3455   -0.4878    2.0143 H   0  0  0  0  0  0  0  0  0  0  0  0
    0.4805   -0.8006    2.1161 H   0  0  0  0  0  0  0  0  0  0  0  0
  1  2  3  0
  2  3  1  0
  3  4  1  0
  4  5  1  0
  5  6  1  0
  6  7  2  0
  4  8  1  0
  8  9  1  0
  9  4  1  0
  1 10  1  0
  3 11  1  0
  3 12  1  0
  6 13  1  0
  8 14  1  0
  8 15  1  0
  9 16  1  0
  9 17  1  0
M  END
