
     RDKit          3D

 19 18  0  0  0  0  0  0  0  0999 V2000
    2.1334    1.1314   -1.7972 C   0  0  0  0  0  0  0  0  0  0  0  0
    1.2458    0.3214   -1.5768 C   0  0  0  0  0  0  0  0  0  0  0  0
    0.2181   -0.6213   -1.3189 C   0  0  0  0  0  0  0  0  0  0  0  0
   -0.4103   -1.1389   -2.2532 O   0  0  0  0  0  0  0  0  0  0  0  0
   -0.0914   -0.9761    0.0747 C   0  0  0  0  0  0  0  0  0  0  0  0
    1.1485   -1.5579    0.6928 C   0  0  0  0  0  0  0  0  0  0  0  0
   -0.5277    0.2994    0.7709 C   0  0  0  0  0  0  0  0  0  0  0  0
   -1.7327    0.9142    0.1430 C   0  0  0  0  0  0  0  0  0  0  0  0
   -2.0503    2.0675    0.8470 O   0  0  0  0  0  0  0  0  0  0  0  0
    2.9155    1.8234   -1.9836 H   0  0  0  0  0  0  0  0  0  0  0  0
   -0.8732   -1.7569    0.1168 H   0  0  0  0  0  0  0  0  0  0  0  0
    2.0595   -1.3911    0.0765 H   0  0  0  0  0  0  0  0  0  0  0  0
    1.0373   -2.6513    0.9110 H   0  0  0  0  0  0  0  0  0  0  0  0
    1.2830   -1.0511    1.6872 H   0  0  0  0  0  0  0  0  0  0  0  0
    0.2889    1.0496    0.7476 H   0  0  0  0  0  0  0  0  0  0  0  0
   -0.7214    0.0575    1.8273 H   0  0  0  0  0  0  0  0  0  0  0  0
   -2.6266    0.2666    0.1552 H   0  0  0  0  0  0  0  0  0  0  0  0
   -1.5500    1.1885   -0.9161 H   0  0  0  0  0  0  0  0  0  0  0  0
   -1.7465    2.0251    1.7957 H   0  0  0  0  0  0  0  0  0  0  0  0
  1  2  3  0
  2  3  1  0
  3  4  2  0
  3  5  1  0
  5  6  1  0
  5  7  1  0
  7  8  1  0
  8  9  1  0
  1 10  1  0
  5 11  1  0
  6 12  1  0
  6 13  1  0
  6 14  1  0
  7 15  1  0
  7 16  1  0
  8 17  1  0
  8 18  1  0
  9 19  1  0
M  END
