
     RDKit          3D

 19 20  0  0  0  0  0  0  0  0999 V2000
    2.7750   -0.3351    1.1560 C   0  0  0  0  0  0  0  0  0  0  0  0
    1.7981    0.0059    0.5649 C   0  0  0  0  0  0  0  0  0  0  0  0
    0.6128    0.4381   -0.1391 C   0  0  0  0  0  0  0  0  0  0  0  0
    0.7095    1.0346   -1.4979 C   0  0  0  0  0  0  0  0  0  0  0  0
    0.1320   -0.3207   -1.3172 C   0  0  0  0  0  0  0  0  0  0  0  0
   -1.2541   -0.3548   -0.7461 C   0  0  0  0  0  0  0  0  0  0  0  0
   -2.0690    0.5677   -1.4086 O   0  0  0  0  0  0  0  0  0  0  0  0
   -0.7258    0.2330    0.5170 C   0  0  0  0  0  0  0  0  0  0  0  0
   -0.7559   -0.7382    1.6466 C   0  0  0  0  0  0  0  0  0  0  0  0
    3.6521   -0.6604    1.6937 H   0  0  0  0  0  0  0  0  0  0  0  0
   -0.0198    1.8247   -1.8191 H   0  0  0  0  0  0  0  0  0  0  0  0
    1.7268    1.2016   -1.8691 H   0  0  0  0  0  0  0  0  0  0  0  0
    0.6275   -1.2317   -1.6715 H   0  0  0  0  0  0  0  0  0  0  0  0
   -1.7261   -1.3512   -0.6731 H   0  0  0  0  0  0  0  0  0  0  0  0
   -1.9027    1.4943   -1.0932 H   0  0  0  0  0  0  0  0  0  0  0  0
   -1.1459    1.2136    0.8174 H   0  0  0  0  0  0  0  0  0  0  0  0
   -1.1025   -0.2415    2.5984 H   0  0  0  0  0  0  0  0  0  0  0  0
    0.1979   -1.2763    1.8105 H   0  0  0  0  0  0  0  0  0  0  0  0
   -1.5298   -1.5035    1.4304 H   0  0  0  0  0  0  0  0  0  0  0  0
  1  2  3  0
  2  3  1  0
  3  4  1  0
  4  5  1  0
  5  6  1  0
  6  7  1  0
  6  8  1  0
  8  9  1  0
  5  3  1  0
  8  3  1  0
  1 10  1  0
  4 11  1  0
  4 12  1  0
  5 13  1  0
  6 14  1  0
  7 15  1  0
  8 16  1  0
  9 17  1  0
  9 18  1  0
  9 19  1  0
M  END
