
     RDKit          3D

 17 18  0  0  0  0  0  0  0  0999 V2000
    2.9153    1.3795   -0.8875 C   0  0  0  0  0  0  0  0  0  0  0  0
    1.8460    0.8847   -0.6565 C   0  0  0  0  0  0  0  0  0  0  0  0
    0.6031    0.2916   -0.3678 C   0  0  0  0  0  0  0  0  0  0  0  0
   -0.1929    0.8077    0.8138 C   0  0  0  0  0  0  0  0  0  0  0  0
   -1.4706   -0.0034    0.5135 C   0  0  0  0  0  0  0  0  0  0  0  0
   -1.8994   -0.6993    1.6084 O   0  0  0  0  0  0  0  0  0  0  0  0
   -0.8883   -0.8682   -0.5761 C   0  0  0  0  0  0  0  0  0  0  0  0
    0.5197   -1.1934   -0.1662 C   0  0  0  0  0  0  0  0  0  0  0  0
   -0.3187    0.1285   -1.4063 O   0  0  0  0  0  0  0  0  0  0  0  0
    3.8653    1.8232   -1.0769 H   0  0  0  0  0  0  0  0  0  0  0  0
    0.2962    0.4330    1.7250 H   0  0  0  0  0  0  0  0  0  0  0  0
   -0.3818    1.8756    0.7869 H   0  0  0  0  0  0  0  0  0  0  0  0
   -2.1854    0.7091    0.1017 H   0  0  0  0  0  0  0  0  0  0  0  0
   -2.8909   -0.6751    1.6242 H   0  0  0  0  0  0  0  0  0  0  0  0
   -1.4933   -1.6082   -1.0432 H   0  0  0  0  0  0  0  0  0  0  0  0
    1.0055   -1.8294   -0.9020 H   0  0  0  0  0  0  0  0  0  0  0  0
    0.6703   -1.4559    0.8925 H   0  0  0  0  0  0  0  0  0  0  0  0
  1  2  3  0
  2  3  1  0
  3  4  1  0
  4  5  1  0
  5  6  1  0
  5  7  1  0
  7  8  1  0
  7  9  1  0
  8  3  1  0
  9  3  1  0
  1 10  1  0
  4 11  1  0
  4 12  1  0
  5 13  1  0
  6 14  1  0
  7 15  1  0
  8 16  1  0
  8 17  1  0
M  END
