
     RDKit          3D

 17 17  0  0  0  0  0  0  0  0999 V2000
    2.4726   -1.5848   -0.9638 C   0  0  0  0  0  0  0  0  0  0  0  0
    1.7553   -0.7502   -1.0032 C   0  0  0  0  0  0  0  0  0  0  0  0
    0.7992    0.3916   -1.0392 C   0  0  0  0  0  0  0  0  0  0  0  0
    0.2708    1.2057   -0.0623 C   0  0  0  0  0  0  0  0  0  0  0  0
    0.2830    1.0072    1.4099 C   0  0  0  0  0  0  0  0  0  0  0  0
   -0.5984    0.1619   -0.8569 C   0  0  0  0  0  0  0  0  0  0  0  0
   -1.3180   -0.6031   -0.1486 O   0  0  0  0  0  0  0  0  0  0  0  0
   -2.1876   -1.3647    0.5536 C   0  0  0  0  0  0  0  0  0  0  0  0
   -3.3285   -1.1333    0.3648 O   0  0  0  0  0  0  0  0  0  0  0  0
    3.2512   -2.4606   -0.9163 H   0  0  0  0  0  0  0  0  0  0  0  0
    1.0582    0.9665   -2.0912 H   0  0  0  0  0  0  0  0  0  0  0  0
   -0.1637    2.2682   -0.3683 H   0  0  0  0  0  0  0  0  0  0  0  0
    1.0867    1.6465    1.9455 H   0  0  0  0  0  0  0  0  0  0  0  0
   -0.7007    1.5847    1.7458 H   0  0  0  0  0  0  0  0  0  0  0  0
    0.2816    0.0242    1.8375 H   0  0  0  0  0  0  0  0  0  0  0  0
   -1.2974    0.8027   -1.6569 H   0  0  0  0  0  0  0  0  0  0  0  0
   -1.6644   -2.1625    1.2495 H   0  0  0  0  0  0  0  0  0  0  0  0
  1  2  3  0
  2  3  1  0
  3  4  1  0
  4  5  1  0
  4  6  1  0
  6  7  1  0
  7  8  1  0
  8  9  2  0
  6  3  1  0
  1 10  1  0
  3 11  1  0
  4 12  1  0
  5 13  1  0
  5 14  1  0
  5 15  1  0
  6 16  1  0
  8 17  1  0
M  END
