
     RDKit          3D

 19 20  0  0  0  0  0  0  0  0999 V2000
    2.0117   -2.6838    1.2067 C   0  0  0  0  0  0  0  0  0  0  0  0
    1.3359   -2.1676    0.2934 C   0  0  0  0  0  0  0  0  0  0  0  0
    0.5862   -1.6149   -0.6817 C   0  0  0  0  0  0  0  0  0  0  0  0
   -0.1324   -0.3447   -0.2679 C   0  0  0  0  0  0  0  0  0  0  0  0
    0.6918    0.7978    0.2074 C   0  0  0  0  0  0  0  0  0  0  0  0
   -0.1114    2.0323   -0.1694 C   0  0  0  0  0  0  0  0  0  0  0  0
   -1.5518    1.4886   -0.1017 C   0  0  0  0  0  0  0  0  0  0  0  0
   -1.4352    0.0337   -0.4247 C   0  0  0  0  0  0  0  0  0  0  0  0
   -1.0999   -0.7025    0.8232 O   0  0  0  0  0  0  0  0  0  0  0  0
    2.6419   -3.1575    2.0819 H   0  0  0  0  0  0  0  0  0  0  0  0
   -0.2155   -2.3516   -1.0839 H   0  0  0  0  0  0  0  0  0  0  0  0
    1.1314   -1.3873   -1.6686 H   0  0  0  0  0  0  0  0  0  0  0  0
    1.7052    0.7765   -0.1584 H   0  0  0  0  0  0  0  0  0  0  0  0
    0.8060    0.7503    1.3428 H   0  0  0  0  0  0  0  0  0  0  0  0
   -0.0117    2.7690    0.6496 H   0  0  0  0  0  0  0  0  0  0  0  0
    0.1026    2.4254   -1.1614 H   0  0  0  0  0  0  0  0  0  0  0  0
   -2.0206    1.6658    0.8898 H   0  0  0  0  0  0  0  0  0  0  0  0
   -2.1595    2.0404   -0.8216 H   0  0  0  0  0  0  0  0  0  0  0  0
   -2.2748   -0.3698   -0.9902 H   0  0  0  0  0  0  0  0  0  0  0  0
  1  2  3  0
  2  3  1  0
  3  4  1  0
  4  5  1  0
  5  6  1  0
  6  7  1  0
  7  8  1  0
  8  9  1  0
  8  4  1  0
  9  4  1  0
  1 10  1  0
  3 11  1  0
  3 12  1  0
  5 13  1  0
  5 14  1  0
  6 15  1  0
  6 16  1  0
  7 17  1  0
  7 18  1  0
  8 19  1  0
M  END
