
     RDKit          3D

 17 18  0  0  0  0  0  0  0  0999 V2000
    0.0819    1.9904   -2.3322 C   0  0  0  0  0  0  0  0  0  0  0  0
   -0.1014    0.7766   -1.5561 C   0  0  0  0  0  0  0  0  0  0  0  0
   -0.2768   -0.3179   -0.8794 C   0  0  0  0  0  0  0  0  0  0  0  0
   -1.3441   -0.0793    0.2310 C   0  0  0  0  0  0  0  0  0  0  0  0
   -0.5858    0.6976    1.2666 C   0  0  0  0  0  0  0  0  0  0  0  0
    0.5886    1.3662    0.9715 O   0  0  0  0  0  0  0  0  0  0  0  0
    0.7450    0.0186    1.2726 C   0  0  0  0  0  0  0  0  0  0  0  0
    0.8668   -0.8116    0.0248 C   0  0  0  0  0  0  0  0  0  0  0  0
    0.8164   -2.1564    0.2042 O   0  0  0  0  0  0  0  0  0  0  0  0
    0.2019    2.7303   -2.7907 H   0  0  0  0  0  0  0  0  0  0  0  0
   -0.6578   -1.2054   -1.4571 H   0  0  0  0  0  0  0  0  0  0  0  0
   -1.5509   -1.0695    0.6413 H   0  0  0  0  0  0  0  0  0  0  0  0
   -2.2023    0.3914   -0.2142 H   0  0  0  0  0  0  0  0  0  0  0  0
   -1.0802    0.9810    2.1945 H   0  0  0  0  0  0  0  0  0  0  0  0
    1.0641   -0.3508    2.2398 H   0  0  0  0  0  0  0  0  0  0  0  0
    1.7926   -0.5237   -0.4858 H   0  0  0  0  0  0  0  0  0  0  0  0
    1.6420   -2.4376    0.6692 H   0  0  0  0  0  0  0  0  0  0  0  0
  1  2  3  0
  2  3  1  0
  3  4  1  0
  4  5  1  0
  5  6  1  0
  6  7  1  0
  7  8  1  0
  8  9  1  0
  8  3  1  0
  7  5  1  0
  1 10  1  0
  3 11  1  0
  4 12  1  0
  4 13  1  0
  5 14  1  0
  7 15  1  0
  8 16  1  0
  9 17  1  0
M  END
