
     RDKit          3D

  9  9  0  0  0  0  0  0  0  0999 V2000
    1.8790    0.0568    0.9525 C   0  0  0  0  0  0  0  0  0  0  0  0
    0.8303   -0.2312    0.4305 C   0  0  0  0  0  0  0  0  0  0  0  0
   -0.4447   -0.5827   -0.2329 C   0  0  0  0  0  0  0  0  0  0  0  0
   -1.0069    0.4690   -1.1523 C   0  0  0  0  0  0  0  0  0  0  0  0
   -0.4131   -0.7018   -1.6184 O   0  0  0  0  0  0  0  0  0  0  0  0
    2.8021    0.3106    1.4326 H   0  0  0  0  0  0  0  0  0  0  0  0
   -1.1111   -1.2353    0.3322 H   0  0  0  0  0  0  0  0  0  0  0  0
   -0.4161    1.3763   -1.2844 H   0  0  0  0  0  0  0  0  0  0  0  0
   -2.1195    0.5383   -1.1168 H   0  0  0  0  0  0  0  0  0  0  0  0
  1  2  3  0
  2  3  1  0
  3  4  1  0
  4  5  1  0
  5  3  1  0
  1  6  1  0
  3  7  1  0
  4  8  1  0
  4  9  1  0
M  END
