
     RDKit          3D

 17 18  0  0  0  0  0  0  0  0999 V2000
    2.9228    1.0632    1.5350 C   0  0  0  0  0  0  0  0  0  0  0  0
    1.9017    0.3687    0.7735 C   0  0  0  0  0  0  0  0  0  0  0  0
    0.8764   -0.3089    0.0289 C   0  0  0  0  0  0  0  0  0  0  0  0
    0.1261   -1.3573    0.5821 C   0  0  0  0  0  0  0  0  0  0  0  0
   -1.2726   -1.2630    0.4900 C   0  0  0  0  0  0  0  0  0  0  0  0
   -1.8624   -0.1048   -0.1966 C   0  0  0  0  0  0  0  0  0  0  0  0
   -1.3017    1.2152    0.1353 O   0  0  0  0  0  0  0  0  0  0  0  0
   -1.0931    0.6001   -1.1357 C   0  0  0  0  0  0  0  0  0  0  0  0
    0.4429    0.1738   -1.2387 C   0  0  0  0  0  0  0  0  0  0  0  0
    3.6109    1.5424    2.0575 H   0  0  0  0  0  0  0  0  0  0  0  0
   -0.0143    0.6609    0.7117 H   0  0  0  0  0  0  0  0  0  0  0  0
    0.4583   -2.2460    1.0775 H   0  0  0  0  0  0  0  0  0  0  0  0
   -1.8348   -2.0192    0.9339 H   0  0  0  0  0  0  0  0  0  0  0  0
   -2.9909   -0.0772   -0.1150 H   0  0  0  0  0  0  0  0  0  0  0  0
   -1.4531    1.0530   -2.0246 H   0  0  0  0  0  0  0  0  0  0  0  0
    0.5045   -0.4474   -2.1003 H   0  0  0  0  0  0  0  0  0  0  0  0
    0.9793    1.1466   -1.5146 H   0  0  0  0  0  0  0  0  0  0  0  0
  1  2  3  0
  2  3  1  0
  3  4  1  0
  4  5  2  0
  5  6  1  0
  6  7  1  0
  7  8  1  0
  8  9  1  0
  9  3  1  0
  8  6  1  0
  1 10  1  0
  3 11  1  0
  4 12  1  0
  5 13  1  0
  6 14  1  0
  8 15  1  0
  9 16  1  0
  9 17  1  0
M  END
