
     RDKit          3D

 21 20  0  0  0  0  0  0  0  0999 V2000
    2.0480    2.1747   -0.1163 C   0  0  0  0  0  0  0  0  0  0  0  0
    1.6101    1.1582    0.2340 C   0  0  0  0  0  0  0  0  0  0  0  0
    1.0887   -0.1135    0.6611 C   0  0  0  0  0  0  0  0  0  0  0  0
    2.2886   -1.0901    0.2950 C   0  0  0  0  0  0  0  0  0  0  0  0
    0.0113   -0.5805   -0.2666 C   0  0  0  0  0  0  0  0  0  0  0  0
   -1.2041    0.3085   -0.3500 C   0  0  0  0  0  0  0  0  0  0  0  0
   -2.0492   -0.3506   -1.4756 C   0  0  0  0  0  0  0  0  0  0  0  0
   -2.0309    0.2543    0.8118 C   0  0  0  0  0  0  0  0  0  0  0  0
   -2.9486    1.3759    0.5257 O   0  0  0  0  0  0  0  0  0  0  0  0
    2.5090    3.2557   -0.5097 H   0  0  0  0  0  0  0  0  0  0  0  0
    0.9373   -0.1912    1.7089 H   0  0  0  0  0  0  0  0  0  0  0  0
    2.2905   -1.9033    0.9807 H   0  0  0  0  0  0  0  0  0  0  0  0
    3.2416   -0.4825    0.3780 H   0  0  0  0  0  0  0  0  0  0  0  0
    2.1780   -1.3327   -0.7698 H   0  0  0  0  0  0  0  0  0  0  0  0
   -0.3372   -1.5836    0.0925 H   0  0  0  0  0  0  0  0  0  0  0  0
    0.4187   -0.7483   -1.2690 H   0  0  0  0  0  0  0  0  0  0  0  0
   -0.9348    1.3258   -0.7143 H   0  0  0  0  0  0  0  0  0  0  0  0
   -1.7090    0.1099   -2.4050 H   0  0  0  0  0  0  0  0  0  0  0  0
   -1.8761   -1.4621   -1.4029 H   0  0  0  0  0  0  0  0  0  0  0  0
   -3.1128   -0.1131   -1.2893 H   0  0  0  0  0  0  0  0  0  0  0  0
   -2.4189   -0.0116    1.6750 H   0  0  0  0  0  0  0  0  0  0  0  0
  1  2  3  0
  2  3  1  0
  3  4  1  0
  3  5  1  0
  5  6  1  0
  6  7  1  0
  6  8  1  0
  8  9  2  0
  1 10  1  0
  3 11  1  0
  4 12  1  0
  4 13  1  0
  4 14  1  0
  5 15  1  0
  5 16  1  0
  6 17  1  0
  7 18  1  0
  7 19  1  0
  7 20  1  0
  8 21  1  0
M  END
