
     RDKit          3D

 13 14  0  0  0  0  0  0  0  0999 V2000
    2.8199    0.5213   -1.0200 C   0  0  0  0  0  0  0  0  0  0  0  0
    1.8814   -0.0335   -0.5762 C   0  0  0  0  0  0  0  0  0  0  0  0
    0.6879   -0.7679    0.0043 C   0  0  0  0  0  0  0  0  0  0  0  0
   -0.5850   -0.5245   -0.5286 C   0  0  0  0  0  0  0  0  0  0  0  0
   -1.8874   -0.6960   -0.0818 O   0  0  0  0  0  0  0  0  0  0  0  0
   -2.1780    0.5631    0.5211 C   0  0  0  0  0  0  0  0  0  0  0  0
   -3.3329    1.0463    0.7000 O   0  0  0  0  0  0  0  0  0  0  0  0
   -0.9174    1.0924    0.8412 O   0  0  0  0  0  0  0  0  0  0  0  0
   -0.0953   -0.0275    0.8977 C   0  0  0  0  0  0  0  0  0  0  0  0
    3.6820    1.0200   -1.4088 H   0  0  0  0  0  0  0  0  0  0  0  0
    0.9945   -1.8096    0.2165 H   0  0  0  0  0  0  0  0  0  0  0  0
   -0.5994    0.2715   -1.3371 H   0  0  0  0  0  0  0  0  0  0  0  0
   -0.4701   -0.6556    1.7717 H   0  0  0  0  0  0  0  0  0  0  0  0
  1  2  3  0
  2  3  1  0
  3  4  1  0
  4  5  1  0
  5  6  1  0
  6  7  2  0
  6  8  1  0
  8  9  1  0
  9  3  1  0
  9  4  1  0
  1 10  1  0
  3 11  1  0
  4 12  1  0
  9 13  1  0
M  END
