
     RDKit          3D

 17 19  0  0  0  0  0  0  0  0999 V2000
    2.7352   -1.3681   -0.2960 C   0  0  0  0  0  0  0  0  0  0  0  0
    1.8585   -0.5871   -0.4685 C   0  0  0  0  0  0  0  0  0  0  0  0
    0.7803    0.3609   -0.6576 C   0  0  0  0  0  0  0  0  0  0  0  0
    1.0147    1.6175   -1.1495 O   0  0  0  0  0  0  0  0  0  0  0  0
    0.8153    1.5966    0.2170 C   0  0  0  0  0  0  0  0  0  0  0  0
   -0.5121    1.1849    0.7920 C   0  0  0  0  0  0  0  0  0  0  0  0
   -0.5963    0.0882   -0.1814 C   0  0  0  0  0  0  0  0  0  0  0  0
   -1.7295   -0.2482   -1.0136 C   0  0  0  0  0  0  0  0  0  0  0  0
   -1.1662   -1.2262    0.0600 C   0  0  0  0  0  0  0  0  0  0  0  0
    3.5277   -2.0804   -0.1243 H   0  0  0  0  0  0  0  0  0  0  0  0
    1.6719    1.7978    0.8547 H   0  0  0  0  0  0  0  0  0  0  0  0
   -0.3683    0.9111    1.8750 H   0  0  0  0  0  0  0  0  0  0  0  0
   -1.2989    1.9576    0.7237 H   0  0  0  0  0  0  0  0  0  0  0  0
   -2.7614    0.1222   -0.8337 H   0  0  0  0  0  0  0  0  0  0  0  0
   -1.5387   -0.5363   -2.0705 H   0  0  0  0  0  0  0  0  0  0  0  0
   -1.8318   -1.4882    0.8870 H   0  0  0  0  0  0  0  0  0  0  0  0
   -0.6003   -2.1022   -0.3353 H   0  0  0  0  0  0  0  0  0  0  0  0
  1  2  3  0
  2  3  1  0
  3  4  1  0
  4  5  1  0
  5  6  1  0
  6  7  1  0
  7  8  1  0
  8  9  1  0
  5  3  1  0
  9  7  1  0
  7  3  1  0
  1 10  1  0
  5 11  1  0
  6 12  1  0
  6 13  1  0
  8 14  1  0
  8 15  1  0
  9 16  1  0
  9 17  1  0
M  END
