
     RDKit          3D

 19 19  0  0  0  0  0  0  0  0999 V2000
   -1.7264    2.6574   -0.1619 C   0  0  0  0  0  0  0  0  0  0  0  0
   -1.4273    1.5449    0.1999 C   0  0  0  0  0  0  0  0  0  0  0  0
   -1.0802    0.1853    0.6212 C   0  0  0  0  0  0  0  0  0  0  0  0
    0.3772   -0.2308    0.3851 C   0  0  0  0  0  0  0  0  0  0  0  0
    0.6147   -0.1256   -1.1068 C   0  0  0  0  0  0  0  0  0  0  0  0
    2.0210   -0.5096   -1.4812 C   0  0  0  0  0  0  0  0  0  0  0  0
    2.2182   -1.8244   -1.0784 O   0  0  0  0  0  0  0  0  0  0  0  0
   -1.8404   -0.4435    1.6351 C   0  0  0  0  0  0  0  0  0  0  0  0
   -2.0337   -0.8320    0.2924 O   0  0  0  0  0  0  0  0  0  0  0  0
   -1.9824    3.6468   -0.4997 H   0  0  0  0  0  0  0  0  0  0  0  0
    0.5357   -1.2373    0.7774 H   0  0  0  0  0  0  0  0  0  0  0  0
    0.9907    0.4825    0.9670 H   0  0  0  0  0  0  0  0  0  0  0  0
   -0.0674   -0.8330   -1.6019 H   0  0  0  0  0  0  0  0  0  0  0  0
    0.3757    0.9165   -1.4099 H   0  0  0  0  0  0  0  0  0  0  0  0
    2.0706   -0.5103   -2.5950 H   0  0  0  0  0  0  0  0  0  0  0  0
    2.7765    0.1654   -1.0553 H   0  0  0  0  0  0  0  0  0  0  0  0
    2.2370   -1.9335   -0.1096 H   0  0  0  0  0  0  0  0  0  0  0  0
   -2.6773    0.1053    2.1371 H   0  0  0  0  0  0  0  0  0  0  0  0
   -1.3822   -1.2240    2.2800 H   0  0  0  0  0  0  0  0  0  0  0  0
  1  2  3  0
  2  3  1  0
  3  4  1  0
  4  5  1  0
  5  6  1  0
  6  7  1  0
  3  8  1  0
  8  9  1  0
  9  3  1  0
  1 10  1  0
  4 11  1  0
  4 12  1  0
  5 13  1  0
  5 14  1  0
  6 15  1  0
  6 16  1  0
  7 17  1  0
  8 18  1  0
  8 19  1  0
M  END
