
     RDKit          3D

 17 16  0  0  0  0  0  0  0  0999 V2000
   -2.3607   -1.4758   -0.4080 C   0  0  0  0  0  0  0  0  0  0  0  0
   -1.4619   -0.7561    0.0808 C   0  0  0  0  0  0  0  0  0  0  0  0
   -0.4685    0.0671    0.6364 C   0  0  0  0  0  0  0  0  0  0  0  0
   -0.4565   -0.0150    2.0715 O   0  0  0  0  0  0  0  0  0  0  0  0
   -0.7028    1.4856    0.3134 C   0  0  0  0  0  0  0  0  0  0  0  0
   -0.8759    2.6602    0.0499 C   0  0  0  0  0  0  0  0  0  0  0  0
    0.9518   -0.3276    0.2368 C   0  0  0  0  0  0  0  0  0  0  0  0
    1.1876   -0.2470   -1.2432 C   0  0  0  0  0  0  0  0  0  0  0  0
    2.5419   -0.6149   -1.4337 O   0  0  0  0  0  0  0  0  0  0  0  0
   -3.1705   -2.0996   -0.8387 H   0  0  0  0  0  0  0  0  0  0  0  0
   -1.3802    0.1399    2.4017 H   0  0  0  0  0  0  0  0  0  0  0  0
   -1.0209    3.7020   -0.1981 H   0  0  0  0  0  0  0  0  0  0  0  0
    1.1055   -1.3987    0.5489 H   0  0  0  0  0  0  0  0  0  0  0  0
    1.6388    0.3128    0.7962 H   0  0  0  0  0  0  0  0  0  0  0  0
    0.5964   -1.0202   -1.7779 H   0  0  0  0  0  0  0  0  0  0  0  0
    1.0260    0.7714   -1.5887 H   0  0  0  0  0  0  0  0  0  0  0  0
    2.8499   -1.1840   -0.6703 H   0  0  0  0  0  0  0  0  0  0  0  0
  1  2  3  0
  2  3  1  0
  3  4  1  0
  3  5  1  0
  5  6  3  0
  3  7  1  0
  7  8  1  0
  8  9  1  0
  1 10  1  0
  4 11  1  0
  6 12  1  0
  7 13  1  0
  7 14  1  0
  8 15  1  0
  8 16  1  0
  9 17  1  0
M  END
