
     RDKit          3D

 14 14  0  0  0  0  0  0  0  0999 V2000
    2.3474   -1.2307    0.0074 C   0  0  0  0  0  0  0  0  0  0  0  0
    1.2996   -0.6306   -0.0111 C   0  0  0  0  0  0  0  0  0  0  0  0
    0.0192    0.0928   -0.0251 C   0  0  0  0  0  0  0  0  0  0  0  0
   -0.2172    0.8786   -1.2940 C   0  0  0  0  0  0  0  0  0  0  0  0
   -0.5824    0.4926    1.2508 C   0  0  0  0  0  0  0  0  0  0  0  0
   -1.1576   -0.6734    0.5248 C   0  0  0  0  0  0  0  0  0  0  0  0
    3.2651   -1.7625    0.0159 H   0  0  0  0  0  0  0  0  0  0  0  0
    0.0255    0.2712   -2.1907 H   0  0  0  0  0  0  0  0  0  0  0  0
    0.5407    1.7140   -1.2790 H   0  0  0  0  0  0  0  0  0  0  0  0
   -1.2261    1.2950   -1.3745 H   0  0  0  0  0  0  0  0  0  0  0  0
   -0.0146    0.3501    2.1832 H   0  0  0  0  0  0  0  0  0  0  0  0
   -1.1790    1.4409    1.2546 H   0  0  0  0  0  0  0  0  0  0  0  0
   -1.0110   -1.6793    0.9625 H   0  0  0  0  0  0  0  0  0  0  0  0
   -2.1099   -0.5587   -0.0249 H   0  0  0  0  0  0  0  0  0  0  0  0
  1  2  3  0
  2  3  1  0
  3  4  1  0
  3  5  1  0
  5  6  1  0
  6  3  1  0
  1  7  1  0
  4  8  1  0
  4  9  1  0
  4 10  1  0
  5 11  1  0
  5 12  1  0
  6 13  1  0
  6 14  1  0
M  END
