
     RDKit          3D

 15 15  0  0  0  0  0  0  0  0999 V2000
    4.1257    0.2547   -0.5487 C   0  0  0  0  0  0  0  0  0  0  0  0
    3.4492    0.1531   -0.5492 C   0  0  0  0  0  0  0  0  0  0  0  0
    1.9519   -0.0456   -0.5556 C   0  0  0  0  0  0  0  0  0  0  0  0
    0.5548   -0.2179   -0.5416 C   0  0  0  0  0  0  0  0  0  0  0  0
   -0.4947   -0.3349   -0.5451 C   0  0  0  0  0  0  0  0  0  0  0  0
   -0.9505    0.1850    1.1290 C   0  0  0  0  0  0  0  0  0  0  0  0
   -2.3004    0.2306    0.5887 C   0  0  0  0  0  0  0  0  0  0  0  0
   -1.8568   -0.2240   -0.7333 C   0  0  0  0  0  0  0  0  0  0  0  0
   -2.4269   -0.4941   -1.9106 O   0  0  0  0  0  0  0  0  0  0  0  0
    5.6367    0.4799   -0.5280 H   0  0  0  0  0  0  0  0  0  0  0  0
   -0.5803   -1.6862    0.1582 H   0  0  0  0  0  0  0  0  0  0  0  0
   -0.8377   -0.3894    1.9934 H   0  0  0  0  0  0  0  0  0  0  0  0
   -0.4022    1.1996    1.1811 H   0  0  0  0  0  0  0  0  0  0  0  0
   -3.1140   -0.4274    1.0704 H   0  0  0  0  0  0  0  0  0  0  0  0
   -2.7549    1.3166    0.5130 H   0  0  0  0  0  0  0  0  0  0  0  0
  1  2  3  0
  2  3  1  0
  3  4  3  0
  4  5  1  0
  5  6  1  0
  6  7  1  0
  7  8  1  0
  8  9  2  0
  8  5  1  0
  1 10  1  0
  5 11  1  0
  6 12  1  0
  6 13  1  0
  7 14  1  0
  7 15  1  0
M  END
