
     RDKit          3D

 17 16  0  0  0  0  0  0  0  0999 V2000
    3.3938    2.3335   -2.1277 C   0  0  0  0  0  0  0  0  0  0  0  0
    2.1434    1.3540   -1.3662 C   0  0  0  0  0  0  0  0  0  0  0  0
    1.5760    0.8930   -1.0219 C   0  0  0  0  0  0  0  0  0  0  0  0
    0.6091    0.1039   -0.4089 C   0  0  0  0  0  0  0  0  0  0  0  0
   -0.3673   -0.6673    0.2070 C   0  0  0  0  0  0  0  0  0  0  0  0
   -1.2835   -1.3683   -0.6570 C   0  0  0  0  0  0  0  0  0  0  0  0
   -0.8246   -2.6596   -0.9830 O   0  0  0  0  0  0  0  0  0  0  0  0
   -1.2712    0.5148    0.6535 O   0  0  0  0  0  0  0  0  0  0  0  0
   -0.9562    0.7505    1.9744 C   0  0  0  0  0  0  0  0  0  0  0  0
    4.2199    2.9555   -2.6263 H   0  0  0  0  0  0  0  0  0  0  0  0
   -0.0556   -1.0458    1.1888 H   0  0  0  0  0  0  0  0  0  0  0  0
   -2.2790   -1.5193   -0.1300 H   0  0  0  0  0  0  0  0  0  0  0  0
   -1.4699   -0.7661   -1.5944 H   0  0  0  0  0  0  0  0  0  0  0  0
   -0.8692   -3.3176   -0.2503 H   0  0  0  0  0  0  0  0  0  0  0  0
   -1.1290   -0.1750    2.6465 H   0  0  0  0  0  0  0  0  0  0  0  0
   -1.5835    1.5291    2.3814 H   0  0  0  0  0  0  0  0  0  0  0  0
    0.1469    1.0848    2.1141 H   0  0  0  0  0  0  0  0  0  0  0  0
  1  2  3  0
  2  3  1  0
  3  4  3  0
  4  5  1  0
  5  6  1  0
  6  7  1  0
  5  8  1  0
  8  9  1  0
  1 10  1  0
  5 11  1  0
  6 12  1  0
  6 13  1  0
  7 14  1  0
  9 15  1  0
  9 16  1  0
  9 17  1  0
M  END
