
     RDKit          3D

 16 16  0  0  0  0  0  0  0  0999 V2000
    3.6637    0.4786   -0.2288 C   0  0  0  0  0  0  0  0  0  0  0  0
    2.5297    0.0867   -0.2737 C   0  0  0  0  0  0  0  0  0  0  0  0
    1.1646   -0.3981   -0.3499 C   0  0  0  0  0  0  0  0  0  0  0  0
    0.7294   -0.7919    0.9236 O   0  0  0  0  0  0  0  0  0  0  0  0
   -0.6742   -0.8377    0.7860 C   0  0  0  0  0  0  0  0  0  0  0  0
   -0.9594   -0.0614   -0.4828 C   0  0  0  0  0  0  0  0  0  0  0  0
   -2.1038    0.9043   -0.2909 C   0  0  0  0  0  0  0  0  0  0  0  0
    0.2515    0.5995   -0.6876 O   0  0  0  0  0  0  0  0  0  0  0  0
    4.6771    0.8451   -0.1970 H   0  0  0  0  0  0  0  0  0  0  0  0
    1.0429   -1.2169   -1.0867 H   0  0  0  0  0  0  0  0  0  0  0  0
   -1.0936   -0.3699    1.6868 H   0  0  0  0  0  0  0  0  0  0  0  0
   -1.0220   -1.8853    0.6586 H   0  0  0  0  0  0  0  0  0  0  0  0
   -1.0998   -0.7332   -1.3530 H   0  0  0  0  0  0  0  0  0  0  0  0
   -2.7310    0.8438   -1.2040 H   0  0  0  0  0  0  0  0  0  0  0  0
   -1.6518    1.9148   -0.1657 H   0  0  0  0  0  0  0  0  0  0  0  0
   -2.7236    0.6215    0.6022 H   0  0  0  0  0  0  0  0  0  0  0  0
  1  2  3  0
  2  3  1  0
  3  4  1  0
  4  5  1  0
  5  6  1  0
  6  7  1  0
  6  8  1  0
  8  3  1  0
  1  9  1  0
  3 10  1  0
  5 11  1  0
  5 12  1  0
  6 13  1  0
  7 14  1  0
  7 15  1  0
  7 16  1  0
M  END
