
     RDKit          3D

 23 22  0  0  0  0  0  0  0  0999 V2000
   -2.5861   -1.5310    0.9643 C   0  0  0  0  0  0  0  0  0  0  0  0
   -1.9874   -0.6344    0.4219 C   0  0  0  0  0  0  0  0  0  0  0  0
   -1.2379    0.4609   -0.2232 C   0  0  0  0  0  0  0  0  0  0  0  0
   -2.1357    1.6513   -0.3442 C   0  0  0  0  0  0  0  0  0  0  0  0
   -0.0211    0.8172    0.6041 C   0  0  0  0  0  0  0  0  0  0  0  0
    0.8986   -0.3582    0.7512 C   0  0  0  0  0  0  0  0  0  0  0  0
    1.4241   -0.8988   -0.5350 C   0  0  0  0  0  0  0  0  0  0  0  0
    2.2173    0.0960   -1.3348 C   0  0  0  0  0  0  0  0  0  0  0  0
    2.2926   -1.9488   -0.2265 O   0  0  0  0  0  0  0  0  0  0  0  0
   -3.1133   -2.3168    1.4612 H   0  0  0  0  0  0  0  0  0  0  0  0
   -0.8894    0.1076   -1.2170 H   0  0  0  0  0  0  0  0  0  0  0  0
   -1.7849    2.4431    0.3372 H   0  0  0  0  0  0  0  0  0  0  0  0
   -3.1896    1.3850   -0.0479 H   0  0  0  0  0  0  0  0  0  0  0  0
   -2.1935    2.0486   -1.3766 H   0  0  0  0  0  0  0  0  0  0  0  0
    0.4475    1.7174    0.2020 H   0  0  0  0  0  0  0  0  0  0  0  0
   -0.3966    1.0693    1.6197 H   0  0  0  0  0  0  0  0  0  0  0  0
    0.3527   -1.1579    1.2692 H   0  0  0  0  0  0  0  0  0  0  0  0
    1.7578   -0.0654    1.3821 H   0  0  0  0  0  0  0  0  0  0  0  0
    0.6226   -1.3444   -1.1723 H   0  0  0  0  0  0  0  0  0  0  0  0
    1.8466    1.1358   -1.1713 H   0  0  0  0  0  0  0  0  0  0  0  0
    3.2996    0.0806   -1.0703 H   0  0  0  0  0  0  0  0  0  0  0  0
    2.1702   -0.0705   -2.4272 H   0  0  0  0  0  0  0  0  0  0  0  0
    2.2060   -2.6866   -0.8684 H   0  0  0  0  0  0  0  0  0  0  0  0
  1  2  3  0
  2  3  1  0
  3  4  1  0
  3  5  1  0
  5  6  1  0
  6  7  1  0
  7  8  1  0
  7  9  1  0
  1 10  1  0
  3 11  1  0
  4 12  1  0
  4 13  1  0
  4 14  1  0
  5 15  1  0
  5 16  1  0
  6 17  1  0
  6 18  1  0
  7 19  1  0
  8 20  1  0
  8 21  1  0
  8 22  1  0
  9 23  1  0
M  END
