
     RDKit          3D

 20 20  0  0  0  0  0  0  0  0999 V2000
    2.2167    0.0467    2.1826 C   0  0  0  0  0  0  0  0  0  0  0  0
    1.5440   -0.0860    1.1897 C   0  0  0  0  0  0  0  0  0  0  0  0
    0.7501   -0.2483   -0.0271 C   0  0  0  0  0  0  0  0  0  0  0  0
    1.1669   -1.4268   -0.8883 C   0  0  0  0  0  0  0  0  0  0  0  0
    0.3628    0.9508   -0.8265 C   0  0  0  0  0  0  0  0  0  0  0  0
   -0.6675    0.1442   -0.0438 C   0  0  0  0  0  0  0  0  0  0  0  0
   -1.6152   -0.7450   -0.8379 C   0  0  0  0  0  0  0  0  0  0  0  0
   -1.3198    0.9064    1.0556 C   0  0  0  0  0  0  0  0  0  0  0  0
    2.8100    0.1822    3.0719 H   0  0  0  0  0  0  0  0  0  0  0  0
    0.3076   -2.0293   -1.2084 H   0  0  0  0  0  0  0  0  0  0  0  0
    1.8601   -2.1091   -0.3579 H   0  0  0  0  0  0  0  0  0  0  0  0
    1.6516   -1.0410   -1.8080 H   0  0  0  0  0  0  0  0  0  0  0  0
    0.2267    0.9007   -1.9111 H   0  0  0  0  0  0  0  0  0  0  0  0
    0.6977    1.9158   -0.4145 H   0  0  0  0  0  0  0  0  0  0  0  0
   -1.2248   -0.7798   -1.8639 H   0  0  0  0  0  0  0  0  0  0  0  0
   -1.5661   -1.7703   -0.4101 H   0  0  0  0  0  0  0  0  0  0  0  0
   -2.6450   -0.3444   -0.8571 H   0  0  0  0  0  0  0  0  0  0  0  0
   -2.1929    0.3820    1.5018 H   0  0  0  0  0  0  0  0  0  0  0  0
   -1.7511    1.8435    0.6026 H   0  0  0  0  0  0  0  0  0  0  0  0
   -0.6118    1.2089    1.8505 H   0  0  0  0  0  0  0  0  0  0  0  0
  1  2  3  0
  2  3  1  0
  3  4  1  0
  3  5  1  0
  5  6  1  0
  6  7  1  0
  6  8  1  0
  6  3  1  0
  1  9  1  0
  4 10  1  0
  4 11  1  0
  4 12  1  0
  5 13  1  0
  5 14  1  0
  7 15  1  0
  7 16  1  0
  7 17  1  0
  8 18  1  0
  8 19  1  0
  8 20  1  0
M  END
