
     RDKit          3D

 19 20  0  0  0  0  0  0  0  0999 V2000
    2.4225   -1.0009    0.6340 C   0  0  0  0  0  0  0  0  0  0  0  0
    1.6592   -0.0673    0.4147 C   0  0  0  0  0  0  0  0  0  0  0  0
    0.7284    1.0758    0.1729 C   0  0  0  0  0  0  0  0  0  0  0  0
    0.4446    1.1221   -1.3061 C   0  0  0  0  0  0  0  0  0  0  0  0
   -0.0819   -0.3216   -1.3333 C   0  0  0  0  0  0  0  0  0  0  0  0
   -0.7910   -0.4762   -0.2224 C   0  0  0  0  0  0  0  0  0  0  0  0
   -1.4742   -1.7301    0.1488 C   0  0  0  0  0  0  0  0  0  0  0  0
   -0.7867    0.7712    0.4772 C   0  0  0  0  0  0  0  0  0  0  0  0
    0.0551    1.5161    1.3144 C   0  0  0  0  0  0  0  0  0  0  0  0
    3.0810   -1.8026    0.8339 H   0  0  0  0  0  0  0  0  0  0  0  0
    1.3395    1.1532   -1.9212 H   0  0  0  0  0  0  0  0  0  0  0  0
   -0.3559    1.8055   -1.5794 H   0  0  0  0  0  0  0  0  0  0  0  0
    0.1280   -1.0179   -2.1376 H   0  0  0  0  0  0  0  0  0  0  0  0
   -1.8398   -2.2416   -0.7678 H   0  0  0  0  0  0  0  0  0  0  0  0
   -0.8271   -2.4055    0.7583 H   0  0  0  0  0  0  0  0  0  0  0  0
   -2.3700   -1.5309    0.8084 H   0  0  0  0  0  0  0  0  0  0  0  0
   -1.5465    1.4379   -0.0617 H   0  0  0  0  0  0  0  0  0  0  0  0
    0.2957    1.0872    2.3220 H   0  0  0  0  0  0  0  0  0  0  0  0
   -0.0809    2.6256    1.4448 H   0  0  0  0  0  0  0  0  0  0  0  0
  1  2  3  0
  2  3  1  0
  3  4  1  0
  4  5  1  0
  5  6  2  0
  6  7  1  0
  6  8  1  0
  8  9  1  0
  8  3  1  0
  9  3  1  0
  1 10  1  0
  4 11  1  0
  4 12  1  0
  5 13  1  0
  7 14  1  0
  7 15  1  0
  7 16  1  0
  8 17  1  0
  9 18  1  0
  9 19  1  0
M  END
