
     RDKit          3D

 15 14  0  0  0  0  0  0  0  0999 V2000
    3.9003    0.6047   -0.1462 C   0  0  0  0  0  0  0  0  0  0  0  0
    3.1028   -0.0427    0.5270 C   0  0  0  0  0  0  0  0  0  0  0  0
    2.1528   -0.7915    1.3281 C   0  0  0  0  0  0  0  0  0  0  0  0
    2.3875   -2.1527    1.1507 O   0  0  0  0  0  0  0  0  0  0  0  0
    0.8055   -0.4218    0.8175 C   0  0  0  0  0  0  0  0  0  0  0  0
   -0.2908   -0.1179    0.4239 C   0  0  0  0  0  0  0  0  0  0  0  0
   -1.5845    0.2547   -0.0246 C   0  0  0  0  0  0  0  0  0  0  0  0
   -2.6967    0.5536   -0.4134 C   0  0  0  0  0  0  0  0  0  0  0  0
   -4.0493    0.8932   -0.8781 C   0  0  0  0  0  0  0  0  0  0  0  0
    4.5923    1.1614   -0.7105 H   0  0  0  0  0  0  0  0  0  0  0  0
    2.2398   -0.5700    2.4059 H   0  0  0  0  0  0  0  0  0  0  0  0
    2.5760   -2.2755    0.1707 H   0  0  0  0  0  0  0  0  0  0  0  0
   -4.6294    1.2325   -0.0122 H   0  0  0  0  0  0  0  0  0  0  0  0
   -4.0384    1.6930   -1.6457 H   0  0  0  0  0  0  0  0  0  0  0  0
   -4.4678   -0.0209   -1.3527 H   0  0  0  0  0  0  0  0  0  0  0  0
  1  2  3  0
  2  3  1  0
  3  4  1  0
  3  5  1  0
  5  6  3  0
  6  7  1  0
  7  8  3  0
  8  9  1  0
  1 10  1  0
  3 11  1  0
  4 12  1  0
  9 13  1  0
  9 14  1  0
  9 15  1  0
M  END
