
     RDKit          3D

 19 18  0  0  0  0  0  0  0  0999 V2000
    3.0819   -1.1510   -0.2049 C   0  0  0  0  0  0  0  0  0  0  0  0
    1.8551   -0.8374   -0.3679 C   0  0  0  0  0  0  0  0  0  0  0  0
    0.4593   -0.4567   -0.5432 C   0  0  0  0  0  0  0  0  0  0  0  0
    0.2946    0.2888   -1.7227 O   0  0  0  0  0  0  0  0  0  0  0  0
   -0.0519    0.3436    0.6212 C   0  0  0  0  0  0  0  0  0  0  0  0
    0.1411   -0.5737    1.8476 C   0  0  0  0  0  0  0  0  0  0  0  0
   -1.5319    0.6622    0.4867 C   0  0  0  0  0  0  0  0  0  0  0  0
   -1.8605    1.4520   -0.7067 C   0  0  0  0  0  0  0  0  0  0  0  0
   -2.1825    0.9493   -1.7911 O   0  0  0  0  0  0  0  0  0  0  0  0
    4.0419   -1.4090   -0.0641 H   0  0  0  0  0  0  0  0  0  0  0  0
   -0.1055   -1.4347   -0.6022 H   0  0  0  0  0  0  0  0  0  0  0  0
    0.5305   -0.2753   -2.5091 H   0  0  0  0  0  0  0  0  0  0  0  0
    0.5180    1.2516    0.8082 H   0  0  0  0  0  0  0  0  0  0  0  0
   -0.6587   -0.3903    2.5804 H   0  0  0  0  0  0  0  0  0  0  0  0
    0.1773   -1.6383    1.5252 H   0  0  0  0  0  0  0  0  0  0  0  0
    1.0962   -0.2527    2.3104 H   0  0  0  0  0  0  0  0  0  0  0  0
   -2.1073   -0.3109    0.4790 H   0  0  0  0  0  0  0  0  0  0  0  0
   -1.8693    1.2425    1.3656 H   0  0  0  0  0  0  0  0  0  0  0  0
   -1.8285    2.5400   -0.6641 H   0  0  0  0  0  0  0  0  0  0  0  0
  1  2  3  0
  2  3  1  0
  3  4  1  0
  3  5  1  0
  5  6  1  0
  5  7  1  0
  7  8  1  0
  8  9  2  0
  1 10  1  0
  3 11  1  0
  4 12  1  0
  5 13  1  0
  6 14  1  0
  6 15  1  0
  6 16  1  0
  7 17  1  0
  7 18  1  0
  8 19  1  0
M  END
