
     RDKit          3D

 16 16  0  0  0  0  0  0  0  0999 V2000
    2.5367   -0.1232   -0.5775 C   0  0  0  0  0  0  0  0  0  0  0  0
    1.7234   -0.5496    0.2028 C   0  0  0  0  0  0  0  0  0  0  0  0
    0.7281   -1.0529    1.1627 C   0  0  0  0  0  0  0  0  0  0  0  0
   -0.4593   -0.1301    1.1595 C   0  0  0  0  0  0  0  0  0  0  0  0
   -0.1399    1.1534    1.5119 O   0  0  0  0  0  0  0  0  0  0  0  0
   -1.1406   -0.2396   -0.1816 C   0  0  0  0  0  0  0  0  0  0  0  0
   -1.3345    0.9033   -1.0264 C   0  0  0  0  0  0  0  0  0  0  0  0
   -2.4087    0.5318   -0.1863 O   0  0  0  0  0  0  0  0  0  0  0  0
    3.2520    0.2622   -1.2893 H   0  0  0  0  0  0  0  0  0  0  0  0
    0.4387   -2.0802    0.8741 H   0  0  0  0  0  0  0  0  0  0  0  0
    1.1873   -1.1252    2.1910 H   0  0  0  0  0  0  0  0  0  0  0  0
   -1.1536   -0.5194    1.9615 H   0  0  0  0  0  0  0  0  0  0  0  0
    0.4027    1.6445    0.8584 H   0  0  0  0  0  0  0  0  0  0  0  0
   -1.2535   -1.2487   -0.6111 H   0  0  0  0  0  0  0  0  0  0  0  0
   -1.5964    0.7381   -2.0971 H   0  0  0  0  0  0  0  0  0  0  0  0
   -0.7823    1.8356   -0.7901 H   0  0  0  0  0  0  0  0  0  0  0  0
  1  2  3  0
  2  3  1  0
  3  4  1  0
  4  5  1  0
  4  6  1  0
  6  7  1  0
  7  8  1  0
  8  6  1  0
  1  9  1  0
  3 10  1  0
  3 11  1  0
  4 12  1  0
  5 13  1  0
  6 14  1  0
  7 15  1  0
  7 16  1  0
M  END
