
     RDKit          3D

 18 18  0  0  0  0  0  0  0  0999 V2000
    2.6154    1.5068   -0.9984 C   0  0  0  0  0  0  0  0  0  0  0  0
    1.9013    0.9599   -0.1768 C   0  0  0  0  0  0  0  0  0  0  0  0
    1.0547    0.3382    0.8008 C   0  0  0  0  0  0  0  0  0  0  0  0
   -0.3463    0.8089    0.6760 C   0  0  0  0  0  0  0  0  0  0  0  0
   -1.0161    0.0061   -0.1405 C   0  0  0  0  0  0  0  0  0  0  0  0
   -2.4436    0.1077   -0.5460 C   0  0  0  0  0  0  0  0  0  0  0  0
   -0.1090   -1.0770   -0.6325 C   0  0  0  0  0  0  0  0  0  0  0  0
    0.8757   -1.1614    0.5411 C   0  0  0  0  0  0  0  0  0  0  0  0
    3.2467    1.9734   -1.7093 H   0  0  0  0  0  0  0  0  0  0  0  0
    1.3751    0.5246    1.8348 H   0  0  0  0  0  0  0  0  0  0  0  0
   -0.7673    1.6689    1.1675 H   0  0  0  0  0  0  0  0  0  0  0  0
   -2.5611    0.6930   -1.4794 H   0  0  0  0  0  0  0  0  0  0  0  0
   -2.8433   -0.9190   -0.6116 H   0  0  0  0  0  0  0  0  0  0  0  0
   -2.9729    0.6835    0.2498 H   0  0  0  0  0  0  0  0  0  0  0  0
    0.3867   -0.8307   -1.5648 H   0  0  0  0  0  0  0  0  0  0  0  0
   -0.6724   -2.0105   -0.7028 H   0  0  0  0  0  0  0  0  0  0  0  0
    1.8305   -1.5970    0.2408 H   0  0  0  0  0  0  0  0  0  0  0  0
    0.4457   -1.6751    1.3956 H   0  0  0  0  0  0  0  0  0  0  0  0
  1  2  3  0
  2  3  1  0
  3  4  1  0
  4  5  2  0
  5  6  1  0
  5  7  1  0
  7  8  1  0
  8  3  1  0
  1  9  1  0
  3 10  1  0
  4 11  1  0
  6 12  1  0
  6 13  1  0
  6 14  1  0
  7 15  1  0
  7 16  1  0
  8 17  1  0
  8 18  1  0
M  END
