
     RDKit          3D

 19 19  0  0  0  0  0  0  0  0999 V2000
   -0.5372    2.6864   -0.2299 C   0  0  0  0  0  0  0  0  0  0  0  0
   -0.3782    1.4912   -0.2252 C   0  0  0  0  0  0  0  0  0  0  0  0
   -0.2100    0.0412   -0.2125 C   0  0  0  0  0  0  0  0  0  0  0  0
    0.8925   -0.4355   -1.0621 C   0  0  0  0  0  0  0  0  0  0  0  0
    2.2679    0.0564   -0.7497 C   0  0  0  0  0  0  0  0  0  0  0  0
    0.7788   -1.1982   -1.9999 O   0  0  0  0  0  0  0  0  0  0  0  0
   -1.5233   -0.6839   -0.3587 C   0  0  0  0  0  0  0  0  0  0  0  0
   -1.5080   -0.8755    1.1619 C   0  0  0  0  0  0  0  0  0  0  0  0
   -0.0338   -0.5346    1.1983 C   0  0  0  0  0  0  0  0  0  0  0  0
   -0.6826    3.7547   -0.2525 H   0  0  0  0  0  0  0  0  0  0  0  0
    2.9914   -0.7434   -0.9936 H   0  0  0  0  0  0  0  0  0  0  0  0
    2.4883    1.0078   -1.2980 H   0  0  0  0  0  0  0  0  0  0  0  0
    2.3618    0.3157    0.3383 H   0  0  0  0  0  0  0  0  0  0  0  0
   -1.5009   -1.6189   -0.9282 H   0  0  0  0  0  0  0  0  0  0  0  0
   -2.3943   -0.0413   -0.6119 H   0  0  0  0  0  0  0  0  0  0  0  0
   -1.7562   -1.9319    1.3890 H   0  0  0  0  0  0  0  0  0  0  0  0
   -2.0749   -0.1163    1.7166 H   0  0  0  0  0  0  0  0  0  0  0  0
    0.5707   -1.4490    1.2461 H   0  0  0  0  0  0  0  0  0  0  0  0
    0.2480    0.2749    1.8719 H   0  0  0  0  0  0  0  0  0  0  0  0
  1  2  3  0
  2  3  1  0
  3  4  1  0
  4  5  1  0
  4  6  2  0
  3  7  1  0
  7  8  1  0
  8  9  1  0
  9  3  1  0
  1 10  1  0
  5 11  1  0
  5 12  1  0
  5 13  1  0
  7 14  1  0
  7 15  1  0
  8 16  1  0
  8 17  1  0
  9 18  1  0
  9 19  1  0
M  END
