
     RDKit          3D

 19 20  0  0  0  0  0  0  0  0999 V2000
    1.9563   -2.3519   -1.0544 C   0  0  0  0  0  0  0  0  0  0  0  0
    1.2596   -1.5315   -0.9025 C   0  0  0  0  0  0  0  0  0  0  0  0
    0.3494   -0.4228   -0.6919 C   0  0  0  0  0  0  0  0  0  0  0  0
    1.7595    0.5531   -0.2926 O   0  0  0  0  0  0  0  0  0  0  0  0
    0.8105    0.8490   -1.2747 C   0  0  0  0  0  0  0  0  0  0  0  0
   -0.2065    1.8856   -0.7717 C   0  0  0  0  0  0  0  0  0  0  0  0
   -1.3359    0.9393   -0.1777 C   0  0  0  0  0  0  0  0  0  0  0  0
   -0.3153   -0.0478    0.5451 C   0  0  0  0  0  0  0  0  0  0  0  0
   -0.9748   -1.0536    1.2601 C   0  0  0  0  0  0  0  0  0  0  0  0
    2.9483   -3.4818   -1.2680 H   0  0  0  0  0  0  0  0  0  0  0  0
    1.2665    1.1320   -2.2580 H   0  0  0  0  0  0  0  0  0  0  0  0
    0.2491    2.2182    0.2768 H   0  0  0  0  0  0  0  0  0  0  0  0
   -0.4721    2.7416   -1.2163 H   0  0  0  0  0  0  0  0  0  0  0  0
   -1.8657    1.5077    0.5391 H   0  0  0  0  0  0  0  0  0  0  0  0
   -1.8743    0.4990   -0.9389 H   0  0  0  0  0  0  0  0  0  0  0  0
    0.3657    0.7309    1.0172 H   0  0  0  0  0  0  0  0  0  0  0  0
   -0.4816   -2.0207    1.4498 H   0  0  0  0  0  0  0  0  0  0  0  0
   -1.9789   -1.3926    0.6638 H   0  0  0  0  0  0  0  0  0  0  0  0
   -1.4599   -0.7538    2.2450 H   0  0  0  0  0  0  0  0  0  0  0  0
  1  2  3  0
  2  3  1  0
  3  4  1  0
  4  5  1  0
  5  6  1  0
  6  7  1  0
  7  8  1  0
  8  9  1  0
  5  3  1  0
  8  3  1  0
  1 10  1  0
  5 11  1  0
  6 12  1  0
  6 13  1  0
  7 14  1  0
  7 15  1  0
  8 16  1  0
  9 17  1  0
  9 18  1  0
  9 19  1  0
M  END
