
     RDKit          3D

 15 15  0  0  0  0  0  0  0  0999 V2000
    2.3743   -1.0639   -0.0265 C   0  0  0  0  0  0  0  0  0  0  0  0
    1.3236   -0.6867   -0.4545 C   0  0  0  0  0  0  0  0  0  0  0  0
    0.0053   -0.2410   -0.9861 C   0  0  0  0  0  0  0  0  0  0  0  0
   -0.0086    1.2436   -1.1230 C   0  0  0  0  0  0  0  0  0  0  0  0
    0.1939    2.0446   -2.0119 O   0  0  0  0  0  0  0  0  0  0  0  0
   -0.3810    1.2853    0.3183 C   0  0  0  0  0  0  0  0  0  0  0  0
   -1.0297   -0.0702    0.0769 C   0  0  0  0  0  0  0  0  0  0  0  0
   -0.9767   -1.0022    1.2143 C   0  0  0  0  0  0  0  0  0  0  0  0
   -1.5847   -0.8329    2.2308 O   0  0  0  0  0  0  0  0  0  0  0  0
    3.3206   -1.4105    0.3489 H   0  0  0  0  0  0  0  0  0  0  0  0
   -0.3035   -0.7683   -1.9049 H   0  0  0  0  0  0  0  0  0  0  0  0
   -1.0835    2.0884    0.5997 H   0  0  0  0  0  0  0  0  0  0  0  0
    0.5302    1.2522    0.9342 H   0  0  0  0  0  0  0  0  0  0  0  0
   -2.0299    0.0542   -0.3405 H   0  0  0  0  0  0  0  0  0  0  0  0
   -0.3504   -1.8924    1.1242 H   0  0  0  0  0  0  0  0  0  0  0  0
  1  2  3  0
  2  3  1  0
  3  4  1  0
  4  5  2  0
  4  6  1  0
  6  7  1  0
  7  8  1  0
  8  9  2  0
  7  3  1  0
  1 10  1  0
  3 11  1  0
  6 12  1  0
  6 13  1  0
  7 14  1  0
  8 15  1  0
M  END
