
     RDKit          3D

 16 17  0  0  0  0  0  0  0  0999 V2000
   -0.9783    2.4071   -0.6848 C   0  0  0  0  0  0  0  0  0  0  0  0
   -0.6766    1.4065   -0.4067 C   0  0  0  0  0  0  0  0  0  0  0  0
   -0.2741   -0.0155   -0.0048 C   0  0  0  0  0  0  0  0  0  0  0  0
   -1.4545   -0.8797    0.2936 C   0  0  0  0  0  0  0  0  0  0  0  0
    0.7911   -0.5408   -0.9083 C   0  0  0  0  0  0  0  0  0  0  0  0
    1.8490   -0.3455    0.1462 C   0  0  0  0  0  0  0  0  0  0  0  0
    1.8655    0.8675    0.8206 O   0  0  0  0  0  0  0  0  0  0  0  0
    0.7432    0.0921    1.0779 C   0  0  0  0  0  0  0  0  0  0  0  0
   -1.2961    3.4069   -0.9561 H   0  0  0  0  0  0  0  0  0  0  0  0
   -1.6680   -0.9773    1.4030 H   0  0  0  0  0  0  0  0  0  0  0  0
   -2.3831   -0.4378   -0.1358 H   0  0  0  0  0  0  0  0  0  0  0  0
   -1.3567   -1.8849   -0.1149 H   0  0  0  0  0  0  0  0  0  0  0  0
    0.9352    0.0489   -1.8516 H   0  0  0  0  0  0  0  0  0  0  0  0
    0.6778   -1.6321   -1.1564 H   0  0  0  0  0  0  0  0  0  0  0  0
    2.5786   -1.0566    0.4604 H   0  0  0  0  0  0  0  0  0  0  0  0
    0.6470   -0.4589    2.0178 H   0  0  0  0  0  0  0  0  0  0  0  0
  1  2  3  0
  2  3  1  0
  3  4  1  0
  3  5  1  0
  5  6  1  0
  6  7  1  0
  7  8  1  0
  8  3  1  0
  8  6  1  0
  1  9  1  0
  4 10  1  0
  4 11  1  0
  4 12  1  0
  5 13  1  0
  5 14  1  0
  6 15  1  0
  8 16  1  0
M  END
