
     RDKit          3D

 17 18  0  0  0  0  0  0  0  0999 V2000
    3.3774   -0.7112    0.0506 C   0  0  0  0  0  0  0  0  0  0  0  0
    2.1984   -0.5336   -0.1051 C   0  0  0  0  0  0  0  0  0  0  0  0
    0.7471   -0.3198   -0.2738 C   0  0  0  0  0  0  0  0  0  0  0  0
    0.1770    1.0258    0.1033 C   0  0  0  0  0  0  0  0  0  0  0  0
   -1.3026    0.8110    0.0192 C   0  0  0  0  0  0  0  0  0  0  0  0
   -1.9782    1.5651    0.9743 O   0  0  0  0  0  0  0  0  0  0  0  0
   -1.5297   -0.6701    0.2438 C   0  0  0  0  0  0  0  0  0  0  0  0
   -0.1642   -1.2953    0.0188 C   0  0  0  0  0  0  0  0  0  0  0  0
    0.2306   -0.9876   -1.3823 O   0  0  0  0  0  0  0  0  0  0  0  0
    4.4303   -0.8834    0.2031 H   0  0  0  0  0  0  0  0  0  0  0  0
    0.5493    1.8409   -0.5439 H   0  0  0  0  0  0  0  0  0  0  0  0
    0.4329    1.2420    1.1675 H   0  0  0  0  0  0  0  0  0  0  0  0
   -1.6178    1.1082   -1.0169 H   0  0  0  0  0  0  0  0  0  0  0  0
   -1.3171    2.1365    1.4258 H   0  0  0  0  0  0  0  0  0  0  0  0
   -1.9429   -0.8981    1.2215 H   0  0  0  0  0  0  0  0  0  0  0  0
   -2.1797   -1.0553   -0.5817 H   0  0  0  0  0  0  0  0  0  0  0  0
   -0.1110   -2.3751    0.1535 H   0  0  0  0  0  0  0  0  0  0  0  0
  1  2  3  0
  2  3  1  0
  3  4  1  0
  4  5  1  0
  5  6  1  0
  5  7  1  0
  7  8  1  0
  8  9  1  0
  8  3  1  0
  9  3  1  0
  1 10  1  0
  4 11  1  0
  4 12  1  0
  5 13  1  0
  6 14  1  0
  7 15  1  0
  7 16  1  0
  8 17  1  0
M  END
