
     RDKit          3D

 21 21  0  0  0  0  0  0  0  0999 V2000
    1.4342    2.5171   -1.3311 C   0  0  0  0  0  0  0  0  0  0  0  0
    0.4821    1.9394   -0.6929 C   0  0  0  0  0  0  0  0  0  0  0  0
   -0.5956    1.2981   -0.0001 C   0  0  0  0  0  0  0  0  0  0  0  0
   -0.3756    1.6746    1.5166 C   0  0  0  0  0  0  0  0  0  0  0  0
   -0.3038   -0.2248   -0.0107 C   0  0  0  0  0  0  0  0  0  0  0  0
   -0.1805   -0.9508   -1.3054 C   0  0  0  0  0  0  0  0  0  0  0  0
    0.1141   -2.4301   -0.9759 C   0  0  0  0  0  0  0  0  0  0  0  0
   -0.3237   -0.9052    1.3072 C   0  0  0  0  0  0  0  0  0  0  0  0
    0.8663   -0.4834    0.7868 O   0  0  0  0  0  0  0  0  0  0  0  0
    2.2896    3.0511   -1.9114 H   0  0  0  0  0  0  0  0  0  0  0  0
   -1.5465    1.5717   -0.3105 H   0  0  0  0  0  0  0  0  0  0  0  0
   -0.0205    2.7023    1.5124 H   0  0  0  0  0  0  0  0  0  0  0  0
   -1.2681    1.4281    2.0278 H   0  0  0  0  0  0  0  0  0  0  0  0
    0.5048    1.0608    1.8401 H   0  0  0  0  0  0  0  0  0  0  0  0
   -1.1048   -1.0113   -1.9066 H   0  0  0  0  0  0  0  0  0  0  0  0
    0.6509   -0.5587   -1.8919 H   0  0  0  0  0  0  0  0  0  0  0  0
   -0.8360   -2.9724   -0.9120 H   0  0  0  0  0  0  0  0  0  0  0  0
    0.7293   -2.8306   -1.7802 H   0  0  0  0  0  0  0  0  0  0  0  0
    0.7403   -2.4730   -0.0556 H   0  0  0  0  0  0  0  0  0  0  0  0
   -0.7776   -0.3836    2.1432 H   0  0  0  0  0  0  0  0  0  0  0  0
   -0.4789   -2.0194    1.4128 H   0  0  0  0  0  0  0  0  0  0  0  0
  1  2  3  0
  2  3  1  0
  3  4  1  0
  3  5  1  0
  5  6  1  0
  6  7  1  0
  5  8  1  0
  8  9  1  0
  9  5  1  0
  1 10  1  0
  3 11  1  0
  4 12  1  0
  4 13  1  0
  4 14  1  0
  6 15  1  0
  6 16  1  0
  7 17  1  0
  7 18  1  0
  7 19  1  0
  8 20  1  0
  8 21  1  0
M  END
