
     RDKit          3D

 19 18  0  0  0  0  0  0  0  0999 V2000
   -0.7228    2.9535    0.2308 C   0  0  0  0  0  0  0  0  0  0  0  0
   -0.6834    1.8844   -0.3974 C   0  0  0  0  0  0  0  0  0  0  0  0
   -0.6317    0.4342   -1.2781 C   0  0  0  0  0  0  0  0  0  0  0  0
   -2.0180   -0.2068   -0.3933 C   0  0  0  0  0  0  0  0  0  0  0  0
   -2.0083   -1.5036   -0.7708 O   0  0  0  0  0  0  0  0  0  0  0  0
    0.2187   -0.0787   -0.5916 O   0  0  0  0  0  0  0  0  0  0  0  0
    0.6141   -0.4691    0.5653 C   0  0  0  0  0  0  0  0  0  0  0  0
    2.0576   -1.0446    0.3870 C   0  0  0  0  0  0  0  0  0  0  0  0
    2.5214   -1.4698    1.6137 O   0  0  0  0  0  0  0  0  0  0  0  0
   -0.7690    3.8507    0.7722 H   0  0  0  0  0  0  0  0  0  0  0  0
   -1.3694    0.8779   -1.8659 H   0  0  0  0  0  0  0  0  0  0  0  0
   -2.7696    0.4111   -0.7992 H   0  0  0  0  0  0  0  0  0  0  0  0
   -1.7200    0.0561    0.6066 H   0  0  0  0  0  0  0  0  0  0  0  0
   -1.2203   -2.0008   -0.5418 H   0  0  0  0  0  0  0  0  0  0  0  0
    0.0520   -1.3011    1.0813 H   0  0  0  0  0  0  0  0  0  0  0  0
    0.7514    0.3805    1.3077 H   0  0  0  0  0  0  0  0  0  0  0  0
    2.0711   -1.8381   -0.3787 H   0  0  0  0  0  0  0  0  0  0  0  0
    2.6964   -0.2023   -0.0138 H   0  0  0  0  0  0  0  0  0  0  0  0
    2.9297   -0.7334    2.1446 H   0  0  0  0  0  0  0  0  0  0  0  0
  1  2  3  0
  2  3  1  0
  3  4  1  0
  4  5  1  0
  3  6  1  0
  6  7  1  0
  7  8  1  0
  8  9  1  0
  1 10  1  0
  3 11  1  0
  4 12  1  0
  4 13  1  0
  5 14  1  0
  7 15  1  0
  7 16  1  0
  8 17  1  0
  8 18  1  0
  9 19  1  0
M  END
