
     RDKit          3D

 14 14  0  0  0  0  0  0  0  0999 V2000
    2.9920    0.9407    0.2962 C   0  0  0  0  0  0  0  0  0  0  0  0
    1.4924    0.8563    0.0023 C   0  0  0  0  0  0  0  0  0  0  0  0
    0.2565    0.7648   -0.2386 C   0  0  0  0  0  0  0  0  0  0  0  0
   -0.5870    0.7238    0.9246 O   0  0  0  0  0  0  0  0  0  0  0  0
   -1.6546   -0.0239    0.4820 C   0  0  0  0  0  0  0  0  0  0  0  0
   -0.7821   -1.3060    0.1841 C   0  0  0  0  0  0  0  0  0  0  0  0
    0.0003   -0.6239   -0.8765 C   0  0  0  0  0  0  0  0  0  0  0  0
    0.4016   -0.9544   -1.9403 O   0  0  0  0  0  0  0  0  0  0  0  0
    4.1546    0.9924    0.5107 H   0  0  0  0  0  0  0  0  0  0  0  0
   -0.0903    1.5782   -0.9193 H   0  0  0  0  0  0  0  0  0  0  0  0
   -2.0509    0.2966   -0.5082 H   0  0  0  0  0  0  0  0  0  0  0  0
   -2.3058   -0.3429    1.2590 H   0  0  0  0  0  0  0  0  0  0  0  0
   -0.3640   -1.5823    1.1415 H   0  0  0  0  0  0  0  0  0  0  0  0
   -1.4626   -2.0788   -0.3172 H   0  0  0  0  0  0  0  0  0  0  0  0
  1  2  3  0
  2  3  1  0
  3  4  1  0
  4  5  1  0
  5  6  1  0
  6  7  1  0
  7  8  2  0
  7  3  1  0
  1  9  1  0
  3 10  1  0
  5 11  1  0
  5 12  1  0
  6 13  1  0
  6 14  1  0
M  END
