
     RDKit          3D

 19 19  0  0  0  0  0  0  0  0999 V2000
    2.4379   -0.6406    2.0297 C   0  0  0  0  0  0  0  0  0  0  0  0
    1.4760   -0.9686    1.3497 C   0  0  0  0  0  0  0  0  0  0  0  0
    0.3201   -1.3643    0.5203 C   0  0  0  0  0  0  0  0  0  0  0  0
   -0.7749   -1.5080    1.3441 O   0  0  0  0  0  0  0  0  0  0  0  0
    0.1339   -0.2743   -0.5048 C   0  0  0  0  0  0  0  0  0  0  0  0
   -0.1365    1.0745    0.1843 C   0  0  0  0  0  0  0  0  0  0  0  0
   -0.7520    1.7982   -1.0093 C   0  0  0  0  0  0  0  0  0  0  0  0
   -1.4589    0.8659   -1.7158 O   0  0  0  0  0  0  0  0  0  0  0  0
   -1.1482   -0.3939   -1.2788 C   0  0  0  0  0  0  0  0  0  0  0  0
    3.2682   -0.3415    2.6075 H   0  0  0  0  0  0  0  0  0  0  0  0
    0.5354   -2.2945   -0.0332 H   0  0  0  0  0  0  0  0  0  0  0  0
   -0.5984   -1.1793    2.2836 H   0  0  0  0  0  0  0  0  0  0  0  0
    1.0273   -0.1701   -1.1238 H   0  0  0  0  0  0  0  0  0  0  0  0
   -0.9227    0.9441    0.9507 H   0  0  0  0  0  0  0  0  0  0  0  0
    0.7837    1.5394    0.5369 H   0  0  0  0  0  0  0  0  0  0  0  0
    0.1154    2.1078   -1.6597 H   0  0  0  0  0  0  0  0  0  0  0  0
   -1.2997    2.6961   -0.7434 H   0  0  0  0  0  0  0  0  0  0  0  0
   -1.0648   -1.1390   -2.1134 H   0  0  0  0  0  0  0  0  0  0  0  0
   -1.9419   -0.7517   -0.5580 H   0  0  0  0  0  0  0  0  0  0  0  0
  1  2  3  0
  2  3  1  0
  3  4  1  0
  3  5  1  0
  5  6  1  0
  6  7  1  0
  7  8  1  0
  8  9  1  0
  9  5  1  0
  1 10  1  0
  3 11  1  0
  4 12  1  0
  5 13  1  0
  6 14  1  0
  6 15  1  0
  7 16  1  0
  7 17  1  0
  9 18  1  0
  9 19  1  0
M  END
