
     RDKit          3D

 14 15  0  0  0  0  0  0  0  0999 V2000
    2.3280    1.7104   -0.9186 C   0  0  0  0  0  0  0  0  0  0  0  0
    1.2883    1.1890   -0.5989 C   0  0  0  0  0  0  0  0  0  0  0  0
    0.0401    0.5583   -0.2304 C   0  0  0  0  0  0  0  0  0  0  0  0
   -0.0537   -0.9284   -0.4782 C   0  0  0  0  0  0  0  0  0  0  0  0
   -1.4444   -1.2020    0.0136 C   0  0  0  0  0  0  0  0  0  0  0  0
   -1.4313   -0.5539    1.1759 C   0  0  0  0  0  0  0  0  0  0  0  0
   -0.0273    0.0030    1.1628 C   0  0  0  0  0  0  0  0  0  0  0  0
    0.6955   -1.0903    0.6862 O   0  0  0  0  0  0  0  0  0  0  0  0
    3.2544    2.1907   -1.1924 H   0  0  0  0  0  0  0  0  0  0  0  0
   -0.8667    1.1132   -0.5535 H   0  0  0  0  0  0  0  0  0  0  0  0
    0.2699   -1.3397   -1.3899 H   0  0  0  0  0  0  0  0  0  0  0  0
   -2.1925   -1.7800   -0.5016 H   0  0  0  0  0  0  0  0  0  0  0  0
   -2.1708   -0.4226    1.9505 H   0  0  0  0  0  0  0  0  0  0  0  0
    0.3103    0.5524    1.9923 H   0  0  0  0  0  0  0  0  0  0  0  0
  1  2  3  0
  2  3  1  0
  3  4  1  0
  4  5  1  0
  5  6  2  0
  6  7  1  0
  7  8  1  0
  7  3  1  0
  8  4  1  0
  1  9  1  0
  3 10  1  0
  4 11  1  0
  5 12  1  0
  6 13  1  0
  7 14  1  0
M  END
