
     RDKit          3D

 19 20  0  0  0  0  0  0  0  0999 V2000
    2.8749    2.1630    1.1213 C   0  0  0  0  0  0  0  0  0  0  0  0
    2.4332    1.0590    0.8598 C   0  0  0  0  0  0  0  0  0  0  0  0
    1.9103   -0.2769    0.5650 C   0  0  0  0  0  0  0  0  0  0  0  0
    1.9642   -0.5178   -0.8056 O   0  0  0  0  0  0  0  0  0  0  0  0
    0.6160   -0.1650   -0.8625 C   0  0  0  0  0  0  0  0  0  0  0  0
   -0.3326   -1.1887   -0.3812 C   0  0  0  0  0  0  0  0  0  0  0  0
   -1.7835   -0.9627   -0.6094 C   0  0  0  0  0  0  0  0  0  0  0  0
   -2.3047    0.2982    0.0401 C   0  0  0  0  0  0  0  0  0  0  0  0
    0.4211   -0.3840    0.5918 C   0  0  0  0  0  0  0  0  0  0  0  0
    3.2463    3.1316    1.3526 H   0  0  0  0  0  0  0  0  0  0  0  0
    2.4655   -1.0302    1.1535 H   0  0  0  0  0  0  0  0  0  0  0  0
    0.3163    0.7536   -1.3669 H   0  0  0  0  0  0  0  0  0  0  0  0
   -0.0227   -2.2673   -0.4554 H   0  0  0  0  0  0  0  0  0  0  0  0
   -2.3492   -1.8185   -0.1698 H   0  0  0  0  0  0  0  0  0  0  0  0
   -1.9963   -0.9220   -1.6935 H   0  0  0  0  0  0  0  0  0  0  0  0
   -1.5546    1.1285    0.0158 H   0  0  0  0  0  0  0  0  0  0  0  0
   -3.2684    0.6036   -0.4137 H   0  0  0  0  0  0  0  0  0  0  0  0
   -2.4971    0.0909    1.1142 H   0  0  0  0  0  0  0  0  0  0  0  0
   -0.1386    0.3049    1.2315 H   0  0  0  0  0  0  0  0  0  0  0  0
  1  2  3  0
  2  3  1  0
  3  4  1  0
  4  5  1  0
  5  6  1  0
  6  7  1  0
  7  8  1  0
  6  9  1  0
  9  3  1  0
  9  5  1  0
  1 10  1  0
  3 11  1  0
  5 12  1  0
  6 13  1  0
  7 14  1  0
  7 15  1  0
  8 16  1  0
  8 17  1  0
  8 18  1  0
  9 19  1  0
M  END
