
     RDKit          3D

 15 15  0  0  0  0  0  0  0  0999 V2000
   -0.4822    2.7265    0.2084 C   0  0  0  0  0  0  0  0  0  0  0  0
   -0.3248    1.5258    0.1071 C   0  0  0  0  0  0  0  0  0  0  0  0
   -0.1227    0.0760    0.0062 C   0  0  0  0  0  0  0  0  0  0  0  0
    1.1523   -0.3447   -0.4459 O   0  0  0  0  0  0  0  0  0  0  0  0
    2.3234   -0.0457    0.1987 C   0  0  0  0  0  0  0  0  0  0  0  0
    2.3002    0.6355    1.2486 O   0  0  0  0  0  0  0  0  0  0  0  0
   -1.2830   -0.6940   -0.6651 C   0  0  0  0  0  0  0  0  0  0  0  0
   -0.9875   -0.8146    0.8035 C   0  0  0  0  0  0  0  0  0  0  0  0
   -0.4968   -2.0598    1.2274 O   0  0  0  0  0  0  0  0  0  0  0  0
   -0.6068    3.7785    0.2857 H   0  0  0  0  0  0  0  0  0  0  0  0
    3.2515   -0.3922   -0.1926 H   0  0  0  0  0  0  0  0  0  0  0  0
   -1.0315   -1.5175   -1.3394 H   0  0  0  0  0  0  0  0  0  0  0  0
   -2.1322   -0.0758   -1.0128 H   0  0  0  0  0  0  0  0  0  0  0  0
   -1.6637   -0.3298    1.5158 H   0  0  0  0  0  0  0  0  0  0  0  0
    0.1040   -2.4682    0.5570 H   0  0  0  0  0  0  0  0  0  0  0  0
  1  2  3  0
  2  3  1  0
  3  4  1  0
  4  5  1  0
  5  6  2  0
  3  7  1  0
  7  8  1  0
  8  9  1  0
  8  3  1  0
  1 10  1  0
  5 11  1  0
  7 12  1  0
  7 13  1  0
  8 14  1  0
  9 15  1  0
M  END
