
     RDKit          3D

 19 20  0  0  0  0  0  0  0  0999 V2000
    3.8312    0.5483    0.6306 C   0  0  0  0  0  0  0  0  0  0  0  0
    2.6939    0.4214    0.3925 C   0  0  0  0  0  0  0  0  0  0  0  0
    1.2548    0.2363    0.0908 C   0  0  0  0  0  0  0  0  0  0  0  0
    0.7362   -0.6501    1.0675 C   0  0  0  0  0  0  0  0  0  0  0  0
   -0.6645   -0.9149    0.9262 C   0  0  0  0  0  0  0  0  0  0  0  0
   -1.0730   -0.0357   -0.2513 C   0  0  0  0  0  0  0  0  0  0  0  0
   -1.8467   -0.7056   -1.3089 C   0  0  0  0  0  0  0  0  0  0  0  0
   -0.9482    1.4166   -0.0370 C   0  0  0  0  0  0  0  0  0  0  0  0
    0.2022    0.6518   -0.7199 C   0  0  0  0  0  0  0  0  0  0  0  0
    4.9286    0.6771    0.8773 H   0  0  0  0  0  0  0  0  0  0  0  0
    1.3301   -1.0740    1.8305 H   0  0  0  0  0  0  0  0  0  0  0  0
   -1.2517   -0.5380    1.8223 H   0  0  0  0  0  0  0  0  0  0  0  0
   -0.8828   -1.9511    0.7158 H   0  0  0  0  0  0  0  0  0  0  0  0
   -1.3265   -1.6623   -1.6023 H   0  0  0  0  0  0  0  0  0  0  0  0
   -2.8277   -1.0052   -0.8249 H   0  0  0  0  0  0  0  0  0  0  0  0
   -2.0512   -0.1424   -2.2149 H   0  0  0  0  0  0  0  0  0  0  0  0
   -1.5940    2.1002   -0.5962 H   0  0  0  0  0  0  0  0  0  0  0  0
   -0.7916    1.7830    1.0245 H   0  0  0  0  0  0  0  0  0  0  0  0
    0.2810    0.8446   -1.8225 H   0  0  0  0  0  0  0  0  0  0  0  0
  1  2  3  0
  2  3  1  0
  3  4  2  0
  4  5  1  0
  5  6  1  0
  6  7  1  0
  6  8  1  0
  8  9  1  0
  9  3  1  0
  9  6  1  0
  1 10  1  0
  4 11  1  0
  5 12  1  0
  5 13  1  0
  7 14  1  0
  7 15  1  0
  7 16  1  0
  8 17  1  0
  8 18  1  0
  9 19  1  0
M  END
