
     RDKit          3D

 15 16  0  0  0  0  0  0  0  0999 V2000
    2.6746   -1.7063   -0.0349 C   0  0  0  0  0  0  0  0  0  0  0  0
    1.6751   -1.0654    0.2420 C   0  0  0  0  0  0  0  0  0  0  0  0
    0.4840   -0.2971    0.5983 C   0  0  0  0  0  0  0  0  0  0  0  0
   -0.7438   -0.6290   -0.1735 C   0  0  0  0  0  0  0  0  0  0  0  0
   -1.7619    0.3757    0.3991 C   0  0  0  0  0  0  0  0  0  0  0  0
   -0.8742    1.5615    0.2400 C   0  0  0  0  0  0  0  0  0  0  0  0
   -1.1292    2.6927    0.4898 O   0  0  0  0  0  0  0  0  0  0  0  0
    0.3499    0.9232   -0.2945 C   0  0  0  0  0  0  0  0  0  0  0  0
   -0.1591    0.0616   -1.2571 O   0  0  0  0  0  0  0  0  0  0  0  0
    3.5382   -2.2637   -0.2921 H   0  0  0  0  0  0  0  0  0  0  0  0
    0.3794   -0.1077    1.6701 H   0  0  0  0  0  0  0  0  0  0  0  0
   -1.0637   -1.6255   -0.3204 H   0  0  0  0  0  0  0  0  0  0  0  0
   -2.6664    0.4235   -0.2051 H   0  0  0  0  0  0  0  0  0  0  0  0
   -1.9133    0.1509    1.4567 H   0  0  0  0  0  0  0  0  0  0  0  0
    1.2103    1.5056   -0.5019 H   0  0  0  0  0  0  0  0  0  0  0  0
  1  2  3  0
  2  3  1  0
  3  4  1  0
  4  5  1  0
  5  6  1  0
  6  7  2  0
  6  8  1  0
  8  9  1  0
  8  3  1  0
  9  4  1  0
  1 10  1  0
  3 11  1  0
  4 12  1  0
  5 13  1  0
  5 14  1  0
  8 15  1  0
M  END
