
     RDKit          3D

 23 22  0  0  0  0  0  0  0  0999 V2000
   -1.8846    1.4669    0.8829 C   0  0  0  0  0  0  0  0  0  0  0  0
   -1.9357    0.3460    0.5874 C   0  0  0  0  0  0  0  0  0  0  0  0
   -1.9885   -1.0522    0.2046 C   0  0  0  0  0  0  0  0  0  0  0  0
   -2.5682   -0.8379   -1.1277 O   0  0  0  0  0  0  0  0  0  0  0  0
   -0.4177   -1.1565   -0.3390 C   0  0  0  0  0  0  0  0  0  0  0  0
   -0.4649   -0.5340   -1.6753 C   0  0  0  0  0  0  0  0  0  0  0  0
    0.4034   -0.0919    0.4615 C   0  0  0  0  0  0  0  0  0  0  0  0
    1.8505    0.0030    0.2978 C   0  0  0  0  0  0  0  0  0  0  0  0
    2.4043    1.0844    1.2268 C   0  0  0  0  0  0  0  0  0  0  0  0
   -1.8296    2.9045    1.2669 H   0  0  0  0  0  0  0  0  0  0  0  0
   -2.2953   -1.7002    0.8047 H   0  0  0  0  0  0  0  0  0  0  0  0
   -2.1901   -1.5722   -1.7124 H   0  0  0  0  0  0  0  0  0  0  0  0
   -0.0281   -2.1228   -0.1697 H   0  0  0  0  0  0  0  0  0  0  0  0
   -0.3779   -1.3397   -2.4912 H   0  0  0  0  0  0  0  0  0  0  0  0
   -1.3830    0.0211   -1.9130 H   0  0  0  0  0  0  0  0  0  0  0  0
    0.3692    0.2135   -1.8627 H   0  0  0  0  0  0  0  0  0  0  0  0
    0.0684   -0.0465    1.4678 H   0  0  0  0  0  0  0  0  0  0  0  0
    0.0349    0.9473    0.0192 H   0  0  0  0  0  0  0  0  0  0  0  0
    2.4396   -0.9029    0.5506 H   0  0  0  0  0  0  0  0  0  0  0  0
    2.1225    0.3031   -0.7680 H   0  0  0  0  0  0  0  0  0  0  0  0
    1.7912    1.1753    2.1408 H   0  0  0  0  0  0  0  0  0  0  0  0
    2.4330    2.0649    0.6759 H   0  0  0  0  0  0  0  0  0  0  0  0
    3.4468    0.8269    1.4722 H   0  0  0  0  0  0  0  0  0  0  0  0
  1  2  3  0
  2  3  1  0
  3  4  1  0
  3  5  1  0
  5  6  1  0
  5  7  1  0
  7  8  1  0
  8  9  1  0
  1 10  1  0
  3 11  1  0
  4 12  1  0
  5 13  1  0
  6 14  1  0
  6 15  1  0
  6 16  1  0
  7 17  1  0
  7 18  1  0
  8 19  1  0
  8 20  1  0
  9 21  1  0
  9 22  1  0
  9 23  1  0
M  END
