
     RDKit          3D

 17 17  0  0  0  0  0  0  0  0999 V2000
   -1.2965    2.3037    0.7444 C   0  0  0  0  0  0  0  0  0  0  0  0
   -0.9521    1.1933    0.4047 C   0  0  0  0  0  0  0  0  0  0  0  0
   -0.5202   -0.1302    0.0012 C   0  0  0  0  0  0  0  0  0  0  0  0
    0.4276   -0.1169   -1.1613 C   0  0  0  0  0  0  0  0  0  0  0  0
    1.6893    0.6349   -0.9200 C   0  0  0  0  0  0  0  0  0  0  0  0
   -0.1593   -0.9993    1.1605 C   0  0  0  0  0  0  0  0  0  0  0  0
   -1.2723   -1.8822    0.7226 C   0  0  0  0  0  0  0  0  0  0  0  0
   -1.7166   -2.9878    1.1211 O   0  0  0  0  0  0  0  0  0  0  0  0
   -1.6003   -1.0032   -0.2737 O   0  0  0  0  0  0  0  0  0  0  0  0
   -1.5875    3.2920    1.0338 H   0  0  0  0  0  0  0  0  0  0  0  0
    0.6880   -1.1405   -1.4998 H   0  0  0  0  0  0  0  0  0  0  0  0
   -0.1145    0.3530   -2.0191 H   0  0  0  0  0  0  0  0  0  0  0  0
    1.9159    0.7346    0.1575 H   0  0  0  0  0  0  0  0  0  0  0  0
    2.5621    0.1512   -1.4474 H   0  0  0  0  0  0  0  0  0  0  0  0
    1.5720    1.6692   -1.3084 H   0  0  0  0  0  0  0  0  0  0  0  0
    0.7815   -1.5361    1.1327 H   0  0  0  0  0  0  0  0  0  0  0  0
   -0.4173   -0.5357    2.1511 H   0  0  0  0  0  0  0  0  0  0  0  0
  1  2  3  0
  2  3  1  0
  3  4  1  0
  4  5  1  0
  3  6  1  0
  6  7  1  0
  7  8  2  0
  7  9  1  0
  9  3  1  0
  1 10  1  0
  4 11  1  0
  4 12  1  0
  5 13  1  0
  5 14  1  0
  5 15  1  0
  6 16  1  0
  6 17  1  0
M  END
