
     RDKit          3D

 21 20  0  0  0  0  0  0  0  0999 V2000
    4.6787   -0.0753    0.3554 C   0  0  0  0  0  0  0  0  0  0  0  0
    3.6687   -0.5843    0.0357 C   0  0  0  0  0  0  0  0  0  0  0  0
    2.1270   -1.3965   -0.4604 C   0  0  0  0  0  0  0  0  0  0  0  0
    1.2430   -0.4034    0.2334 C   0  0  0  0  0  0  0  0  0  0  0  0
    0.0531   -0.4986    0.4693 O   0  0  0  0  0  0  0  0  0  0  0  0
   -1.1529   -0.5962    0.7091 C   0  0  0  0  0  0  0  0  0  0  0  0
   -2.1656    0.4345    0.3549 C   0  0  0  0  0  0  0  0  0  0  0  0
   -2.3457    0.9507   -1.0258 C   0  0  0  0  0  0  0  0  0  0  0  0
   -3.5137    1.7939   -0.8371 O   0  0  0  0  0  0  0  0  0  0  0  0
    5.3604    0.2773    0.5620 H   0  0  0  0  0  0  0  0  0  0  0  0
    2.2370   -2.3248    0.0691 H   0  0  0  0  0  0  0  0  0  0  0  0
    2.1570   -1.4317   -1.4871 H   0  0  0  0  0  0  0  0  0  0  0  0
    1.8502   -0.1598    1.2564 H   0  0  0  0  0  0  0  0  0  0  0  0
    1.5129    0.6063   -0.3734 H   0  0  0  0  0  0  0  0  0  0  0  0
   -1.6206   -1.6210    0.5272 H   0  0  0  0  0  0  0  0  0  0  0  0
   -1.3271   -0.6010    1.9257 H   0  0  0  0  0  0  0  0  0  0  0  0
   -2.0567    1.3258    1.0070 H   0  0  0  0  0  0  0  0  0  0  0  0
   -3.1766   -0.0297    0.6291 H   0  0  0  0  0  0  0  0  0  0  0  0
   -1.5536    1.6165   -1.3998 H   0  0  0  0  0  0  0  0  0  0  0  0
   -2.6876    0.2784   -1.8060 H   0  0  0  0  0  0  0  0  0  0  0  0
   -3.2879    2.4391   -0.0723 H   0  0  0  0  0  0  0  0  0  0  0  0
  1  2  3  0
  2  3  1  0
  3  4  1  0
  4  5  1  0
  5  6  1  0
  6  7  1  0
  7  8  1  0
  8  9  1  0
  1 10  1  0
  3 11  1  0
  3 12  1  0
  4 13  1  0
  4 14  1  0
  6 15  1  0
  6 16  1  0
  7 17  1  0
  7 18  1  0
  8 19  1  0
  8 20  1  0
  9 21  1  0
M  END
