
     RDKit          3D

 18 17  0  0  0  0  0  0  0  0999 V2000
    2.3117   -1.7886    1.3462 C   0  0  0  0  0  0  0  0  0  0  0  0
    1.1779   -1.4837    1.0671 C   0  0  0  0  0  0  0  0  0  0  0  0
   -0.1840   -1.1101    0.7562 C   0  0  0  0  0  0  0  0  0  0  0  0
   -1.1374   -1.2785    1.5516 O   0  0  0  0  0  0  0  0  0  0  0  0
   -0.4108   -0.5031   -0.5796 C   0  0  0  0  0  0  0  0  0  0  0  0
   -1.8432   -0.1538   -0.8039 C   0  0  0  0  0  0  0  0  0  0  0  0
    0.5277    0.6715   -0.7270 C   0  0  0  0  0  0  0  0  0  0  0  0
    0.3135    1.7244    0.3130 C   0  0  0  0  0  0  0  0  0  0  0  0
    3.3097   -2.0466    1.5939 H   0  0  0  0  0  0  0  0  0  0  0  0
   -0.1061   -1.2616   -1.3368 H   0  0  0  0  0  0  0  0  0  0  0  0
   -2.4665   -0.9066   -0.2530 H   0  0  0  0  0  0  0  0  0  0  0  0
   -2.0888    0.8765   -0.4592 H   0  0  0  0  0  0  0  0  0  0  0  0
   -2.1516   -0.1943   -1.8786 H   0  0  0  0  0  0  0  0  0  0  0  0
    1.5622    0.2557   -0.5550 H   0  0  0  0  0  0  0  0  0  0  0  0
    0.4960    1.1208   -1.7234 H   0  0  0  0  0  0  0  0  0  0  0  0
   -0.3496    1.3671    1.1402 H   0  0  0  0  0  0  0  0  0  0  0  0
    1.2673    2.1411    0.7068 H   0  0  0  0  0  0  0  0  0  0  0  0
   -0.2281    2.5699   -0.1585 H   0  0  0  0  0  0  0  0  0  0  0  0
  1  2  3  0
  2  3  1  0
  3  4  2  0
  3  5  1  0
  5  6  1  0
  5  7  1  0
  7  8  1  0
  1  9  1  0
  5 10  1  0
  6 11  1  0
  6 12  1  0
  6 13  1  0
  7 14  1  0
  7 15  1  0
  8 16  1  0
  8 17  1  0
  8 18  1  0
M  END
