
     RDKit          3D

 19 19  0  0  0  0  0  0  0  0999 V2000
   -1.5944    1.3376   -1.5660 C   0  0  0  0  0  0  0  0  0  0  0  0
   -1.5825    0.9059   -0.6564 C   0  0  0  0  0  0  0  0  0  0  0  0
   -1.5869    0.2576    0.7382 C   0  0  0  0  0  0  0  0  0  0  0  0
   -2.3883    0.9357    1.6475 O   0  0  0  0  0  0  0  0  0  0  0  0
   -1.1899   -1.1105    0.8432 C   0  0  0  0  0  0  0  0  0  0  0  0
   -0.2070   -0.0239    1.2520 C   0  0  0  0  0  0  0  0  0  0  0  0
    1.0119    0.1084    0.4150 C   0  0  0  0  0  0  0  0  0  0  0  0
    1.0110   -0.7629   -0.6280 O   0  0  0  0  0  0  0  0  0  0  0  0
    2.1598   -0.7485   -1.4083 C   0  0  0  0  0  0  0  0  0  0  0  0
   -1.6180    1.8294   -2.6425 H   0  0  0  0  0  0  0  0  0  0  0  0
   -1.8076    1.7627    1.8902 H   0  0  0  0  0  0  0  0  0  0  0  0
   -1.5323   -1.7459    1.7161 H   0  0  0  0  0  0  0  0  0  0  0  0
   -0.9672   -1.7678   -0.0269 H   0  0  0  0  0  0  0  0  0  0  0  0
   -0.0180    0.0656    2.3670 H   0  0  0  0  0  0  0  0  0  0  0  0
    1.9215    0.0972    1.0691 H   0  0  0  0  0  0  0  0  0  0  0  0
    1.0265    1.1827   -0.0092 H   0  0  0  0  0  0  0  0  0  0  0  0
    2.3233    0.2639   -1.8524 H   0  0  0  0  0  0  0  0  0  0  0  0
    3.0575   -1.1229   -0.8880 H   0  0  0  0  0  0  0  0  0  0  0  0
    1.9806   -1.4642   -2.2605 H   0  0  0  0  0  0  0  0  0  0  0  0
  1  2  3  0
  2  3  1  0
  3  4  1  0
  3  5  1  0
  5  6  1  0
  6  7  1  0
  7  8  1  0
  8  9  1  0
  6  3  1  0
  1 10  1  0
  4 11  1  0
  5 12  1  0
  5 13  1  0
  6 14  1  0
  7 15  1  0
  7 16  1  0
  9 17  1  0
  9 18  1  0
  9 19  1  0
M  END
