
     RDKit          3D

 17 17  0  0  0  0  0  0  0  0999 V2000
    3.1178   -0.2882   -0.5154 C   0  0  0  0  0  0  0  0  0  0  0  0
    1.9196    0.0124   -0.6132 C   0  0  0  0  0  0  0  0  0  0  0  0
    0.5157    0.3610   -0.7528 C   0  0  0  0  0  0  0  0  0  0  0  0
   -0.3257   -0.8661   -1.1274 C   0  0  0  0  0  0  0  0  0  0  0  0
   -0.8815   -0.8728    0.2597 C   0  0  0  0  0  0  0  0  0  0  0  0
   -0.4500   -1.9492    1.0293 O   0  0  0  0  0  0  0  0  0  0  0  0
   -0.1477    0.4076    0.6016 C   0  0  0  0  0  0  0  0  0  0  0  0
   -1.0928    1.5295    0.7339 C   0  0  0  0  0  0  0  0  0  0  0  0
   -1.8696    2.4410    0.8465 C   0  0  0  0  0  0  0  0  0  0  0  0
    4.1421   -0.5264   -0.4345 H   0  0  0  0  0  0  0  0  0  0  0  0
    0.3010    1.1960   -1.4208 H   0  0  0  0  0  0  0  0  0  0  0  0
    0.3078   -1.7530   -1.3510 H   0  0  0  0  0  0  0  0  0  0  0  0
   -1.0326   -0.7097   -1.9504 H   0  0  0  0  0  0  0  0  0  0  0  0
   -1.9812   -0.7903    0.2672 H   0  0  0  0  0  0  0  0  0  0  0  0
   -0.4942   -1.7290    2.0025 H   0  0  0  0  0  0  0  0  0  0  0  0
    0.5380    0.2982    1.4655 H   0  0  0  0  0  0  0  0  0  0  0  0
   -2.5669    3.2391    0.9594 H   0  0  0  0  0  0  0  0  0  0  0  0
  1  2  3  0
  2  3  1  0
  3  4  1  0
  4  5  1  0
  5  6  1  0
  5  7  1  0
  7  8  1  0
  8  9  3  0
  7  3  1  0
  1 10  1  0
  3 11  1  0
  4 12  1  0
  4 13  1  0
  5 14  1  0
  6 15  1  0
  7 16  1  0
  9 17  1  0
M  END
