
     RDKit          3D

 20 19  0  0  0  0  0  0  0  0999 V2000
   -1.9466    1.0721   -1.5723 C   0  0  0  0  0  0  0  0  0  0  0  0
   -1.2157    0.2948   -0.9401 C   0  0  0  0  0  0  0  0  0  0  0  0
   -0.5901   -0.3941   -0.3780 C   0  0  0  0  0  0  0  0  0  0  0  0
   -0.1088   -1.8028   -0.9173 C   0  0  0  0  0  0  0  0  0  0  0  0
   -0.8944   -0.7389    1.1521 C   0  0  0  0  0  0  0  0  0  0  0  0
    0.9667    0.1613   -0.1980 C   0  0  0  0  0  0  0  0  0  0  0  0
    1.1645    1.4056    0.4427 C   0  0  0  0  0  0  0  0  0  0  0  0
    0.9415    1.5374    1.8254 O   0  0  0  0  0  0  0  0  0  0  0  0
   -2.7328    1.9406   -2.2559 H   0  0  0  0  0  0  0  0  0  0  0  0
   -0.9434   -2.4367   -1.0500 H   0  0  0  0  0  0  0  0  0  0  0  0
    0.4388   -1.4713   -1.8341 H   0  0  0  0  0  0  0  0  0  0  0  0
    0.6263   -2.1558   -0.1066 H   0  0  0  0  0  0  0  0  0  0  0  0
   -2.0180   -0.7094    1.2125 H   0  0  0  0  0  0  0  0  0  0  0  0
   -0.4327   -0.0727    1.8481 H   0  0  0  0  0  0  0  0  0  0  0  0
   -0.6194   -1.8074    1.3035 H   0  0  0  0  0  0  0  0  0  0  0  0
    1.3276    0.0932   -1.2440 H   0  0  0  0  0  0  0  0  0  0  0  0
    1.4608   -0.7147    0.3207 H   0  0  0  0  0  0  0  0  0  0  0  0
    2.2111    1.8048    0.1639 H   0  0  0  0  0  0  0  0  0  0  0  0
    0.5162    2.2874    0.0185 H   0  0  0  0  0  0  0  0  0  0  0  0
    1.8484    1.7066    2.2088 H   0  0  0  0  0  0  0  0  0  0  0  0
  1  2  3  0
  2  3  1  0
  3  4  1  0
  3  5  1  0
  3  6  1  0
  6  7  1  0
  7  8  1  0
  1  9  1  0
  4 10  1  0
  4 11  1  0
  4 12  1  0
  5 13  1  0
  5 14  1  0
  5 15  1  0
  6 16  1  0
  6 17  1  0
  7 18  1  0
  7 19  1  0
  8 20  1  0
M  END
