
     RDKit          3D

 19 18  0  0  0  0  0  0  0  0999 V2000
    3.1443    0.0713   -0.7165 C   0  0  0  0  0  0  0  0  0  0  0  0
    2.0970   -0.3124   -0.2278 C   0  0  0  0  0  0  0  0  0  0  0  0
    0.8487   -0.7800    0.3822 C   0  0  0  0  0  0  0  0  0  0  0  0
    0.8828   -0.6235    1.7650 O   0  0  0  0  0  0  0  0  0  0  0  0
   -0.3115    0.0205   -0.2168 C   0  0  0  0  0  0  0  0  0  0  0  0
   -0.1249    1.4563    0.1502 C   0  0  0  0  0  0  0  0  0  0  0  0
   -0.2542   -0.2047   -1.5954 O   0  0  0  0  0  0  0  0  0  0  0  0
   -1.5771   -0.5800    0.3527 C   0  0  0  0  0  0  0  0  0  0  0  0
   -2.7177   -0.0127   -0.2342 O   0  0  0  0  0  0  0  0  0  0  0  0
    4.0536    0.4054   -1.1576 H   0  0  0  0  0  0  0  0  0  0  0  0
    0.6703   -1.8567    0.1887 H   0  0  0  0  0  0  0  0  0  0  0  0
    0.1132   -1.1278    2.1280 H   0  0  0  0  0  0  0  0  0  0  0  0
    0.9093    1.6324    0.5678 H   0  0  0  0  0  0  0  0  0  0  0  0
   -0.9039    1.7919    0.8526 H   0  0  0  0  0  0  0  0  0  0  0  0
   -0.1906    2.0820   -0.7547 H   0  0  0  0  0  0  0  0  0  0  0  0
   -0.3708    0.6448   -2.0828 H   0  0  0  0  0  0  0  0  0  0  0  0
   -1.6391   -0.3488    1.4295 H   0  0  0  0  0  0  0  0  0  0  0  0
   -1.5732   -1.6626    0.1278 H   0  0  0  0  0  0  0  0  0  0  0  0
   -3.0561   -0.5955   -0.9588 H   0  0  0  0  0  0  0  0  0  0  0  0
  1  2  3  0
  2  3  1  0
  3  4  1  0
  3  5  1  0
  5  6  1  0
  5  7  1  0
  5  8  1  0
  8  9  1  0
  1 10  1  0
  3 11  1  0
  4 12  1  0
  6 13  1  0
  6 14  1  0
  6 15  1  0
  7 16  1  0
  8 17  1  0
  8 18  1  0
  9 19  1  0
M  END
