
     RDKit          3D

 19 19  0  0  0  0  0  0  0  0999 V2000
    3.5130    0.0234   -1.8854 C   0  0  0  0  0  0  0  0  0  0  0  0
    2.5965   -0.0634   -1.1168 C   0  0  0  0  0  0  0  0  0  0  0  0
    1.4727   -0.1841   -0.1472 C   0  0  0  0  0  0  0  0  0  0  0  0
    0.3218    0.2380   -0.7539 O   0  0  0  0  0  0  0  0  0  0  0  0
   -0.7648    0.1702    0.0931 C   0  0  0  0  0  0  0  0  0  0  0  0
   -1.2272   -1.1132    0.7074 C   0  0  0  0  0  0  0  0  0  0  0  0
   -0.3287   -1.7591    1.5092 O   0  0  0  0  0  0  0  0  0  0  0  0
   -1.8978    1.1753   -0.1558 C   0  0  0  0  0  0  0  0  0  0  0  0
   -0.9443    1.4508    0.9221 C   0  0  0  0  0  0  0  0  0  0  0  0
    4.3256    0.0886   -2.5607 H   0  0  0  0  0  0  0  0  0  0  0  0
    1.4260   -1.2721    0.1008 H   0  0  0  0  0  0  0  0  0  0  0  0
    1.7552    0.4447    0.7111 H   0  0  0  0  0  0  0  0  0  0  0  0
   -1.4766   -1.8027   -0.1441 H   0  0  0  0  0  0  0  0  0  0  0  0
   -2.1703   -0.9093    1.2683 H   0  0  0  0  0  0  0  0  0  0  0  0
   -0.4278   -2.7389    1.4868 H   0  0  0  0  0  0  0  0  0  0  0  0
   -1.8351    1.7991   -1.0710 H   0  0  0  0  0  0  0  0  0  0  0  0
   -2.9221    0.8930    0.1322 H   0  0  0  0  0  0  0  0  0  0  0  0
   -1.1818    1.2733    1.9903 H   0  0  0  0  0  0  0  0  0  0  0  0
   -0.2343    2.2865    0.7684 H   0  0  0  0  0  0  0  0  0  0  0  0
  1  2  3  0
  2  3  1  0
  3  4  1  0
  4  5  1  0
  5  6  1  0
  6  7  1  0
  5  8  1  0
  8  9  1  0
  9  5  1  0
  1 10  1  0
  3 11  1  0
  3 12  1  0
  6 13  1  0
  6 14  1  0
  7 15  1  0
  8 16  1  0
  8 17  1  0
  9 18  1  0
  9 19  1  0
M  END
