
     RDKit          3D

 17 18  0  0  0  0  0  0  0  0999 V2000
    3.2028    0.9992   -0.6447 C   0  0  0  0  0  0  0  0  0  0  0  0
    2.1330    1.2309   -0.1368 C   0  0  0  0  0  0  0  0  0  0  0  0
    0.8214    1.5139    0.4650 C   0  0  0  0  0  0  0  0  0  0  0  0
   -0.2633    1.5915   -0.5230 O   0  0  0  0  0  0  0  0  0  0  0  0
   -0.2055    0.5309    0.3558 C   0  0  0  0  0  0  0  0  0  0  0  0
   -1.2852    0.3485    1.3642 C   0  0  0  0  0  0  0  0  0  0  0  0
   -1.9062   -0.7895    1.1111 C   0  0  0  0  0  0  0  0  0  0  0  0
   -1.3295   -1.4813   -0.0638 C   0  0  0  0  0  0  0  0  0  0  0  0
    0.0726   -0.8620   -0.1449 C   0  0  0  0  0  0  0  0  0  0  0  0
    4.1648    0.8082   -1.0908 H   0  0  0  0  0  0  0  0  0  0  0  0
    0.7557    2.2953    1.2426 H   0  0  0  0  0  0  0  0  0  0  0  0
   -1.4888    1.0741    2.1671 H   0  0  0  0  0  0  0  0  0  0  0  0
   -2.7358   -1.1488    1.7091 H   0  0  0  0  0  0  0  0  0  0  0  0
   -1.8968   -1.2421   -0.9973 H   0  0  0  0  0  0  0  0  0  0  0  0
   -1.2102   -2.5662    0.0890 H   0  0  0  0  0  0  0  0  0  0  0  0
    0.4806   -0.8990   -1.1604 H   0  0  0  0  0  0  0  0  0  0  0  0
    0.6902   -1.4037    0.5982 H   0  0  0  0  0  0  0  0  0  0  0  0
  1  2  3  0
  2  3  1  0
  3  4  1  0
  4  5  1  0
  5  6  1  0
  6  7  2  0
  7  8  1  0
  8  9  1  0
  5  3  1  0
  9  5  1  0
  1 10  1  0
  3 11  1  0
  6 12  1  0
  7 13  1  0
  8 14  1  0
  8 15  1  0
  9 16  1  0
  9 17  1  0
M  END
