
     RDKit          3D

 17 17  0  0  0  0  0  0  0  0999 V2000
    2.3377    1.6175   -1.1585 C   0  0  0  0  0  0  0  0  0  0  0  0
    1.2505    1.0883   -0.2829 C   0  0  0  0  0  0  0  0  0  0  0  0
    0.3616    0.6317    0.4423 C   0  0  0  0  0  0  0  0  0  0  0  0
    1.1420   -0.4178    1.3526 O   0  0  0  0  0  0  0  0  0  0  0  0
    0.0524   -0.8325   -0.6838 C   0  0  0  0  0  0  0  0  0  0  0  0
   -1.0191    0.1107   -1.0227 C   0  0  0  0  0  0  0  0  0  0  0  0
   -1.0622    0.2722    0.5243 C   0  0  0  0  0  0  0  0  0  0  0  0
   -1.4389   -0.9181    1.3878 C   0  0  0  0  0  0  0  0  0  0  0  0
   -1.0531   -0.8765    2.5732 O   0  0  0  0  0  0  0  0  0  0  0  0
    3.0443    1.9797   -1.7377 H   0  0  0  0  0  0  0  0  0  0  0  0
    1.7813   -0.7390    0.6849 H   0  0  0  0  0  0  0  0  0  0  0  0
    0.9661   -1.0110   -1.0798 H   0  0  0  0  0  0  0  0  0  0  0  0
   -0.3105   -1.5757    0.0722 H   0  0  0  0  0  0  0  0  0  0  0  0
   -0.4847    1.1846   -1.1945 H   0  0  0  0  0  0  0  0  0  0  0  0
   -1.8427    0.0395   -1.5690 H   0  0  0  0  0  0  0  0  0  0  0  0
   -1.7441    1.0973    0.7599 H   0  0  0  0  0  0  0  0  0  0  0  0
   -1.9806   -1.6509    0.9316 H   0  0  0  0  0  0  0  0  0  0  0  0
  1  2  3  0
  2  3  1  0
  3  4  1  0
  3  5  1  0
  5  6  1  0
  6  7  1  0
  7  8  1  0
  8  9  2  0
  7  3  1  0
  1 10  1  0
  4 11  1  0
  5 12  1  0
  5 13  1  0
  6 14  1  0
  6 15  1  0
  7 16  1  0
  8 17  1  0
M  END
