
     RDKit          3D

 21 21  0  0  0  0  0  0  0  0999 V2000
    0.3904    3.3117   -0.1463 C   0  0  0  0  0  0  0  0  0  0  0  0
    0.0722    2.1884    0.2202 C   0  0  0  0  0  0  0  0  0  0  0  0
   -0.3230    0.8391    0.6568 C   0  0  0  0  0  0  0  0  0  0  0  0
    0.4953    0.3468    1.6691 O   0  0  0  0  0  0  0  0  0  0  0  0
    0.9751   -0.6464    0.8535 C   0  0  0  0  0  0  0  0  0  0  0  0
    2.4560   -0.4945    0.5869 C   0  0  0  0  0  0  0  0  0  0  0  0
    0.0681   -0.2659   -0.2612 C   0  0  0  0  0  0  0  0  0  0  0  0
   -1.0547   -1.2613   -0.4621 C   0  0  0  0  0  0  0  0  0  0  0  0
   -2.2907   -0.6601   -1.0526 C   0  0  0  0  0  0  0  0  0  0  0  0
    0.6772    4.2764   -0.4686 H   0  0  0  0  0  0  0  0  0  0  0  0
   -1.4101    0.8503    0.9382 H   0  0  0  0  0  0  0  0  0  0  0  0
    0.7841   -1.6907    1.2046 H   0  0  0  0  0  0  0  0  0  0  0  0
    2.7351   -0.8973   -0.4128 H   0  0  0  0  0  0  0  0  0  0  0  0
    2.9958   -1.0705    1.3669 H   0  0  0  0  0  0  0  0  0  0  0  0
    2.7987    0.5427    0.6162 H   0  0  0  0  0  0  0  0  0  0  0  0
    0.5563    0.0357   -1.2137 H   0  0  0  0  0  0  0  0  0  0  0  0
   -1.3247   -1.6907    0.5356 H   0  0  0  0  0  0  0  0  0  0  0  0
   -0.7157   -2.1400   -1.0648 H   0  0  0  0  0  0  0  0  0  0  0  0
   -3.1700   -1.1936   -0.6202 H   0  0  0  0  0  0  0  0  0  0  0  0
   -2.3248   -0.7743   -2.1684 H   0  0  0  0  0  0  0  0  0  0  0  0
   -2.3905    0.3942   -0.7773 H   0  0  0  0  0  0  0  0  0  0  0  0
  1  2  3  0
  2  3  1  0
  3  4  1  0
  4  5  1  0
  5  6  1  0
  5  7  1  0
  7  8  1  0
  8  9  1  0
  7  3  1  0
  1 10  1  0
  3 11  1  0
  5 12  1  0
  6 13  1  0
  6 14  1  0
  6 15  1  0
  7 16  1  0
  8 17  1  0
  8 18  1  0
  9 19  1  0
  9 20  1  0
  9 21  1  0
M  END
