
     RDKit          3D

 17 18  0  0  0  0  0  0  0  0999 V2000
    3.0448    1.1530   -2.0264 C   0  0  0  0  0  0  0  0  0  0  0  0
    2.3728    0.7100   -1.0961 C   0  0  0  0  0  0  0  0  0  0  0  0
    1.5713    0.2013    0.0175 C   0  0  0  0  0  0  0  0  0  0  0  0
    0.1434    0.6979   -0.0771 C   0  0  0  0  0  0  0  0  0  0  0  0
   -0.4630    0.2814   -1.2715 O   0  0  0  0  0  0  0  0  0  0  0  0
   -1.5528   -0.1005   -0.5362 C   0  0  0  0  0  0  0  0  0  0  0  0
   -1.4635   -1.3196    0.2819 C   0  0  0  0  0  0  0  0  0  0  0  0
   -2.6514   -1.7153    0.8958 O   0  0  0  0  0  0  0  0  0  0  0  0
   -0.8441   -0.0622    0.7549 C   0  0  0  0  0  0  0  0  0  0  0  0
    3.6189    1.5173   -2.8338 H   0  0  0  0  0  0  0  0  0  0  0  0
    2.0429    0.4461    0.9726 H   0  0  0  0  0  0  0  0  0  0  0  0
    1.5264   -0.9168   -0.0438 H   0  0  0  0  0  0  0  0  0  0  0  0
    0.0797    1.7812    0.1425 H   0  0  0  0  0  0  0  0  0  0  0  0
   -2.5307    0.3863   -0.7000 H   0  0  0  0  0  0  0  0  0  0  0  0
   -0.8034   -2.1717    0.0185 H   0  0  0  0  0  0  0  0  0  0  0  0
   -2.8328   -1.2692    1.7390 H   0  0  0  0  0  0  0  0  0  0  0  0
   -1.2585    0.3808    1.6601 H   0  0  0  0  0  0  0  0  0  0  0  0
  1  2  3  0
  2  3  1  0
  3  4  1  0
  4  5  1  0
  5  6  1  0
  6  7  1  0
  7  8  1  0
  7  9  1  0
  9  4  1  0
  9  6  1  0
  1 10  1  0
  3 11  1  0
  3 12  1  0
  4 13  1  0
  6 14  1  0
  7 15  1  0
  8 16  1  0
  9 17  1  0
M  END
