
     RDKit          3D

 21 22  0  0  0  0  0  0  0  0999 V2000
    2.7957    0.9747   -0.7262 C   0  0  0  0  0  0  0  0  0  0  0  0
    1.8009    0.3496   -0.4468 C   0  0  0  0  0  0  0  0  0  0  0  0
    0.6057   -0.3876   -0.0901 C   0  0  0  0  0  0  0  0  0  0  0  0
    0.4492   -1.6742   -0.8689 C   0  0  0  0  0  0  0  0  0  0  0  0
    0.4872   -0.6644    1.4127 C   0  0  0  0  0  0  0  0  0  0  0  0
   -0.7633    0.1858    1.4055 C   0  0  0  0  0  0  0  0  0  0  0  0
   -1.8573   -0.3385    0.5314 C   0  0  0  0  0  0  0  0  0  0  0  0
   -0.6559    0.3909   -0.0314 C   0  0  0  0  0  0  0  0  0  0  0  0
   -0.8458    1.6818   -0.7294 C   0  0  0  0  0  0  0  0  0  0  0  0
    3.6723    1.5470   -0.9741 H   0  0  0  0  0  0  0  0  0  0  0  0
    1.3652   -1.8609   -1.4670 H   0  0  0  0  0  0  0  0  0  0  0  0
   -0.3765   -1.5054   -1.6060 H   0  0  0  0  0  0  0  0  0  0  0  0
    0.1678   -2.5250   -0.2207 H   0  0  0  0  0  0  0  0  0  0  0  0
    0.3327   -1.7344    1.6525 H   0  0  0  0  0  0  0  0  0  0  0  0
    1.3033   -0.1744    1.9820 H   0  0  0  0  0  0  0  0  0  0  0  0
   -0.9276    0.9561    2.1552 H   0  0  0  0  0  0  0  0  0  0  0  0
   -1.8692   -1.4093    0.2756 H   0  0  0  0  0  0  0  0  0  0  0  0
   -2.8203    0.1881    0.5745 H   0  0  0  0  0  0  0  0  0  0  0  0
   -0.6669    1.5119   -1.8263 H   0  0  0  0  0  0  0  0  0  0  0  0
   -0.2625    2.5254   -0.3594 H   0  0  0  0  0  0  0  0  0  0  0  0
   -1.9347    1.9628   -0.6429 H   0  0  0  0  0  0  0  0  0  0  0  0
  1  2  3  0
  2  3  1  0
  3  4  1  0
  3  5  1  0
  5  6  1  0
  6  7  1  0
  7  8  1  0
  8  9  1  0
  8  3  1  0
  8  6  1  0
  1 10  1  0
  4 11  1  0
  4 12  1  0
  4 13  1  0
  5 14  1  0
  5 15  1  0
  6 16  1  0
  7 17  1  0
  7 18  1  0
  9 19  1  0
  9 20  1  0
  9 21  1  0
M  END
