
     RDKit          3D

 15 16  0  0  0  0  0  0  0  0999 V2000
    3.1274    0.4321    0.6397 C   0  0  0  0  0  0  0  0  0  0  0  0
    2.0571    0.3451    0.0700 C   0  0  0  0  0  0  0  0  0  0  0  0
    0.7585    0.2157   -0.6117 C   0  0  0  0  0  0  0  0  0  0  0  0
   -0.1616   -0.7725    0.0443 C   0  0  0  0  0  0  0  0  0  0  0  0
   -1.4346   -1.0312   -0.6856 C   0  0  0  0  0  0  0  0  0  0  0  0
   -1.7610    0.4308   -0.5176 C   0  0  0  0  0  0  0  0  0  0  0  0
   -2.7719    1.0368   -0.8273 O   0  0  0  0  0  0  0  0  0  0  0  0
   -0.4380    0.6818    0.1088 C   0  0  0  0  0  0  0  0  0  0  0  0
   -0.3655    1.3777    1.2972 O   0  0  0  0  0  0  0  0  0  0  0  0
    4.0557    0.4946    1.1483 H   0  0  0  0  0  0  0  0  0  0  0  0
    0.7367    0.2645   -1.7071 H   0  0  0  0  0  0  0  0  0  0  0  0
    0.1529   -1.3505    0.9106 H   0  0  0  0  0  0  0  0  0  0  0  0
   -2.1581   -1.7102   -0.2007 H   0  0  0  0  0  0  0  0  0  0  0  0
   -1.2338   -1.2723   -1.7649 H   0  0  0  0  0  0  0  0  0  0  0  0
   -0.5636    0.8576    2.0960 H   0  0  0  0  0  0  0  0  0  0  0  0
  1  2  3  0
  2  3  1  0
  3  4  1  0
  4  5  1  0
  5  6  1  0
  6  7  2  0
  6  8  1  0
  8  9  1  0
  8  3  1  0
  8  4  1  0
  1 10  1  0
  3 11  1  0
  4 12  1  0
  5 13  1  0
  5 14  1  0
  9 15  1  0
M  END
