
     RDKit          3D

 23 22  0  0  0  0  0  0  0  0999 V2000
    3.6352    1.9601    1.2001 C   0  0  0  0  0  0  0  0  0  0  0  0
    2.8175    1.3259    0.6483 C   0  0  0  0  0  0  0  0  0  0  0  0
    1.6760    0.4190   -0.1034 C   0  0  0  0  0  0  0  0  0  0  0  0
    1.0802   -0.2993    1.1447 C   0  0  0  0  0  0  0  0  0  0  0  0
   -0.0622   -1.1715    0.8357 C   0  0  0  0  0  0  0  0  0  0  0  0
   -1.2225   -0.7749    0.3161 O   0  0  0  0  0  0  0  0  0  0  0  0
   -1.2619   -0.2516   -0.9423 C   0  0  0  0  0  0  0  0  0  0  0  0
   -1.9245   -1.2509   -1.8989 C   0  0  0  0  0  0  0  0  0  0  0  0
   -2.0098    1.0419   -0.9960 C   0  0  0  0  0  0  0  0  0  0  0  0
    4.3738    2.5210    1.7073 H   0  0  0  0  0  0  0  0  0  0  0  0
    2.0808   -0.1380   -0.7988 H   0  0  0  0  0  0  0  0  0  0  0  0
    0.9553    1.2931   -0.2726 H   0  0  0  0  0  0  0  0  0  0  0  0
    0.9547    0.3485    2.0210 H   0  0  0  0  0  0  0  0  0  0  0  0
    1.9667   -0.9718    1.4131 H   0  0  0  0  0  0  0  0  0  0  0  0
    0.3564   -2.0449    0.1799 H   0  0  0  0  0  0  0  0  0  0  0  0
   -0.3367   -1.6748    1.8317 H   0  0  0  0  0  0  0  0  0  0  0  0
   -0.2500   -0.1065   -1.3994 H   0  0  0  0  0  0  0  0  0  0  0  0
   -2.5169   -0.6430   -2.6425 H   0  0  0  0  0  0  0  0  0  0  0  0
   -2.5947   -1.9108   -1.3526 H   0  0  0  0  0  0  0  0  0  0  0  0
   -1.1853   -1.8389   -2.4767 H   0  0  0  0  0  0  0  0  0  0  0  0
   -2.6883    1.1537   -1.8779 H   0  0  0  0  0  0  0  0  0  0  0  0
   -1.2447    1.8805   -1.0264 H   0  0  0  0  0  0  0  0  0  0  0  0
   -2.5992    1.1333   -0.0247 H   0  0  0  0  0  0  0  0  0  0  0  0
  1  2  3  0
  2  3  1  0
  3  4  1  0
  4  5  1  0
  5  6  1  0
  6  7  1  0
  7  8  1  0
  7  9  1  0
  1 10  1  0
  3 11  1  0
  3 12  1  0
  4 13  1  0
  4 14  1  0
  5 15  1  0
  5 16  1  0
  7 17  1  0
  8 18  1  0
  8 19  1  0
  8 20  1  0
  9 21  1  0
  9 22  1  0
  9 23  1  0
M  END
