
     RDKit          3D

 16 16  0  0  0  0  0  0  0  0999 V2000
    2.3770    1.1245    0.2545 C   0  0  0  0  0  0  0  0  0  0  0  0
    1.5644    0.3618    0.5917 C   0  0  0  0  0  0  0  0  0  0  0  0
    0.5527   -0.5609    0.9920 C   0  0  0  0  0  0  0  0  0  0  0  0
   -0.6737    0.6820    0.7387 C   0  0  0  0  0  0  0  0  0  0  0  0
   -1.2538   -0.2372   -0.2697 C   0  0  0  0  0  0  0  0  0  0  0  0
   -2.1460   -1.1239    0.3960 O   0  0  0  0  0  0  0  0  0  0  0  0
    0.0781   -1.0864   -0.2668 C   0  0  0  0  0  0  0  0  0  0  0  0
    0.9004   -0.3558   -1.2803 O   0  0  0  0  0  0  0  0  0  0  0  0
    3.4754    2.1893   -0.2098 H   0  0  0  0  0  0  0  0  0  0  0  0
    0.5418   -0.7660    1.9694 H   0  0  0  0  0  0  0  0  0  0  0  0
   -0.2078    1.7159    0.5030 H   0  0  0  0  0  0  0  0  0  0  0  0
   -1.3668    0.7950    1.6995 H   0  0  0  0  0  0  0  0  0  0  0  0
   -1.4953    0.0266   -1.2626 H   0  0  0  0  0  0  0  0  0  0  0  0
   -2.9256   -1.3116   -0.2453 H   0  0  0  0  0  0  0  0  0  0  0  0
   -0.0172   -2.1321   -0.2869 H   0  0  0  0  0  0  0  0  0  0  0  0
    0.5965    0.6788   -1.0789 H   0  0  0  0  0  0  0  0  0  0  0  0
  1  2  3  0
  2  3  1  0
  3  4  1  0
  4  5  1  0
  5  6  1  0
  5  7  1  0
  7  8  1  0
  7  3  1  0
  1  9  1  0
  3 10  1  0
  4 11  1  0
  4 12  1  0
  5 13  1  0
  6 14  1  0
  7 15  1  0
  8 16  1  0
M  END
