
     RDKit          3D

 15 16  0  0  0  0  0  0  0  0999 V2000
    2.7559   -0.1864   -1.4773 C   0  0  0  0  0  0  0  0  0  0  0  0
    1.6747   -0.4463   -0.9913 C   0  0  0  0  0  0  0  0  0  0  0  0
    0.3421   -0.7770   -0.4173 C   0  0  0  0  0  0  0  0  0  0  0  0
    0.1409   -2.1810   -0.4799 O   0  0  0  0  0  0  0  0  0  0  0  0
   -0.0606   -0.0201    0.7107 C   0  0  0  0  0  0  0  0  0  0  0  0
   -0.7651    1.3474    0.7212 C   0  0  0  0  0  0  0  0  0  0  0  0
   -1.8928    0.4542    0.2427 C   0  0  0  0  0  0  0  0  0  0  0  0
   -3.0303    0.2786    0.5462 O   0  0  0  0  0  0  0  0  0  0  0  0
   -0.8061    0.0260   -0.6930 C   0  0  0  0  0  0  0  0  0  0  0  0
    3.6881    0.0472   -1.9141 H   0  0  0  0  0  0  0  0  0  0  0  0
    0.4519   -2.5967    0.3742 H   0  0  0  0  0  0  0  0  0  0  0  0
   -0.6111   -0.6411    1.4904 H   0  0  0  0  0  0  0  0  0  0  0  0
   -0.9800    1.7260    1.7054 H   0  0  0  0  0  0  0  0  0  0  0  0
   -0.3568    2.0189   -0.0351 H   0  0  0  0  0  0  0  0  0  0  0  0
   -0.5508    0.9502   -1.3067 H   0  0  0  0  0  0  0  0  0  0  0  0
  1  2  3  0
  2  3  1  0
  3  4  1  0
  3  5  1  0
  5  6  1  0
  6  7  1  0
  7  8  2  0
  7  9  1  0
  9  3  1  0
  9  5  1  0
  1 10  1  0
  4 11  1  0
  5 12  1  0
  6 13  1  0
  6 14  1  0
  9 15  1  0
M  END
