
     RDKit          3D

 12 11  0  0  0  0  0  0  0  0999 V2000
    2.4207   -0.8880   -0.0525 C   0  0  0  0  0  0  0  0  0  0  0  0
    1.2739   -0.6473   -0.3493 C   0  0  0  0  0  0  0  0  0  0  0  0
   -0.1209   -0.3437   -0.6876 C   0  0  0  0  0  0  0  0  0  0  0  0
   -0.1770    0.8975   -1.2747 O   0  0  0  0  0  0  0  0  0  0  0  0
   -0.8913   -0.3244    0.5970 C   0  0  0  0  0  0  0  0  0  0  0  0
   -0.9832   -1.3576    1.3189 O   0  0  0  0  0  0  0  0  0  0  0  0
   -1.5476    0.9029    1.0268 C   0  0  0  0  0  0  0  0  0  0  0  0
   -1.4643    1.9387    0.3181 O   0  0  0  0  0  0  0  0  0  0  0  0
    3.4453   -1.0898    0.2034 H   0  0  0  0  0  0  0  0  0  0  0  0
   -0.5404   -1.1508   -1.3420 H   0  0  0  0  0  0  0  0  0  0  0  0
    0.6903    1.1333   -1.7084 H   0  0  0  0  0  0  0  0  0  0  0  0
   -2.1055    0.9290    1.9503 H   0  0  0  0  0  0  0  0  0  0  0  0
  1  2  3  0
  2  3  1  0
  3  4  1  0
  3  5  1  0
  5  6  2  0
  5  7  1  0
  7  8  2  0
  1  9  1  0
  3 10  1  0
  4 11  1  0
  7 12  1  0
M  END
