
     RDKit          3D

 19 20  0  0  0  0  0  0  0  0999 V2000
    2.9986   -0.2512    0.9608 C   0  0  0  0  0  0  0  0  0  0  0  0
    1.8802    0.1818    0.7942 C   0  0  0  0  0  0  0  0  0  0  0  0
    0.5316    0.7160    0.6157 C   0  0  0  0  0  0  0  0  0  0  0  0
    0.3738    1.3334   -0.7342 C   0  0  0  0  0  0  0  0  0  0  0  0
   -0.0191    0.3816   -1.6423 O   0  0  0  0  0  0  0  0  0  0  0  0
   -0.9721   -0.4880   -1.1824 C   0  0  0  0  0  0  0  0  0  0  0  0
   -1.7465    0.0747    0.0185 C   0  0  0  0  0  0  0  0  0  0  0  0
   -0.5217   -0.3165    0.8336 C   0  0  0  0  0  0  0  0  0  0  0  0
   -0.3859   -1.4770   -0.1616 C   0  0  0  0  0  0  0  0  0  0  0  0
    3.9717   -0.6091    1.0998 H   0  0  0  0  0  0  0  0  0  0  0  0
    0.3673    1.5298    1.3684 H   0  0  0  0  0  0  0  0  0  0  0  0
    1.3169    1.8604   -1.0621 H   0  0  0  0  0  0  0  0  0  0  0  0
   -0.3953    2.1604   -0.7574 H   0  0  0  0  0  0  0  0  0  0  0  0
   -1.6143   -0.9524   -1.9436 H   0  0  0  0  0  0  0  0  0  0  0  0
   -1.9889    1.1303   -0.0252 H   0  0  0  0  0  0  0  0  0  0  0  0
   -2.5700   -0.6270    0.2606 H   0  0  0  0  0  0  0  0  0  0  0  0
   -0.7287   -0.6248    1.8670 H   0  0  0  0  0  0  0  0  0  0  0  0
   -1.1356   -2.2366    0.0602 H   0  0  0  0  0  0  0  0  0  0  0  0
    0.6380   -1.7860   -0.3699 H   0  0  0  0  0  0  0  0  0  0  0  0
  1  2  3  0
  2  3  1  0
  3  4  1  0
  4  5  1  0
  5  6  1  0
  6  7  1  0
  7  8  1  0
  8  9  1  0
  8  3  1  0
  9  6  1  0
  1 10  1  0
  3 11  1  0
  4 12  1  0
  4 13  1  0
  6 14  1  0
  7 15  1  0
  7 16  1  0
  8 17  1  0
  9 18  1  0
  9 19  1  0
M  END
