
     RDKit          3D

 10  9  0  0  0  0  0  0  0  0999 V2000
    2.6470   -1.3312    0.8105 C   0  0  0  0  0  0  0  0  0  0  0  0
    1.6845   -0.8249    0.2830 C   0  0  0  0  0  0  0  0  0  0  0  0
    0.5335   -0.2450   -0.3527 C   0  0  0  0  0  0  0  0  0  0  0  0
    0.5360    0.1574   -1.5225 O   0  0  0  0  0  0  0  0  0  0  0  0
   -0.6391   -0.1316    0.3845 O   0  0  0  0  0  0  0  0  0  0  0  0
   -1.8145    0.4181   -0.1416 C   0  0  0  0  0  0  0  0  0  0  0  0
    3.4961   -1.7949    1.2681 H   0  0  0  0  0  0  0  0  0  0  0  0
   -1.6966    0.7015   -1.1938 H   0  0  0  0  0  0  0  0  0  0  0  0
   -2.6363   -0.3351   -0.0578 H   0  0  0  0  0  0  0  0  0  0  0  0
   -2.1107    1.2594    0.5222 H   0  0  0  0  0  0  0  0  0  0  0  0
  1  2  3  0
  2  3  1  0
  3  4  2  0
  3  5  1  0
  5  6  1  0
  1  7  1  0
  6  8  1  0
  6  9  1  0
  6 10  1  0
M  END
