
     RDKit          3D

 17 17  0  0  0  0  0  0  0  0999 V2000
    3.0372   -0.3731   -0.2212 C   0  0  0  0  0  0  0  0  0  0  0  0
    1.9258    0.0191    0.0138 C   0  0  0  0  0  0  0  0  0  0  0  0
    0.5807    0.5012    0.2902 C   0  0  0  0  0  0  0  0  0  0  0  0
   -0.0092    1.3945   -0.7973 C   0  0  0  0  0  0  0  0  0  0  0  0
   -1.3384    0.6952   -0.4807 C   0  0  0  0  0  0  0  0  0  0  0  0
   -0.5102   -0.5037   -0.1018 C   0  0  0  0  0  0  0  0  0  0  0  0
   -1.0197   -1.3466    1.0120 C   0  0  0  0  0  0  0  0  0  0  0  0
    3.9945   -0.7209   -0.4334 H   0  0  0  0  0  0  0  0  0  0  0  0
    0.4708    0.9151    1.3061 H   0  0  0  0  0  0  0  0  0  0  0  0
    0.0061    2.4607   -0.5852 H   0  0  0  0  0  0  0  0  0  0  0  0
    0.4121    1.0719   -1.7721 H   0  0  0  0  0  0  0  0  0  0  0  0
   -1.8226    1.2185    0.3418 H   0  0  0  0  0  0  0  0  0  0  0  0
   -1.9139    0.5287   -1.3972 H   0  0  0  0  0  0  0  0  0  0  0  0
   -0.1940   -1.0714   -0.9824 H   0  0  0  0  0  0  0  0  0  0  0  0
   -0.8265   -0.9594    2.0156 H   0  0  0  0  0  0  0  0  0  0  0  0
   -0.6538   -2.4050    0.9080 H   0  0  0  0  0  0  0  0  0  0  0  0
   -2.1390   -1.4248    0.8839 H   0  0  0  0  0  0  0  0  0  0  0  0
  1  2  3  0
  2  3  1  0
  3  4  1  0
  4  5  1  0
  5  6  1  0
  6  7  1  0
  6  3  1  0
  1  8  1  0
  3  9  1  0
  4 10  1  0
  4 11  1  0
  5 12  1  0
  5 13  1  0
  6 14  1  0
  7 15  1  0
  7 16  1  0
  7 17  1  0
M  END
