
     RDKit          3D

 19 20  0  0  0  0  0  0  0  0999 V2000
    3.3750   -0.4235   -0.1549 C   0  0  0  0  0  0  0  0  0  0  0  0
    2.1856   -0.5337   -0.3886 C   0  0  0  0  0  0  0  0  0  0  0  0
    0.7577   -0.6562   -0.6867 C   0  0  0  0  0  0  0  0  0  0  0  0
   -0.1325   -0.7051    0.5338 C   0  0  0  0  0  0  0  0  0  0  0  0
   -1.5426   -1.2508    0.3041 C   0  0  0  0  0  0  0  0  0  0  0  0
   -2.2733    0.0573   -0.0117 C   0  0  0  0  0  0  0  0  0  0  0  0
   -1.3538    0.6732   -0.8608 O   0  0  0  0  0  0  0  0  0  0  0  0
   -0.1002    0.4867   -0.3285 C   0  0  0  0  0  0  0  0  0  0  0  0
    0.5971    1.7541    0.0953 C   0  0  0  0  0  0  0  0  0  0  0  0
    4.4208   -0.3419    0.0396 H   0  0  0  0  0  0  0  0  0  0  0  0
    0.4766   -1.3817   -1.4929 H   0  0  0  0  0  0  0  0  0  0  0  0
    0.2997   -0.7367    1.5356 H   0  0  0  0  0  0  0  0  0  0  0  0
   -1.9446   -1.7513    1.1879 H   0  0  0  0  0  0  0  0  0  0  0  0
   -1.5131   -1.9179   -0.5733 H   0  0  0  0  0  0  0  0  0  0  0  0
   -3.2010   -0.1210   -0.5608 H   0  0  0  0  0  0  0  0  0  0  0  0
   -2.4093    0.5926    0.9363 H   0  0  0  0  0  0  0  0  0  0  0  0
    1.5096    1.5161    0.6539 H   0  0  0  0  0  0  0  0  0  0  0  0
   -0.0753    2.4583    0.6157 H   0  0  0  0  0  0  0  0  0  0  0  0
    0.9236    2.2816   -0.8439 H   0  0  0  0  0  0  0  0  0  0  0  0
  1  2  3  0
  2  3  1  0
  3  4  1  0
  4  5  1  0
  5  6  1  0
  6  7  1  0
  7  8  1  0
  8  9  1  0
  8  3  1  0
  8  4  1  0
  1 10  1  0
  3 11  1  0
  4 12  1  0
  5 13  1  0
  5 14  1  0
  6 15  1  0
  6 16  1  0
  9 17  1  0
  9 18  1  0
  9 19  1  0
M  END
