
     RDKit          3D

 21 21  0  0  0  0  0  0  0  0999 V2000
    2.7367    0.8727   -0.1077 C   0  0  0  0  0  0  0  0  0  0  0  0
    1.7231    0.2539   -0.1601 C   0  0  0  0  0  0  0  0  0  0  0  0
    0.4898   -0.4945   -0.1989 C   0  0  0  0  0  0  0  0  0  0  0  0
    0.2271   -1.1806   -1.5029 C   0  0  0  0  0  0  0  0  0  0  0  0
    0.2634   -1.4312    0.9699 C   0  0  0  0  0  0  0  0  0  0  0  0
   -0.9730   -0.8332    1.2293 O   0  0  0  0  0  0  0  0  0  0  0  0
   -0.6653    0.2437    0.4107 C   0  0  0  0  0  0  0  0  0  0  0  0
   -1.8092    0.5097   -0.5614 C   0  0  0  0  0  0  0  0  0  0  0  0
   -0.3541    1.4662    1.1947 C   0  0  0  0  0  0  0  0  0  0  0  0
    3.6557    1.4368   -0.0781 H   0  0  0  0  0  0  0  0  0  0  0  0
    0.0574   -0.4666   -2.3466 H   0  0  0  0  0  0  0  0  0  0  0  0
    1.1653   -1.7386   -1.7668 H   0  0  0  0  0  0  0  0  0  0  0  0
   -0.5860   -1.9128   -1.4533 H   0  0  0  0  0  0  0  0  0  0  0  0
    0.1377   -2.4959    0.7049 H   0  0  0  0  0  0  0  0  0  0  0  0
    1.0011   -1.3433    1.7957 H   0  0  0  0  0  0  0  0  0  0  0  0
   -2.7192    0.7346    0.0130 H   0  0  0  0  0  0  0  0  0  0  0  0
   -1.5562    1.3691   -1.2354 H   0  0  0  0  0  0  0  0  0  0  0  0
   -1.9001   -0.3677   -1.2305 H   0  0  0  0  0  0  0  0  0  0  0  0
    0.7364    1.6079    1.3856 H   0  0  0  0  0  0  0  0  0  0  0  0
   -0.8021    2.3937    0.7441 H   0  0  0  0  0  0  0  0  0  0  0  0
   -0.8285    1.3760    2.1940 H   0  0  0  0  0  0  0  0  0  0  0  0
  1  2  3  0
  2  3  1  0
  3  4  1  0
  3  5  1  0
  5  6  1  0
  6  7  1  0
  7  8  1  0
  7  9  1  0
  7  3  1  0
  1 10  1  0
  4 11  1  0
  4 12  1  0
  4 13  1  0
  5 14  1  0
  5 15  1  0
  8 16  1  0
  8 17  1  0
  8 18  1  0
  9 19  1  0
  9 20  1  0
  9 21  1  0
M  END
