
     RDKit          3D

 17 17  0  0  0  0  0  0  0  0999 V2000
   -2.1332    2.2734    1.4037 C   0  0  0  0  0  0  0  0  0  0  0  0
   -1.7024    1.4848    0.6709 C   0  0  0  0  0  0  0  0  0  0  0  0
   -1.1686    0.4714   -0.2882 C   0  0  0  0  0  0  0  0  0  0  0  0
   -1.2669   -0.8513    0.3304 C   0  0  0  0  0  0  0  0  0  0  0  0
   -0.1743   -1.5470    0.0584 C   0  0  0  0  0  0  0  0  0  0  0  0
    0.7641   -0.7564   -0.7687 C   0  0  0  0  0  0  0  0  0  0  0  0
    2.1526   -0.8921   -0.2745 C   0  0  0  0  0  0  0  0  0  0  0  0
    3.2817   -0.9874    0.1425 C   0  0  0  0  0  0  0  0  0  0  0  0
    0.3196    0.6592   -0.4624 C   0  0  0  0  0  0  0  0  0  0  0  0
   -2.5224    2.9914    2.0717 H   0  0  0  0  0  0  0  0  0  0  0  0
   -1.7325    0.5412   -1.2385 H   0  0  0  0  0  0  0  0  0  0  0  0
   -2.0910   -1.2237    0.9200 H   0  0  0  0  0  0  0  0  0  0  0  0
    0.0633   -2.5789    0.3764 H   0  0  0  0  0  0  0  0  0  0  0  0
    0.6982   -0.9140   -1.8405 H   0  0  0  0  0  0  0  0  0  0  0  0
    4.2745   -1.0561    0.4974 H   0  0  0  0  0  0  0  0  0  0  0  0
    0.7256    1.0465    0.4824 H   0  0  0  0  0  0  0  0  0  0  0  0
    0.5117    1.3391   -1.3142 H   0  0  0  0  0  0  0  0  0  0  0  0
  1  2  3  0
  2  3  1  0
  3  4  1  0
  4  5  2  0
  5  6  1  0
  6  7  1  0
  7  8  3  0
  6  9  1  0
  9  3  1  0
  1 10  1  0
  3 11  1  0
  4 12  1  0
  5 13  1  0
  6 14  1  0
  8 15  1  0
  9 16  1  0
  9 17  1  0
M  END
