
     RDKit          3D

 19 20  0  0  0  0  0  0  0  0999 V2000
    3.1943   -1.4835    0.6069 C   0  0  0  0  0  0  0  0  0  0  0  0
    2.1450   -1.1932   -0.0793 C   0  0  0  0  0  0  0  0  0  0  0  0
    0.9020   -0.8627   -0.8736 C   0  0  0  0  0  0  0  0  0  0  0  0
    0.8774    0.6151   -0.7918 O   0  0  0  0  0  0  0  0  0  0  0  0
   -0.3864    0.7950   -0.3296 C   0  0  0  0  0  0  0  0  0  0  0  0
   -1.0149    2.1372   -0.2850 C   0  0  0  0  0  0  0  0  0  0  0  0
   -1.2431   -0.2423   -1.1116 C   0  0  0  0  0  0  0  0  0  0  0  0
   -0.3358   -1.1958   -0.2877 C   0  0  0  0  0  0  0  0  0  0  0  0
   -0.5255   -0.1474    0.8251 C   0  0  0  0  0  0  0  0  0  0  0  0
    4.0096   -1.6954    1.1248 H   0  0  0  0  0  0  0  0  0  0  0  0
    1.0926   -0.9860   -1.9521 H   0  0  0  0  0  0  0  0  0  0  0  0
   -1.6431    2.2116    0.5996 H   0  0  0  0  0  0  0  0  0  0  0  0
   -1.6303    2.2277   -1.2111 H   0  0  0  0  0  0  0  0  0  0  0  0
   -0.1599    2.8721   -0.3171 H   0  0  0  0  0  0  0  0  0  0  0  0
   -2.2614   -0.2277   -0.7781 H   0  0  0  0  0  0  0  0  0  0  0  0
   -0.9928   -0.2110   -2.1941 H   0  0  0  0  0  0  0  0  0  0  0  0
   -0.7440   -2.1606   -0.0916 H   0  0  0  0  0  0  0  0  0  0  0  0
    0.2776   -0.1918    1.5541 H   0  0  0  0  0  0  0  0  0  0  0  0
   -1.5613   -0.2613    1.2483 H   0  0  0  0  0  0  0  0  0  0  0  0
  1  2  3  0
  2  3  1  0
  3  4  1  0
  4  5  1  0
  5  6  1  0
  5  7  1  0
  7  8  1  0
  8  9  1  0
  8  3  1  0
  9  5  1  0
  1 10  1  0
  3 11  1  0
  6 12  1  0
  6 13  1  0
  6 14  1  0
  7 15  1  0
  7 16  1  0
  8 17  1  0
  9 18  1  0
  9 19  1  0
M  END
