
     RDKit          3D

 21 22  0  0  0  0  0  0  0  0999 V2000
    2.5769   -1.5222   -1.0679 C   0  0  0  0  0  0  0  0  0  0  0  0
    1.7588   -0.8814   -0.4809 C   0  0  0  0  0  0  0  0  0  0  0  0
    0.7657   -0.0764    0.2253 C   0  0  0  0  0  0  0  0  0  0  0  0
    0.3124   -0.4645    1.5960 C   0  0  0  0  0  0  0  0  0  0  0  0
   -1.0912   -0.6173    1.0631 C   0  0  0  0  0  0  0  0  0  0  0  0
   -0.6142   -0.1371   -0.2810 C   0  0  0  0  0  0  0  0  0  0  0  0
   -0.9856   -0.8831   -1.5214 C   0  0  0  0  0  0  0  0  0  0  0  0
    0.1755    1.1127   -0.4035 C   0  0  0  0  0  0  0  0  0  0  0  0
   -0.2145    2.3216    0.4284 C   0  0  0  0  0  0  0  0  0  0  0  0
    3.3281   -2.0915   -1.5872 H   0  0  0  0  0  0  0  0  0  0  0  0
    0.3570    0.3040    2.3806 H   0  0  0  0  0  0  0  0  0  0  0  0
    0.7790   -1.4114    1.9518 H   0  0  0  0  0  0  0  0  0  0  0  0
   -1.3803   -1.6877    1.0661 H   0  0  0  0  0  0  0  0  0  0  0  0
   -1.8345    0.0599    1.5460 H   0  0  0  0  0  0  0  0  0  0  0  0
   -1.9743   -1.3809   -1.3257 H   0  0  0  0  0  0  0  0  0  0  0  0
   -0.2898   -1.7051   -1.7751 H   0  0  0  0  0  0  0  0  0  0  0  0
   -1.1467   -0.1762   -2.3462 H   0  0  0  0  0  0  0  0  0  0  0  0
    0.5128    1.3624   -1.4203 H   0  0  0  0  0  0  0  0  0  0  0  0
    0.6343    2.9556    0.6951 H   0  0  0  0  0  0  0  0  0  0  0  0
   -0.7201    1.9582    1.3656 H   0  0  0  0  0  0  0  0  0  0  0  0
   -0.9492    2.9604   -0.1088 H   0  0  0  0  0  0  0  0  0  0  0  0
  1  2  3  0
  2  3  1  0
  3  4  1  0
  4  5  1  0
  5  6  1  0
  6  7  1  0
  6  8  1  0
  8  9  1  0
  6  3  1  0
  8  3  1  0
  1 10  1  0
  4 11  1  0
  4 12  1  0
  5 13  1  0
  5 14  1  0
  7 15  1  0
  7 16  1  0
  7 17  1  0
  8 18  1  0
  9 19  1  0
  9 20  1  0
  9 21  1  0
M  END
