
     RDKit          3D

 21 22  0  0  0  0  0  0  0  0999 V2000
   -1.3147    2.7513    0.1107 C   0  0  0  0  0  0  0  0  0  0  0  0
   -0.7380    1.6910   -0.0212 C   0  0  0  0  0  0  0  0  0  0  0  0
   -0.0584    0.4115   -0.1585 C   0  0  0  0  0  0  0  0  0  0  0  0
    1.4324    0.4658   -0.1089 C   0  0  0  0  0  0  0  0  0  0  0  0
    2.1306   -0.8726   -0.2530 C   0  0  0  0  0  0  0  0  0  0  0  0
    2.2343   -0.0828    0.9800 C   0  0  0  0  0  0  0  0  0  0  0  0
   -0.5957   -0.5619   -1.2180 C   0  0  0  0  0  0  0  0  0  0  0  0
   -0.8299   -0.7801    0.2371 C   0  0  0  0  0  0  0  0  0  0  0  0
   -2.2804   -0.5734    0.6578 C   0  0  0  0  0  0  0  0  0  0  0  0
   -1.8273    3.6603    0.2159 H   0  0  0  0  0  0  0  0  0  0  0  0
    1.8832    1.2615   -0.7560 H   0  0  0  0  0  0  0  0  0  0  0  0
    1.4964   -1.7911   -0.2292 H   0  0  0  0  0  0  0  0  0  0  0  0
    2.9659   -0.9661   -0.9763 H   0  0  0  0  0  0  0  0  0  0  0  0
    1.7970   -0.4511    1.9305 H   0  0  0  0  0  0  0  0  0  0  0  0
    3.2332    0.4068    1.1496 H   0  0  0  0  0  0  0  0  0  0  0  0
   -1.3690   -0.1266   -1.8687 H   0  0  0  0  0  0  0  0  0  0  0  0
    0.1122   -1.2659   -1.6861 H   0  0  0  0  0  0  0  0  0  0  0  0
   -0.3743   -1.6537    0.7378 H   0  0  0  0  0  0  0  0  0  0  0  0
   -2.8912   -1.3938    0.2057 H   0  0  0  0  0  0  0  0  0  0  0  0
   -2.3975   -0.4906    1.7435 H   0  0  0  0  0  0  0  0  0  0  0  0
   -2.6086    0.3615    0.1375 H   0  0  0  0  0  0  0  0  0  0  0  0
  1  2  3  0
  2  3  1  0
  3  4  1  0
  4  5  1  0
  5  6  1  0
  3  7  1  0
  7  8  1  0
  8  9  1  0
  8  3  1  0
  6  4  1  0
  1 10  1  0
  4 11  1  0
  5 12  1  0
  5 13  1  0
  6 14  1  0
  6 15  1  0
  7 16  1  0
  7 17  1  0
  8 18  1  0
  9 19  1  0
  9 20  1  0
  9 21  1  0
M  END
