
     RDKit          3D

 19 20  0  0  0  0  0  0  0  0999 V2000
    2.0647   -0.6295   -2.7706 C   0  0  0  0  0  0  0  0  0  0  0  0
    1.4209   -0.3841   -1.9160 C   0  0  0  0  0  0  0  0  0  0  0  0
    0.6641   -0.0845   -0.9277 C   0  0  0  0  0  0  0  0  0  0  0  0
    0.3747    1.2029   -0.5317 C   0  0  0  0  0  0  0  0  0  0  0  0
   -0.4607    1.5661    0.6082 C   0  0  0  0  0  0  0  0  0  0  0  0
   -0.1512    0.5452    1.6956 C   0  0  0  0  0  0  0  0  0  0  0  0
   -0.4917   -0.8323    1.2266 C   0  0  0  0  0  0  0  0  0  0  0  0
   -1.4857   -0.9937    0.1342 C   0  0  0  0  0  0  0  0  0  0  0  0
   -0.0253   -1.1511   -0.0884 C   0  0  0  0  0  0  0  0  0  0  0  0
    2.8611   -0.9518   -3.8610 H   0  0  0  0  0  0  0  0  0  0  0  0
    0.8060    1.9523   -1.2028 H   0  0  0  0  0  0  0  0  0  0  0  0
   -0.0453    2.5350    1.0151 H   0  0  0  0  0  0  0  0  0  0  0  0
   -1.4932    1.7344    0.4438 H   0  0  0  0  0  0  0  0  0  0  0  0
    0.9106    0.5873    1.9278 H   0  0  0  0  0  0  0  0  0  0  0  0
   -0.7369    0.8268    2.6101 H   0  0  0  0  0  0  0  0  0  0  0  0
   -0.5090   -1.5958    2.0362 H   0  0  0  0  0  0  0  0  0  0  0  0
   -2.0310   -1.9832    0.1617 H   0  0  0  0  0  0  0  0  0  0  0  0
   -2.0465   -0.1735   -0.2861 H   0  0  0  0  0  0  0  0  0  0  0  0
    0.3744   -2.1703   -0.2753 H   0  0  0  0  0  0  0  0  0  0  0  0
  1  2  3  0
  2  3  1  0
  3  4  2  0
  4  5  1  0
  5  6  1  0
  6  7  1  0
  7  8  1  0
  8  9  1  0
  9  3  1  0
  9  7  1  0
  1 10  1  0
  4 11  1  0
  5 12  1  0
  5 13  1  0
  6 14  1  0
  6 15  1  0
  7 16  1  0
  8 17  1  0
  8 18  1  0
  9 19  1  0
M  END
