
     RDKit          3D

 17 17  0  0  0  0  0  0  0  0999 V2000
    1.9819    2.6311    0.7396 C   0  0  0  0  0  0  0  0  0  0  0  0
    1.2469    1.4555    1.1345 C   0  0  0  0  0  0  0  0  0  0  0  0
    0.8221    0.7926    1.3479 C   0  0  0  0  0  0  0  0  0  0  0  0
   -0.5852    0.1407    1.0237 C   0  0  0  0  0  0  0  0  0  0  0  0
    0.0519   -0.1365   -0.2324 C   0  0  0  0  0  0  0  0  0  0  0  0
   -0.5403   -1.3653   -0.9338 C   0  0  0  0  0  0  0  0  0  0  0  0
   -1.7492   -1.4961   -1.4000 C   0  0  0  0  0  0  0  0  0  0  0  0
   -2.6393   -0.6363   -1.6604 O   0  0  0  0  0  0  0  0  0  0  0  0
    1.2505   -0.5369    0.4463 O   0  0  0  0  0  0  0  0  0  0  0  0
    2.8645    4.0799    0.2298 H   0  0  0  0  0  0  0  0  0  0  0  0
    1.2747    0.1090    2.3797 H   0  0  0  0  0  0  0  0  0  0  0  0
   -1.2918    1.0925    0.9293 H   0  0  0  0  0  0  0  0  0  0  0  0
   -0.9047   -0.5066    1.8159 H   0  0  0  0  0  0  0  0  0  0  0  0
    0.2999    0.6803   -0.9889 H   0  0  0  0  0  0  0  0  0  0  0  0
   -0.1419   -2.2715   -0.3752 H   0  0  0  0  0  0  0  0  0  0  0  0
    0.2807   -1.4906   -1.8421 H   0  0  0  0  0  0  0  0  0  0  0  0
   -2.2209   -2.5418   -1.6715 H   0  0  0  0  0  0  0  0  0  0  0  0
  1  2  3  0
  2  3  1  0
  3  4  1  0
  4  5  1  0
  5  6  1  0
  6  7  1  0
  7  8  2  0
  5  9  1  0
  9  3  1  0
  1 10  1  0
  3 11  1  0
  4 12  1  0
  4 13  1  0
  5 14  1  0
  6 15  1  0
  6 16  1  0
  7 17  1  0
M  END
