
     RDKit          3D

 21 20  0  0  0  0  0  0  0  0999 V2000
    2.1532    1.9835    0.2724 C   0  0  0  0  0  0  0  0  0  0  0  0
    1.4541    0.9997    0.2837 C   0  0  0  0  0  0  0  0  0  0  0  0
    0.6174   -0.1836    0.3018 C   0  0  0  0  0  0  0  0  0  0  0  0
    1.0548   -1.1428   -0.7707 C   0  0  0  0  0  0  0  0  0  0  0  0
    0.7166   -0.7927    1.6501 C   0  0  0  0  0  0  0  0  0  0  0  0
    0.3602   -0.1485    2.6167 O   0  0  0  0  0  0  0  0  0  0  0  0
   -0.8161    0.2632    0.1275 C   0  0  0  0  0  0  0  0  0  0  0  0
   -1.7856   -0.8883    0.1304 C   0  0  0  0  0  0  0  0  0  0  0  0
   -0.9950    1.1900   -1.0383 C   0  0  0  0  0  0  0  0  0  0  0  0
    2.7557    2.8541    0.2680 H   0  0  0  0  0  0  0  0  0  0  0  0
    0.5034   -2.0833   -0.7591 H   0  0  0  0  0  0  0  0  0  0  0  0
    2.1220   -1.3769   -0.5845 H   0  0  0  0  0  0  0  0  0  0  0  0
    1.0039   -0.6315   -1.7400 H   0  0  0  0  0  0  0  0  0  0  0  0
    1.1018   -1.7901    1.7389 H   0  0  0  0  0  0  0  0  0  0  0  0
   -1.0575    0.8674    1.0525 H   0  0  0  0  0  0  0  0  0  0  0  0
   -2.7955   -0.5489    0.4694 H   0  0  0  0  0  0  0  0  0  0  0  0
   -1.8891   -1.3641   -0.8589 H   0  0  0  0  0  0  0  0  0  0  0  0
   -1.4376   -1.6042    0.9050 H   0  0  0  0  0  0  0  0  0  0  0  0
   -0.0019    1.4986   -1.4769 H   0  0  0  0  0  0  0  0  0  0  0  0
   -1.5891    0.7359   -1.8427 H   0  0  0  0  0  0  0  0  0  0  0  0
   -1.4758    2.1625   -0.7452 H   0  0  0  0  0  0  0  0  0  0  0  0
  1  2  3  0
  2  3  1  0
  3  4  1  0
  3  5  1  0
  5  6  2  0
  3  7  1  0
  7  8  1  0
  7  9  1  0
  1 10  1  0
  4 11  1  0
  4 12  1  0
  4 13  1  0
  5 14  1  0
  7 15  1  0
  8 16  1  0
  8 17  1  0
  8 18  1  0
  9 19  1  0
  9 20  1  0
  9 21  1  0
M  END
