
     RDKit          3D

 17 17  0  0  0  0  0  0  0  0999 V2000
    1.9019   -2.0781   -0.9708 C   0  0  0  0  0  0  0  0  0  0  0  0
    1.2139   -1.0883   -1.0411 C   0  0  0  0  0  0  0  0  0  0  0  0
    0.3868    0.1289   -1.1064 C   0  0  0  0  0  0  0  0  0  0  0  0
    0.4586    1.0797    0.1044 C   0  0  0  0  0  0  0  0  0  0  0  0
    0.4786    2.5008   -0.2574 C   0  0  0  0  0  0  0  0  0  0  0  0
    1.2098    3.2604    0.3314 O   0  0  0  0  0  0  0  0  0  0  0  0
   -0.7433    0.2324   -0.1751 C   0  0  0  0  0  0  0  0  0  0  0  0
   -1.0715   -0.9527    0.6779 C   0  0  0  0  0  0  0  0  0  0  0  0
   -2.1637   -0.7013    1.5055 O   0  0  0  0  0  0  0  0  0  0  0  0
    2.4983   -2.9681   -0.9042 H   0  0  0  0  0  0  0  0  0  0  0  0
    0.2384    0.5837   -2.1060 H   0  0  0  0  0  0  0  0  0  0  0  0
    1.1181    0.7042    0.9218 H   0  0  0  0  0  0  0  0  0  0  0  0
   -0.1507    2.8725   -1.0408 H   0  0  0  0  0  0  0  0  0  0  0  0
   -1.6549    0.8411   -0.4491 H   0  0  0  0  0  0  0  0  0  0  0  0
   -1.3462   -1.8311    0.0548 H   0  0  0  0  0  0  0  0  0  0  0  0
   -0.1761   -1.2499    1.2595 H   0  0  0  0  0  0  0  0  0  0  0  0
   -2.1982   -1.3343    2.2674 H   0  0  0  0  0  0  0  0  0  0  0  0
  1  2  3  0
  2  3  1  0
  3  4  1  0
  4  5  1  0
  5  6  2  0
  4  7  1  0
  7  8  1  0
  8  9  1  0
  7  3  1  0
  1 10  1  0
  3 11  1  0
  4 12  1  0
  5 13  1  0
  7 14  1  0
  8 15  1  0
  8 16  1  0
  9 17  1  0
M  END
