
     RDKit          3D

 17 18  0  0  0  0  0  0  0  0999 V2000
    3.4825   -0.4459    1.1988 C   0  0  0  0  0  0  0  0  0  0  0  0
    2.2644   -0.2603    1.0650 C   0  0  0  0  0  0  0  0  0  0  0  0
    0.8645   -0.0532    0.8871 C   0  0  0  0  0  0  0  0  0  0  0  0
   -0.0128   -1.0479    0.1824 C   0  0  0  0  0  0  0  0  0  0  0  0
   -0.7777    0.0529   -0.5311 C   0  0  0  0  0  0  0  0  0  0  0  0
   -2.0713    0.4795    0.1362 C   0  0  0  0  0  0  0  0  0  0  0  0
   -0.8403   -0.0632   -1.8814 O   0  0  0  0  0  0  0  0  0  0  0  0
    0.3108    1.0036   -0.0388 C   0  0  0  0  0  0  0  0  0  0  0  0
    0.3510    1.1773    1.3392 O   0  0  0  0  0  0  0  0  0  0  0  0
    4.5533   -0.6088    1.3192 H   0  0  0  0  0  0  0  0  0  0  0  0
    0.5563   -1.6549   -0.5783 H   0  0  0  0  0  0  0  0  0  0  0  0
   -0.7040   -1.6507    0.7970 H   0  0  0  0  0  0  0  0  0  0  0  0
   -1.9747    1.4777    0.6356 H   0  0  0  0  0  0  0  0  0  0  0  0
   -2.8247    0.6044   -0.6705 H   0  0  0  0  0  0  0  0  0  0  0  0
   -2.3871   -0.2824    0.9019 H   0  0  0  0  0  0  0  0  0  0  0  0
   -1.7656   -0.2532   -2.2156 H   0  0  0  0  0  0  0  0  0  0  0  0
    0.9755    1.5253   -0.6979 H   0  0  0  0  0  0  0  0  0  0  0  0
  1  2  3  0
  2  3  1  0
  3  4  1  0
  4  5  1  0
  5  6  1  0
  5  7  1  0
  5  8  1  0
  8  9  1  0
  8  3  1  0
  9  3  1  0
  1 10  1  0
  4 11  1  0
  4 12  1  0
  6 13  1  0
  6 14  1  0
  6 15  1  0
  7 16  1  0
  8 17  1  0
M  END
