
     RDKit          3D

 23 23  0  0  0  0  0  0  0  0999 V2000
    0.5748    0.8854    2.7006 C   0  0  0  0  0  0  0  0  0  0  0  0
    0.5094    0.7190    1.4605 C   0  0  0  0  0  0  0  0  0  0  0  0
    0.4378    0.5046    0.0481 C   0  0  0  0  0  0  0  0  0  0  0  0
   -0.8605    1.0284   -0.5157 C   0  0  0  0  0  0  0  0  0  0  0  0
   -0.9650    0.8224   -2.0019 C   0  0  0  0  0  0  0  0  0  0  0  0
   -2.0744    0.5615    0.2171 C   0  0  0  0  0  0  0  0  0  0  0  0
    0.7592   -0.8933   -0.3284 C   0  0  0  0  0  0  0  0  0  0  0  0
    2.1935   -1.2935    0.1261 C   0  0  0  0  0  0  0  0  0  0  0  0
    0.9481   -2.0187    0.5702 C   0  0  0  0  0  0  0  0  0  0  0  0
    0.6465    1.0240    3.7275 H   0  0  0  0  0  0  0  0  0  0  0  0
    1.2345    1.1667   -0.4161 H   0  0  0  0  0  0  0  0  0  0  0  0
   -0.8205    2.1485   -0.3620 H   0  0  0  0  0  0  0  0  0  0  0  0
   -0.0665    1.2037   -2.5314 H   0  0  0  0  0  0  0  0  0  0  0  0
   -1.1006   -0.2282   -2.2600 H   0  0  0  0  0  0  0  0  0  0  0  0
   -1.8080    1.4726   -2.3630 H   0  0  0  0  0  0  0  0  0  0  0  0
   -1.8421    0.5909    1.3054 H   0  0  0  0  0  0  0  0  0  0  0  0
   -2.8998    1.3169    0.0762 H   0  0  0  0  0  0  0  0  0  0  0  0
   -2.4729   -0.4005   -0.1186 H   0  0  0  0  0  0  0  0  0  0  0  0
    0.5889   -1.1526   -1.4168 H   0  0  0  0  0  0  0  0  0  0  0  0
    2.6572   -0.6897    0.9330 H   0  0  0  0  0  0  0  0  0  0  0  0
    2.8598   -1.7456   -0.6120 H   0  0  0  0  0  0  0  0  0  0  0  0
    0.6203   -1.9694    1.6200 H   0  0  0  0  0  0  0  0  0  0  0  0
    0.8804   -3.0532    0.1409 H   0  0  0  0  0  0  0  0  0  0  0  0
  1  2  3  0
  2  3  1  0
  3  4  1  0
  4  5  1  0
  4  6  1  0
  3  7  1  0
  7  8  1  0
  8  9  1  0
  9  7  1  0
  1 10  1  0
  3 11  1  0
  4 12  1  0
  5 13  1  0
  5 14  1  0
  5 15  1  0
  6 16  1  0
  6 17  1  0
  6 18  1  0
  7 19  1  0
  8 20  1  0
  8 21  1  0
  9 22  1  0
  9 23  1  0
M  END
