
     RDKit          3D

 21 21  0  0  0  0  0  0  0  0999 V2000
   -0.0324    2.3765   -1.4768 C   0  0  0  0  0  0  0  0  0  0  0  0
   -0.4326    1.4119   -0.8523 C   0  0  0  0  0  0  0  0  0  0  0  0
   -0.9227    0.2587   -0.0763 C   0  0  0  0  0  0  0  0  0  0  0  0
   -1.6477    0.7793    1.1125 C   0  0  0  0  0  0  0  0  0  0  0  0
   -1.8710   -0.5861   -0.8982 C   0  0  0  0  0  0  0  0  0  0  0  0
    0.2531   -0.6116    0.2996 C   0  0  0  0  0  0  0  0  0  0  0  0
    0.8996   -1.0630   -0.9621 O   0  0  0  0  0  0  0  0  0  0  0  0
    1.6132   -0.2984    0.0083 C   0  0  0  0  0  0  0  0  0  0  0  0
    2.6916   -1.1153    0.6845 C   0  0  0  0  0  0  0  0  0  0  0  0
    0.3197    3.2104   -2.0243 H   0  0  0  0  0  0  0  0  0  0  0  0
   -2.0313    1.8198    0.9820 H   0  0  0  0  0  0  0  0  0  0  0  0
   -1.0046    0.8204    2.0304 H   0  0  0  0  0  0  0  0  0  0  0  0
   -2.5086    0.1284    1.3700 H   0  0  0  0  0  0  0  0  0  0  0  0
   -1.5489   -0.4899   -1.9666 H   0  0  0  0  0  0  0  0  0  0  0  0
   -2.9276   -0.2582   -0.7635 H   0  0  0  0  0  0  0  0  0  0  0  0
   -1.7550   -1.6272   -0.5843 H   0  0  0  0  0  0  0  0  0  0  0  0
   -0.0016   -1.4618    0.9581 H   0  0  0  0  0  0  0  0  0  0  0  0
    1.9251    0.6925   -0.3755 H   0  0  0  0  0  0  0  0  0  0  0  0
    2.7024   -2.1777    0.3639 H   0  0  0  0  0  0  0  0  0  0  0  0
    3.6895   -0.7062    0.3765 H   0  0  0  0  0  0  0  0  0  0  0  0
    2.5895   -1.1026    1.7940 H   0  0  0  0  0  0  0  0  0  0  0  0
  1  2  3  0
  2  3  1  0
  3  4  1  0
  3  5  1  0
  3  6  1  0
  6  7  1  0
  7  8  1  0
  8  9  1  0
  8  6  1  0
  1 10  1  0
  4 11  1  0
  4 12  1  0
  4 13  1  0
  5 14  1  0
  5 15  1  0
  5 16  1  0
  6 17  1  0
  8 18  1  0
  9 19  1  0
  9 20  1  0
  9 21  1  0
M  END
