
     RDKit          3D

 19 20  0  0  0  0  0  0  0  0999 V2000
    2.6575   -0.9697   -2.3165 C   0  0  0  0  0  0  0  0  0  0  0  0
    1.8065   -0.5881   -1.4748 C   0  0  0  0  0  0  0  0  0  0  0  0
    0.9134   -0.2106   -0.5940 C   0  0  0  0  0  0  0  0  0  0  0  0
    0.1713   -1.2058    0.3123 C   0  0  0  0  0  0  0  0  0  0  0  0
   -0.0865   -0.3086    1.5305 C   0  0  0  0  0  0  0  0  0  0  0  0
   -0.7431    0.8730    0.7909 C   0  0  0  0  0  0  0  0  0  0  0  0
   -2.1129    0.6283    0.2995 C   0  0  0  0  0  0  0  0  0  0  0  0
    0.2933    1.0220   -0.3558 C   0  0  0  0  0  0  0  0  0  0  0  0
    1.6022    0.8463    0.3301 O   0  0  0  0  0  0  0  0  0  0  0  0
    3.5124   -1.3557   -3.1446 H   0  0  0  0  0  0  0  0  0  0  0  0
   -0.8471   -1.3599   -0.1696 H   0  0  0  0  0  0  0  0  0  0  0  0
    0.6745   -2.0952    0.5250 H   0  0  0  0  0  0  0  0  0  0  0  0
    0.9181    0.0548    1.8752 H   0  0  0  0  0  0  0  0  0  0  0  0
   -0.6696   -0.7311    2.3158 H   0  0  0  0  0  0  0  0  0  0  0  0
   -0.6825    1.7622    1.4389 H   0  0  0  0  0  0  0  0  0  0  0  0
   -2.3024    0.8031   -0.7754 H   0  0  0  0  0  0  0  0  0  0  0  0
   -2.4850   -0.4132    0.5483 H   0  0  0  0  0  0  0  0  0  0  0  0
   -2.8688    1.2874    0.8150 H   0  0  0  0  0  0  0  0  0  0  0  0
    0.2488    1.9609   -0.9019 H   0  0  0  0  0  0  0  0  0  0  0  0
  1  2  3  0
  2  3  1  0
  3  4  1  0
  4  5  1  0
  5  6  1  0
  6  7  1  0
  6  8  1  0
  8  9  1  0
  8  3  1  0
  9  3  1  0
  1 10  1  0
  4 11  1  0
  4 12  1  0
  5 13  1  0
  5 14  1  0
  6 15  1  0
  7 16  1  0
  7 17  1  0
  7 18  1  0
  8 19  1  0
M  END
