
     RDKit          3D

 18 17  0  0  0  0  0  0  0  0999 V2000
    2.6661   -1.9981    0.1823 C   0  0  0  0  0  0  0  0  0  0  0  0
    1.7059   -1.4883   -0.5267 C   0  0  0  0  0  0  0  0  0  0  0  0
    0.6160   -0.8864   -1.3208 C   0  0  0  0  0  0  0  0  0  0  0  0
    0.2634    0.4801   -0.8186 C   0  0  0  0  0  0  0  0  0  0  0  0
   -0.2252    0.4138    0.6104 C   0  0  0  0  0  0  0  0  0  0  0  0
   -1.4541   -0.4695    0.7082 C   0  0  0  0  0  0  0  0  0  0  0  0
   -0.7750    1.7927    0.9107 C   0  0  0  0  0  0  0  0  0  0  0  0
   -1.1997    2.8785    1.1664 C   0  0  0  0  0  0  0  0  0  0  0  0
    3.2874   -2.3366    0.6590 H   0  0  0  0  0  0  0  0  0  0  0  0
    0.9754   -0.8278   -2.3604 H   0  0  0  0  0  0  0  0  0  0  0  0
   -0.2817   -1.5566   -1.2318 H   0  0  0  0  0  0  0  0  0  0  0  0
    1.2174    1.0890   -0.8644 H   0  0  0  0  0  0  0  0  0  0  0  0
   -0.4724    0.9917   -1.4638 H   0  0  0  0  0  0  0  0  0  0  0  0
    0.5223    0.1107    1.3328 H   0  0  0  0  0  0  0  0  0  0  0  0
   -2.1205   -0.1042    1.5073 H   0  0  0  0  0  0  0  0  0  0  0  0
   -1.9755   -0.4382   -0.2804 H   0  0  0  0  0  0  0  0  0  0  0  0
   -1.1816   -1.5155    0.9574 H   0  0  0  0  0  0  0  0  0  0  0  0
   -1.5684    3.8646    1.4077 H   0  0  0  0  0  0  0  0  0  0  0  0
  1  2  3  0
  2  3  1  0
  3  4  1  0
  4  5  1  0
  5  6  1  0
  5  7  1  0
  7  8  3  0
  1  9  1  0
  3 10  1  0
  3 11  1  0
  4 12  1  0
  4 13  1  0
  5 14  1  0
  6 15  1  0
  6 16  1  0
  6 17  1  0
  8 18  1  0
M  END
