
     RDKit          3D

 19 18  0  0  0  0  0  0  0  0999 V2000
    1.1571   -0.1935   -3.7654 C   0  0  0  0  0  0  0  0  0  0  0  0
    0.3550    0.0979   -2.8240 C   0  0  0  0  0  0  0  0  0  0  0  0
   -0.4793    0.4235   -1.8226 C   0  0  0  0  0  0  0  0  0  0  0  0
   -0.5350   -0.6924   -0.7255 C   0  0  0  0  0  0  0  0  0  0  0  0
   -1.0567   -0.0866    0.4716 C   0  0  0  0  0  0  0  0  0  0  0  0
   -2.1377    0.0383    0.8802 O   0  0  0  0  0  0  0  0  0  0  0  0
    0.0332    0.5389    1.4117 C   0  0  0  0  0  0  0  0  0  0  0  0
    0.9612   -0.5177    1.9097 C   0  0  0  0  0  0  0  0  0  0  0  0
   -0.5316    1.1927    2.4553 O   0  0  0  0  0  0  0  0  0  0  0  0
    1.9295   -0.4587   -4.6439 H   0  0  0  0  0  0  0  0  0  0  0  0
   -1.4825    0.7716   -2.0739 H   0  0  0  0  0  0  0  0  0  0  0  0
   -0.0424    1.2821   -1.1399 H   0  0  0  0  0  0  0  0  0  0  0  0
    0.4293   -1.2128   -0.6664 H   0  0  0  0  0  0  0  0  0  0  0  0
   -1.2864   -1.4323   -1.1265 H   0  0  0  0  0  0  0  0  0  0  0  0
    0.6208    1.2241    0.7877 H   0  0  0  0  0  0  0  0  0  0  0  0
    1.1505   -1.2796    1.1570 H   0  0  0  0  0  0  0  0  0  0  0  0
    1.9238   -0.0598    2.2756 H   0  0  0  0  0  0  0  0  0  0  0  0
    0.4927   -0.9886    2.8223 H   0  0  0  0  0  0  0  0  0  0  0  0
   -1.5016    1.3530    2.3822 H   0  0  0  0  0  0  0  0  0  0  0  0
  1  2  3  0
  2  3  1  0
  3  4  1  0
  4  5  1  0
  5  6  2  0
  5  7  1  0
  7  8  1  0
  7  9  1  0
  1 10  1  0
  3 11  1  0
  3 12  1  0
  4 13  1  0
  4 14  1  0
  7 15  1  0
  8 16  1  0
  8 17  1  0
  8 18  1  0
  9 19  1  0
M  END
