
     RDKit          3D

 15 15  0  0  0  0  0  0  0  0999 V2000
    2.5104    2.1977   -0.8491 C   0  0  0  0  0  0  0  0  0  0  0  0
    1.6128    1.3530   -0.6327 C   0  0  0  0  0  0  0  0  0  0  0  0
    0.6521    0.4559   -0.3909 C   0  0  0  0  0  0  0  0  0  0  0  0
   -0.5090    0.2915   -1.0765 C   0  0  0  0  0  0  0  0  0  0  0  0
   -1.4235   -0.7862   -0.5846 C   0  0  0  0  0  0  0  0  0  0  0  0
   -1.4054   -0.9564    0.8785 C   0  0  0  0  0  0  0  0  0  0  0  0
   -0.0495   -1.3938    1.1655 O   0  0  0  0  0  0  0  0  0  0  0  0
    0.9219   -0.4552    0.8064 C   0  0  0  0  0  0  0  0  0  0  0  0
    1.9650   -0.3324    1.3496 O   0  0  0  0  0  0  0  0  0  0  0  0
    3.2967    2.9609   -1.0358 H   0  0  0  0  0  0  0  0  0  0  0  0
   -0.7233    0.8449   -1.8928 H   0  0  0  0  0  0  0  0  0  0  0  0
   -0.8941   -1.7429   -1.0101 H   0  0  0  0  0  0  0  0  0  0  0  0
   -2.3632   -0.7282   -1.0912 H   0  0  0  0  0  0  0  0  0  0  0  0
   -1.5136    0.0039    1.3752 H   0  0  0  0  0  0  0  0  0  0  0  0
   -2.0775   -1.7126    1.2365 H   0  0  0  0  0  0  0  0  0  0  0  0
  1  2  3  0
  2  3  1  0
  3  4  2  0
  4  5  1  0
  5  6  1  0
  6  7  1  0
  7  8  1  0
  8  9  2  0
  8  3  1  0
  1 10  1  0
  4 11  1  0
  5 12  1  0
  5 13  1  0
  6 14  1  0
  6 15  1  0
M  END
