
     RDKit          3D

 18 17  0  0  0  0  0  0  0  0999 V2000
   -1.5967    1.4290    1.1987 C   0  0  0  0  0  0  0  0  0  0  0  0
   -1.1676    0.4829    0.5861 C   0  0  0  0  0  0  0  0  0  0  0  0
   -0.6197   -0.6651   -0.1583 C   0  0  0  0  0  0  0  0  0  0  0  0
   -0.5240   -0.2525   -1.6068 C   0  0  0  0  0  0  0  0  0  0  0  0
   -1.8420    0.0653   -2.0096 O   0  0  0  0  0  0  0  0  0  0  0  0
    0.6971   -1.0671    0.4314 C   0  0  0  0  0  0  0  0  0  0  0  0
    1.7109    0.0594    0.3738 C   0  0  0  0  0  0  0  0  0  0  0  0
    1.2514    1.1678    1.0822 O   0  0  0  0  0  0  0  0  0  0  0  0
   -1.9848    2.2819    1.7303 H   0  0  0  0  0  0  0  0  0  0  0  0
   -1.3105   -1.5261   -0.0598 H   0  0  0  0  0  0  0  0  0  0  0  0
   -0.1691   -1.0759   -2.2529 H   0  0  0  0  0  0  0  0  0  0  0  0
    0.0503    0.6859   -1.7415 H   0  0  0  0  0  0  0  0  0  0  0  0
   -2.2263    0.5690   -1.2417 H   0  0  0  0  0  0  0  0  0  0  0  0
    1.0759   -1.9289   -0.1363 H   0  0  0  0  0  0  0  0  0  0  0  0
    0.5304   -1.3178    1.4892 H   0  0  0  0  0  0  0  0  0  0  0  0
    2.6077   -0.3082    0.9278 H   0  0  0  0  0  0  0  0  0  0  0  0
    2.0131    0.2917   -0.6505 H   0  0  0  0  0  0  0  0  0  0  0  0
    1.5038    1.1088    2.0378 H   0  0  0  0  0  0  0  0  0  0  0  0
  1  2  3  0
  2  3  1  0
  3  4  1  0
  4  5  1  0
  3  6  1  0
  6  7  1  0
  7  8  1  0
  1  9  1  0
  3 10  1  0
  4 11  1  0
  4 12  1  0
  5 13  1  0
  6 14  1  0
  6 15  1  0
  7 16  1  0
  7 17  1  0
  8 18  1  0
M  END
