
     RDKit          3D

 25 24  0  0  0  0  0  0  0  0999 V2000
   -2.1954    3.0066   -0.6361 C   0  0  0  0  0  0  0  0  0  0  0  0
   -1.6289    1.9458   -0.5771 C   0  0  0  0  0  0  0  0  0  0  0  0
   -0.9011    0.5900   -0.5179 C   0  0  0  0  0  0  0  0  0  0  0  0
   -1.7789   -0.2103    0.3622 C   0  0  0  0  0  0  0  0  0  0  0  0
   -1.3359   -1.6191    0.5409 C   0  0  0  0  0  0  0  0  0  0  0  0
    0.4491    0.9727   -0.1222 C   0  0  0  0  0  0  0  0  0  0  0  0
    1.5638    0.0554    0.0769 C   0  0  0  0  0  0  0  0  0  0  0  0
    1.9517   -0.8048   -1.0820 C   0  0  0  0  0  0  0  0  0  0  0  0
    1.5071   -0.6533    1.3828 C   0  0  0  0  0  0  0  0  0  0  0  0
   -2.6784    3.9438   -0.6976 H   0  0  0  0  0  0  0  0  0  0  0  0
   -0.9491    0.2671   -1.5772 H   0  0  0  0  0  0  0  0  0  0  0  0
   -2.8110   -0.2721   -0.1157 H   0  0  0  0  0  0  0  0  0  0  0  0
   -2.0102    0.2941    1.3370 H   0  0  0  0  0  0  0  0  0  0  0  0
   -2.1675   -2.3551    0.3305 H   0  0  0  0  0  0  0  0  0  0  0  0
   -0.5113   -1.9314   -0.1193 H   0  0  0  0  0  0  0  0  0  0  0  0
   -1.0302   -1.8498    1.5950 H   0  0  0  0  0  0  0  0  0  0  0  0
    0.8028    1.7384   -0.9071 H   0  0  0  0  0  0  0  0  0  0  0  0
    0.3364    1.6838    0.7775 H   0  0  0  0  0  0  0  0  0  0  0  0
    2.5347    0.7180    0.1929 H   0  0  0  0  0  0  0  0  0  0  0  0
    2.5344   -1.6671   -0.6768 H   0  0  0  0  0  0  0  0  0  0  0  0
    1.1373   -1.2018   -1.6818 H   0  0  0  0  0  0  0  0  0  0  0  0
    2.6385   -0.2810   -1.8111 H   0  0  0  0  0  0  0  0  0  0  0  0
    0.6870   -0.2094    2.0037 H   0  0  0  0  0  0  0  0  0  0  0  0
    2.4303   -0.4021    1.9877 H   0  0  0  0  0  0  0  0  0  0  0  0
    1.4247   -1.7583    1.2880 H   0  0  0  0  0  0  0  0  0  0  0  0
  1  2  3  0
  2  3  1  0
  3  4  1  0
  4  5  1  0
  3  6  1  0
  6  7  1  0
  7  8  1  0
  7  9  1  0
  1 10  1  0
  3 11  1  0
  4 12  1  0
  4 13  1  0
  5 14  1  0
  5 15  1  0
  5 16  1  0
  6 17  1  0
  6 18  1  0
  7 19  1  0
  8 20  1  0
  8 21  1  0
  8 22  1  0
  9 23  1  0
  9 24  1  0
  9 25  1  0
M  END
