
     RDKit          3D

 14 13  0  0  0  0  0  0  0  0999 V2000
    2.9879    1.7412   -1.6396 C   0  0  0  0  0  0  0  0  0  0  0  0
    2.3018    0.9341   -1.0605 C   0  0  0  0  0  0  0  0  0  0  0  0
    1.4705   -0.0445   -0.3577 C   0  0  0  0  0  0  0  0  0  0  0  0
    0.1052    0.3403   -0.3467 O   0  0  0  0  0  0  0  0  0  0  0  0
   -0.8134   -0.4821    0.2821 C   0  0  0  0  0  0  0  0  0  0  0  0
   -0.3966   -1.5355    0.8169 O   0  0  0  0  0  0  0  0  0  0  0  0
   -2.2584   -0.1722    0.3492 C   0  0  0  0  0  0  0  0  0  0  0  0
   -2.9215   -1.1819    1.0425 O   0  0  0  0  0  0  0  0  0  0  0  0
    3.6042    2.4697   -2.1409 H   0  0  0  0  0  0  0  0  0  0  0  0
    1.5144   -1.0175   -0.9133 H   0  0  0  0  0  0  0  0  0  0  0  0
    1.8664   -0.2545    0.6521 H   0  0  0  0  0  0  0  0  0  0  0  0
   -2.7090   -0.0353   -0.6560 H   0  0  0  0  0  0  0  0  0  0  0  0
   -2.3551    0.7988    0.9130 H   0  0  0  0  0  0  0  0  0  0  0  0
   -2.3965   -1.5606    1.7723 H   0  0  0  0  0  0  0  0  0  0  0  0
  1  2  3  0
  2  3  1  0
  3  4  1  0
  4  5  1  0
  5  6  2  0
  5  7  1  0
  7  8  1  0
  1  9  1  0
  3 10  1  0
  3 11  1  0
  7 12  1  0
  7 13  1  0
  8 14  1  0
M  END
