
     RDKit          3D

 14 13  0  0  0  0  0  0  0  0999 V2000
    3.9196    0.9484    0.1996 C   0  0  0  0  0  0  0  0  0  0  0  0
    2.7302    0.4011    0.1321 C   0  0  0  0  0  0  0  0  0  0  0  0
    1.5824   -0.1032    0.0707 C   0  0  0  0  0  0  0  0  0  0  0  0
    0.4668   -0.6153    0.0059 C   0  0  0  0  0  0  0  0  0  0  0  0
   -0.6200   -1.1122   -0.0705 C   0  0  0  0  0  0  0  0  0  0  0  0
   -1.1161    0.4048   -1.0051 C   0  0  0  0  0  0  0  0  0  0  0  0
   -1.8996   -0.7384    0.9517 C   0  0  0  0  0  0  0  0  0  0  0  0
   -2.5826   -0.5252    1.5119 C   0  0  0  0  0  0  0  0  0  0  0  0
    5.1085    1.5203    0.2693 H   0  0  0  0  0  0  0  0  0  0  0  0
   -1.0958   -1.7690   -0.8039 H   0  0  0  0  0  0  0  0  0  0  0  0
   -0.5638    1.1596   -0.3232 H   0  0  0  0  0  0  0  0  0  0  0  0
   -0.3433    0.2332   -1.7892 H   0  0  0  0  0  0  0  0  0  0  0  0
   -2.0601    0.4078   -0.9970 H   0  0  0  0  0  0  0  0  0  0  0  0
   -3.5263   -0.2119    2.2759 H   0  0  0  0  0  0  0  0  0  0  0  0
  1  2  3  0
  2  3  1  0
  3  4  3  0
  4  5  1  0
  5  6  1  0
  5  7  1  0
  7  8  3  0
  1  9  1  0
  5 10  1  0
  6 11  1  0
  6 12  1  0
  6 13  1  0
  8 14  1  0
M  END
