
     RDKit          3D

 19 18  0  0  0  0  0  0  0  0999 V2000
   -0.9133    2.5854    0.0716 C   0  0  0  0  0  0  0  0  0  0  0  0
   -0.7709    1.3862   -0.0474 C   0  0  0  0  0  0  0  0  0  0  0  0
   -0.5960   -0.0736   -0.1674 C   0  0  0  0  0  0  0  0  0  0  0  0
   -1.0254   -0.7540    1.1142 C   0  0  0  0  0  0  0  0  0  0  0  0
   -1.5090   -0.5824   -1.2639 C   0  0  0  0  0  0  0  0  0  0  0  0
    0.8242   -0.3261   -0.4857 C   0  0  0  0  0  0  0  0  0  0  0  0
    1.0955   -0.8997   -1.5224 O   0  0  0  0  0  0  0  0  0  0  0  0
    1.9436    0.0853    0.3970 C   0  0  0  0  0  0  0  0  0  0  0  0
    3.1659   -0.2667   -0.1274 O   0  0  0  0  0  0  0  0  0  0  0  0
   -1.0363    3.6296    0.1937 H   0  0  0  0  0  0  0  0  0  0  0  0
   -0.1607   -1.0899    1.7202 H   0  0  0  0  0  0  0  0  0  0  0  0
   -1.7436   -1.5832    0.9326 H   0  0  0  0  0  0  0  0  0  0  0  0
   -1.5729   -0.0086    1.7283 H   0  0  0  0  0  0  0  0  0  0  0  0
   -1.1980   -1.6315   -1.5137 H   0  0  0  0  0  0  0  0  0  0  0  0
   -2.5406   -0.5665   -0.8781 H   0  0  0  0  0  0  0  0  0  0  0  0
   -1.3511    0.0522   -2.1558 H   0  0  0  0  0  0  0  0  0  0  0  0
    1.9166    1.2068    0.4316 H   0  0  0  0  0  0  0  0  0  0  0  0
    1.7798   -0.2879    1.4271 H   0  0  0  0  0  0  0  0  0  0  0  0
    3.6922   -0.8755    0.4422 H   0  0  0  0  0  0  0  0  0  0  0  0
  1  2  3  0
  2  3  1  0
  3  4  1  0
  3  5  1  0
  3  6  1  0
  6  7  2  0
  6  8  1  0
  8  9  1  0
  1 10  1  0
  4 11  1  0
  4 12  1  0
  4 13  1  0
  5 14  1  0
  5 15  1  0
  5 16  1  0
  8 17  1  0
  8 18  1  0
  9 19  1  0
M  END
