
     RDKit          3D

 18 19  0  0  0  0  0  0  0  0999 V2000
    1.7033    0.0066   -2.5023 C   0  0  0  0  0  0  0  0  0  0  0  0
    1.3140   -0.1787   -1.3749 C   0  0  0  0  0  0  0  0  0  0  0  0
    0.8412   -0.4120   -0.0622 C   0  0  0  0  0  0  0  0  0  0  0  0
    0.7934    0.8518    0.8170 C   0  0  0  0  0  0  0  0  0  0  0  0
   -0.5439    0.6337    1.4646 C   0  0  0  0  0  0  0  0  0  0  0  0
   -0.7342   -0.8855    1.5637 C   0  0  0  0  0  0  0  0  0  0  0  0
   -0.6163   -0.7848    0.0303 C   0  0  0  0  0  0  0  0  0  0  0  0
   -1.4114    0.4903    0.2006 C   0  0  0  0  0  0  0  0  0  0  0  0
    2.0360    0.1669   -3.5209 H   0  0  0  0  0  0  0  0  0  0  0  0
    1.4595   -1.1691    0.5064 H   0  0  0  0  0  0  0  0  0  0  0  0
    1.6376    0.9014    1.4965 H   0  0  0  0  0  0  0  0  0  0  0  0
    0.6982    1.7553    0.1828 H   0  0  0  0  0  0  0  0  0  0  0  0
   -0.8983    1.2468    2.2412 H   0  0  0  0  0  0  0  0  0  0  0  0
   -1.7119   -1.1673    1.9262 H   0  0  0  0  0  0  0  0  0  0  0  0
    0.1446   -1.4073    1.9410 H   0  0  0  0  0  0  0  0  0  0  0  0
   -1.0087   -1.5712   -0.5476 H   0  0  0  0  0  0  0  0  0  0  0  0
   -1.2589    1.2652   -0.5462 H   0  0  0  0  0  0  0  0  0  0  0  0
   -2.4443    0.2579    0.4890 H   0  0  0  0  0  0  0  0  0  0  0  0
  1  2  3  0
  2  3  1  0
  3  4  1  0
  4  5  1  0
  5  6  1  0
  6  7  1  0
  7  8  1  0
  7  3  1  0
  8  5  1  0
  1  9  1  0
  3 10  1  0
  4 11  1  0
  4 12  1  0
  5 13  1  0
  6 14  1  0
  6 15  1  0
  7 16  1  0
  8 17  1  0
  8 18  1  0
M  END
