
     RDKit          3D

 17 18  0  0  0  0  0  0  0  0999 V2000
    3.1849    0.0889    0.8382 C   0  0  0  0  0  0  0  0  0  0  0  0
    2.1204   -0.1215    0.3215 C   0  0  0  0  0  0  0  0  0  0  0  0
    0.8584   -0.3947   -0.3031 C   0  0  0  0  0  0  0  0  0  0  0  0
    0.5396    0.4976   -1.3312 O   0  0  0  0  0  0  0  0  0  0  0  0
   -0.8201    0.7840   -1.1752 C   0  0  0  0  0  0  0  0  0  0  0  0
   -0.8137    1.0789    0.3397 C   0  0  0  0  0  0  0  0  0  0  0  0
   -0.3017   -0.3430    0.6421 C   0  0  0  0  0  0  0  0  0  0  0  0
   -1.4488   -1.0750   -0.0647 C   0  0  0  0  0  0  0  0  0  0  0  0
   -1.5606   -0.3736   -1.2636 O   0  0  0  0  0  0  0  0  0  0  0  0
    4.1394    0.2715    1.2817 H   0  0  0  0  0  0  0  0  0  0  0  0
    0.8411   -1.4118   -0.7806 H   0  0  0  0  0  0  0  0  0  0  0  0
   -1.1522    1.6149   -1.7624 H   0  0  0  0  0  0  0  0  0  0  0  0
   -0.0737    1.8321    0.5967 H   0  0  0  0  0  0  0  0  0  0  0  0
   -1.8180    1.2307    0.7278 H   0  0  0  0  0  0  0  0  0  0  0  0
   -0.1561   -0.5687    1.6573 H   0  0  0  0  0  0  0  0  0  0  0  0
   -1.1447   -2.1276   -0.2219 H   0  0  0  0  0  0  0  0  0  0  0  0
   -2.3945   -0.9827    0.4978 H   0  0  0  0  0  0  0  0  0  0  0  0
  1  2  3  0
  2  3  1  0
  3  4  1  0
  4  5  1  0
  5  6  1  0
  6  7  1  0
  7  8  1  0
  8  9  1  0
  7  3  1  0
  9  5  1  0
  1 10  1  0
  3 11  1  0
  5 12  1  0
  6 13  1  0
  6 14  1  0
  7 15  1  0
  8 16  1  0
  8 17  1  0
M  END
