
     RDKit          3D

 19 19  0  0  0  0  0  0  0  0999 V2000
    3.4978   -0.8976   -0.4446 C   0  0  0  0  0  0  0  0  0  0  0  0
    2.5499   -0.2056   -0.1015 C   0  0  0  0  0  0  0  0  0  0  0  0
    1.4157    0.5963    0.2952 C   0  0  0  0  0  0  0  0  0  0  0  0
    0.7060    1.2287   -0.9086 C   0  0  0  0  0  0  0  0  0  0  0  0
   -0.5243    1.5602   -0.3130 O   0  0  0  0  0  0  0  0  0  0  0  0
   -0.9250    0.4127    0.3489 C   0  0  0  0  0  0  0  0  0  0  0  0
   -1.5954   -0.3886   -0.5481 O   0  0  0  0  0  0  0  0  0  0  0  0
   -2.8967   -0.6435   -0.0884 C   0  0  0  0  0  0  0  0  0  0  0  0
    0.3232   -0.2914    0.8252 C   0  0  0  0  0  0  0  0  0  0  0  0
    4.3196   -1.4986   -0.7360 H   0  0  0  0  0  0  0  0  0  0  0  0
    1.6777    1.3962    1.0130 H   0  0  0  0  0  0  0  0  0  0  0  0
    0.5939    0.4382   -1.6720 H   0  0  0  0  0  0  0  0  0  0  0  0
    1.2713    2.0985   -1.2326 H   0  0  0  0  0  0  0  0  0  0  0  0
   -1.5962    0.6566    1.2213 H   0  0  0  0  0  0  0  0  0  0  0  0
   -2.8551   -1.1543    0.8866 H   0  0  0  0  0  0  0  0  0  0  0  0
   -3.3654   -1.3153   -0.8245 H   0  0  0  0  0  0  0  0  0  0  0  0
   -3.3970    0.3461   -0.0288 H   0  0  0  0  0  0  0  0  0  0  0  0
    0.4183   -1.3047    0.3814 H   0  0  0  0  0  0  0  0  0  0  0  0
    0.3818   -0.2948    1.9264 H   0  0  0  0  0  0  0  0  0  0  0  0
  1  2  3  0
  2  3  1  0
  3  4  1  0
  4  5  1  0
  5  6  1  0
  6  7  1  0
  7  8  1  0
  6  9  1  0
  9  3  1  0
  1 10  1  0
  3 11  1  0
  4 12  1  0
  4 13  1  0
  6 14  1  0
  8 15  1  0
  8 16  1  0
  8 17  1  0
  9 18  1  0
  9 19  1  0
M  END
