
     RDKit          3D

 21 20  0  0  0  0  0  0  0  0999 V2000
   -1.6650   -3.1457   -0.9711 C   0  0  0  0  0  0  0  0  0  0  0  0
   -1.0639   -2.1144   -1.2861 C   0  0  0  0  0  0  0  0  0  0  0  0
   -0.3708   -0.8818   -1.6508 C   0  0  0  0  0  0  0  0  0  0  0  0
   -1.0522   -0.2302   -2.8465 C   0  0  0  0  0  0  0  0  0  0  0  0
   -0.3325   -0.0550   -0.5559 O   0  0  0  0  0  0  0  0  0  0  0  0
    0.9749    0.2582   -0.1927 C   0  0  0  0  0  0  0  0  0  0  0  0
    0.9965    1.1700    1.0183 C   0  0  0  0  0  0  0  0  0  0  0  0
    0.3813    0.5651    2.1126 O   0  0  0  0  0  0  0  0  0  0  0  0
    0.4011    1.4039    3.2161 C   0  0  0  0  0  0  0  0  0  0  0  0
   -2.1921   -4.0148   -0.6978 H   0  0  0  0  0  0  0  0  0  0  0  0
    0.6828   -1.0902   -1.9624 H   0  0  0  0  0  0  0  0  0  0  0  0
   -0.2815    0.3673   -3.3698 H   0  0  0  0  0  0  0  0  0  0  0  0
   -1.3598   -1.0652   -3.5132 H   0  0  0  0  0  0  0  0  0  0  0  0
   -1.9075    0.4027   -2.5219 H   0  0  0  0  0  0  0  0  0  0  0  0
    1.5023   -0.6814    0.0709 H   0  0  0  0  0  0  0  0  0  0  0  0
    1.4875    0.7405   -1.0480 H   0  0  0  0  0  0  0  0  0  0  0  0
    2.0376    1.4003    1.3126 H   0  0  0  0  0  0  0  0  0  0  0  0
    0.4354    2.1141    0.7835 H   0  0  0  0  0  0  0  0  0  0  0  0
   -0.1347    2.3454    2.9945 H   0  0  0  0  0  0  0  0  0  0  0  0
   -0.0128    0.8723    4.0959 H   0  0  0  0  0  0  0  0  0  0  0  0
    1.4736    1.6388    3.4852 H   0  0  0  0  0  0  0  0  0  0  0  0
  1  2  3  0
  2  3  1  0
  3  4  1  0
  3  5  1  0
  5  6  1  0
  6  7  1  0
  7  8  1  0
  8  9  1  0
  1 10  1  0
  3 11  1  0
  4 12  1  0
  4 13  1  0
  4 14  1  0
  6 15  1  0
  6 16  1  0
  7 17  1  0
  7 18  1  0
  9 19  1  0
  9 20  1  0
  9 21  1  0
M  END
