
     RDKit          3D

 19 20  0  0  0  0  0  0  0  0999 V2000
    3.1431    0.5845   -1.4897 C   0  0  0  0  0  0  0  0  0  0  0  0
    1.9752    0.7868   -1.2329 C   0  0  0  0  0  0  0  0  0  0  0  0
    0.5686    1.0289   -0.9007 C   0  0  0  0  0  0  0  0  0  0  0  0
    0.1056   -0.0327    0.0268 C   0  0  0  0  0  0  0  0  0  0  0  0
    0.1384   -1.4299   -0.3716 C   0  0  0  0  0  0  0  0  0  0  0  0
   -0.9152   -1.5944    0.6538 C   0  0  0  0  0  0  0  0  0  0  0  0
   -2.1625   -1.2286    0.5169 O   0  0  0  0  0  0  0  0  0  0  0  0
   -1.3294   -0.1942    0.2541 C   0  0  0  0  0  0  0  0  0  0  0  0
   -1.7592    0.8269    1.3726 C   0  0  0  0  0  0  0  0  0  0  0  0
    4.1753    0.4079   -1.6976 H   0  0  0  0  0  0  0  0  0  0  0  0
    0.5186    1.9976   -0.3311 H   0  0  0  0  0  0  0  0  0  0  0  0
    0.0047    1.1624   -1.8117 H   0  0  0  0  0  0  0  0  0  0  0  0
    0.6938    0.0991    0.9963 H   0  0  0  0  0  0  0  0  0  0  0  0
   -0.1270   -1.7108   -1.4117 H   0  0  0  0  0  0  0  0  0  0  0  0
    1.0605   -1.9983   -0.1150 H   0  0  0  0  0  0  0  0  0  0  0  0
   -0.5623   -1.7972    1.6486 H   0  0  0  0  0  0  0  0  0  0  0  0
   -2.8280    1.0016    1.3598 H   0  0  0  0  0  0  0  0  0  0  0  0
   -1.2134    1.7539    1.2939 H   0  0  0  0  0  0  0  0  0  0  0  0
   -1.4866    0.3365    2.3261 H   0  0  0  0  0  0  0  0  0  0  0  0
  1  2  3  0
  2  3  1  0
  3  4  1  0
  4  5  1  0
  5  6  1  0
  6  7  1  0
  7  8  1  0
  8  9  1  0
  8  4  1  0
  8  6  1  0
  1 10  1  0
  3 11  1  0
  3 12  1  0
  4 13  1  0
  5 14  1  0
  5 15  1  0
  6 16  1  0
  9 17  1  0
  9 18  1  0
  9 19  1  0
M  END
