
     RDKit          3D

 17 16  0  0  0  0  0  0  0  0999 V2000
    2.0906    2.4010   -2.2861 C   0  0  0  0  0  0  0  0  0  0  0  0
    1.3055    1.4991   -2.0830 C   0  0  0  0  0  0  0  0  0  0  0  0
    0.3962    0.4182   -1.8500 C   0  0  0  0  0  0  0  0  0  0  0  0
    0.3739   -0.5089   -2.7010 O   0  0  0  0  0  0  0  0  0  0  0  0
   -0.4607    0.4138   -0.6651 C   0  0  0  0  0  0  0  0  0  0  0  0
   -0.2047    1.5726    0.0644 O   0  0  0  0  0  0  0  0  0  0  0  0
   -0.1661   -0.7392    0.2744 C   0  0  0  0  0  0  0  0  0  0  0  0
   -1.0239   -0.5857    1.3622 O   0  0  0  0  0  0  0  0  0  0  0  0
   -0.8962   -1.5522    2.3258 C   0  0  0  0  0  0  0  0  0  0  0  0
    2.7816    3.2017   -2.4827 H   0  0  0  0  0  0  0  0  0  0  0  0
   -1.5388    0.3941   -0.9238 H   0  0  0  0  0  0  0  0  0  0  0  0
   -0.6185    1.4235    0.9630 H   0  0  0  0  0  0  0  0  0  0  0  0
   -0.3640   -1.7192   -0.1827 H   0  0  0  0  0  0  0  0  0  0  0  0
    0.9045   -0.7199    0.5678 H   0  0  0  0  0  0  0  0  0  0  0  0
   -1.1126   -2.5563    1.8866 H   0  0  0  0  0  0  0  0  0  0  0  0
    0.1446   -1.6340    2.7315 H   0  0  0  0  0  0  0  0  0  0  0  0
   -1.6115   -1.3087    3.1325 H   0  0  0  0  0  0  0  0  0  0  0  0
  1  2  3  0
  2  3  1  0
  3  4  2  0
  3  5  1  0
  5  6  1  0
  5  7  1  0
  7  8  1  0
  8  9  1  0
  1 10  1  0
  5 11  1  0
  6 12  1  0
  7 13  1  0
  7 14  1  0
  9 15  1  0
  9 16  1  0
  9 17  1  0
M  END
