
     RDKit          3D

 17 18  0  0  0  0  0  0  0  0999 V2000
    4.0607    0.5870   -0.0034 C   0  0  0  0  0  0  0  0  0  0  0  0
    2.8654    0.5829    0.1625 C   0  0  0  0  0  0  0  0  0  0  0  0
    1.4047    0.5675    0.3487 C   0  0  0  0  0  0  0  0  0  0  0  0
    0.9709   -0.5823    1.1435 O   0  0  0  0  0  0  0  0  0  0  0  0
    0.6575   -0.4724   -0.2760 C   0  0  0  0  0  0  0  0  0  0  0  0
   -0.8315   -0.3836   -0.5003 C   0  0  0  0  0  0  0  0  0  0  0  0
   -1.5641    0.4471    0.5578 C   0  0  0  0  0  0  0  0  0  0  0  0
   -2.6275   -0.5830    0.1809 C   0  0  0  0  0  0  0  0  0  0  0  0
   -1.5622   -1.4821   -0.0340 O   0  0  0  0  0  0  0  0  0  0  0  0
    5.1280    0.5952   -0.1455 H   0  0  0  0  0  0  0  0  0  0  0  0
    0.9136    1.5301    0.6592 H   0  0  0  0  0  0  0  0  0  0  0  0
    1.1575   -1.2180   -0.9074 H   0  0  0  0  0  0  0  0  0  0  0  0
   -1.1278   -0.0699   -1.5011 H   0  0  0  0  0  0  0  0  0  0  0  0
   -1.8001    1.4699    0.2641 H   0  0  0  0  0  0  0  0  0  0  0  0
   -1.2278    0.2638    1.5863 H   0  0  0  0  0  0  0  0  0  0  0  0
   -3.1122   -0.3923   -0.8053 H   0  0  0  0  0  0  0  0  0  0  0  0
   -3.3052   -0.8598    0.9959 H   0  0  0  0  0  0  0  0  0  0  0  0
  1  2  3  0
  2  3  1  0
  3  4  1  0
  4  5  1  0
  5  6  1  0
  6  7  1  0
  7  8  1  0
  8  9  1  0
  5  3  1  0
  9  6  1  0
  1 10  1  0
  3 11  1  0
  5 12  1  0
  6 13  1  0
  7 14  1  0
  7 15  1  0
  8 16  1  0
  8 17  1  0
M  END
