
     RDKit          3D

 25 24  0  0  0  0  0  0  0  0999 V2000
   -1.7916    2.0508   -1.4992 C   0  0  0  0  0  0  0  0  0  0  0  0
   -1.3353    1.2681   -0.7032 C   0  0  0  0  0  0  0  0  0  0  0  0
   -0.7585    0.3273    0.2574 C   0  0  0  0  0  0  0  0  0  0  0  0
   -1.2195    0.7939    1.6403 C   0  0  0  0  0  0  0  0  0  0  0  0
   -1.2922   -1.0533    0.0449 C   0  0  0  0  0  0  0  0  0  0  0  0
   -0.7687   -2.0846    0.9703 C   0  0  0  0  0  0  0  0  0  0  0  0
    0.7211    0.4400    0.2271 C   0  0  0  0  0  0  0  0  0  0  0  0
    1.3264    0.1357   -1.1200 C   0  0  0  0  0  0  0  0  0  0  0  0
    2.8208    0.2557   -1.1260 C   0  0  0  0  0  0  0  0  0  0  0  0
   -2.2137    2.7381   -2.2116 H   0  0  0  0  0  0  0  0  0  0  0  0
   -0.4928    0.4887    2.4185 H   0  0  0  0  0  0  0  0  0  0  0  0
   -2.1860    0.3037    1.9013 H   0  0  0  0  0  0  0  0  0  0  0  0
   -1.3889    1.8864    1.6526 H   0  0  0  0  0  0  0  0  0  0  0  0
   -2.4008   -1.0565    0.0710 H   0  0  0  0  0  0  0  0  0  0  0  0
   -1.0269   -1.3452   -1.0125 H   0  0  0  0  0  0  0  0  0  0  0  0
   -0.1153   -2.8268    0.4245 H   0  0  0  0  0  0  0  0  0  0  0  0
   -0.2083   -1.6821    1.8364 H   0  0  0  0  0  0  0  0  0  0  0  0
   -1.5934   -2.6969    1.3980 H   0  0  0  0  0  0  0  0  0  0  0  0
    0.9820    1.5018    0.4566 H   0  0  0  0  0  0  0  0  0  0  0  0
    1.1723   -0.1593    1.0399 H   0  0  0  0  0  0  0  0  0  0  0  0
    1.0833   -0.9254   -1.4149 H   0  0  0  0  0  0  0  0  0  0  0  0
    0.9256    0.7928   -1.8929 H   0  0  0  0  0  0  0  0  0  0  0  0
    3.2013    0.7921   -0.2102 H   0  0  0  0  0  0  0  0  0  0  0  0
    3.3416   -0.7338   -1.1247 H   0  0  0  0  0  0  0  0  0  0  0  0
    3.2174    0.7890   -2.0235 H   0  0  0  0  0  0  0  0  0  0  0  0
  1  2  3  0
  2  3  1  0
  3  4  1  0
  3  5  1  0
  5  6  1  0
  3  7  1  0
  7  8  1  0
  8  9  1  0
  1 10  1  0
  4 11  1  0
  4 12  1  0
  4 13  1  0
  5 14  1  0
  5 15  1  0
  6 16  1  0
  6 17  1  0
  6 18  1  0
  7 19  1  0
  7 20  1  0
  8 21  1  0
  8 22  1  0
  9 23  1  0
  9 24  1  0
  9 25  1  0
M  END
