
     RDKit          3D

 19 20  0  0  0  0  0  0  0  0999 V2000
    2.9567    1.3457   -1.3891 C   0  0  0  0  0  0  0  0  0  0  0  0
    1.9701    0.8181   -0.8400 C   0  0  0  0  0  0  0  0  0  0  0  0
    0.7653    0.1492   -0.1459 C   0  0  0  0  0  0  0  0  0  0  0  0
    0.7173   -1.2805   -0.5768 C   0  0  0  0  0  0  0  0  0  0  0  0
   -0.3788   -0.4199   -0.9212 C   0  0  0  0  0  0  0  0  0  0  0  0
   -1.2861   -0.1504    0.2770 C   0  0  0  0  0  0  0  0  0  0  0  0
   -1.0306   -1.0466    1.4661 C   0  0  0  0  0  0  0  0  0  0  0  0
   -2.5422    0.2301   -0.0305 O   0  0  0  0  0  0  0  0  0  0  0  0
   -0.2080    1.0064    0.4879 C   0  0  0  0  0  0  0  0  0  0  0  0
    3.7024    1.7260   -1.7965 H   0  0  0  0  0  0  0  0  0  0  0  0
    0.6765   -2.1015    0.0912 H   0  0  0  0  0  0  0  0  0  0  0  0
    1.3319   -1.5289   -1.5228 H   0  0  0  0  0  0  0  0  0  0  0  0
   -0.6189   -0.0041   -1.8806 H   0  0  0  0  0  0  0  0  0  0  0  0
   -1.7440   -0.8689    2.2861 H   0  0  0  0  0  0  0  0  0  0  0  0
   -1.0466   -2.1555    1.2317 H   0  0  0  0  0  0  0  0  0  0  0  0
    0.0407   -0.9312    1.8207 H   0  0  0  0  0  0  0  0  0  0  0  0
   -2.5610    1.2320   -0.0911 H   0  0  0  0  0  0  0  0  0  0  0  0
   -0.6670    1.8566   -0.0193 H   0  0  0  0  0  0  0  0  0  0  0  0
   -0.0778    1.2479    1.5531 H   0  0  0  0  0  0  0  0  0  0  0  0
  1  2  3  0
  2  3  1  0
  3  4  1  0
  4  5  1  0
  5  6  1  0
  6  7  1  0
  6  8  1  0
  6  9  1  0
  5  3  1  0
  9  3  1  0
  1 10  1  0
  4 11  1  0
  4 12  1  0
  5 13  1  0
  7 14  1  0
  7 15  1  0
  7 16  1  0
  8 17  1  0
  9 18  1  0
  9 19  1  0
M  END
