
     RDKit          3D

 16 15  0  0  0  0  0  0  0  0999 V2000
    2.2443   -1.4871    0.9145 C   0  0  0  0  0  0  0  0  0  0  0  0
    1.3294   -0.6841    0.6069 C   0  0  0  0  0  0  0  0  0  0  0  0
    0.2316    0.2553    0.2224 C   0  0  0  0  0  0  0  0  0  0  0  0
    0.8755    1.3680   -0.5579 C   0  0  0  0  0  0  0  0  0  0  0  0
   -0.3797    0.7564    1.3473 O   0  0  0  0  0  0  0  0  0  0  0  0
   -0.7195   -0.4641   -0.6693 C   0  0  0  0  0  0  0  0  0  0  0  0
   -2.1681   -0.6014   -0.3245 C   0  0  0  0  0  0  0  0  0  0  0  0
   -0.3494   -0.9668   -1.7095 O   0  0  0  0  0  0  0  0  0  0  0  0
    2.9806   -2.1348    1.1441 H   0  0  0  0  0  0  0  0  0  0  0  0
    1.9910    1.3513   -0.3466 H   0  0  0  0  0  0  0  0  0  0  0  0
    0.8241    1.0779   -1.6340 H   0  0  0  0  0  0  0  0  0  0  0  0
    0.4301    2.3292   -0.3225 H   0  0  0  0  0  0  0  0  0  0  0  0
    0.3322    1.0137    2.0047 H   0  0  0  0  0  0  0  0  0  0  0  0
   -2.5586    0.3930   -0.0071 H   0  0  0  0  0  0  0  0  0  0  0  0
   -2.3058   -1.2853    0.5408 H   0  0  0  0  0  0  0  0  0  0  0  0
   -2.7577   -0.9212   -1.2093 H   0  0  0  0  0  0  0  0  0  0  0  0
  1  2  3  0
  2  3  1  0
  3  4  1  0
  3  5  1  0
  3  6  1  0
  6  7  1  0
  6  8  2  0
  1  9  1  0
  4 10  1  0
  4 11  1  0
  4 12  1  0
  5 13  1  0
  7 14  1  0
  7 15  1  0
  7 16  1  0
M  END
