
     RDKit          3D

 19 19  0  0  0  0  0  0  0  0999 V2000
    3.1048    1.4639    1.6474 C   0  0  0  0  0  0  0  0  0  0  0  0
    2.0991    0.9401    1.1717 C   0  0  0  0  0  0  0  0  0  0  0  0
    0.8602    0.2663    0.5897 C   0  0  0  0  0  0  0  0  0  0  0  0
   -0.2833    0.7325    0.9701 C   0  0  0  0  0  0  0  0  0  0  0  0
   -1.6062    0.2812    0.5922 C   0  0  0  0  0  0  0  0  0  0  0  0
   -1.5430    0.0944   -0.9626 C   0  0  0  0  0  0  0  0  0  0  0  0
   -0.9488   -1.2732   -1.2273 C   0  0  0  0  0  0  0  0  0  0  0  0
    0.2815   -1.5461   -0.8205 O   0  0  0  0  0  0  0  0  0  0  0  0
    1.2286   -0.7963   -0.3505 C   0  0  0  0  0  0  0  0  0  0  0  0
    4.0167    1.9424    2.1006 H   0  0  0  0  0  0  0  0  0  0  0  0
   -0.2488    1.5875    1.6697 H   0  0  0  0  0  0  0  0  0  0  0  0
   -2.3727    1.0528    0.7542 H   0  0  0  0  0  0  0  0  0  0  0  0
   -1.9847   -0.6658    0.9629 H   0  0  0  0  0  0  0  0  0  0  0  0
   -2.5678    0.2216   -1.3038 H   0  0  0  0  0  0  0  0  0  0  0  0
   -0.9181    0.9101   -1.3292 H   0  0  0  0  0  0  0  0  0  0  0  0
   -1.6887   -1.9601   -0.6168 H   0  0  0  0  0  0  0  0  0  0  0  0
   -1.2466   -1.5888   -2.2801 H   0  0  0  0  0  0  0  0  0  0  0  0
    1.8021   -0.2113   -1.1855 H   0  0  0  0  0  0  0  0  0  0  0  0
    2.0156   -1.4511    0.1593 H   0  0  0  0  0  0  0  0  0  0  0  0
  1  2  3  0
  2  3  1  0
  3  4  2  0
  4  5  1  0
  5  6  1  0
  6  7  1  0
  7  8  1  0
  8  9  1  0
  9  3  1  0
  1 10  1  0
  4 11  1  0
  5 12  1  0
  5 13  1  0
  6 14  1  0
  6 15  1  0
  7 16  1  0
  7 17  1  0
  9 18  1  0
  9 19  1  0
M  END
