
     RDKit          3D

 15 16  0  0  0  0  0  0  0  0999 V2000
    2.4833   -0.6565   -1.4698 C   0  0  0  0  0  0  0  0  0  0  0  0
    1.1612   -0.0035   -1.1323 C   0  0  0  0  0  0  0  0  0  0  0  0
    0.2700    0.4545   -0.9104 C   0  0  0  0  0  0  0  0  0  0  0  0
    0.1646    1.3408    0.4233 C   0  0  0  0  0  0  0  0  0  0  0  0
    1.0677    0.9226    1.3893 O   0  0  0  0  0  0  0  0  0  0  0  0
    0.5425   -0.3064    1.4505 C   0  0  0  0  0  0  0  0  0  0  0  0
    0.4332   -1.4552    1.7808 O   0  0  0  0  0  0  0  0  0  0  0  0
   -0.6118    0.1990    0.3697 C   0  0  0  0  0  0  0  0  0  0  0  0
   -1.8238   -0.4793    0.2977 C   0  0  0  0  0  0  0  0  0  0  0  0
    3.5542   -1.1945   -1.7632 H   0  0  0  0  0  0  0  0  0  0  0  0
   -0.5026    1.1498   -1.6033 H   0  0  0  0  0  0  0  0  0  0  0  0
   -0.1460    2.3768    0.2615 H   0  0  0  0  0  0  0  0  0  0  0  0
   -2.7975   -0.0638    0.7110 H   0  0  0  0  0  0  0  0  0  0  0  0
   -1.7154   -1.4627    0.9700 H   0  0  0  0  0  0  0  0  0  0  0  0
   -2.0796   -0.8218   -0.7751 H   0  0  0  0  0  0  0  0  0  0  0  0
  1  2  3  0
  2  3  1  0
  3  4  1  0
  4  5  1  0
  5  6  1  0
  6  7  2  0
  6  8  1  0
  8  9  1  0
  8  3  1  0
  8  4  1  0
  1 10  1  0
  3 11  1  0
  4 12  1  0
  9 13  1  0
  9 14  1  0
  9 15  1  0
M  END
