
     RDKit          3D

 17 17  0  0  0  0  0  0  0  0999 V2000
    3.4559    0.7749    0.1881 C   0  0  0  0  0  0  0  0  0  0  0  0
    2.4120    0.2101   -0.0521 C   0  0  0  0  0  0  0  0  0  0  0  0
    1.1665   -0.4691   -0.3401 C   0  0  0  0  0  0  0  0  0  0  0  0
    1.1838   -1.2465   -1.3298 O   0  0  0  0  0  0  0  0  0  0  0  0
   -0.0177   -0.2327    0.5004 C   0  0  0  0  0  0  0  0  0  0  0  0
   -1.1555   -1.0709   -0.0375 C   0  0  0  0  0  0  0  0  0  0  0  0
   -1.6027   -0.2249   -1.2121 C   0  0  0  0  0  0  0  0  0  0  0  0
   -0.9399    0.9753   -1.1356 O   0  0  0  0  0  0  0  0  0  0  0  0
   -0.6202    1.1389    0.2223 C   0  0  0  0  0  0  0  0  0  0  0  0
    4.3594    1.2682    0.3784 H   0  0  0  0  0  0  0  0  0  0  0  0
    0.1644   -0.3893    1.5751 H   0  0  0  0  0  0  0  0  0  0  0  0
   -1.9387   -1.0868    0.7392 H   0  0  0  0  0  0  0  0  0  0  0  0
   -0.8391   -2.0836   -0.3423 H   0  0  0  0  0  0  0  0  0  0  0  0
   -1.4408   -0.7528   -2.1895 H   0  0  0  0  0  0  0  0  0  0  0  0
   -2.6979   -0.0061   -1.0977 H   0  0  0  0  0  0  0  0  0  0  0  0
   -1.5786    1.2396    0.7531 H   0  0  0  0  0  0  0  0  0  0  0  0
    0.0891    1.9558    0.3849 H   0  0  0  0  0  0  0  0  0  0  0  0
  1  2  3  0
  2  3  1  0
  3  4  2  0
  3  5  1  0
  5  6  1  0
  6  7  1  0
  7  8  1  0
  8  9  1  0
  9  5  1  0
  1 10  1  0
  5 11  1  0
  6 12  1  0
  6 13  1  0
  7 14  1  0
  7 15  1  0
  9 16  1  0
  9 17  1  0
M  END
