
     RDKit          3D

 15 15  0  0  0  0  0  0  0  0999 V2000
    1.9544    2.5440   -0.3323 C   0  0  0  0  0  0  0  0  0  0  0  0
    1.1537    1.7360   -0.2360 C   0  0  0  0  0  0  0  0  0  0  0  0
    0.1124    0.6564   -0.1168 C   0  0  0  0  0  0  0  0  0  0  0  0
   -1.0098    0.7092    0.5343 C   0  0  0  0  0  0  0  0  0  0  0  0
   -1.7186   -0.6242    0.3511 C   0  0  0  0  0  0  0  0  0  0  0  0
   -1.1554   -1.0596   -0.8560 O   0  0  0  0  0  0  0  0  0  0  0  0
    0.2005   -0.6646   -0.7497 C   0  0  0  0  0  0  0  0  0  0  0  0
    0.8100   -1.6780    0.1721 C   0  0  0  0  0  0  0  0  0  0  0  0
    0.1729   -2.6414    0.4887 O   0  0  0  0  0  0  0  0  0  0  0  0
    2.6930    3.2646   -0.4233 H   0  0  0  0  0  0  0  0  0  0  0  0
   -1.3612    1.5560    1.1058 H   0  0  0  0  0  0  0  0  0  0  0  0
   -1.5920   -1.2855    1.1935 H   0  0  0  0  0  0  0  0  0  0  0  0
   -2.7617   -0.3500    0.0977 H   0  0  0  0  0  0  0  0  0  0  0  0
    0.6737   -0.6811   -1.7569 H   0  0  0  0  0  0  0  0  0  0  0  0
    1.8281   -1.4818    0.5277 H   0  0  0  0  0  0  0  0  0  0  0  0
  1  2  3  0
  2  3  1  0
  3  4  2  0
  4  5  1  0
  5  6  1  0
  6  7  1  0
  7  8  1  0
  8  9  2  0
  7  3  1  0
  1 10  1  0
  4 11  1  0
  5 12  1  0
  5 13  1  0
  7 14  1  0
  8 15  1  0
M  END
