
     RDKit          3D

 19 19  0  0  0  0  0  0  0  0999 V2000
    3.2121   -1.8972    1.2092 C   0  0  0  0  0  0  0  0  0  0  0  0
    2.1076   -1.5045    0.8834 C   0  0  0  0  0  0  0  0  0  0  0  0
    0.7685   -1.0539    0.4817 C   0  0  0  0  0  0  0  0  0  0  0  0
    0.8590   -0.0858   -0.4985 O   0  0  0  0  0  0  0  0  0  0  0  0
   -0.4443    0.3035   -0.8392 C   0  0  0  0  0  0  0  0  0  0  0  0
   -1.3223   -0.7938   -1.3686 C   0  0  0  0  0  0  0  0  0  0  0  0
   -0.7227    1.6788   -1.3077 C   0  0  0  0  0  0  0  0  0  0  0  0
   -1.0115    1.3337    0.0987 C   0  0  0  0  0  0  0  0  0  0  0  0
   -0.1741    1.9209    1.0508 O   0  0  0  0  0  0  0  0  0  0  0  0
    4.1803   -2.2260    1.4815 H   0  0  0  0  0  0  0  0  0  0  0  0
    0.1792   -1.9399    0.1187 H   0  0  0  0  0  0  0  0  0  0  0  0
    0.3040   -0.6275    1.4026 H   0  0  0  0  0  0  0  0  0  0  0  0
   -1.9989   -0.4220   -2.1831 H   0  0  0  0  0  0  0  0  0  0  0  0
   -0.6711   -1.5562   -1.8262 H   0  0  0  0  0  0  0  0  0  0  0  0
   -2.0026   -1.2109   -0.5922 H   0  0  0  0  0  0  0  0  0  0  0  0
    0.1690    2.2829   -1.5664 H   0  0  0  0  0  0  0  0  0  0  0  0
   -1.5966    1.8208   -1.9690 H   0  0  0  0  0  0  0  0  0  0  0  0
   -2.0491    1.1944    0.4202 H   0  0  0  0  0  0  0  0  0  0  0  0
    0.2135    2.7825    0.7050 H   0  0  0  0  0  0  0  0  0  0  0  0
  1  2  3  0
  2  3  1  0
  3  4  1  0
  4  5  1  0
  5  6  1  0
  5  7  1  0
  7  8  1  0
  8  9  1  0
  8  5  1  0
  1 10  1  0
  3 11  1  0
  3 12  1  0
  6 13  1  0
  6 14  1  0
  6 15  1  0
  7 16  1  0
  7 17  1  0
  8 18  1  0
  9 19  1  0
M  END
