
     RDKit          3D

 21 21  0  0  0  0  0  0  0  0999 V2000
    3.5859    2.3268   -0.4705 C   0  0  0  0  0  0  0  0  0  0  0  0
    2.9741    1.2709   -0.4016 C   0  0  0  0  0  0  0  0  0  0  0  0
    2.2633   -0.0045   -0.3267 C   0  0  0  0  0  0  0  0  0  0  0  0
    0.7457    0.2191   -0.3331 C   0  0  0  0  0  0  0  0  0  0  0  0
    0.1161   -1.1545   -0.2529 C   0  0  0  0  0  0  0  0  0  0  0  0
   -1.3867   -1.0980   -0.2499 C   0  0  0  0  0  0  0  0  0  0  0  0
   -1.9824   -0.3230    0.8993 C   0  0  0  0  0  0  0  0  0  0  0  0
   -2.8879    0.2297   -0.1808 C   0  0  0  0  0  0  0  0  0  0  0  0
   -1.9045   -0.1340   -1.1081 O   0  0  0  0  0  0  0  0  0  0  0  0
    4.1044    3.2481   -0.5428 H   0  0  0  0  0  0  0  0  0  0  0  0
    2.4783   -0.6113   -1.2307 H   0  0  0  0  0  0  0  0  0  0  0  0
    2.5110   -0.5202    0.6155 H   0  0  0  0  0  0  0  0  0  0  0  0
    0.4611    0.7771   -1.2246 H   0  0  0  0  0  0  0  0  0  0  0  0
    0.4912    0.8430    0.5642 H   0  0  0  0  0  0  0  0  0  0  0  0
    0.5262   -1.6472    0.6420 H   0  0  0  0  0  0  0  0  0  0  0  0
    0.4422   -1.7068   -1.1547 H   0  0  0  0  0  0  0  0  0  0  0  0
   -1.8119   -2.1086   -0.3598 H   0  0  0  0  0  0  0  0  0  0  0  0
   -1.3702    0.4789    1.3183 H   0  0  0  0  0  0  0  0  0  0  0  0
   -2.4725   -1.0125    1.6098 H   0  0  0  0  0  0  0  0  0  0  0  0
   -3.7963   -0.3846   -0.2471 H   0  0  0  0  0  0  0  0  0  0  0  0
   -3.0872    1.3117   -0.1251 H   0  0  0  0  0  0  0  0  0  0  0  0
  1  2  3  0
  2  3  1  0
  3  4  1  0
  4  5  1  0
  5  6  1  0
  6  7  1  0
  7  8  1  0
  8  9  1  0
  9  6  1  0
  1 10  1  0
  3 11  1  0
  3 12  1  0
  4 13  1  0
  4 14  1  0
  5 15  1  0
  5 16  1  0
  6 17  1  0
  7 18  1  0
  7 19  1  0
  8 20  1  0
  8 21  1  0
M  END
