
     RDKit          3D

 14 14  0  0  0  0  0  0  0  0999 V2000
    4.4919   -0.3842    1.0090 C   0  0  0  0  0  0  0  0  0  0  0  0
    2.9554   -0.4231    0.6893 C   0  0  0  0  0  0  0  0  0  0  0  0
    1.9549   -0.4471    0.4719 C   0  0  0  0  0  0  0  0  0  0  0  0
    0.6355   -0.4895    0.1662 C   0  0  0  0  0  0  0  0  0  0  0  0
   -0.7677   -0.5398   -0.1360 C   0  0  0  0  0  0  0  0  0  0  0  0
   -1.3553    0.7821    0.1667 C   0  0  0  0  0  0  0  0  0  0  0  0
   -2.3246    0.1892   -0.9435 C   0  0  0  0  0  0  0  0  0  0  0  0
   -1.0743   -0.1731   -1.5402 O   0  0  0  0  0  0  0  0  0  0  0  0
    5.3551   -0.3714    1.1849 H   0  0  0  0  0  0  0  0  0  0  0  0
   -1.3094   -1.4505    0.0350 H   0  0  0  0  0  0  0  0  0  0  0  0
   -0.8862    1.6310   -0.4639 H   0  0  0  0  0  0  0  0  0  0  0  0
   -1.8786    1.0651    1.0413 H   0  0  0  0  0  0  0  0  0  0  0  0
   -3.0147   -0.4959   -0.5797 H   0  0  0  0  0  0  0  0  0  0  0  0
   -2.7819    1.1072   -1.4585 H   0  0  0  0  0  0  0  0  0  0  0  0
  1  2  3  0
  2  3  1  0
  3  4  3  0
  4  5  1  0
  5  6  1  0
  6  7  1  0
  7  8  1  0
  8  5  1  0
  1  9  1  0
  5 10  1  0
  6 11  1  0
  6 12  1  0
  7 13  1  0
  7 14  1  0
M  END
