
     RDKit          3D

 15 14  0  0  0  0  0  0  0  0999 V2000
   -2.2518    1.7190   -0.2264 C   0  0  0  0  0  0  0  0  0  0  0  0
   -1.8698    0.6090    0.0465 C   0  0  0  0  0  0  0  0  0  0  0  0
   -1.4309   -0.7430    0.3719 C   0  0  0  0  0  0  0  0  0  0  0  0
   -0.2179   -1.1574   -0.4445 C   0  0  0  0  0  0  0  0  0  0  0  0
   -0.4591   -1.1397   -1.7954 O   0  0  0  0  0  0  0  0  0  0  0  0
    0.9380   -0.3142   -0.1336 C   0  0  0  0  0  0  0  0  0  0  0  0
    1.9117    0.3863    0.1122 C   0  0  0  0  0  0  0  0  0  0  0  0
    3.0542    1.2130    0.3833 C   0  0  0  0  0  0  0  0  0  0  0  0
    3.2922    2.1801   -0.3700 O   0  0  0  0  0  0  0  0  0  0  0  0
   -2.5752    2.7050   -0.4748 H   0  0  0  0  0  0  0  0  0  0  0  0
   -1.0742   -0.7375    1.4438 H   0  0  0  0  0  0  0  0  0  0  0  0
   -2.2108   -1.4982    0.3066 H   0  0  0  0  0  0  0  0  0  0  0  0
   -0.0261   -2.2294   -0.1516 H   0  0  0  0  0  0  0  0  0  0  0  0
   -0.8033   -2.0316   -2.0984 H   0  0  0  0  0  0  0  0  0  0  0  0
    3.7229    1.0386    1.2125 H   0  0  0  0  0  0  0  0  0  0  0  0
  1  2  3  0
  2  3  1  0
  3  4  1  0
  4  5  1  0
  4  6  1  0
  6  7  3  0
  7  8  1  0
  8  9  2  0
  1 10  1  0
  3 11  1  0
  3 12  1  0
  4 13  1  0
  5 14  1  0
  8 15  1  0
M  END
