
     RDKit          3D

 19 20  0  0  0  0  0  0  0  0999 V2000
    0.9321   -3.3923    0.5057 C   0  0  0  0  0  0  0  0  0  0  0  0
    0.4194   -2.3395    0.7155 C   0  0  0  0  0  0  0  0  0  0  0  0
   -0.1950   -1.0242    0.9652 C   0  0  0  0  0  0  0  0  0  0  0  0
   -1.3030   -0.7324   -0.0120 C   0  0  0  0  0  0  0  0  0  0  0  0
   -1.2007    0.7518   -0.2135 C   0  0  0  0  0  0  0  0  0  0  0  0
    0.2383    1.0772    0.0718 C   0  0  0  0  0  0  0  0  0  0  0  0
    0.7838    2.2577   -0.6935 C   0  0  0  0  0  0  0  0  0  0  0  0
    0.5877    1.2033    1.4614 O   0  0  0  0  0  0  0  0  0  0  0  0
    0.8602    0.0066    0.6264 C   0  0  0  0  0  0  0  0  0  0  0  0
    1.3996   -4.3274    0.3032 H   0  0  0  0  0  0  0  0  0  0  0  0
   -0.4742   -0.9271    2.0251 H   0  0  0  0  0  0  0  0  0  0  0  0
   -2.2568   -1.0453    0.4535 H   0  0  0  0  0  0  0  0  0  0  0  0
   -1.0824   -1.3155   -0.9402 H   0  0  0  0  0  0  0  0  0  0  0  0
   -1.4642    0.9793   -1.2707 H   0  0  0  0  0  0  0  0  0  0  0  0
   -1.8911    1.3077    0.4514 H   0  0  0  0  0  0  0  0  0  0  0  0
    0.8579    2.0835   -1.7770 H   0  0  0  0  0  0  0  0  0  0  0  0
    1.7686    2.5562   -0.2788 H   0  0  0  0  0  0  0  0  0  0  0  0
    0.0950    3.1241   -0.4699 H   0  0  0  0  0  0  0  0  0  0  0  0
    1.9248   -0.2437    0.7472 H   0  0  0  0  0  0  0  0  0  0  0  0
  1  2  3  0
  2  3  1  0
  3  4  1  0
  4  5  1  0
  5  6  1  0
  6  7  1  0
  6  8  1  0
  8  9  1  0
  9  3  1  0
  9  6  1  0
  1 10  1  0
  3 11  1  0
  4 12  1  0
  4 13  1  0
  5 14  1  0
  5 15  1  0
  7 16  1  0
  7 17  1  0
  7 18  1  0
  9 19  1  0
M  END
