
     RDKit          3D

 21 22  0  0  0  0  0  0  0  0999 V2000
    0.8245   -2.5456    2.4818 C   0  0  0  0  0  0  0  0  0  0  0  0
    1.0930   -1.8350    1.5756 C   0  0  0  0  0  0  0  0  0  0  0  0
    1.4190   -0.9319    0.4635 C   0  0  0  0  0  0  0  0  0  0  0  0
    0.1605   -0.2764    0.0110 C   0  0  0  0  0  0  0  0  0  0  0  0
   -1.0063   -0.9953   -0.4976 C   0  0  0  0  0  0  0  0  0  0  0  0
   -0.1027   -0.4150   -1.5018 C   0  0  0  0  0  0  0  0  0  0  0  0
    0.1253    1.0537   -1.6135 C   0  0  0  0  0  0  0  0  0  0  0  0
    0.0849    1.2329   -0.0910 C   0  0  0  0  0  0  0  0  0  0  0  0
   -1.2672    1.6875    0.4205 C   0  0  0  0  0  0  0  0  0  0  0  0
    0.5898   -3.1674    3.3030 H   0  0  0  0  0  0  0  0  0  0  0  0
    1.8896   -1.5428   -0.3405 H   0  0  0  0  0  0  0  0  0  0  0  0
    2.1498   -0.1553    0.7602 H   0  0  0  0  0  0  0  0  0  0  0  0
   -1.0469   -2.0710   -0.3617 H   0  0  0  0  0  0  0  0  0  0  0  0
   -2.0000   -0.4792   -0.3428 H   0  0  0  0  0  0  0  0  0  0  0  0
    0.5545   -1.0980   -2.0757 H   0  0  0  0  0  0  0  0  0  0  0  0
   -0.6851    1.6478   -2.0682 H   0  0  0  0  0  0  0  0  0  0  0  0
    1.1456    1.2680   -2.0439 H   0  0  0  0  0  0  0  0  0  0  0  0
    0.9462    1.7820    0.2926 H   0  0  0  0  0  0  0  0  0  0  0  0
   -1.9608    1.7015   -0.4350 H   0  0  0  0  0  0  0  0  0  0  0  0
   -1.2228    2.6781    0.9005 H   0  0  0  0  0  0  0  0  0  0  0  0
   -1.6909    0.9704    1.1633 H   0  0  0  0  0  0  0  0  0  0  0  0
  1  2  3  0
  2  3  1  0
  3  4  1  0
  4  5  1  0
  5  6  1  0
  6  7  1  0
  7  8  1  0
  8  9  1  0
  6  4  1  0
  8  4  1  0
  1 10  1  0
  3 11  1  0
  3 12  1  0
  5 13  1  0
  5 14  1  0
  6 15  1  0
  7 16  1  0
  7 17  1  0
  8 18  1  0
  9 19  1  0
  9 20  1  0
  9 21  1  0
M  END
