
     RDKit          3D

 19 19  0  0  0  0  0  0  0  0999 V2000
    0.3790    3.0118   -1.4991 C   0  0  0  0  0  0  0  0  0  0  0  0
    0.0312    2.0989   -0.7600 C   0  0  0  0  0  0  0  0  0  0  0  0
   -0.3599    1.0030    0.1276 C   0  0  0  0  0  0  0  0  0  0  0  0
   -1.5244    0.1930   -0.4054 C   0  0  0  0  0  0  0  0  0  0  0  0
   -1.9634    0.4381   -1.7167 O   0  0  0  0  0  0  0  0  0  0  0  0
   -0.1244   -0.3852   -0.3139 C   0  0  0  0  0  0  0  0  0  0  0  0
    0.0220   -1.5250    0.6153 C   0  0  0  0  0  0  0  0  0  0  0  0
    1.1847   -1.3761    1.5808 C   0  0  0  0  0  0  0  0  0  0  0  0
    1.0487   -0.2452    2.3736 O   0  0  0  0  0  0  0  0  0  0  0  0
    0.6744    3.7930   -2.1510 H   0  0  0  0  0  0  0  0  0  0  0  0
   -0.3921    1.2845    1.2026 H   0  0  0  0  0  0  0  0  0  0  0  0
   -2.2794   -0.1158    0.3323 H   0  0  0  0  0  0  0  0  0  0  0  0
   -1.5275   -0.2509   -2.2874 H   0  0  0  0  0  0  0  0  0  0  0  0
    0.4567   -0.4787   -1.2697 H   0  0  0  0  0  0  0  0  0  0  0  0
   -0.8919   -1.7070    1.1829 H   0  0  0  0  0  0  0  0  0  0  0  0
    0.2393   -2.4519    0.0249 H   0  0  0  0  0  0  0  0  0  0  0  0
    2.1580   -1.4053    1.0517 H   0  0  0  0  0  0  0  0  0  0  0  0
    1.1675   -2.3111    2.2072 H   0  0  0  0  0  0  0  0  0  0  0  0
    1.7014    0.4298    2.0515 H   0  0  0  0  0  0  0  0  0  0  0  0
  1  2  3  0
  2  3  1  0
  3  4  1  0
  4  5  1  0
  4  6  1  0
  6  7  1  0
  7  8  1  0
  8  9  1  0
  6  3  1  0
  1 10  1  0
  3 11  1  0
  4 12  1  0
  5 13  1  0
  6 14  1  0
  7 15  1  0
  7 16  1  0
  8 17  1  0
  8 18  1  0
  9 19  1  0
M  END
