
     RDKit          3D

 16 16  0  0  0  0  0  0  0  0999 V2000
    0.6989   -2.9386    0.6492 C   0  0  0  0  0  0  0  0  0  0  0  0
    0.4598   -1.8237    0.0304 C   0  0  0  0  0  0  0  0  0  0  0  0
    0.1750   -0.5538   -0.6507 C   0  0  0  0  0  0  0  0  0  0  0  0
   -0.8197    0.3396   -0.4162 C   0  0  0  0  0  0  0  0  0  0  0  0
   -2.0268    0.0496    0.4899 C   0  0  0  0  0  0  0  0  0  0  0  0
    0.4937    0.6070    0.5276 C   0  0  0  0  0  0  0  0  0  0  0  0
    1.4129    1.3374   -0.1470 C   0  0  0  0  0  0  0  0  0  0  0  0
    2.2072    1.9430   -0.7219 C   0  0  0  0  0  0  0  0  0  0  0  0
    0.9303   -4.0007    1.2636 H   0  0  0  0  0  0  0  0  0  0  0  0
    0.8831   -0.5487   -1.5105 H   0  0  0  0  0  0  0  0  0  0  0  0
   -0.9743    1.1054   -1.1752 H   0  0  0  0  0  0  0  0  0  0  0  0
   -1.8159    0.6350    1.4290 H   0  0  0  0  0  0  0  0  0  0  0  0
   -2.0604   -1.0140    0.8142 H   0  0  0  0  0  0  0  0  0  0  0  0
   -2.9718    0.4000    0.0882 H   0  0  0  0  0  0  0  0  0  0  0  0
   -0.0666    1.5218    1.0012 H   0  0  0  0  0  0  0  0  0  0  0  0
    3.4745    2.9408   -1.6720 H   0  0  0  0  0  0  0  0  0  0  0  0
  1  2  3  0
  2  3  1  0
  3  4  1  0
  4  5  1  0
  4  6  1  0
  6  7  1  0
  7  8  3  0
  6  3  1  0
  1  9  1  0
  3 10  1  0
  4 11  1  0
  5 12  1  0
  5 13  1  0
  5 14  1  0
  6 15  1  0
  8 16  1  0
M  END
