
     RDKit          3D

 16 15  0  0  0  0  0  0  0  0999 V2000
   -2.4990    1.0626    0.6049 C   0  0  0  0  0  0  0  0  0  0  0  0
   -2.1416    0.0980   -0.0231 C   0  0  0  0  0  0  0  0  0  0  0  0
   -1.7280   -1.0915   -0.7897 C   0  0  0  0  0  0  0  0  0  0  0  0
   -0.4622   -0.7620   -1.5032 C   0  0  0  0  0  0  0  0  0  0  0  0
    0.5564   -0.4092   -0.5288 C   0  0  0  0  0  0  0  0  0  0  0  0
    1.4169   -0.1188    0.2655 C   0  0  0  0  0  0  0  0  0  0  0  0
    2.4802    0.2253    1.2155 C   0  0  0  0  0  0  0  0  0  0  0  0
    2.3100    1.5315    1.7045 O   0  0  0  0  0  0  0  0  0  0  0  0
   -2.8180    1.9349    1.1511 H   0  0  0  0  0  0  0  0  0  0  0  0
   -2.5414   -1.4378   -1.4550 H   0  0  0  0  0  0  0  0  0  0  0  0
   -1.5326   -1.9379   -0.0720 H   0  0  0  0  0  0  0  0  0  0  0  0
   -0.6545    0.0624   -2.2193 H   0  0  0  0  0  0  0  0  0  0  0  0
   -0.1349   -1.6294   -2.1440 H   0  0  0  0  0  0  0  0  0  0  0  0
    2.4222   -0.5095    2.0533 H   0  0  0  0  0  0  0  0  0  0  0  0
    3.4708    0.2062    0.7063 H   0  0  0  0  0  0  0  0  0  0  0  0
    1.8558    2.0864    1.0340 H   0  0  0  0  0  0  0  0  0  0  0  0
  1  2  3  0
  2  3  1  0
  3  4  1  0
  4  5  1  0
  5  6  3  0
  6  7  1  0
  7  8  1  0
  1  9  1  0
  3 10  1  0
  3 11  1  0
  4 12  1  0
  4 13  1  0
  7 14  1  0
  7 15  1  0
  8 16  1  0
M  END
