
     RDKit          3D

 18 18  0  0  0  0  0  0  0  0999 V2000
    3.3858   -0.7321    0.3691 C   0  0  0  0  0  0  0  0  0  0  0  0
    2.1988   -0.7265    0.1588 C   0  0  0  0  0  0  0  0  0  0  0  0
    0.7457   -0.6981   -0.0969 C   0  0  0  0  0  0  0  0  0  0  0  0
    0.2284    0.6767   -0.4479 C   0  0  0  0  0  0  0  0  0  0  0  0
   -0.8369    0.4943    0.5820 C   0  0  0  0  0  0  0  0  0  0  0  0
   -2.1374   -0.0930    0.1105 C   0  0  0  0  0  0  0  0  0  0  0  0
   -1.0056    1.6176    1.3714 O   0  0  0  0  0  0  0  0  0  0  0  0
    0.0185   -0.5811    1.2221 C   0  0  0  0  0  0  0  0  0  0  0  0
    4.4475   -0.7438    0.5423 H   0  0  0  0  0  0  0  0  0  0  0  0
    0.4034   -1.4841   -0.7661 H   0  0  0  0  0  0  0  0  0  0  0  0
    0.9765    1.4324   -0.1850 H   0  0  0  0  0  0  0  0  0  0  0  0
   -0.1191    0.8019   -1.4929 H   0  0  0  0  0  0  0  0  0  0  0  0
   -2.7641    0.7463   -0.2580 H   0  0  0  0  0  0  0  0  0  0  0  0
   -2.6308   -0.5450    1.0020 H   0  0  0  0  0  0  0  0  0  0  0  0
   -1.9966   -0.8985   -0.6144 H   0  0  0  0  0  0  0  0  0  0  0  0
   -1.0449    2.4146    0.7683 H   0  0  0  0  0  0  0  0  0  0  0  0
    0.6540   -0.1889    2.0485 H   0  0  0  0  0  0  0  0  0  0  0  0
   -0.5230   -1.4929    1.5335 H   0  0  0  0  0  0  0  0  0  0  0  0
  1  2  3  0
  2  3  1  0
  3  4  1  0
  4  5  1  0
  5  6  1  0
  5  7  1  0
  5  8  1  0
  8  3  1  0
  1  9  1  0
  3 10  1  0
  4 11  1  0
  4 12  1  0
  6 13  1  0
  6 14  1  0
  6 15  1  0
  7 16  1  0
  8 17  1  0
  8 18  1  0
M  END
