
     RDKit          3D

 21 21  0  0  0  0  0  0  0  0999 V2000
   -4.0109    0.6845   -0.7678 C   0  0  0  0  0  0  0  0  0  0  0  0
   -2.9156    0.1714   -1.0441 C   0  0  0  0  0  0  0  0  0  0  0  0
   -1.6111   -0.4292   -1.3481 C   0  0  0  0  0  0  0  0  0  0  0  0
   -0.5407    0.4261   -1.9438 C   0  0  0  0  0  0  0  0  0  0  0  0
   -0.4840    0.0368   -0.4966 C   0  0  0  0  0  0  0  0  0  0  0  0
    0.4630   -1.0312   -0.0195 C   0  0  0  0  0  0  0  0  0  0  0  0
    1.5747   -0.4675    0.8355 C   0  0  0  0  0  0  0  0  0  0  0  0
    1.0095    0.1566    1.9461 O   0  0  0  0  0  0  0  0  0  0  0  0
    2.0817    0.6584    2.7075 C   0  0  0  0  0  0  0  0  0  0  0  0
   -4.9241    1.1045   -0.5211 H   0  0  0  0  0  0  0  0  0  0  0  0
   -1.6572   -1.5118   -1.5869 H   0  0  0  0  0  0  0  0  0  0  0  0
    0.1840   -0.0006   -2.6720 H   0  0  0  0  0  0  0  0  0  0  0  0
   -0.8466    1.4654   -2.1948 H   0  0  0  0  0  0  0  0  0  0  0  0
   -0.6329    0.8451    0.2525 H   0  0  0  0  0  0  0  0  0  0  0  0
    0.9135   -1.5100   -0.9178 H   0  0  0  0  0  0  0  0  0  0  0  0
   -0.0874   -1.7748    0.6103 H   0  0  0  0  0  0  0  0  0  0  0  0
    2.2414    0.2029    0.2497 H   0  0  0  0  0  0  0  0  0  0  0  0
    2.1877   -1.3284    1.1852 H   0  0  0  0  0  0  0  0  0  0  0  0
    2.6970   -0.2192    2.9860 H   0  0  0  0  0  0  0  0  0  0  0  0
    1.7007    1.1494    3.6248 H   0  0  0  0  0  0  0  0  0  0  0  0
    2.6572    1.3717    2.0786 H   0  0  0  0  0  0  0  0  0  0  0  0
  1  2  3  0
  2  3  1  0
  3  4  1  0
  4  5  1  0
  5  6  1  0
  6  7  1  0
  7  8  1  0
  8  9  1  0
  5  3  1  0
  1 10  1  0
  3 11  1  0
  4 12  1  0
  4 13  1  0
  5 14  1  0
  6 15  1  0
  6 16  1  0
  7 17  1  0
  7 18  1  0
  9 19  1  0
  9 20  1  0
  9 21  1  0
M  END
