
     RDKit          3D

 19 20  0  0  0  0  0  0  0  0999 V2000
    2.2115   -1.9384    0.0014 C   0  0  0  0  0  0  0  0  0  0  0  0
    1.7454   -0.8388   -0.0734 C   0  0  0  0  0  0  0  0  0  0  0  0
    1.1977    0.5022   -0.1475 C   0  0  0  0  0  0  0  0  0  0  0  0
    0.9340    1.1018   -1.5216 C   0  0  0  0  0  0  0  0  0  0  0  0
   -0.1627    0.7824   -0.5931 C   0  0  0  0  0  0  0  0  0  0  0  0
   -1.1808   -0.2743   -0.8834 C   0  0  0  0  0  0  0  0  0  0  0  0
   -1.4765   -1.1373    0.3256 C   0  0  0  0  0  0  0  0  0  0  0  0
   -0.2931    1.6579    0.6145 C   0  0  0  0  0  0  0  0  0  0  0  0
    1.0103    1.2575    0.9775 O   0  0  0  0  0  0  0  0  0  0  0  0
    2.6335   -2.9159    0.0639 H   0  0  0  0  0  0  0  0  0  0  0  0
    1.0891    0.3731   -2.3496 H   0  0  0  0  0  0  0  0  0  0  0  0
    1.3495    2.1128   -1.6295 H   0  0  0  0  0  0  0  0  0  0  0  0
   -0.8472   -0.9035   -1.7130 H   0  0  0  0  0  0  0  0  0  0  0  0
   -2.1329    0.2210   -1.1670 H   0  0  0  0  0  0  0  0  0  0  0  0
   -2.5541   -1.1543    0.5838 H   0  0  0  0  0  0  0  0  0  0  0  0
   -1.1715   -2.1936    0.1816 H   0  0  0  0  0  0  0  0  0  0  0  0
   -0.9401   -0.7675    1.2224 H   0  0  0  0  0  0  0  0  0  0  0  0
   -1.0728    1.3970    1.3422 H   0  0  0  0  0  0  0  0  0  0  0  0
   -0.3392    2.7178    0.3228 H   0  0  0  0  0  0  0  0  0  0  0  0
  1  2  3  0
  2  3  1  0
  3  4  1  0
  4  5  1  0
  5  6  1  0
  6  7  1  0
  5  8  1  0
  8  9  1  0
  5  3  1  0
  9  3  1  0
  1 10  1  0
  4 11  1  0
  4 12  1  0
  6 13  1  0
  6 14  1  0
  7 15  1  0
  7 16  1  0
  7 17  1  0
  8 18  1  0
  8 19  1  0
M  END
