
     RDKit          3D

 19 19  0  0  0  0  0  0  0  0999 V2000
    3.5732   -1.6462   -0.0605 C   0  0  0  0  0  0  0  0  0  0  0  0
    2.2841   -0.5036    0.3542 C   0  0  0  0  0  0  0  0  0  0  0  0
    1.4043    0.2963    0.6297 C   0  0  0  0  0  0  0  0  0  0  0  0
    1.6442    0.8523    1.9335 O   0  0  0  0  0  0  0  0  0  0  0  0
    0.0254   -0.1979    0.4317 C   0  0  0  0  0  0  0  0  0  0  0  0
   -0.3349   -0.4418   -1.1130 C   0  0  0  0  0  0  0  0  0  0  0  0
   -1.1011    0.4562   -0.2070 C   0  0  0  0  0  0  0  0  0  0  0  0
   -2.5073   -0.0497    0.0440 C   0  0  0  0  0  0  0  0  0  0  0  0
   -1.0890    1.8101   -0.6337 O   0  0  0  0  0  0  0  0  0  0  0  0
    4.2657   -2.2588   -0.2852 H   0  0  0  0  0  0  0  0  0  0  0  0
    1.5294    1.2240   -0.1345 H   0  0  0  0  0  0  0  0  0  0  0  0
    1.1076    1.6651    1.9856 H   0  0  0  0  0  0  0  0  0  0  0  0
   -0.2337   -1.1708    1.0312 H   0  0  0  0  0  0  0  0  0  0  0  0
   -0.5042   -1.4511   -1.4235 H   0  0  0  0  0  0  0  0  0  0  0  0
    0.4166    0.0959   -1.8152 H   0  0  0  0  0  0  0  0  0  0  0  0
   -2.9582    0.5151    0.8850 H   0  0  0  0  0  0  0  0  0  0  0  0
   -3.1173   -0.0037   -0.8976 H   0  0  0  0  0  0  0  0  0  0  0  0
   -2.4004   -1.1203    0.3320 H   0  0  0  0  0  0  0  0  0  0  0  0
   -2.0047    1.9289   -1.0567 H   0  0  0  0  0  0  0  0  0  0  0  0
  1  2  3  0
  2  3  1  0
  3  4  1  0
  3  5  1  0
  5  6  1  0
  6  7  1  0
  7  8  1  0
  7  9  1  0
  7  5  1  0
  1 10  1  0
  3 11  1  0
  4 12  1  0
  5 13  1  0
  6 14  1  0
  6 15  1  0
  8 16  1  0
  8 17  1  0
  8 18  1  0
  9 19  1  0
M  END
