
     RDKit          3D

 17 18  0  0  0  0  0  0  0  0999 V2000
    3.1803    0.0096   -0.0618 C   0  0  0  0  0  0  0  0  0  0  0  0
    2.0088   -0.1995   -0.2682 C   0  0  0  0  0  0  0  0  0  0  0  0
    0.5807   -0.4287   -0.5231 C   0  0  0  0  0  0  0  0  0  0  0  0
    0.2872   -1.7278   -0.1881 O   0  0  0  0  0  0  0  0  0  0  0  0
   -1.0972   -1.7444   -0.0251 C   0  0  0  0  0  0  0  0  0  0  0  0
   -1.4810   -0.4239    0.5959 C   0  0  0  0  0  0  0  0  0  0  0  0
   -0.6468    0.0035    1.6071 O   0  0  0  0  0  0  0  0  0  0  0  0
   -0.2908    0.4287    0.3335 C   0  0  0  0  0  0  0  0  0  0  0  0
   -0.4381    1.8932    0.0177 C   0  0  0  0  0  0  0  0  0  0  0  0
    4.2259    0.1833    0.1081 H   0  0  0  0  0  0  0  0  0  0  0  0
    0.3326   -0.2948   -1.6003 H   0  0  0  0  0  0  0  0  0  0  0  0
   -1.3149   -2.5589    0.7056 H   0  0  0  0  0  0  0  0  0  0  0  0
   -1.6423   -1.9773   -0.9420 H   0  0  0  0  0  0  0  0  0  0  0  0
   -2.4591    0.0207    0.4288 H   0  0  0  0  0  0  0  0  0  0  0  0
   -0.8929    2.0693   -0.9775 H   0  0  0  0  0  0  0  0  0  0  0  0
    0.5979    2.3262   -0.0384 H   0  0  0  0  0  0  0  0  0  0  0  0
   -0.9501    2.4209    0.8275 H   0  0  0  0  0  0  0  0  0  0  0  0
  1  2  3  0
  2  3  1  0
  3  4  1  0
  4  5  1  0
  5  6  1  0
  6  7  1  0
  7  8  1  0
  8  9  1  0
  8  3  1  0
  8  6  1  0
  1 10  1  0
  3 11  1  0
  5 12  1  0
  5 13  1  0
  6 14  1  0
  9 15  1  0
  9 16  1  0
  9 17  1  0
M  END
