
     RDKit          3D

 22 21  0  0  0  0  0  0  0  0999 V2000
    1.8772   -0.1519   -3.2004 C   0  0  0  0  0  0  0  0  0  0  0  0
    1.4781    0.2093   -2.0759 C   0  0  0  0  0  0  0  0  0  0  0  0
    1.0101    0.6059   -0.8174 C   0  0  0  0  0  0  0  0  0  0  0  0
   -0.0548   -0.0883   -0.1762 C   0  0  0  0  0  0  0  0  0  0  0  0
   -1.4602   -0.1007   -0.6852 C   0  0  0  0  0  0  0  0  0  0  0  0
   -2.0580    1.2843   -0.8161 C   0  0  0  0  0  0  0  0  0  0  0  0
   -0.0216   -0.3118    1.3071 C   0  0  0  0  0  0  0  0  0  0  0  0
    1.0988   -1.1808    1.8030 C   0  0  0  0  0  0  0  0  0  0  0  0
    2.2652   -0.5175   -4.2718 H   0  0  0  0  0  0  0  0  0  0  0  0
    1.9771    0.5201   -0.1457 H   0  0  0  0  0  0  0  0  0  0  0  0
    0.9277    1.7564   -0.8098 H   0  0  0  0  0  0  0  0  0  0  0  0
    0.2408   -1.2516   -0.5123 H   0  0  0  0  0  0  0  0  0  0  0  0
   -1.4599   -0.5080   -1.7475 H   0  0  0  0  0  0  0  0  0  0  0  0
   -2.1619   -0.7191   -0.1164 H   0  0  0  0  0  0  0  0  0  0  0  0
   -2.8919    1.3479   -0.0983 H   0  0  0  0  0  0  0  0  0  0  0  0
   -2.5178    1.4146   -1.8370 H   0  0  0  0  0  0  0  0  0  0  0  0
   -1.3541    2.1077   -0.5892 H   0  0  0  0  0  0  0  0  0  0  0  0
    0.1124    0.7096    1.7542 H   0  0  0  0  0  0  0  0  0  0  0  0
   -0.9882   -0.7832    1.5540 H   0  0  0  0  0  0  0  0  0  0  0  0
    1.7936   -0.5952    2.4082 H   0  0  0  0  0  0  0  0  0  0  0  0
    1.5452   -1.8266    1.0228 H   0  0  0  0  0  0  0  0  0  0  0  0
    0.6422   -1.9211    2.5303 H   0  0  0  0  0  0  0  0  0  0  0  0
  1  2  3  0
  2  3  1  0
  3  4  1  0
  4  5  1  0
  5  6  1  0
  4  7  1  0
  7  8  1  0
  1  9  1  0
  3 10  1  0
  3 11  1  0
  4 12  1  0
  5 13  1  0
  5 14  1  0
  6 15  1  0
  6 16  1  0
  6 17  1  0
  7 18  1  0
  7 19  1  0
  8 20  1  0
  8 21  1  0
  8 22  1  0
M  END
