
     RDKit          3D

 21 20  0  0  0  0  0  0  0  0999 V2000
    1.7217   -1.2455    2.3126 C   0  0  0  0  0  0  0  0  0  0  0  0
    1.3824   -0.3305    1.4962 C   0  0  0  0  0  0  0  0  0  0  0  0
    0.9757    0.7098    0.5743 C   0  0  0  0  0  0  0  0  0  0  0  0
    2.1966    1.6482    0.5851 C   0  0  0  0  0  0  0  0  0  0  0  0
    0.7253    0.1419   -0.5902 O   0  0  0  0  0  0  0  0  0  0  0  0
   -0.3276    0.2343   -1.3789 C   0  0  0  0  0  0  0  0  0  0  0  0
   -1.6786   -0.2328   -0.7997 C   0  0  0  0  0  0  0  0  0  0  0  0
   -1.5769   -1.6125   -0.2480 C   0  0  0  0  0  0  0  0  0  0  0  0
   -2.6718   -0.1192   -1.7670 O   0  0  0  0  0  0  0  0  0  0  0  0
    2.0303   -2.1039    3.0569 H   0  0  0  0  0  0  0  0  0  0  0  0
    0.1763    1.2762    1.1183 H   0  0  0  0  0  0  0  0  0  0  0  0
    2.7981    1.5283   -0.2954 H   0  0  0  0  0  0  0  0  0  0  0  0
    2.7704    1.4857    1.5541 H   0  0  0  0  0  0  0  0  0  0  0  0
    1.8050    2.6637    0.6717 H   0  0  0  0  0  0  0  0  0  0  0  0
   -0.1888   -0.4770   -2.2569 H   0  0  0  0  0  0  0  0  0  0  0  0
   -0.6028    1.2008   -1.8517 H   0  0  0  0  0  0  0  0  0  0  0  0
   -1.9689    0.4572    0.0164 H   0  0  0  0  0  0  0  0  0  0  0  0
   -2.4709   -2.2322   -0.4679 H   0  0  0  0  0  0  0  0  0  0  0  0
   -0.7230   -2.0856   -0.8400 H   0  0  0  0  0  0  0  0  0  0  0  0
   -1.2517   -1.6762    0.8146 H   0  0  0  0  0  0  0  0  0  0  0  0
   -3.1209    0.7690   -1.7043 H   0  0  0  0  0  0  0  0  0  0  0  0
  1  2  3  0
  2  3  1  0
  3  4  1  0
  3  5  1  0
  5  6  1  0
  6  7  1  0
  7  8  1  0
  7  9  1  0
  1 10  1  0
  3 11  1  0
  4 12  1  0
  4 13  1  0
  4 14  1  0
  6 15  1  0
  6 16  1  0
  7 17  1  0
  8 18  1  0
  8 19  1  0
  8 20  1  0
  9 21  1  0
M  END
