
     RDKit          3D

 15 15  0  0  0  0  0  0  0  0999 V2000
    2.9573    2.0104    1.2356 C   0  0  0  0  0  0  0  0  0  0  0  0
    1.9959    1.3985    0.7490 C   0  0  0  0  0  0  0  0  0  0  0  0
    0.8748    0.6634    0.1947 C   0  0  0  0  0  0  0  0  0  0  0  0
    1.1250   -0.7859    0.5462 O   0  0  0  0  0  0  0  0  0  0  0  0
   -0.0497   -0.0461    0.9369 C   0  0  0  0  0  0  0  0  0  0  0  0
   -1.2422   -0.6993    0.2662 C   0  0  0  0  0  0  0  0  0  0  0  0
   -2.1240   -1.2547    0.8892 O   0  0  0  0  0  0  0  0  0  0  0  0
   -1.3531   -0.6695   -1.2124 C   0  0  0  0  0  0  0  0  0  0  0  0
   -2.3655   -1.5237   -1.6372 O   0  0  0  0  0  0  0  0  0  0  0  0
    3.7944    2.5228    1.6611 H   0  0  0  0  0  0  0  0  0  0  0  0
    0.7375    0.7378   -0.9360 H   0  0  0  0  0  0  0  0  0  0  0  0
   -0.1227   -0.0596    2.0485 H   0  0  0  0  0  0  0  0  0  0  0  0
   -0.3834   -0.9001   -1.6754 H   0  0  0  0  0  0  0  0  0  0  0  0
   -1.7015    0.3572   -1.5013 H   0  0  0  0  0  0  0  0  0  0  0  0
   -2.1429   -1.7513   -2.5994 H   0  0  0  0  0  0  0  0  0  0  0  0
  1  2  3  0
  2  3  1  0
  3  4  1  0
  4  5  1  0
  5  6  1  0
  6  7  2  0
  6  8  1  0
  8  9  1  0
  5  3  1  0
  1 10  1  0
  3 11  1  0
  5 12  1  0
  8 13  1  0
  8 14  1  0
  9 15  1  0
M  END
