
     RDKit          3D

 16 16  0  0  0  0  0  0  0  0999 V2000
    2.4182    1.2486   -0.4392 C   0  0  0  0  0  0  0  0  0  0  0  0
    1.5802    0.4662   -0.8226 C   0  0  0  0  0  0  0  0  0  0  0  0
    0.5654   -0.5022   -1.2726 C   0  0  0  0  0  0  0  0  0  0  0  0
   -0.4762   -0.5811   -0.1861 C   0  0  0  0  0  0  0  0  0  0  0  0
   -1.1686    0.6977    0.1247 C   0  0  0  0  0  0  0  0  0  0  0  0
   -1.5959    0.7172    1.4484 O   0  0  0  0  0  0  0  0  0  0  0  0
   -0.2567   -1.5098    0.9760 C   0  0  0  0  0  0  0  0  0  0  0  0
   -1.1069   -1.7961   -0.0691 O   0  0  0  0  0  0  0  0  0  0  0  0
    3.1619    1.9315   -0.0880 H   0  0  0  0  0  0  0  0  0  0  0  0
    1.0599   -1.4579   -1.4815 H   0  0  0  0  0  0  0  0  0  0  0  0
    0.0829   -0.1044   -2.1765 H   0  0  0  0  0  0  0  0  0  0  0  0
   -0.4280    1.5292   -0.0578 H   0  0  0  0  0  0  0  0  0  0  0  0
   -2.0079    0.9264   -0.5880 H   0  0  0  0  0  0  0  0  0  0  0  0
   -1.8188    1.6590    1.6906 H   0  0  0  0  0  0  0  0  0  0  0  0
    0.7626   -1.9410    1.0108 H   0  0  0  0  0  0  0  0  0  0  0  0
   -0.7719   -1.2833    1.9309 H   0  0  0  0  0  0  0  0  0  0  0  0
  1  2  3  0
  2  3  1  0
  3  4  1  0
  4  5  1  0
  5  6  1  0
  4  7  1  0
  7  8  1  0
  8  4  1  0
  1  9  1  0
  3 10  1  0
  3 11  1  0
  5 12  1  0
  5 13  1  0
  6 14  1  0
  7 15  1  0
  7 16  1  0
M  END
