
     RDKit          3D

 17 17  0  0  0  0  0  0  0  0999 V2000
    2.2756   -1.7665    1.1066 C   0  0  0  0  0  0  0  0  0  0  0  0
    1.6025   -1.0097    0.2403 C   0  0  0  0  0  0  0  0  0  0  0  0
    0.9082   -0.2540   -0.6151 C   0  0  0  0  0  0  0  0  0  0  0  0
   -0.1284   -0.9907   -1.2849 O   0  0  0  0  0  0  0  0  0  0  0  0
   -1.1823   -1.1258   -0.3886 C   0  0  0  0  0  0  0  0  0  0  0  0
   -2.1925   -1.8803   -0.4981 O   0  0  0  0  0  0  0  0  0  0  0  0
   -0.9461   -0.2265    0.7548 C   0  0  0  0  0  0  0  0  0  0  0  0
    0.0441    0.7786    0.1767 C   0  0  0  0  0  0  0  0  0  0  0  0
   -0.6226    1.7534   -0.7268 C   0  0  0  0  0  0  0  0  0  0  0  0
    2.8065   -2.3604    1.8116 H   0  0  0  0  0  0  0  0  0  0  0  0
    1.4706    0.3518   -1.3826 H   0  0  0  0  0  0  0  0  0  0  0  0
   -1.8594    0.2626    1.1535 H   0  0  0  0  0  0  0  0  0  0  0  0
   -0.4108   -0.8318    1.5386 H   0  0  0  0  0  0  0  0  0  0  0  0
    0.5910    1.2571    0.9751 H   0  0  0  0  0  0  0  0  0  0  0  0
    0.1518    2.4839   -1.0910 H   0  0  0  0  0  0  0  0  0  0  0  0
   -1.1018    1.2132   -1.5748 H   0  0  0  0  0  0  0  0  0  0  0  0
   -1.4063    2.3449   -0.1953 H   0  0  0  0  0  0  0  0  0  0  0  0
  1  2  3  0
  2  3  1  0
  3  4  1  0
  4  5  1  0
  5  6  2  0
  5  7  1  0
  7  8  1  0
  8  9  1  0
  8  3  1  0
  1 10  1  0
  3 11  1  0
  7 12  1  0
  7 13  1  0
  8 14  1  0
  9 15  1  0
  9 16  1  0
  9 17  1  0
M  END
