
     RDKit          3D

 15 15  0  0  0  0  0  0  0  0999 V2000
    1.6433    2.0786    1.9756 C   0  0  0  0  0  0  0  0  0  0  0  0
    0.9315    1.1305    1.3668 C   0  0  0  0  0  0  0  0  0  0  0  0
    0.1618    0.1289    0.6946 C   0  0  0  0  0  0  0  0  0  0  0  0
   -0.8023   -0.5694    1.6683 C   0  0  0  0  0  0  0  0  0  0  0  0
   -1.5968   -1.3425    1.0886 O   0  0  0  0  0  0  0  0  0  0  0  0
    1.1091   -0.8831    0.2048 O   0  0  0  0  0  0  0  0  0  0  0  0
    0.2406   -0.0403   -0.6837 C   0  0  0  0  0  0  0  0  0  0  0  0
   -0.4707   -0.9520   -1.6298 C   0  0  0  0  0  0  0  0  0  0  0  0
   -1.3033   -0.2257   -2.4798 O   0  0  0  0  0  0  0  0  0  0  0  0
    2.2193    2.8724    2.4679 H   0  0  0  0  0  0  0  0  0  0  0  0
   -0.7989   -0.4331    2.6719 H   0  0  0  0  0  0  0  0  0  0  0  0
    0.9343    0.6844   -1.2446 H   0  0  0  0  0  0  0  0  0  0  0  0
    0.2843   -1.4721   -2.2747 H   0  0  0  0  0  0  0  0  0  0  0  0
   -1.1229   -1.6967   -1.1388 H   0  0  0  0  0  0  0  0  0  0  0  0
   -1.4293    0.7201   -2.1596 H   0  0  0  0  0  0  0  0  0  0  0  0
  1  2  3  0
  2  3  1  0
  3  4  1  0
  4  5  2  0
  3  6  1  0
  6  7  1  0
  7  8  1  0
  8  9  1  0
  7  3  1  0
  1 10  1  0
  4 11  1  0
  7 12  1  0
  8 13  1  0
  8 14  1  0
  9 15  1  0
M  END
