
     RDKit          3D

 19 18  0  0  0  0  0  0  0  0999 V2000
   -1.1089    2.2884   -0.0375 C   0  0  0  0  0  0  0  0  0  0  0  0
   -0.4690    1.3117   -0.3388 C   0  0  0  0  0  0  0  0  0  0  0  0
    0.2983    0.0944   -0.7044 C   0  0  0  0  0  0  0  0  0  0  0  0
    1.4705    0.5210   -1.3217 O   0  0  0  0  0  0  0  0  0  0  0  0
    0.6916   -0.6390    0.5419 C   0  0  0  0  0  0  0  0  0  0  0  0
    1.5534    0.2431    1.4233 C   0  0  0  0  0  0  0  0  0  0  0  0
   -0.5085   -0.6557   -1.6504 C   0  0  0  0  0  0  0  0  0  0  0  0
   -1.8279   -1.2787   -1.3838 C   0  0  0  0  0  0  0  0  0  0  0  0
   -0.0820   -0.8020   -2.7810 O   0  0  0  0  0  0  0  0  0  0  0  0
   -1.6831    3.1377    0.2385 H   0  0  0  0  0  0  0  0  0  0  0  0
    1.8943    1.2659   -0.7994 H   0  0  0  0  0  0  0  0  0  0  0  0
   -0.1995   -0.9039    1.1707 H   0  0  0  0  0  0  0  0  0  0  0  0
    1.2524   -1.5601    0.3588 H   0  0  0  0  0  0  0  0  0  0  0  0
    1.6375   -0.2814    2.4005 H   0  0  0  0  0  0  0  0  0  0  0  0
    1.0618    1.2438    1.5462 H   0  0  0  0  0  0  0  0  0  0  0  0
    2.5693    0.3826    1.0384 H   0  0  0  0  0  0  0  0  0  0  0  0
   -2.0707   -1.3723   -0.3206 H   0  0  0  0  0  0  0  0  0  0  0  0
   -2.6237   -0.6682   -1.8585 H   0  0  0  0  0  0  0  0  0  0  0  0
   -1.8558   -2.3272   -1.7985 H   0  0  0  0  0  0  0  0  0  0  0  0
  1  2  3  0
  2  3  1  0
  3  4  1  0
  3  5  1  0
  5  6  1  0
  3  7  1  0
  7  8  1  0
  7  9  2  0
  1 10  1  0
  4 11  1  0
  5 12  1  0
  5 13  1  0
  6 14  1  0
  6 15  1  0
  6 16  1  0
  8 17  1  0
  8 18  1  0
  8 19  1  0
M  END
