
     RDKit          3D

 17 19  0  0  0  0  0  0  0  0999 V2000
    2.1145   -0.8667   -1.7567 C   0  0  0  0  0  0  0  0  0  0  0  0
    1.3354   -0.4610   -1.0577 C   0  0  0  0  0  0  0  0  0  0  0  0
    0.3398    0.0321   -0.1866 C   0  0  0  0  0  0  0  0  0  0  0  0
   -0.2475    1.3998   -0.5033 C   0  0  0  0  0  0  0  0  0  0  0  0
   -1.5059    1.4547    0.0485 O   0  0  0  0  0  0  0  0  0  0  0  0
   -1.7976    0.2306    0.5874 C   0  0  0  0  0  0  0  0  0  0  0  0
   -0.7420   -0.2416    1.5851 C   0  0  0  0  0  0  0  0  0  0  0  0
    0.6999   -0.0935    1.3066 C   0  0  0  0  0  0  0  0  0  0  0  0
   -0.8475   -0.7624    0.1066 C   0  0  0  0  0  0  0  0  0  0  0  0
    2.9411   -1.2860   -2.5124 H   0  0  0  0  0  0  0  0  0  0  0  0
    0.3638    2.2045   -0.0677 H   0  0  0  0  0  0  0  0  0  0  0  0
   -0.2514    1.5063   -1.5895 H   0  0  0  0  0  0  0  0  0  0  0  0
   -2.8360    0.0404    0.8932 H   0  0  0  0  0  0  0  0  0  0  0  0
   -1.0777   -0.9824    2.3472 H   0  0  0  0  0  0  0  0  0  0  0  0
    1.2531    0.7512    1.7235 H   0  0  0  0  0  0  0  0  0  0  0  0
    1.2320   -1.0927    1.4219 H   0  0  0  0  0  0  0  0  0  0  0  0
   -0.9739   -1.8333   -0.0098 H   0  0  0  0  0  0  0  0  0  0  0  0
  1  2  3  0
  2  3  1  0
  3  4  1  0
  4  5  1  0
  5  6  1  0
  6  7  1  0
  7  8  1  0
  7  9  1  0
  8  3  1  0
  9  3  1  0
  9  6  1  0
  1 10  1  0
  4 11  1  0
  4 12  1  0
  6 13  1  0
  7 14  1  0
  8 15  1  0
  8 16  1  0
  9 17  1  0
M  END
