
     RDKit          3D

 17 17  0  0  0  0  0  0  0  0999 V2000
    3.9596    0.3166    1.7453 C   0  0  0  0  0  0  0  0  0  0  0  0
    2.7887   -0.0938    2.0020 C   0  0  0  0  0  0  0  0  0  0  0  0
    1.4365   -0.5636    2.3206 C   0  0  0  0  0  0  0  0  0  0  0  0
    0.6016   -0.2329    1.0346 C   0  0  0  0  0  0  0  0  0  0  0  0
   -0.0379    0.0206    0.0120 C   0  0  0  0  0  0  0  0  0  0  0  0
   -0.7122    0.3041   -1.1031 C   0  0  0  0  0  0  0  0  0  0  0  0
   -1.9480   -0.6108   -1.4218 C   0  0  0  0  0  0  0  0  0  0  0  0
   -2.3040    0.6588   -2.1407 C   0  0  0  0  0  0  0  0  0  0  0  0
   -1.6373    1.3343   -1.0865 O   0  0  0  0  0  0  0  0  0  0  0  0
    4.8829    0.6409    1.5248 H   0  0  0  0  0  0  0  0  0  0  0  0
    1.3526   -1.6019    2.5371 H   0  0  0  0  0  0  0  0  0  0  0  0
    0.9900    0.0756    3.0912 H   0  0  0  0  0  0  0  0  0  0  0  0
   -0.1444    0.3820   -2.1024 H   0  0  0  0  0  0  0  0  0  0  0  0
   -1.7262   -1.4796   -2.0371 H   0  0  0  0  0  0  0  0  0  0  0  0
   -2.4664   -0.8121   -0.4616 H   0  0  0  0  0  0  0  0  0  0  0  0
   -3.3565    0.9120   -2.2370 H   0  0  0  0  0  0  0  0  0  0  0  0
   -1.6791    0.7495   -3.0375 H   0  0  0  0  0  0  0  0  0  0  0  0
  1  2  3  0
  2  3  1  0
  3  4  1  0
  4  5  3  0
  5  6  1  0
  6  7  1  0
  7  8  1  0
  8  9  1  0
  9  6  1  0
  1 10  1  0
  3 11  1  0
  3 12  1  0
  6 13  1  0
  7 14  1  0
  7 15  1  0
  8 16  1  0
  8 17  1  0
M  END
