
     RDKit          3D

 21 22  0  0  0  0  0  0  0  0999 V2000
   -3.1384    0.8786    1.0996 C   0  0  0  0  0  0  0  0  0  0  0  0
   -2.3635    0.0150    1.1835 C   0  0  0  0  0  0  0  0  0  0  0  0
   -1.3809   -1.0609    1.3109 C   0  0  0  0  0  0  0  0  0  0  0  0
   -0.1585   -0.7656    0.5741 C   0  0  0  0  0  0  0  0  0  0  0  0
    0.5580    0.5296    0.9538 C   0  0  0  0  0  0  0  0  0  0  0  0
    1.0602    0.5265   -0.4843 C   0  0  0  0  0  0  0  0  0  0  0  0
    2.4181   -0.0084   -0.7776 C   0  0  0  0  0  0  0  0  0  0  0  0
    0.0485    0.8917   -1.4673 C   0  0  0  0  0  0  0  0  0  0  0  0
   -0.1095   -0.4562   -0.8667 C   0  0  0  0  0  0  0  0  0  0  0  0
   -3.8908    1.7330    1.0307 H   0  0  0  0  0  0  0  0  0  0  0  0
   -1.8677   -2.0275    0.9654 H   0  0  0  0  0  0  0  0  0  0  0  0
   -1.2105   -1.2479    2.4036 H   0  0  0  0  0  0  0  0  0  0  0  0
    0.6072   -1.6062    0.7830 H   0  0  0  0  0  0  0  0  0  0  0  0
   -0.1727    1.3937    1.0421 H   0  0  0  0  0  0  0  0  0  0  0  0
    1.2914    0.4862    1.7353 H   0  0  0  0  0  0  0  0  0  0  0  0
    2.4537   -0.7334   -1.6462 H   0  0  0  0  0  0  0  0  0  0  0  0
    2.7245   -0.6403    0.1164 H   0  0  0  0  0  0  0  0  0  0  0  0
    3.1929    0.7846   -0.9209 H   0  0  0  0  0  0  0  0  0  0  0  0
   -0.6500    1.6921   -1.1918 H   0  0  0  0  0  0  0  0  0  0  0  0
    0.3950    0.9216   -2.5264 H   0  0  0  0  0  0  0  0  0  0  0  0
    0.1932   -1.3062   -1.5478 H   0  0  0  0  0  0  0  0  0  0  0  0
  1  2  3  0
  2  3  1  0
  3  4  1  0
  4  5  1  0
  5  6  1  0
  6  7  1  0
  6  8  1  0
  8  9  1  0
  9  4  1  0
  9  6  1  0
  1 10  1  0
  3 11  1  0
  3 12  1  0
  4 13  1  0
  5 14  1  0
  5 15  1  0
  7 16  1  0
  7 17  1  0
  7 18  1  0
  8 19  1  0
  8 20  1  0
  9 21  1  0
M  END
