
     RDKit          3D

 21 22  0  0  0  0  0  0  0  0999 V2000
    1.5377    2.5836   -0.0035 C   0  0  0  0  0  0  0  0  0  0  0  0
    1.6851    1.5486   -0.6123 C   0  0  0  0  0  0  0  0  0  0  0  0
    1.8496    0.2871   -1.3306 C   0  0  0  0  0  0  0  0  0  0  0  0
    0.8877   -0.7737   -0.8593 C   0  0  0  0  0  0  0  0  0  0  0  0
    0.9907   -1.1491    0.5823 C   0  0  0  0  0  0  0  0  0  0  0  0
   -0.5215   -1.1346    0.6281 C   0  0  0  0  0  0  0  0  0  0  0  0
   -1.1311    0.2087    0.4789 C   0  0  0  0  0  0  0  0  0  0  0  0
   -2.6424    0.2390    0.5553 C   0  0  0  0  0  0  0  0  0  0  0  0
   -0.5384   -0.3632   -0.7317 C   0  0  0  0  0  0  0  0  0  0  0  0
    1.4170    3.4859    0.5075 H   0  0  0  0  0  0  0  0  0  0  0  0
    1.8571    0.4005   -2.4234 H   0  0  0  0  0  0  0  0  0  0  0  0
    2.8866   -0.0747   -1.0634 H   0  0  0  0  0  0  0  0  0  0  0  0
    1.0031   -1.6770   -1.4981 H   0  0  0  0  0  0  0  0  0  0  0  0
    1.4156   -0.3284    1.2142 H   0  0  0  0  0  0  0  0  0  0  0  0
    1.4584   -2.1121    0.8208 H   0  0  0  0  0  0  0  0  0  0  0  0
   -1.0942   -2.0571    0.6522 H   0  0  0  0  0  0  0  0  0  0  0  0
   -0.6508    1.0124    1.0695 H   0  0  0  0  0  0  0  0  0  0  0  0
   -3.1155    0.1170   -0.4525 H   0  0  0  0  0  0  0  0  0  0  0  0
   -3.0261    1.1715    1.0170 H   0  0  0  0  0  0  0  0  0  0  0  0
   -3.0312   -0.6105    1.1831 H   0  0  0  0  0  0  0  0  0  0  0  0
   -1.2375   -0.7741   -1.5004 H   0  0  0  0  0  0  0  0  0  0  0  0
  1  2  3  0
  2  3  1  0
  3  4  1  0
  4  5  1  0
  5  6  1  0
  6  7  1  0
  7  8  1  0
  7  9  1  0
  9  4  1  0
  9  6  1  0
  1 10  1  0
  3 11  1  0
  3 12  1  0
  4 13  1  0
  5 14  1  0
  5 15  1  0
  6 16  1  0
  7 17  1  0
  8 18  1  0
  8 19  1  0
  8 20  1  0
  9 21  1  0
M  END
