
     RDKit          3D

 14 13  0  0  0  0  0  0  0  0999 V2000
    2.5540    0.2573   -1.1512 C   0  0  0  0  0  0  0  0  0  0  0  0
    1.8100    0.0367   -0.2063 C   0  0  0  0  0  0  0  0  0  0  0  0
    0.9484   -0.2445    0.8938 C   0  0  0  0  0  0  0  0  0  0  0  0
    1.4635   -0.5051    2.0017 O   0  0  0  0  0  0  0  0  0  0  0  0
   -0.5188   -0.2370    0.7646 C   0  0  0  0  0  0  0  0  0  0  0  0
   -1.0143   -1.2452   -0.2482 C   0  0  0  0  0  0  0  0  0  0  0  0
   -0.9890    1.0856    0.2841 C   0  0  0  0  0  0  0  0  0  0  0  0
   -1.3521    2.1679   -0.1011 C   0  0  0  0  0  0  0  0  0  0  0  0
    3.2128    0.4539   -1.9592 H   0  0  0  0  0  0  0  0  0  0  0  0
   -1.0024   -0.4868    1.7257 H   0  0  0  0  0  0  0  0  0  0  0  0
   -0.6449   -0.9102   -1.2448 H   0  0  0  0  0  0  0  0  0  0  0  0
   -0.6766   -2.2548    0.0055 H   0  0  0  0  0  0  0  0  0  0  0  0
   -2.1268   -1.2396   -0.1901 H   0  0  0  0  0  0  0  0  0  0  0  0
   -1.6639    3.1218   -0.4448 H   0  0  0  0  0  0  0  0  0  0  0  0
  1  2  3  0
  2  3  1  0
  3  4  2  0
  3  5  1  0
  5  6  1  0
  5  7  1  0
  7  8  3  0
  1  9  1  0
  5 10  1  0
  6 11  1  0
  6 12  1  0
  6 13  1  0
  8 14  1  0
M  END
