
     RDKit          3D

 15 15  0  0  0  0  0  0  0  0999 V2000
    2.5314   -1.0798    0.9702 C   0  0  0  0  0  0  0  0  0  0  0  0
    1.4850   -1.2358    0.5941 C   0  0  0  0  0  0  0  0  0  0  0  0
    0.1850   -1.4480    0.1089 C   0  0  0  0  0  0  0  0  0  0  0  0
    0.3227   -2.2200   -1.1122 O   0  0  0  0  0  0  0  0  0  0  0  0
   -0.5773   -0.2281   -0.3168 C   0  0  0  0  0  0  0  0  0  0  0  0
   -1.0065   -0.2993   -1.4782 O   0  0  0  0  0  0  0  0  0  0  0  0
   -0.8589    0.9517    0.4776 C   0  0  0  0  0  0  0  0  0  0  0  0
   -1.2476    2.1987   -0.2678 C   0  0  0  0  0  0  0  0  0  0  0  0
   -2.1794    1.4557    0.4689 O   0  0  0  0  0  0  0  0  0  0  0  0
    3.6877   -0.9287    1.3887 H   0  0  0  0  0  0  0  0  0  0  0  0
   -0.4685   -1.9660    0.8166 H   0  0  0  0  0  0  0  0  0  0  0  0
    0.8255   -1.6553   -1.7943 H   0  0  0  0  0  0  0  0  0  0  0  0
   -0.3383    1.0427    1.4552 H   0  0  0  0  0  0  0  0  0  0  0  0
   -1.3697    2.1302   -1.3785 H   0  0  0  0  0  0  0  0  0  0  0  0
   -0.9913    3.2040    0.0677 H   0  0  0  0  0  0  0  0  0  0  0  0
  1  2  3  0
  2  3  1  0
  3  4  1  0
  3  5  1  0
  5  6  2  0
  5  7  1  0
  7  8  1  0
  8  9  1  0
  9  7  1  0
  1 10  1  0
  3 11  1  0
  4 12  1  0
  7 13  1  0
  8 14  1  0
  8 15  1  0
M  END
