
     RDKit          3D

 19 20  0  0  0  0  0  0  0  0999 V2000
    1.7991   -2.7300    0.7496 C   0  0  0  0  0  0  0  0  0  0  0  0
    1.0249   -1.3219    0.1739 C   0  0  0  0  0  0  0  0  0  0  0  0
    0.4243   -0.2081   -0.2921 C   0  0  0  0  0  0  0  0  0  0  0  0
    0.9303    0.3026   -1.5796 C   0  0  0  0  0  0  0  0  0  0  0  0
    0.1867    0.6159    0.9752 C   0  0  0  0  0  0  0  0  0  0  0  0
   -0.4737    1.7462    0.4255 C   0  0  0  0  0  0  0  0  0  0  0  0
   -1.4301    1.1934   -0.4001 C   0  0  0  0  0  0  0  0  0  0  0  0
   -1.1021   -0.2350   -0.2951 C   0  0  0  0  0  0  0  0  0  0  0  0
   -1.0232   -0.4050    1.1895 C   0  0  0  0  0  0  0  0  0  0  0  0
    1.9401   -2.9874    0.8493 H   0  0  0  0  0  0  0  0  0  0  0  0
    0.9825   -0.5396   -2.3409 H   0  0  0  0  0  0  0  0  0  0  0  0
    1.9956    0.6064   -1.4237 H   0  0  0  0  0  0  0  0  0  0  0  0
    0.2670    1.1332   -1.9184 H   0  0  0  0  0  0  0  0  0  0  0  0
    0.8620    0.5484    1.8263 H   0  0  0  0  0  0  0  0  0  0  0  0
   -0.2666    2.8347    0.6156 H   0  0  0  0  0  0  0  0  0  0  0  0
   -2.1057    1.8223   -0.9165 H   0  0  0  0  0  0  0  0  0  0  0  0
   -1.5464   -0.9852   -0.9303 H   0  0  0  0  0  0  0  0  0  0  0  0
   -0.6987   -1.4109    1.4611 H   0  0  0  0  0  0  0  0  0  0  0  0
   -1.7659    0.0199    1.8306 H   0  0  0  0  0  0  0  0  0  0  0  0
  1  2  3  0
  2  3  1  0
  3  4  1  0
  3  5  1  0
  5  6  1  0
  6  7  2  0
  7  8  1  0
  8  9  1  0
  8  3  1  0
  9  5  1  0
  1 10  1  0
  4 11  1  0
  4 12  1  0
  4 13  1  0
  5 14  1  0
  6 15  1  0
  7 16  1  0
  8 17  1  0
  9 18  1  0
  9 19  1  0
M  END
