
     RDKit          3D

 19 19  0  0  0  0  0  0  0  0999 V2000
    2.5928    1.0436    0.9063 C   0  0  0  0  0  0  0  0  0  0  0  0
    2.0903   -0.0766    0.8181 C   0  0  0  0  0  0  0  0  0  0  0  0
    1.4979   -1.4073    0.7388 C   0  0  0  0  0  0  0  0  0  0  0  0
    1.9704   -2.3897    1.2464 O   0  0  0  0  0  0  0  0  0  0  0  0
    0.2053   -1.3743   -0.0821 C   0  0  0  0  0  0  0  0  0  0  0  0
    0.0452   -0.0652   -0.7598 C   0  0  0  0  0  0  0  0  0  0  0  0
   -1.2002    0.0296   -1.5770 C   0  0  0  0  0  0  0  0  0  0  0  0
   -1.9065    0.5988   -0.3267 C   0  0  0  0  0  0  0  0  0  0  0  0
   -0.5173    1.0499    0.1059 C   0  0  0  0  0  0  0  0  0  0  0  0
    3.0164    2.0265    0.9732 H   0  0  0  0  0  0  0  0  0  0  0  0
   -0.6374   -1.6449    0.6146 H   0  0  0  0  0  0  0  0  0  0  0  0
    0.2656   -2.1988   -0.8051 H   0  0  0  0  0  0  0  0  0  0  0  0
    0.9969    0.2294   -1.2482 H   0  0  0  0  0  0  0  0  0  0  0  0
   -1.1895    0.8195   -2.3812 H   0  0  0  0  0  0  0  0  0  0  0  0
   -1.7084   -0.9068   -1.8572 H   0  0  0  0  0  0  0  0  0  0  0  0
   -2.6143    1.3858   -0.6079 H   0  0  0  0  0  0  0  0  0  0  0  0
   -2.3132   -0.1702    0.3596 H   0  0  0  0  0  0  0  0  0  0  0  0
   -0.2817    1.0092    1.1714 H   0  0  0  0  0  0  0  0  0  0  0  0
   -0.3122    2.0414   -0.3724 H   0  0  0  0  0  0  0  0  0  0  0  0
  1  2  3  0
  2  3  1  0
  3  4  2  0
  3  5  1  0
  5  6  1  0
  6  7  1  0
  7  8  1  0
  8  9  1  0
  9  6  1  0
  1 10  1  0
  5 11  1  0
  5 12  1  0
  6 13  1  0
  7 14  1  0
  7 15  1  0
  8 16  1  0
  8 17  1  0
  9 18  1  0
  9 19  1  0
M  END
