
     RDKit          3D

 21 20  0  0  0  0  0  0  0  0999 V2000
   -1.4890    2.8287   -1.0081 C   0  0  0  0  0  0  0  0  0  0  0  0
   -1.2264    1.7093   -0.6411 C   0  0  0  0  0  0  0  0  0  0  0  0
   -0.8966    0.3612   -0.1751 C   0  0  0  0  0  0  0  0  0  0  0  0
   -1.4134   -0.6190   -1.1943 C   0  0  0  0  0  0  0  0  0  0  0  0
   -1.5514    0.1912    1.1509 C   0  0  0  0  0  0  0  0  0  0  0  0
   -2.6707   -0.2914    1.2861 O   0  0  0  0  0  0  0  0  0  0  0  0
    0.5901    0.2960    0.0080 C   0  0  0  0  0  0  0  0  0  0  0  0
    1.0819   -1.0375    0.4869 C   0  0  0  0  0  0  0  0  0  0  0  0
    2.6040   -0.9204    0.6157 C   0  0  0  0  0  0  0  0  0  0  0  0
   -1.7414    3.8241   -1.3319 H   0  0  0  0  0  0  0  0  0  0  0  0
   -2.3883   -0.3369   -1.5913 H   0  0  0  0  0  0  0  0  0  0  0  0
   -1.5497   -1.6164   -0.6819 H   0  0  0  0  0  0  0  0  0  0  0  0
   -0.7150   -0.7988   -2.0134 H   0  0  0  0  0  0  0  0  0  0  0  0
   -1.0585    0.4921    2.0730 H   0  0  0  0  0  0  0  0  0  0  0  0
    0.8618    1.0462    0.7791 H   0  0  0  0  0  0  0  0  0  0  0  0
    1.1121    0.5667   -0.9178 H   0  0  0  0  0  0  0  0  0  0  0  0
    0.9037   -1.8308   -0.2750 H   0  0  0  0  0  0  0  0  0  0  0  0
    0.6914   -1.3373    1.4589 H   0  0  0  0  0  0  0  0  0  0  0  0
    2.9697   -0.2524   -0.1791 H   0  0  0  0  0  0  0  0  0  0  0  0
    3.0968   -1.8931    0.5676 H   0  0  0  0  0  0  0  0  0  0  0  0
    2.7888   -0.3813    1.5828 H   0  0  0  0  0  0  0  0  0  0  0  0
  1  2  3  0
  2  3  1  0
  3  4  1  0
  3  5  1  0
  5  6  2  0
  3  7  1  0
  7  8  1  0
  8  9  1  0
  1 10  1  0
  4 11  1  0
  4 12  1  0
  4 13  1  0
  5 14  1  0
  7 15  1  0
  7 16  1  0
  8 17  1  0
  8 18  1  0
  9 19  1  0
  9 20  1  0
  9 21  1  0
M  END
