
     RDKit          3D

 11 11  0  0  0  0  0  0  0  0999 V2000
    2.3072   -0.7578   -0.6760 C   0  0  0  0  0  0  0  0  0  0  0  0
    1.1198   -0.5700   -0.5696 C   0  0  0  0  0  0  0  0  0  0  0  0
   -0.3409   -0.3565   -0.4409 C   0  0  0  0  0  0  0  0  0  0  0  0
   -0.8074    0.9950   -0.0836 C   0  0  0  0  0  0  0  0  0  0  0  0
   -0.8178   -0.1279    0.9364 C   0  0  0  0  0  0  0  0  0  0  0  0
    3.3332   -0.9337   -0.7758 H   0  0  0  0  0  0  0  0  0  0  0  0
   -0.9978   -0.9478   -1.1158 H   0  0  0  0  0  0  0  0  0  0  0  0
   -0.0981    1.8199    0.1499 H   0  0  0  0  0  0  0  0  0  0  0  0
   -1.7802    1.3797   -0.4616 H   0  0  0  0  0  0  0  0  0  0  0  0
   -0.0731   -0.0857    1.7786 H   0  0  0  0  0  0  0  0  0  0  0  0
   -1.8448   -0.4152    1.2582 H   0  0  0  0  0  0  0  0  0  0  0  0
  1  2  3  0
  2  3  1  0
  3  4  1  0
  4  5  1  0
  5  3  1  0
  1  6  1  0
  3  7  1  0
  4  8  1  0
  4  9  1  0
  5 10  1  0
  5 11  1  0
M  END
