
     RDKit          3D

 13 12  0  0  0  0  0  0  0  0999 V2000
   -2.8289   -0.5941    0.7920 C   0  0  0  0  0  0  0  0  0  0  0  0
   -1.7671   -0.9118    0.4230 C   0  0  0  0  0  0  0  0  0  0  0  0
   -0.5075   -1.3136   -0.0143 C   0  0  0  0  0  0  0  0  0  0  0  0
   -0.6049   -1.7192   -1.4113 O   0  0  0  0  0  0  0  0  0  0  0  0
    0.4333   -0.1762   -0.0877 C   0  0  0  0  0  0  0  0  0  0  0  0
    1.2487    0.8356   -0.1368 C   0  0  0  0  0  0  0  0  0  0  0  0
    2.1280    1.8987   -0.2053 C   0  0  0  0  0  0  0  0  0  0  0  0
   -3.8923   -0.2689    1.1660 H   0  0  0  0  0  0  0  0  0  0  0  0
   -0.0254   -2.1291    0.5252 H   0  0  0  0  0  0  0  0  0  0  0  0
   -1.4290   -2.2746   -1.4789 H   0  0  0  0  0  0  0  0  0  0  0  0
    3.2293    1.6181   -0.2108 H   0  0  0  0  0  0  0  0  0  0  0  0
    1.9968    2.6189    0.6097 H   0  0  0  0  0  0  0  0  0  0  0  0
    2.0189    2.4164   -1.1950 H   0  0  0  0  0  0  0  0  0  0  0  0
  1  2  3  0
  2  3  1  0
  3  4  1  0
  3  5  1  0
  5  6  3  0
  6  7  1  0
  1  8  1  0
  3  9  1  0
  4 10  1  0
  7 11  1  0
  7 12  1  0
  7 13  1  0
M  END
