
     RDKit          3D

 17 18  0  0  0  0  0  0  0  0999 V2000
    1.9330    1.3865   -1.6739 C   0  0  0  0  0  0  0  0  0  0  0  0
    1.2672    0.9698   -0.7598 C   0  0  0  0  0  0  0  0  0  0  0  0
    0.4484    0.4364    0.3484 C   0  0  0  0  0  0  0  0  0  0  0  0
    1.1239    0.1352    1.4952 O   0  0  0  0  0  0  0  0  0  0  0  0
   -0.8081    1.2923    0.5236 C   0  0  0  0  0  0  0  0  0  0  0  0
   -1.5892    0.0413    0.0997 C   0  0  0  0  0  0  0  0  0  0  0  0
   -1.2971   -0.3417   -1.2200 O   0  0  0  0  0  0  0  0  0  0  0  0
   -0.4765   -0.6649   -0.1325 C   0  0  0  0  0  0  0  0  0  0  0  0
   -0.0850   -2.0845   -0.0363 C   0  0  0  0  0  0  0  0  0  0  0  0
    2.5134    1.7677   -2.4987 H   0  0  0  0  0  0  0  0  0  0  0  0
    1.4027    0.9207    2.0293 H   0  0  0  0  0  0  0  0  0  0  0  0
   -1.0052    1.6205    1.5474 H   0  0  0  0  0  0  0  0  0  0  0  0
   -0.9413    2.0696   -0.2517 H   0  0  0  0  0  0  0  0  0  0  0  0
   -2.5934   -0.1153    0.4920 H   0  0  0  0  0  0  0  0  0  0  0  0
   -0.3720   -2.5407    0.9474 H   0  0  0  0  0  0  0  0  0  0  0  0
    1.0320   -2.1964   -0.1018 H   0  0  0  0  0  0  0  0  0  0  0  0
   -0.5530   -2.6965   -0.8083 H   0  0  0  0  0  0  0  0  0  0  0  0
  1  2  3  0
  2  3  1  0
  3  4  1  0
  3  5  1  0
  5  6  1  0
  6  7  1  0
  7  8  1  0
  8  9  1  0
  8  3  1  0
  8  6  1  0
  1 10  1  0
  4 11  1  0
  5 12  1  0
  5 13  1  0
  6 14  1  0
  9 15  1  0
  9 16  1  0
  9 17  1  0
M  END
