
     RDKit          3D

 19 19  0  0  0  0  0  0  0  0999 V2000
   -2.5033    0.9810   -1.7039 C   0  0  0  0  0  0  0  0  0  0  0  0
   -2.2221    0.3992   -1.0466 C   0  0  0  0  0  0  0  0  0  0  0  0
   -1.8563   -0.4078   -0.1404 C   0  0  0  0  0  0  0  0  0  0  0  0
   -1.8233   -1.7367   -0.0583 O   0  0  0  0  0  0  0  0  0  0  0  0
   -0.5898   -1.8937   -0.6345 C   0  0  0  0  0  0  0  0  0  0  0  0
   -0.1892   -0.5276   -0.2850 C   0  0  0  0  0  0  0  0  0  0  0  0
    0.4459   -0.3350    0.8320 O   0  0  0  0  0  0  0  0  0  0  0  0
    1.2351    0.7143    1.2139 C   0  0  0  0  0  0  0  0  0  0  0  0
    2.3571    0.8549    0.1448 C   0  0  0  0  0  0  0  0  0  0  0  0
   -2.9717    1.9798   -2.7921 H   0  0  0  0  0  0  0  0  0  0  0  0
   -1.8416    0.0904    1.0066 H   0  0  0  0  0  0  0  0  0  0  0  0
   -0.4948   -2.2711   -1.6624 H   0  0  0  0  0  0  0  0  0  0  0  0
   -0.0388   -2.6431    0.1224 H   0  0  0  0  0  0  0  0  0  0  0  0
   -0.1257    0.2606   -1.1337 H   0  0  0  0  0  0  0  0  0  0  0  0
    0.8590    1.6072    1.6411 H   0  0  0  0  0  0  0  0  0  0  0  0
    1.9638    0.1811    2.0408 H   0  0  0  0  0  0  0  0  0  0  0  0
    2.3493    0.0063   -0.5481 H   0  0  0  0  0  0  0  0  0  0  0  0
    2.0888    1.7447   -0.4989 H   0  0  0  0  0  0  0  0  0  0  0  0
    3.3578    0.9954    0.5954 H   0  0  0  0  0  0  0  0  0  0  0  0
  1  2  3  0
  2  3  1  0
  3  4  1  0
  4  5  1  0
  5  6  1  0
  6  7  1  0
  7  8  1  0
  8  9  1  0
  6  3  1  0
  1 10  1  0
  3 11  1  0
  5 12  1  0
  5 13  1  0
  6 14  1  0
  8 15  1  0
  8 16  1  0
  9 17  1  0
  9 18  1  0
  9 19  1  0
M  END
