
     RDKit          3D

 17 18  0  0  0  0  0  0  0  0999 V2000
    2.9798   -1.1065    0.3133 C   0  0  0  0  0  0  0  0  0  0  0  0
    1.9680   -0.4333    0.2175 C   0  0  0  0  0  0  0  0  0  0  0  0
    0.7835    0.3403    0.0843 C   0  0  0  0  0  0  0  0  0  0  0  0
    0.6452    1.6318    0.2952 C   0  0  0  0  0  0  0  0  0  0  0  0
   -0.7722    1.9719    0.0269 C   0  0  0  0  0  0  0  0  0  0  0  0
   -1.1777    0.9895   -0.8666 O   0  0  0  0  0  0  0  0  0  0  0  0
   -0.5538   -0.1373   -0.3323 C   0  0  0  0  0  0  0  0  0  0  0  0
   -1.3794   -1.0115    0.4993 C   0  0  0  0  0  0  0  0  0  0  0  0
   -0.7658   -1.4832   -0.8475 C   0  0  0  0  0  0  0  0  0  0  0  0
    3.8636   -1.6853    0.3846 H   0  0  0  0  0  0  0  0  0  0  0  0
    1.4379    2.3361    0.6137 H   0  0  0  0  0  0  0  0  0  0  0  0
   -1.3221    1.8579    0.9966 H   0  0  0  0  0  0  0  0  0  0  0  0
   -0.8891    2.9934   -0.3844 H   0  0  0  0  0  0  0  0  0  0  0  0
   -2.4958   -0.8869    0.4384 H   0  0  0  0  0  0  0  0  0  0  0  0
   -0.9536   -1.4276    1.4169 H   0  0  0  0  0  0  0  0  0  0  0  0
   -1.4570   -1.7446   -1.6522 H   0  0  0  0  0  0  0  0  0  0  0  0
    0.0887   -2.2048   -0.7085 H   0  0  0  0  0  0  0  0  0  0  0  0
  1  2  3  0
  2  3  1  0
  3  4  2  0
  4  5  1  0
  5  6  1  0
  6  7  1  0
  7  8  1  0
  8  9  1  0
  7  3  1  0
  9  7  1  0
  1 10  1  0
  4 11  1  0
  5 12  1  0
  5 13  1  0
  8 14  1  0
  8 15  1  0
  9 16  1  0
  9 17  1  0
M  END
