
     RDKit          3D

 19 20  0  0  0  0  0  0  0  0999 V2000
    0.4043    2.4458    0.0118 C   0  0  0  0  0  0  0  0  0  0  0  0
    0.7986    1.3561   -0.1123 C   0  0  0  0  0  0  0  0  0  0  0  0
    1.3272   -0.0614   -0.2968 C   0  0  0  0  0  0  0  0  0  0  0  0
    1.8258   -0.2234   -1.6774 C   0  0  0  0  0  0  0  0  0  0  0  0
    0.2544   -0.9719    0.1717 C   0  0  0  0  0  0  0  0  0  0  0  0
   -0.0112   -0.7932    1.5263 O   0  0  0  0  0  0  0  0  0  0  0  0
   -1.1165   -0.0656    1.2135 C   0  0  0  0  0  0  0  0  0  0  0  0
   -2.2988   -0.8104    0.7205 C   0  0  0  0  0  0  0  0  0  0  0  0
   -1.1628   -0.4797   -0.1848 C   0  0  0  0  0  0  0  0  0  0  0  0
    0.0135    3.5242    0.1275 H   0  0  0  0  0  0  0  0  0  0  0  0
    2.1889   -0.0903    0.4397 H   0  0  0  0  0  0  0  0  0  0  0  0
    2.1895    0.7299   -2.1611 H   0  0  0  0  0  0  0  0  0  0  0  0
    0.8800   -0.5048   -2.2699 H   0  0  0  0  0  0  0  0  0  0  0  0
    2.5684   -1.0208   -1.7662 H   0  0  0  0  0  0  0  0  0  0  0  0
    0.3668   -2.0475   -0.0514 H   0  0  0  0  0  0  0  0  0  0  0  0
   -1.3224    0.9448    1.6143 H   0  0  0  0  0  0  0  0  0  0  0  0
   -3.2129   -0.2550    0.5391 H   0  0  0  0  0  0  0  0  0  0  0  0
   -2.4309   -1.8839    1.0095 H   0  0  0  0  0  0  0  0  0  0  0  0
   -1.2620    0.2071   -1.0419 H   0  0  0  0  0  0  0  0  0  0  0  0
  1  2  3  0
  2  3  1  0
  3  4  1  0
  3  5  1  0
  5  6  1  0
  6  7  1  0
  7  8  1  0
  8  9  1  0
  9  5  1  0
  9  7  1  0
  1 10  1  0
  3 11  1  0
  4 12  1  0
  4 13  1  0
  4 14  1  0
  5 15  1  0
  7 16  1  0
  8 17  1  0
  8 18  1  0
  9 19  1  0
M  END
