
     RDKit          3D

 21 21  0  0  0  0  0  0  0  0999 V2000
    2.7995   -0.7375   -0.5894 C   0  0  0  0  0  0  0  0  0  0  0  0
    1.7525   -0.4627   -0.0866 C   0  0  0  0  0  0  0  0  0  0  0  0
    0.4966   -0.1093    0.5292 C   0  0  0  0  0  0  0  0  0  0  0  0
    0.5615    0.2945    1.8608 O   0  0  0  0  0  0  0  0  0  0  0  0
   -0.5863   -1.1344    0.3048 C   0  0  0  0  0  0  0  0  0  0  0  0
   -0.5075   -1.8670   -1.0002 C   0  0  0  0  0  0  0  0  0  0  0  0
   -1.5640    0.0466    0.2136 C   0  0  0  0  0  0  0  0  0  0  0  0
   -0.3649    0.8675   -0.2677 C   0  0  0  0  0  0  0  0  0  0  0  0
   -0.2626    2.2351    0.3151 C   0  0  0  0  0  0  0  0  0  0  0  0
    3.7483   -0.9693   -1.0486 H   0  0  0  0  0  0  0  0  0  0  0  0
    1.2633    0.9575    2.0115 H   0  0  0  0  0  0  0  0  0  0  0  0
   -0.7248   -1.7773    1.1728 H   0  0  0  0  0  0  0  0  0  0  0  0
   -0.1976   -1.2053   -1.8247 H   0  0  0  0  0  0  0  0  0  0  0  0
    0.1876   -2.7133   -0.9372 H   0  0  0  0  0  0  0  0  0  0  0  0
   -1.5012   -2.2739   -1.2763 H   0  0  0  0  0  0  0  0  0  0  0  0
   -1.8409    0.3628    1.2330 H   0  0  0  0  0  0  0  0  0  0  0  0
   -2.3648   -0.0759   -0.5174 H   0  0  0  0  0  0  0  0  0  0  0  0
   -0.2461    0.8189   -1.3535 H   0  0  0  0  0  0  0  0  0  0  0  0
   -0.5335    2.2504    1.3764 H   0  0  0  0  0  0  0  0  0  0  0  0
   -0.9174    2.9159   -0.2948 H   0  0  0  0  0  0  0  0  0  0  0  0
    0.8022    2.5765    0.1794 H   0  0  0  0  0  0  0  0  0  0  0  0
  1  2  3  0
  2  3  1  0
  3  4  1  0
  3  5  1  0
  5  6  1  0
  5  7  1  0
  7  8  1  0
  8  9  1  0
  8  3  1  0
  1 10  1  0
  4 11  1  0
  5 12  1  0
  6 13  1  0
  6 14  1  0
  6 15  1  0
  7 16  1  0
  7 17  1  0
  8 18  1  0
  9 19  1  0
  9 20  1  0
  9 21  1  0
M  END
