
     RDKit          3D

 17 19  0  0  0  0  0  0  0  0999 V2000
    2.1882   -2.2313    0.4779 C   0  0  0  0  0  0  0  0  0  0  0  0
    1.5235   -1.1798    0.4268 C   0  0  0  0  0  0  0  0  0  0  0  0
    0.7503    0.0543    0.3427 C   0  0  0  0  0  0  0  0  0  0  0  0
   -0.3258    0.3704    1.2769 C   0  0  0  0  0  0  0  0  0  0  0  0
   -0.9224    1.7349    1.0930 C   0  0  0  0  0  0  0  0  0  0  0  0
   -1.2511    0.7007    0.1060 C   0  0  0  0  0  0  0  0  0  0  0  0
   -0.2038    0.1130   -0.7843 C   0  0  0  0  0  0  0  0  0  0  0  0
   -0.3640   -0.6325   -1.9040 C   0  0  0  0  0  0  0  0  0  0  0  0
    0.1560    0.7487   -1.9813 O   0  0  0  0  0  0  0  0  0  0  0  0
    2.7590   -3.1625    0.5341 H   0  0  0  0  0  0  0  0  0  0  0  0
    1.4805    0.9713    0.2586 H   0  0  0  0  0  0  0  0  0  0  0  0
   -0.6755   -0.2515    2.1023 H   0  0  0  0  0  0  0  0  0  0  0  0
   -1.7082    1.9947    1.8219 H   0  0  0  0  0  0  0  0  0  0  0  0
   -0.1367    2.5163    0.9586 H   0  0  0  0  0  0  0  0  0  0  0  0
   -2.2569    0.3706    0.0336 H   0  0  0  0  0  0  0  0  0  0  0  0
    0.3561   -1.3655   -2.3558 H   0  0  0  0  0  0  0  0  0  0  0  0
   -1.3690   -0.7517   -2.4071 H   0  0  0  0  0  0  0  0  0  0  0  0
  1  2  3  0
  2  3  1  0
  3  4  1  0
  4  5  1  0
  5  6  1  0
  6  7  1  0
  7  8  1  0
  8  9  1  0
  7  3  1  0
  6  4  1  0
  9  7  1  0
  1 10  1  0
  3 11  1  0
  4 12  1  0
  5 13  1  0
  5 14  1  0
  6 15  1  0
  8 16  1  0
  8 17  1  0
M  END
