
     RDKit          3D

 19 20  0  0  0  0  0  0  0  0999 V2000
    3.7150    0.6086   -0.3914 C   0  0  0  0  0  0  0  0  0  0  0  0
    2.7407    0.2779    0.2519 C   0  0  0  0  0  0  0  0  0  0  0  0
    1.5531   -0.1080    1.0326 C   0  0  0  0  0  0  0  0  0  0  0  0
    0.3312    0.3897    0.3312 C   0  0  0  0  0  0  0  0  0  0  0  0
   -0.9406    0.0135    1.1053 C   0  0  0  0  0  0  0  0  0  0  0  0
   -1.5506   -0.3130   -0.2236 C   0  0  0  0  0  0  0  0  0  0  0  0
   -2.6817    0.2193   -0.7602 C   0  0  0  0  0  0  0  0  0  0  0  0
   -2.5654   -1.2161   -0.3277 O   0  0  0  0  0  0  0  0  0  0  0  0
   -0.1927   -0.5393   -0.7750 C   0  0  0  0  0  0  0  0  0  0  0  0
    4.5579    0.8893   -0.9675 H   0  0  0  0  0  0  0  0  0  0  0  0
    1.4885   -1.2023    1.1386 H   0  0  0  0  0  0  0  0  0  0  0  0
    1.5993    0.3013    2.0698 H   0  0  0  0  0  0  0  0  0  0  0  0
    0.2903    1.4530    0.0849 H   0  0  0  0  0  0  0  0  0  0  0  0
   -1.3915    0.8672    1.6548 H   0  0  0  0  0  0  0  0  0  0  0  0
   -0.7620   -0.8895    1.7262 H   0  0  0  0  0  0  0  0  0  0  0  0
   -3.4493    0.7549   -0.1522 H   0  0  0  0  0  0  0  0  0  0  0  0
   -2.9271    0.2344   -1.8406 H   0  0  0  0  0  0  0  0  0  0  0  0
    0.0106   -0.1586   -1.8034 H   0  0  0  0  0  0  0  0  0  0  0  0
    0.1742   -1.5821   -0.5945 H   0  0  0  0  0  0  0  0  0  0  0  0
  1  2  3  0
  2  3  1  0
  3  4  1  0
  4  5  1  0
  5  6  1  0
  6  7  1  0
  7  8  1  0
  6  9  1  0
  9  4  1  0
  8  6  1  0
  1 10  1  0
  3 11  1  0
  3 12  1  0
  4 13  1  0
  5 14  1  0
  5 15  1  0
  7 16  1  0
  7 17  1  0
  9 18  1  0
  9 19  1  0
M  END
