
     RDKit          3D

 15 15  0  0  0  0  0  0  0  0999 V2000
    2.7452    1.2744    0.1906 C   0  0  0  0  0  0  0  0  0  0  0  0
    1.5704    0.9627    0.1527 C   0  0  0  0  0  0  0  0  0  0  0  0
    0.1790    0.6128    0.1250 C   0  0  0  0  0  0  0  0  0  0  0  0
   -0.1595   -0.5064    1.0793 C   0  0  0  0  0  0  0  0  0  0  0  0
   -1.4909   -0.9391    0.5785 C   0  0  0  0  0  0  0  0  0  0  0  0
   -2.3643   -1.5205    1.2736 O   0  0  0  0  0  0  0  0  0  0  0  0
   -1.5775   -0.5674   -0.8305 C   0  0  0  0  0  0  0  0  0  0  0  0
   -2.6001   -0.6866   -1.5534 O   0  0  0  0  0  0  0  0  0  0  0  0
   -0.2284   -0.0334   -1.2062 C   0  0  0  0  0  0  0  0  0  0  0  0
    3.7794    1.5575    0.2407 H   0  0  0  0  0  0  0  0  0  0  0  0
   -0.4362    1.5204    0.3062 H   0  0  0  0  0  0  0  0  0  0  0  0
   -0.1923   -0.1794    2.1335 H   0  0  0  0  0  0  0  0  0  0  0  0
    0.5481   -1.3290    0.8956 H   0  0  0  0  0  0  0  0  0  0  0  0
    0.4994   -0.8549   -1.3632 H   0  0  0  0  0  0  0  0  0  0  0  0
   -0.2722    0.6889   -2.0224 H   0  0  0  0  0  0  0  0  0  0  0  0
  1  2  3  0
  2  3  1  0
  3  4  1  0
  4  5  1  0
  5  6  2  0
  5  7  1  0
  7  8  2  0
  7  9  1  0
  9  3  1  0
  1 10  1  0
  3 11  1  0
  4 12  1  0
  4 13  1  0
  9 14  1  0
  9 15  1  0
M  END
