
     RDKit          3D

 19 19  0  0  0  0  0  0  0  0999 V2000
   -3.1022    1.3701   -0.1640 C   0  0  0  0  0  0  0  0  0  0  0  0
   -2.5708    0.1939   -0.0995 C   0  0  0  0  0  0  0  0  0  0  0  0
   -1.9905   -1.1489   -0.0347 C   0  0  0  0  0  0  0  0  0  0  0  0
   -0.7239   -1.1365    0.4239 O   0  0  0  0  0  0  0  0  0  0  0  0
    0.2344   -0.3960   -0.2042 C   0  0  0  0  0  0  0  0  0  0  0  0
    0.6208    0.8532    0.6088 C   0  0  0  0  0  0  0  0  0  0  0  0
    1.8732    1.2090   -0.0772 C   0  0  0  0  0  0  0  0  0  0  0  0
    2.4207    0.1215   -0.5946 C   0  0  0  0  0  0  0  0  0  0  0  0
    1.5595   -1.0616   -0.3018 C   0  0  0  0  0  0  0  0  0  0  0  0
   -3.4966    2.2781   -0.2077 H   0  0  0  0  0  0  0  0  0  0  0  0
   -2.6224   -1.7853    0.6786 H   0  0  0  0  0  0  0  0  0  0  0  0
   -2.0816   -1.5991   -1.0308 H   0  0  0  0  0  0  0  0  0  0  0  0
   -0.1321    0.0270   -1.1387 H   0  0  0  0  0  0  0  0  0  0  0  0
    0.8816    0.4446    1.6257 H   0  0  0  0  0  0  0  0  0  0  0  0
   -0.1554    1.6014    0.5982 H   0  0  0  0  0  0  0  0  0  0  0  0
    2.3064    2.1942   -0.1955 H   0  0  0  0  0  0  0  0  0  0  0  0
    3.3671    0.1189   -1.1338 H   0  0  0  0  0  0  0  0  0  0  0  0
    1.9368   -1.4804    0.6554 H   0  0  0  0  0  0  0  0  0  0  0  0
    1.6749   -1.8041   -1.1257 H   0  0  0  0  0  0  0  0  0  0  0  0
  1  2  3  0
  2  3  1  0
  3  4  1  0
  4  5  1  0
  5  6  1  0
  6  7  1  0
  7  8  2  0
  8  9  1  0
  9  5  1  0
  1 10  1  0
  3 11  1  0
  3 12  1  0
  5 13  1  0
  6 14  1  0
  6 15  1  0
  7 16  1  0
  8 17  1  0
  9 18  1  0
  9 19  1  0
M  END
