
     RDKit          3D

 21 21  0  0  0  0  0  0  0  0999 V2000
    2.0241    1.5624   -1.3112 C   0  0  0  0  0  0  0  0  0  0  0  0
    1.6012    0.7630   -0.8676 C   0  0  0  0  0  0  0  0  0  0  0  0
    0.9562   -0.4777   -0.1539 C   0  0  0  0  0  0  0  0  0  0  0  0
    1.8935   -0.8221    0.9852 C   0  0  0  0  0  0  0  0  0  0  0  0
   -0.2872    0.1367    0.5427 C   0  0  0  0  0  0  0  0  0  0  0  0
   -1.1193    0.9970   -0.3751 C   0  0  0  0  0  0  0  0  0  0  0  0
   -2.1578    0.0388   -0.8592 C   0  0  0  0  0  0  0  0  0  0  0  0
   -2.5004   -0.6433    0.3390 O   0  0  0  0  0  0  0  0  0  0  0  0
   -1.2694   -0.9736    0.8741 C   0  0  0  0  0  0  0  0  0  0  0  0
    2.5977    2.6037   -1.8809 H   0  0  0  0  0  0  0  0  0  0  0  0
    0.6900   -1.2195   -0.8093 H   0  0  0  0  0  0  0  0  0  0  0  0
    2.4036   -1.7867    0.6754 H   0  0  0  0  0  0  0  0  0  0  0  0
    1.3701   -0.9578    1.9194 H   0  0  0  0  0  0  0  0  0  0  0  0
    2.7420   -0.0946    1.0199 H   0  0  0  0  0  0  0  0  0  0  0  0
    0.0110    0.6866    1.4489 H   0  0  0  0  0  0  0  0  0  0  0  0
   -0.4539    1.3165   -1.2306 H   0  0  0  0  0  0  0  0  0  0  0  0
   -1.5110    1.9253    0.1232 H   0  0  0  0  0  0  0  0  0  0  0  0
   -3.0405    0.6397   -1.1685 H   0  0  0  0  0  0  0  0  0  0  0  0
   -1.8024   -0.6658   -1.5996 H   0  0  0  0  0  0  0  0  0  0  0  0
   -1.2449   -1.1318    1.9729 H   0  0  0  0  0  0  0  0  0  0  0  0
   -0.9023   -1.8968    0.3552 H   0  0  0  0  0  0  0  0  0  0  0  0
  1  2  3  0
  2  3  1  0
  3  4  1  0
  3  5  1  0
  5  6  1  0
  6  7  1  0
  7  8  1  0
  8  9  1  0
  9  5  1  0
  1 10  1  0
  3 11  1  0
  4 12  1  0
  4 13  1  0
  4 14  1  0
  5 15  1  0
  6 16  1  0
  6 17  1  0
  7 18  1  0
  7 19  1  0
  9 20  1  0
  9 21  1  0
M  END
