
     RDKit          3D

 17 18  0  0  0  0  0  0  0  0999 V2000
    3.3403   -0.0667    0.4919 C   0  0  0  0  0  0  0  0  0  0  0  0
    2.2322    0.3522    0.3667 C   0  0  0  0  0  0  0  0  0  0  0  0
    0.8713    0.8717    0.2085 C   0  0  0  0  0  0  0  0  0  0  0  0
   -0.1451   -0.2171    0.1366 C   0  0  0  0  0  0  0  0  0  0  0  0
   -0.1390   -1.2594   -0.9020 C   0  0  0  0  0  0  0  0  0  0  0  0
   -1.0386   -0.1308   -1.1276 C   0  0  0  0  0  0  0  0  0  0  0  0
   -2.1144    0.2704   -0.1515 C   0  0  0  0  0  0  0  0  0  0  0  0
   -1.3446   -0.1871    1.0022 C   0  0  0  0  0  0  0  0  0  0  0  0
   -1.5420   -0.4422    2.1593 O   0  0  0  0  0  0  0  0  0  0  0  0
    4.3191   -0.4484    0.6135 H   0  0  0  0  0  0  0  0  0  0  0  0
    0.8809    1.5229   -0.7123 H   0  0  0  0  0  0  0  0  0  0  0  0
    0.5898    1.5513    1.0436 H   0  0  0  0  0  0  0  0  0  0  0  0
    0.7465   -1.3394   -1.5305 H   0  0  0  0  0  0  0  0  0  0  0  0
   -0.5637   -2.2615   -0.6200 H   0  0  0  0  0  0  0  0  0  0  0  0
   -0.7663    0.6139   -1.8998 H   0  0  0  0  0  0  0  0  0  0  0  0
   -2.2253    1.3749   -0.1359 H   0  0  0  0  0  0  0  0  0  0  0  0
   -3.1013   -0.2047   -0.3175 H   0  0  0  0  0  0  0  0  0  0  0  0
  1  2  3  0
  2  3  1  0
  3  4  1  0
  4  5  1  0
  5  6  1  0
  6  7  1  0
  7  8  1  0
  8  9  2  0
  6  4  1  0
  8  4  1  0
  1 10  1  0
  3 11  1  0
  3 12  1  0
  5 13  1  0
  5 14  1  0
  6 15  1  0
  7 16  1  0
  7 17  1  0
M  END
