
     RDKit          3D

 23 22  0  0  0  0  0  0  0  0999 V2000
   -3.1060    0.5342   -1.9044 C   0  0  0  0  0  0  0  0  0  0  0  0
   -2.2536    0.5941   -1.0561 C   0  0  0  0  0  0  0  0  0  0  0  0
   -1.2708    0.6870   -0.0678 C   0  0  0  0  0  0  0  0  0  0  0  0
   -0.6277   -0.6803    0.2256 C   0  0  0  0  0  0  0  0  0  0  0  0
   -1.7581   -1.6213    0.6718 C   0  0  0  0  0  0  0  0  0  0  0  0
    0.3179   -0.4658    1.3765 C   0  0  0  0  0  0  0  0  0  0  0  0
    1.2637    0.4558    1.0544 O   0  0  0  0  0  0  0  0  0  0  0  0
    2.0928    0.1486   -0.0057 C   0  0  0  0  0  0  0  0  0  0  0  0
    3.0615    1.3345   -0.0936 C   0  0  0  0  0  0  0  0  0  0  0  0
   -3.9139    0.4609   -2.6960 H   0  0  0  0  0  0  0  0  0  0  0  0
   -0.3905    1.3325   -0.4552 H   0  0  0  0  0  0  0  0  0  0  0  0
   -1.6561    1.0881    0.8909 H   0  0  0  0  0  0  0  0  0  0  0  0
   -0.0920   -1.0683   -0.6333 H   0  0  0  0  0  0  0  0  0  0  0  0
   -2.4600   -0.9317    1.2483 H   0  0  0  0  0  0  0  0  0  0  0  0
   -2.3224   -2.0307   -0.1754 H   0  0  0  0  0  0  0  0  0  0  0  0
   -1.3687   -2.3441    1.3976 H   0  0  0  0  0  0  0  0  0  0  0  0
   -0.3291   -0.0633    2.2073 H   0  0  0  0  0  0  0  0  0  0  0  0
    0.7401   -1.4495    1.6805 H   0  0  0  0  0  0  0  0  0  0  0  0
    2.6553   -0.7805    0.1858 H   0  0  0  0  0  0  0  0  0  0  0  0
    1.5296    0.0455   -0.9680 H   0  0  0  0  0  0  0  0  0  0  0  0
    3.9497    1.0576    0.5381 H   0  0  0  0  0  0  0  0  0  0  0  0
    2.5816    2.2335    0.3723 H   0  0  0  0  0  0  0  0  0  0  0  0
    3.3569    1.4631   -1.1419 H   0  0  0  0  0  0  0  0  0  0  0  0
  1  2  3  0
  2  3  1  0
  3  4  1  0
  4  5  1  0
  4  6  1  0
  6  7  1  0
  7  8  1  0
  8  9  1  0
  1 10  1  0
  3 11  1  0
  3 12  1  0
  4 13  1  0
  5 14  1  0
  5 15  1  0
  5 16  1  0
  6 17  1  0
  6 18  1  0
  8 19  1  0
  8 20  1  0
  9 21  1  0
  9 22  1  0
  9 23  1  0
M  END
