
     RDKit          3D

 21 20  0  0  0  0  0  0  0  0999 V2000
    3.3859    1.6342   -0.8420 C   0  0  0  0  0  0  0  0  0  0  0  0
    2.5833    0.9233   -1.3488 C   0  0  0  0  0  0  0  0  0  0  0  0
    1.6391    0.0535   -1.9568 C   0  0  0  0  0  0  0  0  0  0  0  0
    0.7165   -0.2164   -1.1141 O   0  0  0  0  0  0  0  0  0  0  0  0
   -0.0733   -0.5224   -0.2080 C   0  0  0  0  0  0  0  0  0  0  0  0
   -1.0876   -1.6278   -0.4119 C   0  0  0  0  0  0  0  0  0  0  0  0
   -0.8599    0.7116    0.3205 C   0  0  0  0  0  0  0  0  0  0  0  0
   -1.9028    0.2334    1.3667 C   0  0  0  0  0  0  0  0  0  0  0  0
   -1.3577   -0.4495    2.3918 O   0  0  0  0  0  0  0  0  0  0  0  0
    4.2499    2.4217   -0.3061 H   0  0  0  0  0  0  0  0  0  0  0  0
    2.2857   -0.8962   -2.2196 H   0  0  0  0  0  0  0  0  0  0  0  0
    1.3188    0.5415   -2.8887 H   0  0  0  0  0  0  0  0  0  0  0  0
    0.4921   -0.8005    0.7605 H   0  0  0  0  0  0  0  0  0  0  0  0
   -1.7018   -1.3819   -1.2869 H   0  0  0  0  0  0  0  0  0  0  0  0
   -0.5879   -2.6298   -0.5184 H   0  0  0  0  0  0  0  0  0  0  0  0
   -1.7052   -1.7134    0.4790 H   0  0  0  0  0  0  0  0  0  0  0  0
   -0.1524    1.3692    0.8901 H   0  0  0  0  0  0  0  0  0  0  0  0
   -1.3668    1.2191   -0.4770 H   0  0  0  0  0  0  0  0  0  0  0  0
   -2.7466   -0.2266    0.8544 H   0  0  0  0  0  0  0  0  0  0  0  0
   -2.2730    1.2285    1.7896 H   0  0  0  0  0  0  0  0  0  0  0  0
   -0.8564    0.1285    2.9999 H   0  0  0  0  0  0  0  0  0  0  0  0
  1  2  3  0
  2  3  1  0
  3  4  1  0
  4  5  1  0
  5  6  1  0
  5  7  1  0
  7  8  1  0
  8  9  1  0
  1 10  1  0
  3 11  1  0
  3 12  1  0
  5 13  1  0
  6 14  1  0
  6 15  1  0
  6 16  1  0
  7 17  1  0
  7 18  1  0
  8 19  1  0
  8 20  1  0
  9 21  1  0
M  END
