
     RDKit          3D

 19 20  0  0  0  0  0  0  0  0999 V2000
    2.5870    0.5798    1.4026 C   0  0  0  0  0  0  0  0  0  0  0  0
    1.6773    0.4048    0.6536 C   0  0  0  0  0  0  0  0  0  0  0  0
    0.5929    0.1951   -0.2708 C   0  0  0  0  0  0  0  0  0  0  0  0
    0.7162   -0.7240   -1.4348 C   0  0  0  0  0  0  0  0  0  0  0  0
   -0.5316   -1.2991   -1.1581 O   0  0  0  0  0  0  0  0  0  0  0  0
   -0.5383   -0.6573    0.0762 C   0  0  0  0  0  0  0  0  0  0  0  0
   -0.6095   -1.4829    1.3228 C   0  0  0  0  0  0  0  0  0  0  0  0
   -0.7373    0.7986    0.0856 C   0  0  0  0  0  0  0  0  0  0  0  0
   -1.3992    1.5324   -1.0474 C   0  0  0  0  0  0  0  0  0  0  0  0
    3.4029    0.7195    2.0626 H   0  0  0  0  0  0  0  0  0  0  0  0
    0.7233   -0.1505   -2.3999 H   0  0  0  0  0  0  0  0  0  0  0  0
    1.4982   -1.4807   -1.4076 H   0  0  0  0  0  0  0  0  0  0  0  0
    0.3943   -1.8123    1.6680 H   0  0  0  0  0  0  0  0  0  0  0  0
   -1.2305   -2.3936    1.2178 H   0  0  0  0  0  0  0  0  0  0  0  0
   -1.0239   -0.8553    2.1589 H   0  0  0  0  0  0  0  0  0  0  0  0
   -0.8143    1.3015    1.0569 H   0  0  0  0  0  0  0  0  0  0  0  0
   -1.4113    0.9834   -1.9940 H   0  0  0  0  0  0  0  0  0  0  0  0
   -0.8598    2.5021   -1.2628 H   0  0  0  0  0  0  0  0  0  0  0  0
   -2.4364    1.8385   -0.7294 H   0  0  0  0  0  0  0  0  0  0  0  0
  1  2  3  0
  2  3  1  0
  3  4  1  0
  4  5  1  0
  5  6  1  0
  6  7  1  0
  6  8  1  0
  8  9  1  0
  6  3  1  0
  8  3  1  0
  1 10  1  0
  4 11  1  0
  4 12  1  0
  7 13  1  0
  7 14  1  0
  7 15  1  0
  8 16  1  0
  9 17  1  0
  9 18  1  0
  9 19  1  0
M  END
