
     RDKit          3D

 17 17  0  0  0  0  0  0  0  0999 V2000
    2.6670    0.4414   -0.5984 C   0  0  0  0  0  0  0  0  0  0  0  0
    1.4276    0.3539    0.6261 C   0  0  0  0  0  0  0  0  0  0  0  0
    0.8508    0.3002    1.2041 C   0  0  0  0  0  0  0  0  0  0  0  0
   -0.7272   -0.2150    0.5486 C   0  0  0  0  0  0  0  0  0  0  0  0
   -0.8734    1.1075    0.0711 C   0  0  0  0  0  0  0  0  0  0  0  0
   -1.0609    2.7250   -0.4881 C   0  0  0  0  0  0  0  0  0  0  0  0
   -0.8547   -1.4148    0.3136 C   0  0  0  0  0  0  0  0  0  0  0  0
   -0.8609   -0.8311   -1.2805 C   0  0  0  0  0  0  0  0  0  0  0  0
    0.3235   -0.5376   -0.9555 O   0  0  0  0  0  0  0  0  0  0  0  0
    3.3426    0.4998   -1.2562 H   0  0  0  0  0  0  0  0  0  0  0  0
    0.3793    0.7855    2.2248 H   0  0  0  0  0  0  0  0  0  0  0  0
    0.6619   -0.9098    1.9640 H   0  0  0  0  0  0  0  0  0  0  0  0
   -1.1530    3.6671   -0.8169 H   0  0  0  0  0  0  0  0  0  0  0  0
    0.2732   -2.0141    0.2739 H   0  0  0  0  0  0  0  0  0  0  0  0
   -1.5698   -2.2135    0.2375 H   0  0  0  0  0  0  0  0  0  0  0  0
   -1.2468   -1.7766   -1.8726 H   0  0  0  0  0  0  0  0  0  0  0  0
   -1.5793    0.0321   -1.3251 H   0  0  0  0  0  0  0  0  0  0  0  0
  1  2  3  0
  2  3  1  0
  3  4  1  0
  4  5  1  0
  5  6  3  0
  4  7  1  0
  7  8  1  0
  8  9  1  0
  9  4  1  0
  1 10  1  0
  3 11  1  0
  3 12  1  0
  6 13  1  0
  7 14  1  0
  7 15  1  0
  8 16  1  0
  8 17  1  0
M  END
