
     RDKit          3D

 21 22  0  0  0  0  0  0  0  0999 V2000
    1.8511    2.4232    1.2293 C   0  0  0  0  0  0  0  0  0  0  0  0
    1.2004    1.3401    0.7268 C   0  0  0  0  0  0  0  0  0  0  0  0
    0.5583    0.2529    0.2391 C   0  0  0  0  0  0  0  0  0  0  0  0
    0.9990   -0.3191   -1.1041 C   0  0  0  0  0  0  0  0  0  0  0  0
    0.3870   -1.5808   -0.5827 C   0  0  0  0  0  0  0  0  0  0  0  0
   -1.0493   -1.2149   -0.5132 C   0  0  0  0  0  0  0  0  0  0  0  0
   -0.9152    0.0639    0.3214 C   0  0  0  0  0  0  0  0  0  0  0  0
   -1.7720    1.1750   -0.1107 C   0  0  0  0  0  0  0  0  0  0  0  0
    0.9939   -1.1572    0.7482 C   0  0  0  0  0  0  0  0  0  0  0  0
    2.2664    3.1206    1.5361 H   0  0  0  0  0  0  0  0  0  0  0  0
    0.5088    0.1074   -1.9694 H   0  0  0  0  0  0  0  0  0  0  0  0
    2.1070   -0.3834   -1.1962 H   0  0  0  0  0  0  0  0  0  0  0  0
    0.6941   -2.5363   -0.9735 H   0  0  0  0  0  0  0  0  0  0  0  0
   -1.6832   -1.9582   -0.0015 H   0  0  0  0  0  0  0  0  0  0  0  0
   -1.4474   -0.9543   -1.5028 H   0  0  0  0  0  0  0  0  0  0  0  0
   -1.1219   -0.2746    1.3667 H   0  0  0  0  0  0  0  0  0  0  0  0
   -1.2236    1.8197   -0.8693 H   0  0  0  0  0  0  0  0  0  0  0  0
   -2.7307    0.8604   -0.5916 H   0  0  0  0  0  0  0  0  0  0  0  0
   -2.0315    1.7981    0.7629 H   0  0  0  0  0  0  0  0  0  0  0  0
    2.0632   -1.2434    0.8457 H   0  0  0  0  0  0  0  0  0  0  0  0
    0.3457   -1.3390    1.6387 H   0  0  0  0  0  0  0  0  0  0  0  0
  1  2  3  0
  2  3  1  0
  3  4  1  0
  4  5  1  0
  5  6  1  0
  6  7  1  0
  7  8  1  0
  5  9  1  0
  7  3  1  0
  9  3  1  0
  1 10  1  0
  4 11  1  0
  4 12  1  0
  5 13  1  0
  6 14  1  0
  6 15  1  0
  7 16  1  0
  8 17  1  0
  8 18  1  0
  8 19  1  0
  9 20  1  0
  9 21  1  0
M  END
