
     RDKit          3D

 17 18  0  0  0  0  0  0  0  0999 V2000
    2.9437   -0.2739   -1.1925 C   0  0  0  0  0  0  0  0  0  0  0  0
    1.4794   -0.0428   -1.0171 C   0  0  0  0  0  0  0  0  0  0  0  0
    0.3665    0.1523   -0.8889 C   0  0  0  0  0  0  0  0  0  0  0  0
   -0.4892   -0.9625   -0.3664 C   0  0  0  0  0  0  0  0  0  0  0  0
   -0.8812   -0.6187    1.0629 C   0  0  0  0  0  0  0  0  0  0  0  0
   -1.7331    0.5739    1.0682 C   0  0  0  0  0  0  0  0  0  0  0  0
   -0.8191    1.5502    0.6579 O   0  0  0  0  0  0  0  0  0  0  0  0
    0.4760    0.9166    0.7358 C   0  0  0  0  0  0  0  0  0  0  0  0
    0.3881   -0.1604    1.4437 O   0  0  0  0  0  0  0  0  0  0  0  0
    4.0612   -0.4337   -1.3337 H   0  0  0  0  0  0  0  0  0  0  0  0
   -0.1515    1.1264   -1.2580 H   0  0  0  0  0  0  0  0  0  0  0  0
   -1.3585   -1.3116   -0.8995 H   0  0  0  0  0  0  0  0  0  0  0  0
    0.2571   -1.8734   -0.1898 H   0  0  0  0  0  0  0  0  0  0  0  0
   -1.1814   -1.4965    1.6673 H   0  0  0  0  0  0  0  0  0  0  0  0
   -2.5484    0.5645    0.2953 H   0  0  0  0  0  0  0  0  0  0  0  0
   -2.1279    0.7907    2.0956 H   0  0  0  0  0  0  0  0  0  0  0  0
    1.3181    1.4990    0.6369 H   0  0  0  0  0  0  0  0  0  0  0  0
  1  2  3  0
  2  3  1  0
  3  4  1  0
  4  5  1  0
  5  6  1  0
  6  7  1  0
  7  8  1  0
  8  9  1  0
  8  3  1  0
  9  5  1  0
  1 10  1  0
  3 11  1  0
  4 12  1  0
  4 13  1  0
  5 14  1  0
  6 15  1  0
  6 16  1  0
  8 17  1  0
M  END
