
     RDKit          3D

 19 19  0  0  0  0  0  0  0  0999 V2000
   -2.5911    1.5162   -1.1558 C   0  0  0  0  0  0  0  0  0  0  0  0
   -1.8721    0.9181   -0.7553 C   0  0  0  0  0  0  0  0  0  0  0  0
   -0.8113    0.0596   -0.1510 C   0  0  0  0  0  0  0  0  0  0  0  0
   -0.8649   -1.3641    0.0490 C   0  0  0  0  0  0  0  0  0  0  0  0
   -1.9086   -1.6951    0.9626 O   0  0  0  0  0  0  0  0  0  0  0  0
   -0.1468    0.8673    1.0227 C   0  0  0  0  0  0  0  0  0  0  0  0
    0.5918    0.7344   -0.3137 C   0  0  0  0  0  0  0  0  0  0  0  0
    1.6524    0.1405   -0.4465 O   0  0  0  0  0  0  0  0  0  0  0  0
    2.7175   -0.4550   -0.5810 C   0  0  0  0  0  0  0  0  0  0  0  0
   -3.4999    2.2669   -1.6368 H   0  0  0  0  0  0  0  0  0  0  0  0
    0.1086   -1.6512    0.5867 H   0  0  0  0  0  0  0  0  0  0  0  0
   -1.0125   -2.0198   -0.8231 H   0  0  0  0  0  0  0  0  0  0  0  0
   -1.9937   -0.8918    1.5710 H   0  0  0  0  0  0  0  0  0  0  0  0
   -0.5425    1.8477    1.2782 H   0  0  0  0  0  0  0  0  0  0  0  0
    0.2690    0.1966    1.8346 H   0  0  0  0  0  0  0  0  0  0  0  0
    0.3835    1.6527   -1.0504 H   0  0  0  0  0  0  0  0  0  0  0  0
    2.9497   -1.2915    0.2161 H   0  0  0  0  0  0  0  0  0  0  0  0
    2.9209   -1.0564   -1.5339 H   0  0  0  0  0  0  0  0  0  0  0  0
    3.6502    0.2250   -0.4788 H   0  0  0  0  0  0  0  0  0  0  0  0
  1  2  3  0
  2  3  1  0
  3  4  1  0
  4  5  1  0
  3  6  1  0
  6  7  1  0
  7  8  1  0
  8  9  1  0
  7  3  1  0
  1 10  1  0
  4 11  1  0
  4 12  1  0
  5 13  1  0
  6 14  1  0
  6 15  1  0
  7 16  1  0
  9 17  1  0
  9 18  1  0
  9 19  1  0
M  END
