
     RDKit          3D

 21 21  0  0  0  0  0  0  0  0999 V2000
    0.5727    1.3775   -2.6769 C   0  0  0  0  0  0  0  0  0  0  0  0
    0.0257    0.5864   -2.3771 C   0  0  0  0  0  0  0  0  0  0  0  0
   -0.8009   -0.6125   -1.9003 C   0  0  0  0  0  0  0  0  0  0  0  0
   -0.7496   -0.7679   -0.4592 C   0  0  0  0  0  0  0  0  0  0  0  0
   -1.3158    0.4584    0.2693 C   0  0  0  0  0  0  0  0  0  0  0  0
   -0.9862    0.2106    1.5972 O   0  0  0  0  0  0  0  0  0  0  0  0
    0.2217   -0.4888    1.6278 C   0  0  0  0  0  0  0  0  0  0  0  0
    1.2047    0.5439    2.1885 C   0  0  0  0  0  0  0  0  0  0  0  0
    0.6175   -0.8365    0.2052 C   0  0  0  0  0  0  0  0  0  0  0  0
    1.2038    2.3117   -3.0308 H   0  0  0  0  0  0  0  0  0  0  0  0
   -1.8343   -0.4842   -2.2614 H   0  0  0  0  0  0  0  0  0  0  0  0
   -0.3773   -1.5254   -2.4241 H   0  0  0  0  0  0  0  0  0  0  0  0
   -1.3804   -1.6345   -0.1659 H   0  0  0  0  0  0  0  0  0  0  0  0
   -0.7152    1.3399   -0.0251 H   0  0  0  0  0  0  0  0  0  0  0  0
   -2.3609    0.6072    0.0715 H   0  0  0  0  0  0  0  0  0  0  0  0
    0.2143   -1.3511    2.2891 H   0  0  0  0  0  0  0  0  0  0  0  0
    2.1913    0.0877    2.2315 H   0  0  0  0  0  0  0  0  0  0  0  0
    0.7876    0.7236    3.2552 H   0  0  0  0  0  0  0  0  0  0  0  0
    1.1701    1.4924    1.6439 H   0  0  0  0  0  0  0  0  0  0  0  0
    0.9577   -1.8835    0.1704 H   0  0  0  0  0  0  0  0  0  0  0  0
    1.3534   -0.1547   -0.2291 H   0  0  0  0  0  0  0  0  0  0  0  0
  1  2  3  0
  2  3  1  0
  3  4  1  0
  4  5  1  0
  5  6  1  0
  6  7  1  0
  7  8  1  0
  7  9  1  0
  9  4  1  0
  1 10  1  0
  3 11  1  0
  3 12  1  0
  4 13  1  0
  5 14  1  0
  5 15  1  0
  7 16  1  0
  8 17  1  0
  8 18  1  0
  8 19  1  0
  9 20  1  0
  9 21  1  0
M  END
