
     RDKit          3D

 19 20  0  0  0  0  0  0  0  0999 V2000
    1.7400   -1.0448   -2.2116 C   0  0  0  0  0  0  0  0  0  0  0  0
    1.3163   -1.2241   -1.0531 C   0  0  0  0  0  0  0  0  0  0  0  0
    0.8178   -1.4426    0.2536 C   0  0  0  0  0  0  0  0  0  0  0  0
    0.0789   -0.4358    0.9698 C   0  0  0  0  0  0  0  0  0  0  0  0
    0.7042    0.8955    1.2355 C   0  0  0  0  0  0  0  0  0  0  0  0
    0.1911    1.7541    0.3506 C   0  0  0  0  0  0  0  0  0  0  0  0
   -0.7237    1.0542   -0.4847 C   0  0  0  0  0  0  0  0  0  0  0  0
   -1.9895    0.4330   -0.5319 C   0  0  0  0  0  0  0  0  0  0  0  0
   -1.2314    0.0424    0.5699 C   0  0  0  0  0  0  0  0  0  0  0  0
    2.0908   -0.8795   -3.1630 H   0  0  0  0  0  0  0  0  0  0  0  0
    0.2724   -2.4606    0.2377 H   0  0  0  0  0  0  0  0  0  0  0  0
    1.7031   -1.7447    0.9404 H   0  0  0  0  0  0  0  0  0  0  0  0
   -0.0575   -0.8732    2.0834 H   0  0  0  0  0  0  0  0  0  0  0  0
    1.4450    1.1031    2.0164 H   0  0  0  0  0  0  0  0  0  0  0  0
    0.5062    2.8297    0.3598 H   0  0  0  0  0  0  0  0  0  0  0  0
   -0.1031    0.7052   -1.3690 H   0  0  0  0  0  0  0  0  0  0  0  0
   -2.8806    1.0917   -0.4550 H   0  0  0  0  0  0  0  0  0  0  0  0
   -2.2172   -0.3724   -1.2834 H   0  0  0  0  0  0  0  0  0  0  0  0
   -1.6628    0.5687    1.5346 H   0  0  0  0  0  0  0  0  0  0  0  0
  1  2  3  0
  2  3  1  0
  3  4  1  0
  4  5  1  0
  5  6  2  0
  6  7  1  0
  7  8  1  0
  8  9  1  0
  9  4  1  0
  9  7  1  0
  1 10  1  0
  3 11  1  0
  3 12  1  0
  4 13  1  0
  5 14  1  0
  6 15  1  0
  7 16  1  0
  8 17  1  0
  8 18  1  0
  9 19  1  0
M  END
