
     RDKit          3D

 21 21  0  0  0  0  0  0  0  0999 V2000
    3.1160    1.6131   -0.3279 C   0  0  0  0  0  0  0  0  0  0  0  0
    1.9227    0.5396   -0.4120 C   0  0  0  0  0  0  0  0  0  0  0  0
    1.0603   -0.2486   -0.4547 C   0  0  0  0  0  0  0  0  0  0  0  0
    0.7425   -0.7909   -1.9304 C   0  0  0  0  0  0  0  0  0  0  0  0
   -0.2845   -0.0461    0.1417 C   0  0  0  0  0  0  0  0  0  0  0  0
   -1.0089   -1.3582    0.0924 C   0  0  0  0  0  0  0  0  0  0  0  0
   -0.6172    0.9230    1.1304 C   0  0  0  0  0  0  0  0  0  0  0  0
   -1.9253    1.0527    1.6971 C   0  0  0  0  0  0  0  0  0  0  0  0
   -0.7810    0.7104    2.5128 O   0  0  0  0  0  0  0  0  0  0  0  0
    3.8144    2.2406   -0.2663 H   0  0  0  0  0  0  0  0  0  0  0  0
    1.4075   -1.3149    0.0611 H   0  0  0  0  0  0  0  0  0  0  0  0
    0.1373   -0.1032   -2.4342 H   0  0  0  0  0  0  0  0  0  0  0  0
    1.7925   -0.7898   -2.4376 H   0  0  0  0  0  0  0  0  0  0  0  0
    0.3781   -1.7984   -1.8174 H   0  0  0  0  0  0  0  0  0  0  0  0
   -0.8475    0.4283   -0.8732 H   0  0  0  0  0  0  0  0  0  0  0  0
   -0.4528   -2.1869    0.6593 H   0  0  0  0  0  0  0  0  0  0  0  0
   -1.2952   -1.7632   -0.8652 H   0  0  0  0  0  0  0  0  0  0  0  0
   -1.9777   -1.2457    0.7151 H   0  0  0  0  0  0  0  0  0  0  0  0
   -0.0758    1.9234    0.9898 H   0  0  0  0  0  0  0  0  0  0  0  0
   -2.3851    2.0124    1.8736 H   0  0  0  0  0  0  0  0  0  0  0  0
   -2.7203    0.2022    1.7559 H   0  0  0  0  0  0  0  0  0  0  0  0
  1  2  3  0
  2  3  1  0
  3  4  1  0
  3  5  1  0
  5  6  1  0
  5  7  1  0
  7  8  1  0
  8  9  1  0
  9  7  1  0
  1 10  1  0
  3 11  1  0
  4 12  1  0
  4 13  1  0
  4 14  1  0
  5 15  1  0
  6 16  1  0
  6 17  1  0
  6 18  1  0
  7 19  1  0
  8 20  1  0
  8 21  1  0
M  END
