
     RDKit          3D

 16 17  0  0  0  0  0  0  0  0999 V2000
    2.7752   -0.9619   -1.0382 C   0  0  0  0  0  0  0  0  0  0  0  0
    1.8394   -0.7239   -0.2562 C   0  0  0  0  0  0  0  0  0  0  0  0
    0.7312   -0.4677    0.6641 C   0  0  0  0  0  0  0  0  0  0  0  0
    0.4020    0.9416    1.0504 C   0  0  0  0  0  0  0  0  0  0  0  0
   -0.4798    0.1874    0.2099 C   0  0  0  0  0  0  0  0  0  0  0  0
   -0.9025    0.4971   -1.1598 C   0  0  0  0  0  0  0  0  0  0  0  0
   -2.2088    0.1101   -0.8082 O   0  0  0  0  0  0  0  0  0  0  0  0
   -1.8582   -0.2770    0.5014 C   0  0  0  0  0  0  0  0  0  0  0  0
    3.5563   -1.1439   -1.6781 H   0  0  0  0  0  0  0  0  0  0  0  0
    0.6630   -1.2666    1.4505 H   0  0  0  0  0  0  0  0  0  0  0  0
    0.1714    1.0880    2.1435 H   0  0  0  0  0  0  0  0  0  0  0  0
    1.0727    1.7132    0.5864 H   0  0  0  0  0  0  0  0  0  0  0  0
   -0.9513    1.5745   -1.4660 H   0  0  0  0  0  0  0  0  0  0  0  0
   -0.4790   -0.0917   -1.9966 H   0  0  0  0  0  0  0  0  0  0  0  0
   -2.4458    0.2289    1.2733 H   0  0  0  0  0  0  0  0  0  0  0  0
   -1.8859   -1.4080    0.5236 H   0  0  0  0  0  0  0  0  0  0  0  0
  1  2  3  0
  2  3  1  0
  3  4  1  0
  4  5  1  0
  5  6  1  0
  6  7  1  0
  7  8  1  0
  5  3  1  0
  8  5  1  0
  1  9  1  0
  3 10  1  0
  4 11  1  0
  4 12  1  0
  6 13  1  0
  6 14  1  0
  8 15  1  0
  8 16  1  0
M  END
