
     RDKit          3D

 18 19  0  0  0  0  0  0  0  0999 V2000
    3.2573   -0.0220   -1.2150 C   0  0  0  0  0  0  0  0  0  0  0  0
    1.8409    0.0817   -0.7422 C   0  0  0  0  0  0  0  0  0  0  0  0
    0.6176    0.1889   -0.3183 C   0  0  0  0  0  0  0  0  0  0  0  0
    0.2335   -0.8999    0.8037 C   0  0  0  0  0  0  0  0  0  0  0  0
   -1.1859   -1.2506    0.5588 C   0  0  0  0  0  0  0  0  0  0  0  0
   -1.7345   -0.0659   -0.1529 C   0  0  0  0  0  0  0  0  0  0  0  0
   -0.6230    0.7560   -0.7257 C   0  0  0  0  0  0  0  0  0  0  0  0
    0.1764    1.5788    0.2192 C   0  0  0  0  0  0  0  0  0  0  0  0
    4.0893   -0.0905   -1.5026 H   0  0  0  0  0  0  0  0  0  0  0  0
    0.9016   -1.7240    0.7109 H   0  0  0  0  0  0  0  0  0  0  0  0
    0.3065   -0.3484    1.8031 H   0  0  0  0  0  0  0  0  0  0  0  0
   -1.6797   -1.3696    1.5861 H   0  0  0  0  0  0  0  0  0  0  0  0
   -1.2923   -2.1239   -0.0934 H   0  0  0  0  0  0  0  0  0  0  0  0
   -2.3999    0.5335    0.5176 H   0  0  0  0  0  0  0  0  0  0  0  0
   -2.4573   -0.4621   -0.9439 H   0  0  0  0  0  0  0  0  0  0  0  0
   -0.8436    1.2894   -1.7056 H   0  0  0  0  0  0  0  0  0  0  0  0
   -0.0462    1.5470    1.3406 H   0  0  0  0  0  0  0  0  0  0  0  0
    0.8392    2.3813   -0.1404 H   0  0  0  0  0  0  0  0  0  0  0  0
  1  2  3  0
  2  3  1  0
  3  4  1  0
  4  5  1  0
  5  6  1  0
  6  7  1  0
  7  8  1  0
  7  3  1  0
  8  3  1  0
  1  9  1  0
  4 10  1  0
  4 11  1  0
  5 12  1  0
  5 13  1  0
  6 14  1  0
  6 15  1  0
  7 16  1  0
  8 17  1  0
  8 18  1  0
M  END
