
     RDKit          3D

 17 18  0  0  0  0  0  0  0  0999 V2000
   -2.8462    0.6530    0.6509 C   0  0  0  0  0  0  0  0  0  0  0  0
   -1.9838   -0.1796    0.7933 C   0  0  0  0  0  0  0  0  0  0  0  0
   -0.9270   -1.1664    0.9735 C   0  0  0  0  0  0  0  0  0  0  0  0
    0.2633   -0.7577    0.1855 C   0  0  0  0  0  0  0  0  0  0  0  0
    0.9622    0.5476    0.4384 C   0  0  0  0  0  0  0  0  0  0  0  0
    1.4212    0.4948   -1.0262 C   0  0  0  0  0  0  0  0  0  0  0  0
    0.9851    1.5756   -1.7812 O   0  0  0  0  0  0  0  0  0  0  0  0
    0.5328   -0.7406   -1.1456 C   0  0  0  0  0  0  0  0  0  0  0  0
    1.0050   -1.8042   -0.3538 O   0  0  0  0  0  0  0  0  0  0  0  0
   -3.6239    1.3892    0.5368 H   0  0  0  0  0  0  0  0  0  0  0  0
   -1.2898   -2.1365    0.5886 H   0  0  0  0  0  0  0  0  0  0  0  0
   -0.6286   -1.2777    2.0363 H   0  0  0  0  0  0  0  0  0  0  0  0
    0.2890    1.3962    0.5828 H   0  0  0  0  0  0  0  0  0  0  0  0
    1.7807    0.4189    1.1657 H   0  0  0  0  0  0  0  0  0  0  0  0
    2.4632    0.2036   -1.1699 H   0  0  0  0  0  0  0  0  0  0  0  0
    1.6049    2.3219   -1.5805 H   0  0  0  0  0  0  0  0  0  0  0  0
   -0.0083   -0.9382   -2.0642 H   0  0  0  0  0  0  0  0  0  0  0  0
  1  2  3  0
  2  3  1  0
  3  4  1  0
  4  5  1  0
  5  6  1  0
  6  7  1  0
  6  8  1  0
  8  9  1  0
  8  4  1  0
  9  4  1  0
  1 10  1  0
  3 11  1  0
  3 12  1  0
  5 13  1  0
  5 14  1  0
  6 15  1  0
  7 16  1  0
  8 17  1  0
M  END
