
     RDKit          3D

 19 20  0  0  0  0  0  0  0  0999 V2000
   -0.9122    1.8093    2.1174 C   0  0  0  0  0  0  0  0  0  0  0  0
   -0.6505    1.2014    1.0870 C   0  0  0  0  0  0  0  0  0  0  0  0
   -0.3280    0.4857   -0.1764 C   0  0  0  0  0  0  0  0  0  0  0  0
   -1.5679   -0.2577   -0.6307 C   0  0  0  0  0  0  0  0  0  0  0  0
   -1.2329   -1.0736    0.6362 C   0  0  0  0  0  0  0  0  0  0  0  0
    0.1368   -1.0184    0.0151 C   0  0  0  0  0  0  0  0  0  0  0  0
    1.0301    0.0595   -0.2148 C   0  0  0  0  0  0  0  0  0  0  0  0
    1.7474    0.3198   -1.5546 C   0  0  0  0  0  0  0  0  0  0  0  0
    1.9408    0.3217    0.8437 O   0  0  0  0  0  0  0  0  0  0  0  0
   -1.1395    2.3444    2.9991 H   0  0  0  0  0  0  0  0  0  0  0  0
   -1.4287   -0.8559   -1.5255 H   0  0  0  0  0  0  0  0  0  0  0  0
   -2.4775    0.3197   -0.5143 H   0  0  0  0  0  0  0  0  0  0  0  0
   -1.4083   -0.5858    1.5812 H   0  0  0  0  0  0  0  0  0  0  0  0
   -1.6704   -2.0803    0.6455 H   0  0  0  0  0  0  0  0  0  0  0  0
    0.0558   -1.6458   -0.9374 H   0  0  0  0  0  0  0  0  0  0  0  0
    1.0249    0.5036   -2.3652 H   0  0  0  0  0  0  0  0  0  0  0  0
    2.3674    1.2389   -1.4603 H   0  0  0  0  0  0  0  0  0  0  0  0
    2.3637   -0.5441   -1.8338 H   0  0  0  0  0  0  0  0  0  0  0  0
    2.1490   -0.5423    1.2876 H   0  0  0  0  0  0  0  0  0  0  0  0
  1  2  3  0
  2  3  1  0
  3  4  1  0
  4  5  1  0
  5  6  1  0
  6  7  1  0
  7  8  1  0
  7  9  1  0
  6  3  1  0
  7  3  1  0
  1 10  1  0
  4 11  1  0
  4 12  1  0
  5 13  1  0
  5 14  1  0
  6 15  1  0
  8 16  1  0
  8 17  1  0
  8 18  1  0
  9 19  1  0
M  END
