
     RDKit          3D

 19 20  0  0  0  0  0  0  0  0999 V2000
    2.9739   -2.1982   -0.8933 C   0  0  0  0  0  0  0  0  0  0  0  0
    2.0460   -1.4414   -0.7338 C   0  0  0  0  0  0  0  0  0  0  0  0
    0.9215   -0.5457   -0.5255 C   0  0  0  0  0  0  0  0  0  0  0  0
   -0.3054   -1.0049   -0.3258 C   0  0  0  0  0  0  0  0  0  0  0  0
   -1.1955    0.2265   -0.1441 C   0  0  0  0  0  0  0  0  0  0  0  0
   -2.3764   -0.1924    0.6955 C   0  0  0  0  0  0  0  0  0  0  0  0
   -0.1690    0.9843    0.6516 C   0  0  0  0  0  0  0  0  0  0  0  0
    0.8080    1.9414    0.3761 C   0  0  0  0  0  0  0  0  0  0  0  0
    0.8509    0.8801   -0.5312 C   0  0  0  0  0  0  0  0  0  0  0  0
    3.7765   -2.8701   -1.0354 H   0  0  0  0  0  0  0  0  0  0  0  0
   -0.6799   -2.0184   -0.2857 H   0  0  0  0  0  0  0  0  0  0  0  0
   -1.4387    0.6889   -1.0965 H   0  0  0  0  0  0  0  0  0  0  0  0
   -2.0103   -0.2617    1.7527 H   0  0  0  0  0  0  0  0  0  0  0  0
   -3.2373    0.4800    0.5916 H   0  0  0  0  0  0  0  0  0  0  0  0
   -2.6253   -1.2407    0.3842 H   0  0  0  0  0  0  0  0  0  0  0  0
    0.0564    0.3453    1.5652 H   0  0  0  0  0  0  0  0  0  0  0  0
    1.6871    2.0823    1.0573 H   0  0  0  0  0  0  0  0  0  0  0  0
    0.4655    2.9704    0.0606 H   0  0  0  0  0  0  0  0  0  0  0  0
    0.4520    1.1745   -1.5637 H   0  0  0  0  0  0  0  0  0  0  0  0
  1  2  3  0
  2  3  1  0
  3  4  2  0
  4  5  1  0
  5  6  1  0
  5  7  1  0
  7  8  1  0
  8  9  1  0
  9  3  1  0
  9  7  1  0
  1 10  1  0
  4 11  1  0
  5 12  1  0
  6 13  1  0
  6 14  1  0
  6 15  1  0
  7 16  1  0
  8 17  1  0
  8 18  1  0
  9 19  1  0
M  END
