
     RDKit          3D

 15 16  0  0  0  0  0  0  0  0999 V2000
    3.1534   -1.0872    0.5352 C   0  0  0  0  0  0  0  0  0  0  0  0
    1.8097   -0.8286    0.6678 C   0  0  0  0  0  0  0  0  0  0  0  0
    0.4740   -0.5762    0.8229 C   0  0  0  0  0  0  0  0  0  0  0  0
   -0.6703   -0.7982    1.1590 C   0  0  0  0  0  0  0  0  0  0  0  0
   -1.4993   -0.2132   -0.0128 C   0  0  0  0  0  0  0  0  0  0  0  0
   -1.2095    1.2006    0.3657 C   0  0  0  0  0  0  0  0  0  0  0  0
    0.1609    0.8163    0.0128 C   0  0  0  0  0  0  0  0  0  0  0  0
   -0.5643   -0.0281   -1.1128 C   0  0  0  0  0  0  0  0  0  0  0  0
   -0.1659   -0.1667   -2.1833 O   0  0  0  0  0  0  0  0  0  0  0  0
    4.2982   -1.2890    0.4320 H   0  0  0  0  0  0  0  0  0  0  0  0
   -1.2123   -1.2560    2.0208 H   0  0  0  0  0  0  0  0  0  0  0  0
   -2.4616   -0.6238   -0.0921 H   0  0  0  0  0  0  0  0  0  0  0  0
   -1.6449    1.8770   -0.4539 H   0  0  0  0  0  0  0  0  0  0  0  0
   -1.4185    1.5755    1.3570 H   0  0  0  0  0  0  0  0  0  0  0  0
    0.9505    1.3976   -0.2272 H   0  0  0  0  0  0  0  0  0  0  0  0
  1  2  3  0
  2  3  1  0
  3  4  2  0
  4  5  1  0
  5  6  1  0
  6  7  1  0
  7  8  1  0
  8  9  2  0
  7  3  1  0
  8  5  1  0
  1 10  1  0
  4 11  1  0
  5 12  1  0
  6 13  1  0
  6 14  1  0
  7 15  1  0
M  END
