
     RDKit          3D

 20 19  0  0  0  0  0  0  0  0999 V2000
   -1.4272    3.0305    0.9745 C   0  0  0  0  0  0  0  0  0  0  0  0
   -1.0623    1.8936    0.8583 C   0  0  0  0  0  0  0  0  0  0  0  0
   -0.6523    0.5438    0.7263 C   0  0  0  0  0  0  0  0  0  0  0  0
   -0.9747   -0.3825    1.8449 C   0  0  0  0  0  0  0  0  0  0  0  0
    0.3598    0.2461   -0.2999 C   0  0  0  0  0  0  0  0  0  0  0  0
    0.8527   -1.1324   -0.4382 C   0  0  0  0  0  0  0  0  0  0  0  0
    1.8975   -1.2518   -1.3796 O   0  0  0  0  0  0  0  0  0  0  0  0
    1.5360   -0.8849   -2.6678 C   0  0  0  0  0  0  0  0  0  0  0  0
   -1.8188    4.1809    1.0899 H   0  0  0  0  0  0  0  0  0  0  0  0
   -1.6985    0.1653    0.0078 H   0  0  0  0  0  0  0  0  0  0  0  0
   -0.5367   -0.2060    2.8069 H   0  0  0  0  0  0  0  0  0  0  0  0
   -0.9201   -1.4887    1.5626 H   0  0  0  0  0  0  0  0  0  0  0  0
   -2.1256   -0.2943    2.0714 H   0  0  0  0  0  0  0  0  0  0  0  0
    1.2647    0.9126   -0.1262 H   0  0  0  0  0  0  0  0  0  0  0  0
   -0.0893    0.4649   -1.3641 H   0  0  0  0  0  0  0  0  0  0  0  0
    0.0745   -1.8777   -0.7697 H   0  0  0  0  0  0  0  0  0  0  0  0
    1.2793   -1.4623    0.5714 H   0  0  0  0  0  0  0  0  0  0  0  0
    1.2810    0.1702   -2.7610 H   0  0  0  0  0  0  0  0  0  0  0  0
    0.5177   -1.4127   -2.9089 H   0  0  0  0  0  0  0  0  0  0  0  0
    2.2423   -1.2146   -3.4573 H   0  0  0  0  0  0  0  0  0  0  0  0
  1  2  3  0
  2  3  1  0
  3  4  1  0
  3  5  1  0
  5  6  1  0
  6  7  1  0
  7  8  1  0
  1  9  1  0
  3 10  1  0
  4 11  1  0
  4 12  1  0
  4 13  1  0
  5 14  1  0
  5 15  1  0
  6 16  1  0
  6 17  1  0
  8 18  1  0
  8 19  1  0
  8 20  1  0
M  END
