
     RDKit          3D

 15 15  0  0  0  0  0  0  0  0999 V2000
    2.5402   -0.1318   -0.7911 C   0  0  0  0  0  0  0  0  0  0  0  0
    1.3815   -0.0424   -0.4702 C   0  0  0  0  0  0  0  0  0  0  0  0
   -0.0084    0.0618   -0.1083 C   0  0  0  0  0  0  0  0  0  0  0  0
   -0.9421    0.6475   -1.1282 C   0  0  0  0  0  0  0  0  0  0  0  0
   -0.2174    0.5418    1.3100 C   0  0  0  0  0  0  0  0  0  0  0  0
    0.1735   -0.7556    1.7221 O   0  0  0  0  0  0  0  0  0  0  0  0
   -0.5051   -1.2116    0.5680 C   0  0  0  0  0  0  0  0  0  0  0  0
    3.5649   -0.2123   -1.0598 H   0  0  0  0  0  0  0  0  0  0  0  0
   -0.6035    0.2755   -2.1245 H   0  0  0  0  0  0  0  0  0  0  0  0
   -0.8211    1.7479   -1.1378 H   0  0  0  0  0  0  0  0  0  0  0  0
   -1.9796    0.4040   -0.8940 H   0  0  0  0  0  0  0  0  0  0  0  0
   -1.3060    0.6769    1.5125 H   0  0  0  0  0  0  0  0  0  0  0  0
    0.4366    1.3455    1.6531 H   0  0  0  0  0  0  0  0  0  0  0  0
   -1.5897   -1.2039    0.7979 H   0  0  0  0  0  0  0  0  0  0  0  0
   -0.1238   -2.1434    0.1503 H   0  0  0  0  0  0  0  0  0  0  0  0
  1  2  3  0
  2  3  1  0
  3  4  1  0
  3  5  1  0
  5  6  1  0
  6  7  1  0
  7  3  1  0
  1  8  1  0
  4  9  1  0
  4 10  1  0
  4 11  1  0
  5 12  1  0
  5 13  1  0
  7 14  1  0
  7 15  1  0
M  END
