
     RDKit          3D

 19 19  0  0  0  0  0  0  0  0999 V2000
   -1.0184    3.2261   -0.5025 C   0  0  0  0  0  0  0  0  0  0  0  0
   -0.7968    2.1887    0.1091 C   0  0  0  0  0  0  0  0  0  0  0  0
   -0.5401    0.9589    0.8601 C   0  0  0  0  0  0  0  0  0  0  0  0
    0.6803    0.2256    0.4698 C   0  0  0  0  0  0  0  0  0  0  0  0
    1.3935    0.5488   -0.6654 O   0  0  0  0  0  0  0  0  0  0  0  0
    2.7069    0.1385   -0.5637 C   0  0  0  0  0  0  0  0  0  0  0  0
   -0.7094   -0.3550    0.1838 C   0  0  0  0  0  0  0  0  0  0  0  0
   -1.0586   -1.4739    0.8985 O   0  0  0  0  0  0  0  0  0  0  0  0
   -1.8474   -2.3213    0.1217 C   0  0  0  0  0  0  0  0  0  0  0  0
   -1.2275    4.1237   -1.0252 H   0  0  0  0  0  0  0  0  0  0  0  0
   -0.7703    0.9476    1.9570 H   0  0  0  0  0  0  0  0  0  0  0  0
    1.2653   -0.3031    1.2691 H   0  0  0  0  0  0  0  0  0  0  0  0
    3.2037    0.6347    0.3158 H   0  0  0  0  0  0  0  0  0  0  0  0
    3.2570    0.3436   -1.4971 H   0  0  0  0  0  0  0  0  0  0  0  0
    2.7883   -0.9725   -0.3943 H   0  0  0  0  0  0  0  0  0  0  0  0
   -1.0901   -0.3012   -0.8502 H   0  0  0  0  0  0  0  0  0  0  0  0
   -1.3241   -2.6601   -0.7934 H   0  0  0  0  0  0  0  0  0  0  0  0
   -2.1347   -3.1797    0.7779 H   0  0  0  0  0  0  0  0  0  0  0  0
   -2.7773   -1.7693   -0.1983 H   0  0  0  0  0  0  0  0  0  0  0  0
  1  2  3  0
  2  3  1  0
  3  4  1  0
  4  5  1  0
  5  6  1  0
  4  7  1  0
  7  8  1  0
  8  9  1  0
  7  3  1  0
  1 10  1  0
  3 11  1  0
  4 12  1  0
  6 13  1  0
  6 14  1  0
  6 15  1  0
  7 16  1  0
  9 17  1  0
  9 18  1  0
  9 19  1  0
M  END
