
     RDKit          3D

 17 18  0  0  0  0  0  0  0  0999 V2000
    2.2233    0.8554    2.9224 C   0  0  0  0  0  0  0  0  0  0  0  0
    1.2863    0.3706    2.2655 C   0  0  0  0  0  0  0  0  0  0  0  0
    0.0286   -0.2582    1.3833 C   0  0  0  0  0  0  0  0  0  0  0  0
   -1.0720    0.2304    1.0808 O   0  0  0  0  0  0  0  0  0  0  0  0
   -0.8477    0.0106   -0.3208 C   0  0  0  0  0  0  0  0  0  0  0  0
   -1.6389    1.0441   -1.1120 C   0  0  0  0  0  0  0  0  0  0  0  0
    0.1462   -0.8174   -1.0262 C   0  0  0  0  0  0  0  0  0  0  0  0
    0.2058   -0.5499   -2.3996 O   0  0  0  0  0  0  0  0  0  0  0  0
    0.5600    0.1753   -0.0438 C   0  0  0  0  0  0  0  0  0  0  0  0
    2.8782    1.1806    3.3875 H   0  0  0  0  0  0  0  0  0  0  0  0
    0.1170   -1.3285    1.5271 H   0  0  0  0  0  0  0  0  0  0  0  0
   -2.6007    0.6547   -1.4541 H   0  0  0  0  0  0  0  0  0  0  0  0
   -0.9916    1.3728   -1.9408 H   0  0  0  0  0  0  0  0  0  0  0  0
   -1.7550    1.9783   -0.4846 H   0  0  0  0  0  0  0  0  0  0  0  0
    0.1996   -1.8961   -0.6956 H   0  0  0  0  0  0  0  0  0  0  0  0
    0.1901   -1.3759   -2.9443 H   0  0  0  0  0  0  0  0  0  0  0  0
    1.0711    1.1212   -0.1448 H   0  0  0  0  0  0  0  0  0  0  0  0
  1  2  3  0
  2  3  1  0
  3  4  1  0
  4  5  1  0
  5  6  1  0
  5  7  1  0
  7  8  1  0
  7  9  1  0
  9  3  1  0
  9  5  1  0
  1 10  1  0
  3 11  1  0
  6 12  1  0
  6 13  1  0
  6 14  1  0
  7 15  1  0
  8 16  1  0
  9 17  1  0
M  END
