
     RDKit          3D

 17 17  0  0  0  0  0  0  0  0999 V2000
    2.3089   -1.9212    0.3473 C   0  0  0  0  0  0  0  0  0  0  0  0
    1.5498   -1.0693   -0.1523 C   0  0  0  0  0  0  0  0  0  0  0  0
    0.6699   -0.0479   -0.7295 C   0  0  0  0  0  0  0  0  0  0  0  0
   -0.7775   -0.0688   -0.6845 C   0  0  0  0  0  0  0  0  0  0  0  0
   -1.5813   -1.0916    0.0848 C   0  0  0  0  0  0  0  0  0  0  0  0
   -0.0530    0.8792    0.1949 C   0  0  0  0  0  0  0  0  0  0  0  0
    0.2310    0.6603    1.5259 O   0  0  0  0  0  0  0  0  0  0  0  0
   -0.1768    2.3275   -0.1236 C   0  0  0  0  0  0  0  0  0  0  0  0
   -1.2600    2.6798   -0.5631 O   0  0  0  0  0  0  0  0  0  0  0  0
    2.9154   -2.5872    0.7579 H   0  0  0  0  0  0  0  0  0  0  0  0
    1.0891    0.2689   -1.7268 H   0  0  0  0  0  0  0  0  0  0  0  0
   -1.3504    0.3335   -1.5784 H   0  0  0  0  0  0  0  0  0  0  0  0
   -0.8914   -1.9188    0.4174 H   0  0  0  0  0  0  0  0  0  0  0  0
   -2.3794   -1.5486   -0.5209 H   0  0  0  0  0  0  0  0  0  0  0  0
   -2.0222   -0.5330    0.9372 H   0  0  0  0  0  0  0  0  0  0  0  0
    1.1327    0.5847    1.8134 H   0  0  0  0  0  0  0  0  0  0  0  0
    0.5952    3.0526    0.0000 H   0  0  0  0  0  0  0  0  0  0  0  0
  1  2  3  0
  2  3  1  0
  3  4  1  0
  4  5  1  0
  4  6  1  0
  6  7  1  0
  6  8  1  0
  8  9  2  0
  6  3  1  0
  1 10  1  0
  3 11  1  0
  4 12  1  0
  5 13  1  0
  5 14  1  0
  5 15  1  0
  7 16  1  0
  8 17  1  0
M  END
