
     RDKit          3D

 13 13  0  0  0  0  0  0  0  0999 V2000
    2.4628    0.3566    1.1609 C   0  0  0  0  0  0  0  0  0  0  0  0
    1.5725    0.4432   -0.0555 C   0  0  0  0  0  0  0  0  0  0  0  0
    0.8978    0.4913   -0.9703 C   0  0  0  0  0  0  0  0  0  0  0  0
    0.5815    0.7437   -2.1467 O   0  0  0  0  0  0  0  0  0  0  0  0
   -0.6632   -0.2276   -0.4436 C   0  0  0  0  0  0  0  0  0  0  0  0
   -1.3679    0.4278   -0.3344 C   0  0  0  0  0  0  0  0  0  0  0  0
   -2.3760    1.3848   -0.1871 C   0  0  0  0  0  0  0  0  0  0  0  0
   -0.2030   -1.4614    0.3242 C   0  0  0  0  0  0  0  0  0  0  0  0
   -0.4047   -1.5759   -1.0333 O   0  0  0  0  0  0  0  0  0  0  0  0
    3.0207    0.3108    1.9206 H   0  0  0  0  0  0  0  0  0  0  0  0
   -3.4653    2.4196   -0.0275 H   0  0  0  0  0  0  0  0  0  0  0  0
   -0.9108   -1.7823    1.1714 H   0  0  0  0  0  0  0  0  0  0  0  0
    0.8556   -1.5306    0.6212 H   0  0  0  0  0  0  0  0  0  0  0  0
  1  2  3  0
  2  3  1  0
  3  4  2  0
  3  5  1  0
  5  6  1  0
  6  7  3  0
  5  8  1  0
  8  9  1  0
  9  5  1  0
  1 10  1  0
  7 11  1  0
  8 12  1  0
  8 13  1  0
M  END
