
     RDKit          3D

 21 21  0  0  0  0  0  0  0  0999 V2000
    2.4258   -1.7622    0.1788 C   0  0  0  0  0  0  0  0  0  0  0  0
    1.6026   -1.0015   -0.2660 C   0  0  0  0  0  0  0  0  0  0  0  0
    0.6118   -0.0509   -0.8094 C   0  0  0  0  0  0  0  0  0  0  0  0
   -0.6049   -0.7729   -1.2853 C   0  0  0  0  0  0  0  0  0  0  0  0
   -1.7321   -0.8431   -0.3152 C   0  0  0  0  0  0  0  0  0  0  0  0
   -1.2390   -0.6958    1.1315 C   0  0  0  0  0  0  0  0  0  0  0  0
   -0.5794    0.6638    1.1534 C   0  0  0  0  0  0  0  0  0  0  0  0
    0.3165    0.9848    0.2193 C   0  0  0  0  0  0  0  0  0  0  0  0
    0.9978    2.3249    0.2011 C   0  0  0  0  0  0  0  0  0  0  0  0
    3.1509   -2.4356    0.5914 H   0  0  0  0  0  0  0  0  0  0  0  0
    1.0691    0.4537   -1.6991 H   0  0  0  0  0  0  0  0  0  0  0  0
   -0.2972   -1.8262   -1.5350 H   0  0  0  0  0  0  0  0  0  0  0  0
   -1.0087   -0.3566   -2.2434 H   0  0  0  0  0  0  0  0  0  0  0  0
   -2.2301   -1.8299   -0.4051 H   0  0  0  0  0  0  0  0  0  0  0  0
   -2.5285   -0.0918   -0.5049 H   0  0  0  0  0  0  0  0  0  0  0  0
   -2.1326   -0.6177    1.7653 H   0  0  0  0  0  0  0  0  0  0  0  0
   -0.5497   -1.4955    1.3845 H   0  0  0  0  0  0  0  0  0  0  0  0
   -0.8058    1.4052    1.9091 H   0  0  0  0  0  0  0  0  0  0  0  0
    1.8652    2.2334   -0.4798 H   0  0  0  0  0  0  0  0  0  0  0  0
    0.3326    3.1088   -0.2193 H   0  0  0  0  0  0  0  0  0  0  0  0
    1.3356    2.6051    1.2280 H   0  0  0  0  0  0  0  0  0  0  0  0
  1  2  3  0
  2  3  1  0
  3  4  1  0
  4  5  1  0
  5  6  1  0
  6  7  1  0
  7  8  2  0
  8  9  1  0
  8  3  1  0
  1 10  1  0
  3 11  1  0
  4 12  1  0
  4 13  1  0
  5 14  1  0
  5 15  1  0
  6 16  1  0
  6 17  1  0
  7 18  1  0
  9 19  1  0
  9 20  1  0
  9 21  1  0
M  END
