
     RDKit          3D

 18 17  0  0  0  0  0  0  0  0999 V2000
    3.3893   -1.6775    3.9315 C   0  0  0  0  0  0  0  0  0  0  0  0
    2.7516   -1.4334    2.8923 C   0  0  0  0  0  0  0  0  0  0  0  0
    2.0375   -1.1815    1.7638 C   0  0  0  0  0  0  0  0  0  0  0  0
    1.3510   -0.9466    0.6632 C   0  0  0  0  0  0  0  0  0  0  0  0
    0.6073   -0.6946   -0.4840 C   0  0  0  0  0  0  0  0  0  0  0  0
   -0.4688    0.3427   -0.1669 C   0  0  0  0  0  0  0  0  0  0  0  0
   -1.2381    0.5584   -1.4409 C   0  0  0  0  0  0  0  0  0  0  0  0
   -2.3463    1.5769   -1.3111 C   0  0  0  0  0  0  0  0  0  0  0  0
    3.9093   -1.8751    4.8111 H   0  0  0  0  0  0  0  0  0  0  0  0
    1.1842   -0.2656   -1.3445 H   0  0  0  0  0  0  0  0  0  0  0  0
    0.0579   -1.6050   -0.8469 H   0  0  0  0  0  0  0  0  0  0  0  0
    0.0556    1.3022    0.1053 H   0  0  0  0  0  0  0  0  0  0  0  0
   -1.0898    0.0588    0.6937 H   0  0  0  0  0  0  0  0  0  0  0  0
   -1.7362   -0.4212   -1.6927 H   0  0  0  0  0  0  0  0  0  0  0  0
   -0.5433    0.7859   -2.2675 H   0  0  0  0  0  0  0  0  0  0  0  0
   -3.0974    1.2210   -0.6082 H   0  0  0  0  0  0  0  0  0  0  0  0
   -2.8430    1.6727   -2.3006 H   0  0  0  0  0  0  0  0  0  0  0  0
   -1.9808    2.5819   -1.0516 H   0  0  0  0  0  0  0  0  0  0  0  0
  1  2  3  0
  2  3  1  0
  3  4  3  0
  4  5  1  0
  5  6  1  0
  6  7  1  0
  7  8  1  0
  1  9  1  0
  5 10  1  0
  5 11  1  0
  6 12  1  0
  6 13  1  0
  7 14  1  0
  7 15  1  0
  8 16  1  0
  8 17  1  0
  8 18  1  0
M  END
