
     RDKit          3D

 19 19  0  0  0  0  0  0  0  0999 V2000
   -1.9254    1.8643    1.8348 C   0  0  0  0  0  0  0  0  0  0  0  0
   -1.6698    1.3287    0.7867 C   0  0  0  0  0  0  0  0  0  0  0  0
   -1.3821    0.6687   -0.4990 C   0  0  0  0  0  0  0  0  0  0  0  0
   -0.0049    0.0281   -0.4418 C   0  0  0  0  0  0  0  0  0  0  0  0
    1.0183    0.8889   -0.2084 O   0  0  0  0  0  0  0  0  0  0  0  0
    2.2860    0.4047   -0.1502 C   0  0  0  0  0  0  0  0  0  0  0  0
    0.1370   -1.2053   -1.2555 C   0  0  0  0  0  0  0  0  0  0  0  0
    0.1115   -1.3364    0.2136 C   0  0  0  0  0  0  0  0  0  0  0  0
   -1.0512   -1.7188    0.8857 O   0  0  0  0  0  0  0  0  0  0  0  0
   -2.1641    2.3251    2.7666 H   0  0  0  0  0  0  0  0  0  0  0  0
   -1.3793    1.4445   -1.3088 H   0  0  0  0  0  0  0  0  0  0  0  0
   -2.1573   -0.0810   -0.7630 H   0  0  0  0  0  0  0  0  0  0  0  0
    2.4701   -0.3383    0.6435 H   0  0  0  0  0  0  0  0  0  0  0  0
    2.9616    1.2897    0.0520 H   0  0  0  0  0  0  0  0  0  0  0  0
    2.5501   -0.0221   -1.1371 H   0  0  0  0  0  0  0  0  0  0  0  0
    1.1261   -1.3434   -1.7590 H   0  0  0  0  0  0  0  0  0  0  0  0
   -0.7010   -1.5175   -1.9002 H   0  0  0  0  0  0  0  0  0  0  0  0
    1.0108   -1.6842    0.6998 H   0  0  0  0  0  0  0  0  0  0  0  0
   -1.2364   -0.9958    1.5403 H   0  0  0  0  0  0  0  0  0  0  0  0
  1  2  3  0
  2  3  1  0
  3  4  1  0
  4  5  1  0
  5  6  1  0
  4  7  1  0
  7  8  1  0
  8  9  1  0
  8  4  1  0
  1 10  1  0
  3 11  1  0
  3 12  1  0
  6 13  1  0
  6 14  1  0
  6 15  1  0
  7 16  1  0
  7 17  1  0
  8 18  1  0
  9 19  1  0
M  END
