
     RDKit          3D

 23 22  0  0  0  0  0  0  0  0999 V2000
    0.3304    2.8861   -0.1444 C   0  0  0  0  0  0  0  0  0  0  0  0
   -0.0727    1.9084   -0.2703 C   0  0  0  0  0  0  0  0  0  0  0  0
   -0.6629    0.5143   -0.4737 C   0  0  0  0  0  0  0  0  0  0  0  0
   -1.9534    0.4417    0.2400 C   0  0  0  0  0  0  0  0  0  0  0  0
   -2.6351   -0.7476    0.2972 O   0  0  0  0  0  0  0  0  0  0  0  0
    0.4125   -0.4324   -0.1259 C   0  0  0  0  0  0  0  0  0  0  0  0
    0.9190   -0.2941    1.2876 C   0  0  0  0  0  0  0  0  0  0  0  0
    1.5875   -0.1202   -1.0479 C   0  0  0  0  0  0  0  0  0  0  0  0
    0.0718   -1.8975   -0.3239 C   0  0  0  0  0  0  0  0  0  0  0  0
    0.7743    3.9854    0.0156 H   0  0  0  0  0  0  0  0  0  0  0  0
   -0.8333    0.4651   -1.5646 H   0  0  0  0  0  0  0  0  0  0  0  0
   -1.9016    0.9132    1.2308 H   0  0  0  0  0  0  0  0  0  0  0  0
   -2.7201    1.1352   -0.2893 H   0  0  0  0  0  0  0  0  0  0  0  0
   -2.4309   -1.1165    1.2136 H   0  0  0  0  0  0  0  0  0  0  0  0
    2.0033   -0.5509    1.2729 H   0  0  0  0  0  0  0  0  0  0  0  0
    0.8729    0.7916    1.5931 H   0  0  0  0  0  0  0  0  0  0  0  0
    0.4377   -0.9731    2.0182 H   0  0  0  0  0  0  0  0  0  0  0  0
    1.5526    0.9543   -1.2952 H   0  0  0  0  0  0  0  0  0  0  0  0
    1.5767   -0.7862   -1.9563 H   0  0  0  0  0  0  0  0  0  0  0  0
    2.5341   -0.3630   -0.5470 H   0  0  0  0  0  0  0  0  0  0  0  0
    1.0537   -2.4315   -0.2473 H   0  0  0  0  0  0  0  0  0  0  0  0
   -0.5985   -2.2828    0.4692 H   0  0  0  0  0  0  0  0  0  0  0  0
   -0.3182   -1.9995   -1.3524 H   0  0  0  0  0  0  0  0  0  0  0  0
  1  2  3  0
  2  3  1  0
  3  4  1  0
  4  5  1  0
  3  6  1  0
  6  7  1  0
  6  8  1  0
  6  9  1  0
  1 10  1  0
  3 11  1  0
  4 12  1  0
  4 13  1  0
  5 14  1  0
  7 15  1  0
  7 16  1  0
  7 17  1  0
  8 18  1  0
  8 19  1  0
  8 20  1  0
  9 21  1  0
  9 22  1  0
  9 23  1  0
M  END
