
     RDKit          3D

 17 17  0  0  0  0  0  0  0  0999 V2000
   -2.9307    0.5515   -1.0329 C   0  0  0  0  0  0  0  0  0  0  0  0
   -1.9686    0.1711   -0.4080 C   0  0  0  0  0  0  0  0  0  0  0  0
   -0.7853   -0.2970    0.3473 C   0  0  0  0  0  0  0  0  0  0  0  0
   -1.0104   -0.8608    1.6131 O   0  0  0  0  0  0  0  0  0  0  0  0
    0.2743   -1.0085   -0.5302 C   0  0  0  0  0  0  0  0  0  0  0  0
    0.4765    0.3795    0.0231 C   0  0  0  0  0  0  0  0  0  0  0  0
    0.4564    1.4434   -0.8716 O   0  0  0  0  0  0  0  0  0  0  0  0
    1.6168    0.4523    1.0281 C   0  0  0  0  0  0  0  0  0  0  0  0
    2.8039    0.4448    0.2585 O   0  0  0  0  0  0  0  0  0  0  0  0
   -3.7771    0.8745   -1.5977 H   0  0  0  0  0  0  0  0  0  0  0  0
   -1.9864   -1.0031    1.6809 H   0  0  0  0  0  0  0  0  0  0  0  0
    0.7683   -1.8688   -0.0315 H   0  0  0  0  0  0  0  0  0  0  0  0
    0.0576   -1.1205   -1.5949 H   0  0  0  0  0  0  0  0  0  0  0  0
    0.0160    1.2143   -1.7271 H   0  0  0  0  0  0  0  0  0  0  0  0
    1.6593   -0.4727    1.6569 H   0  0  0  0  0  0  0  0  0  0  0  0
    1.5958    1.3617    1.6275 H   0  0  0  0  0  0  0  0  0  0  0  0
    2.7336   -0.2616   -0.4413 H   0  0  0  0  0  0  0  0  0  0  0  0
  1  2  3  0
  2  3  1  0
  3  4  1  0
  3  5  1  0
  5  6  1  0
  6  7  1  0
  6  8  1  0
  8  9  1  0
  6  3  1  0
  1 10  1  0
  4 11  1  0
  5 12  1  0
  5 13  1  0
  7 14  1  0
  8 15  1  0
  8 16  1  0
  9 17  1  0
M  END
