
     RDKit          3D

 23 23  0  0  0  0  0  0  0  0999 V2000
   -0.2581    3.7338    0.4079 C   0  0  0  0  0  0  0  0  0  0  0  0
    0.3890    2.6548    0.4604 C   0  0  0  0  0  0  0  0  0  0  0  0
    1.1559    1.4200    0.5147 C   0  0  0  0  0  0  0  0  0  0  0  0
    0.3473    0.2691   -0.0585 C   0  0  0  0  0  0  0  0  0  0  0  0
   -0.0402    0.5038   -1.5049 C   0  0  0  0  0  0  0  0  0  0  0  0
   -0.7648   -0.1851    0.8294 C   0  0  0  0  0  0  0  0  0  0  0  0
   -0.2238   -1.5856    0.7103 C   0  0  0  0  0  0  0  0  0  0  0  0
   -1.0831   -2.4130   -0.2102 C   0  0  0  0  0  0  0  0  0  0  0  0
    1.0563   -1.0722    0.0622 C   0  0  0  0  0  0  0  0  0  0  0  0
   -0.7682    4.6181    0.3691 H   0  0  0  0  0  0  0  0  0  0  0  0
    2.0905    1.4959   -0.1149 H   0  0  0  0  0  0  0  0  0  0  0  0
    1.4635    1.2356    1.5507 H   0  0  0  0  0  0  0  0  0  0  0  0
    0.7618    1.0840   -2.0330 H   0  0  0  0  0  0  0  0  0  0  0  0
   -0.9709    1.1371   -1.5827 H   0  0  0  0  0  0  0  0  0  0  0  0
   -0.1751   -0.4635   -2.0130 H   0  0  0  0  0  0  0  0  0  0  0  0
   -1.7454    0.0089    0.3864 H   0  0  0  0  0  0  0  0  0  0  0  0
   -0.6953    0.1410    1.8904 H   0  0  0  0  0  0  0  0  0  0  0  0
    0.0304   -2.0722    1.6816 H   0  0  0  0  0  0  0  0  0  0  0  0
   -2.0189   -1.9076   -0.5253 H   0  0  0  0  0  0  0  0  0  0  0  0
   -0.5214   -2.6635   -1.1338 H   0  0  0  0  0  0  0  0  0  0  0  0
   -1.2937   -3.3855    0.2991 H   0  0  0  0  0  0  0  0  0  0  0  0
    1.9354   -1.0177    0.7282 H   0  0  0  0  0  0  0  0  0  0  0  0
    1.3287   -1.5361   -0.8928 H   0  0  0  0  0  0  0  0  0  0  0  0
  1  2  3  0
  2  3  1  0
  3  4  1  0
  4  5  1  0
  4  6  1  0
  6  7  1  0
  7  8  1  0
  7  9  1  0
  9  4  1  0
  1 10  1  0
  3 11  1  0
  3 12  1  0
  5 13  1  0
  5 14  1  0
  5 15  1  0
  6 16  1  0
  6 17  1  0
  7 18  1  0
  8 19  1  0
  8 20  1  0
  8 21  1  0
  9 22  1  0
  9 23  1  0
M  END
