
     RDKit          3D

 16 16  0  0  0  0  0  0  0  0999 V2000
    4.6607    0.5566   -0.3126 C   0  0  0  0  0  0  0  0  0  0  0  0
    3.4918    0.2877   -0.1891 C   0  0  0  0  0  0  0  0  0  0  0  0
    2.1209   -0.0264   -0.0601 C   0  0  0  0  0  0  0  0  0  0  0  0
    0.9516   -0.2816    0.0667 C   0  0  0  0  0  0  0  0  0  0  0  0
   -0.4605   -0.5799    0.2429 C   0  0  0  0  0  0  0  0  0  0  0  0
   -1.3170    0.6109    0.6234 C   0  0  0  0  0  0  0  0  0  0  0  0
   -2.3778    0.0318   -0.2781 C   0  0  0  0  0  0  0  0  0  0  0  0
   -1.2565   -0.6319   -1.0540 C   0  0  0  0  0  0  0  0  0  0  0  0
    5.6959    0.8096   -0.4105 H   0  0  0  0  0  0  0  0  0  0  0  0
   -0.7105   -1.4625    0.8443 H   0  0  0  0  0  0  0  0  0  0  0  0
   -0.9604    1.5819    0.2096 H   0  0  0  0  0  0  0  0  0  0  0  0
   -1.5762    0.6587    1.6939 H   0  0  0  0  0  0  0  0  0  0  0  0
   -2.9609    0.7727   -0.8567 H   0  0  0  0  0  0  0  0  0  0  0  0
   -2.9615   -0.7449    0.2526 H   0  0  0  0  0  0  0  0  0  0  0  0
   -1.4614   -1.6580   -1.4022 H   0  0  0  0  0  0  0  0  0  0  0  0
   -0.8780    0.0754   -1.8188 H   0  0  0  0  0  0  0  0  0  0  0  0
  1  2  3  0
  2  3  1  0
  3  4  3  0
  4  5  1  0
  5  6  1  0
  6  7  1  0
  7  8  1  0
  8  5  1  0
  1  9  1  0
  5 10  1  0
  6 11  1  0
  6 12  1  0
  7 13  1  0
  7 14  1  0
  8 15  1  0
  8 16  1  0
M  END
