
     RDKit          3D

 16 16  0  0  0  0  0  0  0  0999 V2000
   -2.8288   -0.5284    1.2796 C   0  0  0  0  0  0  0  0  0  0  0  0
   -1.6817   -0.3978    0.9890 C   0  0  0  0  0  0  0  0  0  0  0  0
   -0.3014   -0.2301    0.6155 C   0  0  0  0  0  0  0  0  0  0  0  0
    0.0040    1.2017    0.1882 C   0  0  0  0  0  0  0  0  0  0  0  0
    1.3613    1.2670    0.0401 O   0  0  0  0  0  0  0  0  0  0  0  0
    1.9221    0.3620   -0.8031 C   0  0  0  0  0  0  0  0  0  0  0  0
    1.4551   -0.9098   -0.7657 O   0  0  0  0  0  0  0  0  0  0  0  0
    0.0967   -1.0594   -0.5943 C   0  0  0  0  0  0  0  0  0  0  0  0
   -3.8550   -0.6387    1.5217 H   0  0  0  0  0  0  0  0  0  0  0  0
    0.3937   -0.5333    1.4334 H   0  0  0  0  0  0  0  0  0  0  0  0
   -0.3009    1.8469    1.0272 H   0  0  0  0  0  0  0  0  0  0  0  0
   -0.5818    1.3882   -0.7205 H   0  0  0  0  0  0  0  0  0  0  0  0
    3.0281    0.3267   -0.5672 H   0  0  0  0  0  0  0  0  0  0  0  0
    1.8935    0.8002   -1.8431 H   0  0  0  0  0  0  0  0  0  0  0  0
   -0.5052   -0.7794   -1.4650 H   0  0  0  0  0  0  0  0  0  0  0  0
   -0.0997   -2.1158   -0.3358 H   0  0  0  0  0  0  0  0  0  0  0  0
  1  2  3  0
  2  3  1  0
  3  4  1  0
  4  5  1  0
  5  6  1  0
  6  7  1  0
  7  8  1  0
  8  3  1  0
  1  9  1  0
  3 10  1  0
  4 11  1  0
  4 12  1  0
  6 13  1  0
  6 14  1  0
  8 15  1  0
  8 16  1  0
M  END
