
     RDKit          3D

 19 20  0  0  0  0  0  0  0  0999 V2000
    3.5355    0.2238   -0.2937 C   0  0  0  0  0  0  0  0  0  0  0  0
    2.3082    0.2608   -0.3669 C   0  0  0  0  0  0  0  0  0  0  0  0
    0.9624    0.2781   -0.4515 C   0  0  0  0  0  0  0  0  0  0  0  0
    0.2323    1.2685   -1.2981 C   0  0  0  0  0  0  0  0  0  0  0  0
   -1.0474    0.9461   -1.0866 C   0  0  0  0  0  0  0  0  0  0  0  0
   -0.9651   -0.1446   -0.0979 C   0  0  0  0  0  0  0  0  0  0  0  0
   -2.1481   -0.7555    0.4752 C   0  0  0  0  0  0  0  0  0  0  0  0
    0.1180    0.3410    0.8335 C   0  0  0  0  0  0  0  0  0  0  0  0
    0.1303   -0.9910   -0.7079 C   0  0  0  0  0  0  0  0  0  0  0  0
    4.6127    0.1798   -0.2146 H   0  0  0  0  0  0  0  0  0  0  0  0
    0.6459    2.0485   -1.9292 H   0  0  0  0  0  0  0  0  0  0  0  0
   -1.9345    1.3793   -1.5349 H   0  0  0  0  0  0  0  0  0  0  0  0
   -1.8832   -1.1197    1.5144 H   0  0  0  0  0  0  0  0  0  0  0  0
   -2.4341   -1.6669   -0.1038 H   0  0  0  0  0  0  0  0  0  0  0  0
   -2.9987   -0.0827    0.6326 H   0  0  0  0  0  0  0  0  0  0  0  0
    0.4772   -0.4699    1.5038 H   0  0  0  0  0  0  0  0  0  0  0  0
    0.0094    1.3253    1.2708 H   0  0  0  0  0  0  0  0  0  0  0  0
    0.0063   -1.1870   -1.7911 H   0  0  0  0  0  0  0  0  0  0  0  0
    0.3727   -1.8338   -0.0650 H   0  0  0  0  0  0  0  0  0  0  0  0
  1  2  3  0
  2  3  1  0
  3  4  1  0
  4  5  2  0
  5  6  1  0
  6  7  1  0
  6  8  1  0
  6  9  1  0
  8  3  1  0
  9  3  1  0
  1 10  1  0
  4 11  1  0
  5 12  1  0
  7 13  1  0
  7 14  1  0
  7 15  1  0
  8 16  1  0
  8 17  1  0
  9 18  1  0
  9 19  1  0
M  END
