
     RDKit          3D

 17 17  0  0  0  0  0  0  0  0999 V2000
    3.1528    0.0505    0.6494 C   0  0  0  0  0  0  0  0  0  0  0  0
    2.3027   -0.5536    0.0105 C   0  0  0  0  0  0  0  0  0  0  0  0
    1.2880   -1.2979   -0.7412 C   0  0  0  0  0  0  0  0  0  0  0  0
    0.0488   -1.2135   -0.0868 O   0  0  0  0  0  0  0  0  0  0  0  0
   -0.3738    0.1054    0.0272 C   0  0  0  0  0  0  0  0  0  0  0  0
   -1.7966    0.2450   -0.4768 C   0  0  0  0  0  0  0  0  0  0  0  0
   -2.0285    1.1921    0.6510 C   0  0  0  0  0  0  0  0  0  0  0  0
   -2.7690    2.1126    0.8628 O   0  0  0  0  0  0  0  0  0  0  0  0
   -0.9394    0.4828    1.3782 C   0  0  0  0  0  0  0  0  0  0  0  0
    3.8805    0.5899    1.1994 H   0  0  0  0  0  0  0  0  0  0  0  0
    1.2403   -0.9452   -1.7837 H   0  0  0  0  0  0  0  0  0  0  0  0
    1.5426   -2.3818   -0.7871 H   0  0  0  0  0  0  0  0  0  0  0  0
    0.3007    0.8600   -0.3965 H   0  0  0  0  0  0  0  0  0  0  0  0
   -1.8609    0.7086   -1.4816 H   0  0  0  0  0  0  0  0  0  0  0  0
   -2.3508   -0.7266   -0.3791 H   0  0  0  0  0  0  0  0  0  0  0  0
   -0.3153    1.1643    1.9850 H   0  0  0  0  0  0  0  0  0  0  0  0
   -1.3221   -0.3926    1.9536 H   0  0  0  0  0  0  0  0  0  0  0  0
  1  2  3  0
  2  3  1  0
  3  4  1  0
  4  5  1  0
  5  6  1  0
  6  7  1  0
  7  8  2  0
  7  9  1  0
  9  5  1  0
  1 10  1  0
  3 11  1  0
  3 12  1  0
  5 13  1  0
  6 14  1  0
  6 15  1  0
  9 16  1  0
  9 17  1  0
M  END
