
     RDKit          3D

 21 21  0  0  0  0  0  0  0  0999 V2000
    3.4773   -0.7443    0.4449 C   0  0  0  0  0  0  0  0  0  0  0  0
    2.4196   -0.1815    0.2824 C   0  0  0  0  0  0  0  0  0  0  0  0
    1.1235    0.5060    0.1030 C   0  0  0  0  0  0  0  0  0  0  0  0
    0.9677    0.7234   -1.3905 C   0  0  0  0  0  0  0  0  0  0  0  0
    1.1658    1.7167    0.7631 O   0  0  0  0  0  0  0  0  0  0  0  0
    0.0678   -0.4297    0.6411 C   0  0  0  0  0  0  0  0  0  0  0  0
   -1.3179    0.1239    0.5322 C   0  0  0  0  0  0  0  0  0  0  0  0
   -2.4011   -0.7762    1.0569 C   0  0  0  0  0  0  0  0  0  0  0  0
   -2.3034   -0.4660   -0.3945 C   0  0  0  0  0  0  0  0  0  0  0  0
    4.4042   -1.2351    0.5731 H   0  0  0  0  0  0  0  0  0  0  0  0
    1.0385   -0.2681   -1.8972 H   0  0  0  0  0  0  0  0  0  0  0  0
    0.0742    1.2890   -1.6579 H   0  0  0  0  0  0  0  0  0  0  0  0
    1.8521    1.2994   -1.7318 H   0  0  0  0  0  0  0  0  0  0  0  0
    0.7837    2.4722    0.2348 H   0  0  0  0  0  0  0  0  0  0  0  0
    0.1504   -1.3851    0.1012 H   0  0  0  0  0  0  0  0  0  0  0  0
    0.3017   -0.5894    1.7172 H   0  0  0  0  0  0  0  0  0  0  0  0
   -1.4192    1.1931    0.8377 H   0  0  0  0  0  0  0  0  0  0  0  0
   -3.2016   -0.3854    1.6860 H   0  0  0  0  0  0  0  0  0  0  0  0
   -2.1364   -1.8441    1.3071 H   0  0  0  0  0  0  0  0  0  0  0  0
   -1.9841   -1.2495   -1.1226 H   0  0  0  0  0  0  0  0  0  0  0  0
   -3.0628    0.2308   -0.8099 H   0  0  0  0  0  0  0  0  0  0  0  0
  1  2  3  0
  2  3  1  0
  3  4  1  0
  3  5  1  0
  3  6  1  0
  6  7  1  0
  7  8  1  0
  8  9  1  0
  9  7  1  0
  1 10  1  0
  4 11  1  0
  4 12  1  0
  4 13  1  0
  5 14  1  0
  6 15  1  0
  6 16  1  0
  7 17  1  0
  8 18  1  0
  8 19  1  0
  9 20  1  0
  9 21  1  0
M  END
