
     RDKit          3D

 15 14  0  0  0  0  0  0  0  0999 V2000
    4.4722    1.3882    0.7455 C   0  0  0  0  0  0  0  0  0  0  0  0
    3.3987    0.7297    0.2556 C   0  0  0  0  0  0  0  0  0  0  0  0
    2.3191    0.0487   -0.2567 C   0  0  0  0  0  0  0  0  0  0  0  0
    1.3162   -0.5640   -0.7309 C   0  0  0  0  0  0  0  0  0  0  0  0
    0.1743   -1.2347   -1.2543 C   0  0  0  0  0  0  0  0  0  0  0  0
   -0.8732   -0.3147   -1.0171 O   0  0  0  0  0  0  0  0  0  0  0  0
   -1.6940   -0.4924    0.0354 C   0  0  0  0  0  0  0  0  0  0  0  0
   -2.7667    0.7133    0.0100 C   0  0  0  0  0  0  0  0  0  0  0  0
   -3.4625    1.5058   -0.0236 C   0  0  0  0  0  0  0  0  0  0  0  0
    5.1676    1.8045    1.0490 H   0  0  0  0  0  0  0  0  0  0  0  0
    0.1969   -1.8159   -2.0986 H   0  0  0  0  0  0  0  0  0  0  0  0
    0.0115   -2.0349   -0.3402 H   0  0  0  0  0  0  0  0  0  0  0  0
   -2.5364   -1.3029   -0.3685 H   0  0  0  0  0  0  0  0  0  0  0  0
   -1.5266   -0.7947    0.9665 H   0  0  0  0  0  0  0  0  0  0  0  0
   -4.1970    2.3641   -0.0552 H   0  0  0  0  0  0  0  0  0  0  0  0
  1  2  3  0
  2  3  1  0
  3  4  3  0
  4  5  1  0
  5  6  1  0
  6  7  1  0
  7  8  1  0
  8  9  3  0
  1 10  1  0
  5 11  1  0
  5 12  1  0
  7 13  1  0
  7 14  1  0
  9 15  1  0
M  END
