
     RDKit          3D

 16 16  0  0  0  0  0  0  0  0999 V2000
    2.7427    0.2570    0.6917 C   0  0  0  0  0  0  0  0  0  0  0  0
    1.8385    0.3170   -0.0905 C   0  0  0  0  0  0  0  0  0  0  0  0
    0.7580    0.4032   -1.0029 C   0  0  0  0  0  0  0  0  0  0  0  0
   -0.5780    0.1631   -0.2845 C   0  0  0  0  0  0  0  0  0  0  0  0
   -1.8281    0.3595   -1.0039 C   0  0  0  0  0  0  0  0  0  0  0  0
   -1.8508    0.1939   -2.2613 O   0  0  0  0  0  0  0  0  0  0  0  0
   -0.4989    0.0815    1.1637 C   0  0  0  0  0  0  0  0  0  0  0  0
   -0.5883   -1.2390    0.4345 C   0  0  0  0  0  0  0  0  0  0  0  0
    3.6690    0.1754    1.5008 H   0  0  0  0  0  0  0  0  0  0  0  0
    0.6283    1.5870   -1.2027 H   0  0  0  0  0  0  0  0  0  0  0  0
    0.8021    0.0473   -1.9984 H   0  0  0  0  0  0  0  0  0  0  0  0
   -2.8230    0.6506   -0.6339 H   0  0  0  0  0  0  0  0  0  0  0  0
    0.5001    0.2329    1.6856 H   0  0  0  0  0  0  0  0  0  0  0  0
   -1.3872    0.3229    1.8162 H   0  0  0  0  0  0  0  0  0  0  0  0
   -1.6368   -1.6972    0.4403 H   0  0  0  0  0  0  0  0  0  0  0  0
    0.2525   -1.8551    0.2176 H   0  0  0  0  0  0  0  0  0  0  0  0
  1  2  3  0
  2  3  1  0
  3  4  1  0
  4  5  1  0
  5  6  2  0
  4  7  1  0
  7  8  1  0
  8  4  1  0
  1  9  1  0
  3 10  1  0
  3 11  1  0
  5 12  1  0
  7 13  1  0
  7 14  1  0
  8 15  1  0
  8 16  1  0
M  END
