
     RDKit          3D

 23 22  0  0  0  0  0  0  0  0999 V2000
    0.5593   -0.0086   -2.7867 C   0  0  0  0  0  0  0  0  0  0  0  0
    0.5392    0.1292   -1.6254 C   0  0  0  0  0  0  0  0  0  0  0  0
    0.5031    0.3155   -0.2343 C   0  0  0  0  0  0  0  0  0  0  0  0
   -0.8263    0.4400    0.2135 C   0  0  0  0  0  0  0  0  0  0  0  0
   -1.4423    0.5775    1.5456 C   0  0  0  0  0  0  0  0  0  0  0  0
   -3.0023    0.6325    1.3550 C   0  0  0  0  0  0  0  0  0  0  0  0
    1.4633   -0.7890    0.2650 C   0  0  0  0  0  0  0  0  0  0  0  0
    2.8880   -0.4119   -0.2019 C   0  0  0  0  0  0  0  0  0  0  0  0
    1.2448   -1.8839   -0.7941 O   0  0  0  0  0  0  0  0  0  0  0  0
    0.5931   -0.1467   -4.1093 H   0  0  0  0  0  0  0  0  0  0  0  0
    1.1436    1.3098   -0.1017 H   0  0  0  0  0  0  0  0  0  0  0  0
   -1.5087   -0.2468   -0.4726 H   0  0  0  0  0  0  0  0  0  0  0  0
   -1.1759    1.4861   -0.3025 H   0  0  0  0  0  0  0  0  0  0  0  0
   -1.0786    1.3481    2.2243 H   0  0  0  0  0  0  0  0  0  0  0  0
   -1.3126   -0.4266    2.0970 H   0  0  0  0  0  0  0  0  0  0  0  0
   -3.4652    1.1857    2.1594 H   0  0  0  0  0  0  0  0  0  0  0  0
   -3.1651    0.9970    0.3312 H   0  0  0  0  0  0  0  0  0  0  0  0
   -3.3734   -0.4424    1.4166 H   0  0  0  0  0  0  0  0  0  0  0  0
    1.4078   -1.2926    1.1721 H   0  0  0  0  0  0  0  0  0  0  0  0
    2.7175    0.1396   -1.1409 H   0  0  0  0  0  0  0  0  0  0  0  0
    3.4634   -1.3557   -0.4137 H   0  0  0  0  0  0  0  0  0  0  0  0
    3.4283    0.1643    0.5895 H   0  0  0  0  0  0  0  0  0  0  0  0
    0.3991   -1.7211   -1.1862 H   0  0  0  0  0  0  0  0  0  0  0  0
  1  2  3  0
  2  3  1  0
  3  4  1  0
  4  5  1  0
  5  6  1  0
  3  7  1  0
  7  8  1  0
  7  9  1  0
  1 10  1  0
  3 11  1  0
  4 12  1  0
  4 13  1  0
  5 14  1  0
  5 15  1  0
  6 16  1  0
  6 17  1  0
  6 18  1  0
  7 19  1  0
  8 20  1  0
  8 21  1  0
  8 22  1  0
  9 23  1  0
M  END
