
     RDKit          3D

 21 20  0  0  0  0  0  0  0  0999 V2000
   -1.1569    1.8593    2.2672 C   0  0  0  0  0  0  0  0  0  0  0  0
   -0.8695    0.7760    1.4484 C   0  0  0  0  0  0  0  0  0  0  0  0
   -0.5997   -0.2957    0.6526 C   0  0  0  0  0  0  0  0  0  0  0  0
   -1.1694   -0.1829   -0.7613 C   0  0  0  0  0  0  0  0  0  0  0  0
   -2.6811   -0.1864   -0.5824 C   0  0  0  0  0  0  0  0  0  0  0  0
    0.9821   -0.2043    0.4994 C   0  0  0  0  0  0  0  0  0  0  0  0
    1.7921   -0.9157   -0.3841 C   0  0  0  0  0  0  0  0  0  0  0  0
    2.9200   -0.1278   -1.0452 C   0  0  0  0  0  0  0  0  0  0  0  0
    1.6649   -2.0647   -0.6515 O   0  0  0  0  0  0  0  0  0  0  0  0
   -1.3884    2.7457    2.9162 H   0  0  0  0  0  0  0  0  0  0  0  0
   -0.8271   -1.3103    1.0417 H   0  0  0  0  0  0  0  0  0  0  0  0
   -0.7116   -0.8499   -1.5164 H   0  0  0  0  0  0  0  0  0  0  0  0
   -0.8759    0.8793   -1.0717 H   0  0  0  0  0  0  0  0  0  0  0  0
   -3.0822    0.8006   -0.7015 H   0  0  0  0  0  0  0  0  0  0  0  0
   -3.0759   -0.8843   -1.3646 H   0  0  0  0  0  0  0  0  0  0  0  0
   -2.9111   -0.6535    0.4136 H   0  0  0  0  0  0  0  0  0  0  0  0
    1.3091   -0.4573    1.5997 H   0  0  0  0  0  0  0  0  0  0  0  0
    1.1196    0.9361    0.6027 H   0  0  0  0  0  0  0  0  0  0  0  0
    2.5202    0.6211   -1.7384 H   0  0  0  0  0  0  0  0  0  0  0  0
    3.5879   -0.8570   -1.4636 H   0  0  0  0  0  0  0  0  0  0  0  0
    3.4528    0.3716   -0.1608 H   0  0  0  0  0  0  0  0  0  0  0  0
  1  2  3  0
  2  3  1  0
  3  4  1  0
  4  5  1  0
  3  6  1  0
  6  7  1  0
  7  8  1  0
  7  9  2  0
  1 10  1  0
  3 11  1  0
  4 12  1  0
  4 13  1  0
  5 14  1  0
  5 15  1  0
  5 16  1  0
  6 17  1  0
  6 18  1  0
  8 19  1  0
  8 20  1  0
  8 21  1  0
M  END
