
     RDKit          3D

 17 18  0  0  0  0  0  0  0  0999 V2000
    1.8343   -0.2560    1.8840 C   0  0  0  0  0  0  0  0  0  0  0  0
    1.2047   -0.5304    0.7021 C   0  0  0  0  0  0  0  0  0  0  0  0
    0.5233   -0.8061   -0.5346 C   0  0  0  0  0  0  0  0  0  0  0  0
   -0.6154    0.0811   -0.9444 C   0  0  0  0  0  0  0  0  0  0  0  0
   -1.8728   -0.4862   -0.3738 O   0  0  0  0  0  0  0  0  0  0  0  0
   -1.4651    0.8411   -0.1147 C   0  0  0  0  0  0  0  0  0  0  0  0
   -1.1442    1.2299    1.3093 C   0  0  0  0  0  0  0  0  0  0  0  0
    1.3728   -1.3299   -1.6794 C   0  0  0  0  0  0  0  0  0  0  0  0
    0.5101   -2.1382   -0.9591 O   0  0  0  0  0  0  0  0  0  0  0  0
    2.2279   -0.0896    2.5922 H   0  0  0  0  0  0  0  0  0  0  0  0
   -0.7118    0.2147   -2.0622 H   0  0  0  0  0  0  0  0  0  0  0  0
   -2.1982    1.5483   -0.6037 H   0  0  0  0  0  0  0  0  0  0  0  0
   -0.1452    1.7152    1.3061 H   0  0  0  0  0  0  0  0  0  0  0  0
   -1.1726    0.3747    1.9938 H   0  0  0  0  0  0  0  0  0  0  0  0
   -1.9125    1.9719    1.6863 H   0  0  0  0  0  0  0  0  0  0  0  0
    1.0983   -0.9909   -2.7023 H   0  0  0  0  0  0  0  0  0  0  0  0
    2.4665   -1.3496   -1.4995 H   0  0  0  0  0  0  0  0  0  0  0  0
  1  2  3  0
  2  3  1  0
  3  4  1  0
  4  5  1  0
  5  6  1  0
  6  7  1  0
  3  8  1  0
  8  9  1  0
  9  3  1  0
  6  4  1  0
  1 10  1  0
  4 11  1  0
  6 12  1  0
  7 13  1  0
  7 14  1  0
  7 15  1  0
  8 16  1  0
  8 17  1  0
M  END
