
     RDKit          3D

 18 19  0  0  0  0  0  0  0  0999 V2000
    1.5140    2.6156    0.2322 C   0  0  0  0  0  0  0  0  0  0  0  0
    0.9178    1.7441    0.8202 C   0  0  0  0  0  0  0  0  0  0  0  0
    0.1937    0.6843    1.5060 C   0  0  0  0  0  0  0  0  0  0  0  0
   -0.3527   -0.3377    0.5472 C   0  0  0  0  0  0  0  0  0  0  0  0
   -1.3230    0.0805   -0.5156 C   0  0  0  0  0  0  0  0  0  0  0  0
   -0.5592   -0.7424   -1.5451 C   0  0  0  0  0  0  0  0  0  0  0  0
    0.5140   -0.9371   -0.5012 C   0  0  0  0  0  0  0  0  0  0  0  0
    0.1064   -1.7479    0.6757 C   0  0  0  0  0  0  0  0  0  0  0  0
    2.0314    3.3952   -0.2890 H   0  0  0  0  0  0  0  0  0  0  0  0
    0.8456    0.1523    2.2371 H   0  0  0  0  0  0  0  0  0  0  0  0
   -0.6645    1.0799    2.1029 H   0  0  0  0  0  0  0  0  0  0  0  0
   -1.2252    1.1659   -0.7274 H   0  0  0  0  0  0  0  0  0  0  0  0
   -2.3524   -0.2608   -0.3150 H   0  0  0  0  0  0  0  0  0  0  0  0
   -1.1114   -1.7024   -1.6958 H   0  0  0  0  0  0  0  0  0  0  0  0
   -0.2660   -0.2158   -2.4506 H   0  0  0  0  0  0  0  0  0  0  0  0
    1.5142   -0.5320   -0.6342 H   0  0  0  0  0  0  0  0  0  0  0  0
    0.8870   -1.9199    1.4274 H   0  0  0  0  0  0  0  0  0  0  0  0
   -0.6697   -2.5217    0.4982 H   0  0  0  0  0  0  0  0  0  0  0  0
  1  2  3  0
  2  3  1  0
  3  4  1  0
  4  5  1  0
  5  6  1  0
  6  7  1  0
  7  8  1  0
  7  4  1  0
  8  4  1  0
  1  9  1  0
  3 10  1  0
  3 11  1  0
  5 12  1  0
  5 13  1  0
  6 14  1  0
  6 15  1  0
  7 16  1  0
  8 17  1  0
  8 18  1  0
M  END
