
     RDKit          3D

 17 18  0  0  0  0  0  0  0  0999 V2000
    2.6000    1.4486    1.8308 C   0  0  0  0  0  0  0  0  0  0  0  0
    1.6062    0.9387    1.1712 C   0  0  0  0  0  0  0  0  0  0  0  0
    0.6044    0.4429    0.5293 C   0  0  0  0  0  0  0  0  0  0  0  0
   -0.2886   -0.4210    1.3213 C   0  0  0  0  0  0  0  0  0  0  0  0
   -1.3837   -0.9152    0.3107 C   0  0  0  0  0  0  0  0  0  0  0  0
   -0.3774   -1.1127   -0.7785 C   0  0  0  0  0  0  0  0  0  0  0  0
   -0.0322   -0.3719   -1.9128 C   0  0  0  0  0  0  0  0  0  0  0  0
   -0.0006    0.4274   -0.7238 C   0  0  0  0  0  0  0  0  0  0  0  0
   -1.1655    1.3002   -0.7161 O   0  0  0  0  0  0  0  0  0  0  0  0
    3.4298    1.8692    2.3799 H   0  0  0  0  0  0  0  0  0  0  0  0
   -0.2019   -0.7231    2.3274 H   0  0  0  0  0  0  0  0  0  0  0  0
   -2.1139   -0.1698    0.0828 H   0  0  0  0  0  0  0  0  0  0  0  0
   -1.7849   -1.8130    0.7522 H   0  0  0  0  0  0  0  0  0  0  0  0
    0.3999   -1.7798   -0.3384 H   0  0  0  0  0  0  0  0  0  0  0  0
   -0.8175   -0.1486   -2.6974 H   0  0  0  0  0  0  0  0  0  0  0  0
    0.9261   -0.5410   -2.4419 H   0  0  0  0  0  0  0  0  0  0  0  0
   -1.4002    1.5689   -1.6559 H   0  0  0  0  0  0  0  0  0  0  0  0
  1  2  3  0
  2  3  1  0
  3  4  2  0
  4  5  1  0
  5  6  1  0
  6  7  1  0
  7  8  1  0
  8  9  1  0
  8  3  1  0
  8  6  1  0
  1 10  1  0
  4 11  1  0
  5 12  1  0
  5 13  1  0
  6 14  1  0
  7 15  1  0
  7 16  1  0
  9 17  1  0
M  END
