
     RDKit          3D

 17 17  0  0  0  0  0  0  0  0999 V2000
    1.5813   -0.8454   -2.1833 C   0  0  0  0  0  0  0  0  0  0  0  0
    0.9021   -0.3895   -1.1960 C   0  0  0  0  0  0  0  0  0  0  0  0
    0.1181    0.1252   -0.1007 C   0  0  0  0  0  0  0  0  0  0  0  0
    0.0196    1.6354   -0.1266 C   0  0  0  0  0  0  0  0  0  0  0  0
   -0.5632    2.0651   -1.3056 O   0  0  0  0  0  0  0  0  0  0  0  0
    0.6317   -0.3000    1.2440 C   0  0  0  0  0  0  0  0  0  0  0  0
   -0.1941   -1.3177    1.6541 O   0  0  0  0  0  0  0  0  0  0  0  0
   -1.3293   -1.3002    0.8543 C   0  0  0  0  0  0  0  0  0  0  0  0
   -1.1502   -0.4497   -0.1954 O   0  0  0  0  0  0  0  0  0  0  0  0
    2.1366   -1.2044   -2.9598 H   0  0  0  0  0  0  0  0  0  0  0  0
   -0.5194    1.9631    0.7721 H   0  0  0  0  0  0  0  0  0  0  0  0
    1.0534    2.0287   -0.0168 H   0  0  0  0  0  0  0  0  0  0  0  0
   -1.3072    1.4582   -1.5422 H   0  0  0  0  0  0  0  0  0  0  0  0
    0.7409    0.5153    1.9735 H   0  0  0  0  0  0  0  0  0  0  0  0
    1.6664   -0.7055    1.0874 H   0  0  0  0  0  0  0  0  0  0  0  0
   -2.1669   -0.9712    1.5251 H   0  0  0  0  0  0  0  0  0  0  0  0
   -1.6197   -2.3074    0.5157 H   0  0  0  0  0  0  0  0  0  0  0  0
  1  2  3  0
  2  3  1  0
  3  4  1  0
  4  5  1  0
  3  6  1  0
  6  7  1  0
  7  8  1  0
  8  9  1  0
  9  3  1  0
  1 10  1  0
  4 11  1  0
  4 12  1  0
  5 13  1  0
  6 14  1  0
  6 15  1  0
  8 16  1  0
  8 17  1  0
M  END
