
     RDKit          3D

 19 19  0  0  0  0  0  0  0  0999 V2000
   -2.5837    2.1906    0.9657 C   0  0  0  0  0  0  0  0  0  0  0  0
   -1.6485    1.3980    0.9205 C   0  0  0  0  0  0  0  0  0  0  0  0
   -0.4973    0.4564    0.8658 C   0  0  0  0  0  0  0  0  0  0  0  0
    0.5380    0.9727    0.1737 O   0  0  0  0  0  0  0  0  0  0  0  0
    0.8829    0.1508   -0.8486 C   0  0  0  0  0  0  0  0  0  0  0  0
    2.3893    0.0995   -0.9450 C   0  0  0  0  0  0  0  0  0  0  0  0
    0.2960   -1.2199   -0.5371 C   0  0  0  0  0  0  0  0  0  0  0  0
   -0.9780   -0.7571    0.1480 C   0  0  0  0  0  0  0  0  0  0  0  0
   -1.4577   -1.7430    1.0092 O   0  0  0  0  0  0  0  0  0  0  0  0
   -3.3984    2.8620    1.0014 H   0  0  0  0  0  0  0  0  0  0  0  0
   -0.2058    0.1773    1.9190 H   0  0  0  0  0  0  0  0  0  0  0  0
    0.4272    0.5486   -1.7853 H   0  0  0  0  0  0  0  0  0  0  0  0
    2.8948    0.8495   -0.2912 H   0  0  0  0  0  0  0  0  0  0  0  0
    2.7355    0.3498   -1.9883 H   0  0  0  0  0  0  0  0  0  0  0  0
    2.7309   -0.9143   -0.7534 H   0  0  0  0  0  0  0  0  0  0  0  0
    0.1155   -1.8385   -1.4121 H   0  0  0  0  0  0  0  0  0  0  0  0
    0.9179   -1.6833    0.2580 H   0  0  0  0  0  0  0  0  0  0  0  0
   -1.7231   -0.4894   -0.6315 H   0  0  0  0  0  0  0  0  0  0  0  0
   -1.4354   -1.4097    1.9313 H   0  0  0  0  0  0  0  0  0  0  0  0
  1  2  3  0
  2  3  1  0
  3  4  1  0
  4  5  1  0
  5  6  1  0
  5  7  1  0
  7  8  1  0
  8  9  1  0
  8  3  1  0
  1 10  1  0
  3 11  1  0
  5 12  1  0
  6 13  1  0
  6 14  1  0
  6 15  1  0
  7 16  1  0
  7 17  1  0
  8 18  1  0
  9 19  1  0
M  END
