
     RDKit          3D

 19 19  0  0  0  0  0  0  0  0999 V2000
    2.1510    2.3527   -0.2017 C   0  0  0  0  0  0  0  0  0  0  0  0
    1.3644    1.4650    0.0179 C   0  0  0  0  0  0  0  0  0  0  0  0
    0.4091    0.3937    0.2584 C   0  0  0  0  0  0  0  0  0  0  0  0
   -1.0139    0.6506   -0.1773 C   0  0  0  0  0  0  0  0  0  0  0  0
   -1.7572   -0.5224   -0.2011 O   0  0  0  0  0  0  0  0  0  0  0  0
   -3.0603   -0.3296   -0.5935 C   0  0  0  0  0  0  0  0  0  0  0  0
    0.4468   -0.1782    1.5856 O   0  0  0  0  0  0  0  0  0  0  0  0
    0.8378   -0.9754    0.4359 C   0  0  0  0  0  0  0  0  0  0  0  0
    2.3005   -1.3404    0.4944 C   0  0  0  0  0  0  0  0  0  0  0  0
    2.8579    3.1374   -0.4098 H   0  0  0  0  0  0  0  0  0  0  0  0
   -1.4917    1.4243    0.4416 H   0  0  0  0  0  0  0  0  0  0  0  0
   -0.9616    1.0086   -1.2353 H   0  0  0  0  0  0  0  0  0  0  0  0
   -3.5691   -1.3152   -0.5813 H   0  0  0  0  0  0  0  0  0  0  0  0
   -3.6358    0.3175    0.1035 H   0  0  0  0  0  0  0  0  0  0  0  0
   -3.1189    0.0434   -1.6455 H   0  0  0  0  0  0  0  0  0  0  0  0
    0.1674   -1.7917    0.1706 H   0  0  0  0  0  0  0  0  0  0  0  0
    2.8489   -0.8306    1.3034 H   0  0  0  0  0  0  0  0  0  0  0  0
    2.8049   -1.0667   -0.4567 H   0  0  0  0  0  0  0  0  0  0  0  0
    2.4199   -2.4430    0.6911 H   0  0  0  0  0  0  0  0  0  0  0  0
  1  2  3  0
  2  3  1  0
  3  4  1  0
  4  5  1  0
  5  6  1  0
  3  7  1  0
  7  8  1  0
  8  9  1  0
  8  3  1  0
  1 10  1  0
  4 11  1  0
  4 12  1  0
  6 13  1  0
  6 14  1  0
  6 15  1  0
  8 16  1  0
  9 17  1  0
  9 18  1  0
  9 19  1  0
M  END
