
     RDKit          3D

 19 19  0  0  0  0  0  0  0  0999 V2000
    1.7844    2.5898   -0.9091 C   0  0  0  0  0  0  0  0  0  0  0  0
    1.3095    1.7509   -0.1596 C   0  0  0  0  0  0  0  0  0  0  0  0
    0.7353    0.7407    0.7365 C   0  0  0  0  0  0  0  0  0  0  0  0
    1.7242    0.0058    1.3916 O   0  0  0  0  0  0  0  0  0  0  0  0
    1.6637   -1.0221    0.4481 C   0  0  0  0  0  0  0  0  0  0  0  0
    0.3448   -0.4740   -0.0578 C   0  0  0  0  0  0  0  0  0  0  0  0
   -0.8179   -1.2424    0.5501 C   0  0  0  0  0  0  0  0  0  0  0  0
   -1.9130   -0.4087    0.6161 O   0  0  0  0  0  0  0  0  0  0  0  0
   -2.3162    0.0645   -0.6107 C   0  0  0  0  0  0  0  0  0  0  0  0
    2.1929    3.3272   -1.5503 H   0  0  0  0  0  0  0  0  0  0  0  0
   -0.0735    1.1008    1.3895 H   0  0  0  0  0  0  0  0  0  0  0  0
    2.4963   -0.9946   -0.2662 H   0  0  0  0  0  0  0  0  0  0  0  0
    1.5587   -1.9881    0.9596 H   0  0  0  0  0  0  0  0  0  0  0  0
    0.2966   -0.3549   -1.1475 H   0  0  0  0  0  0  0  0  0  0  0  0
   -0.5565   -1.5837    1.5650 H   0  0  0  0  0  0  0  0  0  0  0  0
   -0.9907   -2.1345   -0.1046 H   0  0  0  0  0  0  0  0  0  0  0  0
   -1.5373    0.6519   -1.1383 H   0  0  0  0  0  0  0  0  0  0  0  0
   -3.2268    0.7059   -0.4199 H   0  0  0  0  0  0  0  0  0  0  0  0
   -2.6746   -0.7344   -1.2924 H   0  0  0  0  0  0  0  0  0  0  0  0
  1  2  3  0
  2  3  1  0
  3  4  1  0
  4  5  1  0
  5  6  1  0
  6  7  1  0
  7  8  1  0
  8  9  1  0
  6  3  1  0
  1 10  1  0
  3 11  1  0
  5 12  1  0
  5 13  1  0
  6 14  1  0
  7 15  1  0
  7 16  1  0
  9 17  1  0
  9 18  1  0
  9 19  1  0
M  END
