
     RDKit          3D

 21 21  0  0  0  0  0  0  0  0999 V2000
   -2.4408    1.6504   -0.6628 C   0  0  0  0  0  0  0  0  0  0  0  0
   -1.6536    0.7372   -0.6134 C   0  0  0  0  0  0  0  0  0  0  0  0
   -0.6880   -0.3642   -0.5454 C   0  0  0  0  0  0  0  0  0  0  0  0
   -1.1146   -1.5737   -1.3374 C   0  0  0  0  0  0  0  0  0  0  0  0
   -0.2603   -0.6676    0.8789 C   0  0  0  0  0  0  0  0  0  0  0  0
    0.7528    0.4431    0.7014 C   0  0  0  0  0  0  0  0  0  0  0  0
    2.1029    0.1955    1.2966 C   0  0  0  0  0  0  0  0  0  0  0  0
    0.1777    1.6651    0.9535 O   0  0  0  0  0  0  0  0  0  0  0  0
    0.7157    0.1106   -0.7917 C   0  0  0  0  0  0  0  0  0  0  0  0
   -3.1456    2.4533   -0.6916 H   0  0  0  0  0  0  0  0  0  0  0  0
   -1.2992   -1.2347   -2.3765 H   0  0  0  0  0  0  0  0  0  0  0  0
   -0.3945   -2.3827   -1.2390 H   0  0  0  0  0  0  0  0  0  0  0  0
   -2.1276   -1.8633   -0.9370 H   0  0  0  0  0  0  0  0  0  0  0  0
    0.2343   -1.6373    1.0025 H   0  0  0  0  0  0  0  0  0  0  0  0
   -1.0400   -0.4673    1.6369 H   0  0  0  0  0  0  0  0  0  0  0  0
    2.0702   -0.2341    2.2966 H   0  0  0  0  0  0  0  0  0  0  0  0
    2.6214    1.1874    1.3611 H   0  0  0  0  0  0  0  0  0  0  0  0
    2.6624   -0.4747    0.6255 H   0  0  0  0  0  0  0  0  0  0  0  0
    0.6296    2.0769    1.7304 H   0  0  0  0  0  0  0  0  0  0  0  0
    1.4482   -0.6642   -1.0640 H   0  0  0  0  0  0  0  0  0  0  0  0
    0.7490    1.0442   -1.3639 H   0  0  0  0  0  0  0  0  0  0  0  0
  1  2  3  0
  2  3  1  0
  3  4  1  0
  3  5  1  0
  5  6  1  0
  6  7  1  0
  6  8  1  0
  6  9  1  0
  9  3  1  0
  1 10  1  0
  4 11  1  0
  4 12  1  0
  4 13  1  0
  5 14  1  0
  5 15  1  0
  7 16  1  0
  7 17  1  0
  7 18  1  0
  8 19  1  0
  9 20  1  0
  9 21  1  0
M  END
