
     RDKit          3D

 23 23  0  0  0  0  0  0  0  0999 V2000
    1.0469    2.2536   -1.6694 C   0  0  0  0  0  0  0  0  0  0  0  0
    0.7562    1.4035   -0.8664 C   0  0  0  0  0  0  0  0  0  0  0  0
    0.4130    0.3892    0.1240 C   0  0  0  0  0  0  0  0  0  0  0  0
    1.3384    0.3281    1.3121 C   0  0  0  0  0  0  0  0  0  0  0  0
    0.0885   -0.9512   -0.4941 C   0  0  0  0  0  0  0  0  0  0  0  0
    1.1548   -1.9676   -0.2497 C   0  0  0  0  0  0  0  0  0  0  0  0
   -1.0758   -1.0519    0.4692 C   0  0  0  0  0  0  0  0  0  0  0  0
   -1.0163    0.4757    0.5809 C   0  0  0  0  0  0  0  0  0  0  0  0
   -1.9782    1.1169   -0.3706 C   0  0  0  0  0  0  0  0  0  0  0  0
    1.3024    3.0278   -2.3762 H   0  0  0  0  0  0  0  0  0  0  0  0
    2.3670    0.3360    0.9502 H   0  0  0  0  0  0  0  0  0  0  0  0
    1.1878    1.2790    1.8946 H   0  0  0  0  0  0  0  0  0  0  0  0
    1.0627   -0.5661    1.8992 H   0  0  0  0  0  0  0  0  0  0  0  0
   -0.2640   -0.8617   -1.5363 H   0  0  0  0  0  0  0  0  0  0  0  0
    1.3635   -2.4857   -1.2205 H   0  0  0  0  0  0  0  0  0  0  0  0
    2.1165   -1.5144    0.1207 H   0  0  0  0  0  0  0  0  0  0  0  0
    0.8909   -2.7419    0.4900 H   0  0  0  0  0  0  0  0  0  0  0  0
   -0.8284   -1.5764    1.4115 H   0  0  0  0  0  0  0  0  0  0  0  0
   -2.0249   -1.3987    0.0159 H   0  0  0  0  0  0  0  0  0  0  0  0
   -1.1533    0.7384    1.6528 H   0  0  0  0  0  0  0  0  0  0  0  0
   -2.8200    0.4156   -0.5403 H   0  0  0  0  0  0  0  0  0  0  0  0
   -2.4056    2.0080    0.1358 H   0  0  0  0  0  0  0  0  0  0  0  0
   -1.5221    1.3439   -1.3505 H   0  0  0  0  0  0  0  0  0  0  0  0
  1  2  3  0
  2  3  1  0
  3  4  1  0
  3  5  1  0
  5  6  1  0
  5  7  1  0
  7  8  1  0
  8  9  1  0
  8  3  1  0
  1 10  1  0
  4 11  1  0
  4 12  1  0
  4 13  1  0
  5 14  1  0
  6 15  1  0
  6 16  1  0
  6 17  1  0
  7 18  1  0
  7 19  1  0
  8 20  1  0
  9 21  1  0
  9 22  1  0
  9 23  1  0
M  END
