
     RDKit          3D

 16 16  0  0  0  0  0  0  0  0999 V2000
    2.9926    0.8826   -0.4963 C   0  0  0  0  0  0  0  0  0  0  0  0
    2.0855    0.2059   -0.0802 C   0  0  0  0  0  0  0  0  0  0  0  0
    0.9795   -0.5890    0.4153 C   0  0  0  0  0  0  0  0  0  0  0  0
    0.2361   -1.4872   -0.5814 C   0  0  0  0  0  0  0  0  0  0  0  0
   -0.3684   -0.2455   -0.0967 C   0  0  0  0  0  0  0  0  0  0  0  0
   -0.5486    0.8659   -0.9219 O   0  0  0  0  0  0  0  0  0  0  0  0
   -1.4792   -0.3751    0.9509 C   0  0  0  0  0  0  0  0  0  0  0  0
   -2.6808   -0.5039    0.2942 O   0  0  0  0  0  0  0  0  0  0  0  0
    3.7993    1.4722   -0.8470 H   0  0  0  0  0  0  0  0  0  0  0  0
    1.0970   -0.9925    1.4584 H   0  0  0  0  0  0  0  0  0  0  0  0
   -0.1629   -2.4534   -0.1672 H   0  0  0  0  0  0  0  0  0  0  0  0
    0.7386   -1.5796   -1.5569 H   0  0  0  0  0  0  0  0  0  0  0  0
   -1.4657    1.1821   -0.9458 H   0  0  0  0  0  0  0  0  0  0  0  0
   -1.2670   -1.2864    1.5710 H   0  0  0  0  0  0  0  0  0  0  0  0
   -1.4297    0.4775    1.6507 H   0  0  0  0  0  0  0  0  0  0  0  0
   -2.5263   -0.7578   -0.6471 H   0  0  0  0  0  0  0  0  0  0  0  0
  1  2  3  0
  2  3  1  0
  3  4  1  0
  4  5  1  0
  5  6  1  0
  5  7  1  0
  7  8  1  0
  5  3  1  0
  1  9  1  0
  3 10  1  0
  4 11  1  0
  4 12  1  0
  6 13  1  0
  7 14  1  0
  7 15  1  0
  8 16  1  0
M  END
