
     RDKit          3D

 21 21  0  0  0  0  0  0  0  0999 V2000
   -1.3632    2.3413    1.6827 C   0  0  0  0  0  0  0  0  0  0  0  0
   -1.2432    1.7556    0.6199 C   0  0  0  0  0  0  0  0  0  0  0  0
   -1.0955    1.0353   -0.6354 C   0  0  0  0  0  0  0  0  0  0  0  0
   -0.7052   -0.3939   -0.3833 C   0  0  0  0  0  0  0  0  0  0  0  0
   -1.6412   -1.2669    0.4358 C   0  0  0  0  0  0  0  0  0  0  0  0
    0.0122   -1.1400   -1.4876 C   0  0  0  0  0  0  0  0  0  0  0  0
    0.7887   -0.7297   -0.2847 C   0  0  0  0  0  0  0  0  0  0  0  0
    1.6076    0.3704   -0.4345 O   0  0  0  0  0  0  0  0  0  0  0  0
    2.7453    0.3234    0.3541 C   0  0  0  0  0  0  0  0  0  0  0  0
   -1.4498    2.8509    2.6126 H   0  0  0  0  0  0  0  0  0  0  0  0
   -0.2388    1.4981   -1.2020 H   0  0  0  0  0  0  0  0  0  0  0  0
   -1.9750    1.1470   -1.2894 H   0  0  0  0  0  0  0  0  0  0  0  0
   -2.4415   -1.6371   -0.2332 H   0  0  0  0  0  0  0  0  0  0  0  0
   -2.0340   -0.7289    1.3288 H   0  0  0  0  0  0  0  0  0  0  0  0
   -1.0927   -2.1527    0.8237 H   0  0  0  0  0  0  0  0  0  0  0  0
    0.1971   -0.5870   -2.4373 H   0  0  0  0  0  0  0  0  0  0  0  0
   -0.2388   -2.2067   -1.6733 H   0  0  0  0  0  0  0  0  0  0  0  0
    1.0597   -1.5472    0.4131 H   0  0  0  0  0  0  0  0  0  0  0  0
    3.3896   -0.5410    0.1488 H   0  0  0  0  0  0  0  0  0  0  0  0
    3.2838    1.2834    0.2036 H   0  0  0  0  0  0  0  0  0  0  0  0
    2.4351    0.3260    1.4375 H   0  0  0  0  0  0  0  0  0  0  0  0
  1  2  3  0
  2  3  1  0
  3  4  1  0
  4  5  1  0
  4  6  1  0
  6  7  1  0
  7  8  1  0
  8  9  1  0
  7  4  1  0
  1 10  1  0
  3 11  1  0
  3 12  1  0
  5 13  1  0
  5 14  1  0
  5 15  1  0
  6 16  1  0
  6 17  1  0
  7 18  1  0
  9 19  1  0
  9 20  1  0
  9 21  1  0
M  END
