
     RDKit          3D

 19 19  0  0  0  0  0  0  0  0999 V2000
    3.0070   -0.1722    1.4505 C   0  0  0  0  0  0  0  0  0  0  0  0
    1.9741   -0.6880    1.0383 C   0  0  0  0  0  0  0  0  0  0  0  0
    0.7196   -1.2895    0.5490 C   0  0  0  0  0  0  0  0  0  0  0  0
    0.0228   -0.2461   -0.2878 C   0  0  0  0  0  0  0  0  0  0  0  0
    0.7679    0.1669   -1.3668 O   0  0  0  0  0  0  0  0  0  0  0  0
   -1.3816   -0.6543   -0.6749 C   0  0  0  0  0  0  0  0  0  0  0  0
   -1.9611    0.6923   -1.0277 C   0  0  0  0  0  0  0  0  0  0  0  0
   -1.3395    1.6349   -0.3298 C   0  0  0  0  0  0  0  0  0  0  0  0
   -0.2927    1.0028    0.5486 C   0  0  0  0  0  0  0  0  0  0  0  0
    3.8925    0.2689    1.7858 H   0  0  0  0  0  0  0  0  0  0  0  0
    0.0458   -1.5446    1.3812 H   0  0  0  0  0  0  0  0  0  0  0  0
    0.9719   -2.1417   -0.0794 H   0  0  0  0  0  0  0  0  0  0  0  0
    1.3128   -0.5500   -1.7790 H   0  0  0  0  0  0  0  0  0  0  0  0
   -1.4370   -1.3697   -1.4877 H   0  0  0  0  0  0  0  0  0  0  0  0
   -1.9295   -0.9757    0.2337 H   0  0  0  0  0  0  0  0  0  0  0  0
   -2.7528    0.8849   -1.7302 H   0  0  0  0  0  0  0  0  0  0  0  0
   -1.5283    2.6947   -0.3617 H   0  0  0  0  0  0  0  0  0  0  0  0
    0.6148    1.6054    0.6185 H   0  0  0  0  0  0  0  0  0  0  0  0
   -0.7067    0.6811    1.5193 H   0  0  0  0  0  0  0  0  0  0  0  0
  1  2  3  0
  2  3  1  0
  3  4  1  0
  4  5  1  0
  4  6  1  0
  6  7  1  0
  7  8  2  0
  8  9  1  0
  9  4  1  0
  1 10  1  0
  3 11  1  0
  3 12  1  0
  5 13  1  0
  6 14  1  0
  6 15  1  0
  7 16  1  0
  8 17  1  0
  9 18  1  0
  9 19  1  0
M  END
