
     RDKit          3D

 16 15  0  0  0  0  0  0  0  0999 V2000
   -2.4106    1.6410   -1.2541 C   0  0  0  0  0  0  0  0  0  0  0  0
   -2.1414    0.8831   -0.3562 C   0  0  0  0  0  0  0  0  0  0  0  0
   -1.8198   -0.0185    0.7503 C   0  0  0  0  0  0  0  0  0  0  0  0
   -0.5548   -0.7703    0.4323 C   0  0  0  0  0  0  0  0  0  0  0  0
    0.5274    0.0898    0.2401 O   0  0  0  0  0  0  0  0  0  0  0  0
    1.6315   -0.7111   -0.0451 C   0  0  0  0  0  0  0  0  0  0  0  0
    2.8432    0.0962   -0.2687 C   0  0  0  0  0  0  0  0  0  0  0  0
    3.9309   -0.3763   -0.5328 O   0  0  0  0  0  0  0  0  0  0  0  0
   -2.6354    2.3280   -2.0525 H   0  0  0  0  0  0  0  0  0  0  0  0
   -1.6725    0.5743    1.6594 H   0  0  0  0  0  0  0  0  0  0  0  0
   -2.6264   -0.7689    0.8761 H   0  0  0  0  0  0  0  0  0  0  0  0
   -0.2778   -1.4136    1.3058 H   0  0  0  0  0  0  0  0  0  0  0  0
   -0.7317   -1.4033   -0.4695 H   0  0  0  0  0  0  0  0  0  0  0  0
    1.3595   -1.3133   -0.9358 H   0  0  0  0  0  0  0  0  0  0  0  0
    1.8101   -1.3435    0.8455 H   0  0  0  0  0  0  0  0  0  0  0  0
    2.7677    1.1747   -0.1949 H   0  0  0  0  0  0  0  0  0  0  0  0
  1  2  3  0
  2  3  1  0
  3  4  1  0
  4  5  1  0
  5  6  1  0
  6  7  1  0
  7  8  2  0
  1  9  1  0
  3 10  1  0
  3 11  1  0
  4 12  1  0
  4 13  1  0
  6 14  1  0
  6 15  1  0
  7 16  1  0
M  END
