
     RDKit          3D

 17 17  0  0  0  0  0  0  0  0999 V2000
    4.3080    1.6861    1.6702 C   0  0  0  0  0  0  0  0  0  0  0  0
    3.2894    1.3352    1.1273 C   0  0  0  0  0  0  0  0  0  0  0  0
    2.0809    0.9265    0.4794 C   0  0  0  0  0  0  0  0  0  0  0  0
    1.0610    0.5673   -0.0520 C   0  0  0  0  0  0  0  0  0  0  0  0
   -0.1764    0.1531   -0.7104 C   0  0  0  0  0  0  0  0  0  0  0  0
   -1.3326    0.7657   -0.0049 C   0  0  0  0  0  0  0  0  0  0  0  0
   -2.3717   -0.0610    0.0174 C   0  0  0  0  0  0  0  0  0  0  0  0
   -1.9787   -1.3259   -0.6911 C   0  0  0  0  0  0  0  0  0  0  0  0
   -0.4469   -1.3154   -0.5555 C   0  0  0  0  0  0  0  0  0  0  0  0
    5.2069    2.0062    2.1472 H   0  0  0  0  0  0  0  0  0  0  0  0
   -0.2177    0.4738   -1.7685 H   0  0  0  0  0  0  0  0  0  0  0  0
   -1.3546    1.7537    0.4422 H   0  0  0  0  0  0  0  0  0  0  0  0
   -3.3579    0.0675    0.4438 H   0  0  0  0  0  0  0  0  0  0  0  0
   -2.3348   -2.2234   -0.1886 H   0  0  0  0  0  0  0  0  0  0  0  0
   -2.2449   -1.2598   -1.7568 H   0  0  0  0  0  0  0  0  0  0  0  0
    0.0282   -1.9413   -1.3238 H   0  0  0  0  0  0  0  0  0  0  0  0
   -0.1582   -1.6083    0.4712 H   0  0  0  0  0  0  0  0  0  0  0  0
  1  2  3  0
  2  3  1  0
  3  4  3  0
  4  5  1  0
  5  6  1  0
  6  7  2  0
  7  8  1  0
  8  9  1  0
  9  5  1  0
  1 10  1  0
  5 11  1  0
  6 12  1  0
  7 13  1  0
  8 14  1  0
  8 15  1  0
  9 16  1  0
  9 17  1  0
M  END
