
     RDKit          3D

 19 19  0  0  0  0  0  0  0  0999 V2000
    1.9525   -0.4371   -2.1439 C   0  0  0  0  0  0  0  0  0  0  0  0
    0.9209   -0.1545   -1.4968 C   0  0  0  0  0  0  0  0  0  0  0  0
   -0.2356    0.1767   -0.7916 C   0  0  0  0  0  0  0  0  0  0  0  0
   -0.3510    1.5820   -0.1440 C   0  0  0  0  0  0  0  0  0  0  0  0
   -1.1989    2.4476   -0.7181 O   0  0  0  0  0  0  0  0  0  0  0  0
   -0.8621    0.7996    1.0775 C   0  0  0  0  0  0  0  0  0  0  0  0
    0.1883   -0.1765    0.7521 C   0  0  0  0  0  0  0  0  0  0  0  0
    0.1209   -1.6273    0.9474 C   0  0  0  0  0  0  0  0  0  0  0  0
   -1.0325   -2.3277    0.8023 O   0  0  0  0  0  0  0  0  0  0  0  0
    2.9451   -0.7130   -2.7641 H   0  0  0  0  0  0  0  0  0  0  0  0
   -1.1705   -0.3068   -0.9945 H   0  0  0  0  0  0  0  0  0  0  0  0
    0.7033    1.9427    0.0522 H   0  0  0  0  0  0  0  0  0  0  0  0
   -0.9673    3.3772   -0.3395 H   0  0  0  0  0  0  0  0  0  0  0  0
   -0.7950    1.3944    2.0243 H   0  0  0  0  0  0  0  0  0  0  0  0
   -1.8881    0.4327    0.9525 H   0  0  0  0  0  0  0  0  0  0  0  0
    1.2110    0.2638    0.8600 H   0  0  0  0  0  0  0  0  0  0  0  0
    0.8815   -2.0214    0.1384 H   0  0  0  0  0  0  0  0  0  0  0  0
    0.6323   -1.8831    1.9178 H   0  0  0  0  0  0  0  0  0  0  0  0
   -1.0549   -2.7692   -0.1321 H   0  0  0  0  0  0  0  0  0  0  0  0
  1  2  3  0
  2  3  1  0
  3  4  1  0
  4  5  1  0
  4  6  1  0
  6  7  1  0
  7  8  1  0
  8  9  1  0
  7  3  1  0
  1 10  1  0
  3 11  1  0
  4 12  1  0
  5 13  1  0
  6 14  1  0
  6 15  1  0
  7 16  1  0
  8 17  1  0
  8 18  1  0
  9 19  1  0
M  END
