
     RDKit          3D

 19 18  0  0  0  0  0  0  0  0999 V2000
   -3.3729    2.5935   -0.5814 C   0  0  0  0  0  0  0  0  0  0  0  0
   -2.6185    1.6286   -0.6044 C   0  0  0  0  0  0  0  0  0  0  0  0
   -1.7364    0.4601   -0.6375 C   0  0  0  0  0  0  0  0  0  0  0  0
   -2.3912   -0.6083   -0.0174 O   0  0  0  0  0  0  0  0  0  0  0  0
   -0.4207    0.7673    0.0901 C   0  0  0  0  0  0  0  0  0  0  0  0
    0.3468   -0.3795    0.0196 O   0  0  0  0  0  0  0  0  0  0  0  0
    1.5729   -0.2469    0.6406 C   0  0  0  0  0  0  0  0  0  0  0  0
    2.2922   -1.5879    0.4750 C   0  0  0  0  0  0  0  0  0  0  0  0
    3.5396   -1.5814    1.0588 O   0  0  0  0  0  0  0  0  0  0  0  0
   -4.0392    3.4181   -0.5670 H   0  0  0  0  0  0  0  0  0  0  0  0
   -1.5408    0.2376   -1.7067 H   0  0  0  0  0  0  0  0  0  0  0  0
   -2.4827   -1.3634   -0.6779 H   0  0  0  0  0  0  0  0  0  0  0  0
    0.1028    1.5339   -0.5476 H   0  0  0  0  0  0  0  0  0  0  0  0
   -0.5955    1.1486    1.0942 H   0  0  0  0  0  0  0  0  0  0  0  0
    1.4700    0.0195    1.7089 H   0  0  0  0  0  0  0  0  0  0  0  0
    2.1654    0.5480    0.1590 H   0  0  0  0  0  0  0  0  0  0  0  0
    2.3325   -1.7767   -0.6266 H   0  0  0  0  0  0  0  0  0  0  0  0
    1.6041   -2.3354    0.9681 H   0  0  0  0  0  0  0  0  0  0  0  0
    3.7715   -2.4758    1.4334 H   0  0  0  0  0  0  0  0  0  0  0  0
  1  2  3  0
  2  3  1  0
  3  4  1  0
  3  5  1  0
  5  6  1  0
  6  7  1  0
  7  8  1  0
  8  9  1  0
  1 10  1  0
  3 11  1  0
  4 12  1  0
  5 13  1  0
  5 14  1  0
  7 15  1  0
  7 16  1  0
  8 17  1  0
  8 18  1  0
  9 19  1  0
M  END
