
     RDKit          3D

 21 21  0  0  0  0  0  0  0  0999 V2000
    1.9493    2.2398    1.9854 C   0  0  0  0  0  0  0  0  0  0  0  0
    1.2539    1.3084    1.9633 C   0  0  0  0  0  0  0  0  0  0  0  0
    0.3284    0.0513    1.9275 C   0  0  0  0  0  0  0  0  0  0  0  0
    0.2695   -0.2910    0.4706 C   0  0  0  0  0  0  0  0  0  0  0  0
   -0.2900    0.8608   -0.3490 C   0  0  0  0  0  0  0  0  0  0  0  0
   -1.2575    0.3451   -1.3775 C   0  0  0  0  0  0  0  0  0  0  0  0
   -0.7322   -0.9077   -2.0597 C   0  0  0  0  0  0  0  0  0  0  0  0
   -0.0949   -1.8768   -1.1310 C   0  0  0  0  0  0  0  0  0  0  0  0
   -0.3228   -1.4705    0.2084 O   0  0  0  0  0  0  0  0  0  0  0  0
    2.6229    3.1753    2.0067 H   0  0  0  0  0  0  0  0  0  0  0  0
    0.7931   -0.6837    2.5796 H   0  0  0  0  0  0  0  0  0  0  0  0
   -0.5958    0.4232    2.4010 H   0  0  0  0  0  0  0  0  0  0  0  0
    1.3624   -0.3792    0.1608 H   0  0  0  0  0  0  0  0  0  0  0  0
   -0.8395    1.5250    0.3463 H   0  0  0  0  0  0  0  0  0  0  0  0
    0.5055    1.4321   -0.8350 H   0  0  0  0  0  0  0  0  0  0  0  0
   -1.4852    1.0788   -2.1504 H   0  0  0  0  0  0  0  0  0  0  0  0
   -2.2487    0.0578   -0.9168 H   0  0  0  0  0  0  0  0  0  0  0  0
   -0.0207   -0.6826   -2.8721 H   0  0  0  0  0  0  0  0  0  0  0  0
   -1.6086   -1.4037   -2.5665 H   0  0  0  0  0  0  0  0  0  0  0  0
    1.0023   -1.9491   -1.2961 H   0  0  0  0  0  0  0  0  0  0  0  0
   -0.5916   -2.8532   -1.2277 H   0  0  0  0  0  0  0  0  0  0  0  0
  1  2  3  0
  2  3  1  0
  3  4  1  0
  4  5  1  0
  5  6  1  0
  6  7  1  0
  7  8  1  0
  8  9  1  0
  9  4  1  0
  1 10  1  0
  3 11  1  0
  3 12  1  0
  4 13  1  0
  5 14  1  0
  5 15  1  0
  6 16  1  0
  6 17  1  0
  7 18  1  0
  7 19  1  0
  8 20  1  0
  8 21  1  0
M  END
