
     RDKit          3D

 25 24  0  0  0  0  0  0  0  0999 V2000
    2.4175   -1.0445   -1.7899 C   0  0  0  0  0  0  0  0  0  0  0  0
    2.0145   -0.1155   -1.1161 C   0  0  0  0  0  0  0  0  0  0  0  0
    1.5223    1.0112   -0.3280 C   0  0  0  0  0  0  0  0  0  0  0  0
    0.4666    0.5646    0.6442 C   0  0  0  0  0  0  0  0  0  0  0  0
    1.0371   -0.4603    1.5789 C   0  0  0  0  0  0  0  0  0  0  0  0
   -0.7963    0.0946    0.0019 C   0  0  0  0  0  0  0  0  0  0  0  0
   -1.3935    1.2272   -0.8214 C   0  0  0  0  0  0  0  0  0  0  0  0
   -1.7973   -0.1810    1.1200 C   0  0  0  0  0  0  0  0  0  0  0  0
   -0.6759   -1.1324   -0.8267 C   0  0  0  0  0  0  0  0  0  0  0  0
    2.7542   -1.8654   -2.3857 H   0  0  0  0  0  0  0  0  0  0  0  0
    2.3742    1.4080    0.2798 H   0  0  0  0  0  0  0  0  0  0  0  0
    1.2003    1.8293   -0.9844 H   0  0  0  0  0  0  0  0  0  0  0  0
    0.1862    1.4516    1.2786 H   0  0  0  0  0  0  0  0  0  0  0  0
    0.5304   -1.4598    1.4764 H   0  0  0  0  0  0  0  0  0  0  0  0
    1.0117   -0.1381    2.6424 H   0  0  0  0  0  0  0  0  0  0  0  0
    2.1113   -0.6431    1.3367 H   0  0  0  0  0  0  0  0  0  0  0  0
   -2.4706    0.9949   -1.0317 H   0  0  0  0  0  0  0  0  0  0  0  0
   -0.8236    1.4177   -1.7496 H   0  0  0  0  0  0  0  0  0  0  0  0
   -1.4244    2.1504   -0.1736 H   0  0  0  0  0  0  0  0  0  0  0  0
   -2.8162    0.0022    0.7055 H   0  0  0  0  0  0  0  0  0  0  0  0
   -1.6822   -1.2432    1.3969 H   0  0  0  0  0  0  0  0  0  0  0  0
   -1.5721    0.5215    1.9478 H   0  0  0  0  0  0  0  0  0  0  0  0
   -0.0013   -1.8987   -0.4417 H   0  0  0  0  0  0  0  0  0  0  0  0
   -1.6986   -1.6133   -0.8570 H   0  0  0  0  0  0  0  0  0  0  0  0
   -0.4742   -0.8778   -1.9033 H   0  0  0  0  0  0  0  0  0  0  0  0
  1  2  3  0
  2  3  1  0
  3  4  1  0
  4  5  1  0
  4  6  1  0
  6  7  1  0
  6  8  1  0
  6  9  1  0
  1 10  1  0
  3 11  1  0
  3 12  1  0
  4 13  1  0
  5 14  1  0
  5 15  1  0
  5 16  1  0
  7 17  1  0
  7 18  1  0
  7 19  1  0
  8 20  1  0
  8 21  1  0
  8 22  1  0
  9 23  1  0
  9 24  1  0
  9 25  1  0
M  END
