
     RDKit          3D

 15 15  0  0  0  0  0  0  0  0999 V2000
   -2.9916   -1.8622    0.1481 C   0  0  0  0  0  0  0  0  0  0  0  0
   -1.7575   -2.0247   -0.0994 C   0  0  0  0  0  0  0  0  0  0  0  0
   -0.4104   -2.2047   -0.3549 C   0  0  0  0  0  0  0  0  0  0  0  0
    0.6524   -2.7587    0.1785 O   0  0  0  0  0  0  0  0  0  0  0  0
    0.5482   -1.6060    0.8330 C   0  0  0  0  0  0  0  0  0  0  0  0
    0.7600   -0.2275    0.3509 C   0  0  0  0  0  0  0  0  0  0  0  0
    0.9747    1.0331   -0.0975 C   0  0  0  0  0  0  0  0  0  0  0  0
    1.1808    2.2276   -0.4992 C   0  0  0  0  0  0  0  0  0  0  0  0
    1.8118    3.0685    0.4497 O   0  0  0  0  0  0  0  0  0  0  0  0
   -3.9935   -1.7222    0.3327 H   0  0  0  0  0  0  0  0  0  0  0  0
   -0.1070   -1.4850   -1.3096 H   0  0  0  0  0  0  0  0  0  0  0  0
    0.0055   -1.6271    1.8087 H   0  0  0  0  0  0  0  0  0  0  0  0
    1.7519    2.4246   -1.4851 H   0  0  0  0  0  0  0  0  0  0  0  0
    0.1767    2.7864   -0.8420 H   0  0  0  0  0  0  0  0  0  0  0  0
    1.3982    3.9778    0.3312 H   0  0  0  0  0  0  0  0  0  0  0  0
  1  2  3  0
  2  3  1  0
  3  4  1  0
  4  5  1  0
  5  6  1  0
  6  7  3  0
  7  8  1  0
  8  9  1  0
  5  3  1  0
  1 10  1  0
  3 11  1  0
  5 12  1  0
  8 13  1  0
  8 14  1  0
  9 15  1  0
M  END
