
     RDKit          3D

 16 17  0  0  0  0  0  0  0  0999 V2000
    2.6816    0.9047    0.7688 C   0  0  0  0  0  0  0  0  0  0  0  0
    1.6150    0.4555    0.4750 C   0  0  0  0  0  0  0  0  0  0  0  0
    0.4254   -0.0505    0.1703 C   0  0  0  0  0  0  0  0  0  0  0  0
   -0.2493   -1.2369    0.7130 C   0  0  0  0  0  0  0  0  0  0  0  0
   -1.2159   -0.7184   -0.3278 C   0  0  0  0  0  0  0  0  0  0  0  0
   -0.0002   -0.5330   -1.1971 C   0  0  0  0  0  0  0  0  0  0  0  0
   -0.8914    0.6570    0.2181 C   0  0  0  0  0  0  0  0  0  0  0  0
   -0.9536    1.6632   -0.7225 O   0  0  0  0  0  0  0  0  0  0  0  0
    3.6552    1.2950    1.0402 H   0  0  0  0  0  0  0  0  0  0  0  0
   -0.6862   -1.1833    1.7235 H   0  0  0  0  0  0  0  0  0  0  0  0
    0.2270   -2.2041    0.4445 H   0  0  0  0  0  0  0  0  0  0  0  0
   -2.1069   -1.0815   -0.5720 H   0  0  0  0  0  0  0  0  0  0  0  0
    0.4416   -1.4829   -1.5183 H   0  0  0  0  0  0  0  0  0  0  0  0
   -0.0270    0.2889   -1.9100 H   0  0  0  0  0  0  0  0  0  0  0  0
   -1.3359    0.8379    1.1925 H   0  0  0  0  0  0  0  0  0  0  0  0
   -1.5795    2.3882   -0.4983 H   0  0  0  0  0  0  0  0  0  0  0  0
  1  2  3  0
  2  3  1  0
  3  4  1  0
  4  5  1  0
  5  6  1  0
  5  7  1  0
  7  8  1  0
  6  3  1  0
  7  3  1  0
  1  9  1  0
  4 10  1  0
  4 11  1  0
  5 12  1  0
  6 13  1  0
  6 14  1  0
  7 15  1  0
  8 16  1  0
M  END
