
     RDKit          3D

 19 20  0  0  0  0  0  0  0  0999 V2000
    3.2560    0.4653   -1.1110 C   0  0  0  0  0  0  0  0  0  0  0  0
    2.4680   -0.0728   -0.3816 C   0  0  0  0  0  0  0  0  0  0  0  0
    1.5146   -0.7371    0.5055 C   0  0  0  0  0  0  0  0  0  0  0  0
    0.1858   -0.7472   -0.2078 C   0  0  0  0  0  0  0  0  0  0  0  0
   -0.8134   -1.3775    0.5817 O   0  0  0  0  0  0  0  0  0  0  0  0
   -1.8083   -0.4353    0.6261 C   0  0  0  0  0  0  0  0  0  0  0  0
   -1.0266    0.8293    1.0004 C   0  0  0  0  0  0  0  0  0  0  0  0
   -0.4243    0.5949   -0.3789 C   0  0  0  0  0  0  0  0  0  0  0  0
   -1.8519    0.1873   -0.7784 C   0  0  0  0  0  0  0  0  0  0  0  0
    3.9742    0.9481   -1.7537 H   0  0  0  0  0  0  0  0  0  0  0  0
    1.4460   -0.2767    1.4907 H   0  0  0  0  0  0  0  0  0  0  0  0
    1.8567   -1.7849    0.6278 H   0  0  0  0  0  0  0  0  0  0  0  0
    0.2205   -1.2785   -1.1690 H   0  0  0  0  0  0  0  0  0  0  0  0
   -2.7293   -0.6112    1.1135 H   0  0  0  0  0  0  0  0  0  0  0  0
   -1.6328    1.7294    1.0859 H   0  0  0  0  0  0  0  0  0  0  0  0
   -0.3179    0.7019    1.8170 H   0  0  0  0  0  0  0  0  0  0  0  0
    0.0355    1.3827   -0.8902 H   0  0  0  0  0  0  0  0  0  0  0  0
   -1.8002   -0.5338   -1.5981 H   0  0  0  0  0  0  0  0  0  0  0  0
   -2.5527    1.0159   -0.8479 H   0  0  0  0  0  0  0  0  0  0  0  0
  1  2  3  0
  2  3  1  0
  3  4  1  0
  4  5  1  0
  5  6  1  0
  6  7  1  0
  7  8  1  0
  8  9  1  0
  8  4  1  0
  9  6  1  0
  1 10  1  0
  3 11  1  0
  3 12  1  0
  4 13  1  0
  6 14  1  0
  7 15  1  0
  7 16  1  0
  8 17  1  0
  9 18  1  0
  9 19  1  0
M  END
