
     RDKit          3D

 21 21  0  0  0  0  0  0  0  0999 V2000
    3.5770    0.1021   -0.0039 C   0  0  0  0  0  0  0  0  0  0  0  0
    2.5301    0.5785    0.3609 C   0  0  0  0  0  0  0  0  0  0  0  0
    1.2430    1.1460    0.8279 C   0  0  0  0  0  0  0  0  0  0  0  0
    0.1340    0.2195    0.4785 C   0  0  0  0  0  0  0  0  0  0  0  0
   -0.9259    0.4300   -0.2812 C   0  0  0  0  0  0  0  0  0  0  0  0
   -1.2628    1.6875   -0.9850 C   0  0  0  0  0  0  0  0  0  0  0  0
   -1.7655   -0.7924   -0.3433 C   0  0  0  0  0  0  0  0  0  0  0  0
   -0.8105   -1.9111    0.0598 C   0  0  0  0  0  0  0  0  0  0  0  0
    0.1079   -1.1849    1.0071 C   0  0  0  0  0  0  0  0  0  0  0  0
    4.4964   -0.3285   -0.3145 H   0  0  0  0  0  0  0  0  0  0  0  0
    1.1263    2.1404    0.3427 H   0  0  0  0  0  0  0  0  0  0  0  0
    1.3040    1.3202    1.9276 H   0  0  0  0  0  0  0  0  0  0  0  0
   -2.0669    2.2665   -0.4605 H   0  0  0  0  0  0  0  0  0  0  0  0
   -1.6690    1.4648   -2.0118 H   0  0  0  0  0  0  0  0  0  0  0  0
   -0.3927    2.3617   -1.1224 H   0  0  0  0  0  0  0  0  0  0  0  0
   -2.5482   -0.7347    0.4381 H   0  0  0  0  0  0  0  0  0  0  0  0
   -2.1809   -0.9642   -1.3583 H   0  0  0  0  0  0  0  0  0  0  0  0
   -0.2915   -2.3345   -0.8097 H   0  0  0  0  0  0  0  0  0  0  0  0
   -1.3477   -2.6839    0.6412 H   0  0  0  0  0  0  0  0  0  0  0  0
    1.1243   -1.6240    1.0471 H   0  0  0  0  0  0  0  0  0  0  0  0
   -0.3815   -1.1589    1.9957 H   0  0  0  0  0  0  0  0  0  0  0  0
  1  2  3  0
  2  3  1  0
  3  4  1  0
  4  5  2  0
  5  6  1  0
  5  7  1  0
  7  8  1  0
  8  9  1  0
  9  4  1  0
  1 10  1  0
  3 11  1  0
  3 12  1  0
  6 13  1  0
  6 14  1  0
  6 15  1  0
  7 16  1  0
  7 17  1  0
  8 18  1  0
  8 19  1  0
  9 20  1  0
  9 21  1  0
M  END
