
     RDKit          3D

 19 20  0  0  0  0  0  0  0  0999 V2000
   -0.3215    2.6181    0.6792 C   0  0  0  0  0  0  0  0  0  0  0  0
   -0.2830    1.4951    0.2123 C   0  0  0  0  0  0  0  0  0  0  0  0
   -0.2251    0.1352   -0.3287 C   0  0  0  0  0  0  0  0  0  0  0  0
   -1.5551   -0.5751   -0.4366 C   0  0  0  0  0  0  0  0  0  0  0  0
   -2.3582   -0.8096    0.7385 C   0  0  0  0  0  0  0  0  0  0  0  0
   -1.5239   -1.8522    0.2910 O   0  0  0  0  0  0  0  0  0  0  0  0
    0.7440   -0.0893   -1.5214 C   0  0  0  0  0  0  0  0  0  0  0  0
    0.9928   -0.6581   -0.1648 C   0  0  0  0  0  0  0  0  0  0  0  0
    2.2120   -0.1328    0.5607 C   0  0  0  0  0  0  0  0  0  0  0  0
   -0.3543    3.5904    1.0997 H   0  0  0  0  0  0  0  0  0  0  0  0
   -1.9787   -0.7588   -1.4368 H   0  0  0  0  0  0  0  0  0  0  0  0
   -3.4630   -0.9339    0.5999 H   0  0  0  0  0  0  0  0  0  0  0  0
   -1.9969   -0.3728    1.7078 H   0  0  0  0  0  0  0  0  0  0  0  0
    0.3532   -0.6923   -2.3393 H   0  0  0  0  0  0  0  0  0  0  0  0
    1.3596    0.7961   -1.8141 H   0  0  0  0  0  0  0  0  0  0  0  0
    0.8888   -1.7816   -0.1304 H   0  0  0  0  0  0  0  0  0  0  0  0
    3.0721   -0.1420   -0.1313 H   0  0  0  0  0  0  0  0  0  0  0  0
    1.9913    0.9004    0.9528 H   0  0  0  0  0  0  0  0  0  0  0  0
    2.4458   -0.7370    1.4614 H   0  0  0  0  0  0  0  0  0  0  0  0
  1  2  3  0
  2  3  1  0
  3  4  1  0
  4  5  1  0
  5  6  1  0
  3  7  1  0
  7  8  1  0
  8  9  1  0
  8  3  1  0
  6  4  1  0
  1 10  1  0
  4 11  1  0
  5 12  1  0
  5 13  1  0
  7 14  1  0
  7 15  1  0
  8 16  1  0
  9 17  1  0
  9 18  1  0
  9 19  1  0
M  END
