
     RDKit          3D

 16 17  0  0  0  0  0  0  0  0999 V2000
    3.3376   -0.7736   -0.2952 C   0  0  0  0  0  0  0  0  0  0  0  0
    2.1741   -0.5012   -0.2418 C   0  0  0  0  0  0  0  0  0  0  0  0
    0.8712   -0.1812   -0.1634 C   0  0  0  0  0  0  0  0  0  0  0  0
   -0.2294   -1.0639    0.2773 C   0  0  0  0  0  0  0  0  0  0  0  0
   -0.8262    0.2355   -0.1718 C   0  0  0  0  0  0  0  0  0  0  0  0
   -2.1610    0.5783   -0.2164 C   0  0  0  0  0  0  0  0  0  0  0  0
    0.2648    0.9249    0.5988 C   0  0  0  0  0  0  0  0  0  0  0  0
    0.0721    0.1871   -1.2335 O   0  0  0  0  0  0  0  0  0  0  0  0
    4.3885   -1.0328   -0.3350 H   0  0  0  0  0  0  0  0  0  0  0  0
   -0.3028   -1.3015    1.3379 H   0  0  0  0  0  0  0  0  0  0  0  0
   -0.4681   -1.8695   -0.4463 H   0  0  0  0  0  0  0  0  0  0  0  0
   -2.5261    0.8424   -1.2378 H   0  0  0  0  0  0  0  0  0  0  0  0
   -2.8484   -0.2113    0.1440 H   0  0  0  0  0  0  0  0  0  0  0  0
   -2.4091    1.4804    0.4065 H   0  0  0  0  0  0  0  0  0  0  0  0
    0.1808    0.7336    1.6967 H   0  0  0  0  0  0  0  0  0  0  0  0
    0.4821    1.9529    0.3081 H   0  0  0  0  0  0  0  0  0  0  0  0
  1  2  3  0
  2  3  1  0
  3  4  1  0
  4  5  1  0
  5  6  1  0
  5  7  1  0
  5  8  1  0
  7  3  1  0
  8  3  1  0
  1  9  1  0
  4 10  1  0
  4 11  1  0
  6 12  1  0
  6 13  1  0
  6 14  1  0
  7 15  1  0
  7 16  1  0
M  END
