
     RDKit          3D

 17 17  0  0  0  0  0  0  0  0999 V2000
    3.7241   -0.4877    0.7227 C   0  0  0  0  0  0  0  0  0  0  0  0
    2.6850    0.0796    0.4542 C   0  0  0  0  0  0  0  0  0  0  0  0
    1.4405    0.7556    0.1100 C   0  0  0  0  0  0  0  0  0  0  0  0
    0.3454    0.1509    0.7462 O   0  0  0  0  0  0  0  0  0  0  0  0
   -0.3974    0.4975   -0.3847 C   0  0  0  0  0  0  0  0  0  0  0  0
   -1.5199   -0.4494   -0.7140 C   0  0  0  0  0  0  0  0  0  0  0  0
   -2.4525   -0.4615    0.4798 C   0  0  0  0  0  0  0  0  0  0  0  0
    0.8386    0.3385   -1.1811 C   0  0  0  0  0  0  0  0  0  0  0  0
    1.1836    0.0318   -2.2941 O   0  0  0  0  0  0  0  0  0  0  0  0
    4.6398   -0.9720    0.9448 H   0  0  0  0  0  0  0  0  0  0  0  0
    1.4105    1.8401    0.3108 H   0  0  0  0  0  0  0  0  0  0  0  0
   -0.7822    1.5355   -0.3323 H   0  0  0  0  0  0  0  0  0  0  0  0
   -1.1217   -1.4727   -0.8610 H   0  0  0  0  0  0  0  0  0  0  0  0
   -2.0511   -0.0487   -1.5936 H   0  0  0  0  0  0  0  0  0  0  0  0
   -2.0909   -1.2525    1.1626 H   0  0  0  0  0  0  0  0  0  0  0  0
   -3.5130   -0.5843    0.1895 H   0  0  0  0  0  0  0  0  0  0  0  0
   -2.3387    0.4991    1.0599 H   0  0  0  0  0  0  0  0  0  0  0  0
  1  2  3  0
  2  3  1  0
  3  4  1  0
  4  5  1  0
  5  6  1  0
  6  7  1  0
  5  8  1  0
  8  9  2  0
  8  3  1  0
  1 10  1  0
  3 11  1  0
  5 12  1  0
  6 13  1  0
  6 14  1  0
  7 15  1  0
  7 16  1  0
  7 17  1  0
M  END
