
     RDKit          3D

 17 18  0  0  0  0  0  0  0  0999 V2000
    3.3512    1.0187   -0.1930 C   0  0  0  0  0  0  0  0  0  0  0  0
    2.3259    0.5280    0.2093 C   0  0  0  0  0  0  0  0  0  0  0  0
    1.0836   -0.0426    0.6792 C   0  0  0  0  0  0  0  0  0  0  0  0
    0.2617   -0.6379   -0.4507 C   0  0  0  0  0  0  0  0  0  0  0  0
   -1.1211   -0.6362    0.1857 C   0  0  0  0  0  0  0  0  0  0  0  0
   -1.6309   -1.8350    0.6239 O   0  0  0  0  0  0  0  0  0  0  0  0
   -1.9579    0.5654    0.0047 C   0  0  0  0  0  0  0  0  0  0  0  0
   -1.0222    0.4949    1.1521 C   0  0  0  0  0  0  0  0  0  0  0  0
    0.2531    1.0237    1.0723 O   0  0  0  0  0  0  0  0  0  0  0  0
    4.2582    1.4735   -0.5536 H   0  0  0  0  0  0  0  0  0  0  0  0
    1.2099   -0.7813    1.4777 H   0  0  0  0  0  0  0  0  0  0  0  0
    0.5939   -1.6269   -0.7595 H   0  0  0  0  0  0  0  0  0  0  0  0
    0.2613    0.0893   -1.3106 H   0  0  0  0  0  0  0  0  0  0  0  0
   -1.6643   -1.8011    1.6262 H   0  0  0  0  0  0  0  0  0  0  0  0
   -1.7245    1.2330   -0.8598 H   0  0  0  0  0  0  0  0  0  0  0  0
   -3.0357    0.5132    0.2230 H   0  0  0  0  0  0  0  0  0  0  0  0
   -1.4422    0.4214    2.1664 H   0  0  0  0  0  0  0  0  0  0  0  0
  1  2  3  0
  2  3  1  0
  3  4  1  0
  4  5  1  0
  5  6  1  0
  5  7  1  0
  7  8  1  0
  8  9  1  0
  9  3  1  0
  8  5  1  0
  1 10  1  0
  3 11  1  0
  4 12  1  0
  4 13  1  0
  6 14  1  0
  7 15  1  0
  7 16  1  0
  8 17  1  0
M  END
