
     RDKit          3D

 17 18  0  0  0  0  0  0  0  0999 V2000
    2.1262   -1.7210   -0.5065 C   0  0  0  0  0  0  0  0  0  0  0  0
    1.1063   -1.0801   -0.5878 C   0  0  0  0  0  0  0  0  0  0  0  0
   -0.1153   -0.3220   -0.6612 C   0  0  0  0  0  0  0  0  0  0  0  0
   -0.0840    0.7352   -1.7335 C   0  0  0  0  0  0  0  0  0  0  0  0
    0.7907    1.4714   -0.6836 C   0  0  0  0  0  0  0  0  0  0  0  0
   -0.1560    0.8778    0.2843 C   0  0  0  0  0  0  0  0  0  0  0  0
   -0.9825    0.5006    1.2301 C   0  0  0  0  0  0  0  0  0  0  0  0
   -1.5064   -0.8953    0.9693 C   0  0  0  0  0  0  0  0  0  0  0  0
   -1.2954   -0.9882   -0.4178 O   0  0  0  0  0  0  0  0  0  0  0  0
    3.0275   -2.2974   -0.4383 H   0  0  0  0  0  0  0  0  0  0  0  0
    0.4474    0.4875   -2.6511 H   0  0  0  0  0  0  0  0  0  0  0  0
   -1.0522    1.2287   -1.8118 H   0  0  0  0  0  0  0  0  0  0  0  0
    0.7931    2.5509   -0.7928 H   0  0  0  0  0  0  0  0  0  0  0  0
    1.7772    0.9614   -0.5970 H   0  0  0  0  0  0  0  0  0  0  0  0
   -1.2884    1.0610    2.1007 H   0  0  0  0  0  0  0  0  0  0  0  0
   -2.6030   -0.9147    1.1348 H   0  0  0  0  0  0  0  0  0  0  0  0
   -0.9851   -1.6556    1.5456 H   0  0  0  0  0  0  0  0  0  0  0  0
  1  2  3  0
  2  3  1  0
  3  4  1  0
  4  5  1  0
  5  6  1  0
  6  7  2  0
  7  8  1  0
  8  9  1  0
  6  3  1  0
  9  3  1  0
  1 10  1  0
  4 11  1  0
  4 12  1  0
  5 13  1  0
  5 14  1  0
  7 15  1  0
  8 16  1  0
  8 17  1  0
M  END
