
     RDKit          3D

 15 15  0  0  0  0  0  0  0  0999 V2000
    2.3211   -0.6627    1.1343 C   0  0  0  0  0  0  0  0  0  0  0  0
    1.6402    0.2132    0.6266 C   0  0  0  0  0  0  0  0  0  0  0  0
    0.8549    1.2451    0.0106 C   0  0  0  0  0  0  0  0  0  0  0  0
    1.2094    2.4429   -0.0879 O   0  0  0  0  0  0  0  0  0  0  0  0
   -0.4736    0.8643   -0.5501 C   0  0  0  0  0  0  0  0  0  0  0  0
   -0.2840   -0.1660   -1.6280 C   0  0  0  0  0  0  0  0  0  0  0  0
   -1.2826   -1.0279   -0.8993 C   0  0  0  0  0  0  0  0  0  0  0  0
   -1.8513   -2.0296   -1.3002 O   0  0  0  0  0  0  0  0  0  0  0  0
   -1.1984   -0.1678    0.2977 C   0  0  0  0  0  0  0  0  0  0  0  0
    2.9004   -1.3966    1.5787 H   0  0  0  0  0  0  0  0  0  0  0  0
   -1.1524    1.6792   -0.7900 H   0  0  0  0  0  0  0  0  0  0  0  0
    0.7140   -0.6873   -1.5977 H   0  0  0  0  0  0  0  0  0  0  0  0
   -0.5932    0.1497   -2.6288 H   0  0  0  0  0  0  0  0  0  0  0  0
   -2.1985    0.1208    0.6513 H   0  0  0  0  0  0  0  0  0  0  0  0
   -0.6060   -0.5773    1.1419 H   0  0  0  0  0  0  0  0  0  0  0  0
  1  2  3  0
  2  3  1  0
  3  4  2  0
  3  5  1  0
  5  6  1  0
  6  7  1  0
  7  8  2  0
  7  9  1  0
  9  5  1  0
  1 10  1  0
  5 11  1  0
  6 12  1  0
  6 13  1  0
  9 14  1  0
  9 15  1  0
M  END
