
     RDKit          3D

 19 20  0  0  0  0  0  0  0  0999 V2000
    3.0049    0.9545   -0.7381 C   0  0  0  0  0  0  0  0  0  0  0  0
    2.0691    0.6514   -0.0419 C   0  0  0  0  0  0  0  0  0  0  0  0
    0.9012    0.2671    0.7973 C   0  0  0  0  0  0  0  0  0  0  0  0
   -0.4563    0.4658    0.4026 C   0  0  0  0  0  0  0  0  0  0  0  0
   -0.5077    1.1766   -0.9575 C   0  0  0  0  0  0  0  0  0  0  0  0
   -1.6420   -0.4535    0.5198 C   0  0  0  0  0  0  0  0  0  0  0  0
   -0.8401   -1.2111   -0.5606 C   0  0  0  0  0  0  0  0  0  0  0  0
    0.2624   -0.9438    0.4266 C   0  0  0  0  0  0  0  0  0  0  0  0
   -0.0243   -1.7470    1.5639 O   0  0  0  0  0  0  0  0  0  0  0  0
    3.8366    1.2159   -1.3388 H   0  0  0  0  0  0  0  0  0  0  0  0
    1.1294    0.5593    1.8684 H   0  0  0  0  0  0  0  0  0  0  0  0
   -1.4818    1.1749   -1.4309 H   0  0  0  0  0  0  0  0  0  0  0  0
   -0.3186    2.2620   -0.6851 H   0  0  0  0  0  0  0  0  0  0  0  0
    0.3457    0.9209   -1.6090 H   0  0  0  0  0  0  0  0  0  0  0  0
   -2.5614    0.0168    0.1441 H   0  0  0  0  0  0  0  0  0  0  0  0
   -1.7860   -1.0199    1.4259 H   0  0  0  0  0  0  0  0  0  0  0  0
   -1.1047   -2.2691   -0.6592 H   0  0  0  0  0  0  0  0  0  0  0  0
   -0.8094   -0.7431   -1.5298 H   0  0  0  0  0  0  0  0  0  0  0  0
   -0.0170   -1.2780    2.4022 H   0  0  0  0  0  0  0  0  0  0  0  0
  1  2  3  0
  2  3  1  0
  3  4  1  0
  4  5  1  0
  4  6  1  0
  6  7  1  0
  7  8  1  0
  8  9  1  0
  8  3  1  0
  8  4  1  0
  1 10  1  0
  3 11  1  0
  5 12  1  0
  5 13  1  0
  5 14  1  0
  6 15  1  0
  6 16  1  0
  7 17  1  0
  7 18  1  0
  9 19  1  0
M  END
