
     RDKit          3D

 21 21  0  0  0  0  0  0  0  0999 V2000
    1.9891   -1.0182   -3.7179 C   0  0  0  0  0  0  0  0  0  0  0  0
    1.6762   -0.6660   -2.5538 C   0  0  0  0  0  0  0  0  0  0  0  0
    1.2935   -0.2730   -1.2114 C   0  0  0  0  0  0  0  0  0  0  0  0
    1.8122   -0.9876   -0.1359 O   0  0  0  0  0  0  0  0  0  0  0  0
    0.4588   -1.1981   -0.3570 C   0  0  0  0  0  0  0  0  0  0  0  0
   -0.5482   -0.4928    0.5142 C   0  0  0  0  0  0  0  0  0  0  0  0
   -1.4711    0.2693   -0.4135 C   0  0  0  0  0  0  0  0  0  0  0  0
    0.1324    0.4801    1.4450 C   0  0  0  0  0  0  0  0  0  0  0  0
   -0.8782    1.1867    2.3245 C   0  0  0  0  0  0  0  0  0  0  0  0
    2.2633   -1.3001   -4.6787 H   0  0  0  0  0  0  0  0  0  0  0  0
    1.2336    0.8219   -1.0241 H   0  0  0  0  0  0  0  0  0  0  0  0
    0.1864   -2.1741   -0.7562 H   0  0  0  0  0  0  0  0  0  0  0  0
   -1.1596   -1.2051    1.1145 H   0  0  0  0  0  0  0  0  0  0  0  0
   -2.3591    0.6633    0.0804 H   0  0  0  0  0  0  0  0  0  0  0  0
   -0.9224    1.1359   -0.8360 H   0  0  0  0  0  0  0  0  0  0  0  0
   -1.7518   -0.4292   -1.2443 H   0  0  0  0  0  0  0  0  0  0  0  0
    0.8347   -0.0378    2.1265 H   0  0  0  0  0  0  0  0  0  0  0  0
    0.6409    1.2696    0.8554 H   0  0  0  0  0  0  0  0  0  0  0  0
   -0.3840    1.6961    3.1809 H   0  0  0  0  0  0  0  0  0  0  0  0
   -1.5387    0.4071    2.8008 H   0  0  0  0  0  0  0  0  0  0  0  0
   -1.5082    1.8520    1.7283 H   0  0  0  0  0  0  0  0  0  0  0  0
  1  2  3  0
  2  3  1  0
  3  4  1  0
  4  5  1  0
  5  6  1  0
  6  7  1  0
  6  8  1  0
  8  9  1  0
  5  3  1  0
  1 10  1  0
  3 11  1  0
  5 12  1  0
  6 13  1  0
  7 14  1  0
  7 15  1  0
  7 16  1  0
  8 17  1  0
  8 18  1  0
  9 19  1  0
  9 20  1  0
  9 21  1  0
M  END
