
     RDKit          3D

 19 20  0  0  0  0  0  0  0  0999 V2000
    0.2418    2.7595    1.3895 C   0  0  0  0  0  0  0  0  0  0  0  0
   -0.1477    1.6413    1.0935 C   0  0  0  0  0  0  0  0  0  0  0  0
   -0.6086    0.3085    0.7354 C   0  0  0  0  0  0  0  0  0  0  0  0
    0.3054   -0.7800    1.3379 C   0  0  0  0  0  0  0  0  0  0  0  0
    0.5261   -1.7024    0.2789 O   0  0  0  0  0  0  0  0  0  0  0  0
   -0.6157   -1.5622   -0.4430 C   0  0  0  0  0  0  0  0  0  0  0  0
   -0.9712   -0.8702   -1.6149 C   0  0  0  0  0  0  0  0  0  0  0  0
   -0.3582   -0.0141   -0.6861 C   0  0  0  0  0  0  0  0  0  0  0  0
    1.1123    0.3349   -1.0163 C   0  0  0  0  0  0  0  0  0  0  0  0
    0.5593    3.7261    1.6454 H   0  0  0  0  0  0  0  0  0  0  0  0
   -1.6308    0.1752    1.0828 H   0  0  0  0  0  0  0  0  0  0  0  0
   -0.1527   -1.2534    2.2031 H   0  0  0  0  0  0  0  0  0  0  0  0
    1.3010   -0.3355    1.5417 H   0  0  0  0  0  0  0  0  0  0  0  0
   -1.4878   -1.8168    0.2364 H   0  0  0  0  0  0  0  0  0  0  0  0
   -0.4449   -1.1497   -2.5673 H   0  0  0  0  0  0  0  0  0  0  0  0
   -2.0575   -0.6936   -1.8589 H   0  0  0  0  0  0  0  0  0  0  0  0
    1.3718    1.3229   -0.6494 H   0  0  0  0  0  0  0  0  0  0  0  0
    1.2542    0.3132   -2.1162 H   0  0  0  0  0  0  0  0  0  0  0  0
    1.8031   -0.4037   -0.5924 H   0  0  0  0  0  0  0  0  0  0  0  0
  1  2  3  0
  2  3  1  0
  3  4  1  0
  4  5  1  0
  5  6  1  0
  6  7  1  0
  7  8  1  0
  8  9  1  0
  8  3  1  0
  8  6  1  0
  1 10  1  0
  3 11  1  0
  4 12  1  0
  4 13  1  0
  6 14  1  0
  7 15  1  0
  7 16  1  0
  9 17  1  0
  9 18  1  0
  9 19  1  0
M  END
