
     RDKit          3D

 17 16  0  0  0  0  0  0  0  0999 V2000
    2.8282   -0.5109    0.1274 C   0  0  0  0  0  0  0  0  0  0  0  0
    1.7366   -0.5810   -0.3808 C   0  0  0  0  0  0  0  0  0  0  0  0
    0.4202   -0.6582   -1.0178 C   0  0  0  0  0  0  0  0  0  0  0  0
   -0.5796    0.0024   -0.1091 C   0  0  0  0  0  0  0  0  0  0  0  0
   -0.6442   -0.6790    1.2435 C   0  0  0  0  0  0  0  0  0  0  0  0
   -0.1684    1.3899    0.0804 C   0  0  0  0  0  0  0  0  0  0  0  0
    0.1682    2.5549    0.2367 C   0  0  0  0  0  0  0  0  0  0  0  0
   -1.9113   -0.0787   -0.7211 C   0  0  0  0  0  0  0  0  0  0  0  0
   -2.0462   -0.3831   -1.8997 O   0  0  0  0  0  0  0  0  0  0  0  0
    3.7976   -0.4375    0.5763 H   0  0  0  0  0  0  0  0  0  0  0  0
    0.4540   -0.0658   -1.9567 H   0  0  0  0  0  0  0  0  0  0  0  0
    0.2150   -1.7273   -1.1947 H   0  0  0  0  0  0  0  0  0  0  0  0
   -1.5648   -0.3152    1.7515 H   0  0  0  0  0  0  0  0  0  0  0  0
   -0.6329   -1.7871    1.1600 H   0  0  0  0  0  0  0  0  0  0  0  0
    0.2564   -0.4209    1.8573 H   0  0  0  0  0  0  0  0  0  0  0  0
    0.4571    3.5650    0.3732 H   0  0  0  0  0  0  0  0  0  0  0  0
   -2.7860    0.1325   -0.1267 H   0  0  0  0  0  0  0  0  0  0  0  0
  1  2  3  0
  2  3  1  0
  3  4  1  0
  4  5  1  0
  4  6  1  0
  6  7  3  0
  4  8  1  0
  8  9  2  0
  1 10  1  0
  3 11  1  0
  3 12  1  0
  5 13  1  0
  5 14  1  0
  5 15  1  0
  7 16  1  0
  8 17  1  0
M  END
