
     RDKit          3D

 17 18  0  0  0  0  0  0  0  0999 V2000
    3.3961   -0.4640    0.5520 C   0  0  0  0  0  0  0  0  0  0  0  0
    2.2589   -0.2472    0.1955 C   0  0  0  0  0  0  0  0  0  0  0  0
    0.9089    0.0231   -0.2206 C   0  0  0  0  0  0  0  0  0  0  0  0
    0.2275   -0.7793   -1.0250 C   0  0  0  0  0  0  0  0  0  0  0  0
   -1.2738   -0.7023   -0.9008 C   0  0  0  0  0  0  0  0  0  0  0  0
   -1.5381   -0.5314    0.5865 C   0  0  0  0  0  0  0  0  0  0  0  0
   -1.3037    0.9176    0.1860 C   0  0  0  0  0  0  0  0  0  0  0  0
    0.1713    1.2510    0.2362 C   0  0  0  0  0  0  0  0  0  0  0  0
   -1.7172    0.5965   -1.0989 O   0  0  0  0  0  0  0  0  0  0  0  0
    4.3852   -0.6545    0.8814 H   0  0  0  0  0  0  0  0  0  0  0  0
    0.6866   -1.4540   -1.7325 H   0  0  0  0  0  0  0  0  0  0  0  0
   -1.8193   -1.5013   -1.3978 H   0  0  0  0  0  0  0  0  0  0  0  0
   -2.5467   -0.7712    0.9185 H   0  0  0  0  0  0  0  0  0  0  0  0
   -0.7065   -0.9135    1.2413 H   0  0  0  0  0  0  0  0  0  0  0  0
   -1.9679    1.5765    0.7518 H   0  0  0  0  0  0  0  0  0  0  0  0
    0.4391    1.5390    1.2570 H   0  0  0  0  0  0  0  0  0  0  0  0
    0.3996    2.1150   -0.4305 H   0  0  0  0  0  0  0  0  0  0  0  0
  1  2  3  0
  2  3  1  0
  3  4  2  0
  4  5  1  0
  5  6  1  0
  6  7  1  0
  7  8  1  0
  7  9  1  0
  8  3  1  0
  9  5  1  0
  1 10  1  0
  4 11  1  0
  5 12  1  0
  6 13  1  0
  6 14  1  0
  7 15  1  0
  8 16  1  0
  8 17  1  0
M  END
