
     RDKit          3D

 13 13  0  0  0  0  0  0  0  0999 V2000
    2.7815   -0.4820    0.2584 C   0  0  0  0  0  0  0  0  0  0  0  0
    1.6194   -0.2267    0.4023 C   0  0  0  0  0  0  0  0  0  0  0  0
    0.2172    0.0578    0.5687 C   0  0  0  0  0  0  0  0  0  0  0  0
   -0.7298   -0.8539   -0.2234 C   0  0  0  0  0  0  0  0  0  0  0  0
   -1.5875    0.3965   -0.3640 C   0  0  0  0  0  0  0  0  0  0  0  0
   -0.3321    1.1855   -0.2319 C   0  0  0  0  0  0  0  0  0  0  0  0
    0.0130    2.2794   -0.6379 O   0  0  0  0  0  0  0  0  0  0  0  0
    3.8070   -0.7176    0.1156 H   0  0  0  0  0  0  0  0  0  0  0  0
   -0.0354    0.1291    1.6458 H   0  0  0  0  0  0  0  0  0  0  0  0
   -0.2578   -1.1445   -1.1773 H   0  0  0  0  0  0  0  0  0  0  0  0
   -1.1575   -1.6578    0.3723 H   0  0  0  0  0  0  0  0  0  0  0  0
   -2.2055    0.5316    0.5679 H   0  0  0  0  0  0  0  0  0  0  0  0
   -2.1323    0.5026   -1.2965 H   0  0  0  0  0  0  0  0  0  0  0  0
  1  2  3  0
  2  3  1  0
  3  4  1  0
  4  5  1  0
  5  6  1  0
  6  7  2  0
  6  3  1  0
  1  8  1  0
  3  9  1  0
  4 10  1  0
  4 11  1  0
  5 12  1  0
  5 13  1  0
M  END
