
     RDKit          3D

 19 18  0  0  0  0  0  0  0  0999 V2000
    2.8218   -0.5763   -2.7200 C   0  0  0  0  0  0  0  0  0  0  0  0
    1.7616   -0.6021   -1.5839 C   0  0  0  0  0  0  0  0  0  0  0  0
    0.9681   -0.6214   -0.7031 C   0  0  0  0  0  0  0  0  0  0  0  0
    0.1694    0.4980   -0.4687 O   0  0  0  0  0  0  0  0  0  0  0  0
   -0.7585    0.1560    0.7413 C   0  0  0  0  0  0  0  0  0  0  0  0
   -1.8022   -0.5956    0.0477 C   0  0  0  0  0  0  0  0  0  0  0  0
    0.1347   -0.4385    1.7426 C   0  0  0  0  0  0  0  0  0  0  0  0
   -1.0503    1.3662    0.9726 C   0  0  0  0  0  0  0  0  0  0  0  0
   -1.4007    2.7597    1.2199 C   0  0  0  0  0  0  0  0  0  0  0  0
    3.6301   -0.5600   -3.5579 H   0  0  0  0  0  0  0  0  0  0  0  0
    0.7285   -1.6411   -0.3456 H   0  0  0  0  0  0  0  0  0  0  0  0
    1.9226   -0.2765    0.2124 H   0  0  0  0  0  0  0  0  0  0  0  0
   -2.6129   -1.0543    0.6371 H   0  0  0  0  0  0  0  0  0  0  0  0
   -2.4576    0.2350   -0.6006 H   0  0  0  0  0  0  0  0  0  0  0  0
   -1.5336   -1.3047   -0.8153 H   0  0  0  0  0  0  0  0  0  0  0  0
    1.1067    0.2400    1.8024 H   0  0  0  0  0  0  0  0  0  0  0  0
   -0.3614   -0.2841    2.7009 H   0  0  0  0  0  0  0  0  0  0  0  0
    0.4700   -1.4625    1.5724 H   0  0  0  0  0  0  0  0  0  0  0  0
   -1.7364    4.1624    1.4865 H   0  0  0  0  0  0  0  0  0  0  0  0
  1  2  3  0
  2  3  1  0
  3  4  1  0
  4  5  1  0
  5  6  1  0
  5  7  1  0
  5  8  1  0
  8  9  3  0
  1 10  1  0
  3 11  1  0
  3 12  1  0
  6 13  1  0
  6 14  1  0
  6 15  1  0
  7 16  1  0
  7 17  1  0
  7 18  1  0
  9 19  1  0
M  END
