
     RDKit          3D

 21 21  0  0  0  0  0  0  0  0999 V2000
   -2.6184    0.8426   -1.0517 C   0  0  0  0  0  0  0  0  0  0  0  0
   -1.8339    0.1246   -0.4456 C   0  0  0  0  0  0  0  0  0  0  0  0
   -0.8789   -0.7150    0.2814 C   0  0  0  0  0  0  0  0  0  0  0  0
   -1.1927   -2.2071    0.3426 C   0  0  0  0  0  0  0  0  0  0  0  0
   -0.2854   -0.0487    1.4904 C   0  0  0  0  0  0  0  0  0  0  0  0
    0.5209   -0.2943    0.2431 C   0  0  0  0  0  0  0  0  0  0  0  0
    0.9307    0.8801   -0.6092 C   0  0  0  0  0  0  0  0  0  0  0  0
    2.4201    1.1394   -0.4993 C   0  0  0  0  0  0  0  0  0  0  0  0
    0.6842    0.6397   -1.9779 O   0  0  0  0  0  0  0  0  0  0  0  0
   -3.2864    1.4780   -1.5724 H   0  0  0  0  0  0  0  0  0  0  0  0
   -0.4482   -2.7422   -0.2504 H   0  0  0  0  0  0  0  0  0  0  0  0
   -1.2544   -2.5736    1.3868 H   0  0  0  0  0  0  0  0  0  0  0  0
   -2.1956   -2.3860   -0.1416 H   0  0  0  0  0  0  0  0  0  0  0  0
   -0.5254    1.0099    1.6953 H   0  0  0  0  0  0  0  0  0  0  0  0
   -0.1388   -0.7038    2.3704 H   0  0  0  0  0  0  0  0  0  0  0  0
    1.3152   -1.0606    0.3606 H   0  0  0  0  0  0  0  0  0  0  0  0
    0.4151    1.7948   -0.2658 H   0  0  0  0  0  0  0  0  0  0  0  0
    2.6612    2.1881   -0.7485 H   0  0  0  0  0  0  0  0  0  0  0  0
    3.0065    0.4283   -1.1310 H   0  0  0  0  0  0  0  0  0  0  0  0
    2.7212    0.9244    0.5592 H   0  0  0  0  0  0  0  0  0  0  0  0
   -0.0171    1.2814   -2.2563 H   0  0  0  0  0  0  0  0  0  0  0  0
  1  2  3  0
  2  3  1  0
  3  4  1  0
  3  5  1  0
  5  6  1  0
  6  7  1  0
  7  8  1  0
  7  9  1  0
  6  3  1  0
  1 10  1  0
  4 11  1  0
  4 12  1  0
  4 13  1  0
  5 14  1  0
  5 15  1  0
  6 16  1  0
  7 17  1  0
  8 18  1  0
  8 19  1  0
  8 20  1  0
  9 21  1  0
M  END
