
     RDKit          3D

 21 21  0  0  0  0  0  0  0  0999 V2000
    2.6484    1.5240   -1.0996 C   0  0  0  0  0  0  0  0  0  0  0  0
    1.4836    1.2126   -1.1059 C   0  0  0  0  0  0  0  0  0  0  0  0
    0.0581    0.8204   -1.0902 C   0  0  0  0  0  0  0  0  0  0  0  0
   -0.2240   -0.0016   -2.1840 O   0  0  0  0  0  0  0  0  0  0  0  0
   -0.2569    0.1050    0.1942 C   0  0  0  0  0  0  0  0  0  0  0  0
   -0.0032    0.9528    1.4046 C   0  0  0  0  0  0  0  0  0  0  0  0
   -1.6471   -0.5225    0.1339 C   0  0  0  0  0  0  0  0  0  0  0  0
   -1.0539   -1.7259    0.8454 C   0  0  0  0  0  0  0  0  0  0  0  0
    0.3097   -1.2634    0.3467 C   0  0  0  0  0  0  0  0  0  0  0  0
    3.6840    1.7938   -1.1111 H   0  0  0  0  0  0  0  0  0  0  0  0
   -0.5897    1.7169   -1.1807 H   0  0  0  0  0  0  0  0  0  0  0  0
    0.3520    0.2013   -2.9684 H   0  0  0  0  0  0  0  0  0  0  0  0
   -0.4369    0.5307    2.3279 H   0  0  0  0  0  0  0  0  0  0  0  0
   -0.3320    1.9716    1.1889 H   0  0  0  0  0  0  0  0  0  0  0  0
    1.0976    0.9805    1.5638 H   0  0  0  0  0  0  0  0  0  0  0  0
   -1.8745   -0.7962   -0.9150 H   0  0  0  0  0  0  0  0  0  0  0  0
   -2.4224   -0.0064    0.6987 H   0  0  0  0  0  0  0  0  0  0  0  0
   -1.1632   -1.6082    1.9512 H   0  0  0  0  0  0  0  0  0  0  0  0
   -1.3175   -2.7013    0.4328 H   0  0  0  0  0  0  0  0  0  0  0  0
    1.0497   -1.4126    1.1505 H   0  0  0  0  0  0  0  0  0  0  0  0
    0.6380   -1.7717   -0.5837 H   0  0  0  0  0  0  0  0  0  0  0  0
  1  2  3  0
  2  3  1  0
  3  4  1  0
  3  5  1  0
  5  6  1  0
  5  7  1  0
  7  8  1  0
  8  9  1  0
  9  5  1  0
  1 10  1  0
  3 11  1  0
  4 12  1  0
  6 13  1  0
  6 14  1  0
  6 15  1  0
  7 16  1  0
  7 17  1  0
  8 18  1  0
  8 19  1  0
  9 20  1  0
  9 21  1  0
M  END
