
     RDKit          3D

 23 23  0  0  0  0  0  0  0  0999 V2000
    4.7120    0.5099    0.0075 C   0  0  0  0  0  0  0  0  0  0  0  0
    3.5983    0.0496   -0.1473 C   0  0  0  0  0  0  0  0  0  0  0  0
    2.2697   -0.5108   -0.3094 C   0  0  0  0  0  0  0  0  0  0  0  0
    1.2031    0.4374    0.2142 C   0  0  0  0  0  0  0  0  0  0  0  0
   -0.1483   -0.1983    0.0189 C   0  0  0  0  0  0  0  0  0  0  0  0
   -1.2991    0.6633    0.5087 C   0  0  0  0  0  0  0  0  0  0  0  0
   -2.3496   -0.0121    1.3350 C   0  0  0  0  0  0  0  0  0  0  0  0
   -1.1297    0.3390   -0.9320 C   0  0  0  0  0  0  0  0  0  0  0  0
   -2.1732   -0.5804   -1.5231 C   0  0  0  0  0  0  0  0  0  0  0  0
    5.6834    0.9041    0.1429 H   0  0  0  0  0  0  0  0  0  0  0  0
    2.1754   -1.4959    0.1833 H   0  0  0  0  0  0  0  0  0  0  0  0
    2.1083   -0.6696   -1.4069 H   0  0  0  0  0  0  0  0  0  0  0  0
    1.3145    1.4169   -0.2431 H   0  0  0  0  0  0  0  0  0  0  0  0
    1.4052    0.5650    1.3182 H   0  0  0  0  0  0  0  0  0  0  0  0
   -0.1987   -1.2856    0.2102 H   0  0  0  0  0  0  0  0  0  0  0  0
   -1.0968    1.7187    0.7750 H   0  0  0  0  0  0  0  0  0  0  0  0
   -3.3235   -0.0956    0.7726 H   0  0  0  0  0  0  0  0  0  0  0  0
   -2.0458   -1.0565    1.5519 H   0  0  0  0  0  0  0  0  0  0  0  0
   -2.4935    0.5374    2.2830 H   0  0  0  0  0  0  0  0  0  0  0  0
   -0.8242    1.1618   -1.6443 H   0  0  0  0  0  0  0  0  0  0  0  0
   -1.8392   -1.0261   -2.4887 H   0  0  0  0  0  0  0  0  0  0  0  0
   -2.4325   -1.3756   -0.8009 H   0  0  0  0  0  0  0  0  0  0  0  0
   -3.1157    0.0033   -1.7376 H   0  0  0  0  0  0  0  0  0  0  0  0
  1  2  3  0
  2  3  1  0
  3  4  1  0
  4  5  1  0
  5  6  1  0
  6  7  1  0
  6  8  1  0
  8  9  1  0
  8  5  1  0
  1 10  1  0
  3 11  1  0
  3 12  1  0
  4 13  1  0
  4 14  1  0
  5 15  1  0
  6 16  1  0
  7 17  1  0
  7 18  1  0
  7 19  1  0
  8 20  1  0
  9 21  1  0
  9 22  1  0
  9 23  1  0
M  END
