
     RDKit          3D

 19 20  0  0  0  0  0  0  0  0999 V2000
   -1.0893    2.9847    0.9055 C   0  0  0  0  0  0  0  0  0  0  0  0
   -0.8836    1.9659    0.2942 C   0  0  0  0  0  0  0  0  0  0  0  0
   -0.6148    0.7260   -0.4735 C   0  0  0  0  0  0  0  0  0  0  0  0
   -1.1300   -0.4667    0.2638 C   0  0  0  0  0  0  0  0  0  0  0  0
   -0.0766   -1.5205    0.0994 C   0  0  0  0  0  0  0  0  0  0  0  0
   -0.5272   -2.5614   -0.7150 O   0  0  0  0  0  0  0  0  0  0  0  0
    1.1438   -0.8458   -0.4714 C   0  0  0  0  0  0  0  0  0  0  0  0
    1.7597    0.1831    0.4583 C   0  0  0  0  0  0  0  0  0  0  0  0
    0.8578    0.5959   -0.6308 C   0  0  0  0  0  0  0  0  0  0  0  0
   -1.2731    3.8768    1.4467 H   0  0  0  0  0  0  0  0  0  0  0  0
   -1.0843    0.7743   -1.4814 H   0  0  0  0  0  0  0  0  0  0  0  0
   -2.1052   -0.7835   -0.1942 H   0  0  0  0  0  0  0  0  0  0  0  0
   -1.3680   -0.2463    1.3303 H   0  0  0  0  0  0  0  0  0  0  0  0
    0.1945   -1.8838    1.1202 H   0  0  0  0  0  0  0  0  0  0  0  0
   -1.1565   -3.0894   -0.1472 H   0  0  0  0  0  0  0  0  0  0  0  0
    1.7862   -1.3863   -1.1876 H   0  0  0  0  0  0  0  0  0  0  0  0
    1.4444    0.2024    1.5236 H   0  0  0  0  0  0  0  0  0  0  0  0
    2.8341    0.3274    0.3008 H   0  0  0  0  0  0  0  0  0  0  0  0
    1.2880    1.1475   -1.4959 H   0  0  0  0  0  0  0  0  0  0  0  0
  1  2  3  0
  2  3  1  0
  3  4  1  0
  4  5  1  0
  5  6  1  0
  5  7  1  0
  7  8  1  0
  8  9  1  0
  9  3  1  0
  9  7  1  0
  1 10  1  0
  3 11  1  0
  4 12  1  0
  4 13  1  0
  5 14  1  0
  6 15  1  0
  7 16  1  0
  8 17  1  0
  8 18  1  0
  9 19  1  0
M  END
