
     RDKit          3D

 21 21  0  0  0  0  0  0  0  0999 V2000
    3.6693    0.5565    0.8868 C   0  0  0  0  0  0  0  0  0  0  0  0
    2.7459    0.1551    0.2403 C   0  0  0  0  0  0  0  0  0  0  0  0
    1.6033   -0.3361   -0.5286 C   0  0  0  0  0  0  0  0  0  0  0  0
    0.3740   -0.2727    0.3087 C   0  0  0  0  0  0  0  0  0  0  0  0
   -0.8829   -0.7773   -0.4368 C   0  0  0  0  0  0  0  0  0  0  0  0
   -1.7081   -1.7717    0.3058 C   0  0  0  0  0  0  0  0  0  0  0  0
   -0.7421    0.6339    0.0766 C   0  0  0  0  0  0  0  0  0  0  0  0
   -0.6729    1.7728   -0.8842 C   0  0  0  0  0  0  0  0  0  0  0  0
   -1.5944    0.8826    1.1767 O   0  0  0  0  0  0  0  0  0  0  0  0
    4.4882    0.9011    1.4754 H   0  0  0  0  0  0  0  0  0  0  0  0
    1.7492   -1.4199   -0.8153 H   0  0  0  0  0  0  0  0  0  0  0  0
    1.5461    0.2150   -1.4657 H   0  0  0  0  0  0  0  0  0  0  0  0
    0.5113   -0.6714    1.3501 H   0  0  0  0  0  0  0  0  0  0  0  0
   -0.8374   -0.8652   -1.5238 H   0  0  0  0  0  0  0  0  0  0  0  0
   -1.0547   -2.3608    1.0082 H   0  0  0  0  0  0  0  0  0  0  0  0
   -2.5738   -1.3410    0.8325 H   0  0  0  0  0  0  0  0  0  0  0  0
   -2.1108   -2.5252   -0.4055 H   0  0  0  0  0  0  0  0  0  0  0  0
   -0.7275    2.7219   -0.2830 H   0  0  0  0  0  0  0  0  0  0  0  0
   -1.5306    1.7563   -1.6126 H   0  0  0  0  0  0  0  0  0  0  0  0
    0.2871    1.8179   -1.4198 H   0  0  0  0  0  0  0  0  0  0  0  0
   -2.5391    0.9283    0.8724 H   0  0  0  0  0  0  0  0  0  0  0  0
  1  2  3  0
  2  3  1  0
  3  4  1  0
  4  5  1  0
  5  6  1  0
  5  7  1  0
  7  8  1  0
  7  9  1  0
  7  4  1  0
  1 10  1  0
  3 11  1  0
  3 12  1  0
  4 13  1  0
  5 14  1  0
  6 15  1  0
  6 16  1  0
  6 17  1  0
  8 18  1  0
  8 19  1  0
  8 20  1  0
  9 21  1  0
M  END
