
     RDKit          3D

 17 17  0  0  0  0  0  0  0  0999 V2000
   -2.4835   -1.5265   -1.1564 C   0  0  0  0  0  0  0  0  0  0  0  0
   -1.8591   -0.6573   -0.5988 C   0  0  0  0  0  0  0  0  0  0  0  0
   -1.1131    0.4255    0.0853 C   0  0  0  0  0  0  0  0  0  0  0  0
   -1.0966    1.5038   -0.7674 O   0  0  0  0  0  0  0  0  0  0  0  0
    0.3253   -0.0134    0.3503 C   0  0  0  0  0  0  0  0  0  0  0  0
    1.2537   -0.1557   -0.8337 C   0  0  0  0  0  0  0  0  0  0  0  0
    2.5512   -0.2371   -0.3585 O   0  0  0  0  0  0  0  0  0  0  0  0
    0.8679    0.1353    1.7050 C   0  0  0  0  0  0  0  0  0  0  0  0
    0.4378   -1.1418    1.2352 O   0  0  0  0  0  0  0  0  0  0  0  0
   -3.0469   -2.2846   -1.6368 H   0  0  0  0  0  0  0  0  0  0  0  0
   -1.5706    0.6159    1.0578 H   0  0  0  0  0  0  0  0  0  0  0  0
   -1.4443    2.3156   -0.3185 H   0  0  0  0  0  0  0  0  0  0  0  0
    1.0078   -1.1163   -1.3273 H   0  0  0  0  0  0  0  0  0  0  0  0
    1.1054    0.6454   -1.5702 H   0  0  0  0  0  0  0  0  0  0  0  0
    2.9444    0.6801   -0.2274 H   0  0  0  0  0  0  0  0  0  0  0  0
    0.1865    0.5217    2.4886 H   0  0  0  0  0  0  0  0  0  0  0  0
    1.9341    0.2894    1.8729 H   0  0  0  0  0  0  0  0  0  0  0  0
  1  2  3  0
  2  3  1  0
  3  4  1  0
  3  5  1  0
  5  6  1  0
  6  7  1  0
  5  8  1  0
  8  9  1  0
  9  5  1  0
  1 10  1  0
  3 11  1  0
  4 12  1  0
  6 13  1  0
  6 14  1  0
  7 15  1  0
  8 16  1  0
  8 17  1  0
M  END
