
     RDKit          3D

 14 15  0  0  0  0  0  0  0  0999 V2000
    2.9594    0.7691   -0.6719 C   0  0  0  0  0  0  0  0  0  0  0  0
    1.9082    0.3986   -0.2625 C   0  0  0  0  0  0  0  0  0  0  0  0
    0.6322   -0.0500    0.2422 C   0  0  0  0  0  0  0  0  0  0  0  0
    0.1094   -1.1021   -0.5463 O   0  0  0  0  0  0  0  0  0  0  0  0
   -1.1208   -1.2961    0.1246 C   0  0  0  0  0  0  0  0  0  0  0  0
   -1.7011    0.1008    0.0549 C   0  0  0  0  0  0  0  0  0  0  0  0
   -1.2952    0.9433   -0.9730 O   0  0  0  0  0  0  0  0  0  0  0  0
   -0.4631    0.9640    0.1441 C   0  0  0  0  0  0  0  0  0  0  0  0
    3.9082    1.1086   -1.0360 H   0  0  0  0  0  0  0  0  0  0  0  0
    0.7294   -0.4744    1.2670 H   0  0  0  0  0  0  0  0  0  0  0  0
   -1.7392   -2.0568   -0.3457 H   0  0  0  0  0  0  0  0  0  0  0  0
   -0.8539   -1.4949    1.1805 H   0  0  0  0  0  0  0  0  0  0  0  0
   -2.5935    0.3537    0.6430 H   0  0  0  0  0  0  0  0  0  0  0  0
   -0.4800    1.8363    0.8211 H   0  0  0  0  0  0  0  0  0  0  0  0
  1  2  3  0
  2  3  1  0
  3  4  1  0
  4  5  1  0
  5  6  1  0
  6  7  1  0
  7  8  1  0
  8  3  1  0
  8  6  1  0
  1  9  1  0
  3 10  1  0
  5 11  1  0
  5 12  1  0
  6 13  1  0
  8 14  1  0
M  END
