
     RDKit          3D

 19 20  0  0  0  0  0  0  0  0999 V2000
   -0.8067   -2.6493   -0.5804 C   0  0  0  0  0  0  0  0  0  0  0  0
   -0.5788   -1.2965   -0.4944 C   0  0  0  0  0  0  0  0  0  0  0  0
   -0.3394    0.0545   -0.4080 C   0  0  0  0  0  0  0  0  0  0  0  0
   -1.2539    0.7724    0.5064 C   0  0  0  0  0  0  0  0  0  0  0  0
   -0.5216    0.5726    1.8779 C   0  0  0  0  0  0  0  0  0  0  0  0
    0.8741    0.5237    1.4772 C   0  0  0  0  0  0  0  0  0  0  0  0
    1.0573    0.2698    0.2633 C   0  0  0  0  0  0  0  0  0  0  0  0
    1.5556    0.0133   -1.1375 C   0  0  0  0  0  0  0  0  0  0  0  0
    0.2448    0.5952   -1.6630 C   0  0  0  0  0  0  0  0  0  0  0  0
   -1.0092   -3.8645   -0.6362 H   0  0  0  0  0  0  0  0  0  0  0  0
   -2.1791    0.1243    0.6512 H   0  0  0  0  0  0  0  0  0  0  0  0
   -1.4571    1.7915    0.3470 H   0  0  0  0  0  0  0  0  0  0  0  0
   -0.6565    1.5283    2.4618 H   0  0  0  0  0  0  0  0  0  0  0  0
   -0.8744   -0.2131    2.4641 H   0  0  0  0  0  0  0  0  0  0  0  0
    1.7316    0.6700    2.1922 H   0  0  0  0  0  0  0  0  0  0  0  0
    2.3998    0.6761   -1.4313 H   0  0  0  0  0  0  0  0  0  0  0  0
    1.7074   -1.0231   -1.3516 H   0  0  0  0  0  0  0  0  0  0  0  0
    0.1795    1.5707   -1.9926 H   0  0  0  0  0  0  0  0  0  0  0  0
   -0.0732   -0.1160   -2.5462 H   0  0  0  0  0  0  0  0  0  0  0  0
  1  2  3  0
  2  3  1  0
  3  4  1  0
  4  5  1  0
  5  6  1  0
  6  7  2  0
  7  8  1  0
  8  9  1  0
  7  3  1  0
  9  3  1  0
  1 10  1  0
  4 11  1  0
  4 12  1  0
  5 13  1  0
  5 14  1  0
  6 15  1  0
  8 16  1  0
  8 17  1  0
  9 18  1  0
  9 19  1  0
M  END
