
     RDKit          3D

 25 24  0  0  0  0  0  0  0  0999 V2000
   -2.0548    0.5058   -2.6528 C   0  0  0  0  0  0  0  0  0  0  0  0
   -1.3306    0.5395   -1.7042 C   0  0  0  0  0  0  0  0  0  0  0  0
   -0.4184    0.5629   -0.4833 C   0  0  0  0  0  0  0  0  0  0  0  0
   -1.2570    1.2209    0.5553 C   0  0  0  0  0  0  0  0  0  0  0  0
   -0.6881    1.4467    1.8986 C   0  0  0  0  0  0  0  0  0  0  0  0
   -0.0854   -0.8701   -0.2704 C   0  0  0  0  0  0  0  0  0  0  0  0
    0.5950   -1.4389   -1.5463 C   0  0  0  0  0  0  0  0  0  0  0  0
    0.8588   -1.0790    0.8911 C   0  0  0  0  0  0  0  0  0  0  0  0
    2.1689   -0.3877    0.7351 C   0  0  0  0  0  0  0  0  0  0  0  0
   -2.7217    0.4914   -3.5101 H   0  0  0  0  0  0  0  0  0  0  0  0
    0.4403    1.1323   -0.8302 H   0  0  0  0  0  0  0  0  0  0  0  0
   -2.2382    0.6931    0.6270 H   0  0  0  0  0  0  0  0  0  0  0  0
   -1.5416    2.2302    0.1182 H   0  0  0  0  0  0  0  0  0  0  0  0
   -1.0820    2.4635    2.2555 H   0  0  0  0  0  0  0  0  0  0  0  0
   -1.1236    0.7664    2.6822 H   0  0  0  0  0  0  0  0  0  0  0  0
    0.4030    1.5651    1.9653 H   0  0  0  0  0  0  0  0  0  0  0  0
   -1.0125   -1.4579   -0.1519 H   0  0  0  0  0  0  0  0  0  0  0  0
   -0.2353   -1.6687   -2.2559 H   0  0  0  0  0  0  0  0  0  0  0  0
    1.3376   -0.7478   -1.9390 H   0  0  0  0  0  0  0  0  0  0  0  0
    1.0032   -2.4217   -1.2181 H   0  0  0  0  0  0  0  0  0  0  0  0
    1.0969   -2.1892    0.9023 H   0  0  0  0  0  0  0  0  0  0  0  0
    0.3928   -0.7783    1.8390 H   0  0  0  0  0  0  0  0  0  0  0  0
    2.3443    0.2636    1.6132 H   0  0  0  0  0  0  0  0  0  0  0  0
    3.0315   -1.1099    0.6370 H   0  0  0  0  0  0  0  0  0  0  0  0
    2.1169    0.2677   -0.1577 H   0  0  0  0  0  0  0  0  0  0  0  0
  1  2  3  0
  2  3  1  0
  3  4  1  0
  4  5  1  0
  3  6  1  0
  6  7  1  0
  6  8  1  0
  8  9  1  0
  1 10  1  0
  3 11  1  0
  4 12  1  0
  4 13  1  0
  5 14  1  0
  5 15  1  0
  5 16  1  0
  6 17  1  0
  7 18  1  0
  7 19  1  0
  7 20  1  0
  8 21  1  0
  8 22  1  0
  9 23  1  0
  9 24  1  0
  9 25  1  0
M  END
