
     RDKit          3D

 17 16  0  0  0  0  0  0  0  0999 V2000
    4.4440    2.0123    1.0215 C   0  0  0  0  0  0  0  0  0  0  0  0
    2.8625    0.6324    0.4437 C   0  0  0  0  0  0  0  0  0  0  0  0
    2.2001    0.0550    0.1907 C   0  0  0  0  0  0  0  0  0  0  0  0
    1.3755   -0.6601   -0.1065 C   0  0  0  0  0  0  0  0  0  0  0  0
    0.0859   -1.8104   -0.5891 C   0  0  0  0  0  0  0  0  0  0  0  0
   -1.0223   -1.1034   -0.0055 C   0  0  0  0  0  0  0  0  0  0  0  0
   -1.3996    0.2586   -0.5363 C   0  0  0  0  0  0  0  0  0  0  0  0
   -2.6202    0.9303    0.1547 C   0  0  0  0  0  0  0  0  0  0  0  0
   -0.8189    0.8105   -1.4006 O   0  0  0  0  0  0  0  0  0  0  0  0
    5.3058    2.7796    1.3485 H   0  0  0  0  0  0  0  0  0  0  0  0
    0.6712   -2.0957   -1.2770 H   0  0  0  0  0  0  0  0  0  0  0  0
    0.4647   -2.4784    0.4680 H   0  0  0  0  0  0  0  0  0  0  0  0
   -0.8695   -0.7972    1.1506 H   0  0  0  0  0  0  0  0  0  0  0  0
   -1.9129   -1.7306    0.0950 H   0  0  0  0  0  0  0  0  0  0  0  0
   -3.2562    1.2806   -0.8022 H   0  0  0  0  0  0  0  0  0  0  0  0
   -2.2822    1.7352    0.7754 H   0  0  0  0  0  0  0  0  0  0  0  0
   -3.2279    0.1811    0.6824 H   0  0  0  0  0  0  0  0  0  0  0  0
  1  2  3  0
  2  3  1  0
  3  4  3  0
  4  5  1  0
  5  6  1  0
  6  7  1  0
  7  8  1  0
  7  9  2  0
  1 10  1  0
  5 11  1  0
  5 12  1  0
  6 13  1  0
  6 14  1  0
  8 15  1  0
  8 16  1  0
  8 17  1  0
M  END
