
     RDKit          3D

 15 15  0  0  0  0  0  0  0  0999 V2000
    2.7770    0.5067    0.3480 C   0  0  0  0  0  0  0  0  0  0  0  0
    1.8574    0.0409   -0.2823 C   0  0  0  0  0  0  0  0  0  0  0  0
    0.7577   -0.5279   -1.0284 C   0  0  0  0  0  0  0  0  0  0  0  0
   -0.0394   -1.4694   -0.1538 C   0  0  0  0  0  0  0  0  0  0  0  0
   -1.2916   -0.8798   -0.1457 O   0  0  0  0  0  0  0  0  0  0  0  0
   -0.9757    0.4747   -0.2250 C   0  0  0  0  0  0  0  0  0  0  0  0
   -2.1838    1.2870   -0.3472 C   0  0  0  0  0  0  0  0  0  0  0  0
   -2.1561    2.5005   -0.4319 O   0  0  0  0  0  0  0  0  0  0  0  0
   -0.1426    0.5146   -1.3296 O   0  0  0  0  0  0  0  0  0  0  0  0
    3.5687    0.9283    0.8944 H   0  0  0  0  0  0  0  0  0  0  0  0
    1.1273   -1.0135   -1.9526 H   0  0  0  0  0  0  0  0  0  0  0  0
   -0.0457   -2.5079   -0.5282 H   0  0  0  0  0  0  0  0  0  0  0  0
    0.3372   -1.4570    0.9058 H   0  0  0  0  0  0  0  0  0  0  0  0
   -0.4384    0.7975    0.7032 H   0  0  0  0  0  0  0  0  0  0  0  0
   -3.1519    0.8052   -0.3648 H   0  0  0  0  0  0  0  0  0  0  0  0
  1  2  3  0
  2  3  1  0
  3  4  1  0
  4  5  1  0
  5  6  1  0
  6  7  1  0
  7  8  2  0
  6  9  1  0
  9  3  1  0
  1 10  1  0
  3 11  1  0
  4 12  1  0
  4 13  1  0
  6 14  1  0
  7 15  1  0
M  END
