
     RDKit          3D

 19 19  0  0  0  0  0  0  0  0999 V2000
    3.1733    2.1113   -1.2141 C   0  0  0  0  0  0  0  0  0  0  0  0
    2.0342    0.8288   -0.6974 C   0  0  0  0  0  0  0  0  0  0  0  0
    1.3306    0.0270   -0.3685 C   0  0  0  0  0  0  0  0  0  0  0  0
    0.2152    0.5929    0.5784 C   0  0  0  0  0  0  0  0  0  0  0  0
   -0.7235   -0.5359    0.7877 C   0  0  0  0  0  0  0  0  0  0  0  0
   -1.3844   -0.5416    2.1450 C   0  0  0  0  0  0  0  0  0  0  0  0
   -1.0753   -1.2579   -0.2800 C   0  0  0  0  0  0  0  0  0  0  0  0
   -0.5186   -0.8191   -1.5578 C   0  0  0  0  0  0  0  0  0  0  0  0
    0.3908    0.2102   -1.6808 O   0  0  0  0  0  0  0  0  0  0  0  0
    3.8473    2.8783   -1.5197 H   0  0  0  0  0  0  0  0  0  0  0  0
    1.4205   -1.0524   -0.5339 H   0  0  0  0  0  0  0  0  0  0  0  0
   -0.3564    1.3895   -0.0452 H   0  0  0  0  0  0  0  0  0  0  0  0
    0.6400    1.0540    1.4623 H   0  0  0  0  0  0  0  0  0  0  0  0
   -2.4592   -0.1151    1.8874 H   0  0  0  0  0  0  0  0  0  0  0  0
   -1.5509   -1.5144    2.5622 H   0  0  0  0  0  0  0  0  0  0  0  0
   -0.9932    0.1741    2.8838 H   0  0  0  0  0  0  0  0  0  0  0  0
   -1.6761   -2.0812   -0.1521 H   0  0  0  0  0  0  0  0  0  0  0  0
   -1.5949   -0.0284   -1.7901 H   0  0  0  0  0  0  0  0  0  0  0  0
   -0.7194   -1.3199   -2.4673 H   0  0  0  0  0  0  0  0  0  0  0  0
  1  2  3  0
  2  3  1  0
  3  4  1  0
  4  5  1  0
  5  6  1  0
  5  7  2  0
  7  8  1  0
  8  9  1  0
  9  3  1  0
  1 10  1  0
  3 11  1  0
  4 12  1  0
  4 13  1  0
  6 14  1  0
  6 15  1  0
  6 16  1  0
  7 17  1  0
  8 18  1  0
  8 19  1  0
M  END
