
     RDKit          3D

 15 14  0  0  0  0  0  0  0  0999 V2000
   -0.9776   -2.2472    1.6712 C   0  0  0  0  0  0  0  0  0  0  0  0
   -0.8197   -1.6476    0.6207 C   0  0  0  0  0  0  0  0  0  0  0  0
   -0.6160   -0.9242   -0.6109 C   0  0  0  0  0  0  0  0  0  0  0  0
    0.2237    0.3340   -0.5004 C   0  0  0  0  0  0  0  0  0  0  0  0
    1.6050    0.0203   -0.0448 C   0  0  0  0  0  0  0  0  0  0  0  0
    2.7057   -0.2253    0.3209 C   0  0  0  0  0  0  0  0  0  0  0  0
   -0.3644    1.2581    0.3577 O   0  0  0  0  0  0  0  0  0  0  0  0
   -0.8619    2.4377   -0.1436 C   0  0  0  0  0  0  0  0  0  0  0  0
   -0.7358    2.6149   -1.4146 O   0  0  0  0  0  0  0  0  0  0  0  0
   -1.1033   -2.7855    2.5868 H   0  0  0  0  0  0  0  0  0  0  0  0
   -1.6245   -0.6630   -1.0559 H   0  0  0  0  0  0  0  0  0  0  0  0
   -0.1387   -1.6020   -1.3795 H   0  0  0  0  0  0  0  0  0  0  0  0
    0.3109    0.6964   -1.5521 H   0  0  0  0  0  0  0  0  0  0  0  0
    3.7281   -0.4424    0.6509 H   0  0  0  0  0  0  0  0  0  0  0  0
   -1.3314    3.1758    0.4935 H   0  0  0  0  0  0  0  0  0  0  0  0
  1  2  3  0
  2  3  1  0
  3  4  1  0
  4  5  1  0
  5  6  3  0
  4  7  1  0
  7  8  1  0
  8  9  2  0
  1 10  1  0
  3 11  1  0
  3 12  1  0
  4 13  1  0
  6 14  1  0
  8 15  1  0
M  END
