
     RDKit          3D

 18 18  0  0  0  0  0  0  0  0999 V2000
    1.8745    2.3802    0.2625 C   0  0  0  0  0  0  0  0  0  0  0  0
    0.8604    1.4997   -0.0540 C   0  0  0  0  0  0  0  0  0  0  0  0
   -0.2730    0.4812   -0.4230 C   0  0  0  0  0  0  0  0  0  0  0  0
   -1.1236    0.9675   -1.4229 C   0  0  0  0  0  0  0  0  0  0  0  0
   -0.2409   -0.6442    0.4394 C   0  0  0  0  0  0  0  0  0  0  0  0
    1.0097   -1.5727    0.4715 C   0  0  0  0  0  0  0  0  0  0  0  0
   -1.2906   -0.9579    1.4836 C   0  0  0  0  0  0  0  0  0  0  0  0
   -1.3720   -1.5071    0.2404 O   0  0  0  0  0  0  0  0  0  0  0  0
    2.7497    3.1281    0.5151 H   0  0  0  0  0  0  0  0  0  0  0  0
    0.6792   -0.0371   -1.3049 H   0  0  0  0  0  0  0  0  0  0  0  0
   -2.1003    0.5020   -1.5157 H   0  0  0  0  0  0  0  0  0  0  0  0
   -1.1461    2.0917   -1.5788 H   0  0  0  0  0  0  0  0  0  0  0  0
   -0.7002    0.6235   -2.5259 H   0  0  0  0  0  0  0  0  0  0  0  0
    1.7773   -0.9995   -0.1781 H   0  0  0  0  0  0  0  0  0  0  0  0
    0.7275   -2.5486    0.0306 H   0  0  0  0  0  0  0  0  0  0  0  0
    1.4003   -1.7131    1.4592 H   0  0  0  0  0  0  0  0  0  0  0  0
   -0.8032   -1.5060    2.3570 H   0  0  0  0  0  0  0  0  0  0  0  0
   -2.0287   -0.1877    1.7440 H   0  0  0  0  0  0  0  0  0  0  0  0
  1  2  3  0
  2  3  1  0
  3  4  1  0
  3  5  1  0
  5  6  1  0
  5  7  1  0
  7  8  1  0
  8  5  1  0
  1  9  1  0
  3 10  1  0
  4 11  1  0
  4 12  1  0
  4 13  1  0
  6 14  1  0
  6 15  1  0
  6 16  1  0
  7 17  1  0
  7 18  1  0
M  END
