
     RDKit          3D

 19 19  0  0  0  0  0  0  0  0999 V2000
    3.6689   -0.4620   -0.3113 C   0  0  0  0  0  0  0  0  0  0  0  0
    2.4671   -0.3719   -0.3263 C   0  0  0  0  0  0  0  0  0  0  0  0
    1.0217   -0.2614   -0.3256 C   0  0  0  0  0  0  0  0  0  0  0  0
    0.4493    0.8821   -0.5974 C   0  0  0  0  0  0  0  0  0  0  0  0
   -1.0030    1.1015   -0.6236 C   0  0  0  0  0  0  0  0  0  0  0  0
   -1.2323    2.3682   -0.0376 O   0  0  0  0  0  0  0  0  0  0  0  0
   -1.8047    0.0318    0.0237 C   0  0  0  0  0  0  0  0  0  0  0  0
   -0.9738   -0.9285    0.8468 C   0  0  0  0  0  0  0  0  0  0  0  0
    0.1571   -1.4301   -0.0199 C   0  0  0  0  0  0  0  0  0  0  0  0
    4.7410   -0.5240   -0.3005 H   0  0  0  0  0  0  0  0  0  0  0  0
    1.0801    1.7534   -0.8252 H   0  0  0  0  0  0  0  0  0  0  0  0
   -1.3189    1.1842   -1.6986 H   0  0  0  0  0  0  0  0  0  0  0  0
   -0.6312    2.9886   -0.5525 H   0  0  0  0  0  0  0  0  0  0  0  0
   -2.5813    0.4416    0.7023 H   0  0  0  0  0  0  0  0  0  0  0  0
   -2.3542   -0.5993   -0.7228 H   0  0  0  0  0  0  0  0  0  0  0  0
   -1.6413   -1.7356    1.1907 H   0  0  0  0  0  0  0  0  0  0  0  0
   -0.5052   -0.3756    1.7000 H   0  0  0  0  0  0  0  0  0  0  0  0
    0.7390   -2.2361    0.4712 H   0  0  0  0  0  0  0  0  0  0  0  0
   -0.2783   -1.8270   -0.9570 H   0  0  0  0  0  0  0  0  0  0  0  0
  1  2  3  0
  2  3  1  0
  3  4  2  0
  4  5  1  0
  5  6  1  0
  5  7  1  0
  7  8  1  0
  8  9  1  0
  9  3  1  0
  1 10  1  0
  4 11  1  0
  5 12  1  0
  6 13  1  0
  7 14  1  0
  7 15  1  0
  8 16  1  0
  8 17  1  0
  9 18  1  0
  9 19  1  0
M  END
