
     RDKit          3D

 19 18  0  0  0  0  0  0  0  0999 V2000
    0.8845    3.5859   -0.1741 C   0  0  0  0  0  0  0  0  0  0  0  0
    0.6127    2.7997   -1.0555 C   0  0  0  0  0  0  0  0  0  0  0  0
    0.3474    1.9810   -1.9878 C   0  0  0  0  0  0  0  0  0  0  0  0
    0.4709    0.5422   -1.6822 C   0  0  0  0  0  0  0  0  0  0  0  0
    0.1290   -0.0122   -0.5770 C   0  0  0  0  0  0  0  0  0  0  0  0
   -0.2429   -0.5736    0.5813 C   0  0  0  0  0  0  0  0  0  0  0  0
   -0.6408   -1.2183    1.9071 C   0  0  0  0  0  0  0  0  0  0  0  0
   -0.9642   -2.6958    1.4155 C   0  0  0  0  0  0  0  0  0  0  0  0
    0.5204   -1.3619    2.6753 O   0  0  0  0  0  0  0  0  0  0  0  0
    1.2242    4.5272    0.8550 H   0  0  0  0  0  0  0  0  0  0  0  0
   -0.2914    2.2992   -2.8395 H   0  0  0  0  0  0  0  0  0  0  0  0
    1.4446    2.0913   -2.6803 H   0  0  0  0  0  0  0  0  0  0  0  0
   -0.6089    0.2119   -2.4439 H   0  0  0  0  0  0  0  0  0  0  0  0
    1.1376   -0.0505   -2.3990 H   0  0  0  0  0  0  0  0  0  0  0  0
   -1.4382   -0.8828    2.4026 H   0  0  0  0  0  0  0  0  0  0  0  0
   -1.1859   -3.3113    2.2609 H   0  0  0  0  0  0  0  0  0  0  0  0
   -1.9626   -2.6119    0.8761 H   0  0  0  0  0  0  0  0  0  0  0  0
   -0.1593   -3.0197    0.7863 H   0  0  0  0  0  0  0  0  0  0  0  0
    0.7228   -2.3001    2.8582 H   0  0  0  0  0  0  0  0  0  0  0  0
  1  2  3  0
  2  3  1  0
  3  4  1  0
  4  5  1  0
  5  6  3  0
  6  7  1  0
  7  8  1  0
  7  9  1  0
  1 10  1  0
  3 11  1  0
  3 12  1  0
  4 13  1  0
  4 14  1  0
  7 15  1  0
  8 16  1  0
  8 17  1  0
  8 18  1  0
  9 19  1  0
M  END
