
     RDKit          3D

 25 24  0  0  0  0  0  0  0  0999 V2000
    0.6717   -2.2681   -0.8981 C   0  0  0  0  0  0  0  0  0  0  0  0
    0.6484   -1.3343   -0.2998 C   0  0  0  0  0  0  0  0  0  0  0  0
    0.5955   -0.0906    0.4972 C   0  0  0  0  0  0  0  0  0  0  0  0
    1.0681    1.1349   -0.0443 C   0  0  0  0  0  0  0  0  0  0  0  0
    0.5335    1.6796   -1.3462 C   0  0  0  0  0  0  0  0  0  0  0  0
    0.8767    0.9223   -2.5784 C   0  0  0  0  0  0  0  0  0  0  0  0
   -0.7332   -0.0771    1.2502 C   0  0  0  0  0  0  0  0  0  0  0  0
   -0.7534   -1.3025    2.1291 C   0  0  0  0  0  0  0  0  0  0  0  0
   -1.8721   -0.2325    0.2696 C   0  0  0  0  0  0  0  0  0  0  0  0
    0.6968   -3.2199   -1.5314 H   0  0  0  0  0  0  0  0  0  0  0  0
    1.3203   -0.3432    1.3976 H   0  0  0  0  0  0  0  0  0  0  0  0
    0.9769    2.0070    0.7433 H   0  0  0  0  0  0  0  0  0  0  0  0
    2.2072    1.1258   -0.1917 H   0  0  0  0  0  0  0  0  0  0  0  0
   -0.5831    1.7942   -1.3781 H   0  0  0  0  0  0  0  0  0  0  0  0
    1.0123    2.7085   -1.4353 H   0  0  0  0  0  0  0  0  0  0  0  0
    0.2582    1.3020   -3.4537 H   0  0  0  0  0  0  0  0  0  0  0  0
    0.7816   -0.1387   -2.6255 H   0  0  0  0  0  0  0  0  0  0  0  0
    1.9331    1.1931   -2.9170 H   0  0  0  0  0  0  0  0  0  0  0  0
   -0.8437    0.8644    1.7955 H   0  0  0  0  0  0  0  0  0  0  0  0
   -0.1613   -2.0975    1.6200 H   0  0  0  0  0  0  0  0  0  0  0  0
   -1.8176   -1.6866    2.1930 H   0  0  0  0  0  0  0  0  0  0  0  0
   -0.3852   -1.0169    3.1260 H   0  0  0  0  0  0  0  0  0  0  0  0
   -1.4983   -0.4588   -0.7682 H   0  0  0  0  0  0  0  0  0  0  0  0
   -2.4889    0.6650    0.2508 H   0  0  0  0  0  0  0  0  0  0  0  0
   -2.4435   -1.1300    0.5879 H   0  0  0  0  0  0  0  0  0  0  0  0
  1  2  3  0
  2  3  1  0
  3  4  1  0
  4  5  1  0
  5  6  1  0
  3  7  1  0
  7  8  1  0
  7  9  1  0
  1 10  1  0
  3 11  1  0
  4 12  1  0
  4 13  1  0
  5 14  1  0
  5 15  1  0
  6 16  1  0
  6 17  1  0
  6 18  1  0
  7 19  1  0
  8 20  1  0
  8 21  1  0
  8 22  1  0
  9 23  1  0
  9 24  1  0
  9 25  1  0
M  END
