
     RDKit          3D

 17 18  0  0  0  0  0  0  0  0999 V2000
    3.2473   -0.7225    1.4485 C   0  0  0  0  0  0  0  0  0  0  0  0
    2.1849   -0.5446    0.8914 C   0  0  0  0  0  0  0  0  0  0  0  0
    0.9256   -0.3125    0.2445 C   0  0  0  0  0  0  0  0  0  0  0  0
    0.0240   -1.2566    0.0638 C   0  0  0  0  0  0  0  0  0  0  0  0
   -1.1629   -0.7388   -0.6217 C   0  0  0  0  0  0  0  0  0  0  0  0
   -2.2279   -0.6489    0.2994 O   0  0  0  0  0  0  0  0  0  0  0  0
   -0.7804    0.6678   -0.9963 C   0  0  0  0  0  0  0  0  0  0  0  0
   -0.7641    1.6402    0.1323 C   0  0  0  0  0  0  0  0  0  0  0  0
    0.4861    0.9954   -0.2949 C   0  0  0  0  0  0  0  0  0  0  0  0
    4.1821   -0.8651    1.9518 H   0  0  0  0  0  0  0  0  0  0  0  0
    0.0889   -2.3147    0.3630 H   0  0  0  0  0  0  0  0  0  0  0  0
   -1.4707   -1.3456   -1.4961 H   0  0  0  0  0  0  0  0  0  0  0  0
   -2.9729   -1.2405   -0.0004 H   0  0  0  0  0  0  0  0  0  0  0  0
   -0.8486    1.0064   -2.0470 H   0  0  0  0  0  0  0  0  0  0  0  0
   -0.8742    2.7071   -0.1579 H   0  0  0  0  0  0  0  0  0  0  0  0
   -1.2921    1.3536    1.0566 H   0  0  0  0  0  0  0  0  0  0  0  0
    1.2548    1.6192   -0.8368 H   0  0  0  0  0  0  0  0  0  0  0  0
  1  2  3  0
  2  3  1  0
  3  4  2  0
  4  5  1  0
  5  6  1  0
  5  7  1  0
  7  8  1  0
  8  9  1  0
  9  3  1  0
  9  7  1  0
  1 10  1  0
  4 11  1  0
  5 12  1  0
  6 13  1  0
  7 14  1  0
  8 15  1  0
  8 16  1  0
  9 17  1  0
M  END
