
     RDKit          3D

 18 18  0  0  0  0  0  0  0  0999 V2000
   -1.7959    2.7100    0.8183 C   0  0  0  0  0  0  0  0  0  0  0  0
   -1.4798    1.6036    0.4713 C   0  0  0  0  0  0  0  0  0  0  0  0
   -1.1101    0.2396    0.0630 C   0  0  0  0  0  0  0  0  0  0  0  0
   -1.9973   -0.1112   -1.1365 C   0  0  0  0  0  0  0  0  0  0  0  0
    0.2135    0.2326   -0.2251 O   0  0  0  0  0  0  0  0  0  0  0  0
    1.0303   -0.5885    0.4926 C   0  0  0  0  0  0  0  0  0  0  0  0
    2.4683   -0.3676    0.6825 C   0  0  0  0  0  0  0  0  0  0  0  0
    2.0123   -1.3639   -0.3715 C   0  0  0  0  0  0  0  0  0  0  0  0
   -2.0742    3.7092    1.1220 H   0  0  0  0  0  0  0  0  0  0  0  0
   -1.4280   -0.4321    0.8796 H   0  0  0  0  0  0  0  0  0  0  0  0
   -1.6117   -1.0122   -1.6701 H   0  0  0  0  0  0  0  0  0  0  0  0
   -3.0239   -0.3643   -0.8007 H   0  0  0  0  0  0  0  0  0  0  0  0
   -2.0766    0.7247   -1.8519 H   0  0  0  0  0  0  0  0  0  0  0  0
    0.5206   -1.2054    1.2584 H   0  0  0  0  0  0  0  0  0  0  0  0
    2.9496   -0.8633    1.5534 H   0  0  0  0  0  0  0  0  0  0  0  0
    3.0082    0.5300    0.3516 H   0  0  0  0  0  0  0  0  0  0  0  0
    2.1989   -2.4239   -0.2302 H   0  0  0  0  0  0  0  0  0  0  0  0
    2.1956   -1.0173   -1.4068 H   0  0  0  0  0  0  0  0  0  0  0  0
  1  2  3  0
  2  3  1  0
  3  4  1  0
  3  5  1  0
  5  6  1  0
  6  7  1  0
  7  8  1  0
  8  6  1  0
  1  9  1  0
  3 10  1  0
  4 11  1  0
  4 12  1  0
  4 13  1  0
  6 14  1  0
  7 15  1  0
  7 16  1  0
  8 17  1  0
  8 18  1  0
M  END
