
     RDKit          3D

 17 18  0  0  0  0  0  0  0  0999 V2000
    2.9796    0.4978   -0.2988 C   0  0  0  0  0  0  0  0  0  0  0  0
    1.7752    0.4337   -0.3848 C   0  0  0  0  0  0  0  0  0  0  0  0
    0.4121    0.3504   -0.4606 C   0  0  0  0  0  0  0  0  0  0  0  0
   -0.3622    1.1884    0.4749 C   0  0  0  0  0  0  0  0  0  0  0  0
   -1.6955    0.5911   -0.0286 C   0  0  0  0  0  0  0  0  0  0  0  0
   -0.6737   -0.5141   -0.1481 C   0  0  0  0  0  0  0  0  0  0  0  0
   -0.5777   -1.3254    1.0992 C   0  0  0  0  0  0  0  0  0  0  0  0
    0.4163   -1.3457    1.7914 O   0  0  0  0  0  0  0  0  0  0  0  0
   -0.0164   -0.8633   -1.2742 C   0  0  0  0  0  0  0  0  0  0  0  0
    4.0281    0.5493   -0.2063 H   0  0  0  0  0  0  0  0  0  0  0  0
   -0.2428    1.0029    1.5555 H   0  0  0  0  0  0  0  0  0  0  0  0
   -0.4182    2.2753    0.2973 H   0  0  0  0  0  0  0  0  0  0  0  0
   -2.4115    0.4913    0.7855 H   0  0  0  0  0  0  0  0  0  0  0  0
   -2.0279    0.9741   -0.9895 H   0  0  0  0  0  0  0  0  0  0  0  0
   -1.4342   -1.9144    1.3875 H   0  0  0  0  0  0  0  0  0  0  0  0
    0.7273   -1.6807   -1.3135 H   0  0  0  0  0  0  0  0  0  0  0  0
   -0.4786   -0.7107   -2.2869 H   0  0  0  0  0  0  0  0  0  0  0  0
  1  2  3  0
  2  3  1  0
  3  4  1  0
  4  5  1  0
  5  6  1  0
  6  7  1  0
  7  8  2  0
  6  9  1  0
  6  3  1  0
  9  3  1  0
  1 10  1  0
  4 11  1  0
  4 12  1  0
  5 13  1  0
  5 14  1  0
  7 15  1  0
  9 16  1  0
  9 17  1  0
M  END
