
     RDKit          3D

 15 14  0  0  0  0  0  0  0  0999 V2000
   -1.9760    1.6235    0.3955 C   0  0  0  0  0  0  0  0  0  0  0  0
   -1.2522    0.6590    0.3697 C   0  0  0  0  0  0  0  0  0  0  0  0
   -0.3882   -0.5220    0.3444 C   0  0  0  0  0  0  0  0  0  0  0  0
   -0.9845   -1.6133   -0.4583 C   0  0  0  0  0  0  0  0  0  0  0  0
   -2.1889   -1.7197   -0.5465 O   0  0  0  0  0  0  0  0  0  0  0  0
    0.9700   -0.1081   -0.1888 C   0  0  0  0  0  0  0  0  0  0  0  0
    0.9079    0.4147   -1.4675 O   0  0  0  0  0  0  0  0  0  0  0  0
    1.6065    0.8586    0.7709 C   0  0  0  0  0  0  0  0  0  0  0  0
    1.7521    0.5816    1.9482 O   0  0  0  0  0  0  0  0  0  0  0  0
   -2.6293    2.4810    0.4023 H   0  0  0  0  0  0  0  0  0  0  0  0
   -0.1928   -0.8811    1.3972 H   0  0  0  0  0  0  0  0  0  0  0  0
   -0.3391   -2.3127   -0.9639 H   0  0  0  0  0  0  0  0  0  0  0  0
    1.6275   -1.0007   -0.2124 H   0  0  0  0  0  0  0  0  0  0  0  0
    1.1585   -0.2649   -2.1703 H   0  0  0  0  0  0  0  0  0  0  0  0
    1.9286    1.8042    0.3795 H   0  0  0  0  0  0  0  0  0  0  0  0
  1  2  3  0
  2  3  1  0
  3  4  1  0
  4  5  2  0
  3  6  1  0
  6  7  1  0
  6  8  1  0
  8  9  2  0
  1 10  1  0
  3 11  1  0
  4 12  1  0
  6 13  1  0
  7 14  1  0
  8 15  1  0
M  END
