
     RDKit          3D

 15 14  0  0  0  0  0  0  0  0999 V2000
    3.9907    0.4207   -0.8076 C   0  0  0  0  0  0  0  0  0  0  0  0
    2.9606    0.9496   -0.6796 C   0  0  0  0  0  0  0  0  0  0  0  0
    1.8859    1.4782   -0.5459 C   0  0  0  0  0  0  0  0  0  0  0  0
    0.5697    0.9873   -0.4054 O   0  0  0  0  0  0  0  0  0  0  0  0
    0.2410   -0.1643    0.3515 C   0  0  0  0  0  0  0  0  0  0  0  0
    1.1132   -0.7741    0.9218 O   0  0  0  0  0  0  0  0  0  0  0  0
   -1.1676   -0.6025    0.4390 C   0  0  0  0  0  0  0  0  0  0  0  0
   -2.3064   -0.9648    0.5075 C   0  0  0  0  0  0  0  0  0  0  0  0
   -3.6551   -1.3910    0.5731 C   0  0  0  0  0  0  0  0  0  0  0  0
    5.1630   -0.1930   -0.9382 H   0  0  0  0  0  0  0  0  0  0  0  0
    1.8451    2.4959    0.1074 H   0  0  0  0  0  0  0  0  0  0  0  0
    1.6047    2.1456   -1.5947 H   0  0  0  0  0  0  0  0  0  0  0  0
   -3.7879   -2.4613    0.6649 H   0  0  0  0  0  0  0  0  0  0  0  0
   -4.1658   -1.0364   -0.4230 H   0  0  0  0  0  0  0  0  0  0  0  0
   -4.2911   -0.8900    1.3671 H   0  0  0  0  0  0  0  0  0  0  0  0
  1  2  3  0
  2  3  1  0
  3  4  1  0
  4  5  1  0
  5  6  2  0
  5  7  1  0
  7  8  3  0
  8  9  1  0
  1 10  1  0
  3 11  1  0
  3 12  1  0
  9 13  1  0
  9 14  1  0
  9 15  1  0
M  END
