
     RDKit          3D

 19 20  0  0  0  0  0  0  0  0999 V2000
    2.5893    1.2051    0.5642 C   0  0  0  0  0  0  0  0  0  0  0  0
    1.7794    0.5229    0.0876 C   0  0  0  0  0  0  0  0  0  0  0  0
    0.7415   -0.3806   -0.5163 C   0  0  0  0  0  0  0  0  0  0  0  0
    1.4652   -1.4065   -1.0872 O   0  0  0  0  0  0  0  0  0  0  0  0
   -0.2209    0.3559   -1.3001 C   0  0  0  0  0  0  0  0  0  0  0  0
   -1.3926    0.3751   -0.3050 C   0  0  0  0  0  0  0  0  0  0  0  0
   -0.6401    0.7234    0.9455 C   0  0  0  0  0  0  0  0  0  0  0  0
   -0.0509   -0.7487    0.7300 C   0  0  0  0  0  0  0  0  0  0  0  0
   -1.4639   -1.0017    0.2792 C   0  0  0  0  0  0  0  0  0  0  0  0
    3.5561    2.0262    1.1185 H   0  0  0  0  0  0  0  0  0  0  0  0
    0.7446   -2.1331   -1.2550 H   0  0  0  0  0  0  0  0  0  0  0  0
    0.0603    1.4503   -1.3842 H   0  0  0  0  0  0  0  0  0  0  0  0
   -0.5446   -0.0948   -2.2597 H   0  0  0  0  0  0  0  0  0  0  0  0
   -2.2840    0.8998   -0.6069 H   0  0  0  0  0  0  0  0  0  0  0  0
   -1.1710    0.8195    1.8907 H   0  0  0  0  0  0  0  0  0  0  0  0
    0.1778    1.4526    0.7074 H   0  0  0  0  0  0  0  0  0  0  0  0
    0.3608   -1.1191    1.6347 H   0  0  0  0  0  0  0  0  0  0  0  0
   -2.1533   -1.0842    1.1745 H   0  0  0  0  0  0  0  0  0  0  0  0
   -1.5536   -1.8620   -0.4178 H   0  0  0  0  0  0  0  0  0  0  0  0
  1  2  3  0
  2  3  1  0
  3  4  1  0
  3  5  1  0
  5  6  1  0
  6  7  1  0
  7  8  1  0
  8  9  1  0
  8  3  1  0
  9  6  1  0
  1 10  1  0
  4 11  1  0
  5 12  1  0
  5 13  1  0
  6 14  1  0
  7 15  1  0
  7 16  1  0
  8 17  1  0
  9 18  1  0
  9 19  1  0
M  END
