
     RDKit          3D

 16 16  0  0  0  0  0  0  0  0999 V2000
    3.6454   -0.7934   -1.2127 C   0  0  0  0  0  0  0  0  0  0  0  0
    2.5100   -0.3434   -0.9364 C   0  0  0  0  0  0  0  0  0  0  0  0
    1.2266    0.1713   -0.6043 C   0  0  0  0  0  0  0  0  0  0  0  0
    0.9511    1.3342   -1.0424 O   0  0  0  0  0  0  0  0  0  0  0  0
    0.2745   -0.6399    0.2064 C   0  0  0  0  0  0  0  0  0  0  0  0
   -1.1473   -0.1605    0.0893 C   0  0  0  0  0  0  0  0  0  0  0  0
   -1.5597    1.1961    0.4850 C   0  0  0  0  0  0  0  0  0  0  0  0
   -1.9261    0.0234    1.3647 C   0  0  0  0  0  0  0  0  0  0  0  0
    4.5934   -1.1613   -1.4599 H   0  0  0  0  0  0  0  0  0  0  0  0
    0.3517   -1.6870   -0.1355 H   0  0  0  0  0  0  0  0  0  0  0  0
    0.5948   -0.6659    1.2853 H   0  0  0  0  0  0  0  0  0  0  0  0
   -1.7739   -0.6376   -0.7260 H   0  0  0  0  0  0  0  0  0  0  0  0
   -2.3864    1.7009   -0.0822 H   0  0  0  0  0  0  0  0  0  0  0  0
   -0.8717    1.9176    0.9294 H   0  0  0  0  0  0  0  0  0  0  0  0
   -3.0310   -0.1888    1.3879 H   0  0  0  0  0  0  0  0  0  0  0  0
   -1.4512   -0.0657    2.3474 H   0  0  0  0  0  0  0  0  0  0  0  0
  1  2  3  0
  2  3  1  0
  3  4  2  0
  3  5  1  0
  5  6  1  0
  6  7  1  0
  7  8  1  0
  8  6  1  0
  1  9  1  0
  5 10  1  0
  5 11  1  0
  6 12  1  0
  7 13  1  0
  7 14  1  0
  8 15  1  0
  8 16  1  0
M  END
