
     RDKit          3D

 21 20  0  0  0  0  0  0  0  0999 V2000
   -1.6068    2.2148   -2.1715 C   0  0  0  0  0  0  0  0  0  0  0  0
   -0.8219    1.3430   -1.7176 C   0  0  0  0  0  0  0  0  0  0  0  0
    0.0567    0.3558   -1.2315 C   0  0  0  0  0  0  0  0  0  0  0  0
    0.2382   -0.6849   -2.3548 C   0  0  0  0  0  0  0  0  0  0  0  0
   -0.4250   -0.2179   -0.0863 O   0  0  0  0  0  0  0  0  0  0  0  0
    0.3698   -0.2713    1.0076 C   0  0  0  0  0  0  0  0  0  0  0  0
    0.5599   -1.7552    1.3662 C   0  0  0  0  0  0  0  0  0  0  0  0
   -0.2280    0.3732    2.2395 C   0  0  0  0  0  0  0  0  0  0  0  0
   -0.5084    1.7085    2.1183 O   0  0  0  0  0  0  0  0  0  0  0  0
   -2.2988    2.9775   -2.5904 H   0  0  0  0  0  0  0  0  0  0  0  0
    1.0805    0.7894   -1.1398 H   0  0  0  0  0  0  0  0  0  0  0  0
   -0.7025   -0.8341   -2.9235 H   0  0  0  0  0  0  0  0  0  0  0  0
    0.5145   -1.6572   -1.9120 H   0  0  0  0  0  0  0  0  0  0  0  0
    1.0062   -0.3643   -3.0888 H   0  0  0  0  0  0  0  0  0  0  0  0
    1.4069    0.1020    0.8852 H   0  0  0  0  0  0  0  0  0  0  0  0
   -0.3141   -2.3516    1.1190 H   0  0  0  0  0  0  0  0  0  0  0  0
    1.4352   -2.1445    0.8128 H   0  0  0  0  0  0  0  0  0  0  0  0
    0.8093   -1.7630    2.4660 H   0  0  0  0  0  0  0  0  0  0  0  0
    0.4285    0.1718    3.1153 H   0  0  0  0  0  0  0  0  0  0  0  0
   -1.2009   -0.1219    2.5236 H   0  0  0  0  0  0  0  0  0  0  0  0
    0.2007    2.1299    1.5625 H   0  0  0  0  0  0  0  0  0  0  0  0
  1  2  3  0
  2  3  1  0
  3  4  1  0
  3  5  1  0
  5  6  1  0
  6  7  1  0
  6  8  1  0
  8  9  1  0
  1 10  1  0
  3 11  1  0
  4 12  1  0
  4 13  1  0
  4 14  1  0
  6 15  1  0
  7 16  1  0
  7 17  1  0
  7 18  1  0
  8 19  1  0
  8 20  1  0
  9 21  1  0
M  END
