
     RDKit          3D

 19 19  0  0  0  0  0  0  0  0999 V2000
    3.0827    0.7067   -1.8913 C   0  0  0  0  0  0  0  0  0  0  0  0
    2.2609    0.1257   -1.4079 C   0  0  0  0  0  0  0  0  0  0  0  0
    1.1324   -0.6676   -0.7226 C   0  0  0  0  0  0  0  0  0  0  0  0
    0.3989    0.3103    0.1352 C   0  0  0  0  0  0  0  0  0  0  0  0
   -0.0858    1.3227   -0.7287 O   0  0  0  0  0  0  0  0  0  0  0  0
   -0.8479   -0.2827    0.7599 C   0  0  0  0  0  0  0  0  0  0  0  0
   -1.8765    0.7533    1.1470 C   0  0  0  0  0  0  0  0  0  0  0  0
   -1.3148   -1.5969    0.4315 C   0  0  0  0  0  0  0  0  0  0  0  0
   -0.5920   -1.2968    1.6505 O   0  0  0  0  0  0  0  0  0  0  0  0
    3.8796    1.2677   -2.3790 H   0  0  0  0  0  0  0  0  0  0  0  0
    0.5617   -1.1535   -1.4987 H   0  0  0  0  0  0  0  0  0  0  0  0
    1.6269   -1.4305   -0.1048 H   0  0  0  0  0  0  0  0  0  0  0  0
    1.0109    0.7348    0.9219 H   0  0  0  0  0  0  0  0  0  0  0  0
    0.3252    2.2016   -0.4378 H   0  0  0  0  0  0  0  0  0  0  0  0
   -1.9525    0.8636    2.2525 H   0  0  0  0  0  0  0  0  0  0  0  0
   -1.5436    1.7480    0.7818 H   0  0  0  0  0  0  0  0  0  0  0  0
   -2.8823    0.5109    0.6944 H   0  0  0  0  0  0  0  0  0  0  0  0
   -0.8232   -2.2601   -0.2908 H   0  0  0  0  0  0  0  0  0  0  0  0
   -2.3607   -1.8574    0.6871 H   0  0  0  0  0  0  0  0  0  0  0  0
  1  2  3  0
  2  3  1  0
  3  4  1  0
  4  5  1  0
  4  6  1  0
  6  7  1  0
  6  8  1  0
  8  9  1  0
  9  6  1  0
  1 10  1  0
  3 11  1  0
  3 12  1  0
  4 13  1  0
  5 14  1  0
  7 15  1  0
  7 16  1  0
  7 17  1  0
  8 18  1  0
  8 19  1  0
M  END
