
     RDKit          3D

 19 18  0  0  0  0  0  0  0  0999 V2000
    3.2234    0.0476    0.9742 C   0  0  0  0  0  0  0  0  0  0  0  0
    2.1279    0.3557    0.4563 C   0  0  0  0  0  0  0  0  0  0  0  0
    1.0767    0.6713   -0.0528 C   0  0  0  0  0  0  0  0  0  0  0  0
    0.2660    1.6898    0.6872 O   0  0  0  0  0  0  0  0  0  0  0  0
    0.0310   -0.2892   -0.5744 C   0  0  0  0  0  0  0  0  0  0  0  0
   -1.1220    0.4949   -1.2186 C   0  0  0  0  0  0  0  0  0  0  0  0
   -1.6377    1.3678   -0.2929 O   0  0  0  0  0  0  0  0  0  0  0  0
   -0.5200   -1.3211    0.3271 C   0  0  0  0  0  0  0  0  0  0  0  0
   -1.1058   -0.9564    1.4766 O   0  0  0  0  0  0  0  0  0  0  0  0
    4.3368   -0.2715    1.4781 H   0  0  0  0  0  0  0  0  0  0  0  0
    1.2265    1.3188   -1.0817 H   0  0  0  0  0  0  0  0  0  0  0  0
   -0.0895    1.0779    1.4267 H   0  0  0  0  0  0  0  0  0  0  0  0
    0.5645   -0.8262   -1.4251 H   0  0  0  0  0  0  0  0  0  0  0  0
   -0.7426    0.9468   -2.1570 H   0  0  0  0  0  0  0  0  0  0  0  0
   -1.8581   -0.3303   -1.4140 H   0  0  0  0  0  0  0  0  0  0  0  0
   -2.6459    1.4614   -0.4468 H   0  0  0  0  0  0  0  0  0  0  0  0
   -1.3509   -1.9174   -0.2613 H   0  0  0  0  0  0  0  0  0  0  0  0
    0.2242   -2.1574    0.5008 H   0  0  0  0  0  0  0  0  0  0  0  0
   -2.0044   -1.3625    1.5977 H   0  0  0  0  0  0  0  0  0  0  0  0
  1  2  3  0
  2  3  1  0
  3  4  1  0
  3  5  1  0
  5  6  1  0
  6  7  1  0
  5  8  1  0
  8  9  1  0
  1 10  1  0
  3 11  1  0
  4 12  1  0
  5 13  1  0
  6 14  1  0
  6 15  1  0
  7 16  1  0
  8 17  1  0
  8 18  1  0
  9 19  1  0
M  END
