
     RDKit          3D

 14 14  0  0  0  0  0  0  0  0999 V2000
    1.9013    2.0784   -1.3077 C   0  0  0  0  0  0  0  0  0  0  0  0
    1.5870    0.8531   -0.9514 C   0  0  0  0  0  0  0  0  0  0  0  0
    1.3007   -0.2679   -0.6429 C   0  0  0  0  0  0  0  0  0  0  0  0
   -0.2630   -0.3447   -0.2798 C   0  0  0  0  0  0  0  0  0  0  0  0
   -0.3512    0.7503    0.7645 O   0  0  0  0  0  0  0  0  0  0  0  0
   -0.7030   -0.6697    1.0061 C   0  0  0  0  0  0  0  0  0  0  0  0
   -2.1674   -0.8254    1.1728 C   0  0  0  0  0  0  0  0  0  0  0  0
   -2.9599   -0.7184    0.2971 O   0  0  0  0  0  0  0  0  0  0  0  0
    2.1936    3.2444   -1.6678 H   0  0  0  0  0  0  0  0  0  0  0  0
    1.7316   -0.9590    0.1786 H   0  0  0  0  0  0  0  0  0  0  0  0
    1.2778   -1.0516   -1.5715 H   0  0  0  0  0  0  0  0  0  0  0  0
   -0.8626   -0.0935   -1.1215 H   0  0  0  0  0  0  0  0  0  0  0  0
   -0.0969   -0.9457    1.9054 H   0  0  0  0  0  0  0  0  0  0  0  0
   -2.5881   -1.0504    2.2180 H   0  0  0  0  0  0  0  0  0  0  0  0
  1  2  3  0
  2  3  1  0
  3  4  1  0
  4  5  1  0
  5  6  1  0
  6  7  1  0
  7  8  2  0
  6  4  1  0
  1  9  1  0
  3 10  1  0
  3 11  1  0
  4 12  1  0
  6 13  1  0
  7 14  1  0
M  END
