
     RDKit          3D

 16 15  0  0  0  0  0  0  0  0999 V2000
    2.0659    1.5739   -0.8432 C   0  0  0  0  0  0  0  0  0  0  0  0
    1.2027    1.2758   -0.0560 C   0  0  0  0  0  0  0  0  0  0  0  0
    0.1232    0.9202    0.8973 C   0  0  0  0  0  0  0  0  0  0  0  0
    0.4206    1.4222    2.1662 O   0  0  0  0  0  0  0  0  0  0  0  0
    0.0042   -0.5693    1.0267 C   0  0  0  0  0  0  0  0  0  0  0  0
   -0.3127   -1.2656   -0.2536 C   0  0  0  0  0  0  0  0  0  0  0  0
   -1.5817   -0.8471   -0.8684 C   0  0  0  0  0  0  0  0  0  0  0  0
   -2.3448   -0.0165   -0.4225 O   0  0  0  0  0  0  0  0  0  0  0  0
    2.8132    1.8416   -1.5465 H   0  0  0  0  0  0  0  0  0  0  0  0
   -0.7746    1.4177    0.5458 H   0  0  0  0  0  0  0  0  0  0  0  0
   -0.0545    0.8468    2.8162 H   0  0  0  0  0  0  0  0  0  0  0  0
   -0.8256   -0.7714    1.7372 H   0  0  0  0  0  0  0  0  0  0  0  0
    0.9727   -0.9666    1.3982 H   0  0  0  0  0  0  0  0  0  0  0  0
   -0.3927   -2.3534   -0.0327 H   0  0  0  0  0  0  0  0  0  0  0  0
    0.5513   -1.1903   -0.9781 H   0  0  0  0  0  0  0  0  0  0  0  0
   -1.8671   -1.3181   -1.8028 H   0  0  0  0  0  0  0  0  0  0  0  0
  1  2  3  0
  2  3  1  0
  3  4  1  0
  3  5  1  0
  5  6  1  0
  6  7  1  0
  7  8  2  0
  1  9  1  0
  3 10  1  0
  4 11  1  0
  5 12  1  0
  5 13  1  0
  6 14  1  0
  6 15  1  0
  7 16  1  0
M  END
