
     RDKit          3D

 19 19  0  0  0  0  0  0  0  0999 V2000
    2.6895   -0.0051    1.0806 C   0  0  0  0  0  0  0  0  0  0  0  0
    1.6338   -0.5744    1.0235 C   0  0  0  0  0  0  0  0  0  0  0  0
    0.3483   -1.2673    0.9796 C   0  0  0  0  0  0  0  0  0  0  0  0
   -0.6229   -0.4224    0.2020 C   0  0  0  0  0  0  0  0  0  0  0  0
   -1.8735   -1.0556    0.1370 O   0  0  0  0  0  0  0  0  0  0  0  0
   -0.7252    1.0085    0.6028 C   0  0  0  0  0  0  0  0  0  0  0  0
   -0.2803    1.4193   -0.7587 C   0  0  0  0  0  0  0  0  0  0  0  0
   -0.1113   -0.0280   -1.1357 C   0  0  0  0  0  0  0  0  0  0  0  0
   -0.9471   -0.4571   -2.1826 O   0  0  0  0  0  0  0  0  0  0  0  0
    3.6224    0.5158    1.1417 H   0  0  0  0  0  0  0  0  0  0  0  0
    0.4617   -2.2231    0.4258 H   0  0  0  0  0  0  0  0  0  0  0  0
   -0.0502   -1.4917    1.9805 H   0  0  0  0  0  0  0  0  0  0  0  0
   -1.8648   -1.9318    0.5955 H   0  0  0  0  0  0  0  0  0  0  0  0
   -0.1007    1.3302    1.4580 H   0  0  0  0  0  0  0  0  0  0  0  0
   -1.7874    1.3194    0.8186 H   0  0  0  0  0  0  0  0  0  0  0  0
    0.6627    2.0093   -0.8075 H   0  0  0  0  0  0  0  0  0  0  0  0
   -1.0406    1.8963   -1.4054 H   0  0  0  0  0  0  0  0  0  0  0  0
    0.9645   -0.3226   -1.3063 H   0  0  0  0  0  0  0  0  0  0  0  0
   -0.9788    0.2802   -2.8495 H   0  0  0  0  0  0  0  0  0  0  0  0
  1  2  3  0
  2  3  1  0
  3  4  1  0
  4  5  1  0
  4  6  1  0
  6  7  1  0
  7  8  1  0
  8  9  1  0
  8  4  1  0
  1 10  1  0
  3 11  1  0
  3 12  1  0
  5 13  1  0
  6 14  1  0
  6 15  1  0
  7 16  1  0
  7 17  1  0
  8 18  1  0
  9 19  1  0
M  END
