
     RDKit          3D

 17 17  0  0  0  0  0  0  0  0999 V2000
    1.7600    1.4824   -1.9077 C   0  0  0  0  0  0  0  0  0  0  0  0
    1.8064    0.6647   -1.1307 C   0  0  0  0  0  0  0  0  0  0  0  0
    1.8587   -0.4271   -0.1120 C   0  0  0  0  0  0  0  0  0  0  0  0
    0.4996   -1.0445    0.0943 C   0  0  0  0  0  0  0  0  0  0  0  0
   -0.4604    0.0170    0.5764 C   0  0  0  0  0  0  0  0  0  0  0  0
   -1.8661   -0.4781    0.8098 C   0  0  0  0  0  0  0  0  0  0  0  0
   -2.1861    0.8478    0.2559 C   0  0  0  0  0  0  0  0  0  0  0  0
   -3.1255    1.6592    0.3631 O   0  0  0  0  0  0  0  0  0  0  0  0
   -1.0060    0.8229   -0.4408 O   0  0  0  0  0  0  0  0  0  0  0  0
    1.7022    2.3029   -2.6663 H   0  0  0  0  0  0  0  0  0  0  0  0
    2.2487    0.0306    0.8042 H   0  0  0  0  0  0  0  0  0  0  0  0
    2.5990   -1.1778   -0.4495 H   0  0  0  0  0  0  0  0  0  0  0  0
    0.0987   -1.4697   -0.8535 H   0  0  0  0  0  0  0  0  0  0  0  0
    0.5254   -1.8750    0.8209 H   0  0  0  0  0  0  0  0  0  0  0  0
   -0.1195    0.6178    1.4137 H   0  0  0  0  0  0  0  0  0  0  0  0
   -2.1725   -1.3351    0.1424 H   0  0  0  0  0  0  0  0  0  0  0  0
   -2.1628   -0.6381    1.8623 H   0  0  0  0  0  0  0  0  0  0  0  0
  1  2  3  0
  2  3  1  0
  3  4  1  0
  4  5  1  0
  5  6  1  0
  6  7  1  0
  7  8  2  0
  7  9  1  0
  9  5  1  0
  1 10  1  0
  3 11  1  0
  3 12  1  0
  4 13  1  0
  4 14  1  0
  5 15  1  0
  6 16  1  0
  6 17  1  0
M  END
