
     RDKit          3D

 17 17  0  0  0  0  0  0  0  0999 V2000
   -1.9725    2.5836   -0.8234 C   0  0  0  0  0  0  0  0  0  0  0  0
   -1.2160    1.5385   -0.7679 C   0  0  0  0  0  0  0  0  0  0  0  0
   -0.4973    0.5538   -0.7045 C   0  0  0  0  0  0  0  0  0  0  0  0
    0.2161    0.2037    0.5672 C   0  0  0  0  0  0  0  0  0  0  0  0
    0.8690   -0.1381    1.7627 C   0  0  0  0  0  0  0  0  0  0  0  0
    1.4679   -0.4279    2.8570 C   0  0  0  0  0  0  0  0  0  0  0  0
   -1.0078   -0.7800   -1.3807 C   0  0  0  0  0  0  0  0  0  0  0  0
    0.4683   -0.9934   -1.3285 C   0  0  0  0  0  0  0  0  0  0  0  0
    0.5876    0.3644   -1.7295 O   0  0  0  0  0  0  0  0  0  0  0  0
   -2.7638    3.7060   -0.8872 H   0  0  0  0  0  0  0  0  0  0  0  0
    1.4147    0.4127    3.6523 H   0  0  0  0  0  0  0  0  0  0  0  0
    1.1005   -1.4245    3.3818 H   0  0  0  0  0  0  0  0  0  0  0  0
    2.5898   -0.6310    2.8034 H   0  0  0  0  0  0  0  0  0  0  0  0
   -1.6158   -1.3670   -0.6855 H   0  0  0  0  0  0  0  0  0  0  0  0
   -1.3253   -0.6510   -2.3862 H   0  0  0  0  0  0  0  0  0  0  0  0
    0.7363   -1.2027   -0.2379 H   0  0  0  0  0  0  0  0  0  0  0  0
    0.9483   -1.7472   -1.9549 H   0  0  0  0  0  0  0  0  0  0  0  0
  1  2  3  0
  2  3  1  0
  3  4  1  0
  4  5  3  0
  5  6  1  0
  3  7  1  0
  7  8  1  0
  8  9  1  0
  9  3  1  0
  1 10  1  0
  6 11  1  0
  6 12  1  0
  6 13  1  0
  7 14  1  0
  7 15  1  0
  8 16  1  0
  8 17  1  0
M  END
