
     RDKit          3D

 19 20  0  0  0  0  0  0  0  0999 V2000
    2.8578   -0.4919    1.3041 C   0  0  0  0  0  0  0  0  0  0  0  0
    1.9181   -0.1943    0.6115 C   0  0  0  0  0  0  0  0  0  0  0  0
    0.7715    0.1687   -0.2375 C   0  0  0  0  0  0  0  0  0  0  0  0
    1.0867    0.8533   -1.3913 O   0  0  0  0  0  0  0  0  0  0  0  0
   -0.3180    0.7774    0.6158 C   0  0  0  0  0  0  0  0  0  0  0  0
   -1.4346    1.0219   -0.3550 C   0  0  0  0  0  0  0  0  0  0  0  0
   -1.3360   -0.2887   -1.1618 C   0  0  0  0  0  0  0  0  0  0  0  0
   -0.2311   -0.9588   -0.4215 C   0  0  0  0  0  0  0  0  0  0  0  0
   -0.6146   -0.6701    1.0364 C   0  0  0  0  0  0  0  0  0  0  0  0
    3.6964   -0.7632    1.9176 H   0  0  0  0  0  0  0  0  0  0  0  0
    2.0812    0.9222   -1.5217 H   0  0  0  0  0  0  0  0  0  0  0  0
   -0.0780    1.4746    1.3672 H   0  0  0  0  0  0  0  0  0  0  0  0
   -1.2333    1.8957   -0.9696 H   0  0  0  0  0  0  0  0  0  0  0  0
   -2.4096    1.0623    0.1806 H   0  0  0  0  0  0  0  0  0  0  0  0
   -2.2703   -0.8748   -1.0719 H   0  0  0  0  0  0  0  0  0  0  0  0
   -1.0512   -0.0707   -2.2094 H   0  0  0  0  0  0  0  0  0  0  0  0
    0.1108   -1.9245   -0.6656 H   0  0  0  0  0  0  0  0  0  0  0  0
    0.1279   -1.0832    1.7237 H   0  0  0  0  0  0  0  0  0  0  0  0
   -1.6737   -0.8559    1.2485 H   0  0  0  0  0  0  0  0  0  0  0  0
  1  2  3  0
  2  3  1  0
  3  4  1  0
  3  5  1  0
  5  6  1  0
  6  7  1  0
  7  8  1  0
  8  9  1  0
  8  3  1  0
  9  5  1  0
  1 10  1  0
  4 11  1  0
  5 12  1  0
  6 13  1  0
  6 14  1  0
  7 15  1  0
  7 16  1  0
  8 17  1  0
  9 18  1  0
  9 19  1  0
M  END
