
     RDKit          3D

 19 18  0  0  0  0  0  0  0  0999 V2000
    3.9337    0.1407    0.0528 C   0  0  0  0  0  0  0  0  0  0  0  0
    2.0063   -0.6321   -0.3120 C   0  0  0  0  0  0  0  0  0  0  0  0
    1.1935   -0.9638   -0.4728 C   0  0  0  0  0  0  0  0  0  0  0  0
   -0.1797   -0.8615    0.2180 C   0  0  0  0  0  0  0  0  0  0  0  0
   -1.1034   -1.6962    0.1320 O   0  0  0  0  0  0  0  0  0  0  0  0
   -0.9890    0.2112   -0.8113 C   0  0  0  0  0  0  0  0  0  0  0  0
   -0.5500    1.6445   -0.1911 C   0  0  0  0  0  0  0  0  0  0  0  0
   -2.0534   -0.0112   -0.4175 C   0  0  0  0  0  0  0  0  0  0  0  0
   -3.1326   -0.2556   -0.0241 C   0  0  0  0  0  0  0  0  0  0  0  0
    5.0913    0.5832    0.2784 H   0  0  0  0  0  0  0  0  0  0  0  0
    1.5973   -1.4057    1.2200 H   0  0  0  0  0  0  0  0  0  0  0  0
    1.3294    0.2121    1.0420 H   0  0  0  0  0  0  0  0  0  0  0  0
   -0.1423   -0.0694    1.1102 H   0  0  0  0  0  0  0  0  0  0  0  0
   -1.0850   -2.5385   -0.4933 H   0  0  0  0  0  0  0  0  0  0  0  0
   -0.6665    0.0714   -1.8780 H   0  0  0  0  0  0  0  0  0  0  0  0
   -1.1584    2.4470   -0.4735 H   0  0  0  0  0  0  0  0  0  0  0  0
    0.1905    1.6829    0.6901 H   0  0  0  0  0  0  0  0  0  0  0  0
    0.3256    2.0356   -0.8802 H   0  0  0  0  0  0  0  0  0  0  0  0
   -4.6072   -0.5946    0.5428 H   0  0  0  0  0  0  0  0  0  0  0  0
  1  2  3  0
  2  3  1  0
  3  4  1  0
  4  5  1  0
  4  6  1  0
  6  7  1  0
  6  8  1  0
  8  9  3  0
  1 10  1  0
  3 11  1  0
  3 12  1  0
  4 13  1  0
  5 14  1  0
  6 15  1  0
  7 16  1  0
  7 17  1  0
  7 18  1  0
  9 19  1  0
M  END
