
     RDKit          3D

 17 18  0  0  0  0  0  0  0  0999 V2000
    4.2187    1.6309   -0.4651 C   0  0  0  0  0  0  0  0  0  0  0  0
    3.2138    0.9746   -0.3015 C   0  0  0  0  0  0  0  0  0  0  0  0
    2.0235    0.2029   -0.1326 C   0  0  0  0  0  0  0  0  0  0  0  0
    1.0153   -0.4401    0.0289 C   0  0  0  0  0  0  0  0  0  0  0  0
   -0.1877   -1.1791    0.2269 C   0  0  0  0  0  0  0  0  0  0  0  0
   -1.2724   -1.0146   -0.8552 C   0  0  0  0  0  0  0  0  0  0  0  0
   -1.3566    0.3588   -0.2382 C   0  0  0  0  0  0  0  0  0  0  0  0
   -1.8010    0.7529    1.0637 C   0  0  0  0  0  0  0  0  0  0  0  0
   -1.2803   -0.5694    1.0484 C   0  0  0  0  0  0  0  0  0  0  0  0
    5.1068    2.1945   -0.6209 H   0  0  0  0  0  0  0  0  0  0  0  0
    0.0268   -2.2242    0.4733 H   0  0  0  0  0  0  0  0  0  0  0  0
   -2.1201   -1.6896   -0.6668 H   0  0  0  0  0  0  0  0  0  0  0  0
   -0.9252   -1.0127   -1.8765 H   0  0  0  0  0  0  0  0  0  0  0  0
   -0.3884    0.8872   -0.4983 H   0  0  0  0  0  0  0  0  0  0  0  0
   -2.9061    0.9911    1.1443 H   0  0  0  0  0  0  0  0  0  0  0  0
   -1.2458    1.4794    1.7365 H   0  0  0  0  0  0  0  0  0  0  0  0
   -2.1212   -1.3426    1.0805 H   0  0  0  0  0  0  0  0  0  0  0  0
  1  2  3  0
  2  3  1  0
  3  4  3  0
  4  5  1  0
  5  6  1  0
  6  7  1  0
  7  8  1  0
  8  9  1  0
  9  5  1  0
  9  7  1  0
  1 10  1  0
  5 11  1  0
  6 12  1  0
  6 13  1  0
  7 14  1  0
  8 15  1  0
  8 16  1  0
  9 17  1  0
M  END
