
     RDKit          3D

 13 14  0  0  0  0  0  0  0  0999 V2000
    2.8337   -0.3614    0.0361 C   0  0  0  0  0  0  0  0  0  0  0  0
    1.6312   -0.4616   -0.0017 C   0  0  0  0  0  0  0  0  0  0  0  0
    0.1728   -0.5993   -0.0278 C   0  0  0  0  0  0  0  0  0  0  0  0
   -0.4969    0.6741   -0.4495 C   0  0  0  0  0  0  0  0  0  0  0  0
   -1.7022    0.2334    0.2945 C   0  0  0  0  0  0  0  0  0  0  0  0
   -0.5092   -0.0172    1.1665 C   0  0  0  0  0  0  0  0  0  0  0  0
   -0.0332    1.2117    0.7466 O   0  0  0  0  0  0  0  0  0  0  0  0
    3.9049   -0.2655    0.0697 H   0  0  0  0  0  0  0  0  0  0  0  0
   -0.2198   -1.5315   -0.4316 H   0  0  0  0  0  0  0  0  0  0  0  0
   -0.4456    1.1101   -1.3569 H   0  0  0  0  0  0  0  0  0  0  0  0
   -2.2451   -0.6446   -0.0711 H   0  0  0  0  0  0  0  0  0  0  0  0
   -2.3776    1.0312    0.6531 H   0  0  0  0  0  0  0  0  0  0  0  0
   -0.5129   -0.3796    2.1065 H   0  0  0  0  0  0  0  0  0  0  0  0
  1  2  3  0
  2  3  1  0
  3  4  1  0
  4  5  1  0
  5  6  1  0
  6  7  1  0
  6  3  1  0
  7  4  1  0
  1  8  1  0
  3  9  1  0
  4 10  1  0
  5 11  1  0
  5 12  1  0
  6 13  1  0
M  END
