
     RDKit          3D

 16 15  0  0  0  0  0  0  0  0999 V2000
    2.9527    2.4642    0.2248 C   0  0  0  0  0  0  0  0  0  0  0  0
    1.6225    1.7891   -0.0035 C   0  0  0  0  0  0  0  0  0  0  0  0
    0.4997    1.2014   -0.2097 C   0  0  0  0  0  0  0  0  0  0  0  0
    0.6649   -0.2085   -0.0651 O   0  0  0  0  0  0  0  0  0  0  0  0
   -0.6102   -0.7115   -0.3566 C   0  0  0  0  0  0  0  0  0  0  0  0
   -1.2534   -0.9176    1.0521 C   0  0  0  0  0  0  0  0  0  0  0  0
   -0.6060   -1.9652   -1.0807 C   0  0  0  0  0  0  0  0  0  0  0  0
   -1.7798   -2.1732   -1.6561 O   0  0  0  0  0  0  0  0  0  0  0  0
    4.0771    3.0519    0.4047 H   0  0  0  0  0  0  0  0  0  0  0  0
   -0.2360    1.5724    0.5905 H   0  0  0  0  0  0  0  0  0  0  0  0
    0.0982    1.5009   -1.2208 H   0  0  0  0  0  0  0  0  0  0  0  0
   -1.2550    0.0766   -0.8127 H   0  0  0  0  0  0  0  0  0  0  0  0
   -2.3544   -0.9694    0.9488 H   0  0  0  0  0  0  0  0  0  0  0  0
   -0.9508   -0.0893    1.7341 H   0  0  0  0  0  0  0  0  0  0  0  0
   -0.9191   -1.8756    1.5195 H   0  0  0  0  0  0  0  0  0  0  0  0
    0.0495   -2.7462   -1.2820 H   0  0  0  0  0  0  0  0  0  0  0  0
  1  2  3  0
  2  3  1  0
  3  4  1  0
  4  5  1  0
  5  6  1  0
  5  7  1  0
  7  8  2  0
  1  9  1  0
  3 10  1  0
  3 11  1  0
  5 12  1  0
  6 13  1  0
  6 14  1  0
  6 15  1  0
  7 16  1  0
M  END
