
     RDKit          3D

 21 22  0  0  0  0  0  0  0  0999 V2000
    3.6208    1.3619   -0.6836 C   0  0  0  0  0  0  0  0  0  0  0  0
    2.6587    0.6063   -0.7444 C   0  0  0  0  0  0  0  0  0  0  0  0
    1.5386   -0.3051   -0.8196 C   0  0  0  0  0  0  0  0  0  0  0  0
    0.2542    0.3768   -1.2876 C   0  0  0  0  0  0  0  0  0  0  0  0
   -0.4074   -0.1939   -0.1021 C   0  0  0  0  0  0  0  0  0  0  0  0
   -1.3925    0.6351    0.6432 C   0  0  0  0  0  0  0  0  0  0  0  0
   -2.4561   -0.0398   -0.2416 C   0  0  0  0  0  0  0  0  0  0  0  0
   -1.4710   -1.2179   -0.2997 C   0  0  0  0  0  0  0  0  0  0  0  0
    0.8601   -0.5700    0.5129 C   0  0  0  0  0  0  0  0  0  0  0  0
    4.4518    2.0147   -0.6127 H   0  0  0  0  0  0  0  0  0  0  0  0
    1.7447   -1.2159   -1.4188 H   0  0  0  0  0  0  0  0  0  0  0  0
    0.3418    1.4993   -1.2473 H   0  0  0  0  0  0  0  0  0  0  0  0
   -0.1106    0.0014   -2.2709 H   0  0  0  0  0  0  0  0  0  0  0  0
   -1.3098    1.7058    0.3915 H   0  0  0  0  0  0  0  0  0  0  0  0
   -1.5065    0.3792    1.7010 H   0  0  0  0  0  0  0  0  0  0  0  0
   -2.5276    0.4357   -1.2407 H   0  0  0  0  0  0  0  0  0  0  0  0
   -3.3860   -0.2454    0.2852 H   0  0  0  0  0  0  0  0  0  0  0  0
   -1.6453   -1.8629    0.5900 H   0  0  0  0  0  0  0  0  0  0  0  0
   -1.4157   -1.7250   -1.2571 H   0  0  0  0  0  0  0  0  0  0  0  0
    0.9062   -1.6721    0.7422 H   0  0  0  0  0  0  0  0  0  0  0  0
    1.2516    0.0318    1.3557 H   0  0  0  0  0  0  0  0  0  0  0  0
  1  2  3  0
  2  3  1  0
  3  4  1  0
  4  5  1  0
  5  6  1  0
  6  7  1  0
  7  8  1  0
  5  9  1  0
  9  3  1  0
  8  5  1  0
  1 10  1  0
  3 11  1  0
  4 12  1  0
  4 13  1  0
  6 14  1  0
  6 15  1  0
  7 16  1  0
  7 17  1  0
  8 18  1  0
  8 19  1  0
  9 20  1  0
  9 21  1  0
M  END
