
     RDKit          3D

 21 21  0  0  0  0  0  0  0  0999 V2000
   -2.1367    1.5541   -1.7707 C   0  0  0  0  0  0  0  0  0  0  0  0
   -1.9144    0.5508   -0.8150 C   0  0  0  0  0  0  0  0  0  0  0  0
   -1.7727   -0.1573   -0.1350 C   0  0  0  0  0  0  0  0  0  0  0  0
   -2.2935    0.0203    1.3831 C   0  0  0  0  0  0  0  0  0  0  0  0
   -0.1121    0.2107    0.3535 C   0  0  0  0  0  0  0  0  0  0  0  0
    0.8569    0.0710   -0.8159 C   0  0  0  0  0  0  0  0  0  0  0  0
    1.7553   -0.1852    0.4652 C   0  0  0  0  0  0  0  0  0  0  0  0
    2.9541   -1.0336    0.1975 C   0  0  0  0  0  0  0  0  0  0  0  0
    0.5511   -0.8258    0.9195 O   0  0  0  0  0  0  0  0  0  0  0  0
   -2.3451    2.5336   -2.6719 H   0  0  0  0  0  0  0  0  0  0  0  0
   -1.5307   -1.2918   -0.2176 H   0  0  0  0  0  0  0  0  0  0  0  0
   -3.2312    0.6902    1.2345 H   0  0  0  0  0  0  0  0  0  0  0  0
   -2.6060   -0.9875    1.6853 H   0  0  0  0  0  0  0  0  0  0  0  0
   -1.5617    0.4963    2.0037 H   0  0  0  0  0  0  0  0  0  0  0  0
   -0.1172    1.1619    0.8383 H   0  0  0  0  0  0  0  0  0  0  0  0
    1.2171    1.0463   -1.2430 H   0  0  0  0  0  0  0  0  0  0  0  0
    0.8715   -0.7810   -1.4307 H   0  0  0  0  0  0  0  0  0  0  0  0
    1.8834    0.7183    1.0532 H   0  0  0  0  0  0  0  0  0  0  0  0
    2.7154   -1.4455   -0.8790 H   0  0  0  0  0  0  0  0  0  0  0  0
    3.8647   -0.4528    0.0867 H   0  0  0  0  0  0  0  0  0  0  0  0
    2.9518   -1.8929    0.8550 H   0  0  0  0  0  0  0  0  0  0  0  0
  1  2  3  0
  2  3  1  0
  3  4  1  0
  3  5  1  0
  5  6  1  0
  6  7  1  0
  7  8  1  0
  7  9  1  0
  9  5  1  0
  1 10  1  0
  3 11  1  0
  4 12  1  0
  4 13  1  0
  4 14  1  0
  5 15  1  0
  6 16  1  0
  6 17  1  0
  7 18  1  0
  8 19  1  0
  8 20  1  0
  8 21  1  0
M  END
