
     RDKit          3D

 17 17  0  0  0  0  0  0  0  0999 V2000
    3.1566   -0.4708   -1.7987 C   0  0  0  0  0  0  0  0  0  0  0  0
    2.2524   -0.2472   -1.2505 C   0  0  0  0  0  0  0  0  0  0  0  0
    1.0609    0.0405   -0.5562 C   0  0  0  0  0  0  0  0  0  0  0  0
    0.7401    0.7019    0.5103 C   0  0  0  0  0  0  0  0  0  0  0  0
   -0.6830    0.7360    0.8114 C   0  0  0  0  0  0  0  0  0  0  0  0
   -1.0038    0.0133    1.9193 O   0  0  0  0  0  0  0  0  0  0  0  0
   -1.3014    0.2237   -0.4865 C   0  0  0  0  0  0  0  0  0  0  0  0
   -2.4923   -0.4014   -0.1438 O   0  0  0  0  0  0  0  0  0  0  0  0
   -0.2346   -0.6538   -1.0255 C   0  0  0  0  0  0  0  0  0  0  0  0
    4.1941   -0.7221   -2.4516 H   0  0  0  0  0  0  0  0  0  0  0  0
    1.4844    1.1921    1.2033 H   0  0  0  0  0  0  0  0  0  0  0  0
   -1.0214    1.8273    0.9081 H   0  0  0  0  0  0  0  0  0  0  0  0
   -1.8306    0.4893    2.3220 H   0  0  0  0  0  0  0  0  0  0  0  0
   -1.4527    1.0484   -1.2459 H   0  0  0  0  0  0  0  0  0  0  0  0
   -2.4137   -1.4005   -0.2089 H   0  0  0  0  0  0  0  0  0  0  0  0
   -0.2162   -1.6563   -0.5176 H   0  0  0  0  0  0  0  0  0  0  0  0
   -0.2389   -0.7203   -2.1010 H   0  0  0  0  0  0  0  0  0  0  0  0
  1  2  3  0
  2  3  1  0
  3  4  2  0
  4  5  1  0
  5  6  1  0
  5  7  1  0
  7  8  1  0
  7  9  1  0
  9  3  1  0
  1 10  1  0
  4 11  1  0
  5 12  1  0
  6 13  1  0
  7 14  1  0
  8 15  1  0
  9 16  1  0
  9 17  1  0
M  END
