
     RDKit          3D

 17 16  0  0  0  0  0  0  0  0999 V2000
    3.4806   -1.7210   -1.4020 C   0  0  0  0  0  0  0  0  0  0  0  0
    2.6410   -0.9700   -0.9206 C   0  0  0  0  0  0  0  0  0  0  0  0
    1.6394   -0.0610   -0.3360 C   0  0  0  0  0  0  0  0  0  0  0  0
    0.4271   -0.8593    0.1254 C   0  0  0  0  0  0  0  0  0  0  0  0
   -0.5788    0.0875    0.6999 C   0  0  0  0  0  0  0  0  0  0  0  0
   -0.3883    0.5566    1.8140 O   0  0  0  0  0  0  0  0  0  0  0  0
   -1.7657    0.4277   -0.0886 C   0  0  0  0  0  0  0  0  0  0  0  0
   -2.6438    1.3881    0.5695 C   0  0  0  0  0  0  0  0  0  0  0  0
   -3.3801    2.2119    1.1115 C   0  0  0  0  0  0  0  0  0  0  0  0
    4.2097   -2.3758   -1.8009 H   0  0  0  0  0  0  0  0  0  0  0  0
    1.3313    0.6657   -1.1295 H   0  0  0  0  0  0  0  0  0  0  0  0
    2.1046    0.4325    0.5252 H   0  0  0  0  0  0  0  0  0  0  0  0
   -0.0225   -1.3674   -0.7514 H   0  0  0  0  0  0  0  0  0  0  0  0
    0.7738   -1.5981    0.8869 H   0  0  0  0  0  0  0  0  0  0  0  0
   -2.3582   -0.5142   -0.2876 H   0  0  0  0  0  0  0  0  0  0  0  0
   -1.4402    0.7705   -1.1052 H   0  0  0  0  0  0  0  0  0  0  0  0
   -4.0300    2.9262    1.5934 H   0  0  0  0  0  0  0  0  0  0  0  0
  1  2  3  0
  2  3  1  0
  3  4  1  0
  4  5  1  0
  5  6  2  0
  5  7  1  0
  7  8  1  0
  8  9  3  0
  1 10  1  0
  3 11  1  0
  3 12  1  0
  4 13  1  0
  4 14  1  0
  7 15  1  0
  7 16  1  0
  9 17  1  0
M  END
