
     RDKit          3D

 21 22  0  0  0  0  0  0  0  0999 V2000
    3.3897    0.9326   -0.1529 C   0  0  0  0  0  0  0  0  0  0  0  0
    2.3605    0.5304    0.3577 C   0  0  0  0  0  0  0  0  0  0  0  0
    1.1149    0.0493    0.9492 C   0  0  0  0  0  0  0  0  0  0  0  0
    0.9484   -1.4214    0.6998 C   0  0  0  0  0  0  0  0  0  0  0  0
   -0.3391   -1.1602   -0.0210 C   0  0  0  0  0  0  0  0  0  0  0  0
   -1.3787   -0.2988    0.5987 C   0  0  0  0  0  0  0  0  0  0  0  0
   -2.6427   -0.1376   -0.2048 C   0  0  0  0  0  0  0  0  0  0  0  0
   -0.1210    0.3035    0.1222 C   0  0  0  0  0  0  0  0  0  0  0  0
   -0.0571    1.2103   -1.0655 C   0  0  0  0  0  0  0  0  0  0  0  0
    4.2921    1.2932   -0.5881 H   0  0  0  0  0  0  0  0  0  0  0  0
    0.9717    0.3882    1.9968 H   0  0  0  0  0  0  0  0  0  0  0  0
    1.7112   -1.9053    0.0645 H   0  0  0  0  0  0  0  0  0  0  0  0
    0.7655   -2.0502    1.6048 H   0  0  0  0  0  0  0  0  0  0  0  0
   -0.5471   -1.6313   -0.9886 H   0  0  0  0  0  0  0  0  0  0  0  0
   -1.5110   -0.2932    1.7170 H   0  0  0  0  0  0  0  0  0  0  0  0
   -3.2634    0.6242    0.2885 H   0  0  0  0  0  0  0  0  0  0  0  0
   -2.3978    0.2481   -1.2316 H   0  0  0  0  0  0  0  0  0  0  0  0
   -3.2264   -1.0823   -0.2775 H   0  0  0  0  0  0  0  0  0  0  0  0
   -1.0162    1.7481   -1.1950 H   0  0  0  0  0  0  0  0  0  0  0  0
    0.7108    2.0060   -0.8569 H   0  0  0  0  0  0  0  0  0  0  0  0
    0.2357    0.6463   -1.9682 H   0  0  0  0  0  0  0  0  0  0  0  0
  1  2  3  0
  2  3  1  0
  3  4  1  0
  4  5  1  0
  5  6  1  0
  6  7  1  0
  6  8  1  0
  8  9  1  0
  8  3  1  0
  8  5  1  0
  1 10  1  0
  3 11  1  0
  4 12  1  0
  4 13  1  0
  5 14  1  0
  6 15  1  0
  7 16  1  0
  7 17  1  0
  7 18  1  0
  9 19  1  0
  9 20  1  0
  9 21  1  0
M  END
