
     RDKit          3D

 19 20  0  0  0  0  0  0  0  0999 V2000
    2.5764    0.2280   -1.6603 C   0  0  0  0  0  0  0  0  0  0  0  0
    1.6502    0.0630   -0.9041 C   0  0  0  0  0  0  0  0  0  0  0  0
    0.5086   -0.1191    0.0218 C   0  0  0  0  0  0  0  0  0  0  0  0
    0.9043   -0.5124    1.4042 C   0  0  0  0  0  0  0  0  0  0  0  0
   -0.5849   -0.9967   -0.6013 C   0  0  0  0  0  0  0  0  0  0  0  0
   -1.4831    0.2203   -0.6764 C   0  0  0  0  0  0  0  0  0  0  0  0
   -1.7865    0.8577    0.6267 C   0  0  0  0  0  0  0  0  0  0  0  0
   -0.4480    1.0188    0.0125 C   0  0  0  0  0  0  0  0  0  0  0  0
   -0.0708    2.2772   -0.4338 O   0  0  0  0  0  0  0  0  0  0  0  0
    3.3845    0.3726   -2.3441 H   0  0  0  0  0  0  0  0  0  0  0  0
    0.9367    0.4108    2.0244 H   0  0  0  0  0  0  0  0  0  0  0  0
    1.8722   -1.0315    1.3688 H   0  0  0  0  0  0  0  0  0  0  0  0
    0.0833   -1.1608    1.8170 H   0  0  0  0  0  0  0  0  0  0  0  0
   -0.9302   -1.7961    0.0757 H   0  0  0  0  0  0  0  0  0  0  0  0
   -0.3227   -1.3309   -1.6209 H   0  0  0  0  0  0  0  0  0  0  0  0
   -1.9533    0.5097   -1.6151 H   0  0  0  0  0  0  0  0  0  0  0  0
   -2.4937    1.6981    0.6081 H   0  0  0  0  0  0  0  0  0  0  0  0
   -1.8159    0.1706    1.5092 H   0  0  0  0  0  0  0  0  0  0  0  0
   -0.0270    2.8625    0.3876 H   0  0  0  0  0  0  0  0  0  0  0  0
  1  2  3  0
  2  3  1  0
  3  4  1  0
  3  5  1  0
  5  6  1  0
  6  7  1  0
  7  8  1  0
  8  9  1  0
  8  3  1  0
  8  6  1  0
  1 10  1  0
  4 11  1  0
  4 12  1  0
  4 13  1  0
  5 14  1  0
  5 15  1  0
  6 16  1  0
  7 17  1  0
  7 18  1  0
  9 19  1  0
M  END
