
     RDKit          3D

 15 16  0  0  0  0  0  0  0  0999 V2000
    2.0657   -0.4323    2.1804 C   0  0  0  0  0  0  0  0  0  0  0  0
    1.3616   -0.3849    1.2032 C   0  0  0  0  0  0  0  0  0  0  0  0
    0.5149   -0.3503    0.0085 C   0  0  0  0  0  0  0  0  0  0  0  0
    0.5331    0.9200   -0.8349 C   0  0  0  0  0  0  0  0  0  0  0  0
   -0.8963    1.1392   -1.1961 C   0  0  0  0  0  0  0  0  0  0  0  0
   -1.3311    2.2482   -1.4735 O   0  0  0  0  0  0  0  0  0  0  0  0
   -1.5464   -0.1750   -1.1331 C   0  0  0  0  0  0  0  0  0  0  0  0
   -0.7117   -0.9216   -0.1002 C   0  0  0  0  0  0  0  0  0  0  0  0
    0.4976   -1.5307   -0.7169 O   0  0  0  0  0  0  0  0  0  0  0  0
    2.6918   -0.4829    3.0513 H   0  0  0  0  0  0  0  0  0  0  0  0
    1.1505    0.7360   -1.7374 H   0  0  0  0  0  0  0  0  0  0  0  0
    0.9510    1.7771   -0.2740 H   0  0  0  0  0  0  0  0  0  0  0  0
   -1.4277   -0.6750   -2.1340 H   0  0  0  0  0  0  0  0  0  0  0  0
   -2.6004   -0.1514   -0.8184 H   0  0  0  0  0  0  0  0  0  0  0  0
   -1.2525   -1.7164    0.4080 H   0  0  0  0  0  0  0  0  0  0  0  0
  1  2  3  0
  2  3  1  0
  3  4  1  0
  4  5  1  0
  5  6  2  0
  5  7  1  0
  7  8  1  0
  8  9  1  0
  8  3  1  0
  9  3  1  0
  1 10  1  0
  4 11  1  0
  4 12  1  0
  7 13  1  0
  7 14  1  0
  8 15  1  0
M  END
