
     RDKit          3D

 17 17  0  0  0  0  0  0  0  0999 V2000
    3.2180    1.1426    0.0954 C   0  0  0  0  0  0  0  0  0  0  0  0
    2.0774    0.7485    0.1439 C   0  0  0  0  0  0  0  0  0  0  0  0
    0.7142    0.2954    0.2017 C   0  0  0  0  0  0  0  0  0  0  0  0
   -0.3426    0.9854    0.6081 C   0  0  0  0  0  0  0  0  0  0  0  0
   -1.5766    0.1627    0.5172 C   0  0  0  0  0  0  0  0  0  0  0  0
   -2.6661    0.8553    0.0601 O   0  0  0  0  0  0  0  0  0  0  0  0
   -1.1958   -0.8607   -0.5332 C   0  0  0  0  0  0  0  0  0  0  0  0
    0.2742   -1.0817   -0.2070 C   0  0  0  0  0  0  0  0  0  0  0  0
    0.9076   -1.4442   -1.3685 O   0  0  0  0  0  0  0  0  0  0  0  0
    4.2226    1.5093    0.0502 H   0  0  0  0  0  0  0  0  0  0  0  0
   -0.3429    2.0078    0.9631 H   0  0  0  0  0  0  0  0  0  0  0  0
   -1.8122   -0.3284    1.4894 H   0  0  0  0  0  0  0  0  0  0  0  0
   -2.6279    1.8232    0.1462 H   0  0  0  0  0  0  0  0  0  0  0  0
   -1.2384   -0.3551   -1.5049 H   0  0  0  0  0  0  0  0  0  0  0  0
   -1.7889   -1.7815   -0.4805 H   0  0  0  0  0  0  0  0  0  0  0  0
    0.4016   -1.8103    0.6151 H   0  0  0  0  0  0  0  0  0  0  0  0
    1.7760   -1.8682   -1.1685 H   0  0  0  0  0  0  0  0  0  0  0  0
  1  2  3  0
  2  3  1  0
  3  4  2  0
  4  5  1  0
  5  6  1  0
  5  7  1  0
  7  8  1  0
  8  9  1  0
  8  3  1  0
  1 10  1  0
  4 11  1  0
  5 12  1  0
  6 13  1  0
  7 14  1  0
  7 15  1  0
  8 16  1  0
  9 17  1  0
M  END
