
     RDKit          3D

 15 14  0  0  0  0  0  0  0  0999 V2000
   -2.2535    1.5853    0.6016 C   0  0  0  0  0  0  0  0  0  0  0  0
   -2.0963    0.7526   -0.0949 C   0  0  0  0  0  0  0  0  0  0  0  0
   -1.8753   -0.4300   -1.0658 C   0  0  0  0  0  0  0  0  0  0  0  0
   -0.6635   -1.1479   -0.5532 C   0  0  0  0  0  0  0  0  0  0  0  0
   -0.6897   -2.3799   -0.4630 O   0  0  0  0  0  0  0  0  0  0  0  0
    0.5246   -0.3698   -0.1612 C   0  0  0  0  0  0  0  0  0  0  0  0
    0.5065    0.8723   -0.4311 O   0  0  0  0  0  0  0  0  0  0  0  0
    1.6346   -0.8411    0.4640 O   0  0  0  0  0  0  0  0  0  0  0  0
    2.7496   -0.0305    0.8194 C   0  0  0  0  0  0  0  0  0  0  0  0
   -2.4190    2.4331    1.3335 H   0  0  0  0  0  0  0  0  0  0  0  0
   -1.6818   -0.0879   -2.0526 H   0  0  0  0  0  0  0  0  0  0  0  0
   -2.7699   -1.0331   -0.9498 H   0  0  0  0  0  0  0  0  0  0  0  0
    3.1110    0.4663   -0.0802 H   0  0  0  0  0  0  0  0  0  0  0  0
    3.5050   -0.6078    1.3682 H   0  0  0  0  0  0  0  0  0  0  0  0
    2.4176    0.8184    1.5121 H   0  0  0  0  0  0  0  0  0  0  0  0
  1  2  3  0
  2  3  1  0
  3  4  1  0
  4  5  2  0
  4  6  1  0
  6  7  2  0
  6  8  1  0
  8  9  1  0
  1 10  1  0
  3 11  1  0
  3 12  1  0
  9 13  1  0
  9 14  1  0
  9 15  1  0
M  END
