
     RDKit          3D

 19 19  0  0  0  0  0  0  0  0999 V2000
    3.2410   -0.9739    0.1110 C   0  0  0  0  0  0  0  0  0  0  0  0
    2.1821   -0.6498   -0.4105 C   0  0  0  0  0  0  0  0  0  0  0  0
    0.9120   -0.2876   -1.0305 C   0  0  0  0  0  0  0  0  0  0  0  0
   -0.2539   -1.1457   -0.5198 C   0  0  0  0  0  0  0  0  0  0  0  0
   -0.3261   -0.1868    0.6490 C   0  0  0  0  0  0  0  0  0  0  0  0
   -1.6839    0.0877    1.1809 C   0  0  0  0  0  0  0  0  0  0  0  0
   -2.5539    0.6429    0.2609 O   0  0  0  0  0  0  0  0  0  0  0  0
    0.2408    0.8667   -0.2887 C   0  0  0  0  0  0  0  0  0  0  0  0
   -0.6960    1.5599   -1.0191 O   0  0  0  0  0  0  0  0  0  0  0  0
    4.1629   -1.2383    0.5546 H   0  0  0  0  0  0  0  0  0  0  0  0
    0.9721   -0.1857   -2.1098 H   0  0  0  0  0  0  0  0  0  0  0  0
    0.1715   -2.1088   -0.1796 H   0  0  0  0  0  0  0  0  0  0  0  0
   -1.1225   -1.1855   -1.1668 H   0  0  0  0  0  0  0  0  0  0  0  0
    0.3840   -0.4319    1.4600 H   0  0  0  0  0  0  0  0  0  0  0  0
   -1.6316    0.7237    2.0579 H   0  0  0  0  0  0  0  0  0  0  0  0
   -2.1356   -0.8921    1.4929 H   0  0  0  0  0  0  0  0  0  0  0  0
   -2.6044    1.6377    0.3340 H   0  0  0  0  0  0  0  0  0  0  0  0
    0.9567    1.5475    0.1951 H   0  0  0  0  0  0  0  0  0  0  0  0
   -0.2152    2.2202   -1.5714 H   0  0  0  0  0  0  0  0  0  0  0  0
  1  2  3  0
  2  3  1  0
  3  4  1  0
  4  5  1  0
  5  6  1  0
  6  7  1  0
  5  8  1  0
  8  9  1  0
  8  3  1  0
  1 10  1  0
  3 11  1  0
  4 12  1  0
  4 13  1  0
  5 14  1  0
  6 15  1  0
  6 16  1  0
  7 17  1  0
  8 18  1  0
  9 19  1  0
M  END
