
     RDKit          3D

 18 17  0  0  0  0  0  0  0  0999 V2000
   -1.5111    1.7356   -3.8709 C   0  0  0  0  0  0  0  0  0  0  0  0
   -1.4188    1.3273   -2.7810 C   0  0  0  0  0  0  0  0  0  0  0  0
   -1.3018    0.8362   -1.3969 C   0  0  0  0  0  0  0  0  0  0  0  0
   -2.3285    0.9181   -0.6927 O   0  0  0  0  0  0  0  0  0  0  0  0
   -0.0365    0.2840   -0.8921 C   0  0  0  0  0  0  0  0  0  0  0  0
   -0.1444   -0.1842    0.5284 C   0  0  0  0  0  0  0  0  0  0  0  0
    1.2048   -0.7305    0.9853 C   0  0  0  0  0  0  0  0  0  0  0  0
    1.0158   -1.1822    2.4136 C   0  0  0  0  0  0  0  0  0  0  0  0
   -1.6153    2.1180   -4.8829 H   0  0  0  0  0  0  0  0  0  0  0  0
    0.4208   -0.4734   -1.5565 H   0  0  0  0  0  0  0  0  0  0  0  0
    0.6998    1.1430   -0.8957 H   0  0  0  0  0  0  0  0  0  0  0  0
   -0.4530    0.6197    1.1960 H   0  0  0  0  0  0  0  0  0  0  0  0
   -0.8762   -1.0247    0.5769 H   0  0  0  0  0  0  0  0  0  0  0  0
    1.9538    0.0660    0.8884 H   0  0  0  0  0  0  0  0  0  0  0  0
    1.4042   -1.6079    0.3659 H   0  0  0  0  0  0  0  0  0  0  0  0
   -0.0330   -1.0559    2.7594 H   0  0  0  0  0  0  0  0  0  0  0  0
    1.6625   -0.5580    3.0980 H   0  0  0  0  0  0  0  0  0  0  0  0
    1.3569   -2.2312    2.4851 H   0  0  0  0  0  0  0  0  0  0  0  0
  1  2  3  0
  2  3  1  0
  3  4  2  0
  3  5  1  0
  5  6  1  0
  6  7  1  0
  7  8  1  0
  1  9  1  0
  5 10  1  0
  5 11  1  0
  6 12  1  0
  6 13  1  0
  7 14  1  0
  7 15  1  0
  8 16  1  0
  8 17  1  0
  8 18  1  0
M  END
