
     RDKit          3D

 17 18  0  0  0  0  0  0  0  0999 V2000
    2.7473    1.3815    0.5273 C   0  0  0  0  0  0  0  0  0  0  0  0
    1.9134    0.5039    0.4389 C   0  0  0  0  0  0  0  0  0  0  0  0
    0.9399   -0.5496    0.3190 C   0  0  0  0  0  0  0  0  0  0  0  0
    0.0261   -0.5736    1.3819 O   0  0  0  0  0  0  0  0  0  0  0  0
   -1.2060   -0.2785    0.8109 C   0  0  0  0  0  0  0  0  0  0  0  0
   -1.0725    1.0507    0.1212 C   0  0  0  0  0  0  0  0  0  0  0  0
   -0.3845    0.8197   -1.0848 O   0  0  0  0  0  0  0  0  0  0  0  0
    0.1265   -0.4660   -0.9539 C   0  0  0  0  0  0  0  0  0  0  0  0
   -1.1330   -1.1904   -0.4337 C   0  0  0  0  0  0  0  0  0  0  0  0
    3.4700    2.1621    0.6174 H   0  0  0  0  0  0  0  0  0  0  0  0
    1.4500   -1.5454    0.3004 H   0  0  0  0  0  0  0  0  0  0  0  0
   -2.0649   -0.4369    1.4143 H   0  0  0  0  0  0  0  0  0  0  0  0
   -0.4193    1.7248    0.7161 H   0  0  0  0  0  0  0  0  0  0  0  0
   -2.0428    1.5554   -0.0463 H   0  0  0  0  0  0  0  0  0  0  0  0
    0.5516   -0.9040   -1.8234 H   0  0  0  0  0  0  0  0  0  0  0  0
   -0.9194   -2.2193   -0.1470 H   0  0  0  0  0  0  0  0  0  0  0  0
   -1.9827   -1.0344   -1.0935 H   0  0  0  0  0  0  0  0  0  0  0  0
  1  2  3  0
  2  3  1  0
  3  4  1  0
  4  5  1  0
  5  6  1  0
  6  7  1  0
  7  8  1  0
  8  9  1  0
  8  3  1  0
  9  5  1  0
  1 10  1  0
  3 11  1  0
  5 12  1  0
  6 13  1  0
  6 14  1  0
  8 15  1  0
  9 16  1  0
  9 17  1  0
M  END
