
     RDKit          3D

 19 19  0  0  0  0  0  0  0  0999 V2000
    3.3018    0.2117   -0.5084 C   0  0  0  0  0  0  0  0  0  0  0  0
    2.1485   -0.0710   -0.2991 C   0  0  0  0  0  0  0  0  0  0  0  0
    0.7769   -0.3968   -0.0419 C   0  0  0  0  0  0  0  0  0  0  0  0
   -0.0666    0.5773    0.1966 C   0  0  0  0  0  0  0  0  0  0  0  0
    0.2869    2.0080    0.2224 C   0  0  0  0  0  0  0  0  0  0  0  0
   -1.4833    0.1918    0.4592 C   0  0  0  0  0  0  0  0  0  0  0  0
   -1.9051   -0.9679   -0.3702 C   0  0  0  0  0  0  0  0  0  0  0  0
   -0.9510   -1.8832   -0.6744 O   0  0  0  0  0  0  0  0  0  0  0  0
    0.2436   -1.7813   -0.0280 C   0  0  0  0  0  0  0  0  0  0  0  0
    4.3182    0.4674   -0.6807 H   0  0  0  0  0  0  0  0  0  0  0  0
   -0.4217    2.5291   -0.4655 H   0  0  0  0  0  0  0  0  0  0  0  0
    0.0745    2.4116    1.2366 H   0  0  0  0  0  0  0  0  0  0  0  0
    1.2935    2.2247   -0.1377 H   0  0  0  0  0  0  0  0  0  0  0  0
   -1.5451   -0.0172    1.5547 H   0  0  0  0  0  0  0  0  0  0  0  0
   -2.1441    1.0556    0.2415 H   0  0  0  0  0  0  0  0  0  0  0  0
   -2.3249   -0.5513   -1.3326 H   0  0  0  0  0  0  0  0  0  0  0  0
   -2.7743   -1.4559    0.1585 H   0  0  0  0  0  0  0  0  0  0  0  0
    0.1825   -2.1331    1.0401 H   0  0  0  0  0  0  0  0  0  0  0  0
    0.9898   -2.4197   -0.5710 H   0  0  0  0  0  0  0  0  0  0  0  0
  1  2  3  0
  2  3  1  0
  3  4  2  0
  4  5  1  0
  4  6  1  0
  6  7  1  0
  7  8  1  0
  8  9  1  0
  9  3  1  0
  1 10  1  0
  5 11  1  0
  5 12  1  0
  5 13  1  0
  6 14  1  0
  6 15  1  0
  7 16  1  0
  7 17  1  0
  9 18  1  0
  9 19  1  0
M  END
