
     RDKit          3D

 21 22  0  0  0  0  0  0  0  0999 V2000
   -2.3180   -1.5688   -0.1264 C   0  0  0  0  0  0  0  0  0  0  0  0
   -1.3968   -0.8442   -0.3961 C   0  0  0  0  0  0  0  0  0  0  0  0
   -0.2736    0.0128   -0.7340 C   0  0  0  0  0  0  0  0  0  0  0  0
    0.7791   -0.4086   -1.6790 C   0  0  0  0  0  0  0  0  0  0  0  0
    1.0546   -0.3436   -0.2232 C   0  0  0  0  0  0  0  0  0  0  0  0
    1.3213   -1.6181    0.5244 C   0  0  0  0  0  0  0  0  0  0  0  0
    1.1209    0.9559    0.5104 C   0  0  0  0  0  0  0  0  0  0  0  0
   -0.1553    1.3828   -0.1609 C   0  0  0  0  0  0  0  0  0  0  0  0
   -1.3014    1.7147    0.7389 C   0  0  0  0  0  0  0  0  0  0  0  0
   -3.1275   -2.2155    0.0952 H   0  0  0  0  0  0  0  0  0  0  0  0
    1.1578    0.3949   -2.3628 H   0  0  0  0  0  0  0  0  0  0  0  0
    0.6782   -1.4328   -2.0902 H   0  0  0  0  0  0  0  0  0  0  0  0
    2.2958   -1.5057    1.0779 H   0  0  0  0  0  0  0  0  0  0  0  0
    0.5427   -1.8254    1.2992 H   0  0  0  0  0  0  0  0  0  0  0  0
    1.4531   -2.4626   -0.1808 H   0  0  0  0  0  0  0  0  0  0  0  0
    2.0232    1.5524    0.2420 H   0  0  0  0  0  0  0  0  0  0  0  0
    1.0028    0.7921    1.6003 H   0  0  0  0  0  0  0  0  0  0  0  0
    0.0358    2.1277   -0.9569 H   0  0  0  0  0  0  0  0  0  0  0  0
   -1.2329    2.7003    1.2256 H   0  0  0  0  0  0  0  0  0  0  0  0
   -2.2363    1.6760    0.1052 H   0  0  0  0  0  0  0  0  0  0  0  0
   -1.4234    0.9157    1.4911 H   0  0  0  0  0  0  0  0  0  0  0  0
  1  2  3  0
  2  3  1  0
  3  4  1  0
  4  5  1  0
  5  6  1  0
  5  7  1  0
  7  8  1  0
  8  9  1  0
  5  3  1  0
  8  3  1  0
  1 10  1  0
  4 11  1  0
  4 12  1  0
  6 13  1  0
  6 14  1  0
  6 15  1  0
  7 16  1  0
  7 17  1  0
  8 18  1  0
  9 19  1  0
  9 20  1  0
  9 21  1  0
M  END
