
     RDKit          3D

 14 13  0  0  0  0  0  0  0  0999 V2000
    1.1108   -0.0523   -3.5878 C   0  0  0  0  0  0  0  0  0  0  0  0
    1.1209   -0.1850   -2.3794 C   0  0  0  0  0  0  0  0  0  0  0  0
    1.1509   -0.3243   -0.9505 C   0  0  0  0  0  0  0  0  0  0  0  0
    2.1679   -0.7307   -0.3595 O   0  0  0  0  0  0  0  0  0  0  0  0
   -0.0431    0.0190   -0.1600 C   0  0  0  0  0  0  0  0  0  0  0  0
   -1.0767    0.4293   -0.7309 O   0  0  0  0  0  0  0  0  0  0  0  0
   -0.0306   -0.1181    1.3122 C   0  0  0  0  0  0  0  0  0  0  0  0
   -1.3792    0.3022    1.8439 C   0  0  0  0  0  0  0  0  0  0  0  0
    1.0990    0.0814   -4.6395 H   0  0  0  0  0  0  0  0  0  0  0  0
    0.1353   -1.1780    1.6354 H   0  0  0  0  0  0  0  0  0  0  0  0
    0.7677    0.5506    1.7075 H   0  0  0  0  0  0  0  0  0  0  0  0
   -1.6957    1.2050    1.2785 H   0  0  0  0  0  0  0  0  0  0  0  0
   -2.0788   -0.5424    1.6777 H   0  0  0  0  0  0  0  0  0  0  0  0
   -1.2484    0.5433    2.9188 H   0  0  0  0  0  0  0  0  0  0  0  0
  1  2  3  0
  2  3  1  0
  3  4  2  0
  3  5  1  0
  5  6  2  0
  5  7  1  0
  7  8  1  0
  1  9  1  0
  7 10  1  0
  7 11  1  0
  8 12  1  0
  8 13  1  0
  8 14  1  0
M  END
