
     RDKit          3D

 23 22  0  0  0  0  0  0  0  0999 V2000
    3.7646    0.6157   -1.2569 C   0  0  0  0  0  0  0  0  0  0  0  0
    2.7026    0.0681   -1.0028 C   0  0  0  0  0  0  0  0  0  0  0  0
    1.4294   -0.5824   -0.6741 C   0  0  0  0  0  0  0  0  0  0  0  0
    0.5012    0.4767   -0.1637 C   0  0  0  0  0  0  0  0  0  0  0  0
    0.3040    1.4378   -1.1191 O   0  0  0  0  0  0  0  0  0  0  0  0
   -0.7961   -0.0678    0.3743 C   0  0  0  0  0  0  0  0  0  0  0  0
   -1.5846   -0.8258   -0.6471 C   0  0  0  0  0  0  0  0  0  0  0  0
   -0.4711   -0.9691    1.5358 C   0  0  0  0  0  0  0  0  0  0  0  0
   -1.5932    1.1070    0.9135 C   0  0  0  0  0  0  0  0  0  0  0  0
    4.6766    1.1045   -1.4855 H   0  0  0  0  0  0  0  0  0  0  0  0
    1.0436   -1.1333   -1.5396 H   0  0  0  0  0  0  0  0  0  0  0  0
    1.6046   -1.3431    0.1336 H   0  0  0  0  0  0  0  0  0  0  0  0
    1.0209    0.9589    0.7150 H   0  0  0  0  0  0  0  0  0  0  0  0
   -0.6809    1.5565   -1.3042 H   0  0  0  0  0  0  0  0  0  0  0  0
   -2.3688   -0.1360   -1.0532 H   0  0  0  0  0  0  0  0  0  0  0  0
   -2.1116   -1.6675   -0.1107 H   0  0  0  0  0  0  0  0  0  0  0  0
   -0.9927   -1.2302   -1.4683 H   0  0  0  0  0  0  0  0  0  0  0  0
   -1.2514   -0.8369    2.3129 H   0  0  0  0  0  0  0  0  0  0  0  0
   -0.5061   -2.0239    1.1573 H   0  0  0  0  0  0  0  0  0  0  0  0
    0.5533   -0.7463    1.9289 H   0  0  0  0  0  0  0  0  0  0  0  0
   -2.1780    0.7900    1.8013 H   0  0  0  0  0  0  0  0  0  0  0  0
   -0.8631    1.8576    1.2811 H   0  0  0  0  0  0  0  0  0  0  0  0
   -2.2031    1.5894    0.1402 H   0  0  0  0  0  0  0  0  0  0  0  0
  1  2  3  0
  2  3  1  0
  3  4  1  0
  4  5  1  0
  4  6  1  0
  6  7  1  0
  6  8  1  0
  6  9  1  0
  1 10  1  0
  3 11  1  0
  3 12  1  0
  4 13  1  0
  5 14  1  0
  7 15  1  0
  7 16  1  0
  7 17  1  0
  8 18  1  0
  8 19  1  0
  8 20  1  0
  9 21  1  0
  9 22  1  0
  9 23  1  0
M  END
