
     RDKit          3D

 21 21  0  0  0  0  0  0  0  0999 V2000
    0.9166    1.7170    2.6206 C   0  0  0  0  0  0  0  0  0  0  0  0
    0.7332    1.2972    1.6367 C   0  0  0  0  0  0  0  0  0  0  0  0
    0.4827    0.7240    0.2360 C   0  0  0  0  0  0  0  0  0  0  0  0
    1.4581   -0.3448    0.0098 C   0  0  0  0  0  0  0  0  0  0  0  0
    1.4356   -1.0240   -1.3270 C   0  0  0  0  0  0  0  0  0  0  0  0
   -0.9633    0.4505    0.2144 C   0  0  0  0  0  0  0  0  0  0  0  0
   -1.7260    1.6673    0.4098 O   0  0  0  0  0  0  0  0  0  0  0  0
   -1.7211   -0.7101   -0.1709 C   0  0  0  0  0  0  0  0  0  0  0  0
   -1.3576   -0.6156    1.2818 C   0  0  0  0  0  0  0  0  0  0  0  0
    1.0917    2.1567    3.6617 H   0  0  0  0  0  0  0  0  0  0  0  0
    0.7445    1.5954   -0.4428 H   0  0  0  0  0  0  0  0  0  0  0  0
    1.4441   -1.1521    0.7886 H   0  0  0  0  0  0  0  0  0  0  0  0
    2.4919    0.1067    0.1536 H   0  0  0  0  0  0  0  0  0  0  0  0
    2.3994   -1.6313   -1.4354 H   0  0  0  0  0  0  0  0  0  0  0  0
    0.6442   -1.7624   -1.3990 H   0  0  0  0  0  0  0  0  0  0  0  0
    1.4703   -0.2757   -2.1606 H   0  0  0  0  0  0  0  0  0  0  0  0
   -2.5975    1.5431   -0.0772 H   0  0  0  0  0  0  0  0  0  0  0  0
   -1.4258   -1.6212   -0.6714 H   0  0  0  0  0  0  0  0  0  0  0  0
   -2.8411   -0.5208   -0.3151 H   0  0  0  0  0  0  0  0  0  0  0  0
   -0.5744   -1.2792    1.6535 H   0  0  0  0  0  0  0  0  0  0  0  0
   -2.1057   -0.3207    2.0250 H   0  0  0  0  0  0  0  0  0  0  0  0
  1  2  3  0
  2  3  1  0
  3  4  1  0
  4  5  1  0
  3  6  1  0
  6  7  1  0
  6  8  1  0
  8  9  1  0
  9  6  1  0
  1 10  1  0
  3 11  1  0
  4 12  1  0
  4 13  1  0
  5 14  1  0
  5 15  1  0
  5 16  1  0
  7 17  1  0
  8 18  1  0
  8 19  1  0
  9 20  1  0
  9 21  1  0
M  END
