
     RDKit          3D

 21 21  0  0  0  0  0  0  0  0999 V2000
    2.5204    1.1043   -1.4068 C   0  0  0  0  0  0  0  0  0  0  0  0
    2.1093    0.1374   -0.8096 C   0  0  0  0  0  0  0  0  0  0  0  0
    1.6046   -1.0315   -0.0580 C   0  0  0  0  0  0  0  0  0  0  0  0
    0.1523   -0.8350    0.2765 C   0  0  0  0  0  0  0  0  0  0  0  0
   -0.5977   -0.6868   -1.0314 C   0  0  0  0  0  0  0  0  0  0  0  0
   -2.0267   -0.3336   -0.6178 C   0  0  0  0  0  0  0  0  0  0  0  0
   -2.1040    0.9547   -0.1309 O   0  0  0  0  0  0  0  0  0  0  0  0
   -0.9304    1.4227    0.4246 C   0  0  0  0  0  0  0  0  0  0  0  0
   -0.1265    0.3522    1.1185 C   0  0  0  0  0  0  0  0  0  0  0  0
    2.8798    1.9523   -1.9501 H   0  0  0  0  0  0  0  0  0  0  0  0
    2.2128   -1.1926    0.8347 H   0  0  0  0  0  0  0  0  0  0  0  0
    1.7058   -1.9079   -0.7292 H   0  0  0  0  0  0  0  0  0  0  0  0
   -0.2060   -1.7675    0.7781 H   0  0  0  0  0  0  0  0  0  0  0  0
   -0.6173   -1.6923   -1.4975 H   0  0  0  0  0  0  0  0  0  0  0  0
   -0.1520    0.0727   -1.6854 H   0  0  0  0  0  0  0  0  0  0  0  0
   -2.2794   -1.0191    0.2179 H   0  0  0  0  0  0  0  0  0  0  0  0
   -2.7243   -0.5427   -1.4374 H   0  0  0  0  0  0  0  0  0  0  0  0
   -0.3141    1.9910   -0.3105 H   0  0  0  0  0  0  0  0  0  0  0  0
   -1.2198    2.1604    1.2052 H   0  0  0  0  0  0  0  0  0  0  0  0
   -0.7076    0.0451    2.0305 H   0  0  0  0  0  0  0  0  0  0  0  0
    0.8208    0.8162    1.4558 H   0  0  0  0  0  0  0  0  0  0  0  0
  1  2  3  0
  2  3  1  0
  3  4  1  0
  4  5  1  0
  5  6  1  0
  6  7  1  0
  7  8  1  0
  8  9  1  0
  9  4  1  0
  1 10  1  0
  3 11  1  0
  3 12  1  0
  4 13  1  0
  5 14  1  0
  5 15  1  0
  6 16  1  0
  6 17  1  0
  8 18  1  0
  8 19  1  0
  9 20  1  0
  9 21  1  0
M  END
