
     RDKit          3D

 19 20  0  0  0  0  0  0  0  0999 V2000
    2.3489   -1.9959    0.7185 C   0  0  0  0  0  0  0  0  0  0  0  0
    1.6970   -1.2467    0.3398 C   0  0  0  0  0  0  0  0  0  0  0  0
    0.7786   -0.1974   -0.1713 C   0  0  0  0  0  0  0  0  0  0  0  0
    1.0623    1.2495   -0.2865 C   0  0  0  0  0  0  0  0  0  0  0  0
   -0.2595    1.8757    0.1917 C   0  0  0  0  0  0  0  0  0  0  0  0
   -1.2939    0.9589   -0.4374 C   0  0  0  0  0  0  0  0  0  0  0  0
   -0.5967   -0.4012   -0.3321 C   0  0  0  0  0  0  0  0  0  0  0  0
   -1.3873   -1.5395    0.2785 C   0  0  0  0  0  0  0  0  0  0  0  0
    0.2290   -0.6834   -1.4535 O   0  0  0  0  0  0  0  0  0  0  0  0
    3.0830   -2.8113    1.1449 H   0  0  0  0  0  0  0  0  0  0  0  0
    1.9152    1.5514    0.3266 H   0  0  0  0  0  0  0  0  0  0  0  0
    1.2073    1.5951   -1.3774 H   0  0  0  0  0  0  0  0  0  0  0  0
   -0.2214    1.8238    1.2716 H   0  0  0  0  0  0  0  0  0  0  0  0
   -0.2668    2.9112   -0.2219 H   0  0  0  0  0  0  0  0  0  0  0  0
   -2.2760    0.9846    0.0829 H   0  0  0  0  0  0  0  0  0  0  0  0
   -1.4244    1.2259   -1.4967 H   0  0  0  0  0  0  0  0  0  0  0  0
   -1.6693   -2.2516   -0.4804 H   0  0  0  0  0  0  0  0  0  0  0  0
   -0.6778   -1.9547    1.0682 H   0  0  0  0  0  0  0  0  0  0  0  0
   -2.2482   -1.0945    0.8346 H   0  0  0  0  0  0  0  0  0  0  0  0
  1  2  3  0
  2  3  1  0
  3  4  1  0
  4  5  1  0
  5  6  1  0
  6  7  1  0
  7  8  1  0
  7  9  1  0
  7  3  1  0
  9  3  1  0
  1 10  1  0
  4 11  1  0
  4 12  1  0
  5 13  1  0
  5 14  1  0
  6 15  1  0
  6 16  1  0
  8 17  1  0
  8 18  1  0
  8 19  1  0
M  END
