
     RDKit          3D

 19 18  0  0  0  0  0  0  0  0999 V2000
    1.9488    2.5405   -0.6853 C   0  0  0  0  0  0  0  0  0  0  0  0
    1.2465    1.8938   -0.0823 C   0  0  0  0  0  0  0  0  0  0  0  0
    0.3670    1.0660    0.7059 C   0  0  0  0  0  0  0  0  0  0  0  0
   -0.2901    1.9085    1.7231 C   0  0  0  0  0  0  0  0  0  0  0  0
   -1.4705    1.7353    1.9736 O   0  0  0  0  0  0  0  0  0  0  0  0
   -0.4911    0.3267   -0.0090 O   0  0  0  0  0  0  0  0  0  0  0  0
   -0.1337   -1.0165   -0.1514 C   0  0  0  0  0  0  0  0  0  0  0  0
   -1.1695   -1.9998    0.3596 C   0  0  0  0  0  0  0  0  0  0  0  0
   -0.1244   -1.1705   -1.6917 C   0  0  0  0  0  0  0  0  0  0  0  0
    2.7178    3.2605   -1.3272 H   0  0  0  0  0  0  0  0  0  0  0  0
    1.0967    0.3014    1.2133 H   0  0  0  0  0  0  0  0  0  0  0  0
    0.2787    2.6763    2.2328 H   0  0  0  0  0  0  0  0  0  0  0  0
    0.8328   -1.1891    0.3040 H   0  0  0  0  0  0  0  0  0  0  0  0
   -1.0961   -2.9662   -0.2378 H   0  0  0  0  0  0  0  0  0  0  0  0
   -0.9406   -2.2224    1.4374 H   0  0  0  0  0  0  0  0  0  0  0  0
   -2.2038   -1.6609    0.2925 H   0  0  0  0  0  0  0  0  0  0  0  0
    0.5976   -0.4199   -2.0668 H   0  0  0  0  0  0  0  0  0  0  0  0
    0.0136   -2.1826   -2.0359 H   0  0  0  0  0  0  0  0  0  0  0  0
   -1.1796   -0.8809   -1.9548 H   0  0  0  0  0  0  0  0  0  0  0  0
  1  2  3  0
  2  3  1  0
  3  4  1  0
  4  5  2  0
  3  6  1  0
  6  7  1  0
  7  8  1  0
  7  9  1  0
  1 10  1  0
  3 11  1  0
  4 12  1  0
  7 13  1  0
  8 14  1  0
  8 15  1  0
  8 16  1  0
  9 17  1  0
  9 18  1  0
  9 19  1  0
M  END
