
     RDKit          3D

 17 17  0  0  0  0  0  0  0  0999 V2000
    2.1795    1.6529    1.2199 C   0  0  0  0  0  0  0  0  0  0  0  0
    1.4618    0.9674    0.3215 C   0  0  0  0  0  0  0  0  0  0  0  0
    0.7074    0.2422   -0.6338 C   0  0  0  0  0  0  0  0  0  0  0  0
    0.5119   -1.1386   -0.3392 C   0  0  0  0  0  0  0  0  0  0  0  0
    0.8639   -2.0970   -1.1247 O   0  0  0  0  0  0  0  0  0  0  0  0
   -0.1253   -1.3782    0.9364 C   0  0  0  0  0  0  0  0  0  0  0  0
   -0.8431   -0.0481    1.1662 C   0  0  0  0  0  0  0  0  0  0  0  0
   -0.8326    0.6432   -0.2227 C   0  0  0  0  0  0  0  0  0  0  0  0
   -1.6740    0.0317   -1.0477 O   0  0  0  0  0  0  0  0  0  0  0  0
    2.7458    2.1790    1.9035 H   0  0  0  0  0  0  0  0  0  0  0  0
    0.8432    0.6251   -1.6219 H   0  0  0  0  0  0  0  0  0  0  0  0
    0.5655   -1.5835    1.7781 H   0  0  0  0  0  0  0  0  0  0  0  0
   -0.8677   -2.2001    0.8671 H   0  0  0  0  0  0  0  0  0  0  0  0
   -0.2717    0.5657    1.8713 H   0  0  0  0  0  0  0  0  0  0  0  0
   -1.8468   -0.2208    1.5090 H   0  0  0  0  0  0  0  0  0  0  0  0
   -0.8057    1.6973   -0.0501 H   0  0  0  0  0  0  0  0  0  0  0  0
   -2.6123    0.0619   -0.7835 H   0  0  0  0  0  0  0  0  0  0  0  0
  1  2  3  0
  2  3  1  0
  3  4  1  0
  4  5  2  0
  4  6  1  0
  6  7  1  0
  7  8  1  0
  8  9  1  0
  8  3  1  0
  1 10  1  0
  3 11  1  0
  6 12  1  0
  6 13  1  0
  7 14  1  0
  7 15  1  0
  8 16  1  0
  9 17  1  0
M  END
