
     RDKit          3D

 21 20  0  0  0  0  0  0  0  0999 V2000
    1.4122   -2.0994   -0.4328 C   0  0  0  0  0  0  0  0  0  0  0  0
    0.6828   -1.6276   -0.0658 C   0  0  0  0  0  0  0  0  0  0  0  0
   -0.7112   -0.7341    0.6118 C   0  0  0  0  0  0  0  0  0  0  0  0
   -1.8134   -1.4051    0.0247 C   0  0  0  0  0  0  0  0  0  0  0  0
   -0.1948    0.5720    0.4168 C   0  0  0  0  0  0  0  0  0  0  0  0
    0.9623    0.9585    1.3622 C   0  0  0  0  0  0  0  0  0  0  0  0
    1.9824    1.6333    0.7118 O   0  0  0  0  0  0  0  0  0  0  0  0
   -0.9154    1.5572   -0.1264 O   0  0  0  0  0  0  0  0  0  0  0  0
   -0.5442    1.7572   -1.4933 C   0  0  0  0  0  0  0  0  0  0  0  0
    2.3487   -2.7111   -0.8829 H   0  0  0  0  0  0  0  0  0  0  0  0
   -0.5623   -1.1463    1.6671 H   0  0  0  0  0  0  0  0  0  0  0  0
   -1.5940   -2.5162   -0.0020 H   0  0  0  0  0  0  0  0  0  0  0  0
   -2.2647   -1.0757   -0.9411 H   0  0  0  0  0  0  0  0  0  0  0  0
   -2.6987   -1.2514    0.8080 H   0  0  0  0  0  0  0  0  0  0  0  0
    0.5982    0.3644   -0.5657 H   0  0  0  0  0  0  0  0  0  0  0  0
    0.4941    1.6371    2.1448 H   0  0  0  0  0  0  0  0  0  0  0  0
    1.3607    0.0307    1.7962 H   0  0  0  0  0  0  0  0  0  0  0  0
    2.6242    0.8741    0.4138 H   0  0  0  0  0  0  0  0  0  0  0  0
   -0.9685    0.9040   -2.0768 H   0  0  0  0  0  0  0  0  0  0  0  0
   -0.7672    2.7319   -1.8007 H   0  0  0  0  0  0  0  0  0  0  0  0
    0.5688    1.5465   -1.5696 H   0  0  0  0  0  0  0  0  0  0  0  0
  1  2  3  0
  2  3  1  0
  3  4  1  0
  3  5  1  0
  5  6  1  0
  6  7  1  0
  5  8  1  0
  8  9  1  0
  1 10  1  0
  3 11  1  0
  4 12  1  0
  4 13  1  0
  4 14  1  0
  5 15  1  0
  6 16  1  0
  6 17  1  0
  7 18  1  0
  9 19  1  0
  9 20  1  0
  9 21  1  0
M  END
