
     RDKit          3D

 20 20  0  0  0  0  0  0  0  0999 V2000
    3.8193   -0.3884    0.8787 C   0  0  0  0  0  0  0  0  0  0  0  0
    2.6712   -0.8141    0.7801 C   0  0  0  0  0  0  0  0  0  0  0  0
    1.3009   -1.3380    0.6831 C   0  0  0  0  0  0  0  0  0  0  0  0
    0.5353   -0.4125   -0.2229 C   0  0  0  0  0  0  0  0  0  0  0  0
   -0.9167   -0.7803   -0.4640 C   0  0  0  0  0  0  0  0  0  0  0  0
   -1.1618    0.7347   -0.5382 C   0  0  0  0  0  0  0  0  0  0  0  0
   -2.5011    1.1846   -0.0795 C   0  0  0  0  0  0  0  0  0  0  0  0
   -0.0325    0.8218    0.4975 C   0  0  0  0  0  0  0  0  0  0  0  0
    4.8118   -0.0263    0.9462 H   0  0  0  0  0  0  0  0  0  0  0  0
    0.8534   -1.3300    1.7067 H   0  0  0  0  0  0  0  0  0  0  0  0
    1.3494   -2.3678    0.3213 H   0  0  0  0  0  0  0  0  0  0  0  0
    1.0006   -0.1366   -1.1697 H   0  0  0  0  0  0  0  0  0  0  0  0
   -1.4489   -1.1990    0.3855 H   0  0  0  0  0  0  0  0  0  0  0  0
   -1.0755   -1.2397   -1.4466 H   0  0  0  0  0  0  0  0  0  0  0  0
   -0.8069    1.2018   -1.4693 H   0  0  0  0  0  0  0  0  0  0  0  0
   -2.7445    2.1288   -0.6393 H   0  0  0  0  0  0  0  0  0  0  0  0
   -2.5833    1.3208    1.0209 H   0  0  0  0  0  0  0  0  0  0  0  0
   -3.2916    0.4439   -0.3506 H   0  0  0  0  0  0  0  0  0  0  0  0
    0.5749    1.7213    0.4478 H   0  0  0  0  0  0  0  0  0  0  0  0
   -0.3539    0.4750    1.5226 H   0  0  0  0  0  0  0  0  0  0  0  0
  1  2  3  0
  2  3  1  0
  3  4  1  0
  4  5  1  0
  5  6  1  0
  6  7  1  0
  6  8  1  0
  8  4  1  0
  1  9  1  0
  3 10  1  0
  3 11  1  0
  4 12  1  0
  5 13  1  0
  5 14  1  0
  6 15  1  0
  7 16  1  0
  7 17  1  0
  7 18  1  0
  8 19  1  0
  8 20  1  0
M  END
