
     RDKit          3D

 21 21  0  0  0  0  0  0  0  0999 V2000
    3.1658   -1.0224    0.6568 C   0  0  0  0  0  0  0  0  0  0  0  0
    2.1945   -1.3499    0.0210 C   0  0  0  0  0  0  0  0  0  0  0  0
    1.0146   -1.7233   -0.7592 C   0  0  0  0  0  0  0  0  0  0  0  0
    0.2798   -0.4876   -1.2611 C   0  0  0  0  0  0  0  0  0  0  0  0
   -0.1353    0.3022   -0.0596 C   0  0  0  0  0  0  0  0  0  0  0  0
   -0.8826    1.5675   -0.4279 C   0  0  0  0  0  0  0  0  0  0  0  0
   -1.7280    1.7530    0.8163 C   0  0  0  0  0  0  0  0  0  0  0  0
   -2.0406    0.4969    1.2727 O   0  0  0  0  0  0  0  0  0  0  0  0
   -1.1263   -0.4018    0.8037 C   0  0  0  0  0  0  0  0  0  0  0  0
    4.0068   -0.7371    1.2293 H   0  0  0  0  0  0  0  0  0  0  0  0
    1.3670   -2.3639   -1.5946 H   0  0  0  0  0  0  0  0  0  0  0  0
    0.3536   -2.3245   -0.0832 H   0  0  0  0  0  0  0  0  0  0  0  0
   -0.5380   -0.7442   -1.9272 H   0  0  0  0  0  0  0  0  0  0  0  0
    1.0462    0.1271   -1.8065 H   0  0  0  0  0  0  0  0  0  0  0  0
    0.7576    0.5959    0.5207 H   0  0  0  0  0  0  0  0  0  0  0  0
   -1.5647    1.3791   -1.3004 H   0  0  0  0  0  0  0  0  0  0  0  0
   -0.1966    2.4092   -0.6103 H   0  0  0  0  0  0  0  0  0  0  0  0
   -2.6243    2.3458    0.5340 H   0  0  0  0  0  0  0  0  0  0  0  0
   -1.1026    2.3080    1.5491 H   0  0  0  0  0  0  0  0  0  0  0  0
   -1.6565   -1.2123    0.2245 H   0  0  0  0  0  0  0  0  0  0  0  0
   -0.5905   -0.9178    1.6474 H   0  0  0  0  0  0  0  0  0  0  0  0
  1  2  3  0
  2  3  1  0
  3  4  1  0
  4  5  1  0
  5  6  1  0
  6  7  1  0
  7  8  1  0
  8  9  1  0
  9  5  1  0
  1 10  1  0
  3 11  1  0
  3 12  1  0
  4 13  1  0
  4 14  1  0
  5 15  1  0
  6 16  1  0
  6 17  1  0
  7 18  1  0
  7 19  1  0
  9 20  1  0
  9 21  1  0
M  END
