
     RDKit          3D

 19 19  0  0  0  0  0  0  0  0999 V2000
   -2.8679    0.9295   -0.3551 C   0  0  0  0  0  0  0  0  0  0  0  0
   -2.1478   -0.0015   -0.0095 C   0  0  0  0  0  0  0  0  0  0  0  0
   -1.2076   -1.1899    0.4311 C   0  0  0  0  0  0  0  0  0  0  0  0
   -0.1536   -0.6605    1.2657 C   0  0  0  0  0  0  0  0  0  0  0  0
    0.8347   -0.0450    0.3211 C   0  0  0  0  0  0  0  0  0  0  0  0
    1.4558   -1.0317   -0.6402 C   0  0  0  0  0  0  0  0  0  0  0  0
    2.2883   -1.7812   -0.1026 O   0  0  0  0  0  0  0  0  0  0  0  0
    0.4961    1.2946   -0.2247 C   0  0  0  0  0  0  0  0  0  0  0  0
    1.7210    1.0691    0.6521 C   0  0  0  0  0  0  0  0  0  0  0  0
   -3.3398    1.5591   -0.5935 H   0  0  0  0  0  0  0  0  0  0  0  0
   -1.9942   -1.7698    1.1125 H   0  0  0  0  0  0  0  0  0  0  0  0
   -0.9663   -1.7536   -0.4089 H   0  0  0  0  0  0  0  0  0  0  0  0
   -0.5229    0.0608    2.0336 H   0  0  0  0  0  0  0  0  0  0  0  0
    0.3831   -1.5334    1.7697 H   0  0  0  0  0  0  0  0  0  0  0  0
    1.2447   -1.1173   -1.6664 H   0  0  0  0  0  0  0  0  0  0  0  0
    0.6298    1.5524   -1.2887 H   0  0  0  0  0  0  0  0  0  0  0  0
   -0.2627    1.9000    0.2934 H   0  0  0  0  0  0  0  0  0  0  0  0
    1.6984    1.3795    1.7163 H   0  0  0  0  0  0  0  0  0  0  0  0
    2.7108    1.1390    0.1565 H   0  0  0  0  0  0  0  0  0  0  0  0
  1  2  3  0
  2  3  1  0
  3  4  1  0
  4  5  1  0
  5  6  1  0
  6  7  2  0
  5  8  1  0
  8  9  1  0
  9  5  1  0
  1 10  1  0
  3 11  1  0
  3 12  1  0
  4 13  1  0
  4 14  1  0
  6 15  1  0
  8 16  1  0
  8 17  1  0
  9 18  1  0
  9 19  1  0
M  END
