
     RDKit          3D

 19 18  0  0  0  0  0  0  0  0999 V2000
    4.2645   -0.5706   -2.5358 C   0  0  0  0  0  0  0  0  0  0  0  0
    3.3360   -0.3930   -1.9126 C   0  0  0  0  0  0  0  0  0  0  0  0
    1.9159   -0.1466   -0.9789 C   0  0  0  0  0  0  0  0  0  0  0  0
    1.1494   -0.0220   -0.4709 C   0  0  0  0  0  0  0  0  0  0  0  0
    0.0076    0.1481    0.2653 C   0  0  0  0  0  0  0  0  0  0  0  0
   -1.0183    0.1919   -1.1946 C   0  0  0  0  0  0  0  0  0  0  0  0
   -1.0124    0.3655    1.0799 C   0  0  0  0  0  0  0  0  0  0  0  0
   -1.0384   -0.2914    2.4534 C   0  0  0  0  0  0  0  0  0  0  0  0
   -2.3356    0.0013    0.5698 O   0  0  0  0  0  0  0  0  0  0  0  0
    4.9343   -0.7005   -2.9819 H   0  0  0  0  0  0  0  0  0  0  0  0
    0.0796    1.5481    0.0285 H   0  0  0  0  0  0  0  0  0  0  0  0
   -1.6891    0.9639   -0.9024 H   0  0  0  0  0  0  0  0  0  0  0  0
   -1.3338   -0.8276   -1.1112 H   0  0  0  0  0  0  0  0  0  0  0  0
   -0.2365    0.4653   -1.8750 H   0  0  0  0  0  0  0  0  0  0  0  0
   -1.2496    1.5108    1.3937 H   0  0  0  0  0  0  0  0  0  0  0  0
   -0.9161    0.5218    3.2279 H   0  0  0  0  0  0  0  0  0  0  0  0
   -2.0508   -0.7040    2.6900 H   0  0  0  0  0  0  0  0  0  0  0  0
   -0.3476   -1.1226    2.5982 H   0  0  0  0  0  0  0  0  0  0  0  0
   -2.4590   -0.9384    0.5068 H   0  0  0  0  0  0  0  0  0  0  0  0
  1  2  3  0
  2  3  1  0
  3  4  3  0
  4  5  1  0
  5  6  1  0
  5  7  1  0
  7  8  1  0
  7  9  1  0
  1 10  1  0
  5 11  1  0
  6 12  1  0
  6 13  1  0
  6 14  1  0
  7 15  1  0
  8 16  1  0
  8 17  1  0
  8 18  1  0
  9 19  1  0
M  END
