
     RDKit          3D

 19 19  0  0  0  0  0  0  0  0999 V2000
    2.5943   -0.5105   -1.3307 C   0  0  0  0  0  0  0  0  0  0  0  0
    1.6937    0.2187   -0.9403 C   0  0  0  0  0  0  0  0  0  0  0  0
    0.6191    1.0792   -0.4923 C   0  0  0  0  0  0  0  0  0  0  0  0
   -0.4129    0.3183    0.2803 C   0  0  0  0  0  0  0  0  0  0  0  0
   -1.5379    1.2301    0.7304 C   0  0  0  0  0  0  0  0  0  0  0  0
   -0.7905   -0.9634   -0.3719 C   0  0  0  0  0  0  0  0  0  0  0  0
    0.0579   -1.7008    0.5880 C   0  0  0  0  0  0  0  0  0  0  0  0
    0.5171   -2.8186    0.6281 O   0  0  0  0  0  0  0  0  0  0  0  0
    0.0912   -0.4979    1.4463 C   0  0  0  0  0  0  0  0  0  0  0  0
    3.3975   -1.1488   -1.6937 H   0  0  0  0  0  0  0  0  0  0  0  0
    0.0816    1.5601   -1.3560 H   0  0  0  0  0  0  0  0  0  0  0  0
    0.9987    1.8999    0.1737 H   0  0  0  0  0  0  0  0  0  0  0  0
   -2.3967    1.1738    0.0219 H   0  0  0  0  0  0  0  0  0  0  0  0
   -1.1436    2.2909    0.7925 H   0  0  0  0  0  0  0  0  0  0  0  0
   -1.8918    0.8741    1.7130 H   0  0  0  0  0  0  0  0  0  0  0  0
   -1.8781   -1.1945   -0.2607 H   0  0  0  0  0  0  0  0  0  0  0  0
   -0.4254   -1.0430   -1.4413 H   0  0  0  0  0  0  0  0  0  0  0  0
   -0.6718   -0.5651    2.2800 H   0  0  0  0  0  0  0  0  0  0  0  0
    1.0976   -0.2025    1.8102 H   0  0  0  0  0  0  0  0  0  0  0  0
  1  2  3  0
  2  3  1  0
  3  4  1  0
  4  5  1  0
  4  6  1  0
  6  7  1  0
  7  8  2  0
  7  9  1  0
  9  4  1  0
  1 10  1  0
  3 11  1  0
  3 12  1  0
  5 13  1  0
  5 14  1  0
  5 15  1  0
  6 16  1  0
  6 17  1  0
  9 18  1  0
  9 19  1  0
M  END
