
     RDKit          3D

 17 17  0  0  0  0  0  0  0  0999 V2000
    3.0125   -1.4470    0.9153 C   0  0  0  0  0  0  0  0  0  0  0  0
    1.8586   -1.2925    0.4620 C   0  0  0  0  0  0  0  0  0  0  0  0
    0.5880   -1.1105   -0.0153 C   0  0  0  0  0  0  0  0  0  0  0  0
   -0.2497   -0.3979    1.1291 C   0  0  0  0  0  0  0  0  0  0  0  0
   -1.1589    0.1976   -0.0304 C   0  0  0  0  0  0  0  0  0  0  0  0
   -1.8499   -0.6871   -0.7783 O   0  0  0  0  0  0  0  0  0  0  0  0
   -1.5435    1.4118    0.1860 C   0  0  0  0  0  0  0  0  0  0  0  0
   -1.9520    2.7030    0.4401 C   0  0  0  0  0  0  0  0  0  0  0  0
    0.3810    0.2274   -0.7066 C   0  0  0  0  0  0  0  0  0  0  0  0
    4.1073   -1.6040    1.3610 H   0  0  0  0  0  0  0  0  0  0  0  0
    0.0416   -1.9736   -0.4637 H   0  0  0  0  0  0  0  0  0  0  0  0
    0.3730    0.4793    1.4840 H   0  0  0  0  0  0  0  0  0  0  0  0
   -0.7365   -1.0259    1.8049 H   0  0  0  0  0  0  0  0  0  0  0  0
   -1.6175   -0.6000   -1.7635 H   0  0  0  0  0  0  0  0  0  0  0  0
   -2.2828    3.7695    0.6453 H   0  0  0  0  0  0  0  0  0  0  0  0
    0.8136    1.0439   -0.0741 H   0  0  0  0  0  0  0  0  0  0  0  0
    0.2151    0.3059   -1.7044 H   0  0  0  0  0  0  0  0  0  0  0  0
  1  2  3  0
  2  3  1  0
  3  4  1  0
  4  5  1  0
  5  6  1  0
  5  7  1  0
  7  8  3  0
  5  9  1  0
  9  3  1  0
  1 10  1  0
  3 11  1  0
  4 12  1  0
  4 13  1  0
  6 14  1  0
  8 15  1  0
  9 16  1  0
  9 17  1  0
M  END
