
     RDKit          3D

 16 15  0  0  0  0  0  0  0  0999 V2000
   -0.1710    2.5927    1.5717 C   0  0  0  0  0  0  0  0  0  0  0  0
   -0.8237    1.5640    1.3348 C   0  0  0  0  0  0  0  0  0  0  0  0
   -1.5832    0.3545    1.0817 C   0  0  0  0  0  0  0  0  0  0  0  0
   -2.2391    0.4590   -0.1556 O   0  0  0  0  0  0  0  0  0  0  0  0
   -0.7507   -0.8525    1.1369 C   0  0  0  0  0  0  0  0  0  0  0  0
    0.3345   -0.8147    0.1401 C   0  0  0  0  0  0  0  0  0  0  0  0
    1.2300   -0.7732   -0.7009 C   0  0  0  0  0  0  0  0  0  0  0  0
    2.2872   -0.7412   -1.6684 C   0  0  0  0  0  0  0  0  0  0  0  0
    0.3609    3.4588    1.7799 H   0  0  0  0  0  0  0  0  0  0  0  0
   -2.3841    0.2524    1.8641 H   0  0  0  0  0  0  0  0  0  0  0  0
   -2.5057   -0.4506   -0.4903 H   0  0  0  0  0  0  0  0  0  0  0  0
   -0.2896   -1.0258    2.1521 H   0  0  0  0  0  0  0  0  0  0  0  0
   -1.3748   -1.7468    0.9785 H   0  0  0  0  0  0  0  0  0  0  0  0
    2.1003   -1.3454   -2.5931 H   0  0  0  0  0  0  0  0  0  0  0  0
    2.5753    0.2886   -1.9380 H   0  0  0  0  0  0  0  0  0  0  0  0
    3.2338   -1.2197   -1.2445 H   0  0  0  0  0  0  0  0  0  0  0  0
  1  2  3  0
  2  3  1  0
  3  4  1  0
  3  5  1  0
  5  6  1  0
  6  7  3  0
  7  8  1  0
  1  9  1  0
  3 10  1  0
  4 11  1  0
  5 12  1  0
  5 13  1  0
  8 14  1  0
  8 15  1  0
  8 16  1  0
M  END
