
     RDKit          3D

 21 20  0  0  0  0  0  0  0  0999 V2000
    2.8131   -0.9526   -0.3491 C   0  0  0  0  0  0  0  0  0  0  0  0
    1.9393   -0.0471   -0.0780 C   0  0  0  0  0  0  0  0  0  0  0  0
    0.9432    0.9652    0.2496 C   0  0  0  0  0  0  0  0  0  0  0  0
   -0.4483    0.4304   -0.1838 C   0  0  0  0  0  0  0  0  0  0  0  0
   -0.3260    0.2014   -1.6773 C   0  0  0  0  0  0  0  0  0  0  0  0
   -1.4991    1.5134    0.0240 C   0  0  0  0  0  0  0  0  0  0  0  0
   -0.8264   -0.7732    0.6058 C   0  0  0  0  0  0  0  0  0  0  0  0
    0.0900   -1.9294    0.4939 C   0  0  0  0  0  0  0  0  0  0  0  0
    0.0539   -2.6495   -0.4716 O   0  0  0  0  0  0  0  0  0  0  0  0
    3.4930   -1.6813   -0.5684 H   0  0  0  0  0  0  0  0  0  0  0  0
    0.8925    1.1146    1.3331 H   0  0  0  0  0  0  0  0  0  0  0  0
    1.1629    1.8696   -0.2993 H   0  0  0  0  0  0  0  0  0  0  0  0
    0.6975   -0.1484   -1.8741 H   0  0  0  0  0  0  0  0  0  0  0  0
   -0.5752    1.1548   -2.1830 H   0  0  0  0  0  0  0  0  0  0  0  0
   -1.1056   -0.5141   -2.0598 H   0  0  0  0  0  0  0  0  0  0  0  0
   -1.0727    2.5137    0.1051 H   0  0  0  0  0  0  0  0  0  0  0  0
   -2.2682    1.4158   -0.7793 H   0  0  0  0  0  0  0  0  0  0  0  0
   -2.0378    1.2194    0.9863 H   0  0  0  0  0  0  0  0  0  0  0  0
   -0.8508   -0.4500    1.6972 H   0  0  0  0  0  0  0  0  0  0  0  0
   -1.8779   -1.1123    0.4277 H   0  0  0  0  0  0  0  0  0  0  0  0
    0.8025   -2.1405    1.2739 H   0  0  0  0  0  0  0  0  0  0  0  0
  1  2  3  0
  2  3  1  0
  3  4  1  0
  4  5  1  0
  4  6  1  0
  4  7  1  0
  7  8  1  0
  8  9  2  0
  1 10  1  0
  3 11  1  0
  3 12  1  0
  5 13  1  0
  5 14  1  0
  5 15  1  0
  6 16  1  0
  6 17  1  0
  6 18  1  0
  7 19  1  0
  7 20  1  0
  8 21  1  0
M  END
