
     RDKit          3D

 17 18  0  0  0  0  0  0  0  0999 V2000
    2.4774   -1.2978   -0.8550 C   0  0  0  0  0  0  0  0  0  0  0  0
    1.1522   -0.6882   -1.0080 C   0  0  0  0  0  0  0  0  0  0  0  0
    0.1382   -0.2028   -1.1204 C   0  0  0  0  0  0  0  0  0  0  0  0
   -0.1841    1.2476   -0.4133 C   0  0  0  0  0  0  0  0  0  0  0  0
   -1.3419    1.7816   -0.8462 O   0  0  0  0  0  0  0  0  0  0  0  0
   -0.3267    0.4243    0.8848 C   0  0  0  0  0  0  0  0  0  0  0  0
    1.1858    0.1064    1.0753 O   0  0  0  0  0  0  0  0  0  0  0  0
   -0.9437   -0.8362    1.2109 C   0  0  0  0  0  0  0  0  0  0  0  0
   -1.0324   -0.5443   -0.1618 C   0  0  0  0  0  0  0  0  0  0  0  0
    3.4667   -1.7628   -0.7577 H   0  0  0  0  0  0  0  0  0  0  0  0
   -0.3833   -0.0525   -2.1757 H   0  0  0  0  0  0  0  0  0  0  0  0
    0.7507    1.8487   -0.3876 H   0  0  0  0  0  0  0  0  0  0  0  0
   -2.0934    1.8715   -0.2132 H   0  0  0  0  0  0  0  0  0  0  0  0
    1.2870    0.6674    1.8645 H   0  0  0  0  0  0  0  0  0  0  0  0
   -1.8263   -0.7325    1.9179 H   0  0  0  0  0  0  0  0  0  0  0  0
   -0.2989   -1.7569    1.5406 H   0  0  0  0  0  0  0  0  0  0  0  0
   -2.0273   -0.0734   -0.5551 H   0  0  0  0  0  0  0  0  0  0  0  0
  1  2  3  0
  2  3  1  0
  3  4  1  0
  4  5  1  0
  4  6  1  0
  6  7  1  0
  6  8  1  0
  8  9  1  0
  9  3  1  0
  9  6  1  0
  1 10  1  0
  3 11  1  0
  4 12  1  0
  5 13  1  0
  7 14  1  0
  8 15  1  0
  8 16  1  0
  9 17  1  0
M  END
