
     RDKit          3D

 17 16  0  0  0  0  0  0  0  0999 V2000
   -2.8015    1.3704   -0.0424 C   0  0  0  0  0  0  0  0  0  0  0  0
   -1.9849    0.4910   -0.1071 C   0  0  0  0  0  0  0  0  0  0  0  0
   -0.9921   -0.5579   -0.2060 C   0  0  0  0  0  0  0  0  0  0  0  0
    0.3260    0.0471    0.0046 C   0  0  0  0  0  0  0  0  0  0  0  0
    1.4183    0.5713    0.1751 C   0  0  0  0  0  0  0  0  0  0  0  0
    2.7366    1.1797    0.3660 C   0  0  0  0  0  0  0  0  0  0  0  0
    3.0040    2.0925   -0.6659 O   0  0  0  0  0  0  0  0  0  0  0  0
   -1.1675   -1.6080    0.8700 C   0  0  0  0  0  0  0  0  0  0  0  0
   -2.4174   -2.2072    0.7770 O   0  0  0  0  0  0  0  0  0  0  0  0
   -3.5160    2.1588    0.0228 H   0  0  0  0  0  0  0  0  0  0  0  0
   -1.0424   -1.1006   -1.1867 H   0  0  0  0  0  0  0  0  0  0  0  0
    3.5569    0.4368    0.3416 H   0  0  0  0  0  0  0  0  0  0  0  0
    2.7170    1.6733    1.3551 H   0  0  0  0  0  0  0  0  0  0  0  0
    3.9401    2.0247   -0.9802 H   0  0  0  0  0  0  0  0  0  0  0  0
   -0.4064   -2.4002    0.7143 H   0  0  0  0  0  0  0  0  0  0  0  0
   -1.0103   -1.1531    1.8601 H   0  0  0  0  0  0  0  0  0  0  0  0
   -2.3602   -3.0186    0.2109 H   0  0  0  0  0  0  0  0  0  0  0  0
  1  2  3  0
  2  3  1  0
  3  4  1  0
  4  5  3  0
  5  6  1  0
  6  7  1  0
  3  8  1  0
  8  9  1  0
  1 10  1  0
  3 11  1  0
  6 12  1  0
  6 13  1  0
  7 14  1  0
  8 15  1  0
  8 16  1  0
  9 17  1  0
M  END
