
     RDKit          3D

 18 18  0  0  0  0  0  0  0  0999 V2000
    2.5419    0.4171    2.1458 C   0  0  0  0  0  0  0  0  0  0  0  0
    1.8282   -0.0996    1.2945 C   0  0  0  0  0  0  0  0  0  0  0  0
    0.9675   -0.7016    0.3042 C   0  0  0  0  0  0  0  0  0  0  0  0
    0.0851    0.3618   -0.2988 C   0  0  0  0  0  0  0  0  0  0  0  0
   -0.8704   -0.1450   -1.3584 C   0  0  0  0  0  0  0  0  0  0  0  0
   -1.7556   -1.1815   -0.6935 C   0  0  0  0  0  0  0  0  0  0  0  0
   -0.2324    1.5978    0.3667 C   0  0  0  0  0  0  0  0  0  0  0  0
    0.8275    1.5124   -0.6789 O   0  0  0  0  0  0  0  0  0  0  0  0
    3.1468    0.8685    2.8869 H   0  0  0  0  0  0  0  0  0  0  0  0
    0.3866   -1.5396    0.7363 H   0  0  0  0  0  0  0  0  0  0  0  0
    1.5657   -1.1401   -0.5299 H   0  0  0  0  0  0  0  0  0  0  0  0
   -1.4856    0.6789   -1.7756 H   0  0  0  0  0  0  0  0  0  0  0  0
   -0.2550   -0.5997   -2.1674 H   0  0  0  0  0  0  0  0  0  0  0  0
   -2.0299   -0.7669    0.3099 H   0  0  0  0  0  0  0  0  0  0  0  0
   -1.2065   -2.1377   -0.5989 H   0  0  0  0  0  0  0  0  0  0  0  0
   -2.6977   -1.2626   -1.2604 H   0  0  0  0  0  0  0  0  0  0  0  0
   -1.0621    2.2066    0.0135 H   0  0  0  0  0  0  0  0  0  0  0  0
    0.2458    1.9311    1.3040 H   0  0  0  0  0  0  0  0  0  0  0  0
  1  2  3  0
  2  3  1  0
  3  4  1  0
  4  5  1  0
  5  6  1  0
  4  7  1  0
  7  8  1  0
  8  4  1  0
  1  9  1  0
  3 10  1  0
  3 11  1  0
  5 12  1  0
  5 13  1  0
  6 14  1  0
  6 15  1  0
  6 16  1  0
  7 17  1  0
  7 18  1  0
M  END
