
     RDKit          3D

 21 21  0  0  0  0  0  0  0  0999 V2000
    3.3415    0.3269    0.0473 C   0  0  0  0  0  0  0  0  0  0  0  0
    2.2738   -0.2466    0.2317 C   0  0  0  0  0  0  0  0  0  0  0  0
    0.9979   -0.9232    0.4748 C   0  0  0  0  0  0  0  0  0  0  0  0
    0.7693   -0.9188    1.8660 O   0  0  0  0  0  0  0  0  0  0  0  0
   -0.0830   -0.1349   -0.2398 C   0  0  0  0  0  0  0  0  0  0  0  0
   -1.4785   -0.6471   -0.1278 C   0  0  0  0  0  0  0  0  0  0  0  0
   -2.4832    0.2012   -0.8709 C   0  0  0  0  0  0  0  0  0  0  0  0
    0.2708    0.5133   -1.5642 C   0  0  0  0  0  0  0  0  0  0  0  0
    0.2018    1.3361   -0.3326 C   0  0  0  0  0  0  0  0  0  0  0  0
    4.2735    0.8092   -0.1032 H   0  0  0  0  0  0  0  0  0  0  0  0
    1.0647   -1.9498    0.0811 H   0  0  0  0  0  0  0  0  0  0  0  0
    1.1397   -1.7779    2.2266 H   0  0  0  0  0  0  0  0  0  0  0  0
   -1.8285   -0.8122    0.9081 H   0  0  0  0  0  0  0  0  0  0  0  0
   -1.4983   -1.6553   -0.6368 H   0  0  0  0  0  0  0  0  0  0  0  0
   -3.5135   -0.1287   -0.5934 H   0  0  0  0  0  0  0  0  0  0  0  0
   -2.4027    0.0223   -1.9643 H   0  0  0  0  0  0  0  0  0  0  0  0
   -2.4039    1.2577   -0.5931 H   0  0  0  0  0  0  0  0  0  0  0  0
    1.2614    0.2809   -2.0167 H   0  0  0  0  0  0  0  0  0  0  0  0
   -0.5103    0.6881   -2.3146 H   0  0  0  0  0  0  0  0  0  0  0  0
   -0.5936    2.0490   -0.1221 H   0  0  0  0  0  0  0  0  0  0  0  0
    1.2008    1.7097    0.0243 H   0  0  0  0  0  0  0  0  0  0  0  0
  1  2  3  0
  2  3  1  0
  3  4  1  0
  3  5  1  0
  5  6  1  0
  6  7  1  0
  5  8  1  0
  8  9  1  0
  9  5  1  0
  1 10  1  0
  3 11  1  0
  4 12  1  0
  6 13  1  0
  6 14  1  0
  7 15  1  0
  7 16  1  0
  7 17  1  0
  8 18  1  0
  8 19  1  0
  9 20  1  0
  9 21  1  0
M  END
