
     RDKit          3D

 21 22  0  0  0  0  0  0  0  0999 V2000
    1.7960    2.4666   -0.4606 C   0  0  0  0  0  0  0  0  0  0  0  0
    1.4686    1.3194   -0.1914 C   0  0  0  0  0  0  0  0  0  0  0  0
    1.0708   -0.0396    0.1042 C   0  0  0  0  0  0  0  0  0  0  0  0
    0.6502   -0.1264    1.5873 C   0  0  0  0  0  0  0  0  0  0  0  0
   -0.7835   -0.4932    1.4133 C   0  0  0  0  0  0  0  0  0  0  0  0
   -0.7316   -1.5290    0.2820 C   0  0  0  0  0  0  0  0  0  0  0  0
   -0.2500   -0.3508   -0.5340 C   0  0  0  0  0  0  0  0  0  0  0  0
   -0.4004   -0.3486   -1.9652 C   0  0  0  0  0  0  0  0  0  0  0  0
   -1.2257    0.4785    0.3084 C   0  0  0  0  0  0  0  0  0  0  0  0
    2.0745    3.4584   -0.7115 H   0  0  0  0  0  0  0  0  0  0  0  0
    1.8207   -0.7852   -0.1520 H   0  0  0  0  0  0  0  0  0  0  0  0
    1.2597   -0.9100    2.0940 H   0  0  0  0  0  0  0  0  0  0  0  0
    0.7588    0.8796    2.0599 H   0  0  0  0  0  0  0  0  0  0  0  0
   -1.4384   -0.6627    2.2183 H   0  0  0  0  0  0  0  0  0  0  0  0
    0.0190   -2.2814    0.5449 H   0  0  0  0  0  0  0  0  0  0  0  0
   -1.7236   -1.9233   -0.0149 H   0  0  0  0  0  0  0  0  0  0  0  0
   -1.4276   -0.3867   -2.3679 H   0  0  0  0  0  0  0  0  0  0  0  0
    0.0317    0.6044   -2.3825 H   0  0  0  0  0  0  0  0  0  0  0  0
    0.1814   -1.1764   -2.4170 H   0  0  0  0  0  0  0  0  0  0  0  0
   -2.2725    0.3216    0.0496 H   0  0  0  0  0  0  0  0  0  0  0  0
   -0.8781    1.4849    0.5352 H   0  0  0  0  0  0  0  0  0  0  0  0
  1  2  3  0
  2  3  1  0
  3  4  1  0
  4  5  1  0
  5  6  1  0
  6  7  1  0
  7  8  1  0
  7  9  1  0
  7  3  1  0
  9  5  1  0
  1 10  1  0
  3 11  1  0
  4 12  1  0
  4 13  1  0
  5 14  1  0
  6 15  1  0
  6 16  1  0
  8 17  1  0
  8 18  1  0
  8 19  1  0
  9 20  1  0
  9 21  1  0
M  END
