
     RDKit          3D

 23 23  0  0  0  0  0  0  0  0999 V2000
    1.9320    2.5827   -1.3515 C   0  0  0  0  0  0  0  0  0  0  0  0
    1.5462    2.2586   -0.1995 C   0  0  0  0  0  0  0  0  0  0  0  0
    1.1286    1.8808    1.1225 C   0  0  0  0  0  0  0  0  0  0  0  0
    0.6057    0.5069    1.2866 C   0  0  0  0  0  0  0  0  0  0  0  0
   -0.6179    0.1999    0.4859 C   0  0  0  0  0  0  0  0  0  0  0  0
   -0.5095    0.2722   -1.0127 C   0  0  0  0  0  0  0  0  0  0  0  0
   -0.7603   -1.0550   -0.3097 C   0  0  0  0  0  0  0  0  0  0  0  0
   -2.1465   -1.6035   -0.5853 C   0  0  0  0  0  0  0  0  0  0  0  0
    0.3545   -2.0406   -0.2147 C   0  0  0  0  0  0  0  0  0  0  0  0
    2.2573    2.8329   -2.2833 H   0  0  0  0  0  0  0  0  0  0  0  0
    0.3958    2.6244    1.5582 H   0  0  0  0  0  0  0  0  0  0  0  0
    2.0430    1.9921    1.7922 H   0  0  0  0  0  0  0  0  0  0  0  0
    0.4115    0.3585    2.3917 H   0  0  0  0  0  0  0  0  0  0  0  0
    1.4231   -0.2057    0.9888 H   0  0  0  0  0  0  0  0  0  0  0  0
   -1.6109    0.5181    0.9269 H   0  0  0  0  0  0  0  0  0  0  0  0
   -1.3527    0.7799   -1.5117 H   0  0  0  0  0  0  0  0  0  0  0  0
    0.4435    0.2719   -1.5306 H   0  0  0  0  0  0  0  0  0  0  0  0
   -2.1215   -2.7084   -0.6699 H   0  0  0  0  0  0  0  0  0  0  0  0
   -2.5220   -1.2115   -1.5748 H   0  0  0  0  0  0  0  0  0  0  0  0
   -2.8544   -1.3466    0.2385 H   0  0  0  0  0  0  0  0  0  0  0  0
    1.2811   -1.5719   -0.6229 H   0  0  0  0  0  0  0  0  0  0  0  0
    0.5198   -2.3567    0.8564 H   0  0  0  0  0  0  0  0  0  0  0  0
    0.1536   -2.9789   -0.7718 H   0  0  0  0  0  0  0  0  0  0  0  0
  1  2  3  0
  2  3  1  0
  3  4  1  0
  4  5  1  0
  5  6  1  0
  6  7  1  0
  7  8  1  0
  7  9  1  0
  7  5  1  0
  1 10  1  0
  3 11  1  0
  3 12  1  0
  4 13  1  0
  4 14  1  0
  5 15  1  0
  6 16  1  0
  6 17  1  0
  8 18  1  0
  8 19  1  0
  8 20  1  0
  9 21  1  0
  9 22  1  0
  9 23  1  0
M  END
