
     RDKit          3D

 19 20  0  0  0  0  0  0  0  0999 V2000
    2.8087   -0.9488   -1.0092 C   0  0  0  0  0  0  0  0  0  0  0  0
    1.8141   -0.6517   -0.3630 C   0  0  0  0  0  0  0  0  0  0  0  0
    0.6035   -0.2633    0.4220 C   0  0  0  0  0  0  0  0  0  0  0  0
    0.8586    0.6003    1.4964 C   0  0  0  0  0  0  0  0  0  0  0  0
    0.2997    1.2958    0.4137 C   0  0  0  0  0  0  0  0  0  0  0  0
    0.5304    1.3674   -0.9276 O   0  0  0  0  0  0  0  0  0  0  0  0
   -0.5351    0.5467   -1.3960 C   0  0  0  0  0  0  0  0  0  0  0  0
   -0.6074   -0.5918   -0.3611 C   0  0  0  0  0  0  0  0  0  0  0  0
   -1.8847   -0.6345    0.3635 C   0  0  0  0  0  0  0  0  0  0  0  0
    3.6686   -1.2224   -1.5615 H   0  0  0  0  0  0  0  0  0  0  0  0
    1.9178    0.8398    1.7928 H   0  0  0  0  0  0  0  0  0  0  0  0
    0.2723    0.4406    2.4463 H   0  0  0  0  0  0  0  0  0  0  0  0
   -0.7898    1.5817    0.5685 H   0  0  0  0  0  0  0  0  0  0  0  0
   -0.2537    0.1842   -2.3841 H   0  0  0  0  0  0  0  0  0  0  0  0
   -1.4713    1.1487   -1.3748 H   0  0  0  0  0  0  0  0  0  0  0  0
   -0.4880   -1.5604   -0.9150 H   0  0  0  0  0  0  0  0  0  0  0  0
   -2.6147   -1.2522   -0.2378 H   0  0  0  0  0  0  0  0  0  0  0  0
   -2.3859    0.3136    0.5579 H   0  0  0  0  0  0  0  0  0  0  0  0
   -1.7429   -1.1935    1.3120 H   0  0  0  0  0  0  0  0  0  0  0  0
  1  2  3  0
  2  3  1  0
  3  4  1  0
  4  5  1  0
  5  6  1  0
  6  7  1  0
  7  8  1  0
  8  9  1  0
  5  3  1  0
  8  3  1  0
  1 10  1  0
  4 11  1  0
  4 12  1  0
  5 13  1  0
  7 14  1  0
  7 15  1  0
  8 16  1  0
  9 17  1  0
  9 18  1  0
  9 19  1  0
M  END
