
     RDKit          3D

 19 19  0  0  0  0  0  0  0  0999 V2000
    3.0832    1.5059   -0.1869 C   0  0  0  0  0  0  0  0  0  0  0  0
    2.6691    0.3590   -0.1876 C   0  0  0  0  0  0  0  0  0  0  0  0
    2.1686   -1.0085   -0.1643 C   0  0  0  0  0  0  0  0  0  0  0  0
    0.6722   -1.0621   -0.0689 C   0  0  0  0  0  0  0  0  0  0  0  0
    0.0763   -0.3761   -1.2353 O   0  0  0  0  0  0  0  0  0  0  0  0
   -0.1995    0.0504    0.0645 C   0  0  0  0  0  0  0  0  0  0  0  0
   -1.6039   -0.1870    0.5972 C   0  0  0  0  0  0  0  0  0  0  0  0
   -2.6492    0.4507   -0.2856 C   0  0  0  0  0  0  0  0  0  0  0  0
   -1.6758    0.3049    1.8991 O   0  0  0  0  0  0  0  0  0  0  0  0
    3.4264    2.5077   -0.1803 H   0  0  0  0  0  0  0  0  0  0  0  0
    2.5954   -1.4918    0.7453 H   0  0  0  0  0  0  0  0  0  0  0  0
    2.4910   -1.5591   -1.0924 H   0  0  0  0  0  0  0  0  0  0  0  0
    0.2781   -2.1052    0.0436 H   0  0  0  0  0  0  0  0  0  0  0  0
    0.2291    1.0583    0.2718 H   0  0  0  0  0  0  0  0  0  0  0  0
   -1.7850   -1.2728    0.6155 H   0  0  0  0  0  0  0  0  0  0  0  0
   -3.3132   -0.3160   -0.7354 H   0  0  0  0  0  0  0  0  0  0  0  0
   -2.1819    1.0669   -1.0906 H   0  0  0  0  0  0  0  0  0  0  0  0
   -3.3008    1.0715    0.3641 H   0  0  0  0  0  0  0  0  0  0  0  0
   -0.9801    1.0034    1.9924 H   0  0  0  0  0  0  0  0  0  0  0  0
  1  2  3  0
  2  3  1  0
  3  4  1  0
  4  5  1  0
  5  6  1  0
  6  7  1  0
  7  8  1  0
  7  9  1  0
  6  4  1  0
  1 10  1  0
  3 11  1  0
  3 12  1  0
  4 13  1  0
  6 14  1  0
  7 15  1  0
  8 16  1  0
  8 17  1  0
  8 18  1  0
  9 19  1  0
M  END
