
     RDKit          3D

 19 18  0  0  0  0  0  0  0  0999 V2000
    1.7386   -2.1510   -0.5064 C   0  0  0  0  0  0  0  0  0  0  0  0
    0.9633   -1.5006    0.1670 C   0  0  0  0  0  0  0  0  0  0  0  0
    0.0062   -0.7308    0.9807 C   0  0  0  0  0  0  0  0  0  0  0  0
   -1.2571   -1.2572    0.7782 O   0  0  0  0  0  0  0  0  0  0  0  0
    0.1059    0.7217    0.6483 C   0  0  0  0  0  0  0  0  0  0  0  0
    1.4839    1.1985    0.9310 C   0  0  0  0  0  0  0  0  0  0  0  0
    1.8124    2.3576    0.7561 O   0  0  0  0  0  0  0  0  0  0  0  0
   -0.2725    0.9762   -0.8042 C   0  0  0  0  0  0  0  0  0  0  0  0
   -1.6893    0.5231   -1.0424 C   0  0  0  0  0  0  0  0  0  0  0  0
    2.4228   -2.7037   -1.1017 H   0  0  0  0  0  0  0  0  0  0  0  0
    0.2303   -0.8419    2.0667 H   0  0  0  0  0  0  0  0  0  0  0  0
   -1.2692   -2.1604    0.4062 H   0  0  0  0  0  0  0  0  0  0  0  0
   -0.6117    1.2704    1.2992 H   0  0  0  0  0  0  0  0  0  0  0  0
    2.2287    0.5073    1.3037 H   0  0  0  0  0  0  0  0  0  0  0  0
    0.4295    0.5151   -1.5001 H   0  0  0  0  0  0  0  0  0  0  0  0
   -0.2089    2.0917   -0.9445 H   0  0  0  0  0  0  0  0  0  0  0  0
   -2.3081    0.6293   -0.1280 H   0  0  0  0  0  0  0  0  0  0  0  0
   -1.6635   -0.5409   -1.4094 H   0  0  0  0  0  0  0  0  0  0  0  0
   -2.1413    1.0956   -1.9005 H   0  0  0  0  0  0  0  0  0  0  0  0
  1  2  3  0
  2  3  1  0
  3  4  1  0
  3  5  1  0
  5  6  1  0
  6  7  2  0
  5  8  1  0
  8  9  1  0
  1 10  1  0
  3 11  1  0
  4 12  1  0
  5 13  1  0
  6 14  1  0
  8 15  1  0
  8 16  1  0
  9 17  1  0
  9 18  1  0
  9 19  1  0
M  END
