
     RDKit          3D

 23 23  0  0  0  0  0  0  0  0999 V2000
   -1.8578   -0.0913    2.4523 C   0  0  0  0  0  0  0  0  0  0  0  0
   -1.3332   -0.2916    1.3725 C   0  0  0  0  0  0  0  0  0  0  0  0
   -0.7153   -0.5077    0.1013 C   0  0  0  0  0  0  0  0  0  0  0  0
   -0.1550    0.7389   -0.5188 C   0  0  0  0  0  0  0  0  0  0  0  0
    0.4755    0.6171   -1.8445 C   0  0  0  0  0  0  0  0  0  0  0  0
    0.7341    1.4171    0.5183 C   0  0  0  0  0  0  0  0  0  0  0  0
    1.8572    0.5021    0.9504 C   0  0  0  0  0  0  0  0  0  0  0  0
   -1.5039   -1.4536   -0.8673 C   0  0  0  0  0  0  0  0  0  0  0  0
   -0.2144   -1.8460   -0.2883 C   0  0  0  0  0  0  0  0  0  0  0  0
   -2.3258    0.0952    3.4600 H   0  0  0  0  0  0  0  0  0  0  0  0
   -1.0311    1.4569   -0.6059 H   0  0  0  0  0  0  0  0  0  0  0  0
    1.1524    1.5276   -1.9551 H   0  0  0  0  0  0  0  0  0  0  0  0
   -0.2921    0.7885   -2.6362 H   0  0  0  0  0  0  0  0  0  0  0  0
    1.1010   -0.2485   -2.0336 H   0  0  0  0  0  0  0  0  0  0  0  0
    1.1910    2.3487    0.1179 H   0  0  0  0  0  0  0  0  0  0  0  0
    0.0860    1.6310    1.3849 H   0  0  0  0  0  0  0  0  0  0  0  0
    1.4815   -0.3346    1.5844 H   0  0  0  0  0  0  0  0  0  0  0  0
    2.3980    0.0665    0.0931 H   0  0  0  0  0  0  0  0  0  0  0  0
    2.5608    1.0713    1.5771 H   0  0  0  0  0  0  0  0  0  0  0  0
   -1.6431   -1.0711   -1.8950 H   0  0  0  0  0  0  0  0  0  0  0  0
   -2.4375   -1.8634   -0.4159 H   0  0  0  0  0  0  0  0  0  0  0  0
   -0.1943   -2.7004    0.4123 H   0  0  0  0  0  0  0  0  0  0  0  0
    0.6661   -1.8525   -0.9639 H   0  0  0  0  0  0  0  0  0  0  0  0
  1  2  3  0
  2  3  1  0
  3  4  1  0
  4  5  1  0
  4  6  1  0
  6  7  1  0
  3  8  1  0
  8  9  1  0
  9  3  1  0
  1 10  1  0
  4 11  1  0
  5 12  1  0
  5 13  1  0
  5 14  1  0
  6 15  1  0
  6 16  1  0
  7 17  1  0
  7 18  1  0
  7 19  1  0
  8 20  1  0
  8 21  1  0
  9 22  1  0
  9 23  1  0
M  END
