
     RDKit          3D

 17 18  0  0  0  0  0  0  0  0999 V2000
    2.7969   -0.8339    1.0807 C   0  0  0  0  0  0  0  0  0  0  0  0
    2.3030   -0.3062    0.0935 C   0  0  0  0  0  0  0  0  0  0  0  0
    1.7155    0.3415   -1.0645 C   0  0  0  0  0  0  0  0  0  0  0  0
    0.8833    1.5121   -0.7658 O   0  0  0  0  0  0  0  0  0  0  0  0
    0.3032    0.3593   -1.3092 C   0  0  0  0  0  0  0  0  0  0  0  0
   -0.6800   -0.3993   -0.4479 C   0  0  0  0  0  0  0  0  0  0  0  0
   -2.1273   -0.2457   -0.8796 C   0  0  0  0  0  0  0  0  0  0  0  0
   -2.4735    0.4099    0.2798 O   0  0  0  0  0  0  0  0  0  0  0  0
   -1.1675    0.3647    0.7588 C   0  0  0  0  0  0  0  0  0  0  0  0
    3.2318   -1.2755    1.9408 H   0  0  0  0  0  0  0  0  0  0  0  0
    2.3951    0.6169   -1.9207 H   0  0  0  0  0  0  0  0  0  0  0  0
   -0.0625    0.5254   -2.3461 H   0  0  0  0  0  0  0  0  0  0  0  0
   -0.3356   -1.4187   -0.2721 H   0  0  0  0  0  0  0  0  0  0  0  0
   -2.2685    0.4454   -1.7556 H   0  0  0  0  0  0  0  0  0  0  0  0
   -2.6009   -1.2469   -1.0142 H   0  0  0  0  0  0  0  0  0  0  0  0
   -1.1337   -0.2470    1.6793 H   0  0  0  0  0  0  0  0  0  0  0  0
   -0.7793    1.3980    0.8501 H   0  0  0  0  0  0  0  0  0  0  0  0
  1  2  3  0
  2  3  1  0
  3  4  1  0
  4  5  1  0
  5  6  1  0
  6  7  1  0
  7  8  1  0
  8  9  1  0
  5  3  1  0
  9  6  1  0
  1 10  1  0
  3 11  1  0
  5 12  1  0
  6 13  1  0
  7 14  1  0
  7 15  1  0
  9 16  1  0
  9 17  1  0
M  END
