
     RDKit          3D

 17 17  0  0  0  0  0  0  0  0999 V2000
   -0.9669    2.3099    1.2633 C   0  0  0  0  0  0  0  0  0  0  0  0
   -1.0248    1.1449    1.2596 C   0  0  0  0  0  0  0  0  0  0  0  0
   -1.0730   -0.1884    1.2660 C   0  0  0  0  0  0  0  0  0  0  0  0
   -1.6245   -1.3228    0.5408 C   0  0  0  0  0  0  0  0  0  0  0  0
   -3.0338   -1.4128    0.5362 O   0  0  0  0  0  0  0  0  0  0  0  0
   -0.8166   -0.5681   -0.3930 C   0  0  0  0  0  0  0  0  0  0  0  0
    0.4170   -0.2850   -0.6056 C   0  0  0  0  0  0  0  0  0  0  0  0
    1.7523    0.0421   -0.8225 C   0  0  0  0  0  0  0  0  0  0  0  0
    3.0795    0.3700   -1.0185 C   0  0  0  0  0  0  0  0  0  0  0  0
   -0.8884    3.5503    1.2530 H   0  0  0  0  0  0  0  0  0  0  0  0
   -0.0998   -0.6776    1.8202 H   0  0  0  0  0  0  0  0  0  0  0  0
   -1.2302   -2.4027    0.6132 H   0  0  0  0  0  0  0  0  0  0  0  0
   -3.3119   -2.2620   -0.0180 H   0  0  0  0  0  0  0  0  0  0  0  0
   -1.6405    0.2379   -0.8821 H   0  0  0  0  0  0  0  0  0  0  0  0
    3.1557    1.3129   -1.6873 H   0  0  0  0  0  0  0  0  0  0  0  0
    3.5490   -0.4768   -1.6502 H   0  0  0  0  0  0  0  0  0  0  0  0
    3.7568    0.6280   -0.1980 H   0  0  0  0  0  0  0  0  0  0  0  0
  1  2  3  0
  2  3  1  0
  3  4  1  0
  4  5  1  0
  4  6  1  0
  6  7  1  0
  7  8  3  0
  8  9  1  0
  6  3  1  0
  1 10  1  0
  3 11  1  0
  4 12  1  0
  5 13  1  0
  6 14  1  0
  9 15  1  0
  9 16  1  0
  9 17  1  0
M  END
