
     RDKit          3D

 19 20  0  0  0  0  0  0  0  0999 V2000
    2.4850    2.1433    1.2178 C   0  0  0  0  0  0  0  0  0  0  0  0
    1.9430    1.1158    0.8332 C   0  0  0  0  0  0  0  0  0  0  0  0
    1.2958   -0.1423    0.3822 C   0  0  0  0  0  0  0  0  0  0  0  0
    2.2635   -1.1607    0.2652 O   0  0  0  0  0  0  0  0  0  0  0  0
    0.3167    0.0057   -0.6169 C   0  0  0  0  0  0  0  0  0  0  0  0
   -0.9341    0.7777   -0.7297 C   0  0  0  0  0  0  0  0  0  0  0  0
   -1.9402   -0.3179   -0.3231 C   0  0  0  0  0  0  0  0  0  0  0  0
   -1.0884   -1.3662    0.4268 C   0  0  0  0  0  0  0  0  0  0  0  0
    0.0273   -0.4770    0.8634 C   0  0  0  0  0  0  0  0  0  0  0  0
    2.9629    3.0210    1.5584 H   0  0  0  0  0  0  0  0  0  0  0  0
    2.3100   -1.3636   -0.7212 H   0  0  0  0  0  0  0  0  0  0  0  0
    0.3044   -0.8175   -1.3983 H   0  0  0  0  0  0  0  0  0  0  0  0
   -1.1039    1.1141   -1.7503 H   0  0  0  0  0  0  0  0  0  0  0  0
   -0.9831    1.6242   -0.0210 H   0  0  0  0  0  0  0  0  0  0  0  0
   -2.6411    0.1626    0.4067 H   0  0  0  0  0  0  0  0  0  0  0  0
   -2.4323   -0.7317   -1.1994 H   0  0  0  0  0  0  0  0  0  0  0  0
   -0.7222   -2.0880   -0.3143 H   0  0  0  0  0  0  0  0  0  0  0  0
   -1.6205   -1.8054    1.2680 H   0  0  0  0  0  0  0  0  0  0  0  0
   -0.4427    0.3059    1.5411 H   0  0  0  0  0  0  0  0  0  0  0  0
  1  2  3  0
  2  3  1  0
  3  4  1  0
  3  5  1  0
  5  6  1  0
  6  7  1  0
  7  8  1  0
  8  9  1  0
  9  3  1  0
  9  5  1  0
  1 10  1  0
  4 11  1  0
  5 12  1  0
  6 13  1  0
  6 14  1  0
  7 15  1  0
  7 16  1  0
  8 17  1  0
  8 18  1  0
  9 19  1  0
M  END
