
     RDKit          3D

 17 17  0  0  0  0  0  0  0  0999 V2000
    2.7813    0.3785   -0.8866 C   0  0  0  0  0  0  0  0  0  0  0  0
    1.6574    0.1182   -0.5489 C   0  0  0  0  0  0  0  0  0  0  0  0
    0.2791   -0.2060   -0.1603 C   0  0  0  0  0  0  0  0  0  0  0  0
    0.0819   -1.5834    0.0347 C   0  0  0  0  0  0  0  0  0  0  0  0
   -0.0813   -2.8561    0.2026 C   0  0  0  0  0  0  0  0  0  0  0  0
   -0.0672    0.6444    1.0467 C   0  0  0  0  0  0  0  0  0  0  0  0
   -1.5081    0.9352    0.8163 C   0  0  0  0  0  0  0  0  0  0  0  0
   -1.7912    0.6776   -0.4658 O   0  0  0  0  0  0  0  0  0  0  0  0
   -0.6868    0.3138   -1.1830 C   0  0  0  0  0  0  0  0  0  0  0  0
    3.7648    0.6230   -1.1900 H   0  0  0  0  0  0  0  0  0  0  0  0
   -0.1927   -3.8615    0.3376 H   0  0  0  0  0  0  0  0  0  0  0  0
    0.1414    0.1345    2.0056 H   0  0  0  0  0  0  0  0  0  0  0  0
    0.5403    1.5902    1.0434 H   0  0  0  0  0  0  0  0  0  0  0  0
   -2.0821    0.3082    1.5469 H   0  0  0  0  0  0  0  0  0  0  0  0
   -1.6723    2.0391    1.0765 H   0  0  0  0  0  0  0  0  0  0  0  0
   -0.8906   -0.4561   -1.9606 H   0  0  0  0  0  0  0  0  0  0  0  0
   -0.2740    1.2004   -1.7152 H   0  0  0  0  0  0  0  0  0  0  0  0
  1  2  3  0
  2  3  1  0
  3  4  1  0
  4  5  3  0
  3  6  1  0
  6  7  1  0
  7  8  1  0
  8  9  1  0
  9  3  1  0
  1 10  1  0
  5 11  1  0
  6 12  1  0
  6 13  1  0
  7 14  1  0
  7 15  1  0
  9 16  1  0
  9 17  1  0
M  END
