
     RDKit          3D

 17 17  0  0  0  0  0  0  0  0999 V2000
    3.3965    0.5032    0.5399 C   0  0  0  0  0  0  0  0  0  0  0  0
    2.0954   -0.5264   -0.2598 C   0  0  0  0  0  0  0  0  0  0  0  0
    1.4085   -1.0680   -0.6670 C   0  0  0  0  0  0  0  0  0  0  0  0
   -0.1499   -0.9358   -0.8449 C   0  0  0  0  0  0  0  0  0  0  0  0
   -1.2387   -1.0017    0.1272 C   0  0  0  0  0  0  0  0  0  0  0  0
   -0.4969    0.3711   -0.0247 C   0  0  0  0  0  0  0  0  0  0  0  0
   -1.1926    1.2682   -0.8620 O   0  0  0  0  0  0  0  0  0  0  0  0
   -2.1514    2.1512   -0.1887 C   0  0  0  0  0  0  0  0  0  0  0  0
   -2.2395    1.8720    0.9890 O   0  0  0  0  0  0  0  0  0  0  0  0
    4.1314    1.0711    0.9759 H   0  0  0  0  0  0  0  0  0  0  0  0
    1.3146   -2.3487   -0.3586 H   0  0  0  0  0  0  0  0  0  0  0  0
    1.6625   -1.5171   -1.8110 H   0  0  0  0  0  0  0  0  0  0  0  0
   -0.4514   -0.8934   -1.8970 H   0  0  0  0  0  0  0  0  0  0  0  0
   -2.2300   -0.9982   -0.0240 H   0  0  0  0  0  0  0  0  0  0  0  0
   -0.9292   -1.5478    1.1040 H   0  0  0  0  0  0  0  0  0  0  0  0
   -0.2997    0.6908    0.9086 H   0  0  0  0  0  0  0  0  0  0  0  0
   -2.6295    2.9096   -0.8214 H   0  0  0  0  0  0  0  0  0  0  0  0
  1  2  3  0
  2  3  1  0
  3  4  1  0
  4  5  1  0
  5  6  1  0
  6  7  1  0
  7  8  1  0
  8  9  2  0
  6  4  1  0
  1 10  1  0
  3 11  1  0
  3 12  1  0
  4 13  1  0
  5 14  1  0
  5 15  1  0
  6 16  1  0
  8 17  1  0
M  END
