
     RDKit          3D

 19 18  0  0  0  0  0  0  0  0999 V2000
   -3.5778   -0.7750    0.0604 C   0  0  0  0  0  0  0  0  0  0  0  0
   -2.3918   -0.8230   -0.2396 C   0  0  0  0  0  0  0  0  0  0  0  0
   -0.9690   -0.8988   -0.5811 C   0  0  0  0  0  0  0  0  0  0  0  0
   -0.3708   -2.0987    0.0180 C   0  0  0  0  0  0  0  0  0  0  0  0
   -0.2293   -2.1752    1.2263 O   0  0  0  0  0  0  0  0  0  0  0  0
   -0.3311    0.3854   -0.0796 C   0  0  0  0  0  0  0  0  0  0  0  0
    1.1529    0.4192   -0.3799 C   0  0  0  0  0  0  0  0  0  0  0  0
    1.6837    1.7319    0.1584 C   0  0  0  0  0  0  0  0  0  0  0  0
    3.0466    1.8812   -0.0586 O   0  0  0  0  0  0  0  0  0  0  0  0
   -4.6060   -0.7263    0.3113 H   0  0  0  0  0  0  0  0  0  0  0  0
   -0.8501   -0.8897   -1.6853 H   0  0  0  0  0  0  0  0  0  0  0  0
   -0.0613   -2.9061   -0.6328 H   0  0  0  0  0  0  0  0  0  0  0  0
   -0.5286    0.4387    0.9960 H   0  0  0  0  0  0  0  0  0  0  0  0
   -0.8733    1.2180   -0.5746 H   0  0  0  0  0  0  0  0  0  0  0  0
    1.3706    0.2640   -1.4396 H   0  0  0  0  0  0  0  0  0  0  0  0
    1.6222   -0.3804    0.2502 H   0  0  0  0  0  0  0  0  0  0  0  0
    1.0836    2.5253   -0.3407 H   0  0  0  0  0  0  0  0  0  0  0  0
    1.4667    1.7652    1.2371 H   0  0  0  0  0  0  0  0  0  0  0  0
    3.3628    1.0442   -0.4864 H   0  0  0  0  0  0  0  0  0  0  0  0
  1  2  3  0
  2  3  1  0
  3  4  1  0
  4  5  2  0
  3  6  1  0
  6  7  1  0
  7  8  1  0
  8  9  1  0
  1 10  1  0
  3 11  1  0
  4 12  1  0
  6 13  1  0
  6 14  1  0
  7 15  1  0
  7 16  1  0
  8 17  1  0
  8 18  1  0
  9 19  1  0
M  END
