
     RDKit          3D

 23 22  0  0  0  0  0  0  0  0999 V2000
    3.3035    3.2703   -1.3763 C   0  0  0  0  0  0  0  0  0  0  0  0
    2.9272    2.2574   -0.5077 C   0  0  0  0  0  0  0  0  0  0  0  0
    2.5592    1.3306    0.2907 C   0  0  0  0  0  0  0  0  0  0  0  0
    1.7099    0.3127   -0.2795 O   0  0  0  0  0  0  0  0  0  0  0  0
    0.5578    0.9476   -0.7902 C   0  0  0  0  0  0  0  0  0  0  0  0
   -0.5203   -0.0356   -1.1721 C   0  0  0  0  0  0  0  0  0  0  0  0
   -0.9886   -0.7183    0.1145 C   0  0  0  0  0  0  0  0  0  0  0  0
   -2.0164   -1.7819   -0.0639 C   0  0  0  0  0  0  0  0  0  0  0  0
   -2.3534   -2.4176    1.2547 C   0  0  0  0  0  0  0  0  0  0  0  0
    3.5717    4.0172   -2.0118 H   0  0  0  0  0  0  0  0  0  0  0  0
    1.9495    1.7665    1.1819 H   0  0  0  0  0  0  0  0  0  0  0  0
    3.3947    0.7358    0.7963 H   0  0  0  0  0  0  0  0  0  0  0  0
    0.8658    1.5167   -1.6581 H   0  0  0  0  0  0  0  0  0  0  0  0
    0.1779    1.6777   -0.0379 H   0  0  0  0  0  0  0  0  0  0  0  0
   -0.1023   -0.7950   -1.8479 H   0  0  0  0  0  0  0  0  0  0  0  0
   -1.3009    0.5392   -1.6721 H   0  0  0  0  0  0  0  0  0  0  0  0
   -1.5285    0.0968    0.6988 H   0  0  0  0  0  0  0  0  0  0  0  0
   -0.1707   -1.0310    0.7565 H   0  0  0  0  0  0  0  0  0  0  0  0
   -2.9438   -1.3102   -0.5188 H   0  0  0  0  0  0  0  0  0  0  0  0
   -1.7489   -2.6227   -0.7554 H   0  0  0  0  0  0  0  0  0  0  0  0
   -1.6812   -2.0166    2.0400 H   0  0  0  0  0  0  0  0  0  0  0  0
   -2.2533   -3.5353    1.2337 H   0  0  0  0  0  0  0  0  0  0  0  0
   -3.4089   -2.2042    1.6032 H   0  0  0  0  0  0  0  0  0  0  0  0
  1  2  3  0
  2  3  1  0
  3  4  1  0
  4  5  1  0
  5  6  1  0
  6  7  1  0
  7  8  1  0
  8  9  1  0
  1 10  1  0
  3 11  1  0
  3 12  1  0
  5 13  1  0
  5 14  1  0
  6 15  1  0
  6 16  1  0
  7 17  1  0
  7 18  1  0
  8 19  1  0
  8 20  1  0
  9 21  1  0
  9 22  1  0
  9 23  1  0
M  END
