
     RDKit          3D

 19 20  0  0  0  0  0  0  0  0999 V2000
   -1.8859    1.5375   -0.8345 C   0  0  0  0  0  0  0  0  0  0  0  0
   -1.2937    0.7630   -0.0926 C   0  0  0  0  0  0  0  0  0  0  0  0
   -0.6062   -0.1774    0.7876 C   0  0  0  0  0  0  0  0  0  0  0  0
   -1.4248   -0.9247    1.7957 C   0  0  0  0  0  0  0  0  0  0  0  0
   -0.8284   -2.1302    1.5133 O   0  0  0  0  0  0  0  0  0  0  0  0
   -0.3389   -1.5564    0.3319 C   0  0  0  0  0  0  0  0  0  0  0  0
    0.7697   -0.5548    0.4531 C   0  0  0  0  0  0  0  0  0  0  0  0
    1.4249   -0.1845   -0.8300 C   0  0  0  0  0  0  0  0  0  0  0  0
    1.5099    1.3141   -1.0465 C   0  0  0  0  0  0  0  0  0  0  0  0
   -2.3863    2.2125   -1.4795 H   0  0  0  0  0  0  0  0  0  0  0  0
   -1.2668   -0.5242    2.8246 H   0  0  0  0  0  0  0  0  0  0  0  0
   -2.5252   -0.8677    1.5856 H   0  0  0  0  0  0  0  0  0  0  0  0
   -0.6447   -1.9542   -0.6314 H   0  0  0  0  0  0  0  0  0  0  0  0
    1.4408   -0.7438    1.3253 H   0  0  0  0  0  0  0  0  0  0  0  0
    2.4594   -0.6392   -0.8099 H   0  0  0  0  0  0  0  0  0  0  0  0
    0.8881   -0.6116   -1.6861 H   0  0  0  0  0  0  0  0  0  0  0  0
    0.8292    1.6270   -1.8432 H   0  0  0  0  0  0  0  0  0  0  0  0
    2.5691    1.5484   -1.2828 H   0  0  0  0  0  0  0  0  0  0  0  0
    1.3098    1.8663   -0.0807 H   0  0  0  0  0  0  0  0  0  0  0  0
  1  2  3  0
  2  3  1  0
  3  4  1  0
  4  5  1  0
  5  6  1  0
  6  7  1  0
  7  8  1  0
  8  9  1  0
  6  3  1  0
  7  3  1  0
  1 10  1  0
  4 11  1  0
  4 12  1  0
  6 13  1  0
  7 14  1  0
  8 15  1  0
  8 16  1  0
  9 17  1  0
  9 18  1  0
  9 19  1  0
M  END
