
     RDKit          3D

 17 18  0  0  0  0  0  0  0  0999 V2000
    2.8476    0.9289    0.6009 C   0  0  0  0  0  0  0  0  0  0  0  0
    2.0967    0.0461    0.2663 C   0  0  0  0  0  0  0  0  0  0  0  0
    1.1878   -1.0083   -0.1191 C   0  0  0  0  0  0  0  0  0  0  0  0
    1.7053   -2.1390   -0.3522 O   0  0  0  0  0  0  0  0  0  0  0  0
   -0.2396   -0.7591   -0.2265 C   0  0  0  0  0  0  0  0  0  0  0  0
   -0.7621    0.2913   -1.2088 C   0  0  0  0  0  0  0  0  0  0  0  0
   -0.9898    1.1874   -0.0134 C   0  0  0  0  0  0  0  0  0  0  0  0
   -0.8142    0.0712    0.9528 C   0  0  0  0  0  0  0  0  0  0  0  0
   -1.2488   -1.3105    0.6837 C   0  0  0  0  0  0  0  0  0  0  0  0
    3.5221    1.7083    0.9157 H   0  0  0  0  0  0  0  0  0  0  0  0
   -0.0437    0.6323   -1.9514 H   0  0  0  0  0  0  0  0  0  0  0  0
   -1.7126   -0.1177   -1.6560 H   0  0  0  0  0  0  0  0  0  0  0  0
   -0.2026    1.9757    0.0131 H   0  0  0  0  0  0  0  0  0  0  0  0
   -1.9814    1.7025    0.0078 H   0  0  0  0  0  0  0  0  0  0  0  0
   -0.1650    0.2689    1.8015 H   0  0  0  0  0  0  0  0  0  0  0  0
   -2.2987   -1.4038    0.2829 H   0  0  0  0  0  0  0  0  0  0  0  0
   -0.9010   -2.0743    1.4062 H   0  0  0  0  0  0  0  0  0  0  0  0
  1  2  3  0
  2  3  1  0
  3  4  2  0
  3  5  1  0
  5  6  1  0
  6  7  1  0
  7  8  1  0
  8  9  1  0
  8  5  1  0
  9  5  1  0
  1 10  1  0
  6 11  1  0
  6 12  1  0
  7 13  1  0
  7 14  1  0
  8 15  1  0
  9 16  1  0
  9 17  1  0
M  END
