
     RDKit          3D

 19 20  0  0  0  0  0  0  0  0999 V2000
   -3.4811   -0.4336   -0.2492 C   0  0  0  0  0  0  0  0  0  0  0  0
   -1.9642   -0.2142   -0.3043 C   0  0  0  0  0  0  0  0  0  0  0  0
   -0.8352   -0.0444   -0.3584 C   0  0  0  0  0  0  0  0  0  0  0  0
   -0.2343    1.1756   -1.1646 C   0  0  0  0  0  0  0  0  0  0  0  0
   -0.1404    0.1858    1.1532 C   0  0  0  0  0  0  0  0  0  0  0  0
    1.1036   -0.1816    0.4702 C   0  0  0  0  0  0  0  0  0  0  0  0
    2.3864   -0.2377    0.9507 C   0  0  0  0  0  0  0  0  0  0  0  0
    1.9634    0.6839   -0.1322 O   0  0  0  0  0  0  0  0  0  0  0  0
    0.2888   -1.1567   -0.3380 C   0  0  0  0  0  0  0  0  0  0  0  0
   -4.3902   -0.5761   -0.2156 H   0  0  0  0  0  0  0  0  0  0  0  0
    0.0699    1.9625   -0.5072 H   0  0  0  0  0  0  0  0  0  0  0  0
   -1.0312    1.4481   -1.9240 H   0  0  0  0  0  0  0  0  0  0  0  0
    0.5720    0.7259   -1.7797 H   0  0  0  0  0  0  0  0  0  0  0  0
   -0.2634    1.1897    1.4333 H   0  0  0  0  0  0  0  0  0  0  0  0
   -0.6724   -0.6511    1.6978 H   0  0  0  0  0  0  0  0  0  0  0  0
    3.2098   -0.8461    0.5260 H   0  0  0  0  0  0  0  0  0  0  0  0
    2.6976    0.3979    1.8041 H   0  0  0  0  0  0  0  0  0  0  0  0
    0.7530   -1.3771   -1.2723 H   0  0  0  0  0  0  0  0  0  0  0  0
   -0.0321   -2.0510    0.2102 H   0  0  0  0  0  0  0  0  0  0  0  0
  1  2  3  0
  2  3  1  0
  3  4  1  0
  3  5  1  0
  5  6  1  0
  6  7  1  0
  7  8  1  0
  6  9  1  0
  9  3  1  0
  8  6  1  0
  1 10  1  0
  4 11  1  0
  4 12  1  0
  4 13  1  0
  5 14  1  0
  5 15  1  0
  7 16  1  0
  7 17  1  0
  9 18  1  0
  9 19  1  0
M  END
