
     RDKit          3D

 16 15  0  0  0  0  0  0  0  0999 V2000
   -2.9980   -0.9129    0.2231 C   0  0  0  0  0  0  0  0  0  0  0  0
   -1.9719   -0.4338   -0.2166 C   0  0  0  0  0  0  0  0  0  0  0  0
   -0.7388    0.1401   -0.7605 C   0  0  0  0  0  0  0  0  0  0  0  0
    0.4398   -0.4615   -0.1162 C   0  0  0  0  0  0  0  0  0  0  0  0
    1.3952   -0.9704    0.4211 C   0  0  0  0  0  0  0  0  0  0  0  0
    2.5752   -1.5872    1.0639 C   0  0  0  0  0  0  0  0  0  0  0  0
   -0.7963    1.6363   -0.4482 C   0  0  0  0  0  0  0  0  0  0  0  0
    0.3087    2.3121   -0.9052 O   0  0  0  0  0  0  0  0  0  0  0  0
   -3.9017   -1.3419    0.6005 H   0  0  0  0  0  0  0  0  0  0  0  0
   -0.7263   -0.0425   -1.8456 H   0  0  0  0  0  0  0  0  0  0  0  0
    3.1942   -1.9910    0.2347 H   0  0  0  0  0  0  0  0  0  0  0  0
    2.2821   -2.4084    1.7453 H   0  0  0  0  0  0  0  0  0  0  0  0
    3.1555   -0.7869    1.5630 H   0  0  0  0  0  0  0  0  0  0  0  0
   -0.8870    1.7112    0.6558 H   0  0  0  0  0  0  0  0  0  0  0  0
   -1.7450    2.0024   -0.8952 H   0  0  0  0  0  0  0  0  0  0  0  0
    0.4144    3.1345   -0.3791 H   0  0  0  0  0  0  0  0  0  0  0  0
  1  2  3  0
  2  3  1  0
  3  4  1  0
  4  5  3  0
  5  6  1  0
  3  7  1  0
  7  8  1  0
  1  9  1  0
  3 10  1  0
  6 11  1  0
  6 12  1  0
  6 13  1  0
  7 14  1  0
  7 15  1  0
  8 16  1  0
M  END
