
     RDKit          3D

 19 20  0  0  0  0  0  0  0  0999 V2000
    2.5235   -0.8194   -0.3328 C   0  0  0  0  0  0  0  0  0  0  0  0
    1.1954   -0.2236    0.3300 C   0  0  0  0  0  0  0  0  0  0  0  0
    0.2977    0.1967    0.7701 C   0  0  0  0  0  0  0  0  0  0  0  0
    0.2763    1.8861    0.3627 C   0  0  0  0  0  0  0  0  0  0  0  0
   -0.6940    1.9488   -0.5359 O   0  0  0  0  0  0  0  0  0  0  0  0
   -0.6459    0.7203   -1.1749 C   0  0  0  0  0  0  0  0  0  0  0  0
   -1.0801   -0.1355   -0.1030 C   0  0  0  0  0  0  0  0  0  0  0  0
   -0.8731   -1.6982   -0.4677 C   0  0  0  0  0  0  0  0  0  0  0  0
   -0.8657   -0.0443    1.5058 C   0  0  0  0  0  0  0  0  0  0  0  0
    3.4903   -1.2604   -0.8345 H   0  0  0  0  0  0  0  0  0  0  0  0
    0.1818    2.3674    1.3087 H   0  0  0  0  0  0  0  0  0  0  0  0
    1.3394    1.9791   -0.0825 H   0  0  0  0  0  0  0  0  0  0  0  0
    0.5272    0.5278   -1.2469 H   0  0  0  0  0  0  0  0  0  0  0  0
   -1.0950    0.6320   -2.1375 H   0  0  0  0  0  0  0  0  0  0  0  0
   -1.6789   -2.0349   -0.9950 H   0  0  0  0  0  0  0  0  0  0  0  0
   -0.6691   -2.1710    0.5579 H   0  0  0  0  0  0  0  0  0  0  0  0
    0.1524   -1.5958   -0.9467 H   0  0  0  0  0  0  0  0  0  0  0  0
   -1.3762    0.7759    1.9978 H   0  0  0  0  0  0  0  0  0  0  0  0
   -1.0060   -1.0512    2.0241 H   0  0  0  0  0  0  0  0  0  0  0  0
  1  2  3  0
  2  3  1  0
  3  4  1  0
  4  5  1  0
  5  6  1  0
  6  7  1  0
  7  8  1  0
  7  9  1  0
  7  3  1  0
  9  3  1  0
  1 10  1  0
  4 11  1  0
  4 12  1  0
  6 13  1  0
  6 14  1  0
  8 15  1  0
  8 16  1  0
  8 17  1  0
  9 18  1  0
  9 19  1  0
M  END
