
     RDKit          3D

 17 17  0  0  0  0  0  0  0  0999 V2000
    3.3210    0.9364    0.0484 C   0  0  0  0  0  0  0  0  0  0  0  0
    2.2064    0.8544    0.1762 C   0  0  0  0  0  0  0  0  0  0  0  0
    0.7050    0.7591    0.3651 C   0  0  0  0  0  0  0  0  0  0  0  0
    0.3351   -0.1250    1.4467 O   0  0  0  0  0  0  0  0  0  0  0  0
   -0.0885   -0.2878    0.0152 C   0  0  0  0  0  0  0  0  0  0  0  0
    0.5056   -1.4712   -0.7006 C   0  0  0  0  0  0  0  0  0  0  0  0
   -1.5200    0.0035   -0.2481 C   0  0  0  0  0  0  0  0  0  0  0  0
   -2.4306    0.6937    0.5443 C   0  0  0  0  0  0  0  0  0  0  0  0
   -2.8490    1.1350    1.5389 O   0  0  0  0  0  0  0  0  0  0  0  0
    4.7795    1.0433   -0.1434 H   0  0  0  0  0  0  0  0  0  0  0  0
    0.3358    1.8591    0.4717 H   0  0  0  0  0  0  0  0  0  0  0  0
    0.1757   -2.3914   -0.0531 H   0  0  0  0  0  0  0  0  0  0  0  0
   -0.0095   -1.5646   -1.6855 H   0  0  0  0  0  0  0  0  0  0  0  0
    1.5820   -1.3581   -0.7253 H   0  0  0  0  0  0  0  0  0  0  0  0
   -1.7144   -0.0222   -1.3870 H   0  0  0  0  0  0  0  0  0  0  0  0
   -1.9551   -1.1530   -0.0922 H   0  0  0  0  0  0  0  0  0  0  0  0
   -3.3789    1.0888   -0.2820 H   0  0  0  0  0  0  0  0  0  0  0  0
  1  2  3  0
  2  3  1  0
  3  4  1  0
  4  5  1  0
  5  6  1  0
  5  7  1  0
  7  8  1  0
  8  9  2  0
  5  3  1  0
  1 10  1  0
  3 11  1  0
  6 12  1  0
  6 13  1  0
  6 14  1  0
  7 15  1  0
  7 16  1  0
  8 17  1  0
M  END
