
     RDKit          3D

 19 18  0  0  0  0  0  0  0  0999 V2000
    2.9605    2.3895   -0.8205 C   0  0  0  0  0  0  0  0  0  0  0  0
    2.3700    1.3636   -1.0011 C   0  0  0  0  0  0  0  0  0  0  0  0
    1.6535    0.1040   -1.2439 C   0  0  0  0  0  0  0  0  0  0  0  0
    1.2882   -0.5268    0.0218 C   0  0  0  0  0  0  0  0  0  0  0  0
    2.1885   -1.1457    0.5986 O   0  0  0  0  0  0  0  0  0  0  0  0
   -0.0351   -0.5061    0.6866 C   0  0  0  0  0  0  0  0  0  0  0  0
   -1.0881   -0.7752   -0.3714 C   0  0  0  0  0  0  0  0  0  0  0  0
   -2.4371   -0.7556    0.3153 C   0  0  0  0  0  0  0  0  0  0  0  0
   -2.5777    0.5275    0.8844 O   0  0  0  0  0  0  0  0  0  0  0  0
    3.5030    3.3131   -0.6736 H   0  0  0  0  0  0  0  0  0  0  0  0
    0.7560    0.3280   -1.8285 H   0  0  0  0  0  0  0  0  0  0  0  0
    2.2915   -0.6117   -1.8178 H   0  0  0  0  0  0  0  0  0  0  0  0
   -0.0973   -1.3394    1.4344 H   0  0  0  0  0  0  0  0  0  0  0  0
   -0.2912    0.4667    1.1407 H   0  0  0  0  0  0  0  0  0  0  0  0
   -1.1120    0.0655   -1.1138 H   0  0  0  0  0  0  0  0  0  0  0  0
   -0.8680   -1.7221   -0.8806 H   0  0  0  0  0  0  0  0  0  0  0  0
   -3.2790   -0.8635   -0.3977 H   0  0  0  0  0  0  0  0  0  0  0  0
   -2.5467   -1.5084    1.0950 H   0  0  0  0  0  0  0  0  0  0  0  0
   -2.6789    1.1966    0.1643 H   0  0  0  0  0  0  0  0  0  0  0  0
  1  2  3  0
  2  3  1  0
  3  4  1  0
  4  5  2  0
  4  6  1  0
  6  7  1  0
  7  8  1  0
  8  9  1  0
  1 10  1  0
  3 11  1  0
  3 12  1  0
  6 13  1  0
  6 14  1  0
  7 15  1  0
  7 16  1  0
  8 17  1  0
  8 18  1  0
  9 19  1  0
M  END
