
     RDKit          3D

 19 19  0  0  0  0  0  0  0  0999 V2000
    2.6367    1.5706    0.0637 C   0  0  0  0  0  0  0  0  0  0  0  0
    1.8750    0.6342    0.0667 C   0  0  0  0  0  0  0  0  0  0  0  0
    0.9758   -0.5111    0.0659 C   0  0  0  0  0  0  0  0  0  0  0  0
    1.5610   -1.7522    0.1563 O   0  0  0  0  0  0  0  0  0  0  0  0
   -0.1661   -0.2471    1.0276 C   0  0  0  0  0  0  0  0  0  0  0  0
   -0.7673    0.5784   -0.1060 C   0  0  0  0  0  0  0  0  0  0  0  0
   -2.2529    0.6088   -0.1612 C   0  0  0  0  0  0  0  0  0  0  0  0
   -0.0981   -0.4337   -1.0290 C   0  0  0  0  0  0  0  0  0  0  0  0
   -0.8340   -1.5815   -1.0929 O   0  0  0  0  0  0  0  0  0  0  0  0
    3.2954    2.3988    0.0467 H   0  0  0  0  0  0  0  0  0  0  0  0
    2.5202   -1.5951    0.4040 H   0  0  0  0  0  0  0  0  0  0  0  0
    0.1166    0.3149    1.9178 H   0  0  0  0  0  0  0  0  0  0  0  0
   -0.7267   -1.1940    1.1957 H   0  0  0  0  0  0  0  0  0  0  0  0
   -0.2590    1.5551   -0.1988 H   0  0  0  0  0  0  0  0  0  0  0  0
   -2.5886    1.6166    0.2187 H   0  0  0  0  0  0  0  0  0  0  0  0
   -2.7504   -0.1609    0.4280 H   0  0  0  0  0  0  0  0  0  0  0  0
   -2.6197    0.5958   -1.2289 H   0  0  0  0  0  0  0  0  0  0  0  0
    0.3187   -0.0240   -1.9541 H   0  0  0  0  0  0  0  0  0  0  0  0
   -0.2367   -2.3737   -0.9522 H   0  0  0  0  0  0  0  0  0  0  0  0
  1  2  3  0
  2  3  1  0
  3  4  1  0
  3  5  1  0
  5  6  1  0
  6  7  1  0
  6  8  1  0
  8  9  1  0
  8  3  1  0
  1 10  1  0
  4 11  1  0
  5 12  1  0
  5 13  1  0
  6 14  1  0
  7 15  1  0
  7 16  1  0
  7 17  1  0
  8 18  1  0
  9 19  1  0
M  END
