
     RDKit          3D

 15 16  0  0  0  0  0  0  0  0999 V2000
    2.7364   -0.0642   -0.4827 C   0  0  0  0  0  0  0  0  0  0  0  0
    1.5342    0.1448   -0.4663 C   0  0  0  0  0  0  0  0  0  0  0  0
    0.0932    0.4150   -0.4631 C   0  0  0  0  0  0  0  0  0  0  0  0
   -0.2538    1.6196   -1.0097 O   0  0  0  0  0  0  0  0  0  0  0  0
   -0.4990    0.1107    0.9067 C   0  0  0  0  0  0  0  0  0  0  0  0
   -1.5506    0.9246    1.2818 O   0  0  0  0  0  0  0  0  0  0  0  0
   -1.0130   -1.1985    0.3558 C   0  0  0  0  0  0  0  0  0  0  0  0
   -0.2105   -1.9834   -0.4407 O   0  0  0  0  0  0  0  0  0  0  0  0
   -0.6484   -0.7936   -0.9734 C   0  0  0  0  0  0  0  0  0  0  0  0
    3.7847   -0.2374   -0.5131 H   0  0  0  0  0  0  0  0  0  0  0  0
    0.5053    2.2466   -0.9616 H   0  0  0  0  0  0  0  0  0  0  0  0
    0.2851   -0.0375    1.6911 H   0  0  0  0  0  0  0  0  0  0  0  0
   -1.5086    1.2007    2.2359 H   0  0  0  0  0  0  0  0  0  0  0  0
   -1.9670   -1.6096    0.6906 H   0  0  0  0  0  0  0  0  0  0  0  0
   -1.2880   -0.7379   -1.8512 H   0  0  0  0  0  0  0  0  0  0  0  0
  1  2  3  0
  2  3  1  0
  3  4  1  0
  3  5  1  0
  5  6  1  0
  5  7  1  0
  7  8  1  0
  8  9  1  0
  9  3  1  0
  9  7  1  0
  1 10  1  0
  4 11  1  0
  5 12  1  0
  6 13  1  0
  7 14  1  0
  9 15  1  0
M  END
