
     RDKit          3D

 23 23  0  0  0  0  0  0  0  0999 V2000
    0.4008   -1.7610    2.3459 C   0  0  0  0  0  0  0  0  0  0  0  0
    0.1667   -1.1202    1.3469 C   0  0  0  0  0  0  0  0  0  0  0  0
   -0.1119   -0.3180    0.1350 C   0  0  0  0  0  0  0  0  0  0  0  0
   -0.0040   -1.1161   -1.1326 C   0  0  0  0  0  0  0  0  0  0  0  0
    1.4175   -1.6593   -1.2279 C   0  0  0  0  0  0  0  0  0  0  0  0
    0.2818    1.0903    0.0821 C   0  0  0  0  0  0  0  0  0  0  0  0
    0.9698    1.7973    1.2156 C   0  0  0  0  0  0  0  0  0  0  0  0
   -1.1536    0.7430    0.2792 C   0  0  0  0  0  0  0  0  0  0  0  0
   -2.1304    0.9759   -0.8650 C   0  0  0  0  0  0  0  0  0  0  0  0
    0.6226   -2.3148    3.2211 H   0  0  0  0  0  0  0  0  0  0  0  0
   -0.1334   -0.4686   -2.0348 H   0  0  0  0  0  0  0  0  0  0  0  0
   -0.7042   -1.9431   -1.2023 H   0  0  0  0  0  0  0  0  0  0  0  0
    1.6681   -2.1547   -0.2474 H   0  0  0  0  0  0  0  0  0  0  0  0
    2.1281   -0.8586   -1.4797 H   0  0  0  0  0  0  0  0  0  0  0  0
    1.4802   -2.4502   -1.9992 H   0  0  0  0  0  0  0  0  0  0  0  0
    0.5153    1.5173   -0.9174 H   0  0  0  0  0  0  0  0  0  0  0  0
    0.4332    2.7768    1.3790 H   0  0  0  0  0  0  0  0  0  0  0  0
    2.0362    1.9671    1.0644 H   0  0  0  0  0  0  0  0  0  0  0  0
    0.8093    1.2300    2.1685 H   0  0  0  0  0  0  0  0  0  0  0  0
   -1.6037    0.8933    1.2968 H   0  0  0  0  0  0  0  0  0  0  0  0
   -3.1756    0.9788   -0.5111 H   0  0  0  0  0  0  0  0  0  0  0  0
   -1.8914    1.9839   -1.2679 H   0  0  0  0  0  0  0  0  0  0  0  0
   -2.0215    0.2111   -1.6492 H   0  0  0  0  0  0  0  0  0  0  0  0
  1  2  3  0
  2  3  1  0
  3  4  1  0
  4  5  1  0
  3  6  1  0
  6  7  1  0
  6  8  1  0
  8  9  1  0
  8  3  1  0
  1 10  1  0
  4 11  1  0
  4 12  1  0
  5 13  1  0
  5 14  1  0
  5 15  1  0
  6 16  1  0
  7 17  1  0
  7 18  1  0
  7 19  1  0
  8 20  1  0
  9 21  1  0
  9 22  1  0
  9 23  1  0
M  END
