
     RDKit          3D

 19 19  0  0  0  0  0  0  0  0999 V2000
   -2.2886    1.9376   -0.7972 C   0  0  0  0  0  0  0  0  0  0  0  0
   -1.5993    0.9933   -0.4628 C   0  0  0  0  0  0  0  0  0  0  0  0
   -0.7642   -0.1370   -0.0356 C   0  0  0  0  0  0  0  0  0  0  0  0
   -1.6697   -1.2456    0.3822 C   0  0  0  0  0  0  0  0  0  0  0  0
    0.0911   -0.5716   -1.1751 C   0  0  0  0  0  0  0  0  0  0  0  0
    1.3502   -0.7614   -0.6282 O   0  0  0  0  0  0  0  0  0  0  0  0
    1.3588   -0.2664    0.6416 C   0  0  0  0  0  0  0  0  0  0  0  0
    2.4289    0.7957    0.7517 C   0  0  0  0  0  0  0  0  0  0  0  0
    0.1286    0.2479    0.9508 O   0  0  0  0  0  0  0  0  0  0  0  0
   -2.8738    2.7697   -1.0931 H   0  0  0  0  0  0  0  0  0  0  0  0
   -1.3428   -1.5935    1.3922 H   0  0  0  0  0  0  0  0  0  0  0  0
   -2.7353   -0.9063    0.4576 H   0  0  0  0  0  0  0  0  0  0  0  0
   -1.6574   -2.0416   -0.3767 H   0  0  0  0  0  0  0  0  0  0  0  0
    0.1327    0.1999   -1.9983 H   0  0  0  0  0  0  0  0  0  0  0  0
   -0.2402   -1.5107   -1.6554 H   0  0  0  0  0  0  0  0  0  0  0  0
    1.5684   -1.1256    1.3388 H   0  0  0  0  0  0  0  0  0  0  0  0
    2.9525    0.9279   -0.2151 H   0  0  0  0  0  0  0  0  0  0  0  0
    3.2077    0.5077    1.5026 H   0  0  0  0  0  0  0  0  0  0  0  0
    1.9523    1.7800    1.0199 H   0  0  0  0  0  0  0  0  0  0  0  0
  1  2  3  0
  2  3  1  0
  3  4  1  0
  3  5  1  0
  5  6  1  0
  6  7  1  0
  7  8  1  0
  7  9  1  0
  9  3  1  0
  1 10  1  0
  4 11  1  0
  4 12  1  0
  4 13  1  0
  5 14  1  0
  5 15  1  0
  7 16  1  0
  8 17  1  0
  8 18  1  0
  8 19  1  0
M  END
