
     RDKit          3D

 13 12  0  0  0  0  0  0  0  0999 V2000
    2.3471    0.8845    0.4408 C   0  0  0  0  0  0  0  0  0  0  0  0
    1.0438    0.8238    0.5833 C   0  0  0  0  0  0  0  0  0  0  0  0
   -0.3011    0.7731    0.7099 C   0  0  0  0  0  0  0  0  0  0  0  0
   -0.8392    1.9472    0.0296 O   0  0  0  0  0  0  0  0  0  0  0  0
   -0.7075   -0.3459   -0.3255 C   0  0  0  0  0  0  0  0  0  0  0  0
   -0.7716   -1.7355    0.0706 C   0  0  0  0  0  0  0  0  0  0  0  0
   -0.9654    0.0200   -1.4821 O   0  0  0  0  0  0  0  0  0  0  0  0
    3.5727    0.9410    0.3285 H   0  0  0  0  0  0  0  0  0  0  0  0
   -0.7319    0.5177    1.6086 H   0  0  0  0  0  0  0  0  0  0  0  0
   -0.2384    2.6940    0.0390 H   0  0  0  0  0  0  0  0  0  0  0  0
   -0.4890   -2.3779   -0.8312 H   0  0  0  0  0  0  0  0  0  0  0  0
   -1.8134   -2.1304    0.2863 H   0  0  0  0  0  0  0  0  0  0  0  0
   -0.1061   -2.0117    0.9022 H   0  0  0  0  0  0  0  0  0  0  0  0
  1  2  3  0
  2  3  1  0
  3  4  1  0
  3  5  1  0
  5  6  1  0
  5  7  2  0
  1  8  1  0
  3  9  1  0
  4 10  1  0
  6 11  1  0
  6 12  1  0
  6 13  1  0
M  END
