
     RDKit          3D

 16 16  0  0  0  0  0  0  0  0999 V2000
    1.1258   -2.2269    1.6782 C   0  0  0  0  0  0  0  0  0  0  0  0
    0.3774   -1.4462    1.2215 C   0  0  0  0  0  0  0  0  0  0  0  0
   -0.5605   -0.4457    0.6195 C   0  0  0  0  0  0  0  0  0  0  0  0
   -1.7555   -1.0530    0.2826 O   0  0  0  0  0  0  0  0  0  0  0  0
    0.0504    0.2090   -0.5644 C   0  0  0  0  0  0  0  0  0  0  0  0
    0.3413   -0.6158   -1.6583 O   0  0  0  0  0  0  0  0  0  0  0  0
    0.8887    1.4265   -0.4550 C   0  0  0  0  0  0  0  0  0  0  0  0
   -0.5080    1.5863   -0.9398 C   0  0  0  0  0  0  0  0  0  0  0  0
    1.8272   -2.9320    2.1026 H   0  0  0  0  0  0  0  0  0  0  0  0
   -0.7631    0.2765    1.4609 H   0  0  0  0  0  0  0  0  0  0  0  0
   -2.5579   -0.5111    0.4675 H   0  0  0  0  0  0  0  0  0  0  0  0
    0.6531   -1.4847   -1.3638 H   0  0  0  0  0  0  0  0  0  0  0  0
    1.1580    1.7481    0.5513 H   0  0  0  0  0  0  0  0  0  0  0  0
    1.6670    1.5901   -1.2002 H   0  0  0  0  0  0  0  0  0  0  0  0
   -0.7171    1.8062   -1.9825 H   0  0  0  0  0  0  0  0  0  0  0  0
   -1.2269    2.0726   -0.2200 H   0  0  0  0  0  0  0  0  0  0  0  0
  1  2  3  0
  2  3  1  0
  3  4  1  0
  3  5  1  0
  5  6  1  0
  5  7  1  0
  7  8  1  0
  8  5  1  0
  1  9  1  0
  3 10  1  0
  4 11  1  0
  6 12  1  0
  7 13  1  0
  7 14  1  0
  8 15  1  0
  8 16  1  0
M  END
