
     RDKit          3D

 19 19  0  0  0  0  0  0  0  0999 V2000
    3.4577   -0.3278   -1.2426 C   0  0  0  0  0  0  0  0  0  0  0  0
    2.5286   -0.3126   -0.5823 C   0  0  0  0  0  0  0  0  0  0  0  0
    1.3256   -0.3086    0.2522 C   0  0  0  0  0  0  0  0  0  0  0  0
    0.1015   -0.4962   -0.6502 C   0  0  0  0  0  0  0  0  0  0  0  0
   -0.9263    0.3298    0.0426 C   0  0  0  0  0  0  0  0  0  0  0  0
   -1.9641   -0.6428    0.6003 C   0  0  0  0  0  0  0  0  0  0  0  0
   -1.5465    1.2490   -0.8148 O   0  0  0  0  0  0  0  0  0  0  0  0
   -0.1895    1.0047    1.1513 C   0  0  0  0  0  0  0  0  0  0  0  0
    1.1407    0.9634    0.7816 O   0  0  0  0  0  0  0  0  0  0  0  0
    4.3822   -0.3463   -1.9240 H   0  0  0  0  0  0  0  0  0  0  0  0
    1.2813   -1.1291    0.9849 H   0  0  0  0  0  0  0  0  0  0  0  0
    0.3311   -0.0092   -1.6335 H   0  0  0  0  0  0  0  0  0  0  0  0
   -0.2022   -1.5397   -0.7617 H   0  0  0  0  0  0  0  0  0  0  0  0
   -2.5502   -0.9956   -0.2819 H   0  0  0  0  0  0  0  0  0  0  0  0
   -1.4013   -1.4833    1.0142 H   0  0  0  0  0  0  0  0  0  0  0  0
   -2.6271   -0.1986    1.3448 H   0  0  0  0  0  0  0  0  0  0  0  0
   -2.3033    1.6432   -0.3114 H   0  0  0  0  0  0  0  0  0  0  0  0
   -0.3585    0.5228    2.1368 H   0  0  0  0  0  0  0  0  0  0  0  0
   -0.4795    2.0768    1.1582 H   0  0  0  0  0  0  0  0  0  0  0  0
  1  2  3  0
  2  3  1  0
  3  4  1  0
  4  5  1  0
  5  6  1  0
  5  7  1  0
  5  8  1  0
  8  9  1  0
  9  3  1  0
  1 10  1  0
  3 11  1  0
  4 12  1  0
  4 13  1  0
  6 14  1  0
  6 15  1  0
  6 16  1  0
  7 17  1  0
  8 18  1  0
  8 19  1  0
M  END
