
     RDKit          3D

 15 16  0  0  0  0  0  0  0  0999 V2000
    2.1266    2.0115   -0.9781 C   0  0  0  0  0  0  0  0  0  0  0  0
    0.9483    1.2580   -0.4890 C   0  0  0  0  0  0  0  0  0  0  0  0
    0.1790    0.7576   -0.1526 C   0  0  0  0  0  0  0  0  0  0  0  0
   -0.4639    1.0557    1.2500 O   0  0  0  0  0  0  0  0  0  0  0  0
   -1.1419    0.2921   -0.8614 C   0  0  0  0  0  0  0  0  0  0  0  0
   -1.8176    1.0371   -1.5714 O   0  0  0  0  0  0  0  0  0  0  0  0
   -1.0798   -1.0321   -0.3674 C   0  0  0  0  0  0  0  0  0  0  0  0
   -0.6234   -1.4026    1.0080 C   0  0  0  0  0  0  0  0  0  0  0  0
    0.3205   -0.8655    0.0678 C   0  0  0  0  0  0  0  0  0  0  0  0
    3.0806    2.6384   -1.3941 H   0  0  0  0  0  0  0  0  0  0  0  0
    0.2423    0.7345    1.8612 H   0  0  0  0  0  0  0  0  0  0  0  0
   -1.3548   -1.8958   -1.0548 H   0  0  0  0  0  0  0  0  0  0  0  0
   -1.1067   -0.8060    1.8135 H   0  0  0  0  0  0  0  0  0  0  0  0
   -0.4269   -2.4474    1.3107 H   0  0  0  0  0  0  0  0  0  0  0  0
    1.1177   -1.3355   -0.4424 H   0  0  0  0  0  0  0  0  0  0  0  0
  1  2  3  0
  2  3  1  0
  3  4  1  0
  3  5  1  0
  5  6  2  0
  5  7  1  0
  7  8  1  0
  8  9  1  0
  9  3  1  0
  9  7  1  0
  1 10  1  0
  4 11  1  0
  7 12  1  0
  8 13  1  0
  8 14  1  0
  9 15  1  0
M  END
