
     RDKit          3D

 17 17  0  0  0  0  0  0  0  0999 V2000
    2.3758   -1.6530    0.6303 C   0  0  0  0  0  0  0  0  0  0  0  0
    1.4679   -1.0161    0.1795 C   0  0  0  0  0  0  0  0  0  0  0  0
    0.3618   -0.2173   -0.3561 C   0  0  0  0  0  0  0  0  0  0  0  0
    0.7275    1.1691   -0.6092 C   0  0  0  0  0  0  0  0  0  0  0  0
    1.0142    2.3133   -0.8024 C   0  0  0  0  0  0  0  0  0  0  0  0
   -0.4465   -0.8872   -1.4357 C   0  0  0  0  0  0  0  0  0  0  0  0
   -1.5798   -0.2737   -0.8955 O   0  0  0  0  0  0  0  0  0  0  0  0
   -0.9482   -0.3644    0.3514 C   0  0  0  0  0  0  0  0  0  0  0  0
   -1.3138    0.7619    1.2883 C   0  0  0  0  0  0  0  0  0  0  0  0
    3.1881   -2.2303    1.0410 H   0  0  0  0  0  0  0  0  0  0  0  0
    1.2576    3.3390   -0.9618 H   0  0  0  0  0  0  0  0  0  0  0  0
   -0.4741   -1.9901   -1.2365 H   0  0  0  0  0  0  0  0  0  0  0  0
   -0.2069   -0.5955   -2.4661 H   0  0  0  0  0  0  0  0  0  0  0  0
   -1.1258   -1.3705    0.7681 H   0  0  0  0  0  0  0  0  0  0  0  0
   -1.0237    1.7084    0.8111 H   0  0  0  0  0  0  0  0  0  0  0  0
   -0.8543    0.5654    2.2570 H   0  0  0  0  0  0  0  0  0  0  0  0
   -2.4197    0.7410    1.4367 H   0  0  0  0  0  0  0  0  0  0  0  0
  1  2  3  0
  2  3  1  0
  3  4  1  0
  4  5  3  0
  3  6  1  0
  6  7  1  0
  7  8  1  0
  8  9  1  0
  8  3  1  0
  1 10  1  0
  5 11  1  0
  6 12  1  0
  6 13  1  0
  8 14  1  0
  9 15  1  0
  9 16  1  0
  9 17  1  0
M  END
