
     RDKit          3D

 19 20  0  0  0  0  0  0  0  0999 V2000
    1.2963   -3.4389    2.2821 C   0  0  0  0  0  0  0  0  0  0  0  0
    0.7273   -2.4927    1.4533 C   0  0  0  0  0  0  0  0  0  0  0  0
    0.2084   -1.5930    0.6580 C   0  0  0  0  0  0  0  0  0  0  0  0
    0.9685   -0.4152    0.3912 O   0  0  0  0  0  0  0  0  0  0  0  0
    0.1394    0.3346   -0.4519 C   0  0  0  0  0  0  0  0  0  0  0  0
   -1.1819    0.6831    0.1200 C   0  0  0  0  0  0  0  0  0  0  0  0
   -1.1094    2.0395   -0.5246 C   0  0  0  0  0  0  0  0  0  0  0  0
    0.3804    1.7934   -0.6168 C   0  0  0  0  0  0  0  0  0  0  0  0
    0.7612    0.8322   -1.6662 C   0  0  0  0  0  0  0  0  0  0  0  0
    1.7025   -4.1027    2.8833 H   0  0  0  0  0  0  0  0  0  0  0  0
   -0.8448   -1.2234    0.9546 H   0  0  0  0  0  0  0  0  0  0  0  0
   -0.0609   -2.0515   -0.3660 H   0  0  0  0  0  0  0  0  0  0  0  0
   -1.0714    0.8308    1.2384 H   0  0  0  0  0  0  0  0  0  0  0  0
   -2.0395    0.0680   -0.1187 H   0  0  0  0  0  0  0  0  0  0  0  0
   -1.4018    2.9031    0.0976 H   0  0  0  0  0  0  0  0  0  0  0  0
   -1.6421    2.0116   -1.4898 H   0  0  0  0  0  0  0  0  0  0  0  0
    1.0517    2.2567    0.1093 H   0  0  0  0  0  0  0  0  0  0  0  0
    0.2513    0.8647   -2.6487 H   0  0  0  0  0  0  0  0  0  0  0  0
    1.8649    0.6996   -1.7742 H   0  0  0  0  0  0  0  0  0  0  0  0
  1  2  3  0
  2  3  1  0
  3  4  1  0
  4  5  1  0
  5  6  1  0
  6  7  1  0
  7  8  1  0
  8  9  1  0
  8  5  1  0
  9  5  1  0
  1 10  1  0
  3 11  1  0
  3 12  1  0
  6 13  1  0
  6 14  1  0
  7 15  1  0
  7 16  1  0
  8 17  1  0
  9 18  1  0
  9 19  1  0
M  END
