
     RDKit          3D

 21 20  0  0  0  0  0  0  0  0999 V2000
   -1.3568    2.6698    0.9165 C   0  0  0  0  0  0  0  0  0  0  0  0
   -1.3715    1.4446    0.7542 C   0  0  0  0  0  0  0  0  0  0  0  0
   -1.3839   -0.0264    0.5846 C   0  0  0  0  0  0  0  0  0  0  0  0
   -0.0208   -0.5173    0.2974 C   0  0  0  0  0  0  0  0  0  0  0  0
   -0.1446   -2.0614    0.2110 C   0  0  0  0  0  0  0  0  0  0  0  0
    0.9394   -0.2383    1.2109 O   0  0  0  0  0  0  0  0  0  0  0  0
    0.5032   -0.1569   -1.0979 C   0  0  0  0  0  0  0  0  0  0  0  0
    0.9536    1.2452   -1.2537 C   0  0  0  0  0  0  0  0  0  0  0  0
    1.6386   -1.0046   -1.2436 O   0  0  0  0  0  0  0  0  0  0  0  0
   -1.3310    3.6753    1.0611 H   0  0  0  0  0  0  0  0  0  0  0  0
   -1.7873   -0.4640    1.5137 H   0  0  0  0  0  0  0  0  0  0  0  0
   -2.1067   -0.2697   -0.2467 H   0  0  0  0  0  0  0  0  0  0  0  0
    0.6556   -2.4292   -0.4152 H   0  0  0  0  0  0  0  0  0  0  0  0
   -0.1152   -2.4276    1.2575 H   0  0  0  0  0  0  0  0  0  0  0  0
   -1.1400   -2.2863   -0.2094 H   0  0  0  0  0  0  0  0  0  0  0  0
    0.9028   -0.7631    2.0505 H   0  0  0  0  0  0  0  0  0  0  0  0
   -0.1967   -0.5039   -1.8834 H   0  0  0  0  0  0  0  0  0  0  0  0
    0.3177    1.8378   -1.9593 H   0  0  0  0  0  0  0  0  0  0  0  0
    1.0033    1.8189   -0.3204 H   0  0  0  0  0  0  0  0  0  0  0  0
    1.9886    1.2520   -1.7076 H   0  0  0  0  0  0  0  0  0  0  0  0
    2.0518   -0.7947   -2.1159 H   0  0  0  0  0  0  0  0  0  0  0  0
  1  2  3  0
  2  3  1  0
  3  4  1  0
  4  5  1  0
  4  6  1  0
  4  7  1  0
  7  8  1  0
  7  9  1  0
  1 10  1  0
  3 11  1  0
  3 12  1  0
  5 13  1  0
  5 14  1  0
  5 15  1  0
  6 16  1  0
  7 17  1  0
  8 18  1  0
  8 19  1  0
  8 20  1  0
  9 21  1  0
M  END
