
     RDKit          3D

 17 18  0  0  0  0  0  0  0  0999 V2000
    1.9619    2.2278   -1.2221 C   0  0  0  0  0  0  0  0  0  0  0  0
    1.8947    1.1667   -0.6019 C   0  0  0  0  0  0  0  0  0  0  0  0
    1.8340   -0.0910    0.1428 C   0  0  0  0  0  0  0  0  0  0  0  0
    0.9288   -1.1520   -0.3649 C   0  0  0  0  0  0  0  0  0  0  0  0
   -0.2607   -0.8499   -0.9801 O   0  0  0  0  0  0  0  0  0  0  0  0
   -0.6933    0.0479    0.0241 C   0  0  0  0  0  0  0  0  0  0  0  0
   -1.9973   -0.4417    0.6037 C   0  0  0  0  0  0  0  0  0  0  0  0
   -2.9372   -0.5068   -0.4062 O   0  0  0  0  0  0  0  0  0  0  0  0
    0.5398   -0.3566    0.8118 C   0  0  0  0  0  0  0  0  0  0  0  0
    2.0160    3.1471   -1.7394 H   0  0  0  0  0  0  0  0  0  0  0  0
    2.7330   -0.4375    0.6479 H   0  0  0  0  0  0  0  0  0  0  0  0
    1.1787   -2.2146   -0.2351 H   0  0  0  0  0  0  0  0  0  0  0  0
   -0.7024    1.0986   -0.3310 H   0  0  0  0  0  0  0  0  0  0  0  0
   -1.8221   -1.4370    1.0836 H   0  0  0  0  0  0  0  0  0  0  0  0
   -2.2982    0.2547    1.4086 H   0  0  0  0  0  0  0  0  0  0  0  0
   -2.8231    0.2951   -0.9699 H   0  0  0  0  0  0  0  0  0  0  0  0
    0.4475   -0.7507    1.8313 H   0  0  0  0  0  0  0  0  0  0  0  0
  1  2  3  0
  2  3  1  0
  3  4  1  0
  4  5  1  0
  5  6  1  0
  6  7  1  0
  7  8  1  0
  6  9  1  0
  9  3  1  0
  9  4  1  0
  1 10  1  0
  3 11  1  0
  4 12  1  0
  6 13  1  0
  7 14  1  0
  7 15  1  0
  8 16  1  0
  9 17  1  0
M  END
