
     RDKit          3D

 21 21  0  0  0  0  0  0  0  0999 V2000
    0.3685    2.6702   -0.8030 C   0  0  0  0  0  0  0  0  0  0  0  0
    0.1634    1.5016   -0.5995 C   0  0  0  0  0  0  0  0  0  0  0  0
   -0.1041    0.1053   -0.3434 C   0  0  0  0  0  0  0  0  0  0  0  0
   -0.5385   -0.1737    1.0582 C   0  0  0  0  0  0  0  0  0  0  0  0
   -1.7763    0.5093    1.4919 C   0  0  0  0  0  0  0  0  0  0  0  0
   -0.7989   -0.5914   -1.4526 C   0  0  0  0  0  0  0  0  0  0  0  0
    0.0136   -1.7000   -1.2107 O   0  0  0  0  0  0  0  0  0  0  0  0
    0.9935   -0.8021   -0.8600 C   0  0  0  0  0  0  0  0  0  0  0  0
    1.9854   -1.2352    0.1725 C   0  0  0  0  0  0  0  0  0  0  0  0
    0.5440    3.7195   -0.9685 H   0  0  0  0  0  0  0  0  0  0  0  0
   -0.6092   -1.2617    1.2662 H   0  0  0  0  0  0  0  0  0  0  0  0
    0.2962    0.1910    1.7277 H   0  0  0  0  0  0  0  0  0  0  0  0
   -1.6851    0.9184    2.5164 H   0  0  0  0  0  0  0  0  0  0  0  0
   -2.6887   -0.1067    1.4767 H   0  0  0  0  0  0  0  0  0  0  0  0
   -2.0105    1.4041    0.8437 H   0  0  0  0  0  0  0  0  0  0  0  0
   -1.8757   -0.7613   -1.3782 H   0  0  0  0  0  0  0  0  0  0  0  0
   -0.5726   -0.0807   -2.4241 H   0  0  0  0  0  0  0  0  0  0  0  0
    1.4752   -0.3657   -1.7429 H   0  0  0  0  0  0  0  0  0  0  0  0
    2.8860   -1.6227   -0.3436 H   0  0  0  0  0  0  0  0  0  0  0  0
    2.3252   -0.3105    0.7121 H   0  0  0  0  0  0  0  0  0  0  0  0
    1.6085   -2.0076    0.8612 H   0  0  0  0  0  0  0  0  0  0  0  0
  1  2  3  0
  2  3  1  0
  3  4  1  0
  4  5  1  0
  3  6  1  0
  6  7  1  0
  7  8  1  0
  8  9  1  0
  8  3  1  0
  1 10  1  0
  4 11  1  0
  4 12  1  0
  5 13  1  0
  5 14  1  0
  5 15  1  0
  6 16  1  0
  6 17  1  0
  8 18  1  0
  9 19  1  0
  9 20  1  0
  9 21  1  0
M  END
