
     RDKit          3D

 19 18  0  0  0  0  0  0  0  0999 V2000
    1.0401    2.6070   -0.5355 C   0  0  0  0  0  0  0  0  0  0  0  0
    1.1980    1.3602   -1.0061 C   0  0  0  0  0  0  0  0  0  0  0  0
    1.3393    0.1114   -1.4916 C   0  0  0  0  0  0  0  0  0  0  0  0
    2.2840   -0.8124   -0.5791 C   0  0  0  0  0  0  0  0  0  0  0  0
    2.9068   -1.4177    0.0029 C   0  0  0  0  0  0  0  0  0  0  0  0
    0.3060   -0.5777   -0.5362 O   0  0  0  0  0  0  0  0  0  0  0  0
   -0.9084   -0.0874   -0.7800 C   0  0  0  0  0  0  0  0  0  0  0  0
   -1.8016   -0.6327    0.4223 C   0  0  0  0  0  0  0  0  0  0  0  0
   -1.5160   -0.0311    1.6858 C   0  0  0  0  0  0  0  0  0  0  0  0
    0.8607    3.8479   -0.0572 H   0  0  0  0  0  0  0  0  0  0  0  0
    0.9787   -0.2352   -2.3291 H   0  0  0  0  0  0  0  0  0  0  0  0
    3.7275   -2.2253    0.8017 H   0  0  0  0  0  0  0  0  0  0  0  0
   -0.9893    1.0782   -0.8589 H   0  0  0  0  0  0  0  0  0  0  0  0
   -1.5301   -0.3754   -1.6394 H   0  0  0  0  0  0  0  0  0  0  0  0
   -1.0304   -1.6829    0.5157 H   0  0  0  0  0  0  0  0  0  0  0  0
   -2.5633   -1.3339    0.1095 H   0  0  0  0  0  0  0  0  0  0  0  0
   -2.1911   -0.5045    2.5433 H   0  0  0  0  0  0  0  0  0  0  0  0
   -0.4076   -0.1215    2.0882 H   0  0  0  0  0  0  0  0  0  0  0  0
   -1.7030    1.0328    1.6438 H   0  0  0  0  0  0  0  0  0  0  0  0
  1  2  3  0
  2  3  1  0
  3  4  1  0
  4  5  3  0
  3  6  1  0
  6  7  1  0
  7  8  1  0
  8  9  1  0
  1 10  1  0
  3 11  1  0
  5 12  1  0
  7 13  1  0
  7 14  1  0
  8 15  1  0
  8 16  1  0
  9 17  1  0
  9 18  1  0
  9 19  1  0
M  END
