
     RDKit          3D

 17 17  0  0  0  0  0  0  0  0999 V2000
   -1.9436    1.9790    1.1076 C   0  0  0  0  0  0  0  0  0  0  0  0
   -1.2363    1.0563    0.8598 C   0  0  0  0  0  0  0  0  0  0  0  0
   -0.3956   -0.0807    0.5521 C   0  0  0  0  0  0  0  0  0  0  0  0
   -1.1196   -1.0980   -0.3408 C   0  0  0  0  0  0  0  0  0  0  0  0
    0.1140   -1.7683   -0.9537 C   0  0  0  0  0  0  0  0  0  0  0  0
    1.0726   -0.8032   -1.0870 O   0  0  0  0  0  0  0  0  0  0  0  0
    0.6942    0.3288   -0.4167 C   0  0  0  0  0  0  0  0  0  0  0  0
    1.8169    0.9449    0.3114 C   0  0  0  0  0  0  0  0  0  0  0  0
    2.7421    1.4319    0.9154 C   0  0  0  0  0  0  0  0  0  0  0  0
   -2.5858    2.8032    1.3474 H   0  0  0  0  0  0  0  0  0  0  0  0
    0.0207   -0.5877    1.4194 H   0  0  0  0  0  0  0  0  0  0  0  0
   -1.7236   -1.7982    0.2471 H   0  0  0  0  0  0  0  0  0  0  0  0
   -1.6556   -0.5786   -1.1395 H   0  0  0  0  0  0  0  0  0  0  0  0
   -0.1282   -2.3270   -1.8615 H   0  0  0  0  0  0  0  0  0  0  0  0
    0.4798   -2.4875   -0.1624 H   0  0  0  0  0  0  0  0  0  0  0  0
    0.2812    1.1049   -1.1217 H   0  0  0  0  0  0  0  0  0  0  0  0
    3.5668    1.8802    1.4424 H   0  0  0  0  0  0  0  0  0  0  0  0
  1  2  3  0
  2  3  1  0
  3  4  1  0
  4  5  1  0
  5  6  1  0
  6  7  1  0
  7  8  1  0
  8  9  3  0
  7  3  1  0
  1 10  1  0
  3 11  1  0
  4 12  1  0
  4 13  1  0
  5 14  1  0
  5 15  1  0
  7 16  1  0
  9 17  1  0
M  END
