
     RDKit          3D

 19 20  0  0  0  0  0  0  0  0999 V2000
   -2.9261    0.3665   -0.7407 C   0  0  0  0  0  0  0  0  0  0  0  0
   -1.9204   -0.3294   -0.6650 C   0  0  0  0  0  0  0  0  0  0  0  0
   -0.7140   -1.1958   -0.5719 C   0  0  0  0  0  0  0  0  0  0  0  0
    0.4741   -0.4157   -1.0784 C   0  0  0  0  0  0  0  0  0  0  0  0
    0.1767    0.3693    0.2137 C   0  0  0  0  0  0  0  0  0  0  0  0
    1.3825    1.1548    0.6724 C   0  0  0  0  0  0  0  0  0  0  0  0
    1.8058    2.0696   -0.2537 O   0  0  0  0  0  0  0  0  0  0  0  0
    0.1272   -1.0268    0.7626 C   0  0  0  0  0  0  0  0  0  0  0  0
   -0.7764   -2.1049    0.5255 C   0  0  0  0  0  0  0  0  0  0  0  0
   -3.7830    0.9811   -0.8101 H   0  0  0  0  0  0  0  0  0  0  0  0
    0.2802    0.1194   -1.9922 H   0  0  0  0  0  0  0  0  0  0  0  0
    1.4021   -0.9770   -0.9570 H   0  0  0  0  0  0  0  0  0  0  0  0
   -0.7014    0.9873    0.2249 H   0  0  0  0  0  0  0  0  0  0  0  0
    2.2420    0.4513    0.8745 H   0  0  0  0  0  0  0  0  0  0  0  0
    1.1472    1.6595    1.6280 H   0  0  0  0  0  0  0  0  0  0  0  0
    2.7234    2.3593   -0.0137 H   0  0  0  0  0  0  0  0  0  0  0  0
    1.2003   -1.4086    0.6792 H   0  0  0  0  0  0  0  0  0  0  0  0
   -1.6669   -2.1577    1.2230 H   0  0  0  0  0  0  0  0  0  0  0  0
   -0.4734   -3.1684    0.2789 H   0  0  0  0  0  0  0  0  0  0  0  0
  1  2  3  0
  2  3  1  0
  3  4  1  0
  4  5  1  0
  5  6  1  0
  6  7  1  0
  5  8  1  0
  8  9  1  0
  8  3  1  0
  9  3  1  0
  1 10  1  0
  4 11  1  0
  4 12  1  0
  5 13  1  0
  6 14  1  0
  6 15  1  0
  7 16  1  0
  8 17  1  0
  9 18  1  0
  9 19  1  0
M  END
