
     RDKit          3D

 19 20  0  0  0  0  0  0  0  0999 V2000
    3.2100   -0.5854   -0.3462 C   0  0  0  0  0  0  0  0  0  0  0  0
    2.2499    0.0596   -0.0123 C   0  0  0  0  0  0  0  0  0  0  0  0
    1.1156    0.8486    0.3979 C   0  0  0  0  0  0  0  0  0  0  0  0
    0.8261    1.9450   -0.4178 O   0  0  0  0  0  0  0  0  0  0  0  0
   -0.5513    1.6337   -0.5174 C   0  0  0  0  0  0  0  0  0  0  0  0
   -0.2275    0.3247    0.1240 C   0  0  0  0  0  0  0  0  0  0  0  0
   -1.0795   -0.1481    1.2314 C   0  0  0  0  0  0  0  0  0  0  0  0
   -1.5591   -1.2748    0.3086 C   0  0  0  0  0  0  0  0  0  0  0  0
   -0.4173   -0.9100   -0.6501 C   0  0  0  0  0  0  0  0  0  0  0  0
    4.0628   -1.1379   -0.6472 H   0  0  0  0  0  0  0  0  0  0  0  0
    1.2116    1.1923    1.4595 H   0  0  0  0  0  0  0  0  0  0  0  0
   -1.1984    2.3165    0.0598 H   0  0  0  0  0  0  0  0  0  0  0  0
   -0.8315    1.5476   -1.5890 H   0  0  0  0  0  0  0  0  0  0  0  0
   -1.8712    0.4992    1.6163 H   0  0  0  0  0  0  0  0  0  0  0  0
   -0.4668   -0.6243    2.0443 H   0  0  0  0  0  0  0  0  0  0  0  0
   -2.5596   -0.9982   -0.0895 H   0  0  0  0  0  0  0  0  0  0  0  0
   -1.5058   -2.2741    0.7293 H   0  0  0  0  0  0  0  0  0  0  0  0
   -0.8066   -0.7588   -1.6794 H   0  0  0  0  0  0  0  0  0  0  0  0
    0.3986   -1.6556   -0.6498 H   0  0  0  0  0  0  0  0  0  0  0  0
  1  2  3  0
  2  3  1  0
  3  4  1  0
  4  5  1  0
  5  6  1  0
  6  7  1  0
  7  8  1  0
  8  9  1  0
  6  3  1  0
  9  6  1  0
  1 10  1  0
  3 11  1  0
  5 12  1  0
  5 13  1  0
  7 14  1  0
  7 15  1  0
  8 16  1  0
  8 17  1  0
  9 18  1  0
  9 19  1  0
M  END
