
     RDKit          3D

 17 16  0  0  0  0  0  0  0  0999 V2000
   -1.0273    2.9795    0.8401 C   0  0  0  0  0  0  0  0  0  0  0  0
   -0.8733    1.8973    0.3412 C   0  0  0  0  0  0  0  0  0  0  0  0
   -0.7096    0.5652   -0.2739 C   0  0  0  0  0  0  0  0  0  0  0  0
    0.7123    0.2868   -0.4938 C   0  0  0  0  0  0  0  0  0  0  0  0
    1.8870    0.0744   -0.6744 C   0  0  0  0  0  0  0  0  0  0  0  0
    3.2841   -0.1805   -0.8641 C   0  0  0  0  0  0  0  0  0  0  0  0
    4.0633    0.1628    0.0558 O   0  0  0  0  0  0  0  0  0  0  0  0
   -1.3183   -0.5010    0.6487 C   0  0  0  0  0  0  0  0  0  0  0  0
   -1.1515   -1.8459    0.0240 C   0  0  0  0  0  0  0  0  0  0  0  0
   -1.1508    3.9525    1.2893 H   0  0  0  0  0  0  0  0  0  0  0  0
   -1.2261    0.5093   -1.2545 H   0  0  0  0  0  0  0  0  0  0  0  0
    3.7281   -0.6421   -1.7285 H   0  0  0  0  0  0  0  0  0  0  0  0
   -2.3257   -0.2396    0.9549 H   0  0  0  0  0  0  0  0  0  0  0  0
   -0.6643   -0.4866    1.5693 H   0  0  0  0  0  0  0  0  0  0  0  0
   -0.2524   -1.7927   -0.6484 H   0  0  0  0  0  0  0  0  0  0  0  0
   -0.9571   -2.5919    0.8185 H   0  0  0  0  0  0  0  0  0  0  0  0
   -2.0182   -2.1476   -0.6041 H   0  0  0  0  0  0  0  0  0  0  0  0
  1  2  3  0
  2  3  1  0
  3  4  1  0
  4  5  3  0
  5  6  1  0
  6  7  2  0
  3  8  1  0
  8  9  1  0
  1 10  1  0
  3 11  1  0
  6 12  1  0
  8 13  1  0
  8 14  1  0
  9 15  1  0
  9 16  1  0
  9 17  1  0
M  END
