
     RDKit          3D

 17 18  0  0  0  0  0  0  0  0999 V2000
   -3.1396    0.9079    0.6533 C   0  0  0  0  0  0  0  0  0  0  0  0
   -2.3308    0.1284    0.2054 C   0  0  0  0  0  0  0  0  0  0  0  0
   -1.3592   -0.8406   -0.3443 C   0  0  0  0  0  0  0  0  0  0  0  0
   -0.0695   -0.6418    0.4171 C   0  0  0  0  0  0  0  0  0  0  0  0
    0.5352    0.7104    0.3230 C   0  0  0  0  0  0  0  0  0  0  0  0
    0.8382    0.4144   -1.0003 O   0  0  0  0  0  0  0  0  0  0  0  0
    1.1908   -0.7664   -0.3765 C   0  0  0  0  0  0  0  0  0  0  0  0
    1.8512    0.0895    0.6699 C   0  0  0  0  0  0  0  0  0  0  0  0
    2.9857    0.7598    0.2935 O   0  0  0  0  0  0  0  0  0  0  0  0
   -3.8547    1.5950    1.0288 H   0  0  0  0  0  0  0  0  0  0  0  0
   -1.1859   -0.5990   -1.4106 H   0  0  0  0  0  0  0  0  0  0  0  0
   -1.7716   -1.8571   -0.2101 H   0  0  0  0  0  0  0  0  0  0  0  0
   -0.0074   -1.1416    1.4016 H   0  0  0  0  0  0  0  0  0  0  0  0
    0.1667    1.5825    0.6675 H   0  0  0  0  0  0  0  0  0  0  0  0
    1.5721   -1.5969   -0.7987 H   0  0  0  0  0  0  0  0  0  0  0  0
    1.8327   -0.3771    1.6641 H   0  0  0  0  0  0  0  0  0  0  0  0
    2.7459    1.6327   -0.1046 H   0  0  0  0  0  0  0  0  0  0  0  0
  1  2  3  0
  2  3  1  0
  3  4  1  0
  4  5  1  0
  5  6  1  0
  6  7  1  0
  7  8  1  0
  8  9  1  0
  7  4  1  0
  8  5  1  0
  1 10  1  0
  3 11  1  0
  3 12  1  0
  4 13  1  0
  5 14  1  0
  7 15  1  0
  8 16  1  0
  9 17  1  0
M  END
