
     RDKit          3D

 19 18  0  0  0  0  0  0  0  0999 V2000
    3.7702    0.4304    1.9482 C   0  0  0  0  0  0  0  0  0  0  0  0
    2.6701    0.4340    1.2571 C   0  0  0  0  0  0  0  0  0  0  0  0
    1.5025    0.4274    0.5428 C   0  0  0  0  0  0  0  0  0  0  0  0
    0.4131   -0.4881    0.9700 C   0  0  0  0  0  0  0  0  0  0  0  0
   -0.7603   -0.3594    0.3538 O   0  0  0  0  0  0  0  0  0  0  0  0
   -0.5986   -0.7169   -1.0101 C   0  0  0  0  0  0  0  0  0  0  0  0
   -1.9219   -0.6205   -1.6372 C   0  0  0  0  0  0  0  0  0  0  0  0
   -2.4886    0.6114   -1.5916 C   0  0  0  0  0  0  0  0  0  0  0  0
   -3.1395    2.0893   -1.5448 C   0  0  0  0  0  0  0  0  0  0  0  0
    4.8374    0.4395    2.6063 H   0  0  0  0  0  0  0  0  0  0  0  0
    1.2417    1.3881    0.1352 H   0  0  0  0  0  0  0  0  0  0  0  0
    1.8430   -0.0486   -0.5515 H   0  0  0  0  0  0  0  0  0  0  0  0
    0.5314   -0.7754    2.0499 H   0  0  0  0  0  0  0  0  0  0  0  0
    0.7228   -1.5813    0.5037 H   0  0  0  0  0  0  0  0  0  0  0  0
    0.1854   -0.2321   -1.4511 H   0  0  0  0  0  0  0  0  0  0  0  0
   -0.3860   -1.8807   -1.0358 H   0  0  0  0  0  0  0  0  0  0  0  0
   -2.7582   -1.3115   -1.0442 H   0  0  0  0  0  0  0  0  0  0  0  0
   -2.0302   -1.0422   -2.6725 H   0  0  0  0  0  0  0  0  0  0  0  0
   -3.6342    3.2366   -1.5233 H   0  0  0  0  0  0  0  0  0  0  0  0
  1  2  3  0
  2  3  1  0
  3  4  1  0
  4  5  1  0
  5  6  1  0
  6  7  1  0
  7  8  1  0
  8  9  3  0
  1 10  1  0
  3 11  1  0
  3 12  1  0
  4 13  1  0
  4 14  1  0
  6 15  1  0
  6 16  1  0
  7 17  1  0
  7 18  1  0
  9 19  1  0
M  END
