
     RDKit          3D

 19 18  0  0  0  0  0  0  0  0999 V2000
    3.2900    1.6012    0.3711 C   0  0  0  0  0  0  0  0  0  0  0  0
    2.6495    0.5850    0.4813 C   0  0  0  0  0  0  0  0  0  0  0  0
    1.8424   -0.6515    0.6062 C   0  0  0  0  0  0  0  0  0  0  0  0
    0.5779   -0.4801    0.0954 O   0  0  0  0  0  0  0  0  0  0  0  0
   -0.1467    0.5080    0.7137 C   0  0  0  0  0  0  0  0  0  0  0  0
   -1.4971    0.7321    0.2126 C   0  0  0  0  0  0  0  0  0  0  0  0
   -2.1636    1.6545    0.7087 O   0  0  0  0  0  0  0  0  0  0  0  0
   -2.1658   -0.0438   -0.8481 C   0  0  0  0  0  0  0  0  0  0  0  0
   -1.4077   -1.2624   -1.3041 C   0  0  0  0  0  0  0  0  0  0  0  0
    3.8482    2.5217    0.2691 H   0  0  0  0  0  0  0  0  0  0  0  0
    1.8057   -0.9259    1.6663 H   0  0  0  0  0  0  0  0  0  0  0  0
    2.4347   -1.4144    0.0303 H   0  0  0  0  0  0  0  0  0  0  0  0
    0.4718    1.4509    0.7060 H   0  0  0  0  0  0  0  0  0  0  0  0
   -0.1777    0.2345    1.8138 H   0  0  0  0  0  0  0  0  0  0  0  0
   -3.1613   -0.4107   -0.4945 H   0  0  0  0  0  0  0  0  0  0  0  0
   -2.4191    0.6073   -1.7345 H   0  0  0  0  0  0  0  0  0  0  0  0
   -0.5500   -0.9430   -1.8929 H   0  0  0  0  0  0  0  0  0  0  0  0
   -1.1811   -1.8716   -0.4126 H   0  0  0  0  0  0  0  0  0  0  0  0
   -2.0501   -1.8918   -1.9937 H   0  0  0  0  0  0  0  0  0  0  0  0
  1  2  3  0
  2  3  1  0
  3  4  1  0
  4  5  1  0
  5  6  1  0
  6  7  2  0
  6  8  1  0
  8  9  1  0
  1 10  1  0
  3 11  1  0
  3 12  1  0
  5 13  1  0
  5 14  1  0
  8 15  1  0
  8 16  1  0
  9 17  1  0
  9 18  1  0
  9 19  1  0
M  END
