
     RDKit          3D

 17 18  0  0  0  0  0  0  0  0999 V2000
    2.1320   -0.2525    1.9390 C   0  0  0  0  0  0  0  0  0  0  0  0
    1.3982    0.3020    1.1590 C   0  0  0  0  0  0  0  0  0  0  0  0
    0.5171    0.9979    0.2184 C   0  0  0  0  0  0  0  0  0  0  0  0
    0.4388    0.4733   -1.1513 C   0  0  0  0  0  0  0  0  0  0  0  0
    0.5789   -1.0155   -1.3144 C   0  0  0  0  0  0  0  0  0  0  0  0
   -0.7213   -1.1636   -0.5215 C   0  0  0  0  0  0  0  0  0  0  0  0
   -0.7242    0.2878   -0.1480 C   0  0  0  0  0  0  0  0  0  0  0  0
   -1.9382    1.1048   -0.3909 C   0  0  0  0  0  0  0  0  0  0  0  0
   -1.9114    2.0982   -1.0885 O   0  0  0  0  0  0  0  0  0  0  0  0
    2.7738   -0.7419    2.6475 H   0  0  0  0  0  0  0  0  0  0  0  0
    0.4300    2.0802    0.3798 H   0  0  0  0  0  0  0  0  0  0  0  0
    0.2343    1.1102   -2.0284 H   0  0  0  0  0  0  0  0  0  0  0  0
    1.4138   -1.4580   -0.7392 H   0  0  0  0  0  0  0  0  0  0  0  0
    0.4813   -1.3969   -2.3578 H   0  0  0  0  0  0  0  0  0  0  0  0
   -1.5813   -1.3623   -1.2210 H   0  0  0  0  0  0  0  0  0  0  0  0
   -0.6491   -1.8768    0.3224 H   0  0  0  0  0  0  0  0  0  0  0  0
   -2.8727    0.8130    0.0618 H   0  0  0  0  0  0  0  0  0  0  0  0
  1  2  3  0
  2  3  1  0
  3  4  1  0
  4  5  1  0
  5  6  1  0
  6  7  1  0
  7  8  1  0
  8  9  2  0
  7  3  1  0
  7  4  1  0
  1 10  1  0
  3 11  1  0
  4 12  1  0
  5 13  1  0
  5 14  1  0
  6 15  1  0
  6 16  1  0
  8 17  1  0
M  END
