
     RDKit          3D

 19 20  0  0  0  0  0  0  0  0999 V2000
    2.9130   -0.7383   -0.1774 C   0  0  0  0  0  0  0  0  0  0  0  0
    2.0435   -0.4034    0.1683 C   0  0  0  0  0  0  0  0  0  0  0  0
    0.6757    0.0994    0.7243 C   0  0  0  0  0  0  0  0  0  0  0  0
   -0.2252   -0.9885    1.2651 C   0  0  0  0  0  0  0  0  0  0  0  0
   -0.5167   -0.2959   -0.0577 C   0  0  0  0  0  0  0  0  0  0  0  0
   -0.3791   -1.0930   -1.3339 C   0  0  0  0  0  0  0  0  0  0  0  0
   -1.4208    0.8684    0.0056 C   0  0  0  0  0  0  0  0  0  0  0  0
   -0.5043    1.9898    0.4350 C   0  0  0  0  0  0  0  0  0  0  0  0
    0.5964    1.4008    1.0426 O   0  0  0  0  0  0  0  0  0  0  0  0
    3.9458   -1.1155   -0.5781 H   0  0  0  0  0  0  0  0  0  0  0  0
    0.1902   -2.0332    1.1710 H   0  0  0  0  0  0  0  0  0  0  0  0
   -0.8708   -0.7305    2.1184 H   0  0  0  0  0  0  0  0  0  0  0  0
   -0.2655   -0.4203   -2.2359 H   0  0  0  0  0  0  0  0  0  0  0  0
    0.4483   -1.7953   -1.3138 H   0  0  0  0  0  0  0  0  0  0  0  0
   -1.3163   -1.6747   -1.4863 H   0  0  0  0  0  0  0  0  0  0  0  0
   -2.2651    0.6716    0.7026 H   0  0  0  0  0  0  0  0  0  0  0  0
   -1.8619    1.1184   -1.0016 H   0  0  0  0  0  0  0  0  0  0  0  0
   -0.1079    2.4735   -0.5095 H   0  0  0  0  0  0  0  0  0  0  0  0
   -1.0793    2.6666    1.0615 H   0  0  0  0  0  0  0  0  0  0  0  0
  1  2  3  0
  2  3  1  0
  3  4  1  0
  4  5  1  0
  5  6  1  0
  5  7  1  0
  7  8  1  0
  8  9  1  0
  5  3  1  0
  9  3  1  0
  1 10  1  0
  4 11  1  0
  4 12  1  0
  6 13  1  0
  6 14  1  0
  6 15  1  0
  7 16  1  0
  7 17  1  0
  8 18  1  0
  8 19  1  0
M  END
