
     RDKit          3D

 21 21  0  0  0  0  0  0  0  0999 V2000
    3.6145    1.2058   -0.1602 C   0  0  0  0  0  0  0  0  0  0  0  0
    2.8172    0.3447   -0.5173 C   0  0  0  0  0  0  0  0  0  0  0  0
    1.8696   -0.6828   -0.9359 C   0  0  0  0  0  0  0  0  0  0  0  0
    0.5791   -0.4994   -0.1183 C   0  0  0  0  0  0  0  0  0  0  0  0
   -0.5252   -1.5097   -0.4384 C   0  0  0  0  0  0  0  0  0  0  0  0
   -0.6073   -0.1033   -0.9062 C   0  0  0  0  0  0  0  0  0  0  0  0
   -1.6861    0.8136   -0.4415 C   0  0  0  0  0  0  0  0  0  0  0  0
   -2.4132    0.5048    0.6526 O   0  0  0  0  0  0  0  0  0  0  0  0
   -1.8259    0.4286    1.8679 C   0  0  0  0  0  0  0  0  0  0  0  0
    4.3062    1.9496    0.1683 H   0  0  0  0  0  0  0  0  0  0  0  0
    2.2855   -1.7026   -0.7918 H   0  0  0  0  0  0  0  0  0  0  0  0
    1.6045   -0.4832   -1.9899 H   0  0  0  0  0  0  0  0  0  0  0  0
    0.7193   -0.2226    0.9259 H   0  0  0  0  0  0  0  0  0  0  0  0
   -0.2413   -2.3049   -1.1971 H   0  0  0  0  0  0  0  0  0  0  0  0
   -1.1605   -1.8884    0.3678 H   0  0  0  0  0  0  0  0  0  0  0  0
   -0.4122    0.0702   -2.0342 H   0  0  0  0  0  0  0  0  0  0  0  0
   -1.3033    1.8834   -0.4130 H   0  0  0  0  0  0  0  0  0  0  0  0
   -2.4236    0.8807   -1.3209 H   0  0  0  0  0  0  0  0  0  0  0  0
   -1.3042    1.3885    2.1511 H   0  0  0  0  0  0  0  0  0  0  0  0
   -2.7055    0.3210    2.6195 H   0  0  0  0  0  0  0  0  0  0  0  0
   -1.1876   -0.3939    2.1300 H   0  0  0  0  0  0  0  0  0  0  0  0
  1  2  3  0
  2  3  1  0
  3  4  1  0
  4  5  1  0
  5  6  1  0
  6  7  1  0
  7  8  1  0
  8  9  1  0
  6  4  1  0
  1 10  1  0
  3 11  1  0
  3 12  1  0
  4 13  1  0
  5 14  1  0
  5 15  1  0
  6 16  1  0
  7 17  1  0
  7 18  1  0
  9 19  1  0
  9 20  1  0
  9 21  1  0
M  END
