
     RDKit          3D

 19 20  0  0  0  0  0  0  0  0999 V2000
    3.0762   -0.8620    1.1422 C   0  0  0  0  0  0  0  0  0  0  0  0
    2.0689   -0.4296    0.6558 C   0  0  0  0  0  0  0  0  0  0  0  0
    0.9114    0.0658    0.0708 C   0  0  0  0  0  0  0  0  0  0  0  0
    0.9484    1.1100   -0.9893 C   0  0  0  0  0  0  0  0  0  0  0  0
   -0.4459    1.2782   -1.2138 O   0  0  0  0  0  0  0  0  0  0  0  0
   -1.0072    0.4084   -0.3073 C   0  0  0  0  0  0  0  0  0  0  0  0
   -2.4396    0.2588   -0.1896 C   0  0  0  0  0  0  0  0  0  0  0  0
   -0.1578   -0.8711   -0.4304 C   0  0  0  0  0  0  0  0  0  0  0  0
   -0.1945    0.6206    0.9810 C   0  0  0  0  0  0  0  0  0  0  0  0
    3.9838   -1.2392    1.5849 H   0  0  0  0  0  0  0  0  0  0  0  0
    1.3770    0.7341   -1.9563 H   0  0  0  0  0  0  0  0  0  0  0  0
    1.4254    2.0510   -0.7076 H   0  0  0  0  0  0  0  0  0  0  0  0
   -2.7517    0.1957    0.8939 H   0  0  0  0  0  0  0  0  0  0  0  0
   -2.8806   -0.6599   -0.6681 H   0  0  0  0  0  0  0  0  0  0  0  0
   -2.9671    1.1285   -0.6447 H   0  0  0  0  0  0  0  0  0  0  0  0
   -0.0059   -1.1492   -1.4909 H   0  0  0  0  0  0  0  0  0  0  0  0
   -0.4773   -1.6556    0.2548 H   0  0  0  0  0  0  0  0  0  0  0  0
   -0.4502   -0.0811    1.7788 H   0  0  0  0  0  0  0  0  0  0  0  0
   -0.0134    1.6641    1.2358 H   0  0  0  0  0  0  0  0  0  0  0  0
  1  2  3  0
  2  3  1  0
  3  4  1  0
  4  5  1  0
  5  6  1  0
  6  7  1  0
  6  8  1  0
  6  9  1  0
  8  3  1  0
  9  3  1  0
  1 10  1  0
  4 11  1  0
  4 12  1  0
  7 13  1  0
  7 14  1  0
  7 15  1  0
  8 16  1  0
  8 17  1  0
  9 18  1  0
  9 19  1  0
M  END
