
     RDKit          3D

 19 18  0  0  0  0  0  0  0  0999 V2000
    1.6437    1.5517    0.3727 C   0  0  0  0  0  0  0  0  0  0  0  0
    0.8769    0.6952    0.0171 C   0  0  0  0  0  0  0  0  0  0  0  0
    0.1657   -0.0979   -0.2967 C   0  0  0  0  0  0  0  0  0  0  0  0
   -0.6474    0.8034   -1.5482 C   0  0  0  0  0  0  0  0  0  0  0  0
   -1.1769    1.4092   -2.3569 C   0  0  0  0  0  0  0  0  0  0  0  0
   -0.9103   -0.6708    0.5618 C   0  0  0  0  0  0  0  0  0  0  0  0
   -1.8550    0.3379    1.1493 C   0  0  0  0  0  0  0  0  0  0  0  0
    0.7323   -1.2661   -0.9828 O   0  0  0  0  0  0  0  0  0  0  0  0
    1.8974   -1.5793   -0.1685 C   0  0  0  0  0  0  0  0  0  0  0  0
    2.6506    2.6482    0.8513 H   0  0  0  0  0  0  0  0  0  0  0  0
   -1.5271    1.8190   -2.8959 H   0  0  0  0  0  0  0  0  0  0  0  0
   -1.5335   -1.4398   -0.0457 H   0  0  0  0  0  0  0  0  0  0  0  0
   -0.4325   -1.2772    1.3592 H   0  0  0  0  0  0  0  0  0  0  0  0
   -2.4034    0.8772    0.2806 H   0  0  0  0  0  0  0  0  0  0  0  0
   -2.7043   -0.0956    1.8268 H   0  0  0  0  0  0  0  0  0  0  0  0
   -1.3702    1.0310    1.8494 H   0  0  0  0  0  0  0  0  0  0  0  0
    2.5951   -0.6634   -0.3192 H   0  0  0  0  0  0  0  0  0  0  0  0
    2.3867   -2.4519   -0.5683 H   0  0  0  0  0  0  0  0  0  0  0  0
    1.6119   -1.6308    0.9140 H   0  0  0  0  0  0  0  0  0  0  0  0
  1  2  3  0
  2  3  1  0
  3  4  1  0
  4  5  3  0
  3  6  1  0
  6  7  1  0
  3  8  1  0
  8  9  1  0
  1 10  1  0
  5 11  1  0
  6 12  1  0
  6 13  1  0
  7 14  1  0
  7 15  1  0
  7 16  1  0
  9 17  1  0
  9 18  1  0
  9 19  1  0
M  END
