
     RDKit          3D

 21 21  0  0  0  0  0  0  0  0999 V2000
   -2.4717    1.7776   -1.9444 C   0  0  0  0  0  0  0  0  0  0  0  0
   -2.2557    0.7038   -1.3958 C   0  0  0  0  0  0  0  0  0  0  0  0
   -1.9874   -0.5879   -0.7620 C   0  0  0  0  0  0  0  0  0  0  0  0
   -2.0189   -0.5770    0.6656 O   0  0  0  0  0  0  0  0  0  0  0  0
   -0.7818   -0.7313    0.0693 C   0  0  0  0  0  0  0  0  0  0  0  0
   -0.2137   -2.1463    0.2174 C   0  0  0  0  0  0  0  0  0  0  0  0
    0.2200    0.3723    0.0587 C   0  0  0  0  0  0  0  0  0  0  0  0
    1.4130    0.1244    0.9421 C   0  0  0  0  0  0  0  0  0  0  0  0
    2.3241    1.3303    0.8165 C   0  0  0  0  0  0  0  0  0  0  0  0
   -2.6663    2.7119   -2.4031 H   0  0  0  0  0  0  0  0  0  0  0  0
   -2.4487   -1.4433   -1.2735 H   0  0  0  0  0  0  0  0  0  0  0  0
    0.2468   -2.4892   -0.7402 H   0  0  0  0  0  0  0  0  0  0  0  0
   -1.0289   -2.8695    0.4797 H   0  0  0  0  0  0  0  0  0  0  0  0
    0.5083   -2.1641    1.0560 H   0  0  0  0  0  0  0  0  0  0  0  0
    0.6007    0.4878   -0.9771 H   0  0  0  0  0  0  0  0  0  0  0  0
   -0.2171    1.3511    0.3611 H   0  0  0  0  0  0  0  0  0  0  0  0
    1.1575   -0.0179    1.9981 H   0  0  0  0  0  0  0  0  0  0  0  0
    2.0198   -0.7486    0.5731 H   0  0  0  0  0  0  0  0  0  0  0  0
    1.7315    2.2689    0.8721 H   0  0  0  0  0  0  0  0  0  0  0  0
    3.0867    1.3714    1.5972 H   0  0  0  0  0  0  0  0  0  0  0  0
    2.7817    1.2757   -0.2107 H   0  0  0  0  0  0  0  0  0  0  0  0
  1  2  3  0
  2  3  1  0
  3  4  1  0
  4  5  1  0
  5  6  1  0
  5  7  1  0
  7  8  1  0
  8  9  1  0
  5  3  1  0
  1 10  1  0
  3 11  1  0
  6 12  1  0
  6 13  1  0
  6 14  1  0
  7 15  1  0
  7 16  1  0
  8 17  1  0
  8 18  1  0
  9 19  1  0
  9 20  1  0
  9 21  1  0
M  END
