
     RDKit          3D

 17 17  0  0  0  0  0  0  0  0999 V2000
    1.5285   -1.3341   -2.2719 C   0  0  0  0  0  0  0  0  0  0  0  0
    0.9610   -1.2452   -1.3473 C   0  0  0  0  0  0  0  0  0  0  0  0
    0.1841   -1.1027   -0.0441 C   0  0  0  0  0  0  0  0  0  0  0  0
   -1.0274   -1.6565   -0.1296 O   0  0  0  0  0  0  0  0  0  0  0  0
   -1.6508   -0.4817    0.1808 C   0  0  0  0  0  0  0  0  0  0  0  0
   -0.3875    0.2572    0.1314 C   0  0  0  0  0  0  0  0  0  0  0  0
   -0.3004    1.1034   -0.9803 O   0  0  0  0  0  0  0  0  0  0  0  0
    0.1019    0.8906    1.4121 C   0  0  0  0  0  0  0  0  0  0  0  0
    1.4544    1.2269    1.1469 O   0  0  0  0  0  0  0  0  0  0  0  0
    2.1094   -1.4054   -3.2159 H   0  0  0  0  0  0  0  0  0  0  0  0
    0.8243   -1.4260    0.8138 H   0  0  0  0  0  0  0  0  0  0  0  0
   -2.1246   -0.5461    1.1890 H   0  0  0  0  0  0  0  0  0  0  0  0
   -2.4331   -0.2158   -0.5741 H   0  0  0  0  0  0  0  0  0  0  0  0
   -0.6010    2.0227   -0.7114 H   0  0  0  0  0  0  0  0  0  0  0  0
   -0.4468    1.7777    1.7347 H   0  0  0  0  0  0  0  0  0  0  0  0
    0.1430    0.0812    2.1722 H   0  0  0  0  0  0  0  0  0  0  0  0
    1.6648    2.0537    1.6529 H   0  0  0  0  0  0  0  0  0  0  0  0
  1  2  3  0
  2  3  1  0
  3  4  1  0
  4  5  1  0
  5  6  1  0
  6  7  1  0
  6  8  1  0
  8  9  1  0
  6  3  1  0
  1 10  1  0
  3 11  1  0
  5 12  1  0
  5 13  1  0
  7 14  1  0
  8 15  1  0
  8 16  1  0
  9 17  1  0
M  END
