
     RDKit          3D

 17 16  0  0  0  0  0  0  0  0999 V2000
   -3.0606   -1.3264   -1.3021 C   0  0  0  0  0  0  0  0  0  0  0  0
   -2.1323   -0.5960   -0.9377 C   0  0  0  0  0  0  0  0  0  0  0  0
   -1.0993    0.2342   -0.5360 C   0  0  0  0  0  0  0  0  0  0  0  0
   -1.5506    1.2168    0.3801 O   0  0  0  0  0  0  0  0  0  0  0  0
   -0.1681   -0.7731    0.3991 C   0  0  0  0  0  0  0  0  0  0  0  0
    1.1453   -0.1265    0.8842 C   0  0  0  0  0  0  0  0  0  0  0  0
    1.9983    0.2769    0.0562 O   0  0  0  0  0  0  0  0  0  0  0  0
    2.8744    0.8183   -0.6273 C   0  0  0  0  0  0  0  0  0  0  0  0
    3.2069    2.0297    0.1677 O   0  0  0  0  0  0  0  0  0  0  0  0
   -3.9791   -2.0315   -1.6751 H   0  0  0  0  0  0  0  0  0  0  0  0
   -0.3975    0.5758   -1.3046 H   0  0  0  0  0  0  0  0  0  0  0  0
   -2.0561    1.9057   -0.2239 H   0  0  0  0  0  0  0  0  0  0  0  0
   -0.8144   -0.9467    1.3218 H   0  0  0  0  0  0  0  0  0  0  0  0
   -0.0966   -1.7097   -0.0901 H   0  0  0  0  0  0  0  0  0  0  0  0
    1.6328   -1.0558    1.5223 H   0  0  0  0  0  0  0  0  0  0  0  0
    0.9478    0.5248    1.8055 H   0  0  0  0  0  0  0  0  0  0  0  0
    3.5490    0.9835   -1.4370 H   0  0  0  0  0  0  0  0  0  0  0  0
  1  2  3  0
  2  3  1  0
  3  4  1  0
  3  5  1  0
  5  6  1  0
  6  7  1  0
  7  8  1  0
  8  9  2  0
  1 10  1  0
  3 11  1  0
  4 12  1  0
  5 13  1  0
  5 14  1  0
  6 15  1  0
  6 16  1  0
  8 17  1  0
M  END
