
     RDKit          3D

 16 17  0  0  0  0  0  0  0  0999 V2000
    2.3559   -1.8954   -0.9234 C   0  0  0  0  0  0  0  0  0  0  0  0
    1.3200   -1.3058   -0.7064 C   0  0  0  0  0  0  0  0  0  0  0  0
    0.0915   -0.6079   -0.4237 C   0  0  0  0  0  0  0  0  0  0  0  0
   -1.1290   -1.2678   -0.4515 O   0  0  0  0  0  0  0  0  0  0  0  0
   -0.8526   -0.1864   -1.2734 C   0  0  0  0  0  0  0  0  0  0  0  0
   -0.9647    1.1872   -0.6007 C   0  0  0  0  0  0  0  0  0  0  0  0
    0.1335    0.7005    0.3564 C   0  0  0  0  0  0  0  0  0  0  0  0
   -0.3724    0.4250    1.7604 C   0  0  0  0  0  0  0  0  0  0  0  0
    3.2734   -2.4013   -1.1257 H   0  0  0  0  0  0  0  0  0  0  0  0
   -0.9219   -0.2622   -2.3537 H   0  0  0  0  0  0  0  0  0  0  0  0
   -1.9309    1.3732   -0.1109 H   0  0  0  0  0  0  0  0  0  0  0  0
   -0.6649    2.0325   -1.2211 H   0  0  0  0  0  0  0  0  0  0  0  0
    1.0695    1.2459    0.2669 H   0  0  0  0  0  0  0  0  0  0  0  0
   -1.3944    0.0273    1.6697 H   0  0  0  0  0  0  0  0  0  0  0  0
    0.2705   -0.4046    2.1784 H   0  0  0  0  0  0  0  0  0  0  0  0
   -0.2835    1.3398    2.3606 H   0  0  0  0  0  0  0  0  0  0  0  0
  1  2  3  0
  2  3  1  0
  3  4  1  0
  4  5  1  0
  5  6  1  0
  6  7  1  0
  7  8  1  0
  5  3  1  0
  7  3  1  0
  1  9  1  0
  5 10  1  0
  6 11  1  0
  6 12  1  0
  7 13  1  0
  8 14  1  0
  8 15  1  0
  8 16  1  0
M  END
