
     RDKit          3D

 14 15  0  0  0  0  0  0  0  0999 V2000
    2.5674   -0.1567   -1.1103 C   0  0  0  0  0  0  0  0  0  0  0  0
    1.5390   -0.0908   -0.4829 C   0  0  0  0  0  0  0  0  0  0  0  0
    0.3072   -0.0230    0.2942 C   0  0  0  0  0  0  0  0  0  0  0  0
   -0.4089    1.2877    0.4414 C   0  0  0  0  0  0  0  0  0  0  0  0
   -1.5869    0.6668   -0.2301 C   0  0  0  0  0  0  0  0  0  0  0  0
   -2.6852    1.1094   -0.5272 O   0  0  0  0  0  0  0  0  0  0  0  0
   -0.8904   -0.6157   -0.3643 C   0  0  0  0  0  0  0  0  0  0  0  0
   -0.2987   -1.2089    0.8813 C   0  0  0  0  0  0  0  0  0  0  0  0
    3.4818   -0.2102   -1.6473 H   0  0  0  0  0  0  0  0  0  0  0  0
    0.0809    2.1030   -0.0919 H   0  0  0  0  0  0  0  0  0  0  0  0
   -0.6367    1.5518    1.5080 H   0  0  0  0  0  0  0  0  0  0  0  0
   -0.8269   -1.1411   -1.3233 H   0  0  0  0  0  0  0  0  0  0  0  0
   -0.8950   -1.1100    1.8288 H   0  0  0  0  0  0  0  0  0  0  0  0
    0.2523   -2.1622    0.8238 H   0  0  0  0  0  0  0  0  0  0  0  0
  1  2  3  0
  2  3  1  0
  3  4  1  0
  4  5  1  0
  5  6  2  0
  5  7  1  0
  7  8  1  0
  7  3  1  0
  8  3  1  0
  1  9  1  0
  4 10  1  0
  4 11  1  0
  7 12  1  0
  8 13  1  0
  8 14  1  0
M  END
