
     RDKit          3D

 15 15  0  0  0  0  0  0  0  0999 V2000
   -0.5202    2.8014   -0.8530 C   0  0  0  0  0  0  0  0  0  0  0  0
   -0.3609    1.6541   -0.5317 C   0  0  0  0  0  0  0  0  0  0  0  0
   -0.1396    0.2387   -0.1301 C   0  0  0  0  0  0  0  0  0  0  0  0
    1.1653   -0.2995   -0.5501 C   0  0  0  0  0  0  0  0  0  0  0  0
    1.8651    0.3800   -1.3378 O   0  0  0  0  0  0  0  0  0  0  0  0
    1.6967   -1.5712   -0.1108 C   0  0  0  0  0  0  0  0  0  0  0  0
    1.0900   -2.3551    0.6677 O   0  0  0  0  0  0  0  0  0  0  0  0
   -0.6732   -0.1220    1.2553 C   0  0  0  0  0  0  0  0  0  0  0  0
   -1.3254   -0.6376    0.0127 C   0  0  0  0  0  0  0  0  0  0  0  0
   -0.6483    3.8056   -1.1487 H   0  0  0  0  0  0  0  0  0  0  0  0
    2.6845   -1.9042   -0.4571 H   0  0  0  0  0  0  0  0  0  0  0  0
   -0.0731   -0.7954    1.8756 H   0  0  0  0  0  0  0  0  0  0  0  0
   -1.2093    0.7214    1.7858 H   0  0  0  0  0  0  0  0  0  0  0  0
   -2.2770   -0.1947   -0.3479 H   0  0  0  0  0  0  0  0  0  0  0  0
   -1.2746   -1.7214   -0.1300 H   0  0  0  0  0  0  0  0  0  0  0  0
  1  2  3  0
  2  3  1  0
  3  4  1  0
  4  5  2  0
  4  6  1  0
  6  7  2  0
  3  8  1  0
  8  9  1  0
  9  3  1  0
  1 10  1  0
  6 11  1  0
  8 12  1  0
  8 13  1  0
  9 14  1  0
  9 15  1  0
M  END
