
     RDKit          3D

 21 20  0  0  0  0  0  0  0  0999 V2000
    0.6281   -3.0696    0.7869 C   0  0  0  0  0  0  0  0  0  0  0  0
    0.8767   -2.0082    0.0414 C   0  0  0  0  0  0  0  0  0  0  0  0
    1.1250   -0.8689   -0.7769 C   0  0  0  0  0  0  0  0  0  0  0  0
    0.5530    0.3194    0.0510 C   0  0  0  0  0  0  0  0  0  0  0  0
   -0.9031    0.0112    0.3620 C   0  0  0  0  0  0  0  0  0  0  0  0
   -1.7990   -0.1612   -0.8218 C   0  0  0  0  0  0  0  0  0  0  0  0
   -3.0942   -0.4593   -0.3505 O   0  0  0  0  0  0  0  0  0  0  0  0
    0.7040    1.5341   -0.5384 O   0  0  0  0  0  0  0  0  0  0  0  0
    1.4659    2.4299    0.2272 C   0  0  0  0  0  0  0  0  0  0  0  0
    0.4523   -3.8986    1.3688 H   0  0  0  0  0  0  0  0  0  0  0  0
    2.2291   -0.6651   -0.7812 H   0  0  0  0  0  0  0  0  0  0  0  0
    0.6744   -0.9506   -1.7580 H   0  0  0  0  0  0  0  0  0  0  0  0
    1.0827    0.2770    1.0133 H   0  0  0  0  0  0  0  0  0  0  0  0
   -1.3321    0.8309    0.9746 H   0  0  0  0  0  0  0  0  0  0  0  0
   -0.8974   -0.9339    0.9922 H   0  0  0  0  0  0  0  0  0  0  0  0
   -1.5392   -0.9703   -1.5123 H   0  0  0  0  0  0  0  0  0  0  0  0
   -1.9033    0.8007   -1.3699 H   0  0  0  0  0  0  0  0  0  0  0  0
   -3.1736   -0.1707    0.6139 H   0  0  0  0  0  0  0  0  0  0  0  0
    2.4961    2.0925    0.3839 H   0  0  0  0  0  0  0  0  0  0  0  0
    1.0291    2.4321    1.2779 H   0  0  0  0  0  0  0  0  0  0  0  0
    1.3255    3.4286   -0.1841 H   0  0  0  0  0  0  0  0  0  0  0  0
  1  2  3  0
  2  3  1  0
  3  4  1  0
  4  5  1  0
  5  6  1  0
  6  7  1  0
  4  8  1  0
  8  9  1  0
  1 10  1  0
  3 11  1  0
  3 12  1  0
  4 13  1  0
  5 14  1  0
  5 15  1  0
  6 16  1  0
  6 17  1  0
  7 18  1  0
  9 19  1  0
  9 20  1  0
  9 21  1  0
M  END
