
     RDKit          3D

 17 18  0  0  0  0  0  0  0  0999 V2000
    3.5441   -1.3266   -0.1727 C   0  0  0  0  0  0  0  0  0  0  0  0
    2.4550   -0.7914   -0.0415 C   0  0  0  0  0  0  0  0  0  0  0  0
    1.1696   -0.1871    0.1125 C   0  0  0  0  0  0  0  0  0  0  0  0
    0.9753    1.0908    0.3687 C   0  0  0  0  0  0  0  0  0  0  0  0
   -0.4637    1.4130    0.4717 C   0  0  0  0  0  0  0  0  0  0  0  0
   -1.1882    0.1074    0.3950 C   0  0  0  0  0  0  0  0  0  0  0  0
   -2.5376   -0.0558    0.1017 C   0  0  0  0  0  0  0  0  0  0  0  0
   -2.0563   -0.2391    1.4609 O   0  0  0  0  0  0  0  0  0  0  0  0
   -0.1224   -0.8968    0.0092 C   0  0  0  0  0  0  0  0  0  0  0  0
    4.4971   -1.7755   -0.2927 H   0  0  0  0  0  0  0  0  0  0  0  0
    1.7529    1.8474    0.4958 H   0  0  0  0  0  0  0  0  0  0  0  0
   -0.7122    2.0428   -0.4243 H   0  0  0  0  0  0  0  0  0  0  0  0
   -0.7137    1.9725    1.3771 H   0  0  0  0  0  0  0  0  0  0  0  0
   -2.9371   -1.0193   -0.3091 H   0  0  0  0  0  0  0  0  0  0  0  0
   -3.2400    0.8146   -0.0093 H   0  0  0  0  0  0  0  0  0  0  0  0
   -0.3003   -1.3141   -1.0073 H   0  0  0  0  0  0  0  0  0  0  0  0
   -0.1226   -1.6827    0.7927 H   0  0  0  0  0  0  0  0  0  0  0  0
  1  2  3  0
  2  3  1  0
  3  4  2  0
  4  5  1  0
  5  6  1  0
  6  7  1  0
  7  8  1  0
  6  9  1  0
  9  3  1  0
  8  6  1  0
  1 10  1  0
  4 11  1  0
  5 12  1  0
  5 13  1  0
  7 14  1  0
  7 15  1  0
  9 16  1  0
  9 17  1  0
M  END
