
     RDKit          3D

 14 13  0  0  0  0  0  0  0  0999 V2000
    5.0938    0.6857    0.2505 C   0  0  0  0  0  0  0  0  0  0  0  0
    0.7852    0.7581   -0.2503 C   0  0  0  0  0  0  0  0  0  0  0  0
    0.7419    0.7587   -0.2550 C   0  0  0  0  0  0  0  0  0  0  0  0
    0.1947    0.7713   -0.3224 C   0  0  0  0  0  0  0  0  0  0  0  0
   -0.4316    0.7921   -0.4090 C   0  0  0  0  0  0  0  0  0  0  0  0
   -2.0073   -0.2565   -0.8862 C   0  0  0  0  0  0  0  0  0  0  0  0
   -0.6487   -1.0225    0.7604 C   0  0  0  0  0  0  0  0  0  0  0  0
    0.5853   -1.1552    1.2413 O   0  0  0  0  0  0  0  0  0  0  0  0
    5.3623    0.6768    0.2834 H   0  0  0  0  0  0  0  0  0  0  0  0
   -1.5771    0.7468    0.8322 H   0  0  0  0  0  0  0  0  0  0  0  0
   -1.6958   -1.1722   -1.4056 H   0  0  0  0  0  0  0  0  0  0  0  0
   -2.2308    0.6009   -1.5964 H   0  0  0  0  0  0  0  0  0  0  0  0
   -2.9639   -0.4704   -0.4321 H   0  0  0  0  0  0  0  0  0  0  0  0
   -1.2078   -1.7137    1.0196 H   0  0  0  0  0  0  0  0  0  0  0  0
  1  2  3  0
  2  3  1  0
  3  4  3  0
  4  5  1  0
  5  6  1  0
  5  7  1  0
  7  8  2  0
  1  9  1  0
  5 10  1  0
  6 11  1  0
  6 12  1  0
  6 13  1  0
  7 14  1  0
M  END
