
     RDKit          3D

 17 17  0  0  0  0  0  0  0  0999 V2000
    3.7742    1.6321    0.5551 C   0  0  0  0  0  0  0  0  0  0  0  0
    3.2475    0.6601    0.3567 C   0  0  0  0  0  0  0  0  0  0  0  0
    2.5617   -0.6486    0.0794 C   0  0  0  0  0  0  0  0  0  0  0  0
    1.1256   -0.3960   -0.0486 C   0  0  0  0  0  0  0  0  0  0  0  0
   -0.1137   -0.2003   -0.1567 C   0  0  0  0  0  0  0  0  0  0  0  0
   -1.5143    0.0250   -0.2969 C   0  0  0  0  0  0  0  0  0  0  0  0
   -1.9248    0.6346   -1.4839 O   0  0  0  0  0  0  0  0  0  0  0  0
   -2.2199    0.4282    0.9611 C   0  0  0  0  0  0  0  0  0  0  0  0
   -2.4314   -0.9476    0.3648 C   0  0  0  0  0  0  0  0  0  0  0  0
    4.3048    2.6070    0.7344 H   0  0  0  0  0  0  0  0  0  0  0  0
    2.7185   -1.3249    0.9114 H   0  0  0  0  0  0  0  0  0  0  0  0
    2.9932   -1.0929   -0.8308 H   0  0  0  0  0  0  0  0  0  0  0  0
   -2.4389   -0.0973   -1.9741 H   0  0  0  0  0  0  0  0  0  0  0  0
   -1.6723    0.4789    1.9121 H   0  0  0  0  0  0  0  0  0  0  0  0
   -2.9892    1.2040    0.8277 H   0  0  0  0  0  0  0  0  0  0  0  0
   -3.4396   -1.1419   -0.0908 H   0  0  0  0  0  0  0  0  0  0  0  0
   -1.9814   -1.8203    0.8673 H   0  0  0  0  0  0  0  0  0  0  0  0
  1  2  3  0
  2  3  1  0
  3  4  1  0
  4  5  3  0
  5  6  1  0
  6  7  1  0
  6  8  1  0
  8  9  1  0
  9  6  1  0
  1 10  1  0
  3 11  1  0
  3 12  1  0
  7 13  1  0
  8 14  1  0
  8 15  1  0
  9 16  1  0
  9 17  1  0
M  END
