
     RDKit          3D

 18 18  0  0  0  0  0  0  0  0999 V2000
    2.5775    1.9238    1.4631 C   0  0  0  0  0  0  0  0  0  0  0  0
    1.4259    1.3431    1.4023 C   0  0  0  0  0  0  0  0  0  0  0  0
    0.1487    0.7029    1.3590 C   0  0  0  0  0  0  0  0  0  0  0  0
   -0.2682    0.3022    0.0229 C   0  0  0  0  0  0  0  0  0  0  0  0
   -1.6108   -0.4944    0.1352 C   0  0  0  0  0  0  0  0  0  0  0  0
   -1.2372   -1.0839   -1.2104 C   0  0  0  0  0  0  0  0  0  0  0  0
    0.2449   -0.8354   -0.7445 C   0  0  0  0  0  0  0  0  0  0  0  0
    0.9751   -0.4735   -1.8639 O   0  0  0  0  0  0  0  0  0  0  0  0
    3.5794    2.4279    1.5355 H   0  0  0  0  0  0  0  0  0  0  0  0
    0.1116    0.0114    2.2060 H   0  0  0  0  0  0  0  0  0  0  0  0
   -0.6359    1.5336    1.6609 H   0  0  0  0  0  0  0  0  0  0  0  0
   -0.5114    1.2047   -0.6351 H   0  0  0  0  0  0  0  0  0  0  0  0
   -1.5705   -1.2440    0.9538 H   0  0  0  0  0  0  0  0  0  0  0  0
   -2.4372    0.2073    0.1761 H   0  0  0  0  0  0  0  0  0  0  0  0
   -1.5180   -0.4687   -2.0521 H   0  0  0  0  0  0  0  0  0  0  0  0
   -1.4264   -2.1414   -1.3673 H   0  0  0  0  0  0  0  0  0  0  0  0
    0.6462   -1.7043   -0.2008 H   0  0  0  0  0  0  0  0  0  0  0  0
    1.5063   -1.2114   -2.2668 H   0  0  0  0  0  0  0  0  0  0  0  0
  1  2  3  0
  2  3  1  0
  3  4  1  0
  4  5  1  0
  5  6  1  0
  6  7  1  0
  7  8  1  0
  7  4  1  0
  1  9  1  0
  3 10  1  0
  3 11  1  0
  4 12  1  0
  5 13  1  0
  5 14  1  0
  6 15  1  0
  6 16  1  0
  7 17  1  0
  8 18  1  0
M  END
