
     RDKit          3D

 17 17  0  0  0  0  0  0  0  0999 V2000
    2.8403    0.7239    0.9116 C   0  0  0  0  0  0  0  0  0  0  0  0
    1.9101    0.3540    0.2286 C   0  0  0  0  0  0  0  0  0  0  0  0
    0.7867   -0.0927   -0.6187 C   0  0  0  0  0  0  0  0  0  0  0  0
   -0.3911    0.8474   -0.7662 C   0  0  0  0  0  0  0  0  0  0  0  0
   -1.0747    0.8938   -1.9744 O   0  0  0  0  0  0  0  0  0  0  0  0
   -0.4775   -0.4311    0.0538 C   0  0  0  0  0  0  0  0  0  0  0  0
   -0.6985   -0.1712    1.5232 C   0  0  0  0  0  0  0  0  0  0  0  0
   -1.2563   -1.5678   -0.5164 C   0  0  0  0  0  0  0  0  0  0  0  0
   -1.1246   -1.8366   -1.7110 O   0  0  0  0  0  0  0  0  0  0  0  0
    3.6654    1.0573    1.4975 H   0  0  0  0  0  0  0  0  0  0  0  0
    1.0652   -0.6899   -1.5140 H   0  0  0  0  0  0  0  0  0  0  0  0
   -0.3476    1.8205   -0.2483 H   0  0  0  0  0  0  0  0  0  0  0  0
   -0.6103    1.5532   -2.5398 H   0  0  0  0  0  0  0  0  0  0  0  0
   -1.8180   -0.2137    1.6684 H   0  0  0  0  0  0  0  0  0  0  0  0
   -0.3667    0.8587    1.8170 H   0  0  0  0  0  0  0  0  0  0  0  0
   -0.1769   -0.9571    2.0874 H   0  0  0  0  0  0  0  0  0  0  0  0
   -1.9255   -2.1490    0.1012 H   0  0  0  0  0  0  0  0  0  0  0  0
  1  2  3  0
  2  3  1  0
  3  4  1  0
  4  5  1  0
  4  6  1  0
  6  7  1  0
  6  8  1  0
  8  9  2  0
  6  3  1  0
  1 10  1  0
  3 11  1  0
  4 12  1  0
  5 13  1  0
  7 14  1  0
  7 15  1  0
  7 16  1  0
  8 17  1  0
M  END
