
     RDKit          3D

 17 17  0  0  0  0  0  0  0  0999 V2000
    4.0884    0.5468   -0.6289 C   0  0  0  0  0  0  0  0  0  0  0  0
    2.9717    0.0613   -0.5935 C   0  0  0  0  0  0  0  0  0  0  0  0
    1.6530   -0.5203   -0.5697 C   0  0  0  0  0  0  0  0  0  0  0  0
    0.6799    0.4302   -0.3305 O   0  0  0  0  0  0  0  0  0  0  0  0
   -0.5481   -0.1818   -0.3196 C   0  0  0  0  0  0  0  0  0  0  0  0
   -1.5977    0.4601   -1.2167 C   0  0  0  0  0  0  0  0  0  0  0  0
   -2.5824    0.0700   -0.1058 C   0  0  0  0  0  0  0  0  0  0  0  0
   -1.4323    0.1245    0.8325 C   0  0  0  0  0  0  0  0  0  0  0  0
   -1.2655    0.3273    2.0170 O   0  0  0  0  0  0  0  0  0  0  0  0
    5.0692    0.9573   -0.6581 H   0  0  0  0  0  0  0  0  0  0  0  0
    1.4575   -0.9438   -1.5859 H   0  0  0  0  0  0  0  0  0  0  0  0
    1.5447   -1.3554    0.1626 H   0  0  0  0  0  0  0  0  0  0  0  0
   -0.5043   -1.2925   -0.5020 H   0  0  0  0  0  0  0  0  0  0  0  0
   -1.4646    1.5612   -1.2287 H   0  0  0  0  0  0  0  0  0  0  0  0
   -1.7722   -0.0275   -2.1738 H   0  0  0  0  0  0  0  0  0  0  0  0
   -3.3902    0.7773    0.0653 H   0  0  0  0  0  0  0  0  0  0  0  0
   -2.9070   -0.9946   -0.2572 H   0  0  0  0  0  0  0  0  0  0  0  0
  1  2  3  0
  2  3  1  0
  3  4  1  0
  4  5  1  0
  5  6  1  0
  6  7  1  0
  7  8  1  0
  8  9  2  0
  8  5  1  0
  1 10  1  0
  3 11  1  0
  3 12  1  0
  5 13  1  0
  6 14  1  0
  6 15  1  0
  7 16  1  0
  7 17  1  0
M  END
