
     RDKit          3D

 23 22  0  0  0  0  0  0  0  0999 V2000
    3.3244   -0.1532    1.6647 C   0  0  0  0  0  0  0  0  0  0  0  0
    2.6148   -0.7898    0.9369 C   0  0  0  0  0  0  0  0  0  0  0  0
    1.7305   -1.5543    0.0300 C   0  0  0  0  0  0  0  0  0  0  0  0
    0.7140   -0.7638   -0.4628 O   0  0  0  0  0  0  0  0  0  0  0  0
   -0.0850   -0.2473    0.5389 C   0  0  0  0  0  0  0  0  0  0  0  0
   -0.0175    1.2504    0.6514 C   0  0  0  0  0  0  0  0  0  0  0  0
   -0.4387    1.9806   -0.5835 C   0  0  0  0  0  0  0  0  0  0  0  0
   -1.4962   -0.7682    0.5136 C   0  0  0  0  0  0  0  0  0  0  0  0
   -2.2474   -0.4830   -0.7415 C   0  0  0  0  0  0  0  0  0  0  0  0
    3.9406    0.4146    2.3053 H   0  0  0  0  0  0  0  0  0  0  0  0
    1.3222   -2.4476    0.5698 H   0  0  0  0  0  0  0  0  0  0  0  0
    2.3670   -1.9540   -0.7810 H   0  0  0  0  0  0  0  0  0  0  0  0
    0.3404   -0.6363    1.5147 H   0  0  0  0  0  0  0  0  0  0  0  0
   -0.6029    1.5459    1.5403 H   0  0  0  0  0  0  0  0  0  0  0  0
    1.0494    1.5206    0.8500 H   0  0  0  0  0  0  0  0  0  0  0  0
   -1.5150    2.0307   -0.7545 H   0  0  0  0  0  0  0  0  0  0  0  0
    0.0387    1.5368   -1.4800 H   0  0  0  0  0  0  0  0  0  0  0  0
   -0.1005    3.0505   -0.4637 H   0  0  0  0  0  0  0  0  0  0  0  0
   -1.4721   -1.8514    0.7304 H   0  0  0  0  0  0  0  0  0  0  0  0
   -2.0357   -0.2568    1.3494 H   0  0  0  0  0  0  0  0  0  0  0  0
   -2.7525   -1.4385   -1.0730 H   0  0  0  0  0  0  0  0  0  0  0  0
   -3.0860    0.2283   -0.5948 H   0  0  0  0  0  0  0  0  0  0  0  0
   -1.5924   -0.2141   -1.5984 H   0  0  0  0  0  0  0  0  0  0  0  0
  1  2  3  0
  2  3  1  0
  3  4  1  0
  4  5  1  0
  5  6  1  0
  6  7  1  0
  5  8  1  0
  8  9  1  0
  1 10  1  0
  3 11  1  0
  3 12  1  0
  5 13  1  0
  6 14  1  0
  6 15  1  0
  7 16  1  0
  7 17  1  0
  7 18  1  0
  8 19  1  0
  8 20  1  0
  9 21  1  0
  9 22  1  0
  9 23  1  0
M  END
