
     RDKit          3D

 17 19  0  0  0  0  0  0  0  0999 V2000
   -2.0154    1.8470   -0.2555 C   0  0  0  0  0  0  0  0  0  0  0  0
   -1.2452    0.9078    0.0859 C   0  0  0  0  0  0  0  0  0  0  0  0
   -0.3709   -0.1908    0.4737 C   0  0  0  0  0  0  0  0  0  0  0  0
    0.2864   -1.0398   -0.5103 C   0  0  0  0  0  0  0  0  0  0  0  0
   -0.2045   -0.8173   -1.9380 C   0  0  0  0  0  0  0  0  0  0  0  0
    1.1210    0.0136    0.0711 C   0  0  0  0  0  0  0  0  0  0  0  0
    1.4030    0.1032    1.5548 C   0  0  0  0  0  0  0  0  0  0  0  0
    1.0305   -1.0002    2.3232 O   0  0  0  0  0  0  0  0  0  0  0  0
    0.1091   -0.0766    1.9141 C   0  0  0  0  0  0  0  0  0  0  0  0
   -2.6485    2.6071   -0.5505 H   0  0  0  0  0  0  0  0  0  0  0  0
    0.6051   -2.0883   -0.3332 H   0  0  0  0  0  0  0  0  0  0  0  0
    0.4878   -1.2581   -2.6643 H   0  0  0  0  0  0  0  0  0  0  0  0
   -0.3885    0.2668   -2.0855 H   0  0  0  0  0  0  0  0  0  0  0  0
   -1.1825   -1.3497   -2.0945 H   0  0  0  0  0  0  0  0  0  0  0  0
    1.3710    0.9302   -0.5057 H   0  0  0  0  0  0  0  0  0  0  0  0
    2.2216    0.7304    1.9097 H   0  0  0  0  0  0  0  0  0  0  0  0
   -0.5799    0.4148    2.6051 H   0  0  0  0  0  0  0  0  0  0  0  0
  1  2  3  0
  2  3  1  0
  3  4  1  0
  4  5  1  0
  4  6  1  0
  6  7  1  0
  7  8  1  0
  8  9  1  0
  6  3  1  0
  9  7  1  0
  9  3  1  0
  1 10  1  0
  4 11  1  0
  5 12  1  0
  5 13  1  0
  5 14  1  0
  6 15  1  0
  7 16  1  0
  9 17  1  0
M  END
