
     RDKit          3D

 17 18  0  0  0  0  0  0  0  0999 V2000
    3.4996    0.1144   -0.5074 C   0  0  0  0  0  0  0  0  0  0  0  0
    2.3391    0.0992   -0.2223 C   0  0  0  0  0  0  0  0  0  0  0  0
    0.9257    0.0939    0.1472 C   0  0  0  0  0  0  0  0  0  0  0  0
    0.2509    1.1836   -0.4305 O   0  0  0  0  0  0  0  0  0  0  0  0
   -0.9526    1.3174    0.2590 C   0  0  0  0  0  0  0  0  0  0  0  0
   -1.8729    0.1949   -0.1588 C   0  0  0  0  0  0  0  0  0  0  0  0
   -1.1568   -1.0860   -0.4247 C   0  0  0  0  0  0  0  0  0  0  0  0
   -0.6001   -1.7389    0.6827 O   0  0  0  0  0  0  0  0  0  0  0  0
    0.2382   -1.1618   -0.2881 C   0  0  0  0  0  0  0  0  0  0  0  0
    4.5449    0.1115   -0.7732 H   0  0  0  0  0  0  0  0  0  0  0  0
    0.8735    0.2553    1.2426 H   0  0  0  0  0  0  0  0  0  0  0  0
   -1.4026    2.2920   -0.0253 H   0  0  0  0  0  0  0  0  0  0  0  0
   -0.7592    1.3254    1.3508 H   0  0  0  0  0  0  0  0  0  0  0  0
   -2.4059    0.5184   -1.0918 H   0  0  0  0  0  0  0  0  0  0  0  0
   -2.6609    0.1130    0.6227 H   0  0  0  0  0  0  0  0  0  0  0  0
   -1.7091   -1.7772   -1.1095 H   0  0  0  0  0  0  0  0  0  0  0  0
    0.8482   -1.8551   -0.8948 H   0  0  0  0  0  0  0  0  0  0  0  0
  1  2  3  0
  2  3  1  0
  3  4  1  0
  4  5  1  0
  5  6  1  0
  6  7  1  0
  7  8  1  0
  8  9  1  0
  9  3  1  0
  9  7  1  0
  1 10  1  0
  3 11  1  0
  5 12  1  0
  5 13  1  0
  6 14  1  0
  6 15  1  0
  7 16  1  0
  9 17  1  0
M  END
