
     RDKit          3D

 14 14  0  0  0  0  0  0  0  0999 V2000
    2.5364    0.5236    1.1718 C   0  0  0  0  0  0  0  0  0  0  0  0
    1.6018    0.2335    0.4680 C   0  0  0  0  0  0  0  0  0  0  0  0
    0.4833   -0.1266   -0.3971 C   0  0  0  0  0  0  0  0  0  0  0  0
    0.8467   -0.4364   -1.7165 O   0  0  0  0  0  0  0  0  0  0  0  0
   -0.8295    0.5347   -0.2635 C   0  0  0  0  0  0  0  0  0  0  0  0
   -0.8866    1.5991    0.6200 O   0  0  0  0  0  0  0  0  0  0  0  0
   -0.6676   -0.8557    0.2325 C   0  0  0  0  0  0  0  0  0  0  0  0
   -1.1390   -1.9206   -0.5248 O   0  0  0  0  0  0  0  0  0  0  0  0
    3.3715    0.7818    1.7775 H   0  0  0  0  0  0  0  0  0  0  0  0
    0.6072    0.3727   -2.2501 H   0  0  0  0  0  0  0  0  0  0  0  0
   -1.4514    0.7117   -1.1833 H   0  0  0  0  0  0  0  0  0  0  0  0
   -1.7608    1.7378    1.0361 H   0  0  0  0  0  0  0  0  0  0  0  0
   -0.6531   -0.9773    1.3366 H   0  0  0  0  0  0  0  0  0  0  0  0
   -2.0589   -2.1782   -0.3070 H   0  0  0  0  0  0  0  0  0  0  0  0
  1  2  3  0
  2  3  1  0
  3  4  1  0
  3  5  1  0
  5  6  1  0
  5  7  1  0
  7  8  1  0
  7  3  1  0
  1  9  1  0
  4 10  1  0
  5 11  1  0
  6 12  1  0
  7 13  1  0
  8 14  1  0
M  END
