
     RDKit          3D

 14 14  0  0  0  0  0  0  0  0999 V2000
    2.7734   -1.5508   -0.2986 C   0  0  0  0  0  0  0  0  0  0  0  0
    1.6705   -1.2448    0.0260 C   0  0  0  0  0  0  0  0  0  0  0  0
    0.3320   -0.8510    0.4330 C   0  0  0  0  0  0  0  0  0  0  0  0
    0.2068    0.6587    0.4800 C   0  0  0  0  0  0  0  0  0  0  0  0
   -1.1957    0.2577    0.0578 C   0  0  0  0  0  0  0  0  0  0  0  0
   -1.8718    1.2371   -0.8311 C   0  0  0  0  0  0  0  0  0  0  0  0
   -2.4109    2.2102   -0.3316 O   0  0  0  0  0  0  0  0  0  0  0  0
   -0.6122   -0.8166   -0.6134 O   0  0  0  0  0  0  0  0  0  0  0  0
    3.7683   -1.8456   -0.5879 H   0  0  0  0  0  0  0  0  0  0  0  0
   -0.0484   -1.3558    1.3466 H   0  0  0  0  0  0  0  0  0  0  0  0
    0.3043    1.1267    1.4553 H   0  0  0  0  0  0  0  0  0  0  0  0
    0.7961    1.0964   -0.3532 H   0  0  0  0  0  0  0  0  0  0  0  0
   -1.8115   -0.0369    0.9192 H   0  0  0  0  0  0  0  0  0  0  0  0
   -1.9008    1.1148   -1.9022 H   0  0  0  0  0  0  0  0  0  0  0  0
  1  2  3  0
  2  3  1  0
  3  4  1  0
  4  5  1  0
  5  6  1  0
  6  7  2  0
  5  8  1  0
  8  3  1  0
  1  9  1  0
  3 10  1  0
  4 11  1  0
  4 12  1  0
  5 13  1  0
  6 14  1  0
M  END
