
     RDKit          3D

 17 18  0  0  0  0  0  0  0  0999 V2000
    2.7778    1.3012   -0.2370 C   0  0  0  0  0  0  0  0  0  0  0  0
    1.7394    0.7165   -0.0148 C   0  0  0  0  0  0  0  0  0  0  0  0
    0.4964   -0.0024    0.2598 C   0  0  0  0  0  0  0  0  0  0  0  0
    0.4957   -0.5281    1.6313 C   0  0  0  0  0  0  0  0  0  0  0  0
    0.2169    0.1157    2.6225 O   0  0  0  0  0  0  0  0  0  0  0  0
    0.1176   -1.0515   -0.7343 C   0  0  0  0  0  0  0  0  0  0  0  0
   -1.2154   -0.4202   -1.0031 C   0  0  0  0  0  0  0  0  0  0  0  0
   -2.0244    0.1448    0.1015 C   0  0  0  0  0  0  0  0  0  0  0  0
   -0.7220    0.7830   -0.1480 C   0  0  0  0  0  0  0  0  0  0  0  0
    3.6852    1.8240   -0.4167 H   0  0  0  0  0  0  0  0  0  0  0  0
    0.7625   -1.5690    1.7868 H   0  0  0  0  0  0  0  0  0  0  0  0
    0.0637   -2.1033   -0.3355 H   0  0  0  0  0  0  0  0  0  0  0  0
    0.7777   -0.9907   -1.6309 H   0  0  0  0  0  0  0  0  0  0  0  0
   -1.4898   -0.1983   -2.0422 H   0  0  0  0  0  0  0  0  0  0  0  0
   -2.9683    0.6414   -0.2163 H   0  0  0  0  0  0  0  0  0  0  0  0
   -2.1278   -0.3778    1.0756 H   0  0  0  0  0  0  0  0  0  0  0  0
   -0.5853    1.7148   -0.6989 H   0  0  0  0  0  0  0  0  0  0  0  0
  1  2  3  0
  2  3  1  0
  3  4  1  0
  4  5  2  0
  3  6  1  0
  6  7  1  0
  7  8  1  0
  8  9  1  0
  9  3  1  0
  9  7  1  0
  1 10  1  0
  4 11  1  0
  6 12  1  0
  6 13  1  0
  7 14  1  0
  8 15  1  0
  8 16  1  0
  9 17  1  0
M  END
