
     RDKit          3D

 23 23  0  0  0  0  0  0  0  0999 V2000
    4.1721    0.9469    0.1393 C   0  0  0  0  0  0  0  0  0  0  0  0
    3.1342    0.5130    0.5758 C   0  0  0  0  0  0  0  0  0  0  0  0
    1.8832   -0.0197    1.0795 C   0  0  0  0  0  0  0  0  0  0  0  0
    0.8124   -0.1248    0.0043 C   0  0  0  0  0  0  0  0  0  0  0  0
    0.5671    1.2465   -0.5331 C   0  0  0  0  0  0  0  0  0  0  0  0
   -0.4182   -0.6796    0.7193 C   0  0  0  0  0  0  0  0  0  0  0  0
   -1.5588   -0.8332   -0.2368 C   0  0  0  0  0  0  0  0  0  0  0  0
   -2.8719   -1.3532    0.1971 C   0  0  0  0  0  0  0  0  0  0  0  0
   -2.7145    0.1337    0.0186 C   0  0  0  0  0  0  0  0  0  0  0  0
    5.0795    1.3407   -0.2430 H   0  0  0  0  0  0  0  0  0  0  0  0
    2.0982   -1.0443    1.4770 H   0  0  0  0  0  0  0  0  0  0  0  0
    1.5365    0.6537    1.8891 H   0  0  0  0  0  0  0  0  0  0  0  0
    1.1025   -0.7978   -0.8071 H   0  0  0  0  0  0  0  0  0  0  0  0
   -0.3915    1.3358   -1.0952 H   0  0  0  0  0  0  0  0  0  0  0  0
    1.4240    1.5066   -1.1942 H   0  0  0  0  0  0  0  0  0  0  0  0
    0.6003    1.9950    0.2975 H   0  0  0  0  0  0  0  0  0  0  0  0
   -0.1464   -1.6326    1.2111 H   0  0  0  0  0  0  0  0  0  0  0  0
   -0.6415    0.0502    1.5237 H   0  0  0  0  0  0  0  0  0  0  0  0
   -1.2775   -1.0456   -1.2890 H   0  0  0  0  0  0  0  0  0  0  0  0
   -3.0418   -1.7251    1.2303 H   0  0  0  0  0  0  0  0  0  0  0  0
   -3.5157   -1.8373   -0.5598 H   0  0  0  0  0  0  0  0  0  0  0  0
   -3.1231    0.6165   -0.8869 H   0  0  0  0  0  0  0  0  0  0  0  0
   -2.7092    0.7544    0.9107 H   0  0  0  0  0  0  0  0  0  0  0  0
  1  2  3  0
  2  3  1  0
  3  4  1  0
  4  5  1  0
  4  6  1  0
  6  7  1  0
  7  8  1  0
  8  9  1  0
  9  7  1  0
  1 10  1  0
  3 11  1  0
  3 12  1  0
  4 13  1  0
  5 14  1  0
  5 15  1  0
  5 16  1  0
  6 17  1  0
  6 18  1  0
  7 19  1  0
  8 20  1  0
  8 21  1  0
  9 22  1  0
  9 23  1  0
M  END
