
     RDKit          3D

 16 15  0  0  0  0  0  0  0  0999 V2000
    3.7222   -1.3337    0.2259 C   0  0  0  0  0  0  0  0  0  0  0  0
    2.5764   -1.0194   -0.0365 C   0  0  0  0  0  0  0  0  0  0  0  0
    1.1714   -0.6539   -0.3718 C   0  0  0  0  0  0  0  0  0  0  0  0
    0.9351    0.5638    0.2033 O   0  0  0  0  0  0  0  0  0  0  0  0
   -0.3414    1.0079   -0.0676 C   0  0  0  0  0  0  0  0  0  0  0  0
   -1.4409    0.1032    0.4311 C   0  0  0  0  0  0  0  0  0  0  0  0
   -2.7906    0.6810    0.1012 C   0  0  0  0  0  0  0  0  0  0  0  0
   -2.8133    1.7420   -0.4900 O   0  0  0  0  0  0  0  0  0  0  0  0
    4.7171   -1.5924    0.4636 H   0  0  0  0  0  0  0  0  0  0  0  0
    0.5018   -1.4749   -0.0105 H   0  0  0  0  0  0  0  0  0  0  0  0
    1.1586   -0.5758   -1.4766 H   0  0  0  0  0  0  0  0  0  0  0  0
   -0.4685    1.1436   -1.1778 H   0  0  0  0  0  0  0  0  0  0  0  0
   -0.4301    2.0212    0.4220 H   0  0  0  0  0  0  0  0  0  0  0  0
   -1.4001   -0.8851   -0.0854 H   0  0  0  0  0  0  0  0  0  0  0  0
   -1.3798   -0.0946    1.5074 H   0  0  0  0  0  0  0  0  0  0  0  0
   -3.7180    0.2036    0.3617 H   0  0  0  0  0  0  0  0  0  0  0  0
  1  2  3  0
  2  3  1  0
  3  4  1  0
  4  5  1  0
  5  6  1  0
  6  7  1  0
  7  8  2  0
  1  9  1  0
  3 10  1  0
  3 11  1  0
  5 12  1  0
  5 13  1  0
  6 14  1  0
  6 15  1  0
  7 16  1  0
M  END
