
     RDKit          3D

 21 21  0  0  0  0  0  0  0  0999 V2000
    1.4420   -3.4198    1.7177 C   0  0  0  0  0  0  0  0  0  0  0  0
    1.4237   -2.3642    1.0560 C   0  0  0  0  0  0  0  0  0  0  0  0
    1.4211   -1.1305    0.2626 C   0  0  0  0  0  0  0  0  0  0  0  0
    0.0879   -0.4670    0.4339 C   0  0  0  0  0  0  0  0  0  0  0  0
   -0.2314   -0.1076    1.7545 O   0  0  0  0  0  0  0  0  0  0  0  0
   -0.7890    1.0682    1.1859 C   0  0  0  0  0  0  0  0  0  0  0  0
    0.2038    0.9988    0.0927 C   0  0  0  0  0  0  0  0  0  0  0  0
   -0.1456    1.3032   -1.2996 C   0  0  0  0  0  0  0  0  0  0  0  0
   -1.5335    0.9616   -1.7365 C   0  0  0  0  0  0  0  0  0  0  0  0
    1.4522   -4.2721    2.2710 H   0  0  0  0  0  0  0  0  0  0  0  0
    1.5842   -1.3354   -0.8054 H   0  0  0  0  0  0  0  0  0  0  0  0
    2.1927   -0.4220    0.6684 H   0  0  0  0  0  0  0  0  0  0  0  0
   -0.7670   -0.9763   -0.0169 H   0  0  0  0  0  0  0  0  0  0  0  0
   -1.8374    0.8740    0.9818 H   0  0  0  0  0  0  0  0  0  0  0  0
   -0.5743    1.9137    1.8978 H   0  0  0  0  0  0  0  0  0  0  0  0
    1.1815    1.4424    0.3770 H   0  0  0  0  0  0  0  0  0  0  0  0
    0.6130    0.7933   -1.9596 H   0  0  0  0  0  0  0  0  0  0  0  0
   -0.0179    2.4011   -1.4932 H   0  0  0  0  0  0  0  0  0  0  0  0
   -2.2300    1.5529   -1.0745 H   0  0  0  0  0  0  0  0  0  0  0  0
   -1.7432   -0.0903   -1.5376 H   0  0  0  0  0  0  0  0  0  0  0  0
   -1.7327    1.2761   -2.7758 H   0  0  0  0  0  0  0  0  0  0  0  0
  1  2  3  0
  2  3  1  0
  3  4  1  0
  4  5  1  0
  5  6  1  0
  6  7  1  0
  7  8  1  0
  8  9  1  0
  7  4  1  0
  1 10  1  0
  3 11  1  0
  3 12  1  0
  4 13  1  0
  6 14  1  0
  6 15  1  0
  7 16  1  0
  8 17  1  0
  8 18  1  0
  9 19  1  0
  9 20  1  0
  9 21  1  0
M  END
