
     RDKit          3D

 19 20  0  0  0  0  0  0  0  0999 V2000
    3.5303   -1.0445   -0.0677 C   0  0  0  0  0  0  0  0  0  0  0  0
    2.4503   -0.5864    0.2246 C   0  0  0  0  0  0  0  0  0  0  0  0
    1.1536   -0.0114    0.5879 C   0  0  0  0  0  0  0  0  0  0  0  0
    0.7357    1.1727   -0.2111 C   0  0  0  0  0  0  0  0  0  0  0  0
   -0.4332    0.4208   -0.7711 C   0  0  0  0  0  0  0  0  0  0  0  0
   -1.7767    0.7492   -0.1682 C   0  0  0  0  0  0  0  0  0  0  0  0
   -2.1907   -0.6151    0.3855 C   0  0  0  0  0  0  0  0  0  0  0  0
   -1.0057   -1.1090    0.8969 O   0  0  0  0  0  0  0  0  0  0  0  0
   -0.0188   -0.7949   -0.0002 C   0  0  0  0  0  0  0  0  0  0  0  0
    4.4860   -1.4345   -0.3125 H   0  0  0  0  0  0  0  0  0  0  0  0
    1.0506    0.1812    1.6660 H   0  0  0  0  0  0  0  0  0  0  0  0
    0.3703    2.0342    0.3993 H   0  0  0  0  0  0  0  0  0  0  0  0
    1.5013    1.4936   -0.9281 H   0  0  0  0  0  0  0  0  0  0  0  0
   -0.4104    0.3443   -1.8703 H   0  0  0  0  0  0  0  0  0  0  0  0
   -1.7335    1.5155    0.6128 H   0  0  0  0  0  0  0  0  0  0  0  0
   -2.5390    1.0188   -0.9319 H   0  0  0  0  0  0  0  0  0  0  0  0
   -2.9686   -0.5014    1.1669 H   0  0  0  0  0  0  0  0  0  0  0  0
   -2.5536   -1.2030   -0.4839 H   0  0  0  0  0  0  0  0  0  0  0  0
    0.3521   -1.6302   -0.6452 H   0  0  0  0  0  0  0  0  0  0  0  0
  1  2  3  0
  2  3  1  0
  3  4  1  0
  4  5  1  0
  5  6  1  0
  6  7  1  0
  7  8  1  0
  8  9  1  0
  9  3  1  0
  9  5  1  0
  1 10  1  0
  3 11  1  0
  4 12  1  0
  4 13  1  0
  5 14  1  0
  6 15  1  0
  6 16  1  0
  7 17  1  0
  7 18  1  0
  9 19  1  0
M  END
