
     RDKit          3D

 17 18  0  0  0  0  0  0  0  0999 V2000
    2.8858    0.5307    0.0791 C   0  0  0  0  0  0  0  0  0  0  0  0
    1.7146    0.5443   -0.2736 C   0  0  0  0  0  0  0  0  0  0  0  0
    0.3132    0.5723   -0.7195 C   0  0  0  0  0  0  0  0  0  0  0  0
   -0.5847    1.4281    0.1851 C   0  0  0  0  0  0  0  0  0  0  0  0
   -0.9293    0.1478    0.9227 C   0  0  0  0  0  0  0  0  0  0  0  0
   -0.0987   -0.1463    1.9977 O   0  0  0  0  0  0  0  0  0  0  0  0
   -0.5010   -0.6070   -0.2895 C   0  0  0  0  0  0  0  0  0  0  0  0
   -1.1986   -1.5323   -1.0118 C   0  0  0  0  0  0  0  0  0  0  0  0
    0.0238   -1.8692   -0.2085 O   0  0  0  0  0  0  0  0  0  0  0  0
    3.8965    0.5073    0.3949 H   0  0  0  0  0  0  0  0  0  0  0  0
    0.2106    0.7863   -1.7892 H   0  0  0  0  0  0  0  0  0  0  0  0
    0.0627    2.0618    0.8230 H   0  0  0  0  0  0  0  0  0  0  0  0
   -1.4209    1.9151   -0.3207 H   0  0  0  0  0  0  0  0  0  0  0  0
   -2.0205    0.0842    1.1436 H   0  0  0  0  0  0  0  0  0  0  0  0
    0.7557   -0.5579    1.7194 H   0  0  0  0  0  0  0  0  0  0  0  0
   -2.1039   -2.0551   -0.5998 H   0  0  0  0  0  0  0  0  0  0  0  0
   -1.0053   -1.8104   -2.0531 H   0  0  0  0  0  0  0  0  0  0  0  0
  1  2  3  0
  2  3  1  0
  3  4  1  0
  4  5  1  0
  5  6  1  0
  5  7  1  0
  7  8  1  0
  8  9  1  0
  7  3  1  0
  9  7  1  0
  1 10  1  0
  3 11  1  0
  4 12  1  0
  4 13  1  0
  5 14  1  0
  6 15  1  0
  8 16  1  0
  8 17  1  0
M  END
