
     RDKit          3D

 19 19  0  0  0  0  0  0  0  0999 V2000
    2.5674   -1.3745    1.3877 C   0  0  0  0  0  0  0  0  0  0  0  0
    1.7487   -0.9444    0.6946 C   0  0  0  0  0  0  0  0  0  0  0  0
    0.7314   -0.3829   -0.1677 C   0  0  0  0  0  0  0  0  0  0  0  0
    0.9858   -0.5495   -1.4716 O   0  0  0  0  0  0  0  0  0  0  0  0
    0.6766    1.1396    0.1415 C   0  0  0  0  0  0  0  0  0  0  0  0
   -0.6383    1.6827   -0.4042 C   0  0  0  0  0  0  0  0  0  0  0  0
   -1.6871    0.9678   -0.5985 C   0  0  0  0  0  0  0  0  0  0  0  0
   -1.8145   -0.4642   -0.3445 C   0  0  0  0  0  0  0  0  0  0  0  0
   -0.5897   -0.9792    0.3124 C   0  0  0  0  0  0  0  0  0  0  0  0
    3.3811   -1.8001    2.1010 H   0  0  0  0  0  0  0  0  0  0  0  0
    1.6696    0.1391   -1.8021 H   0  0  0  0  0  0  0  0  0  0  0  0
    0.6666    1.1902    1.2347 H   0  0  0  0  0  0  0  0  0  0  0  0
    1.5427    1.5831   -0.3342 H   0  0  0  0  0  0  0  0  0  0  0  0
   -0.6462    2.7537   -0.6397 H   0  0  0  0  0  0  0  0  0  0  0  0
   -2.6045    1.4725   -0.9994 H   0  0  0  0  0  0  0  0  0  0  0  0
   -2.6709   -0.6299    0.3986 H   0  0  0  0  0  0  0  0  0  0  0  0
   -2.0701   -1.0474   -1.2704 H   0  0  0  0  0  0  0  0  0  0  0  0
   -0.5327   -2.0676    0.3387 H   0  0  0  0  0  0  0  0  0  0  0  0
   -0.7158   -0.6892    1.4231 H   0  0  0  0  0  0  0  0  0  0  0  0
  1  2  3  0
  2  3  1  0
  3  4  1  0
  3  5  1  0
  5  6  1  0
  6  7  2  0
  7  8  1  0
  8  9  1  0
  9  3  1  0
  1 10  1  0
  4 11  1  0
  5 12  1  0
  5 13  1  0
  6 14  1  0
  7 15  1  0
  8 16  1  0
  8 17  1  0
  9 18  1  0
  9 19  1  0
M  END
