
     RDKit          3D

 15 15  0  0  0  0  0  0  0  0999 V2000
    3.3564   -0.4472    0.0031 C   0  0  0  0  0  0  0  0  0  0  0  0
    2.1776   -0.2914   -0.0819 C   0  0  0  0  0  0  0  0  0  0  0  0
    0.7582   -0.0793   -0.1911 C   0  0  0  0  0  0  0  0  0  0  0  0
    0.2271    1.0537   -0.5947 C   0  0  0  0  0  0  0  0  0  0  0  0
   -1.2090    1.2762   -0.7079 C   0  0  0  0  0  0  0  0  0  0  0  0
   -2.0166    0.2188   -0.5362 O   0  0  0  0  0  0  0  0  0  0  0  0
   -1.6018   -0.8457    0.1788 C   0  0  0  0  0  0  0  0  0  0  0  0
   -0.1666   -1.1406    0.1504 C   0  0  0  0  0  0  0  0  0  0  0  0
    0.2111   -2.3054    0.4238 O   0  0  0  0  0  0  0  0  0  0  0  0
    4.4081   -0.5689    0.0766 H   0  0  0  0  0  0  0  0  0  0  0  0
    0.8972    1.8606   -0.8553 H   0  0  0  0  0  0  0  0  0  0  0  0
   -1.4034    1.7102   -1.7340 H   0  0  0  0  0  0  0  0  0  0  0  0
   -1.5287    2.1049   -0.0107 H   0  0  0  0  0  0  0  0  0  0  0  0
   -2.1254   -1.7612   -0.2249 H   0  0  0  0  0  0  0  0  0  0  0  0
   -1.9840   -0.7846    1.2394 H   0  0  0  0  0  0  0  0  0  0  0  0
  1  2  3  0
  2  3  1  0
  3  4  2  0
  4  5  1  0
  5  6  1  0
  6  7  1  0
  7  8  1  0
  8  9  2  0
  8  3  1  0
  1 10  1  0
  4 11  1  0
  5 12  1  0
  5 13  1  0
  7 14  1  0
  7 15  1  0
M  END
