
     RDKit          3D

 21 21  0  0  0  0  0  0  0  0999 V2000
    1.2512    1.4048   -2.9435 C   0  0  0  0  0  0  0  0  0  0  0  0
    1.4601    1.1124   -1.7373 C   0  0  0  0  0  0  0  0  0  0  0  0
    1.7016    0.7596   -0.3816 C   0  0  0  0  0  0  0  0  0  0  0  0
    0.5205    0.7423    0.5240 C   0  0  0  0  0  0  0  0  0  0  0  0
   -0.5836   -0.1797    0.2805 C   0  0  0  0  0  0  0  0  0  0  0  0
   -1.6167   -0.0323    1.2598 O   0  0  0  0  0  0  0  0  0  0  0  0
   -1.1524   -0.2871    2.5152 C   0  0  0  0  0  0  0  0  0  0  0  0
   -1.1548   -0.5524   -1.0310 C   0  0  0  0  0  0  0  0  0  0  0  0
   -0.4376   -1.5748   -0.1765 C   0  0  0  0  0  0  0  0  0  0  0  0
    1.0558    1.6479   -3.9679 H   0  0  0  0  0  0  0  0  0  0  0  0
    2.2468   -0.2249   -0.3900 H   0  0  0  0  0  0  0  0  0  0  0  0
    2.5103    1.4322    0.0723 H   0  0  0  0  0  0  0  0  0  0  0  0
    0.1131    1.8014    0.5441 H   0  0  0  0  0  0  0  0  0  0  0  0
    0.9375    0.5635    1.5601 H   0  0  0  0  0  0  0  0  0  0  0  0
   -0.7393   -1.3327    2.6098 H   0  0  0  0  0  0  0  0  0  0  0  0
   -2.0627   -0.3284    3.1868 H   0  0  0  0  0  0  0  0  0  0  0  0
   -0.5192    0.4773    2.9584 H   0  0  0  0  0  0  0  0  0  0  0  0
   -0.7444   -0.2927   -2.0037 H   0  0  0  0  0  0  0  0  0  0  0  0
   -2.2581   -0.8040   -1.1160 H   0  0  0  0  0  0  0  0  0  0  0  0
    0.4818   -1.9582   -0.6444 H   0  0  0  0  0  0  0  0  0  0  0  0
   -1.0098   -2.3743    0.3375 H   0  0  0  0  0  0  0  0  0  0  0  0
  1  2  3  0
  2  3  1  0
  3  4  1  0
  4  5  1  0
  5  6  1  0
  6  7  1  0
  5  8  1  0
  8  9  1  0
  9  5  1  0
  1 10  1  0
  3 11  1  0
  3 12  1  0
  4 13  1  0
  4 14  1  0
  7 15  1  0
  7 16  1  0
  7 17  1  0
  8 18  1  0
  8 19  1  0
  9 20  1  0
  9 21  1  0
M  END
