
     RDKit          3D

 21 21  0  0  0  0  0  0  0  0999 V2000
    2.2713    2.1103   -1.1250 C   0  0  0  0  0  0  0  0  0  0  0  0
    1.2606    1.3225   -1.0200 C   0  0  0  0  0  0  0  0  0  0  0  0
    0.1506    0.4464   -0.9274 C   0  0  0  0  0  0  0  0  0  0  0  0
    0.6047   -1.0213   -0.9535 C   0  0  0  0  0  0  0  0  0  0  0  0
   -0.4822   -1.7872   -0.2452 C   0  0  0  0  0  0  0  0  0  0  0  0
   -1.2461   -0.8061    0.6039 C   0  0  0  0  0  0  0  0  0  0  0  0
   -2.5271   -0.7013    0.0878 O   0  0  0  0  0  0  0  0  0  0  0  0
   -0.5322    0.4866    0.4128 C   0  0  0  0  0  0  0  0  0  0  0  0
    0.3647    0.7984    1.5581 C   0  0  0  0  0  0  0  0  0  0  0  0
    3.0684    2.7240   -1.1909 H   0  0  0  0  0  0  0  0  0  0  0  0
   -0.5772    0.5465   -1.7719 H   0  0  0  0  0  0  0  0  0  0  0  0
    1.5746   -1.0513   -0.4263 H   0  0  0  0  0  0  0  0  0  0  0  0
    0.7725   -1.3645   -1.9876 H   0  0  0  0  0  0  0  0  0  0  0  0
   -1.1305   -2.3282   -0.9689 H   0  0  0  0  0  0  0  0  0  0  0  0
    0.0195   -2.5857    0.3652 H   0  0  0  0  0  0  0  0  0  0  0  0
   -1.2847   -1.1392    1.6624 H   0  0  0  0  0  0  0  0  0  0  0  0
   -2.7220    0.2522   -0.0903 H   0  0  0  0  0  0  0  0  0  0  0  0
   -1.2971    1.3172    0.3401 H   0  0  0  0  0  0  0  0  0  0  0  0
    1.2246    1.4345    1.2495 H   0  0  0  0  0  0  0  0  0  0  0  0
   -0.2195    1.4325    2.2921 H   0  0  0  0  0  0  0  0  0  0  0  0
    0.7072   -0.0864    2.1352 H   0  0  0  0  0  0  0  0  0  0  0  0
  1  2  3  0
  2  3  1  0
  3  4  1  0
  4  5  1  0
  5  6  1  0
  6  7  1  0
  6  8  1  0
  8  9  1  0
  8  3  1  0
  1 10  1  0
  3 11  1  0
  4 12  1  0
  4 13  1  0
  5 14  1  0
  5 15  1  0
  6 16  1  0
  7 17  1  0
  8 18  1  0
  9 19  1  0
  9 20  1  0
  9 21  1  0
M  END
