
     RDKit          3D

 17 18  0  0  0  0  0  0  0  0999 V2000
   -2.1703    2.3146    0.0688 C   0  0  0  0  0  0  0  0  0  0  0  0
   -1.1679    1.6345    0.1544 C   0  0  0  0  0  0  0  0  0  0  0  0
    0.0276    0.8193    0.2315 C   0  0  0  0  0  0  0  0  0  0  0  0
    1.0907    1.3920    0.9087 O   0  0  0  0  0  0  0  0  0  0  0  0
    0.4494    0.2155   -1.0669 C   0  0  0  0  0  0  0  0  0  0  0  0
    0.6177   -1.1321   -0.4620 C   0  0  0  0  0  0  0  0  0  0  0  0
    0.1291   -2.2030   -1.1956 O   0  0  0  0  0  0  0  0  0  0  0  0
    1.0157   -1.3796    0.9382 C   0  0  0  0  0  0  0  0  0  0  0  0
   -0.2212   -0.6118    0.7253 C   0  0  0  0  0  0  0  0  0  0  0  0
   -3.0512    2.8965   -0.0151 H   0  0  0  0  0  0  0  0  0  0  0  0
    0.9884    1.3271    1.8921 H   0  0  0  0  0  0  0  0  0  0  0  0
    1.3060    0.6443   -1.5914 H   0  0  0  0  0  0  0  0  0  0  0  0
   -0.4265    0.2170   -1.7754 H   0  0  0  0  0  0  0  0  0  0  0  0
   -0.2581   -1.9050   -2.0461 H   0  0  0  0  0  0  0  0  0  0  0  0
    1.0421   -2.4293    1.2516 H   0  0  0  0  0  0  0  0  0  0  0  0
    1.8563   -0.7882    1.4094 H   0  0  0  0  0  0  0  0  0  0  0  0
   -1.2278   -1.0118    0.7515 H   0  0  0  0  0  0  0  0  0  0  0  0
  1  2  3  0
  2  3  1  0
  3  4  1  0
  3  5  1  0
  5  6  1  0
  6  7  1  0
  6  8  1  0
  8  9  1  0
  9  3  1  0
  9  6  1  0
  1 10  1  0
  4 11  1  0
  5 12  1  0
  5 13  1  0
  7 14  1  0
  8 15  1  0
  8 16  1  0
  9 17  1  0
M  END
