
     RDKit          3D

 21 21  0  0  0  0  0  0  0  0999 V2000
    0.6042    1.9104    2.7900 C   0  0  0  0  0  0  0  0  0  0  0  0
    0.6707    0.7022    2.1633 C   0  0  0  0  0  0  0  0  0  0  0  0
    0.7126   -0.4736    1.5516 C   0  0  0  0  0  0  0  0  0  0  0  0
    1.0088   -0.3211    0.0503 C   0  0  0  0  0  0  0  0  0  0  0  0
    2.2368    0.1998   -0.1947 O   0  0  0  0  0  0  0  0  0  0  0  0
    0.2760   -1.2055   -0.8884 C   0  0  0  0  0  0  0  0  0  0  0  0
   -0.9741   -0.3954   -0.5588 C   0  0  0  0  0  0  0  0  0  0  0  0
   -1.9429   -0.1066   -1.6622 C   0  0  0  0  0  0  0  0  0  0  0  0
   -0.0364    0.7960   -0.3897 C   0  0  0  0  0  0  0  0  0  0  0  0
    0.5445    2.8576    3.2623 H   0  0  0  0  0  0  0  0  0  0  0  0
   -0.1775   -1.1524    1.7198 H   0  0  0  0  0  0  0  0  0  0  0  0
    1.5799   -1.1712    1.9244 H   0  0  0  0  0  0  0  0  0  0  0  0
    2.8080   -0.3409   -0.8315 H   0  0  0  0  0  0  0  0  0  0  0  0
    0.5873   -1.0285   -1.9376 H   0  0  0  0  0  0  0  0  0  0  0  0
    0.2028   -2.2915   -0.6675 H   0  0  0  0  0  0  0  0  0  0  0  0
   -1.4408   -0.7488    0.3783 H   0  0  0  0  0  0  0  0  0  0  0  0
   -1.6378    0.7720   -2.2850 H   0  0  0  0  0  0  0  0  0  0  0  0
   -2.1062   -0.9420   -2.3266 H   0  0  0  0  0  0  0  0  0  0  0  0
   -2.9207    0.2263   -1.1712 H   0  0  0  0  0  0  0  0  0  0  0  0
    0.2899    1.2461   -1.3453 H   0  0  0  0  0  0  0  0  0  0  0  0
   -0.2851    1.4670    0.4184 H   0  0  0  0  0  0  0  0  0  0  0  0
  1  2  3  0
  2  3  1  0
  3  4  1  0
  4  5  1  0
  4  6  1  0
  6  7  1  0
  7  8  1  0
  7  9  1  0
  9  4  1  0
  1 10  1  0
  3 11  1  0
  3 12  1  0
  5 13  1  0
  6 14  1  0
  6 15  1  0
  7 16  1  0
  8 17  1  0
  8 18  1  0
  8 19  1  0
  9 20  1  0
  9 21  1  0
M  END
