
     RDKit          3D

 21 21  0  0  0  0  0  0  0  0999 V2000
   -1.9494    1.9675   -0.2617 C   0  0  0  0  0  0  0  0  0  0  0  0
   -1.3568    0.9786    0.0233 C   0  0  0  0  0  0  0  0  0  0  0  0
   -0.5905   -0.3360    0.3787 C   0  0  0  0  0  0  0  0  0  0  0  0
    0.4438    0.0231    1.3248 C   0  0  0  0  0  0  0  0  0  0  0  0
    1.4635    0.9738    0.6816 C   0  0  0  0  0  0  0  0  0  0  0  0
    2.3035    0.0744   -0.2478 C   0  0  0  0  0  0  0  0  0  0  0  0
   -0.7720   -1.1622   -0.7675 C   0  0  0  0  0  0  0  0  0  0  0  0
   -2.1084   -1.4552   -0.3850 O   0  0  0  0  0  0  0  0  0  0  0  0
   -1.7168   -1.2551    0.9299 C   0  0  0  0  0  0  0  0  0  0  0  0
   -2.6499    3.1571   -0.6034 H   0  0  0  0  0  0  0  0  0  0  0  0
    1.0102   -0.9060    1.6444 H   0  0  0  0  0  0  0  0  0  0  0  0
    0.1830    0.5342    2.2523 H   0  0  0  0  0  0  0  0  0  0  0  0
    2.1366    1.4689    1.3087 H   0  0  0  0  0  0  0  0  0  0  0  0
    0.9090    1.6737   -0.0485 H   0  0  0  0  0  0  0  0  0  0  0  0
    1.7262   -0.8135   -0.4993 H   0  0  0  0  0  0  0  0  0  0  0  0
    2.6812    0.6035   -1.1578 H   0  0  0  0  0  0  0  0  0  0  0  0
    3.2001   -0.2653    0.3627 H   0  0  0  0  0  0  0  0  0  0  0  0
   -0.1706   -2.0508   -1.0851 H   0  0  0  0  0  0  0  0  0  0  0  0
   -0.8377   -0.4551   -1.7040 H   0  0  0  0  0  0  0  0  0  0  0  0
   -1.3912   -2.1295    1.4719 H   0  0  0  0  0  0  0  0  0  0  0  0
   -2.5138   -0.6261    1.4365 H   0  0  0  0  0  0  0  0  0  0  0  0
  1  2  3  0
  2  3  1  0
  3  4  1  0
  4  5  1  0
  5  6  1  0
  3  7  1  0
  7  8  1  0
  8  9  1  0
  9  3  1  0
  1 10  1  0
  4 11  1  0
  4 12  1  0
  5 13  1  0
  5 14  1  0
  6 15  1  0
  6 16  1  0
  6 17  1  0
  7 18  1  0
  7 19  1  0
  9 20  1  0
  9 21  1  0
M  END
