
     RDKit          3D

 19 19  0  0  0  0  0  0  0  0999 V2000
    1.8884    0.3998   -1.6228 C   0  0  0  0  0  0  0  0  0  0  0  0
    1.6177    0.7852   -0.3766 C   0  0  0  0  0  0  0  0  0  0  0  0
    1.3570    1.1647    0.8281 C   0  0  0  0  0  0  0  0  0  0  0  0
    1.8076    0.0411    1.8062 C   0  0  0  0  0  0  0  0  0  0  0  0
    0.4228   -0.1788    1.3518 C   0  0  0  0  0  0  0  0  0  0  0  0
   -0.1636   -0.9175    0.2170 C   0  0  0  0  0  0  0  0  0  0  0  0
   -1.3105   -0.3798   -0.4487 C   0  0  0  0  0  0  0  0  0  0  0  0
   -2.5612    0.2792   -0.1788 C   0  0  0  0  0  0  0  0  0  0  0  0
   -1.1889   -0.5823   -1.7786 O   0  0  0  0  0  0  0  0  0  0  0  0
    2.2133   -0.0560   -3.1130 H   0  0  0  0  0  0  0  0  0  0  0  0
    0.6188    1.9337    1.0152 H   0  0  0  0  0  0  0  0  0  0  0  0
    2.5213   -0.7558    1.3376 H   0  0  0  0  0  0  0  0  0  0  0  0
    1.8808    0.0772    2.8405 H   0  0  0  0  0  0  0  0  0  0  0  0
   -0.4106    0.1198    2.0293 H   0  0  0  0  0  0  0  0  0  0  0  0
    0.6346   -1.1979   -0.6135 H   0  0  0  0  0  0  0  0  0  0  0  0
   -0.4619   -1.9805    0.5271 H   0  0  0  0  0  0  0  0  0  0  0  0
   -2.4690    0.9732    0.6687 H   0  0  0  0  0  0  0  0  0  0  0  0
   -3.3261   -0.5669    0.1995 H   0  0  0  0  0  0  0  0  0  0  0  0
   -3.0707    0.8414   -1.0255 H   0  0  0  0  0  0  0  0  0  0  0  0
  1  2  3  0
  2  3  1  0
  3  4  1  0
  4  5  1  0
  5  6  1  0
  6  7  1  0
  7  8  1  0
  7  9  2  0
  5  3  1  0
  1 10  1  0
  3 11  1  0
  4 12  1  0
  4 13  1  0
  5 14  1  0
  6 15  1  0
  6 16  1  0
  8 17  1  0
  8 18  1  0
  8 19  1  0
M  END
