
     RDKit          3D

 18 19  0  0  0  0  0  0  0  0999 V2000
    3.0606    0.2207    0.1593 C   0  0  0  0  0  0  0  0  0  0  0  0
    1.9799   -0.0851    0.1363 C   0  0  0  0  0  0  0  0  0  0  0  0
    0.5525   -0.4860    0.0802 C   0  0  0  0  0  0  0  0  0  0  0  0
    0.4327   -2.0187    0.0370 C   0  0  0  0  0  0  0  0  0  0  0  0
   -0.4417    0.2206    0.8016 C   0  0  0  0  0  0  0  0  0  0  0  0
   -1.8516    0.6286    0.3411 C   0  0  0  0  0  0  0  0  0  0  0  0
   -0.9857    1.6234   -0.4680 C   0  0  0  0  0  0  0  0  0  0  0  0
   -0.2860    0.2922   -0.7788 C   0  0  0  0  0  0  0  0  0  0  0  0
    4.1900    0.5204    0.1760 H   0  0  0  0  0  0  0  0  0  0  0  0
    1.3963   -2.5135    0.2342 H   0  0  0  0  0  0  0  0  0  0  0  0
    0.1068   -2.2756   -1.0020 H   0  0  0  0  0  0  0  0  0  0  0  0
   -0.4026   -2.3455    0.6935 H   0  0  0  0  0  0  0  0  0  0  0  0
   -0.0296    1.1406    1.3306 H   0  0  0  0  0  0  0  0  0  0  0  0
   -2.3582   -0.0815   -0.3108 H   0  0  0  0  0  0  0  0  0  0  0  0
   -2.4156    1.1570    1.1119 H   0  0  0  0  0  0  0  0  0  0  0  0
   -1.4839    2.0405   -1.3583 H   0  0  0  0  0  0  0  0  0  0  0  0
   -0.4087    2.2943    0.1530 H   0  0  0  0  0  0  0  0  0  0  0  0
   -1.0549   -0.3324   -1.3369 H   0  0  0  0  0  0  0  0  0  0  0  0
  1  2  3  0
  2  3  1  0
  3  4  1  0
  3  5  1  0
  5  6  1  0
  6  7  1  0
  7  8  1  0
  8  3  1  0
  8  5  1  0
  1  9  1  0
  4 10  1  0
  4 11  1  0
  4 12  1  0
  5 13  1  0
  6 14  1  0
  6 15  1  0
  7 16  1  0
  7 17  1  0
  8 18  1  0
M  END
