
     RDKit          3D

 19 19  0  0  0  0  0  0  0  0999 V2000
    2.2452   -1.8968   -0.7797 C   0  0  0  0  0  0  0  0  0  0  0  0
    1.4975   -1.0104   -0.4590 C   0  0  0  0  0  0  0  0  0  0  0  0
    0.5932    0.0704   -0.0753 C   0  0  0  0  0  0  0  0  0  0  0  0
    1.2591    1.3979   -0.0666 C   0  0  0  0  0  0  0  0  0  0  0  0
    1.8135    2.4594   -0.0526 C   0  0  0  0  0  0  0  0  0  0  0  0
   -0.4939   -0.1995    0.8729 C   0  0  0  0  0  0  0  0  0  0  0  0
   -0.6747   -1.5999    1.4175 C   0  0  0  0  0  0  0  0  0  0  0  0
   -0.8037    0.0525   -0.5600 C   0  0  0  0  0  0  0  0  0  0  0  0
   -1.5283    1.2877   -0.9546 C   0  0  0  0  0  0  0  0  0  0  0  0
    2.9100   -2.6901   -1.0848 H   0  0  0  0  0  0  0  0  0  0  0  0
    2.3186    3.4137   -0.0233 H   0  0  0  0  0  0  0  0  0  0  0  0
   -0.7438    0.6020    1.6097 H   0  0  0  0  0  0  0  0  0  0  0  0
    0.3050   -2.1316    1.4905 H   0  0  0  0  0  0  0  0  0  0  0  0
   -1.2150   -1.6013    2.3845 H   0  0  0  0  0  0  0  0  0  0  0  0
   -1.2981   -2.1456    0.6713 H   0  0  0  0  0  0  0  0  0  0  0  0
   -1.0733   -0.8624   -1.1350 H   0  0  0  0  0  0  0  0  0  0  0  0
   -2.3168    1.0335   -1.6880 H   0  0  0  0  0  0  0  0  0  0  0  0
   -1.9840    1.8374   -0.1075 H   0  0  0  0  0  0  0  0  0  0  0  0
   -0.8105    1.9831   -1.4599 H   0  0  0  0  0  0  0  0  0  0  0  0
  1  2  3  0
  2  3  1  0
  3  4  1  0
  4  5  3  0
  3  6  1  0
  6  7  1  0
  6  8  1  0
  8  9  1  0
  8  3  1  0
  1 10  1  0
  5 11  1  0
  6 12  1  0
  7 13  1  0
  7 14  1  0
  7 15  1  0
  8 16  1  0
  9 17  1  0
  9 18  1  0
  9 19  1  0
M  END
