
     RDKit          3D

 16 17  0  0  0  0  0  0  0  0999 V2000
    2.5148   -0.4678    2.0521 C   0  0  0  0  0  0  0  0  0  0  0  0
    1.8012   -0.4115    1.0682 C   0  0  0  0  0  0  0  0  0  0  0  0
    0.9408   -0.3388   -0.1162 C   0  0  0  0  0  0  0  0  0  0  0  0
    1.0399    0.8570   -1.0062 C   0  0  0  0  0  0  0  0  0  0  0  0
   -0.1520    0.6837   -0.1682 C   0  0  0  0  0  0  0  0  0  0  0  0
   -1.4948    0.3360   -0.7350 C   0  0  0  0  0  0  0  0  0  0  0  0
   -2.1893   -0.8052    0.0137 C   0  0  0  0  0  0  0  0  0  0  0  0
   -1.7165   -0.9176   -1.2979 O   0  0  0  0  0  0  0  0  0  0  0  0
    3.1370   -0.5003    2.9091 H   0  0  0  0  0  0  0  0  0  0  0  0
    0.6586   -1.3238   -0.5697 H   0  0  0  0  0  0  0  0  0  0  0  0
    0.9122    0.7690   -2.0943 H   0  0  0  0  0  0  0  0  0  0  0  0
    1.7474    1.6661   -0.7179 H   0  0  0  0  0  0  0  0  0  0  0  0
   -0.2196    1.3083    0.7631 H   0  0  0  0  0  0  0  0  0  0  0  0
   -2.1078    1.1810   -1.0411 H   0  0  0  0  0  0  0  0  0  0  0  0
   -1.6063   -1.3846    0.7479 H   0  0  0  0  0  0  0  0  0  0  0  0
   -3.2657   -0.6515    0.1925 H   0  0  0  0  0  0  0  0  0  0  0  0
  1  2  3  0
  2  3  1  0
  3  4  1  0
  4  5  1  0
  5  6  1  0
  6  7  1  0
  7  8  1  0
  5  3  1  0
  8  6  1  0
  1  9  1  0
  3 10  1  0
  4 11  1  0
  4 12  1  0
  5 13  1  0
  6 14  1  0
  7 15  1  0
  7 16  1  0
M  END
