
     RDKit          3D

 19 20  0  0  0  0  0  0  0  0999 V2000
    2.5593    1.8361    0.4688 C   0  0  0  0  0  0  0  0  0  0  0  0
    1.9861    0.9013   -0.0334 C   0  0  0  0  0  0  0  0  0  0  0  0
    1.3048   -0.2590   -0.6510 C   0  0  0  0  0  0  0  0  0  0  0  0
    0.7633   -1.2292    0.3810 C   0  0  0  0  0  0  0  0  0  0  0  0
   -0.5936   -0.6788    0.1332 C   0  0  0  0  0  0  0  0  0  0  0  0
   -1.3046    0.1550    1.1557 C   0  0  0  0  0  0  0  0  0  0  0  0
   -2.5450    0.5266    0.6511 O   0  0  0  0  0  0  0  0  0  0  0  0
   -1.1555   -0.8669   -1.2341 C   0  0  0  0  0  0  0  0  0  0  0  0
   -0.0726    0.1306   -1.0724 C   0  0  0  0  0  0  0  0  0  0  0  0
    3.0680    2.6658    0.8942 H   0  0  0  0  0  0  0  0  0  0  0  0
    1.9202   -0.8087   -1.3873 H   0  0  0  0  0  0  0  0  0  0  0  0
    0.8660   -2.3043    0.1130 H   0  0  0  0  0  0  0  0  0  0  0  0
    1.1797   -0.9972    1.3777 H   0  0  0  0  0  0  0  0  0  0  0  0
   -0.7510    1.1175    1.3635 H   0  0  0  0  0  0  0  0  0  0  0  0
   -1.3787   -0.3790    2.1011 H   0  0  0  0  0  0  0  0  0  0  0  0
   -2.3894    1.2963    0.0554 H   0  0  0  0  0  0  0  0  0  0  0  0
   -0.9230   -1.7992   -1.7927 H   0  0  0  0  0  0  0  0  0  0  0  0
   -2.1693   -0.4999   -1.3840 H   0  0  0  0  0  0  0  0  0  0  0  0
   -0.3647    1.1927   -1.1398 H   0  0  0  0  0  0  0  0  0  0  0  0
  1  2  3  0
  2  3  1  0
  3  4  1  0
  4  5  1  0
  5  6  1  0
  6  7  1  0
  5  8  1  0
  8  9  1  0
  9  3  1  0
  9  5  1  0
  1 10  1  0
  3 11  1  0
  4 12  1  0
  4 13  1  0
  6 14  1  0
  6 15  1  0
  7 16  1  0
  8 17  1  0
  8 18  1  0
  9 19  1  0
M  END
