
     RDKit          3D

 17 18  0  0  0  0  0  0  0  0999 V2000
   -0.8555    1.5935   -2.1727 C   0  0  0  0  0  0  0  0  0  0  0  0
   -0.7162    0.9550   -1.1857 C   0  0  0  0  0  0  0  0  0  0  0  0
   -0.5609    0.1798    0.0477 C   0  0  0  0  0  0  0  0  0  0  0  0
   -1.2968   -1.1095    0.1538 C   0  0  0  0  0  0  0  0  0  0  0  0
   -0.0473   -1.8764    0.5260 C   0  0  0  0  0  0  0  0  0  0  0  0
    0.7466   -0.6779    0.0950 C   0  0  0  0  0  0  0  0  0  0  0  0
    0.5559    0.5438    0.9306 C   0  0  0  0  0  0  0  0  0  0  0  0
    1.4250    1.6740    0.5410 C   0  0  0  0  0  0  0  0  0  0  0  0
    1.5434    1.8863   -0.6735 O   0  0  0  0  0  0  0  0  0  0  0  0
   -0.9710    2.1736   -3.0609 H   0  0  0  0  0  0  0  0  0  0  0  0
   -1.6348   -1.4514   -0.8638 H   0  0  0  0  0  0  0  0  0  0  0  0
   -2.0926   -1.1284    0.9269 H   0  0  0  0  0  0  0  0  0  0  0  0
   -0.0085   -1.9774    1.6436 H   0  0  0  0  0  0  0  0  0  0  0  0
    0.1337   -2.7946   -0.0417 H   0  0  0  0  0  0  0  0  0  0  0  0
    1.3568   -0.6826   -0.8029 H   0  0  0  0  0  0  0  0  0  0  0  0
    0.4720    0.3808    2.0404 H   0  0  0  0  0  0  0  0  0  0  0  0
    1.9504    2.3114    1.2192 H   0  0  0  0  0  0  0  0  0  0  0  0
  1  2  3  0
  2  3  1  0
  3  4  1  0
  4  5  1  0
  5  6  1  0
  6  7  1  0
  7  8  1  0
  8  9  2  0
  6  3  1  0
  7  3  1  0
  1 10  1  0
  4 11  1  0
  4 12  1  0
  5 13  1  0
  5 14  1  0
  6 15  1  0
  7 16  1  0
  8 17  1  0
M  END
