
     RDKit          3D

 19 20  0  0  0  0  0  0  0  0999 V2000
    3.0393    0.8849    1.4348 C   0  0  0  0  0  0  0  0  0  0  0  0
    1.9582    0.3849    1.1867 C   0  0  0  0  0  0  0  0  0  0  0  0
    0.6491   -0.1971    0.8777 C   0  0  0  0  0  0  0  0  0  0  0  0
   -0.3549    0.9235    0.9109 C   0  0  0  0  0  0  0  0  0  0  0  0
   -0.8205    1.1581   -0.4966 C   0  0  0  0  0  0  0  0  0  0  0  0
   -1.7519    0.0840   -1.0254 C   0  0  0  0  0  0  0  0  0  0  0  0
   -2.3556   -0.7461   -0.0881 O   0  0  0  0  0  0  0  0  0  0  0  0
   -0.3220    0.0353   -1.3277 C   0  0  0  0  0  0  0  0  0  0  0  0
    0.6683   -0.7439   -0.5176 C   0  0  0  0  0  0  0  0  0  0  0  0
    3.9771    1.3309    1.6606 H   0  0  0  0  0  0  0  0  0  0  0  0
    0.4160   -1.0150    1.5931 H   0  0  0  0  0  0  0  0  0  0  0  0
   -1.2509    0.5899    1.4997 H   0  0  0  0  0  0  0  0  0  0  0  0
    0.0610    1.8464    1.3709 H   0  0  0  0  0  0  0  0  0  0  0  0
   -0.9104    2.1873   -0.8844 H   0  0  0  0  0  0  0  0  0  0  0  0
   -2.4303    0.3768   -1.8564 H   0  0  0  0  0  0  0  0  0  0  0  0
   -2.6747   -1.5861   -0.4524 H   0  0  0  0  0  0  0  0  0  0  0  0
    0.0023    0.2990   -2.3726 H   0  0  0  0  0  0  0  0  0  0  0  0
    1.6781   -0.6244   -0.9694 H   0  0  0  0  0  0  0  0  0  0  0  0
    0.4218   -1.8138   -0.5438 H   0  0  0  0  0  0  0  0  0  0  0  0
  1  2  3  0
  2  3  1  0
  3  4  1  0
  4  5  1  0
  5  6  1  0
  6  7  1  0
  6  8  1  0
  8  9  1  0
  9  3  1  0
  8  5  1  0
  1 10  1  0
  3 11  1  0
  4 12  1  0
  4 13  1  0
  5 14  1  0
  6 15  1  0
  7 16  1  0
  8 17  1  0
  9 18  1  0
  9 19  1  0
M  END
