
     RDKit          3D

 17 16  0  0  0  0  0  0  0  0999 V2000
    2.8306    0.4613    0.5843 C   0  0  0  0  0  0  0  0  0  0  0  0
    1.6959    0.1196    0.8435 C   0  0  0  0  0  0  0  0  0  0  0  0
    0.3178   -0.3078    1.1368 C   0  0  0  0  0  0  0  0  0  0  0  0
   -0.5212    0.0426   -0.0640 C   0  0  0  0  0  0  0  0  0  0  0  0
    0.0272   -0.6887   -1.2704 C   0  0  0  0  0  0  0  0  0  0  0  0
   -0.6531    1.4768   -0.3024 C   0  0  0  0  0  0  0  0  0  0  0  0
   -1.6761    1.9622   -0.7429 O   0  0  0  0  0  0  0  0  0  0  0  0
   -1.9000   -0.4981    0.2081 C   0  0  0  0  0  0  0  0  0  0  0  0
   -2.0143   -1.7012    0.0419 O   0  0  0  0  0  0  0  0  0  0  0  0
    3.8274    0.7795    0.3626 H   0  0  0  0  0  0  0  0  0  0  0  0
    0.2480   -1.4032    1.3035 H   0  0  0  0  0  0  0  0  0  0  0  0
   -0.0362    0.1761    2.0670 H   0  0  0  0  0  0  0  0  0  0  0  0
    1.0066   -0.2937   -1.5783 H   0  0  0  0  0  0  0  0  0  0  0  0
    0.1336   -1.7641   -0.9625 H   0  0  0  0  0  0  0  0  0  0  0  0
   -0.7343   -0.6601   -2.0605 H   0  0  0  0  0  0  0  0  0  0  0  0
    0.1615    2.1533   -0.0923 H   0  0  0  0  0  0  0  0  0  0  0  0
   -2.7135    0.1456    0.5256 H   0  0  0  0  0  0  0  0  0  0  0  0
  1  2  3  0
  2  3  1  0
  3  4  1  0
  4  5  1  0
  4  6  1  0
  6  7  2  0
  4  8  1  0
  8  9  2  0
  1 10  1  0
  3 11  1  0
  3 12  1  0
  5 13  1  0
  5 14  1  0
  5 15  1  0
  6 16  1  0
  8 17  1  0
M  END
