
     RDKit          3D

 17 17  0  0  0  0  0  0  0  0999 V2000
    2.8629    0.2600    1.1399 C   0  0  0  0  0  0  0  0  0  0  0  0
    1.8649    0.7941    0.7185 C   0  0  0  0  0  0  0  0  0  0  0  0
    0.6392    1.4441    0.2016 C   0  0  0  0  0  0  0  0  0  0  0  0
   -0.6215    1.1480    0.8941 C   0  0  0  0  0  0  0  0  0  0  0  0
   -0.3126    0.5737   -0.4911 C   0  0  0  0  0  0  0  0  0  0  0  0
   -0.2240   -0.8962   -0.5542 C   0  0  0  0  0  0  0  0  0  0  0  0
   -1.3854   -1.4800   -1.3599 C   0  0  0  0  0  0  0  0  0  0  0  0
    3.7434   -0.2068    1.5258 H   0  0  0  0  0  0  0  0  0  0  0  0
    0.7581    2.4855   -0.1659 H   0  0  0  0  0  0  0  0  0  0  0  0
   -0.5686    0.4891    1.7682 H   0  0  0  0  0  0  0  0  0  0  0  0
   -1.4645    1.8609    0.9266 H   0  0  0  0  0  0  0  0  0  0  0  0
   -0.8699    1.0335   -1.3563 H   0  0  0  0  0  0  0  0  0  0  0  0
    0.7470   -1.2455   -0.9473 H   0  0  0  0  0  0  0  0  0  0  0  0
   -0.3228   -1.3311    0.4595 H   0  0  0  0  0  0  0  0  0  0  0  0
   -2.3366   -1.2737   -0.8763 H   0  0  0  0  0  0  0  0  0  0  0  0
   -1.1663   -2.5764   -1.4456 H   0  0  0  0  0  0  0  0  0  0  0  0
   -1.3431   -1.0791   -2.3836 H   0  0  0  0  0  0  0  0  0  0  0  0
  1  2  3  0
  2  3  1  0
  3  4  1  0
  4  5  1  0
  5  6  1  0
  6  7  1  0
  5  3  1  0
  1  8  1  0
  3  9  1  0
  4 10  1  0
  4 11  1  0
  5 12  1  0
  6 13  1  0
  6 14  1  0
  7 15  1  0
  7 16  1  0
  7 17  1  0
M  END
