
     RDKit          3D

 19 18  0  0  0  0  0  0  0  0999 V2000
   -3.0039    0.0755   -0.6606 C   0  0  0  0  0  0  0  0  0  0  0  0
   -1.8340    0.4017   -0.6457 C   0  0  0  0  0  0  0  0  0  0  0  0
   -0.4242    0.7764   -0.6172 C   0  0  0  0  0  0  0  0  0  0  0  0
   -0.2762    2.0617    0.0182 C   0  0  0  0  0  0  0  0  0  0  0  0
   -0.1422    3.1890    0.6006 C   0  0  0  0  0  0  0  0  0  0  0  0
    0.4266   -0.2527    0.0738 C   0  0  0  0  0  0  0  0  0  0  0  0
   -0.0332   -0.4757    1.4962 C   0  0  0  0  0  0  0  0  0  0  0  0
    0.4418   -1.4682   -0.5889 O   0  0  0  0  0  0  0  0  0  0  0  0
    1.7492   -1.8207   -0.9585 C   0  0  0  0  0  0  0  0  0  0  0  0
   -4.0535   -0.2017   -0.6852 H   0  0  0  0  0  0  0  0  0  0  0  0
   -0.0933    0.8215   -1.7091 H   0  0  0  0  0  0  0  0  0  0  0  0
   -0.0515    4.0947    1.0673 H   0  0  0  0  0  0  0  0  0  0  0  0
    1.4975    0.1194    0.1065 H   0  0  0  0  0  0  0  0  0  0  0  0
    0.5865   -1.2296    1.9841 H   0  0  0  0  0  0  0  0  0  0  0  0
    0.0120    0.5066    2.0511 H   0  0  0  0  0  0  0  0  0  0  0  0
   -1.0921   -0.8326    1.4970 H   0  0  0  0  0  0  0  0  0  0  0  0
    2.2033   -1.0729   -1.6306 H   0  0  0  0  0  0  0  0  0  0  0  0
    1.7549   -2.8250   -1.3828 H   0  0  0  0  0  0  0  0  0  0  0  0
    2.3322   -1.8673   -0.0165 H   0  0  0  0  0  0  0  0  0  0  0  0
  1  2  3  0
  2  3  1  0
  3  4  1  0
  4  5  3  0
  3  6  1  0
  6  7  1  0
  6  8  1  0
  8  9  1  0
  1 10  1  0
  3 11  1  0
  5 12  1  0
  6 13  1  0
  7 14  1  0
  7 15  1  0
  7 16  1  0
  9 17  1  0
  9 18  1  0
  9 19  1  0
M  END
