
     RDKit          3D

 20 19  0  0  0  0  0  0  0  0999 V2000
    2.8687    0.7624    3.1655 C   0  0  0  0  0  0  0  0  0  0  0  0
    2.5336    0.5892    2.0214 C   0  0  0  0  0  0  0  0  0  0  0  0
    2.1397    0.3612    0.6146 C   0  0  0  0  0  0  0  0  0  0  0  0
    0.6505    0.0932    0.6314 C   0  0  0  0  0  0  0  0  0  0  0  0
    0.1735   -0.1368   -0.6574 O   0  0  0  0  0  0  0  0  0  0  0  0
   -1.1709   -0.3847   -0.6925 C   0  0  0  0  0  0  0  0  0  0  0  0
   -1.5221   -1.7154   -1.3115 C   0  0  0  0  0  0  0  0  0  0  0  0
   -1.8929    0.6828   -1.4930 C   0  0  0  0  0  0  0  0  0  0  0  0
    3.1781    0.9322    4.1831 H   0  0  0  0  0  0  0  0  0  0  0  0
    2.7148   -0.5227    0.2668 H   0  0  0  0  0  0  0  0  0  0  0  0
    2.3933    1.2750    0.0328 H   0  0  0  0  0  0  0  0  0  0  0  0
    0.1716    1.0236    1.0378 H   0  0  0  0  0  0  0  0  0  0  0  0
    0.4833   -0.7846    1.2634 H   0  0  0  0  0  0  0  0  0  0  0  0
   -1.5651   -0.3381    0.3635 H   0  0  0  0  0  0  0  0  0  0  0  0
   -1.7902   -2.4189   -0.4704 H   0  0  0  0  0  0  0  0  0  0  0  0
   -0.6704   -2.1838   -1.8358 H   0  0  0  0  0  0  0  0  0  0  0  0
   -2.3742   -1.6292   -2.0163 H   0  0  0  0  0  0  0  0  0  0  0  0
   -1.7835    1.6856   -1.0367 H   0  0  0  0  0  0  0  0  0  0  0  0
   -1.5648    0.6447   -2.5520 H   0  0  0  0  0  0  0  0  0  0  0  0
   -2.9729    0.3601   -1.5147 H   0  0  0  0  0  0  0  0  0  0  0  0
  1  2  3  0
  2  3  1  0
  3  4  1  0
  4  5  1  0
  5  6  1  0
  6  7  1  0
  6  8  1  0
  1  9  1  0
  3 10  1  0
  3 11  1  0
  4 12  1  0
  4 13  1  0
  6 14  1  0
  7 15  1  0
  7 16  1  0
  7 17  1  0
  8 18  1  0
  8 19  1  0
  8 20  1  0
M  END
