
     RDKit          3D

 10  9  0  0  0  0  0  0  0  0999 V2000
   -1.2283   -1.7349    0.3896 C   0  0  0  0  0  0  0  0  0  0  0  0
   -0.2705   -0.9779    0.0308 C   0  0  0  0  0  0  0  0  0  0  0  0
    0.9344   -0.0529   -0.4314 C   0  0  0  0  0  0  0  0  0  0  0  0
    1.7865   -0.0608    0.5463 O   0  0  0  0  0  0  0  0  0  0  0  0
   -0.1163    1.1338   -0.2181 C   0  0  0  0  0  0  0  0  0  0  0  0
   -0.9275    2.0767   -0.0636 C   0  0  0  0  0  0  0  0  0  0  0  0
   -2.0598   -2.4065    0.7153 H   0  0  0  0  0  0  0  0  0  0  0  0
    0.9891   -0.1672   -1.4272 H   0  0  0  0  0  0  0  0  0  0  0  0
    2.5235   -0.6941    0.4017 H   0  0  0  0  0  0  0  0  0  0  0  0
   -1.6310    2.8840    0.0567 H   0  0  0  0  0  0  0  0  0  0  0  0
  1  2  3  0
  2  3  1  0
  3  4  1  0
  3  5  1  0
  5  6  3  0
  1  7  1  0
  3  8  1  0
  4  9  1  0
  6 10  1  0
M  END
