
     RDKit          3D

 17 18  0  0  0  0  0  0  0  0999 V2000
    3.1305    1.5402   -0.5000 C   0  0  0  0  0  0  0  0  0  0  0  0
    2.4160    0.6582   -0.0934 C   0  0  0  0  0  0  0  0  0  0  0  0
    1.5658   -0.4294    0.3983 C   0  0  0  0  0  0  0  0  0  0  0  0
    0.1051   -0.0729    0.3577 C   0  0  0  0  0  0  0  0  0  0  0  0
   -0.5309    0.2672   -0.9310 C   0  0  0  0  0  0  0  0  0  0  0  0
   -1.8166   -0.0157   -0.9041 C   0  0  0  0  0  0  0  0  0  0  0  0
   -2.1656   -0.5762    0.4141 C   0  0  0  0  0  0  0  0  0  0  0  0
   -0.9084   -0.5087    1.2097 C   0  0  0  0  0  0  0  0  0  0  0  0
   -0.3521    0.8249    1.3885 O   0  0  0  0  0  0  0  0  0  0  0  0
    3.7794    2.3162   -0.8725 H   0  0  0  0  0  0  0  0  0  0  0  0
    1.7147   -1.2876   -0.2789 H   0  0  0  0  0  0  0  0  0  0  0  0
    1.8099   -0.6951    1.4495 H   0  0  0  0  0  0  0  0  0  0  0  0
   -0.0188    0.6990   -1.8073 H   0  0  0  0  0  0  0  0  0  0  0  0
   -2.5371    0.1447   -1.7531 H   0  0  0  0  0  0  0  0  0  0  0  0
   -3.0211   -0.0511    0.8907 H   0  0  0  0  0  0  0  0  0  0  0  0
   -2.3961   -1.6555    0.2589 H   0  0  0  0  0  0  0  0  0  0  0  0
   -0.7748   -1.1583    2.1033 H   0  0  0  0  0  0  0  0  0  0  0  0
  1  2  3  0
  2  3  1  0
  3  4  1  0
  4  5  1  0
  5  6  2  0
  6  7  1  0
  7  8  1  0
  8  9  1  0
  8  4  1  0
  9  4  1  0
  1 10  1  0
  3 11  1  0
  3 12  1  0
  5 13  1  0
  6 14  1  0
  7 15  1  0
  7 16  1  0
  8 17  1  0
M  END
