
     RDKit          3D

 23 23  0  0  0  0  0  0  0  0999 V2000
    3.2138   -3.0610    1.6370 C   0  0  0  0  0  0  0  0  0  0  0  0
    2.1385   -2.4964    1.5487 C   0  0  0  0  0  0  0  0  0  0  0  0
    0.8388   -1.8344    1.4244 C   0  0  0  0  0  0  0  0  0  0  0  0
    0.8675   -0.9910    0.1457 C   0  0  0  0  0  0  0  0  0  0  0  0
   -0.4435   -0.2724   -0.0553 C   0  0  0  0  0  0  0  0  0  0  0  0
   -0.4134    0.5513   -1.3056 C   0  0  0  0  0  0  0  0  0  0  0  0
   -0.7267    1.8199   -0.5227 C   0  0  0  0  0  0  0  0  0  0  0  0
   -2.1303    2.3172   -0.7879 C   0  0  0  0  0  0  0  0  0  0  0  0
   -0.5506    1.0243    0.7397 C   0  0  0  0  0  0  0  0  0  0  0  0
    4.1505   -3.5640    1.7012 H   0  0  0  0  0  0  0  0  0  0  0  0
    0.6419   -1.2034    2.3127 H   0  0  0  0  0  0  0  0  0  0  0  0
    0.0001   -2.5457    1.3415 H   0  0  0  0  0  0  0  0  0  0  0  0
    1.7040   -0.2911    0.2195 H   0  0  0  0  0  0  0  0  0  0  0  0
    1.0427   -1.7026   -0.6871 H   0  0  0  0  0  0  0  0  0  0  0  0
   -1.3347   -0.8916    0.0342 H   0  0  0  0  0  0  0  0  0  0  0  0
   -1.2203    0.3297   -2.0516 H   0  0  0  0  0  0  0  0  0  0  0  0
    0.5687    0.5946   -1.8149 H   0  0  0  0  0  0  0  0  0  0  0  0
    0.0532    2.6059   -0.5904 H   0  0  0  0  0  0  0  0  0  0  0  0
   -2.8970    1.7049   -0.3034 H   0  0  0  0  0  0  0  0  0  0  0  0
   -2.2757    2.2894   -1.8878 H   0  0  0  0  0  0  0  0  0  0  0  0
   -2.2071    3.4023   -0.5018 H   0  0  0  0  0  0  0  0  0  0  0  0
   -1.4150    0.9996    1.4293 H   0  0  0  0  0  0  0  0  0  0  0  0
    0.3946    1.2143    1.2791 H   0  0  0  0  0  0  0  0  0  0  0  0
  1  2  3  0
  2  3  1  0
  3  4  1  0
  4  5  1  0
  5  6  1  0
  6  7  1  0
  7  8  1  0
  7  9  1  0
  9  5  1  0
  1 10  1  0
  3 11  1  0
  3 12  1  0
  4 13  1  0
  4 14  1  0
  5 15  1  0
  6 16  1  0
  6 17  1  0
  7 18  1  0
  8 19  1  0
  8 20  1  0
  8 21  1  0
  9 22  1  0
  9 23  1  0
M  END
