
     RDKit          3D

 17 18  0  0  0  0  0  0  0  0999 V2000
    3.3102    0.8466   -1.6819 C   0  0  0  0  0  0  0  0  0  0  0  0
    2.4550    0.5717   -0.8768 C   0  0  0  0  0  0  0  0  0  0  0  0
    1.4283    0.2464    0.1058 C   0  0  0  0  0  0  0  0  0  0  0  0
    1.5116   -1.0944    0.5749 O   0  0  0  0  0  0  0  0  0  0  0  0
    0.1915   -0.8396    0.9330 C   0  0  0  0  0  0  0  0  0  0  0  0
   -0.9911   -0.8294    0.1292 C   0  0  0  0  0  0  0  0  0  0  0  0
   -2.0881    0.2109    0.3333 C   0  0  0  0  0  0  0  0  0  0  0  0
   -2.6113    0.1407    1.6110 O   0  0  0  0  0  0  0  0  0  0  0  0
    0.1718   -0.3332   -0.5663 C   0  0  0  0  0  0  0  0  0  0  0  0
    4.0795    1.1068   -2.3905 H   0  0  0  0  0  0  0  0  0  0  0  0
    1.2392    1.0015    0.8659 H   0  0  0  0  0  0  0  0  0  0  0  0
    0.2026   -0.0044    1.7005 H   0  0  0  0  0  0  0  0  0  0  0  0
   -1.4515   -1.8461   -0.0651 H   0  0  0  0  0  0  0  0  0  0  0  0
   -2.8530    0.0044   -0.4434 H   0  0  0  0  0  0  0  0  0  0  0  0
   -1.6947    1.2438    0.2097 H   0  0  0  0  0  0  0  0  0  0  0  0
   -3.4569    0.6725    1.6005 H   0  0  0  0  0  0  0  0  0  0  0  0
    0.5569   -1.0983   -1.3127 H   0  0  0  0  0  0  0  0  0  0  0  0
  1  2  3  0
  2  3  1  0
  3  4  1  0
  4  5  1  0
  5  6  1  0
  6  7  1  0
  7  8  1  0
  6  9  1  0
  9  3  1  0
  9  5  1  0
  1 10  1  0
  3 11  1  0
  5 12  1  0
  6 13  1  0
  7 14  1  0
  7 15  1  0
  8 16  1  0
  9 17  1  0
M  END
