
     RDKit          3D

 18 17  0  0  0  0  0  0  0  0999 V2000
    3.8502    1.1279   -0.2913 C   0  0  0  0  0  0  0  0  0  0  0  0
    2.6775    0.9665   -0.4664 C   0  0  0  0  0  0  0  0  0  0  0  0
    1.2532    0.7525   -0.6734 C   0  0  0  0  0  0  0  0  0  0  0  0
    0.6269    0.1477    0.3910 O   0  0  0  0  0  0  0  0  0  0  0  0
   -0.7221    0.0047    0.0603 C   0  0  0  0  0  0  0  0  0  0  0  0
   -1.6300    0.7192    1.0229 C   0  0  0  0  0  0  0  0  0  0  0  0
   -1.0928   -1.4840   -0.0136 C   0  0  0  0  0  0  0  0  0  0  0  0
   -0.8784   -2.1239    1.1916 O   0  0  0  0  0  0  0  0  0  0  0  0
    4.8866    1.2660   -0.1185 H   0  0  0  0  0  0  0  0  0  0  0  0
    0.7027    1.7157   -0.8672 H   0  0  0  0  0  0  0  0  0  0  0  0
    1.1401    0.0541   -1.5481 H   0  0  0  0  0  0  0  0  0  0  0  0
   -0.9491    0.4049   -0.9548 H   0  0  0  0  0  0  0  0  0  0  0  0
   -2.6323    0.2526    0.9455 H   0  0  0  0  0  0  0  0  0  0  0  0
   -1.7578    1.7964    0.7740 H   0  0  0  0  0  0  0  0  0  0  0  0
   -1.2965    0.6659    2.0683 H   0  0  0  0  0  0  0  0  0  0  0  0
   -0.4132   -1.9227   -0.7735 H   0  0  0  0  0  0  0  0  0  0  0  0
   -2.1255   -1.5787   -0.3755 H   0  0  0  0  0  0  0  0  0  0  0  0
   -1.6394   -2.7649    1.3194 H   0  0  0  0  0  0  0  0  0  0  0  0
  1  2  3  0
  2  3  1  0
  3  4  1  0
  4  5  1  0
  5  6  1  0
  5  7  1  0
  7  8  1  0
  1  9  1  0
  3 10  1  0
  3 11  1  0
  5 12  1  0
  6 13  1  0
  6 14  1  0
  6 15  1  0
  7 16  1  0
  7 17  1  0
  8 18  1  0
M  END
