
     RDKit          3D

 21 21  0  0  0  0  0  0  0  0999 V2000
   -0.5079    2.5326    1.3857 C   0  0  0  0  0  0  0  0  0  0  0  0
   -0.4109    1.6580    0.5805 C   0  0  0  0  0  0  0  0  0  0  0  0
   -0.2973    0.5721   -0.4231 C   0  0  0  0  0  0  0  0  0  0  0  0
    1.0569   -0.0630   -0.2453 C   0  0  0  0  0  0  0  0  0  0  0  0
    2.1650    0.9394   -0.4417 C   0  0  0  0  0  0  0  0  0  0  0  0
    1.2098   -0.9830   -1.3101 O   0  0  0  0  0  0  0  0  0  0  0  0
   -1.4413   -0.3732   -0.3352 C   0  0  0  0  0  0  0  0  0  0  0  0
   -1.6318   -1.0835    0.9623 C   0  0  0  0  0  0  0  0  0  0  0  0
   -1.2882   -1.8338   -0.3150 C   0  0  0  0  0  0  0  0  0  0  0  0
   -0.6154    3.3296    2.1253 H   0  0  0  0  0  0  0  0  0  0  0  0
   -0.3127    1.0233   -1.4460 H   0  0  0  0  0  0  0  0  0  0  0  0
    1.1165   -0.6253    0.7004 H   0  0  0  0  0  0  0  0  0  0  0  0
    3.0175    0.4509   -0.9540 H   0  0  0  0  0  0  0  0  0  0  0  0
    1.8200    1.8107   -1.0398 H   0  0  0  0  0  0  0  0  0  0  0  0
    2.4908    1.2853    0.5695 H   0  0  0  0  0  0  0  0  0  0  0  0
    1.9768   -1.5562   -1.0508 H   0  0  0  0  0  0  0  0  0  0  0  0
   -2.3832    0.0289   -0.8019 H   0  0  0  0  0  0  0  0  0  0  0  0
   -2.6527   -1.1613    1.3783 H   0  0  0  0  0  0  0  0  0  0  0  0
   -0.8088   -1.1299    1.7142 H   0  0  0  0  0  0  0  0  0  0  0  0
   -2.1516   -2.4357   -0.6917 H   0  0  0  0  0  0  0  0  0  0  0  0
   -0.3517   -2.3858   -0.3617 H   0  0  0  0  0  0  0  0  0  0  0  0
  1  2  3  0
  2  3  1  0
  3  4  1  0
  4  5  1  0
  4  6  1  0
  3  7  1  0
  7  8  1  0
  8  9  1  0
  9  7  1  0
  1 10  1  0
  3 11  1  0
  4 12  1  0
  5 13  1  0
  5 14  1  0
  5 15  1  0
  6 16  1  0
  7 17  1  0
  8 18  1  0
  8 19  1  0
  9 20  1  0
  9 21  1  0
M  END
