
     RDKit          3D

 17 16  0  0  0  0  0  0  0  0999 V2000
    1.3071    1.8694    1.3942 C   0  0  0  0  0  0  0  0  0  0  0  0
    1.1394    0.8672    0.8231 C   0  0  0  0  0  0  0  0  0  0  0  0
    0.9474   -0.4083    0.1141 C   0  0  0  0  0  0  0  0  0  0  0  0
    2.0455   -0.4737   -0.9429 C   0  0  0  0  0  0  0  0  0  0  0  0
   -0.4051   -0.4365   -0.4869 C   0  0  0  0  0  0  0  0  0  0  0  0
   -0.7461   -0.5904   -1.5964 O   0  0  0  0  0  0  0  0  0  0  0  0
   -1.5154   -0.2424    0.5373 C   0  0  0  0  0  0  0  0  0  0  0  0
   -2.8416   -0.2150   -0.0360 C   0  0  0  0  0  0  0  0  0  0  0  0
   -3.3761   -0.4776   -0.9778 O   0  0  0  0  0  0  0  0  0  0  0  0
    1.4742    2.8537    1.9781 H   0  0  0  0  0  0  0  0  0  0  0  0
    1.0790   -1.2697    0.7955 H   0  0  0  0  0  0  0  0  0  0  0  0
    1.8790    0.3429   -1.6792 H   0  0  0  0  0  0  0  0  0  0  0  0
    3.0043   -0.2749   -0.3678 H   0  0  0  0  0  0  0  0  0  0  0  0
    2.1335   -1.4365   -1.4127 H   0  0  0  0  0  0  0  0  0  0  0  0
   -1.3446   -1.0797    1.2848 H   0  0  0  0  0  0  0  0  0  0  0  0
   -1.2224    0.6965    1.0684 H   0  0  0  0  0  0  0  0  0  0  0  0
   -3.5580    0.2748    0.8412 H   0  0  0  0  0  0  0  0  0  0  0  0
  1  2  3  0
  2  3  1  0
  3  4  1  0
  3  5  1  0
  5  6  2  0
  5  7  1  0
  7  8  1  0
  8  9  2  0
  1 10  1  0
  3 11  1  0
  4 12  1  0
  4 13  1  0
  4 14  1  0
  7 15  1  0
  7 16  1  0
  8 17  1  0
M  END
