
     RDKit          3D

 17 18  0  0  0  0  0  0  0  0999 V2000
    2.3532    2.0308    0.3079 C   0  0  0  0  0  0  0  0  0  0  0  0
    1.4934    1.2063    0.5032 C   0  0  0  0  0  0  0  0  0  0  0  0
    0.4369    0.2169    0.7578 C   0  0  0  0  0  0  0  0  0  0  0  0
    0.7905   -1.1283    1.2724 C   0  0  0  0  0  0  0  0  0  0  0  0
    0.3936   -1.0199   -0.1236 C   0  0  0  0  0  0  0  0  0  0  0  0
   -1.0907   -0.8234   -0.3800 C   0  0  0  0  0  0  0  0  0  0  0  0
   -1.8303   -1.6882    0.4427 O   0  0  0  0  0  0  0  0  0  0  0  0
   -0.9238    0.5543    0.2647 C   0  0  0  0  0  0  0  0  0  0  0  0
   -0.9447    1.5195   -0.7520 O   0  0  0  0  0  0  0  0  0  0  0  0
    3.1310    2.7563    0.1443 H   0  0  0  0  0  0  0  0  0  0  0  0
    1.8529   -1.2569    1.5578 H   0  0  0  0  0  0  0  0  0  0  0  0
    0.0920   -1.6225    1.9756 H   0  0  0  0  0  0  0  0  0  0  0  0
    1.0779   -1.0904   -0.9837 H   0  0  0  0  0  0  0  0  0  0  0  0
   -1.3903   -0.8118   -1.4293 H   0  0  0  0  0  0  0  0  0  0  0  0
   -1.8463   -1.3905    1.3784 H   0  0  0  0  0  0  0  0  0  0  0  0
   -1.7112    0.7093    1.0123 H   0  0  0  0  0  0  0  0  0  0  0  0
   -1.8840    1.8385   -0.8122 H   0  0  0  0  0  0  0  0  0  0  0  0
  1  2  3  0
  2  3  1  0
  3  4  1  0
  4  5  1  0
  5  6  1  0
  6  7  1  0
  6  8  1  0
  8  9  1  0
  5  3  1  0
  8  3  1  0
  1 10  1  0
  4 11  1  0
  4 12  1  0
  5 13  1  0
  6 14  1  0
  7 15  1  0
  8 16  1  0
  9 17  1  0
M  END
