
     RDKit          3D

 23 22  0  0  0  0  0  0  0  0999 V2000
   -1.8083    1.8039    2.1211 C   0  0  0  0  0  0  0  0  0  0  0  0
   -1.2202    1.0342    1.1750 C   0  0  0  0  0  0  0  0  0  0  0  0
   -0.5772    0.1711    0.1547 C   0  0  0  0  0  0  0  0  0  0  0  0
   -0.4248    1.0760   -0.9521 C   0  0  0  0  0  0  0  0  0  0  0  0
   -1.9585    1.5435   -1.2041 C   0  0  0  0  0  0  0  0  0  0  0  0
    0.0939   -0.9631    0.6837 C   0  0  0  0  0  0  0  0  0  0  0  0
    1.0775   -1.4311   -0.4383 C   0  0  0  0  0  0  0  0  0  0  0  0
    2.0935   -2.2609    0.2330 C   0  0  0  0  0  0  0  0  0  0  0  0
    1.5140   -0.3016   -1.1800 O   0  0  0  0  0  0  0  0  0  0  0  0
   -2.4122    2.5877    3.0732 H   0  0  0  0  0  0  0  0  0  0  0  0
    0.6313    0.9115    0.6323 H   0  0  0  0  0  0  0  0  0  0  0  0
    0.1001    2.0427   -1.0564 H   0  0  0  0  0  0  0  0  0  0  0  0
   -0.1076    0.5567   -1.8575 H   0  0  0  0  0  0  0  0  0  0  0  0
   -1.9344    2.4973   -1.7592 H   0  0  0  0  0  0  0  0  0  0  0  0
   -2.4426    0.6752   -1.6563 H   0  0  0  0  0  0  0  0  0  0  0  0
   -2.3091    1.6558   -0.1761 H   0  0  0  0  0  0  0  0  0  0  0  0
   -0.5830   -1.8789    0.8994 H   0  0  0  0  0  0  0  0  0  0  0  0
    0.6522   -0.7370    1.6828 H   0  0  0  0  0  0  0  0  0  0  0  0
    0.4228   -2.0956   -1.0345 H   0  0  0  0  0  0  0  0  0  0  0  0
    1.7498   -3.1848    0.8179 H   0  0  0  0  0  0  0  0  0  0  0  0
    2.8897   -2.5501   -0.5051 H   0  0  0  0  0  0  0  0  0  0  0  0
    2.6024   -1.5586    0.9660 H   0  0  0  0  0  0  0  0  0  0  0  0
    1.9508    0.4063   -0.6194 H   0  0  0  0  0  0  0  0  0  0  0  0
  1  2  3  0
  2  3  1  0
  3  4  1  0
  4  5  1  0
  3  6  1  0
  6  7  1  0
  7  8  1  0
  7  9  1  0
  1 10  1  0
  3 11  1  0
  4 12  1  0
  4 13  1  0
  5 14  1  0
  5 15  1  0
  5 16  1  0
  6 17  1  0
  6 18  1  0
  7 19  1  0
  8 20  1  0
  8 21  1  0
  8 22  1  0
  9 23  1  0
M  END
