
     RDKit          3D

 15 15  0  0  0  0  0  0  0  0999 V2000
    1.8143   -2.3169    2.1544 C   0  0  0  0  0  0  0  0  0  0  0  0
    1.0078   -1.4404    1.3076 C   0  0  0  0  0  0  0  0  0  0  0  0
    0.3656   -0.7212    0.6135 C   0  0  0  0  0  0  0  0  0  0  0  0
    0.7430   -0.5178   -0.8303 C   0  0  0  0  0  0  0  0  0  0  0  0
   -0.2307    0.4494   -1.3817 C   0  0  0  0  0  0  0  0  0  0  0  0
   -0.6153    1.3351   -0.1287 C   0  0  0  0  0  0  0  0  0  0  0  0
   -1.8131    2.0018   -0.4428 O   0  0  0  0  0  0  0  0  0  0  0  0
   -0.8091    0.2152    0.7615 C   0  0  0  0  0  0  0  0  0  0  0  0
   -1.7281   -0.0877    1.5833 O   0  0  0  0  0  0  0  0  0  0  0  0
    2.3759   -2.9172    2.7428 H   0  0  0  0  0  0  0  0  0  0  0  0
    1.5376   -1.0205   -1.1370 H   0  0  0  0  0  0  0  0  0  0  0  0
   -1.1734   -0.0869   -1.7080 H   0  0  0  0  0  0  0  0  0  0  0  0
    0.1341    1.1226   -2.1574 H   0  0  0  0  0  0  0  0  0  0  0  0
    0.2187    1.9555    0.1008 H   0  0  0  0  0  0  0  0  0  0  0  0
   -1.8274    2.0289   -1.4781 H   0  0  0  0  0  0  0  0  0  0  0  0
  1  2  3  0
  2  3  1  0
  3  4  2  0
  4  5  1  0
  5  6  1  0
  6  7  1  0
  6  8  1  0
  8  9  2  0
  8  3  1  0
  1 10  1  0
  4 11  1  0
  5 12  1  0
  5 13  1  0
  6 14  1  0
  7 15  1  0
M  END
