
     RDKit          3D

 19 20  0  0  0  0  0  0  0  0999 V2000
    3.5705   -0.7213   -0.6780 C   0  0  0  0  0  0  0  0  0  0  0  0
    2.4167   -0.3676   -0.6924 C   0  0  0  0  0  0  0  0  0  0  0  0
    0.9969    0.0575   -0.6951 C   0  0  0  0  0  0  0  0  0  0  0  0
    0.1750   -1.0312   -0.7393 O   0  0  0  0  0  0  0  0  0  0  0  0
   -0.8147   -0.9126    0.1906 C   0  0  0  0  0  0  0  0  0  0  0  0
   -2.1988   -0.7948   -0.4491 C   0  0  0  0  0  0  0  0  0  0  0  0
   -0.5404    0.2558    1.0700 C   0  0  0  0  0  0  0  0  0  0  0  0
   -0.5770    1.6299    0.5189 C   0  0  0  0  0  0  0  0  0  0  0  0
    0.6747    0.8750    0.5095 C   0  0  0  0  0  0  0  0  0  0  0  0
    4.5956   -1.0190   -0.6646 H   0  0  0  0  0  0  0  0  0  0  0  0
    0.8827    0.6931   -1.5990 H   0  0  0  0  0  0  0  0  0  0  0  0
   -0.8216   -1.8552    0.7999 H   0  0  0  0  0  0  0  0  0  0  0  0
   -2.2221    0.1103   -1.0680 H   0  0  0  0  0  0  0  0  0  0  0  0
   -2.3469   -1.7134   -1.0365 H   0  0  0  0  0  0  0  0  0  0  0  0
   -2.9231   -0.6661    0.3712 H   0  0  0  0  0  0  0  0  0  0  0  0
   -0.6679    0.1249    2.1547 H   0  0  0  0  0  0  0  0  0  0  0  0
   -1.0506    1.8202   -0.4727 H   0  0  0  0  0  0  0  0  0  0  0  0
   -0.6550    2.4599    1.2597 H   0  0  0  0  0  0  0  0  0  0  0  0
    1.5059    1.0547    1.2199 H   0  0  0  0  0  0  0  0  0  0  0  0
  1  2  3  0
  2  3  1  0
  3  4  1  0
  4  5  1  0
  5  6  1  0
  5  7  1  0
  7  8  1  0
  8  9  1  0
  9  3  1  0
  9  7  1  0
  1 10  1  0
  3 11  1  0
  5 12  1  0
  6 13  1  0
  6 14  1  0
  6 15  1  0
  7 16  1  0
  8 17  1  0
  8 18  1  0
  9 19  1  0
M  END
