
     RDKit          3D

 19 20  0  0  0  0  0  0  0  0999 V2000
    1.8561    2.7725   -0.6549 C   0  0  0  0  0  0  0  0  0  0  0  0
    1.7895    1.5673   -0.4518 C   0  0  0  0  0  0  0  0  0  0  0  0
    1.7057    0.1256   -0.2035 C   0  0  0  0  0  0  0  0  0  0  0  0
    1.4237   -0.1826    1.1468 O   0  0  0  0  0  0  0  0  0  0  0  0
    0.0748   -0.4108    0.9786 C   0  0  0  0  0  0  0  0  0  0  0  0
   -0.7797    0.4135    0.1297 C   0  0  0  0  0  0  0  0  0  0  0  0
   -2.2212    0.0068    0.0084 C   0  0  0  0  0  0  0  0  0  0  0  0
    0.3008   -0.3511   -0.5007 C   0  0  0  0  0  0  0  0  0  0  0  0
    0.0817   -1.5734   -1.3232 C   0  0  0  0  0  0  0  0  0  0  0  0
    1.8993    3.8183   -0.8241 H   0  0  0  0  0  0  0  0  0  0  0  0
    2.5210   -0.4473   -0.6423 H   0  0  0  0  0  0  0  0  0  0  0  0
   -0.3253   -1.3323    1.4475 H   0  0  0  0  0  0  0  0  0  0  0  0
   -0.6400    1.5252    0.1359 H   0  0  0  0  0  0  0  0  0  0  0  0
   -2.6761    0.6602   -0.7791 H   0  0  0  0  0  0  0  0  0  0  0  0
   -2.7698    0.1158    0.9781 H   0  0  0  0  0  0  0  0  0  0  0  0
   -2.3166   -1.0345   -0.3481 H   0  0  0  0  0  0  0  0  0  0  0  0
   -0.2786   -2.4088   -0.6619 H   0  0  0  0  0  0  0  0  0  0  0  0
    1.0543   -1.8426   -1.7972 H   0  0  0  0  0  0  0  0  0  0  0  0
   -0.6993   -1.4219   -2.0858 H   0  0  0  0  0  0  0  0  0  0  0  0
  1  2  3  0
  2  3  1  0
  3  4  1  0
  4  5  1  0
  5  6  1  0
  6  7  1  0
  6  8  1  0
  8  9  1  0
  8  3  1  0
  8  5  1  0
  1 10  1  0
  3 11  1  0
  5 12  1  0
  6 13  1  0
  7 14  1  0
  7 15  1  0
  7 16  1  0
  9 17  1  0
  9 18  1  0
  9 19  1  0
M  END
