
     RDKit          3D

 17 16  0  0  0  0  0  0  0  0999 V2000
    3.6074    0.0530    1.4324 C   0  0  0  0  0  0  0  0  0  0  0  0
    2.6313   -0.2044    0.7489 C   0  0  0  0  0  0  0  0  0  0  0  0
    1.4374   -0.4968   -0.0772 C   0  0  0  0  0  0  0  0  0  0  0  0
    0.2059    0.1172    0.5445 C   0  0  0  0  0  0  0  0  0  0  0  0
   -0.9768   -0.1563   -0.2492 C   0  0  0  0  0  0  0  0  0  0  0  0
   -1.9699   -0.3980   -0.9385 C   0  0  0  0  0  0  0  0  0  0  0  0
   -3.1434   -0.7055   -1.7524 C   0  0  0  0  0  0  0  0  0  0  0  0
    0.3252    1.5618    0.7711 C   0  0  0  0  0  0  0  0  0  0  0  0
   -0.0161    2.2953   -0.1612 O   0  0  0  0  0  0  0  0  0  0  0  0
    4.4513    0.2858    2.0228 H   0  0  0  0  0  0  0  0  0  0  0  0
    1.3300   -1.6039   -0.0841 H   0  0  0  0  0  0  0  0  0  0  0  0
    1.6405   -0.1230   -1.1022 H   0  0  0  0  0  0  0  0  0  0  0  0
    0.1137   -0.3505    1.5703 H   0  0  0  0  0  0  0  0  0  0  0  0
   -2.8866   -1.5350   -2.4357 H   0  0  0  0  0  0  0  0  0  0  0  0
   -3.4016    0.1481   -2.4347 H   0  0  0  0  0  0  0  0  0  0  0  0
   -4.0258   -0.9452   -1.1422 H   0  0  0  0  0  0  0  0  0  0  0  0
    0.6775    2.0575    1.6602 H   0  0  0  0  0  0  0  0  0  0  0  0
  1  2  3  0
  2  3  1  0
  3  4  1  0
  4  5  1  0
  5  6  3  0
  6  7  1  0
  4  8  1  0
  8  9  2  0
  1 10  1  0
  3 11  1  0
  3 12  1  0
  4 13  1  0
  7 14  1  0
  7 15  1  0
  7 16  1  0
  8 17  1  0
M  END
