
     RDKit          3D

 17 19  0  0  0  0  0  0  0  0999 V2000
    2.9302    0.5679    0.3258 C   0  0  0  0  0  0  0  0  0  0  0  0
    1.7595    0.4817    0.1472 C   0  0  0  0  0  0  0  0  0  0  0  0
    0.4401    0.3782   -0.0324 C   0  0  0  0  0  0  0  0  0  0  0  0
   -0.3483    0.9998   -1.1566 C   0  0  0  0  0  0  0  0  0  0  0  0
   -1.3779    0.3153   -0.2827 C   0  0  0  0  0  0  0  0  0  0  0  0
   -0.6242    0.9500    0.8724 C   0  0  0  0  0  0  0  0  0  0  0  0
   -0.3943   -0.7975   -0.1594 C   0  0  0  0  0  0  0  0  0  0  0  0
   -0.5384   -1.9966    0.4286 C   0  0  0  0  0  0  0  0  0  0  0  0
   -0.2783   -1.8195   -1.0278 O   0  0  0  0  0  0  0  0  0  0  0  0
    4.0041    0.6465    0.4704 H   0  0  0  0  0  0  0  0  0  0  0  0
   -0.4126    2.0961   -1.1596 H   0  0  0  0  0  0  0  0  0  0  0  0
   -0.1392    0.5259   -2.1131 H   0  0  0  0  0  0  0  0  0  0  0  0
   -2.3643    0.2892   -0.4135 H   0  0  0  0  0  0  0  0  0  0  0  0
   -0.6791    2.0425    0.8736 H   0  0  0  0  0  0  0  0  0  0  0  0
   -0.7390    0.4742    1.8418 H   0  0  0  0  0  0  0  0  0  0  0  0
   -1.5222   -2.5394    0.5215 H   0  0  0  0  0  0  0  0  0  0  0  0
    0.2838   -2.6143    0.8637 H   0  0  0  0  0  0  0  0  0  0  0  0
  1  2  3  0
  2  3  1  0
  3  4  1  0
  4  5  1  0
  5  6  1  0
  5  7  1  0
  7  8  1  0
  8  9  1  0
  6  3  1  0
  9  7  1  0
  7  3  1  0
  1 10  1  0
  4 11  1  0
  4 12  1  0
  5 13  1  0
  6 14  1  0
  6 15  1  0
  8 16  1  0
  8 17  1  0
M  END
