
     RDKit          3D

 15 14  0  0  0  0  0  0  0  0999 V2000
    2.5813    1.3490   -0.0068 C   0  0  0  0  0  0  0  0  0  0  0  0
    1.6014    0.8766    0.5418 C   0  0  0  0  0  0  0  0  0  0  0  0
    0.4312    0.3232    1.1688 C   0  0  0  0  0  0  0  0  0  0  0  0
    0.3952    0.4254    2.4398 O   0  0  0  0  0  0  0  0  0  0  0  0
   -0.6474   -0.3149    0.4033 C   0  0  0  0  0  0  0  0  0  0  0  0
   -0.1680   -1.5110   -0.3919 C   0  0  0  0  0  0  0  0  0  0  0  0
   -1.3459    0.6121   -0.5506 C   0  0  0  0  0  0  0  0  0  0  0  0
    3.4316    1.7570   -0.5031 H   0  0  0  0  0  0  0  0  0  0  0  0
   -1.3890   -0.7226    1.1451 H   0  0  0  0  0  0  0  0  0  0  0  0
    0.5064   -2.1558    0.1841 H   0  0  0  0  0  0  0  0  0  0  0  0
    0.2786   -1.1172   -1.3301 H   0  0  0  0  0  0  0  0  0  0  0  0
   -1.0768   -2.0728   -0.6991 H   0  0  0  0  0  0  0  0  0  0  0  0
   -1.0815    0.4380   -1.6126 H   0  0  0  0  0  0  0  0  0  0  0  0
   -1.0718    1.6645   -0.3194 H   0  0  0  0  0  0  0  0  0  0  0  0
   -2.4455    0.4484   -0.4694 H   0  0  0  0  0  0  0  0  0  0  0  0
  1  2  3  0
  2  3  1  0
  3  4  2  0
  3  5  1  0
  5  6  1  0
  5  7  1  0
  1  8  1  0
  5  9  1  0
  6 10  1  0
  6 11  1  0
  6 12  1  0
  7 13  1  0
  7 14  1  0
  7 15  1  0
M  END
