
     RDKit          3D

 17 17  0  0  0  0  0  0  0  0999 V2000
    3.3681   -0.1285   -1.4825 C   0  0  0  0  0  0  0  0  0  0  0  0
    2.1665    0.1035   -1.0203 C   0  0  0  0  0  0  0  0  0  0  0  0
    0.7655    0.3487   -0.4735 C   0  0  0  0  0  0  0  0  0  0  0  0
    0.2969   -0.9372   -0.2257 C   0  0  0  0  0  0  0  0  0  0  0  0
   -1.0758   -1.2427    0.2579 C   0  0  0  0  0  0  0  0  0  0  0  0
   -1.7133   -0.0830    0.8990 C   0  0  0  0  0  0  0  0  0  0  0  0
   -0.7266    1.0705    1.1357 C   0  0  0  0  0  0  0  0  0  0  0  0
   -0.4685    1.6104    2.0607 O   0  0  0  0  0  0  0  0  0  0  0  0
   -0.0621    1.4346   -0.2581 C   0  0  0  0  0  0  0  0  0  0  0  0
    4.2421   -0.3143   -1.8202 H   0  0  0  0  0  0  0  0  0  0  0  0
    0.9736   -1.7523   -0.3164 H   0  0  0  0  0  0  0  0  0  0  0  0
   -1.5874   -1.5313   -0.7594 H   0  0  0  0  0  0  0  0  0  0  0  0
   -1.0289   -2.1815    0.8533 H   0  0  0  0  0  0  0  0  0  0  0  0
   -2.5907    0.2243    0.3184 H   0  0  0  0  0  0  0  0  0  0  0  0
   -1.9805   -0.4527    1.9617 H   0  0  0  0  0  0  0  0  0  0  0  0
   -0.9430    1.3764   -0.9869 H   0  0  0  0  0  0  0  0  0  0  0  0
    0.3642    2.4551   -0.1436 H   0  0  0  0  0  0  0  0  0  0  0  0
  1  2  3  0
  2  3  1  0
  3  4  2  0
  4  5  1  0
  5  6  1  0
  6  7  1  0
  7  8  2  0
  7  9  1  0
  9  3  1  0
  1 10  1  0
  4 11  1  0
  5 12  1  0
  5 13  1  0
  6 14  1  0
  6 15  1  0
  9 16  1  0
  9 17  1  0
M  END
