
     RDKit          3D

 14 13  0  0  0  0  0  0  0  0999 V2000
    2.9609    0.4340    0.0141 C   0  0  0  0  0  0  0  0  0  0  0  0
    1.8773   -0.1641    0.0811 C   0  0  0  0  0  0  0  0  0  0  0  0
    0.7612   -0.7861    0.1459 C   0  0  0  0  0  0  0  0  0  0  0  0
   -0.6709    0.0379    0.0102 C   0  0  0  0  0  0  0  0  0  0  0  0
   -0.8444    0.7390    0.9228 C   0  0  0  0  0  0  0  0  0  0  0  0
   -1.0837    1.6336    2.0912 C   0  0  0  0  0  0  0  0  0  0  0  0
   -1.4909   -0.4952   -0.6530 C   0  0  0  0  0  0  0  0  0  0  0  0
   -2.5202   -1.1724   -1.5192 C   0  0  0  0  0  0  0  0  0  0  0  0
    4.2701    1.1542   -0.0800 H   0  0  0  0  0  0  0  0  0  0  0  0
    0.7175   -1.6696   -0.6055 H   0  0  0  0  0  0  0  0  0  0  0  0
    0.7131   -1.2661    1.1758 H   0  0  0  0  0  0  0  0  0  0  0  0
   -0.1646    0.9020   -0.9191 H   0  0  0  0  0  0  0  0  0  0  0  0
   -1.2642    2.2968    2.9536 H   0  0  0  0  0  0  0  0  0  0  0  0
   -3.2610   -1.6438   -2.1486 H   0  0  0  0  0  0  0  0  0  0  0  0
  1  2  3  0
  2  3  1  0
  3  4  1  0
  4  5  1  0
  5  6  3  0
  4  7  1  0
  7  8  3  0
  1  9  1  0
  3 10  1  0
  3 11  1  0
  4 12  1  0
  6 13  1  0
  8 14  1  0
M  END
