
     RDKit          3D

 17 18  0  0  0  0  0  0  0  0999 V2000
    2.8901    0.3717   -1.1180 C   0  0  0  0  0  0  0  0  0  0  0  0
    1.8403    0.1934   -0.5554 C   0  0  0  0  0  0  0  0  0  0  0  0
    0.6249    0.0045    0.1126 C   0  0  0  0  0  0  0  0  0  0  0  0
   -0.2096   -1.2310   -0.2679 C   0  0  0  0  0  0  0  0  0  0  0  0
   -1.3196   -0.3701    0.3289 C   0  0  0  0  0  0  0  0  0  0  0  0
   -0.8268   -0.2041    1.7330 C   0  0  0  0  0  0  0  0  0  0  0  0
    0.5455    0.0630    1.4757 O   0  0  0  0  0  0  0  0  0  0  0  0
   -0.5897    0.7990   -0.3447 C   0  0  0  0  0  0  0  0  0  0  0  0
   -0.7746    0.8912   -1.6946 O   0  0  0  0  0  0  0  0  0  0  0  0
    3.8364    0.5164   -1.6165 H   0  0  0  0  0  0  0  0  0  0  0  0
    0.0636   -2.0738    0.3649 H   0  0  0  0  0  0  0  0  0  0  0  0
   -0.2876   -1.4077   -1.3397 H   0  0  0  0  0  0  0  0  0  0  0  0
   -2.3175   -0.5592    0.0914 H   0  0  0  0  0  0  0  0  0  0  0  0
   -1.2938    0.6319    2.2766 H   0  0  0  0  0  0  0  0  0  0  0  0
   -0.8647   -1.1682    2.2549 H   0  0  0  0  0  0  0  0  0  0  0  0
   -0.6768    1.7066    0.2609 H   0  0  0  0  0  0  0  0  0  0  0  0
   -0.6402    1.8363   -1.9621 H   0  0  0  0  0  0  0  0  0  0  0  0
  1  2  3  0
  2  3  1  0
  3  4  1  0
  4  5  1  0
  5  6  1  0
  6  7  1  0
  5  8  1  0
  8  9  1  0
  7  3  1  0
  8  3  1  0
  1 10  1  0
  4 11  1  0
  4 12  1  0
  5 13  1  0
  6 14  1  0
  6 15  1  0
  8 16  1  0
  9 17  1  0
M  END
