
     RDKit          3D

 16 15  0  0  0  0  0  0  0  0999 V2000
   -1.2064    2.5295   -1.1534 C   0  0  0  0  0  0  0  0  0  0  0  0
   -0.8178    1.5045   -0.6727 C   0  0  0  0  0  0  0  0  0  0  0  0
   -0.3249    0.2182   -0.0462 C   0  0  0  0  0  0  0  0  0  0  0  0
    0.6113    0.5632    1.0693 C   0  0  0  0  0  0  0  0  0  0  0  0
    1.1271   -0.6387    1.7370 C   0  0  0  0  0  0  0  0  0  0  0  0
    0.8298   -1.7811    1.4468 O   0  0  0  0  0  0  0  0  0  0  0  0
    0.3590   -0.3921   -1.0641 O   0  0  0  0  0  0  0  0  0  0  0  0
   -0.1746   -1.5391   -1.5771 C   0  0  0  0  0  0  0  0  0  0  0  0
   -1.5507    3.4404   -1.5639 H   0  0  0  0  0  0  0  0  0  0  0  0
   -1.1878   -0.3731    0.2383 H   0  0  0  0  0  0  0  0  0  0  0  0
    0.0249    1.2087    1.7937 H   0  0  0  0  0  0  0  0  0  0  0  0
    1.4325    1.2316    0.7358 H   0  0  0  0  0  0  0  0  0  0  0  0
    1.8420   -0.4395    2.5661 H   0  0  0  0  0  0  0  0  0  0  0  0
   -0.3137   -2.3801   -0.8954 H   0  0  0  0  0  0  0  0  0  0  0  0
   -1.1477   -1.2786   -2.0885 H   0  0  0  0  0  0  0  0  0  0  0  0
    0.4972   -1.8738   -2.4240 H   0  0  0  0  0  0  0  0  0  0  0  0
  1  2  3  0
  2  3  1  0
  3  4  1  0
  4  5  1  0
  5  6  2  0
  3  7  1  0
  7  8  1  0
  1  9  1  0
  3 10  1  0
  4 11  1  0
  4 12  1  0
  5 13  1  0
  8 14  1  0
  8 15  1  0
  8 16  1  0
M  END
