
     RDKit          3D

 17 17  0  0  0  0  0  0  0  0999 V2000
    2.7218    1.2423    1.3722 C   0  0  0  0  0  0  0  0  0  0  0  0
    1.8451    0.4001    1.1972 C   0  0  0  0  0  0  0  0  0  0  0  0
    0.7964   -0.6057    1.0139 C   0  0  0  0  0  0  0  0  0  0  0  0
    1.3351   -1.6534    0.3062 O   0  0  0  0  0  0  0  0  0  0  0  0
   -0.3718    0.0310    0.2871 C   0  0  0  0  0  0  0  0  0  0  0  0
   -1.5472   -0.9148    0.0270 C   0  0  0  0  0  0  0  0  0  0  0  0
   -0.7067   -0.3566   -1.1027 C   0  0  0  0  0  0  0  0  0  0  0  0
   -1.3307    0.7038   -1.9081 C   0  0  0  0  0  0  0  0  0  0  0  0
   -1.8323    1.5902   -2.5604 C   0  0  0  0  0  0  0  0  0  0  0  0
    3.4725    1.9755    1.5067 H   0  0  0  0  0  0  0  0  0  0  0  0
    0.4916   -0.9710    2.0353 H   0  0  0  0  0  0  0  0  0  0  0  0
    2.0610   -1.3300   -0.2713 H   0  0  0  0  0  0  0  0  0  0  0  0
   -0.6445    1.0409    0.6385 H   0  0  0  0  0  0  0  0  0  0  0  0
   -1.4219   -1.9748    0.3113 H   0  0  0  0  0  0  0  0  0  0  0  0
   -2.5674   -0.5204    0.1918 H   0  0  0  0  0  0  0  0  0  0  0  0
   -0.0433   -1.0356   -1.6649 H   0  0  0  0  0  0  0  0  0  0  0  0
   -2.2576    2.3787   -3.1388 H   0  0  0  0  0  0  0  0  0  0  0  0
  1  2  3  0
  2  3  1  0
  3  4  1  0
  3  5  1  0
  5  6  1  0
  6  7  1  0
  7  8  1  0
  8  9  3  0
  7  5  1  0
  1 10  1  0
  3 11  1  0
  4 12  1  0
  5 13  1  0
  6 14  1  0
  6 15  1  0
  7 16  1  0
  9 17  1  0
M  END
