
     RDKit          3D

 17 17  0  0  0  0  0  0  0  0999 V2000
    2.9814   -0.6381   -0.0958 C   0  0  0  0  0  0  0  0  0  0  0  0
    1.8143   -0.2176   -0.3724 C   0  0  0  0  0  0  0  0  0  0  0  0
    0.3900    0.2772   -0.7293 C   0  0  0  0  0  0  0  0  0  0  0  0
    0.0813    0.7164   -1.8799 O   0  0  0  0  0  0  0  0  0  0  0  0
   -0.5650   -0.7587    0.0167 C   0  0  0  0  0  0  0  0  0  0  0  0
   -1.2901   -1.5880   -0.7557 O   0  0  0  0  0  0  0  0  0  0  0  0
   -1.3503    0.5531    0.4048 C   0  0  0  0  0  0  0  0  0  0  0  0
    0.0278    1.1187    0.5730 C   0  0  0  0  0  0  0  0  0  0  0  0
    0.6065    0.4049    1.6730 O   0  0  0  0  0  0  0  0  0  0  0  0
    3.8206   -0.9397    0.1196 H   0  0  0  0  0  0  0  0  0  0  0  0
   -0.5374    0.1713   -2.4785 H   0  0  0  0  0  0  0  0  0  0  0  0
   -0.0965   -1.2023    0.8737 H   0  0  0  0  0  0  0  0  0  0  0  0
   -2.2310   -1.4271   -0.9196 H   0  0  0  0  0  0  0  0  0  0  0  0
   -1.9364    0.9456   -0.4498 H   0  0  0  0  0  0  0  0  0  0  0  0
   -1.8950    0.3577    1.3145 H   0  0  0  0  0  0  0  0  0  0  0  0
    0.3093    2.1085    0.4075 H   0  0  0  0  0  0  0  0  0  0  0  0
   -0.1293    0.1181    2.2982 H   0  0  0  0  0  0  0  0  0  0  0  0
  1  2  3  0
  2  3  1  0
  3  4  1  0
  3  5  1  0
  5  6  1  0
  5  7  1  0
  7  8  1  0
  8  9  1  0
  8  3  1  0
  1 10  1  0
  4 11  1  0
  5 12  1  0
  6 13  1  0
  7 14  1  0
  7 15  1  0
  8 16  1  0
  9 17  1  0
M  END
