
     RDKit          3D

 17 18  0  0  0  0  0  0  0  0999 V2000
    3.1322   -1.5586    0.7573 C   0  0  0  0  0  0  0  0  0  0  0  0
    1.9476   -1.3508    0.6453 C   0  0  0  0  0  0  0  0  0  0  0  0
    0.5089   -1.0948    0.5334 C   0  0  0  0  0  0  0  0  0  0  0  0
    0.2631    0.0685    1.2262 O   0  0  0  0  0  0  0  0  0  0  0  0
    0.2536    1.0762    0.2589 C   0  0  0  0  0  0  0  0  0  0  0  0
   -0.4650    0.3284   -0.8317 C   0  0  0  0  0  0  0  0  0  0  0  0
   -1.2647    0.9103   -1.8617 C   0  0  0  0  0  0  0  0  0  0  0  0
   -1.9975    0.2901   -0.7432 C   0  0  0  0  0  0  0  0  0  0  0  0
    0.1230   -0.8956   -0.7885 O   0  0  0  0  0  0  0  0  0  0  0  0
    4.1907   -1.7267    0.8509 H   0  0  0  0  0  0  0  0  0  0  0  0
   -0.0922   -1.9008    1.0034 H   0  0  0  0  0  0  0  0  0  0  0  0
   -0.3070    1.9708    0.5762 H   0  0  0  0  0  0  0  0  0  0  0  0
    1.2826    1.2729   -0.0695 H   0  0  0  0  0  0  0  0  0  0  0  0
   -1.3478    0.4042   -2.8462 H   0  0  0  0  0  0  0  0  0  0  0  0
   -1.3135    2.0141   -1.9524 H   0  0  0  0  0  0  0  0  0  0  0  0
   -2.4907   -0.6871   -0.9195 H   0  0  0  0  0  0  0  0  0  0  0  0
   -2.4233    0.8787    0.0912 H   0  0  0  0  0  0  0  0  0  0  0  0
  1  2  3  0
  2  3  1  0
  3  4  1  0
  4  5  1  0
  5  6  1  0
  6  7  1  0
  7  8  1  0
  6  9  1  0
  9  3  1  0
  8  6  1  0
  1 10  1  0
  3 11  1  0
  5 12  1  0
  5 13  1  0
  7 14  1  0
  7 15  1  0
  8 16  1  0
  8 17  1  0
M  END
