
     RDKit          3D

 21 22  0  0  0  0  0  0  0  0999 V2000
    2.8593    1.1151    0.0392 C   0  0  0  0  0  0  0  0  0  0  0  0
    1.8605    0.4099    0.0173 C   0  0  0  0  0  0  0  0  0  0  0  0
    0.6766   -0.4542    0.0023 C   0  0  0  0  0  0  0  0  0  0  0  0
   -0.6028    0.2647    0.3085 C   0  0  0  0  0  0  0  0  0  0  0  0
   -1.8979   -0.5339    0.3208 C   0  0  0  0  0  0  0  0  0  0  0  0
   -0.6268    1.5414    1.0417 C   0  0  0  0  0  0  0  0  0  0  0  0
   -0.7218    1.6125   -0.4383 C   0  0  0  0  0  0  0  0  0  0  0  0
    0.8395   -1.9036    0.1667 C   0  0  0  0  0  0  0  0  0  0  0  0
    0.5440   -1.4010   -1.1999 C   0  0  0  0  0  0  0  0  0  0  0  0
    3.7173    1.7349    0.0681 H   0  0  0  0  0  0  0  0  0  0  0  0
   -2.6122   -0.0998    1.0724 H   0  0  0  0  0  0  0  0  0  0  0  0
   -2.3895   -0.4808   -0.6699 H   0  0  0  0  0  0  0  0  0  0  0  0
   -1.7498   -1.5770    0.5869 H   0  0  0  0  0  0  0  0  0  0  0  0
   -1.5554    1.8142    1.5840 H   0  0  0  0  0  0  0  0  0  0  0  0
    0.2851    1.8627    1.5585 H   0  0  0  0  0  0  0  0  0  0  0  0
    0.1537    2.0054   -0.9478 H   0  0  0  0  0  0  0  0  0  0  0  0
   -1.6793    1.8271   -0.9467 H   0  0  0  0  0  0  0  0  0  0  0  0
    1.8924   -2.2645    0.3025 H   0  0  0  0  0  0  0  0  0  0  0  0
    0.1123   -2.5239    0.6975 H   0  0  0  0  0  0  0  0  0  0  0  0
    1.3364   -1.3211   -1.9694 H   0  0  0  0  0  0  0  0  0  0  0  0
   -0.4417   -1.6283   -1.5944 H   0  0  0  0  0  0  0  0  0  0  0  0
  1  2  3  0
  2  3  1  0
  3  4  1  0
  4  5  1  0
  4  6  1  0
  6  7  1  0
  3  8  1  0
  8  9  1  0
  9  3  1  0
  7  4  1  0
  1 10  1  0
  5 11  1  0
  5 12  1  0
  5 13  1  0
  6 14  1  0
  6 15  1  0
  7 16  1  0
  7 17  1  0
  8 18  1  0
  8 19  1  0
  9 20  1  0
  9 21  1  0
M  END
