
     RDKit          3D

 16 16  0  0  0  0  0  0  0  0999 V2000
    1.2899   -0.2190    2.7685 C   0  0  0  0  0  0  0  0  0  0  0  0
    0.9744    0.1006    1.6534 C   0  0  0  0  0  0  0  0  0  0  0  0
    0.5928    0.4731    0.2656 C   0  0  0  0  0  0  0  0  0  0  0  0
    1.3768    1.4907   -0.2119 O   0  0  0  0  0  0  0  0  0  0  0  0
   -0.9014    0.6668    0.1726 C   0  0  0  0  0  0  0  0  0  0  0  0
   -1.0370   -0.7314   -0.4284 C   0  0  0  0  0  0  0  0  0  0  0  0
   -1.7666   -0.6784   -1.6023 O   0  0  0  0  0  0  0  0  0  0  0  0
    0.4552   -0.7149   -0.6594 C   0  0  0  0  0  0  0  0  0  0  0  0
    1.5669   -0.4867    3.7683 H   0  0  0  0  0  0  0  0  0  0  0  0
    0.8650    2.2284   -0.6588 H   0  0  0  0  0  0  0  0  0  0  0  0
   -1.4031    0.6892    1.1557 H   0  0  0  0  0  0  0  0  0  0  0  0
   -1.2531    1.4863   -0.4636 H   0  0  0  0  0  0  0  0  0  0  0  0
   -1.3169   -1.5157    0.2842 H   0  0  0  0  0  0  0  0  0  0  0  0
   -1.1489   -0.6909   -2.3842 H   0  0  0  0  0  0  0  0  0  0  0  0
    1.0050   -1.5851   -0.2296 H   0  0  0  0  0  0  0  0  0  0  0  0
    0.7011   -0.5130   -1.7066 H   0  0  0  0  0  0  0  0  0  0  0  0
  1  2  3  0
  2  3  1  0
  3  4  1  0
  3  5  1  0
  5  6  1  0
  6  7  1  0
  6  8  1  0
  8  3  1  0
  1  9  1  0
  4 10  1  0
  5 11  1  0
  5 12  1  0
  6 13  1  0
  7 14  1  0
  8 15  1  0
  8 16  1  0
M  END
