
     RDKit          3D

 21 21  0  0  0  0  0  0  0  0999 V2000
   -2.2803   -1.3973    1.0832 C   0  0  0  0  0  0  0  0  0  0  0  0
   -1.5361   -0.6251    0.5327 C   0  0  0  0  0  0  0  0  0  0  0  0
   -0.6211    0.3241   -0.1154 C   0  0  0  0  0  0  0  0  0  0  0  0
   -1.4387    1.2533   -0.9917 C   0  0  0  0  0  0  0  0  0  0  0  0
    0.2651   -0.4844   -1.0363 C   0  0  0  0  0  0  0  0  0  0  0  0
    1.2823   -1.1656   -0.1460 C   0  0  0  0  0  0  0  0  0  0  0  0
    2.1157   -0.1121    0.4976 C   0  0  0  0  0  0  0  0  0  0  0  0
    1.4851    1.0331    0.8408 O   0  0  0  0  0  0  0  0  0  0  0  0
    0.1429    1.0446    0.9456 C   0  0  0  0  0  0  0  0  0  0  0  0
   -2.9604   -2.0802    1.5663 H   0  0  0  0  0  0  0  0  0  0  0  0
   -1.6884    2.1927   -0.4576 H   0  0  0  0  0  0  0  0  0  0  0  0
   -0.8571    1.4662   -1.9345 H   0  0  0  0  0  0  0  0  0  0  0  0
   -2.3974    0.7489   -1.2717 H   0  0  0  0  0  0  0  0  0  0  0  0
    0.8280    0.2410   -1.6589 H   0  0  0  0  0  0  0  0  0  0  0  0
   -0.3258   -1.1987   -1.6158 H   0  0  0  0  0  0  0  0  0  0  0  0
    0.8065   -1.8640    0.5706 H   0  0  0  0  0  0  0  0  0  0  0  0
    1.9368   -1.7864   -0.7912 H   0  0  0  0  0  0  0  0  0  0  0  0
    2.9367    0.1549   -0.2316 H   0  0  0  0  0  0  0  0  0  0  0  0
    2.6725   -0.6074    1.3468 H   0  0  0  0  0  0  0  0  0  0  0  0
   -0.1830    0.7349    1.9812 H   0  0  0  0  0  0  0  0  0  0  0  0
   -0.1832    2.1275    0.8858 H   0  0  0  0  0  0  0  0  0  0  0  0
  1  2  3  0
  2  3  1  0
  3  4  1  0
  3  5  1  0
  5  6  1  0
  6  7  1  0
  7  8  1  0
  8  9  1  0
  9  3  1  0
  1 10  1  0
  4 11  1  0
  4 12  1  0
  4 13  1  0
  5 14  1  0
  5 15  1  0
  6 16  1  0
  6 17  1  0
  7 18  1  0
  7 19  1  0
  9 20  1  0
  9 21  1  0
M  END
