
     RDKit          3D

 17 19  0  0  0  0  0  0  0  0999 V2000
    3.2820    0.8305    0.6287 C   0  0  0  0  0  0  0  0  0  0  0  0
    2.1368    0.4050    0.4878 C   0  0  0  0  0  0  0  0  0  0  0  0
    0.8076   -0.1018    0.3459 C   0  0  0  0  0  0  0  0  0  0  0  0
    0.0081   -0.3447    1.5730 C   0  0  0  0  0  0  0  0  0  0  0  0
   -0.3652    0.7217    0.6276 C   0  0  0  0  0  0  0  0  0  0  0  0
   -1.2687    0.4665   -0.5326 C   0  0  0  0  0  0  0  0  0  0  0  0
   -1.8306   -0.8842   -0.7867 C   0  0  0  0  0  0  0  0  0  0  0  0
   -0.5303   -0.4721   -1.3983 C   0  0  0  0  0  0  0  0  0  0  0  0
    0.6145   -0.9056   -0.7686 O   0  0  0  0  0  0  0  0  0  0  0  0
    4.2715    1.1832    0.7612 H   0  0  0  0  0  0  0  0  0  0  0  0
   -0.5970   -1.2752    1.6741 H   0  0  0  0  0  0  0  0  0  0  0  0
    0.4293   -0.0197    2.5396 H   0  0  0  0  0  0  0  0  0  0  0  0
   -0.1694    1.7932    0.8734 H   0  0  0  0  0  0  0  0  0  0  0  0
   -1.7905    1.3431   -0.9567 H   0  0  0  0  0  0  0  0  0  0  0  0
   -1.8176   -1.6575    0.0091 H   0  0  0  0  0  0  0  0  0  0  0  0
   -2.7046   -0.9361   -1.4384 H   0  0  0  0  0  0  0  0  0  0  0  0
   -0.4758   -0.1462   -2.4683 H   0  0  0  0  0  0  0  0  0  0  0  0
  1  2  3  0
  2  3  1  0
  3  4  1  0
  4  5  1  0
  5  6  1  0
  6  7  1  0
  7  8  1  0
  8  9  1  0
  5  3  1  0
  8  6  1  0
  9  3  1  0
  1 10  1  0
  4 11  1  0
  4 12  1  0
  5 13  1  0
  6 14  1  0
  7 15  1  0
  7 16  1  0
  8 17  1  0
M  END
