
     RDKit          3D

 19 19  0  0  0  0  0  0  0  0999 V2000
    0.1659    1.9458   -2.3457 C   0  0  0  0  0  0  0  0  0  0  0  0
    0.3901    1.1133   -1.5502 C   0  0  0  0  0  0  0  0  0  0  0  0
    0.6754    0.0555   -0.5035 C   0  0  0  0  0  0  0  0  0  0  0  0
    0.4077    0.6503    0.8414 C   0  0  0  0  0  0  0  0  0  0  0  0
    0.7279   -0.3123    1.9505 C   0  0  0  0  0  0  0  0  0  0  0  0
    0.4538    0.3057    3.1935 O   0  0  0  0  0  0  0  0  0  0  0  0
   -0.1551   -1.1318   -0.8735 C   0  0  0  0  0  0  0  0  0  0  0  0
   -1.6037   -1.0873   -0.9805 C   0  0  0  0  0  0  0  0  0  0  0  0
   -1.0667   -1.5756    0.2079 O   0  0  0  0  0  0  0  0  0  0  0  0
   -0.0224    2.7090   -3.0825 H   0  0  0  0  0  0  0  0  0  0  0  0
    1.7481   -0.2058   -0.5711 H   0  0  0  0  0  0  0  0  0  0  0  0
   -0.6721    0.9726    0.9473 H   0  0  0  0  0  0  0  0  0  0  0  0
    1.0665    1.5582    0.9713 H   0  0  0  0  0  0  0  0  0  0  0  0
    1.8567   -0.4699    1.9901 H   0  0  0  0  0  0  0  0  0  0  0  0
    0.2981   -1.2967    1.8890 H   0  0  0  0  0  0  0  0  0  0  0  0
   -0.4524    0.7193    3.0720 H   0  0  0  0  0  0  0  0  0  0  0  0
    0.3521   -2.0398   -1.2598 H   0  0  0  0  0  0  0  0  0  0  0  0
   -2.0857   -0.0645   -0.9593 H   0  0  0  0  0  0  0  0  0  0  0  0
   -2.0841   -1.8460   -1.6357 H   0  0  0  0  0  0  0  0  0  0  0  0
  1  2  3  0
  2  3  1  0
  3  4  1  0
  4  5  1  0
  5  6  1  0
  3  7  1  0
  7  8  1  0
  8  9  1  0
  9  7  1  0
  1 10  1  0
  3 11  1  0
  4 12  1  0
  4 13  1  0
  5 14  1  0
  5 15  1  0
  6 16  1  0
  7 17  1  0
  8 18  1  0
  8 19  1  0
M  END
