
     RDKit          3D

 21 21  0  0  0  0  0  0  0  0999 V2000
    3.0712   -0.1210    1.1140 C   0  0  0  0  0  0  0  0  0  0  0  0
    2.3367   -0.1852    0.1767 C   0  0  0  0  0  0  0  0  0  0  0  0
    1.4523   -0.2842   -0.9748 C   0  0  0  0  0  0  0  0  0  0  0  0
    0.0386    0.0101   -0.6014 C   0  0  0  0  0  0  0  0  0  0  0  0
   -0.4397   -0.9801    0.4530 C   0  0  0  0  0  0  0  0  0  0  0  0
   -1.5998   -1.7753   -0.0581 C   0  0  0  0  0  0  0  0  0  0  0  0
   -0.7575    0.0821    1.2937 O   0  0  0  0  0  0  0  0  0  0  0  0
   -0.2059    1.0522    0.4293 C   0  0  0  0  0  0  0  0  0  0  0  0
   -1.2422    2.0814    0.0293 C   0  0  0  0  0  0  0  0  0  0  0  0
    3.7124   -0.0469    1.9302 H   0  0  0  0  0  0  0  0  0  0  0  0
    1.4904   -1.3374   -1.3416 H   0  0  0  0  0  0  0  0  0  0  0  0
    1.8229    0.3660   -1.7986 H   0  0  0  0  0  0  0  0  0  0  0  0
   -0.6266    0.0771   -1.4876 H   0  0  0  0  0  0  0  0  0  0  0  0
    0.3626   -1.6451    0.8513 H   0  0  0  0  0  0  0  0  0  0  0  0
   -1.5743   -2.8144    0.3440 H   0  0  0  0  0  0  0  0  0  0  0  0
   -1.5160   -1.8636   -1.1734 H   0  0  0  0  0  0  0  0  0  0  0  0
   -2.5400   -1.2433    0.1839 H   0  0  0  0  0  0  0  0  0  0  0  0
    0.7276    1.5131    0.7967 H   0  0  0  0  0  0  0  0  0  0  0  0
   -1.1166    2.4122   -1.0335 H   0  0  0  0  0  0  0  0  0  0  0  0
   -2.2810    1.7070    0.1947 H   0  0  0  0  0  0  0  0  0  0  0  0
   -1.1150    2.9954    0.6724 H   0  0  0  0  0  0  0  0  0  0  0  0
  1  2  3  0
  2  3  1  0
  3  4  1  0
  4  5  1  0
  5  6  1  0
  5  7  1  0
  7  8  1  0
  8  9  1  0
  8  4  1  0
  1 10  1  0
  3 11  1  0
  3 12  1  0
  4 13  1  0
  5 14  1  0
  6 15  1  0
  6 16  1  0
  6 17  1  0
  8 18  1  0
  9 19  1  0
  9 20  1  0
  9 21  1  0
M  END
