
     RDKit          3D

 17 16  0  0  0  0  0  0  0  0999 V2000
    0.3362    0.9957   -2.3978 C   0  0  0  0  0  0  0  0  0  0  0  0
   -0.2188    0.5420   -1.4707 C   0  0  0  0  0  0  0  0  0  0  0  0
   -0.8621    0.0082   -0.4272 C   0  0  0  0  0  0  0  0  0  0  0  0
   -1.9929    0.4606    0.0662 O   0  0  0  0  0  0  0  0  0  0  0  0
   -2.7452   -0.7728    0.4677 C   0  0  0  0  0  0  0  0  0  0  0  0
    0.3685    0.4206    0.6304 C   0  0  0  0  0  0  0  0  0  0  0  0
    0.2813    1.1142    1.5457 O   0  0  0  0  0  0  0  0  0  0  0  0
    1.6148   -0.2051    0.2881 O   0  0  0  0  0  0  0  0  0  0  0  0
    2.6949   -0.0131    1.1954 C   0  0  0  0  0  0  0  0  0  0  0  0
    0.9966    1.5337   -3.5349 H   0  0  0  0  0  0  0  0  0  0  0  0
   -0.7856   -1.1485   -0.4093 H   0  0  0  0  0  0  0  0  0  0  0  0
   -2.8096   -1.3393   -0.5324 H   0  0  0  0  0  0  0  0  0  0  0  0
   -2.0850   -1.2952    1.1707 H   0  0  0  0  0  0  0  0  0  0  0  0
   -3.6822   -0.4699    0.9078 H   0  0  0  0  0  0  0  0  0  0  0  0
    2.5023    0.9797    1.7453 H   0  0  0  0  0  0  0  0  0  0  0  0
    3.7209    0.0877    0.7599 H   0  0  0  0  0  0  0  0  0  0  0  0
    2.6659   -0.8985    1.8795 H   0  0  0  0  0  0  0  0  0  0  0  0
  1  2  3  0
  2  3  1  0
  3  4  1  0
  4  5  1  0
  3  6  1  0
  6  7  2  0
  6  8  1  0
  8  9  1  0
  1 10  1  0
  3 11  1  0
  5 12  1  0
  5 13  1  0
  5 14  1  0
  9 15  1  0
  9 16  1  0
  9 17  1  0
M  END
