
     RDKit          3D

 13 12  0  0  0  0  0  0  0  0999 V2000
   -2.6625   -0.1996   -2.0782 C   0  0  0  0  0  0  0  0  0  0  0  0
   -1.8130   -0.8002   -1.5085 C   0  0  0  0  0  0  0  0  0  0  0  0
   -0.8873   -1.4377   -0.8795 C   0  0  0  0  0  0  0  0  0  0  0  0
   -0.0261   -0.6708   -0.0870 C   0  0  0  0  0  0  0  0  0  0  0  0
    0.7877    0.0532    0.6738 C   0  0  0  0  0  0  0  0  0  0  0  0
    1.6723    0.8574    1.5040 C   0  0  0  0  0  0  0  0  0  0  0  0
    1.6513    2.1955    1.2836 O   0  0  0  0  0  0  0  0  0  0  0  0
   -3.6319    0.4964   -2.7537 H   0  0  0  0  0  0  0  0  0  0  0  0
   -0.2734   -2.1304   -1.5327 H   0  0  0  0  0  0  0  0  0  0  0  0
   -1.4159   -2.2438   -0.1270 H   0  0  0  0  0  0  0  0  0  0  0  0
    2.7024    0.4431    1.4389 H   0  0  0  0  0  0  0  0  0  0  0  0
    1.3828    0.7481    2.6153 H   0  0  0  0  0  0  0  0  0  0  0  0
    2.5137    2.6889    1.4296 H   0  0  0  0  0  0  0  0  0  0  0  0
  1  2  3  0
  2  3  1  0
  3  4  1  0
  4  5  3  0
  5  6  1  0
  6  7  1  0
  1  8  1  0
  3  9  1  0
  3 10  1  0
  6 11  1  0
  6 12  1  0
  7 13  1  0
M  END
