
     RDKit          3D

 23 23  0  0  0  0  0  0  0  0999 V2000
    3.4153   -2.1819   -0.2126 C   0  0  0  0  0  0  0  0  0  0  0  0
    2.2274   -1.9640   -0.1469 C   0  0  0  0  0  0  0  0  0  0  0  0
    0.7810   -1.7107   -0.0899 C   0  0  0  0  0  0  0  0  0  0  0  0
    0.4622   -0.6897    1.0124 C   0  0  0  0  0  0  0  0  0  0  0  0
    0.3323    0.3408   -0.0423 C   0  0  0  0  0  0  0  0  0  0  0  0
   -0.8667    1.2260   -0.0581 C   0  0  0  0  0  0  0  0  0  0  0  0
   -2.1740    0.5300   -0.1978 C   0  0  0  0  0  0  0  0  0  0  0  0
   -0.8527    2.1259    1.1662 C   0  0  0  0  0  0  0  0  0  0  0  0
    0.3310   -0.6997   -1.1407 C   0  0  0  0  0  0  0  0  0  0  0  0
    4.4558   -2.3913   -0.2684 H   0  0  0  0  0  0  0  0  0  0  0  0
    0.1685   -2.6183   -0.0615 H   0  0  0  0  0  0  0  0  0  0  0  0
   -0.4420   -1.0194    1.5420 H   0  0  0  0  0  0  0  0  0  0  0  0
    1.2877   -0.5602    1.7430 H   0  0  0  0  0  0  0  0  0  0  0  0
    1.2599    0.9457   -0.1194 H   0  0  0  0  0  0  0  0  0  0  0  0
   -0.7577    1.9036   -0.9334 H   0  0  0  0  0  0  0  0  0  0  0  0
   -2.3229   -0.3172    0.4910 H   0  0  0  0  0  0  0  0  0  0  0  0
   -2.9775    1.2715    0.0617 H   0  0  0  0  0  0  0  0  0  0  0  0
   -2.3303    0.2160   -1.2465 H   0  0  0  0  0  0  0  0  0  0  0  0
    0.0816    2.7555    1.1119 H   0  0  0  0  0  0  0  0  0  0  0  0
   -1.7302    2.8044    1.1827 H   0  0  0  0  0  0  0  0  0  0  0  0
   -0.8267    1.5042    2.0737 H   0  0  0  0  0  0  0  0  0  0  0  0
   -0.6426   -0.9058   -1.5987 H   0  0  0  0  0  0  0  0  0  0  0  0
    1.1207   -0.5654   -1.9085 H   0  0  0  0  0  0  0  0  0  0  0  0
  1  2  3  0
  2  3  1  0
  3  4  1  0
  4  5  1  0
  5  6  1  0
  6  7  1  0
  6  8  1  0
  5  9  1  0
  9  3  1  0
  1 10  1  0
  3 11  1  0
  4 12  1  0
  4 13  1  0
  5 14  1  0
  6 15  1  0
  7 16  1  0
  7 17  1  0
  7 18  1  0
  8 19  1  0
  8 20  1  0
  8 21  1  0
  9 22  1  0
  9 23  1  0
M  END
