
     RDKit          3D

 15 15  0  0  0  0  0  0  0  0999 V2000
    3.0706    0.0330    1.4630 C   0  0  0  0  0  0  0  0  0  0  0  0
    1.9313   -0.0134    1.0164 C   0  0  0  0  0  0  0  0  0  0  0  0
    0.5926   -0.0460    0.5046 C   0  0  0  0  0  0  0  0  0  0  0  0
   -0.4780    0.4508    1.1019 C   0  0  0  0  0  0  0  0  0  0  0  0
   -1.6837    0.2247    0.2624 C   0  0  0  0  0  0  0  0  0  0  0  0
   -1.0672    0.1139   -1.1121 C   0  0  0  0  0  0  0  0  0  0  0  0
    0.2156   -0.6569   -0.7999 C   0  0  0  0  0  0  0  0  0  0  0  0
    4.0558    0.0907    1.8429 H   0  0  0  0  0  0  0  0  0  0  0  0
   -0.5073    0.9555    2.0635 H   0  0  0  0  0  0  0  0  0  0  0  0
   -2.1523   -0.7247    0.6007 H   0  0  0  0  0  0  0  0  0  0  0  0
   -2.3975    1.0824    0.3270 H   0  0  0  0  0  0  0  0  0  0  0  0
   -0.7648    1.1248   -1.4187 H   0  0  0  0  0  0  0  0  0  0  0  0
   -1.7043   -0.4114   -1.8335 H   0  0  0  0  0  0  0  0  0  0  0  0
    0.9595   -0.5077   -1.5818 H   0  0  0  0  0  0  0  0  0  0  0  0
   -0.0703   -1.7156   -0.7131 H   0  0  0  0  0  0  0  0  0  0  0  0
  1  2  3  0
  2  3  1  0
  3  4  2  0
  4  5  1  0
  5  6  1  0
  6  7  1  0
  7  3  1  0
  1  8  1  0
  4  9  1  0
  5 10  1  0
  5 11  1  0
  6 12  1  0
  6 13  1  0
  7 14  1  0
  7 15  1  0
M  END
