
     RDKit          3D

 16 16  0  0  0  0  0  0  0  0999 V2000
   -1.0788    2.0156   -1.1434 C   0  0  0  0  0  0  0  0  0  0  0  0
   -0.8905    0.8931   -0.7277 C   0  0  0  0  0  0  0  0  0  0  0  0
   -0.6424   -0.4607   -0.2381 C   0  0  0  0  0  0  0  0  0  0  0  0
    0.7611   -0.9950   -0.2913 C   0  0  0  0  0  0  0  0  0  0  0  0
    1.5800   -0.5351    0.7330 O   0  0  0  0  0  0  0  0  0  0  0  0
    1.7424    0.8252    0.7743 C   0  0  0  0  0  0  0  0  0  0  0  0
   -1.8023   -1.3583   -0.1702 C   0  0  0  0  0  0  0  0  0  0  0  0
   -1.3179   -0.8190    1.0028 O   0  0  0  0  0  0  0  0  0  0  0  0
   -1.2254    3.0000   -1.5099 H   0  0  0  0  0  0  0  0  0  0  0  0
    1.2293   -0.6926   -1.2497 H   0  0  0  0  0  0  0  0  0  0  0  0
    0.7626   -2.1077   -0.2164 H   0  0  0  0  0  0  0  0  0  0  0  0
    2.4199    1.0467    1.6366 H   0  0  0  0  0  0  0  0  0  0  0  0
    0.7826    1.3175    1.0209 H   0  0  0  0  0  0  0  0  0  0  0  0
    2.1659    1.2820   -0.1125 H   0  0  0  0  0  0  0  0  0  0  0  0
   -2.7782   -0.9569   -0.4990 H   0  0  0  0  0  0  0  0  0  0  0  0
   -1.7083   -2.4549   -0.3572 H   0  0  0  0  0  0  0  0  0  0  0  0
  1  2  3  0
  2  3  1  0
  3  4  1  0
  4  5  1  0
  5  6  1  0
  3  7  1  0
  7  8  1  0
  8  3  1  0
  1  9  1  0
  4 10  1  0
  4 11  1  0
  6 12  1  0
  6 13  1  0
  6 14  1  0
  7 15  1  0
  7 16  1  0
M  END
