
     RDKit          3D

 17 18  0  0  0  0  0  0  0  0999 V2000
    2.9858   -0.3436    0.3877 C   0  0  0  0  0  0  0  0  0  0  0  0
    1.8176   -0.1721    0.1353 C   0  0  0  0  0  0  0  0  0  0  0  0
    0.3924    0.0246   -0.1508 C   0  0  0  0  0  0  0  0  0  0  0  0
   -0.3909   -1.2079   -0.4388 C   0  0  0  0  0  0  0  0  0  0  0  0
   -1.6521   -0.9856    0.3070 C   0  0  0  0  0  0  0  0  0  0  0  0
   -1.6222    0.0995    1.0606 C   0  0  0  0  0  0  0  0  0  0  0  0
   -0.3069    0.7776    0.9264 C   0  0  0  0  0  0  0  0  0  0  0  0
   -0.4440    1.9105    0.1250 O   0  0  0  0  0  0  0  0  0  0  0  0
    0.0896    1.2270   -0.9868 C   0  0  0  0  0  0  0  0  0  0  0  0
    4.0235   -0.4773    0.6136 H   0  0  0  0  0  0  0  0  0  0  0  0
    0.0847   -2.1157   -0.0701 H   0  0  0  0  0  0  0  0  0  0  0  0
   -0.6228   -1.3219   -1.5321 H   0  0  0  0  0  0  0  0  0  0  0  0
   -2.5492   -1.6223    0.2753 H   0  0  0  0  0  0  0  0  0  0  0  0
   -2.4514    0.4583    1.7013 H   0  0  0  0  0  0  0  0  0  0  0  0
    0.2501    0.9344    1.8661 H   0  0  0  0  0  0  0  0  0  0  0  0
    1.0263    1.7374   -1.2822 H   0  0  0  0  0  0  0  0  0  0  0  0
   -0.6305    1.0771   -1.8143 H   0  0  0  0  0  0  0  0  0  0  0  0
  1  2  3  0
  2  3  1  0
  3  4  1  0
  4  5  1  0
  5  6  2  0
  6  7  1  0
  7  8  1  0
  8  9  1  0
  7  3  1  0
  9  3  1  0
  1 10  1  0
  4 11  1  0
  4 12  1  0
  5 13  1  0
  6 14  1  0
  7 15  1  0
  9 16  1  0
  9 17  1  0
M  END
