
     RDKit          3D

 17 18  0  0  0  0  0  0  0  0999 V2000
    3.2114   -0.4035   -0.7979 C   0  0  0  0  0  0  0  0  0  0  0  0
    2.0967   -0.1441   -0.4263 C   0  0  0  0  0  0  0  0  0  0  0  0
    0.7375    0.1758    0.0123 C   0  0  0  0  0  0  0  0  0  0  0  0
    0.2669   -0.2363    1.3598 C   0  0  0  0  0  0  0  0  0  0  0  0
   -0.2137   -0.9289    0.1517 C   0  0  0  0  0  0  0  0  0  0  0  0
   -1.5665   -0.7300   -0.4164 C   0  0  0  0  0  0  0  0  0  0  0  0
   -1.8578    0.5326   -0.8471 O   0  0  0  0  0  0  0  0  0  0  0  0
   -1.1078    1.5351   -0.2926 C   0  0  0  0  0  0  0  0  0  0  0  0
    0.2474    1.3573   -0.4788 O   0  0  0  0  0  0  0  0  0  0  0  0
    4.1700   -0.6299   -1.1245 H   0  0  0  0  0  0  0  0  0  0  0  0
    1.0486   -0.7209    1.9928 H   0  0  0  0  0  0  0  0  0  0  0  0
   -0.3973    0.4212    1.9647 H   0  0  0  0  0  0  0  0  0  0  0  0
    0.2095   -1.9677    0.0123 H   0  0  0  0  0  0  0  0  0  0  0  0
   -2.3923   -1.0610    0.2798 H   0  0  0  0  0  0  0  0  0  0  0  0
   -1.6806   -1.4149   -1.3065 H   0  0  0  0  0  0  0  0  0  0  0  0
   -1.3946    1.7311    0.7602 H   0  0  0  0  0  0  0  0  0  0  0  0
   -1.3775    2.4839   -0.8434 H   0  0  0  0  0  0  0  0  0  0  0  0
  1  2  3  0
  2  3  1  0
  3  4  1  0
  4  5  1  0
  5  6  1  0
  6  7  1  0
  7  8  1  0
  8  9  1  0
  5  3  1  0
  9  3  1  0
  1 10  1  0
  4 11  1  0
  4 12  1  0
  5 13  1  0
  6 14  1  0
  6 15  1  0
  8 16  1  0
  8 17  1  0
M  END
