
     RDKit          3D

 15 16  0  0  0  0  0  0  0  0999 V2000
    2.9250    0.3097    0.7133 C   0  0  0  0  0  0  0  0  0  0  0  0
    1.7384    0.1144    0.7597 C   0  0  0  0  0  0  0  0  0  0  0  0
    0.3248   -0.1398    0.8277 C   0  0  0  0  0  0  0  0  0  0  0  0
   -0.2741   -0.7420   -0.4554 C   0  0  0  0  0  0  0  0  0  0  0  0
   -1.7218   -0.7661   -0.0724 C   0  0  0  0  0  0  0  0  0  0  0  0
   -1.8161    0.5000    0.5629 O   0  0  0  0  0  0  0  0  0  0  0  0
   -0.5609    1.0310    0.3686 C   0  0  0  0  0  0  0  0  0  0  0  0
   -0.1491    0.6317   -1.0042 C   0  0  0  0  0  0  0  0  0  0  0  0
    0.1399    1.1665   -2.0392 O   0  0  0  0  0  0  0  0  0  0  0  0
    3.9896    0.4663    0.6742 H   0  0  0  0  0  0  0  0  0  0  0  0
   -0.0700   -0.6692    1.6879 H   0  0  0  0  0  0  0  0  0  0  0  0
    0.2067   -1.5551   -0.9023 H   0  0  0  0  0  0  0  0  0  0  0  0
   -2.4154   -0.7664   -0.9257 H   0  0  0  0  0  0  0  0  0  0  0  0
   -2.0055   -1.5773    0.6037 H   0  0  0  0  0  0  0  0  0  0  0  0
   -0.3115    1.9963    0.7266 H   0  0  0  0  0  0  0  0  0  0  0  0
  1  2  3  0
  2  3  1  0
  3  4  1  0
  4  5  1  0
  5  6  1  0
  6  7  1  0
  7  8  1  0
  8  9  2  0
  7  3  1  0
  8  4  1  0
  1 10  1  0
  3 11  1  0
  4 12  1  0
  5 13  1  0
  5 14  1  0
  7 15  1  0
M  END
