
     RDKit          3D

 17 19  0  0  0  0  0  0  0  0999 V2000
    2.6634   -0.9904    1.0091 C   0  0  0  0  0  0  0  0  0  0  0  0
    1.8223   -0.5699    0.2723 C   0  0  0  0  0  0  0  0  0  0  0  0
    0.7987   -0.0692   -0.6352 C   0  0  0  0  0  0  0  0  0  0  0  0
    0.8139    1.4473   -0.8007 C   0  0  0  0  0  0  0  0  0  0  0  0
    0.5234    2.2313    0.3046 O   0  0  0  0  0  0  0  0  0  0  0  0
   -0.5714    1.5325   -0.1691 C   0  0  0  0  0  0  0  0  0  0  0  0
   -0.5682    0.0501   -0.0647 C   0  0  0  0  0  0  0  0  0  0  0  0
   -1.0744   -0.7124    1.0566 C   0  0  0  0  0  0  0  0  0  0  0  0
   -1.6852   -0.8149   -0.3666 C   0  0  0  0  0  0  0  0  0  0  0  0
    3.4099   -1.3739    1.6503 H   0  0  0  0  0  0  0  0  0  0  0  0
    0.7753   -0.5399   -1.6412 H   0  0  0  0  0  0  0  0  0  0  0  0
    0.9860    1.8850   -1.7833 H   0  0  0  0  0  0  0  0  0  0  0  0
   -1.3666    2.0855   -0.6823 H   0  0  0  0  0  0  0  0  0  0  0  0
   -0.4669   -1.6084    1.3701 H   0  0  0  0  0  0  0  0  0  0  0  0
   -1.7656   -0.3470    1.8137 H   0  0  0  0  0  0  0  0  0  0  0  0
   -2.7124   -0.3965   -0.4897 H   0  0  0  0  0  0  0  0  0  0  0  0
   -1.5821   -1.8092   -0.8440 H   0  0  0  0  0  0  0  0  0  0  0  0
  1  2  3  0
  2  3  1  0
  3  4  1  0
  4  5  1  0
  5  6  1  0
  6  7  1  0
  7  8  1  0
  8  9  1  0
  7  3  1  0
  6  4  1  0
  9  7  1  0
  1 10  1  0
  3 11  1  0
  4 12  1  0
  6 13  1  0
  8 14  1  0
  8 15  1  0
  9 16  1  0
  9 17  1  0
M  END
