
     RDKit          3D

 16 16  0  0  0  0  0  0  0  0999 V2000
   -2.2698    0.7290   -1.8308 C   0  0  0  0  0  0  0  0  0  0  0  0
   -1.5884    0.2478   -0.9617 C   0  0  0  0  0  0  0  0  0  0  0  0
   -0.7508   -0.3356    0.0665 C   0  0  0  0  0  0  0  0  0  0  0  0
    0.3688   -1.1515   -0.5108 C   0  0  0  0  0  0  0  0  0  0  0  0
    1.4081   -1.1090    0.5350 C   0  0  0  0  0  0  0  0  0  0  0  0
    1.2137   -0.0330    1.2680 C   0  0  0  0  0  0  0  0  0  0  0  0
    0.0227    0.7528    0.7867 C   0  0  0  0  0  0  0  0  0  0  0  0
    0.4739    1.7385   -0.0470 O   0  0  0  0  0  0  0  0  0  0  0  0
   -2.8954    1.1559   -2.5995 H   0  0  0  0  0  0  0  0  0  0  0  0
   -1.3453   -0.9095    0.8267 H   0  0  0  0  0  0  0  0  0  0  0  0
    0.6962   -0.6417   -1.4401 H   0  0  0  0  0  0  0  0  0  0  0  0
    0.0882   -2.2075   -0.6911 H   0  0  0  0  0  0  0  0  0  0  0  0
    2.1841   -1.8687    0.6377 H   0  0  0  0  0  0  0  0  0  0  0  0
    1.8329    0.2471    2.1080 H   0  0  0  0  0  0  0  0  0  0  0  0
   -0.5960    1.1207    1.6116 H   0  0  0  0  0  0  0  0  0  0  0  0
    1.1570    2.2650    0.4409 H   0  0  0  0  0  0  0  0  0  0  0  0
  1  2  3  0
  2  3  1  0
  3  4  1  0
  4  5  1  0
  5  6  2  0
  6  7  1  0
  7  8  1  0
  7  3  1  0
  1  9  1  0
  3 10  1  0
  4 11  1  0
  4 12  1  0
  5 13  1  0
  6 14  1  0
  7 15  1  0
  8 16  1  0
M  END
