
     RDKit          3D

 19 20  0  0  0  0  0  0  0  0999 V2000
    1.9565   -2.3872   -0.3398 C   0  0  0  0  0  0  0  0  0  0  0  0
    1.3558   -1.3261   -0.4740 C   0  0  0  0  0  0  0  0  0  0  0  0
    0.6561   -0.0483   -0.6205 C   0  0  0  0  0  0  0  0  0  0  0  0
    1.5836    1.0944   -0.3356 C   0  0  0  0  0  0  0  0  0  0  0  0
   -0.5749   -0.0259    0.2487 C   0  0  0  0  0  0  0  0  0  0  0  0
   -1.6506   -1.0491    0.0324 C   0  0  0  0  0  0  0  0  0  0  0  0
   -2.6367   -0.0639    0.0597 O   0  0  0  0  0  0  0  0  0  0  0  0
   -1.6666    0.9305    0.0533 C   0  0  0  0  0  0  0  0  0  0  0  0
   -0.7888    0.9859    1.2843 C   0  0  0  0  0  0  0  0  0  0  0  0
    2.4907   -3.2957   -0.2305 H   0  0  0  0  0  0  0  0  0  0  0  0
    0.3024    0.0769   -1.6702 H   0  0  0  0  0  0  0  0  0  0  0  0
    2.3666    1.1206   -1.0978 H   0  0  0  0  0  0  0  0  0  0  0  0
    0.9975    2.0286   -0.4219 H   0  0  0  0  0  0  0  0  0  0  0  0
    1.9894    0.9414    0.6861 H   0  0  0  0  0  0  0  0  0  0  0  0
   -1.6697   -1.7719    0.8706 H   0  0  0  0  0  0  0  0  0  0  0  0
   -1.6118   -1.5053   -0.9802 H   0  0  0  0  0  0  0  0  0  0  0  0
   -1.6677    1.7339   -0.6765 H   0  0  0  0  0  0  0  0  0  0  0  0
   -0.0918    1.8360    1.3962 H   0  0  0  0  0  0  0  0  0  0  0  0
   -1.3401    0.7254    2.2156 H   0  0  0  0  0  0  0  0  0  0  0  0
  1  2  3  0
  2  3  1  0
  3  4  1  0
  3  5  1  0
  5  6  1  0
  6  7  1  0
  7  8  1  0
  8  9  1  0
  8  5  1  0
  9  5  1  0
  1 10  1  0
  3 11  1  0
  4 12  1  0
  4 13  1  0
  4 14  1  0
  6 15  1  0
  6 16  1  0
  8 17  1  0
  9 18  1  0
  9 19  1  0
M  END
