
     RDKit          3D

 17 18  0  0  0  0  0  0  0  0999 V2000
    3.5072    0.4460    0.9034 C   0  0  0  0  0  0  0  0  0  0  0  0
    2.3774    0.2591    0.5148 C   0  0  0  0  0  0  0  0  0  0  0  0
    1.0232    0.0419    0.0236 C   0  0  0  0  0  0  0  0  0  0  0  0
    0.2857   -0.9568    0.4154 C   0  0  0  0  0  0  0  0  0  0  0  0
   -1.0232   -0.8856   -0.2698 C   0  0  0  0  0  0  0  0  0  0  0  0
   -2.0741   -0.3425    0.6610 C   0  0  0  0  0  0  0  0  0  0  0  0
   -1.8943    0.9039    0.0496 O   0  0  0  0  0  0  0  0  0  0  0  0
   -1.0724    0.4313   -0.9632 C   0  0  0  0  0  0  0  0  0  0  0  0
    0.3422    0.9094   -0.9542 C   0  0  0  0  0  0  0  0  0  0  0  0
    4.4860    0.6198    1.2557 H   0  0  0  0  0  0  0  0  0  0  0  0
    0.5325   -1.7532    1.1311 H   0  0  0  0  0  0  0  0  0  0  0  0
   -1.3031   -1.7731   -0.8622 H   0  0  0  0  0  0  0  0  0  0  0  0
   -1.7309   -0.2473    1.7313 H   0  0  0  0  0  0  0  0  0  0  0  0
   -3.0743   -0.7661    0.5908 H   0  0  0  0  0  0  0  0  0  0  0  0
   -1.5977    0.4269   -1.9371 H   0  0  0  0  0  0  0  0  0  0  0  0
    0.4437    1.9839   -0.7054 H   0  0  0  0  0  0  0  0  0  0  0  0
    0.7721    0.7024   -1.9623 H   0  0  0  0  0  0  0  0  0  0  0  0
  1  2  3  0
  2  3  1  0
  3  4  2  0
  4  5  1  0
  5  6  1  0
  6  7  1  0
  7  8  1  0
  8  9  1  0
  9  3  1  0
  8  5  1  0
  1 10  1  0
  4 11  1  0
  5 12  1  0
  6 13  1  0
  6 14  1  0
  8 15  1  0
  9 16  1  0
  9 17  1  0
M  END
