
     RDKit          3D

 23 22  0  0  0  0  0  0  0  0999 V2000
    3.2276    0.9354    1.1553 C   0  0  0  0  0  0  0  0  0  0  0  0
    2.5186    0.0376    0.7713 C   0  0  0  0  0  0  0  0  0  0  0  0
    1.6793   -1.0603    0.3105 C   0  0  0  0  0  0  0  0  0  0  0  0
    1.3520   -0.9919   -1.0192 O   0  0  0  0  0  0  0  0  0  0  0  0
    0.5059   -1.1875    1.2359 C   0  0  0  0  0  0  0  0  0  0  0  0
   -0.3405    0.0464    1.2959 C   0  0  0  0  0  0  0  0  0  0  0  0
   -0.9285    0.4402   -0.0313 C   0  0  0  0  0  0  0  0  0  0  0  0
   -1.8050   -0.6170   -0.6076 C   0  0  0  0  0  0  0  0  0  0  0  0
   -1.7995    1.6760    0.2323 C   0  0  0  0  0  0  0  0  0  0  0  0
    3.8435    1.7420    1.4879 H   0  0  0  0  0  0  0  0  0  0  0  0
    2.2919   -1.9981    0.4464 H   0  0  0  0  0  0  0  0  0  0  0  0
    1.9378   -0.3820   -1.4902 H   0  0  0  0  0  0  0  0  0  0  0  0
   -0.1143   -2.0884    1.0097 H   0  0  0  0  0  0  0  0  0  0  0  0
    0.9114   -1.3578    2.2563 H   0  0  0  0  0  0  0  0  0  0  0  0
   -1.1987   -0.1775    1.9741 H   0  0  0  0  0  0  0  0  0  0  0  0
    0.2316    0.8496    1.7685 H   0  0  0  0  0  0  0  0  0  0  0  0
   -0.1916    0.7462   -0.7780 H   0  0  0  0  0  0  0  0  0  0  0  0
   -2.0028   -0.3296   -1.6824 H   0  0  0  0  0  0  0  0  0  0  0  0
   -2.7821   -0.6924   -0.0759 H   0  0  0  0  0  0  0  0  0  0  0  0
   -1.3033   -1.6015   -0.6410 H   0  0  0  0  0  0  0  0  0  0  0  0
   -1.7981    2.3596   -0.6401 H   0  0  0  0  0  0  0  0  0  0  0  0
   -2.8459    1.3923    0.4552 H   0  0  0  0  0  0  0  0  0  0  0  0
   -1.3892    2.2586    1.0899 H   0  0  0  0  0  0  0  0  0  0  0  0
  1  2  3  0
  2  3  1  0
  3  4  1  0
  3  5  1  0
  5  6  1  0
  6  7  1  0
  7  8  1  0
  7  9  1  0
  1 10  1  0
  3 11  1  0
  4 12  1  0
  5 13  1  0
  5 14  1  0
  6 15  1  0
  6 16  1  0
  7 17  1  0
  8 18  1  0
  8 19  1  0
  8 20  1  0
  9 21  1  0
  9 22  1  0
  9 23  1  0
M  END
