
     RDKit          3D

 14 14  0  0  0  0  0  0  0  0999 V2000
    4.6212   -0.9998    0.1983 C   0  0  0  0  0  0  0  0  0  0  0  0
    2.5483   -0.6252   -0.3373 C   0  0  0  0  0  0  0  0  0  0  0  0
    1.6270   -0.4628   -0.5637 C   0  0  0  0  0  0  0  0  0  0  0  0
    0.8558   -0.3323   -0.7418 C   0  0  0  0  0  0  0  0  0  0  0  0
   -0.4489   -0.1182   -1.0561 C   0  0  0  0  0  0  0  0  0  0  0  0
   -1.6988   -0.3731   -0.1930 C   0  0  0  0  0  0  0  0  0  0  0  0
   -2.3203    0.1174    1.1075 C   0  0  0  0  0  0  0  0  0  0  0  0
   -1.6243   -1.0626    1.0697 O   0  0  0  0  0  0  0  0  0  0  0  0
    5.8061   -1.2035    0.4963 H   0  0  0  0  0  0  0  0  0  0  0  0
   -0.7842    0.7733   -1.5929 H   0  0  0  0  0  0  0  0  0  0  0  0
   -0.4587    1.1112    0.0811 H   0  0  0  0  0  0  0  0  0  0  0  0
   -2.5265   -0.7877   -0.9040 H   0  0  0  0  0  0  0  0  0  0  0  0
   -3.4803   -0.0059    1.1842 H   0  0  0  0  0  0  0  0  0  0  0  0
   -2.1165    1.2186    1.2516 H   0  0  0  0  0  0  0  0  0  0  0  0
  1  2  3  0
  2  3  1  0
  3  4  3  0
  4  5  1  0
  5  6  1  0
  6  7  1  0
  7  8  1  0
  8  6  1  0
  1  9  1  0
  5 10  1  0
  5 11  1  0
  6 12  1  0
  7 13  1  0
  7 14  1  0
M  END
