
     RDKit          3D

 17 17  0  0  0  0  0  0  0  0999 V2000
    3.2715    0.9445   -0.3870 C   0  0  0  0  0  0  0  0  0  0  0  0
    2.3055    0.2521   -0.6265 C   0  0  0  0  0  0  0  0  0  0  0  0
    1.1317   -0.5583   -0.9171 C   0  0  0  0  0  0  0  0  0  0  0  0
    0.0462   -0.3525    0.1140 C   0  0  0  0  0  0  0  0  0  0  0  0
   -0.4055    1.0512    0.1781 C   0  0  0  0  0  0  0  0  0  0  0  0
   -1.7223    1.0927    0.2558 C   0  0  0  0  0  0  0  0  0  0  0  0
   -2.2567   -0.2777    0.2492 C   0  0  0  0  0  0  0  0  0  0  0  0
   -3.3538   -0.6954    0.6694 O   0  0  0  0  0  0  0  0  0  0  0  0
   -1.1841   -1.0777   -0.3804 C   0  0  0  0  0  0  0  0  0  0  0  0
    4.1181    1.5582   -0.1780 H   0  0  0  0  0  0  0  0  0  0  0  0
    1.3681   -1.6474   -0.9106 H   0  0  0  0  0  0  0  0  0  0  0  0
    0.6985   -0.3406   -1.9105 H   0  0  0  0  0  0  0  0  0  0  0  0
    0.3593   -0.7221    1.1133 H   0  0  0  0  0  0  0  0  0  0  0  0
    0.3017    1.8913    0.1596 H   0  0  0  0  0  0  0  0  0  0  0  0
   -2.3354    1.9988    0.3167 H   0  0  0  0  0  0  0  0  0  0  0  0
   -1.1862   -0.9924   -1.4842 H   0  0  0  0  0  0  0  0  0  0  0  0
   -1.1568   -2.1246   -0.0256 H   0  0  0  0  0  0  0  0  0  0  0  0
  1  2  3  0
  2  3  1  0
  3  4  1  0
  4  5  1  0
  5  6  2  0
  6  7  1  0
  7  8  2  0
  7  9  1  0
  9  4  1  0
  1 10  1  0
  3 11  1  0
  3 12  1  0
  4 13  1  0
  5 14  1  0
  6 15  1  0
  9 16  1  0
  9 17  1  0
M  END
