
     RDKit          3D

 15 16  0  0  0  0  0  0  0  0999 V2000
    2.0825   -0.2488   -2.1776 C   0  0  0  0  0  0  0  0  0  0  0  0
    1.5331   -0.4086   -1.0401 C   0  0  0  0  0  0  0  0  0  0  0  0
    0.9328   -0.5957    0.1633 C   0  0  0  0  0  0  0  0  0  0  0  0
   -0.4202   -1.4125   -0.0306 C   0  0  0  0  0  0  0  0  0  0  0  0
   -0.6190   -2.2740   -0.8568 O   0  0  0  0  0  0  0  0  0  0  0  0
   -0.8245   -0.5710    1.0638 C   0  0  0  0  0  0  0  0  0  0  0  0
   -1.2515    0.8215    1.0709 C   0  0  0  0  0  0  0  0  0  0  0  0
   -1.0299    1.6388    2.1761 O   0  0  0  0  0  0  0  0  0  0  0  0
   -0.1476    0.5535    0.2473 C   0  0  0  0  0  0  0  0  0  0  0  0
    2.6007   -0.1165   -3.2661 H   0  0  0  0  0  0  0  0  0  0  0  0
    1.3636   -0.7867    1.1181 H   0  0  0  0  0  0  0  0  0  0  0  0
   -0.4502   -0.8872    2.0302 H   0  0  0  0  0  0  0  0  0  0  0  0
   -2.2760    1.0223    0.6291 H   0  0  0  0  0  0  0  0  0  0  0  0
   -1.0694    2.6265    1.9361 H   0  0  0  0  0  0  0  0  0  0  0  0
   -0.4246    0.6383   -0.8582 H   0  0  0  0  0  0  0  0  0  0  0  0
  1  2  3  0
  2  3  1  0
  3  4  1  0
  4  5  2  0
  4  6  1  0
  6  7  1  0
  7  8  1  0
  7  9  1  0
  9  3  1  0
  9  6  1  0
  1 10  1  0
  3 11  1  0
  6 12  1  0
  7 13  1  0
  8 14  1  0
  9 15  1  0
M  END
