
     RDKit          3D

 21 21  0  0  0  0  0  0  0  0999 V2000
    4.1817    0.6394   -1.2859 C   0  0  0  0  0  0  0  0  0  0  0  0
    3.1571    0.0364   -1.0244 C   0  0  0  0  0  0  0  0  0  0  0  0
    1.9361   -0.6724   -0.6891 C   0  0  0  0  0  0  0  0  0  0  0  0
    1.1118    0.1640    0.2905 C   0  0  0  0  0  0  0  0  0  0  0  0
   -0.1704   -0.5650    0.6548 C   0  0  0  0  0  0  0  0  0  0  0  0
   -1.0085   -0.8437   -0.4281 O   0  0  0  0  0  0  0  0  0  0  0  0
   -1.4723   -0.0304    0.6930 C   0  0  0  0  0  0  0  0  0  0  0  0
   -2.5273   -0.8066    1.5030 C   0  0  0  0  0  0  0  0  0  0  0  0
   -1.9510    1.3085    0.2614 C   0  0  0  0  0  0  0  0  0  0  0  0
    5.0987    1.1779   -1.5022 H   0  0  0  0  0  0  0  0  0  0  0  0
    2.0867   -1.6851   -0.2889 H   0  0  0  0  0  0  0  0  0  0  0  0
    1.3822   -0.8107   -1.6464 H   0  0  0  0  0  0  0  0  0  0  0  0
    1.7661    0.3053    1.1763 H   0  0  0  0  0  0  0  0  0  0  0  0
    0.9158    1.1531   -0.1578 H   0  0  0  0  0  0  0  0  0  0  0  0
    0.0547   -1.5029    1.2263 H   0  0  0  0  0  0  0  0  0  0  0  0
   -3.2674   -1.2075    0.7886 H   0  0  0  0  0  0  0  0  0  0  0  0
   -2.0414   -1.6078    2.0632 H   0  0  0  0  0  0  0  0  0  0  0  0
   -3.0041   -0.0946    2.1920 H   0  0  0  0  0  0  0  0  0  0  0  0
   -2.6091    1.7108    1.0886 H   0  0  0  0  0  0  0  0  0  0  0  0
   -1.1186    2.0093    0.1706 H   0  0  0  0  0  0  0  0  0  0  0  0
   -2.5207    1.3221   -0.6845 H   0  0  0  0  0  0  0  0  0  0  0  0
  1  2  3  0
  2  3  1  0
  3  4  1  0
  4  5  1  0
  5  6  1  0
  6  7  1  0
  7  8  1  0
  7  9  1  0
  7  5  1  0
  1 10  1  0
  3 11  1  0
  3 12  1  0
  4 13  1  0
  4 14  1  0
  5 15  1  0
  8 16  1  0
  8 17  1  0
  8 18  1  0
  9 19  1  0
  9 20  1  0
  9 21  1  0
M  END
