
     RDKit          3D

 16 15  0  0  0  0  0  0  0  0999 V2000
    2.7216   -0.9824   -0.9225 C   0  0  0  0  0  0  0  0  0  0  0  0
    1.8126   -0.3363   -0.7899 C   0  0  0  0  0  0  0  0  0  0  0  0
    0.6127    0.5185   -0.6053 C   0  0  0  0  0  0  0  0  0  0  0  0
    0.9316    1.8685   -0.3945 C   0  0  0  0  0  0  0  0  0  0  0  0
    1.2222    3.1745   -0.1979 C   0  0  0  0  0  0  0  0  0  0  0  0
   -0.1564   -0.0031    0.2970 O   0  0  0  0  0  0  0  0  0  0  0  0
   -1.0035   -0.4623    1.0393 C   0  0  0  0  0  0  0  0  0  0  0  0
   -2.1201   -1.2748    0.3057 C   0  0  0  0  0  0  0  0  0  0  0  0
    3.7132   -1.6977   -1.0480 H   0  0  0  0  0  0  0  0  0  0  0  0
    0.1010    0.5298   -1.6761 H   0  0  0  0  0  0  0  0  0  0  0  0
    1.4099    4.0737   -0.0520 H   0  0  0  0  0  0  0  0  0  0  0  0
   -1.4789    0.0791    1.8944 H   0  0  0  0  0  0  0  0  0  0  0  0
   -0.5089   -1.3325    1.6905 H   0  0  0  0  0  0  0  0  0  0  0  0
   -3.1005   -0.9883    0.8008 H   0  0  0  0  0  0  0  0  0  0  0  0
   -2.1837   -0.8338   -0.7248 H   0  0  0  0  0  0  0  0  0  0  0  0
   -1.9728   -2.3329    0.3834 H   0  0  0  0  0  0  0  0  0  0  0  0
  1  2  3  0
  2  3  1  0
  3  4  1  0
  4  5  3  0
  3  6  1  0
  6  7  1  0
  7  8  1  0
  1  9  1  0
  3 10  1  0
  5 11  1  0
  7 12  1  0
  7 13  1  0
  8 14  1  0
  8 15  1  0
  8 16  1  0
M  END
