
     RDKit          3D

 19 20  0  0  0  0  0  0  0  0999 V2000
    3.4348    1.1212   -1.4942 C   0  0  0  0  0  0  0  0  0  0  0  0
    2.5277    0.8332   -0.8437 C   0  0  0  0  0  0  0  0  0  0  0  0
    1.4009    0.4790   -0.0574 C   0  0  0  0  0  0  0  0  0  0  0  0
    1.3262   -0.8957    0.5059 C   0  0  0  0  0  0  0  0  0  0  0  0
   -0.0275   -1.0516   -0.1952 C   0  0  0  0  0  0  0  0  0  0  0  0
   -1.0568   -0.0765    0.1638 C   0  0  0  0  0  0  0  0  0  0  0  0
   -2.3427   -0.2441   -0.2234 O   0  0  0  0  0  0  0  0  0  0  0  0
   -3.1490    0.3507    0.7596 C   0  0  0  0  0  0  0  0  0  0  0  0
    0.0441    0.3310   -0.7496 C   0  0  0  0  0  0  0  0  0  0  0  0
    4.3538    1.4007   -2.1698 H   0  0  0  0  0  0  0  0  0  0  0  0
    1.2938    1.3088    0.7461 H   0  0  0  0  0  0  0  0  0  0  0  0
    1.1538   -0.9872    1.6116 H   0  0  0  0  0  0  0  0  0  0  0  0
    2.1241   -1.5832    0.1454 H   0  0  0  0  0  0  0  0  0  0  0  0
   -0.1614   -1.8804   -0.8808 H   0  0  0  0  0  0  0  0  0  0  0  0
   -0.9413    0.4205    1.1907 H   0  0  0  0  0  0  0  0  0  0  0  0
   -2.9682   -0.0924    1.7868 H   0  0  0  0  0  0  0  0  0  0  0  0
   -2.7664    1.4037    0.8678 H   0  0  0  0  0  0  0  0  0  0  0  0
   -4.2077    0.2644    0.5980 H   0  0  0  0  0  0  0  0  0  0  0  0
   -0.0382    0.6289   -1.7617 H   0  0  0  0  0  0  0  0  0  0  0  0
  1  2  3  0
  2  3  1  0
  3  4  1  0
  4  5  1  0
  5  6  1  0
  6  7  1  0
  7  8  1  0
  6  9  1  0
  9  3  1  0
  9  5  1  0
  1 10  1  0
  3 11  1  0
  4 12  1  0
  4 13  1  0
  5 14  1  0
  6 15  1  0
  8 16  1  0
  8 17  1  0
  8 18  1  0
  9 19  1  0
M  END
