
     RDKit          3D

 15 15  0  0  0  0  0  0  0  0999 V2000
    2.3794    0.7608   -0.1201 C   0  0  0  0  0  0  0  0  0  0  0  0
    1.6442   -0.1777   -0.3613 C   0  0  0  0  0  0  0  0  0  0  0  0
    0.7698   -1.3255   -0.6527 C   0  0  0  0  0  0  0  0  0  0  0  0
   -0.6727   -0.8205   -0.5837 C   0  0  0  0  0  0  0  0  0  0  0  0
   -0.8571   -0.3086    0.7958 C   0  0  0  0  0  0  0  0  0  0  0  0
   -1.1569    0.9670    0.7381 C   0  0  0  0  0  0  0  0  0  0  0  0
   -1.1816    1.3412   -0.6637 C   0  0  0  0  0  0  0  0  0  0  0  0
   -1.4335    2.4856   -1.0904 O   0  0  0  0  0  0  0  0  0  0  0  0
   -0.8860    0.2455   -1.4490 O   0  0  0  0  0  0  0  0  0  0  0  0
    3.0067    1.5889    0.0823 H   0  0  0  0  0  0  0  0  0  0  0  0
    0.9682   -1.6988   -1.6577 H   0  0  0  0  0  0  0  0  0  0  0  0
    0.9149   -2.1304    0.0947 H   0  0  0  0  0  0  0  0  0  0  0  0
   -1.3839   -1.6627   -0.7226 H   0  0  0  0  0  0  0  0  0  0  0  0
   -0.7548   -0.9098    1.6784 H   0  0  0  0  0  0  0  0  0  0  0  0
   -1.3566    1.6450    1.5931 H   0  0  0  0  0  0  0  0  0  0  0  0
  1  2  3  0
  2  3  1  0
  3  4  1  0
  4  5  1  0
  5  6  2  0
  6  7  1  0
  7  8  2  0
  7  9  1  0
  9  4  1  0
  1 10  1  0
  3 11  1  0
  3 12  1  0
  4 13  1  0
  5 14  1  0
  6 15  1  0
M  END
