
     RDKit          3D

 19 19  0  0  0  0  0  0  0  0999 V2000
   -2.7558   -0.5386    1.5114 C   0  0  0  0  0  0  0  0  0  0  0  0
   -1.7241   -0.6927    0.9121 C   0  0  0  0  0  0  0  0  0  0  0  0
   -0.4829   -0.8697    0.1722 C   0  0  0  0  0  0  0  0  0  0  0  0
   -0.6866   -1.9097   -0.8776 C   0  0  0  0  0  0  0  0  0  0  0  0
    0.5671   -1.2751    0.9899 O   0  0  0  0  0  0  0  0  0  0  0  0
   -0.1019    0.4749   -0.4231 C   0  0  0  0  0  0  0  0  0  0  0  0
    0.0955    1.3928    0.7331 O   0  0  0  0  0  0  0  0  0  0  0  0
    1.1906    1.0424   -0.1191 C   0  0  0  0  0  0  0  0  0  0  0  0
    1.7308    2.2114   -0.8716 C   0  0  0  0  0  0  0  0  0  0  0  0
   -3.6541   -0.3907    2.0482 H   0  0  0  0  0  0  0  0  0  0  0  0
    0.2130   -2.5717   -1.0003 H   0  0  0  0  0  0  0  0  0  0  0  0
   -1.5121   -2.5766   -0.5529 H   0  0  0  0  0  0  0  0  0  0  0  0
   -0.9981   -1.4863   -1.8593 H   0  0  0  0  0  0  0  0  0  0  0  0
    1.2739   -1.7162    0.4569 H   0  0  0  0  0  0  0  0  0  0  0  0
   -0.8491    0.9270   -1.0728 H   0  0  0  0  0  0  0  0  0  0  0  0
    1.9402    0.3938    0.3766 H   0  0  0  0  0  0  0  0  0  0  0  0
    1.2788    2.3387   -1.8837 H   0  0  0  0  0  0  0  0  0  0  0  0
    1.6376    3.1788   -0.3454 H   0  0  0  0  0  0  0  0  0  0  0  0
    2.8370    2.0676   -1.0481 H   0  0  0  0  0  0  0  0  0  0  0  0
  1  2  3  0
  2  3  1  0
  3  4  1  0
  3  5  1  0
  3  6  1  0
  6  7  1  0
  7  8  1  0
  8  9  1  0
  8  6  1  0
  1 10  1  0
  4 11  1  0
  4 12  1  0
  4 13  1  0
  5 14  1  0
  6 15  1  0
  8 16  1  0
  9 17  1  0
  9 18  1  0
  9 19  1  0
M  END
