
     RDKit          3D

 20 20  0  0  0  0  0  0  0  0999 V2000
   -1.3210    2.4663   -0.4518 C   0  0  0  0  0  0  0  0  0  0  0  0
   -0.8614    1.5177    0.1435 C   0  0  0  0  0  0  0  0  0  0  0  0
   -0.2880    0.3775    0.8458 C   0  0  0  0  0  0  0  0  0  0  0  0
   -0.9085   -0.9669    0.3981 C   0  0  0  0  0  0  0  0  0  0  0  0
   -1.2706   -1.8458    1.5588 C   0  0  0  0  0  0  0  0  0  0  0  0
    0.4891   -0.6690    0.0730 C   0  0  0  0  0  0  0  0  0  0  0  0
    0.9344   -0.2396   -1.2847 C   0  0  0  0  0  0  0  0  0  0  0  0
    1.8314    0.9630   -1.1179 C   0  0  0  0  0  0  0  0  0  0  0  0
   -1.7173    3.3033   -0.9559 H   0  0  0  0  0  0  0  0  0  0  0  0
    0.0205    0.4861    1.8877 H   0  0  0  0  0  0  0  0  0  0  0  0
   -1.6280   -0.9629   -0.4206 H   0  0  0  0  0  0  0  0  0  0  0  0
   -1.9547   -1.2571    2.2200 H   0  0  0  0  0  0  0  0  0  0  0  0
   -1.8155   -2.7488    1.2697 H   0  0  0  0  0  0  0  0  0  0  0  0
   -0.3631   -2.0522    2.1666 H   0  0  0  0  0  0  0  0  0  0  0  0
    1.2467   -1.2649    0.6265 H   0  0  0  0  0  0  0  0  0  0  0  0
    1.4109   -1.0465   -1.8733 H   0  0  0  0  0  0  0  0  0  0  0  0
    0.0680    0.1137   -1.9185 H   0  0  0  0  0  0  0  0  0  0  0  0
    1.6491    1.7235   -1.9069 H   0  0  0  0  0  0  0  0  0  0  0  0
    2.9053    0.6537   -1.1018 H   0  0  0  0  0  0  0  0  0  0  0  0
    1.5728    1.4489   -0.1583 H   0  0  0  0  0  0  0  0  0  0  0  0
  1  2  3  0
  2  3  1  0
  3  4  1  0
  4  5  1  0
  4  6  1  0
  6  7  1  0
  7  8  1  0
  6  3  1  0
  1  9  1  0
  3 10  1  0
  4 11  1  0
  5 12  1  0
  5 13  1  0
  5 14  1  0
  6 15  1  0
  7 16  1  0
  7 17  1  0
  8 18  1  0
  8 19  1  0
  8 20  1  0
M  END
