
     RDKit          3D

 19 20  0  0  0  0  0  0  0  0999 V2000
    2.1829    1.6704    2.2214 C   0  0  0  0  0  0  0  0  0  0  0  0
    1.4842    0.8241    0.9477 C   0  0  0  0  0  0  0  0  0  0  0  0
    1.0298    0.2633    0.0948 C   0  0  0  0  0  0  0  0  0  0  0  0
    1.3780   -0.8798   -0.5980 O   0  0  0  0  0  0  0  0  0  0  0  0
    0.2992   -1.8184   -0.2113 C   0  0  0  0  0  0  0  0  0  0  0  0
   -1.0612   -1.3790   -0.7480 C   0  0  0  0  0  0  0  0  0  0  0  0
   -1.3543   -0.1146   -0.0267 C   0  0  0  0  0  0  0  0  0  0  0  0
   -1.4943    1.2556   -0.2338 C   0  0  0  0  0  0  0  0  0  0  0  0
   -0.1979    0.7713   -0.6599 C   0  0  0  0  0  0  0  0  0  0  0  0
    2.5744    2.1195    2.9146 H   0  0  0  0  0  0  0  0  0  0  0  0
    1.8653    1.0404   -0.8138 H   0  0  0  0  0  0  0  0  0  0  0  0
    0.5304   -2.8254   -0.3537 H   0  0  0  0  0  0  0  0  0  0  0  0
    0.3177   -1.6000    0.9034 H   0  0  0  0  0  0  0  0  0  0  0  0
   -0.9003   -1.2385   -1.8617 H   0  0  0  0  0  0  0  0  0  0  0  0
   -1.7992   -2.1694   -0.6351 H   0  0  0  0  0  0  0  0  0  0  0  0
   -1.1378   -0.3572    1.1254 H   0  0  0  0  0  0  0  0  0  0  0  0
   -2.1880    1.6851   -1.0086 H   0  0  0  0  0  0  0  0  0  0  0  0
   -1.4769    1.9068    0.6763 H   0  0  0  0  0  0  0  0  0  0  0  0
   -0.0520    0.8459   -1.7331 H   0  0  0  0  0  0  0  0  0  0  0  0
  1  2  3  0
  2  3  1  0
  3  4  1  0
  4  5  1  0
  5  6  1  0
  6  7  1  0
  7  8  1  0
  8  9  1  0
  9  3  1  0
  9  7  1  0
  1 10  1  0
  3 11  1  0
  5 12  1  0
  5 13  1  0
  6 14  1  0
  6 15  1  0
  7 16  1  0
  8 17  1  0
  8 18  1  0
  9 19  1  0
M  END
