
     RDKit          3D

 17 18  0  0  0  0  0  0  0  0999 V2000
    1.8460   -1.3927    1.3471 C   0  0  0  0  0  0  0  0  0  0  0  0
    1.3345   -0.5852    0.5909 C   0  0  0  0  0  0  0  0  0  0  0  0
    0.7004    0.3842   -0.3012 C   0  0  0  0  0  0  0  0  0  0  0  0
    1.6694    1.1378   -0.9498 O   0  0  0  0  0  0  0  0  0  0  0  0
   -0.2367   -0.3176   -1.2619 C   0  0  0  0  0  0  0  0  0  0  0  0
   -1.3983   -0.6648   -0.3641 C   0  0  0  0  0  0  0  0  0  0  0  0
   -1.1136   -0.9610    1.0003 O   0  0  0  0  0  0  0  0  0  0  0  0
   -1.4603    0.3306    0.6384 C   0  0  0  0  0  0  0  0  0  0  0  0
   -0.2846    1.2636    0.4504 C   0  0  0  0  0  0  0  0  0  0  0  0
    2.2902   -2.1154    2.0075 H   0  0  0  0  0  0  0  0  0  0  0  0
    2.0419    0.6749   -1.7432 H   0  0  0  0  0  0  0  0  0  0  0  0
    0.2133   -1.2417   -1.6185 H   0  0  0  0  0  0  0  0  0  0  0  0
   -0.5736    0.3375   -2.0780 H   0  0  0  0  0  0  0  0  0  0  0  0
   -2.1971   -1.2922   -0.7595 H   0  0  0  0  0  0  0  0  0  0  0  0
   -2.4477    0.7499    0.9342 H   0  0  0  0  0  0  0  0  0  0  0  0
    0.1530    1.5182    1.4419 H   0  0  0  0  0  0  0  0  0  0  0  0
   -0.5369    2.1737   -0.0875 H   0  0  0  0  0  0  0  0  0  0  0  0
  1  2  3  0
  2  3  1  0
  3  4  1  0
  3  5  1  0
  5  6  1  0
  6  7  1  0
  7  8  1  0
  8  9  1  0
  9  3  1  0
  8  6  1  0
  1 10  1  0
  4 11  1  0
  5 12  1  0
  5 13  1  0
  6 14  1  0
  8 15  1  0
  9 16  1  0
  9 17  1  0
M  END
