
     RDKit          3D

 19 19  0  0  0  0  0  0  0  0999 V2000
    3.6069    1.0800   -1.9544 C   0  0  0  0  0  0  0  0  0  0  0  0
    2.0687    0.0395   -1.3630 C   0  0  0  0  0  0  0  0  0  0  0  0
    1.3419   -0.4452   -1.0692 C   0  0  0  0  0  0  0  0  0  0  0  0
    0.1359    0.6480   -1.1331 O   0  0  0  0  0  0  0  0  0  0  0  0
   -0.8942   -0.3974   -1.1280 C   0  0  0  0  0  0  0  0  0  0  0  0
   -0.4176   -0.9312    0.2458 C   0  0  0  0  0  0  0  0  0  0  0  0
   -1.0378   -0.3629    1.3712 C   0  0  0  0  0  0  0  0  0  0  0  0
   -1.0045    1.1260    1.7159 C   0  0  0  0  0  0  0  0  0  0  0  0
    0.9292   -1.1199    0.0398 O   0  0  0  0  0  0  0  0  0  0  0  0
    4.3549    1.5891   -2.2499 H   0  0  0  0  0  0  0  0  0  0  0  0
    0.7344   -1.0992   -2.1284 H   0  0  0  0  0  0  0  0  0  0  0  0
   -0.6562   -1.2225   -1.8161 H   0  0  0  0  0  0  0  0  0  0  0  0
   -1.7739    0.1763   -1.1967 H   0  0  0  0  0  0  0  0  0  0  0  0
   -0.8430   -2.0018    0.1938 H   0  0  0  0  0  0  0  0  0  0  0  0
   -2.1947   -0.5977    1.3202 H   0  0  0  0  0  0  0  0  0  0  0  0
   -0.7933   -0.8344    2.3711 H   0  0  0  0  0  0  0  0  0  0  0  0
   -1.5057    1.1484    2.7689 H   0  0  0  0  0  0  0  0  0  0  0  0
   -0.1545    1.6769    1.5819 H   0  0  0  0  0  0  0  0  0  0  0  0
   -1.8965    1.5279    1.1272 H   0  0  0  0  0  0  0  0  0  0  0  0
  1  2  3  0
  2  3  1  0
  3  4  1  0
  4  5  1  0
  5  6  1  0
  6  7  1  0
  7  8  1  0
  6  9  1  0
  9  3  1  0
  1 10  1  0
  3 11  1  0
  5 12  1  0
  5 13  1  0
  6 14  1  0
  7 15  1  0
  7 16  1  0
  8 17  1  0
  8 18  1  0
  8 19  1  0
M  END
