
     RDKit          3D

 18 18  0  0  0  0  0  0  0  0999 V2000
   -1.7261   -1.8718   -0.1865 C   0  0  0  0  0  0  0  0  0  0  0  0
   -1.2013   -0.8107    0.0321 C   0  0  0  0  0  0  0  0  0  0  0  0
   -0.5400    0.4697    0.2943 C   0  0  0  0  0  0  0  0  0  0  0  0
   -1.1799    1.6002   -0.4425 C   0  0  0  0  0  0  0  0  0  0  0  0
   -0.5796    0.6986    1.6775 O   0  0  0  0  0  0  0  0  0  0  0  0
    0.9192    0.4108   -0.0969 C   0  0  0  0  0  0  0  0  0  0  0  0
    1.7870   -0.6031    0.5877 C   0  0  0  0  0  0  0  0  0  0  0  0
    1.4547   -0.7417   -0.8504 C   0  0  0  0  0  0  0  0  0  0  0  0
   -2.1897   -2.8176   -0.3997 H   0  0  0  0  0  0  0  0  0  0  0  0
   -2.2763    1.4116   -0.5239 H   0  0  0  0  0  0  0  0  0  0  0  0
   -1.0019    2.5362    0.1412 H   0  0  0  0  0  0  0  0  0  0  0  0
   -0.7147    1.7750   -1.4393 H   0  0  0  0  0  0  0  0  0  0  0  0
   -1.2271    0.1100    2.1286 H   0  0  0  0  0  0  0  0  0  0  0  0
    1.3399    1.4035   -0.3584 H   0  0  0  0  0  0  0  0  0  0  0  0
    1.2736   -1.1998    1.3664 H   0  0  0  0  0  0  0  0  0  0  0  0
    2.8341   -0.2959    0.8580 H   0  0  0  0  0  0  0  0  0  0  0  0
    0.7304   -1.4869   -1.2145 H   0  0  0  0  0  0  0  0  0  0  0  0
    2.2977   -0.5881   -1.5736 H   0  0  0  0  0  0  0  0  0  0  0  0
  1  2  3  0
  2  3  1  0
  3  4  1  0
  3  5  1  0
  3  6  1  0
  6  7  1  0
  7  8  1  0
  8  6  1  0
  1  9  1  0
  4 10  1  0
  4 11  1  0
  4 12  1  0
  5 13  1  0
  6 14  1  0
  7 15  1  0
  7 16  1  0
  8 17  1  0
  8 18  1  0
M  END
