
     RDKit          3D

 21 20  0  0  0  0  0  0  0  0999 V2000
    5.3276    1.5678    0.0346 C   0  0  0  0  0  0  0  0  0  0  0  0
    4.5858    1.3022   -0.0894 C   0  0  0  0  0  0  0  0  0  0  0  0
    3.0212    0.7128   -0.3602 C   0  0  0  0  0  0  0  0  0  0  0  0
    1.8688    0.3016   -0.5625 C   0  0  0  0  0  0  0  0  0  0  0  0
    0.7579   -0.0893   -0.7719 C   0  0  0  0  0  0  0  0  0  0  0  0
   -0.6144    0.1199   -0.4994 C   0  0  0  0  0  0  0  0  0  0  0  0
   -1.3476   -0.0618    0.8399 C   0  0  0  0  0  0  0  0  0  0  0  0
   -2.7610    0.4484    0.4712 C   0  0  0  0  0  0  0  0  0  0  0  0
   -1.4925   -1.6454    0.9235 C   0  0  0  0  0  0  0  0  0  0  0  0
    6.1429    1.8658    0.1680 H   0  0  0  0  0  0  0  0  0  0  0  0
    0.5967    0.3292   -2.0503 H   0  0  0  0  0  0  0  0  0  0  0  0
    0.6232   -1.3153   -1.2579 H   0  0  0  0  0  0  0  0  0  0  0  0
   -0.9492    1.1490   -0.8885 H   0  0  0  0  0  0  0  0  0  0  0  0
   -1.1714   -0.5956   -1.2266 H   0  0  0  0  0  0  0  0  0  0  0  0
   -0.8626    0.4284    1.6196 H   0  0  0  0  0  0  0  0  0  0  0  0
   -3.0893   -0.2446   -0.3868 H   0  0  0  0  0  0  0  0  0  0  0  0
   -3.4722    0.1504    1.2321 H   0  0  0  0  0  0  0  0  0  0  0  0
   -2.6734    1.4530    0.0920 H   0  0  0  0  0  0  0  0  0  0  0  0
   -0.5424   -2.0909    0.5275 H   0  0  0  0  0  0  0  0  0  0  0  0
   -2.2922   -1.8847    0.2335 H   0  0  0  0  0  0  0  0  0  0  0  0
   -1.6557   -1.9009    1.9564 H   0  0  0  0  0  0  0  0  0  0  0  0
  1  2  3  0
  2  3  1  0
  3  4  3  0
  4  5  1  0
  5  6  1  0
  6  7  1  0
  7  8  1  0
  7  9  1  0
  1 10  1  0
  5 11  1  0
  5 12  1  0
  6 13  1  0
  6 14  1  0
  7 15  1  0
  8 16  1  0
  8 17  1  0
  8 18  1  0
  9 19  1  0
  9 20  1  0
  9 21  1  0
M  END
