
     RDKit          3D

 19 18  0  0  0  0  0  0  0  0999 V2000
   -0.6743    2.6063   -1.9232 C   0  0  0  0  0  0  0  0  0  0  0  0
   -0.1755    1.5056   -1.9535 C   0  0  0  0  0  0  0  0  0  0  0  0
    0.4394    0.1962   -1.9758 C   0  0  0  0  0  0  0  0  0  0  0  0
   -0.4191   -0.8875   -1.4127 C   0  0  0  0  0  0  0  0  0  0  0  0
   -0.7997   -0.6627    0.0233 C   0  0  0  0  0  0  0  0  0  0  0  0
    0.3027   -0.5811    0.8811 O   0  0  0  0  0  0  0  0  0  0  0  0
    0.0603   -0.3744    2.2319 C   0  0  0  0  0  0  0  0  0  0  0  0
    1.1547   -0.2716    3.2339 C   0  0  0  0  0  0  0  0  0  0  0  0
   -1.1467   -0.2673    2.6380 O   0  0  0  0  0  0  0  0  0  0  0  0
   -1.1157    3.5703   -1.9121 H   0  0  0  0  0  0  0  0  0  0  0  0
    0.6044   -0.0608   -3.0631 H   0  0  0  0  0  0  0  0  0  0  0  0
    1.4494    0.1823   -1.5251 H   0  0  0  0  0  0  0  0  0  0  0  0
    0.1266   -1.8502   -1.5416 H   0  0  0  0  0  0  0  0  0  0  0  0
   -1.3329   -0.9738   -2.0323 H   0  0  0  0  0  0  0  0  0  0  0  0
   -1.3732    0.2785    0.0949 H   0  0  0  0  0  0  0  0  0  0  0  0
   -1.4082   -1.5422    0.3381 H   0  0  0  0  0  0  0  0  0  0  0  0
    1.3572   -1.3051    3.5900 H   0  0  0  0  0  0  0  0  0  0  0  0
    2.1019    0.1187    2.7799 H   0  0  0  0  0  0  0  0  0  0  0  0
    0.8486    0.3187    4.1135 H   0  0  0  0  0  0  0  0  0  0  0  0
  1  2  3  0
  2  3  1  0
  3  4  1  0
  4  5  1  0
  5  6  1  0
  6  7  1  0
  7  8  1  0
  7  9  2  0
  1 10  1  0
  3 11  1  0
  3 12  1  0
  4 13  1  0
  4 14  1  0
  5 15  1  0
  5 16  1  0
  8 17  1  0
  8 18  1  0
  8 19  1  0
M  END
