
     RDKit          3D

 14 15  0  0  0  0  0  0  0  0999 V2000
    3.0805    0.0768    0.5942 C   0  0  0  0  0  0  0  0  0  0  0  0
    1.8005   -0.1501    0.1021 C   0  0  0  0  0  0  0  0  0  0  0  0
    0.4056   -0.3875   -0.4605 C   0  0  0  0  0  0  0  0  0  0  0  0
   -0.4267   -0.8617    0.6973 C   0  0  0  0  0  0  0  0  0  0  0  0
   -1.7892   -0.5371    0.3981 C   0  0  0  0  0  0  0  0  0  0  0  0
   -1.7665    0.5965   -0.3686 C   0  0  0  0  0  0  0  0  0  0  0  0
   -0.2916    0.9749   -0.4944 C   0  0  0  0  0  0  0  0  0  0  0  0
    0.2189    0.3178   -1.5656 O   0  0  0  0  0  0  0  0  0  0  0  0
    4.1826    0.2927    1.0207 H   0  0  0  0  0  0  0  0  0  0  0  0
   -0.0548   -0.2778    1.6350 H   0  0  0  0  0  0  0  0  0  0  0  0
   -0.1903   -1.8926    0.8813 H   0  0  0  0  0  0  0  0  0  0  0  0
   -2.7323   -0.9709    0.6234 H   0  0  0  0  0  0  0  0  0  0  0  0
   -2.5331    1.0622   -0.8862 H   0  0  0  0  0  0  0  0  0  0  0  0
    0.0963    1.7569    0.1501 H   0  0  0  0  0  0  0  0  0  0  0  0
  1  2  3  0
  2  3  1  0
  3  4  1  0
  4  5  1  0
  5  6  2  0
  6  7  1  0
  7  8  1  0
  7  3  1  0
  8  3  1  0
  1  9  1  0
  4 10  1  0
  4 11  1  0
  5 12  1  0
  6 13  1  0
  7 14  1  0
M  END
