
     RDKit          3D

 19 18  0  0  0  0  0  0  0  0999 V2000
   -1.5240    2.3611    0.7579 C   0  0  0  0  0  0  0  0  0  0  0  0
   -1.3081    1.1341    0.3460 C   0  0  0  0  0  0  0  0  0  0  0  0
   -1.1130    0.0718    0.0061 C   0  0  0  0  0  0  0  0  0  0  0  0
   -0.9764   -0.1483   -1.5420 C   0  0  0  0  0  0  0  0  0  0  0  0
    0.6052    0.2110    0.2053 C   0  0  0  0  0  0  0  0  0  0  0  0
    1.8925    0.3276    0.3377 C   0  0  0  0  0  0  0  0  0  0  0  0
    3.2850    0.4442    0.4600 C   0  0  0  0  0  0  0  0  0  0  0  0
   -1.3040   -1.2277    0.6971 C   0  0  0  0  0  0  0  0  0  0  0  0
   -0.9906   -2.2302   -0.2566 O   0  0  0  0  0  0  0  0  0  0  0  0
   -1.7593    3.6573    1.1706 H   0  0  0  0  0  0  0  0  0  0  0  0
   -1.6258    0.6598   -2.0141 H   0  0  0  0  0  0  0  0  0  0  0  0
   -1.4800   -1.0916   -1.7475 H   0  0  0  0  0  0  0  0  0  0  0  0
    0.0420   -0.1951   -1.8820 H   0  0  0  0  0  0  0  0  0  0  0  0
    3.8265   -0.5053    0.1307 H   0  0  0  0  0  0  0  0  0  0  0  0
    3.7080    1.2483   -0.2124 H   0  0  0  0  0  0  0  0  0  0  0  0
    3.5022    0.6035    1.5482 H   0  0  0  0  0  0  0  0  0  0  0  0
   -0.5981   -1.3062    1.5248 H   0  0  0  0  0  0  0  0  0  0  0  0
   -2.3227   -1.3449    1.0863 H   0  0  0  0  0  0  0  0  0  0  0  0
   -1.8592   -2.6695   -0.6160 H   0  0  0  0  0  0  0  0  0  0  0  0
  1  2  3  0
  2  3  1  0
  3  4  1  0
  3  5  1  0
  5  6  3  0
  6  7  1  0
  3  8  1  0
  8  9  1  0
  1 10  1  0
  4 11  1  0
  4 12  1  0
  4 13  1  0
  7 14  1  0
  7 15  1  0
  7 16  1  0
  8 17  1  0
  8 18  1  0
  9 19  1  0
M  END
