
     RDKit          3D

 14 14  0  0  0  0  0  0  0  0999 V2000
    2.5037   -0.0162    0.0711 C   0  0  0  0  0  0  0  0  0  0  0  0
    1.3850   -0.3318   -0.2533 C   0  0  0  0  0  0  0  0  0  0  0  0
    0.0330   -0.6937   -0.6603 C   0  0  0  0  0  0  0  0  0  0  0  0
   -0.8431   -1.2405    0.4367 C   0  0  0  0  0  0  0  0  0  0  0  0
   -1.8608   -0.3859   -0.0364 O   0  0  0  0  0  0  0  0  0  0  0  0
   -0.8968    0.4898   -0.5336 C   0  0  0  0  0  0  0  0  0  0  0  0
   -0.4598    1.5241    0.4246 C   0  0  0  0  0  0  0  0  0  0  0  0
    0.3760    2.3436    0.1051 O   0  0  0  0  0  0  0  0  0  0  0  0
    3.4896    0.2674    0.3608 H   0  0  0  0  0  0  0  0  0  0  0  0
   -0.0521   -1.2441   -1.5964 H   0  0  0  0  0  0  0  0  0  0  0  0
   -0.5476   -0.8693    1.4539 H   0  0  0  0  0  0  0  0  0  0  0  0
   -1.1243   -2.2935    0.3706 H   0  0  0  0  0  0  0  0  0  0  0  0
   -1.1304    0.8802   -1.5613 H   0  0  0  0  0  0  0  0  0  0  0  0
   -0.8725    1.5699    1.4187 H   0  0  0  0  0  0  0  0  0  0  0  0
  1  2  3  0
  2  3  1  0
  3  4  1  0
  4  5  1  0
  5  6  1  0
  6  7  1  0
  7  8  2  0
  6  3  1  0
  1  9  1  0
  3 10  1  0
  4 11  1  0
  4 12  1  0
  6 13  1  0
  7 14  1  0
M  END
