
     RDKit          3D

 18 18  0  0  0  0  0  0  0  0999 V2000
   -3.4361    0.6995    0.5900 C   0  0  0  0  0  0  0  0  0  0  0  0
   -2.3543    0.4322    0.1261 C   0  0  0  0  0  0  0  0  0  0  0  0
   -1.0602    0.1340   -0.4288 C   0  0  0  0  0  0  0  0  0  0  0  0
   -0.7055   -1.3043   -0.1101 C   0  0  0  0  0  0  0  0  0  0  0  0
    0.7709   -1.2723   -0.3121 C   0  0  0  0  0  0  0  0  0  0  0  0
    1.2204   -0.0488   -0.0622 C   0  0  0  0  0  0  0  0  0  0  0  0
    2.6223    0.4475   -0.1344 C   0  0  0  0  0  0  0  0  0  0  0  0
    0.0695    0.8440    0.3300 C   0  0  0  0  0  0  0  0  0  0  0  0
   -4.3910    0.9380    1.0180 H   0  0  0  0  0  0  0  0  0  0  0  0
   -0.9729    0.3426   -1.5110 H   0  0  0  0  0  0  0  0  0  0  0  0
   -1.2180   -2.0224   -0.7629 H   0  0  0  0  0  0  0  0  0  0  0  0
   -0.8928   -1.4693    0.9676 H   0  0  0  0  0  0  0  0  0  0  0  0
    1.4133   -2.0919   -0.6139 H   0  0  0  0  0  0  0  0  0  0  0  0
    2.5925    1.4831   -0.5319 H   0  0  0  0  0  0  0  0  0  0  0  0
    3.0918    0.5166    0.8693 H   0  0  0  0  0  0  0  0  0  0  0  0
    3.1807   -0.2093   -0.8290 H   0  0  0  0  0  0  0  0  0  0  0  0
    0.2087    1.8721   -0.0003 H   0  0  0  0  0  0  0  0  0  0  0  0
   -0.1391    0.7088    1.3957 H   0  0  0  0  0  0  0  0  0  0  0  0
  1  2  3  0
  2  3  1  0
  3  4  1  0
  4  5  1  0
  5  6  2  0
  6  7  1  0
  6  8  1  0
  8  3  1  0
  1  9  1  0
  3 10  1  0
  4 11  1  0
  4 12  1  0
  5 13  1  0
  7 14  1  0
  7 15  1  0
  7 16  1  0
  8 17  1  0
  8 18  1  0
M  END
