
     RDKit          3D

 17 16  0  0  0  0  0  0  0  0999 V2000
    1.7126   -2.4515   -0.3421 C   0  0  0  0  0  0  0  0  0  0  0  0
    1.0792   -1.5967   -0.0119 C   0  0  0  0  0  0  0  0  0  0  0  0
    0.0415   -0.1478    0.5258 C   0  0  0  0  0  0  0  0  0  0  0  0
    0.6726   -0.2099    1.9870 O   0  0  0  0  0  0  0  0  0  0  0  0
    0.9273    0.5901   -0.1060 C   0  0  0  0  0  0  0  0  0  0  0  0
    1.9605    1.4319   -0.8139 C   0  0  0  0  0  0  0  0  0  0  0  0
   -1.1806   -0.1980    0.2470 C   0  0  0  0  0  0  0  0  0  0  0  0
   -1.2622    0.8894   -1.0126 C   0  0  0  0  0  0  0  0  0  0  0  0
   -1.8720    0.7656    1.2473 O   0  0  0  0  0  0  0  0  0  0  0  0
    2.2370   -3.1531   -0.6303 H   0  0  0  0  0  0  0  0  0  0  0  0
    1.5269   -0.7508    2.0589 H   0  0  0  0  0  0  0  0  0  0  0  0
    2.7240    2.0749   -1.3507 H   0  0  0  0  0  0  0  0  0  0  0  0
   -2.0565   -0.8161    0.0251 H   0  0  0  0  0  0  0  0  0  0  0  0
   -2.3075    0.8644   -1.3127 H   0  0  0  0  0  0  0  0  0  0  0  0
   -0.4428    0.7658   -1.6786 H   0  0  0  0  0  0  0  0  0  0  0  0
   -1.1212    1.8691   -0.4472 H   0  0  0  0  0  0  0  0  0  0  0  0
   -2.6389    0.0727    1.6150 H   0  0  0  0  0  0  0  0  0  0  0  0
  1  2  3  0
  2  3  1  0
  3  4  1  0
  3  5  1  0
  5  6  3  0
  3  7  1  0
  7  8  1  0
  7  9  1  0
  1 10  1  0
  4 11  1  0
  6 12  1  0
  7 13  1  0
  8 14  1  0
  8 15  1  0
  8 16  1  0
  9 17  1  0
M  END
