
     RDKit          3D

 19 19  0  0  0  0  0  0  0  0999 V2000
    2.7680    0.9659   -0.6094 C   0  0  0  0  0  0  0  0  0  0  0  0
    1.6906    0.4433   -0.4528 C   0  0  0  0  0  0  0  0  0  0  0  0
    0.3924   -0.2096   -0.2546 C   0  0  0  0  0  0  0  0  0  0  0  0
    0.1751   -1.4371   -1.0872 C   0  0  0  0  0  0  0  0  0  0  0  0
   -0.7446    0.7075    0.0642 C   0  0  0  0  0  0  0  0  0  0  0  0
   -2.0207    0.4251   -0.6693 C   0  0  0  0  0  0  0  0  0  0  0  0
   -0.2175   -0.2233    1.0895 C   0  0  0  0  0  0  0  0  0  0  0  0
    0.5334    0.2936    2.2649 C   0  0  0  0  0  0  0  0  0  0  0  0
    1.3286    1.1909    2.1408 O   0  0  0  0  0  0  0  0  0  0  0  0
    3.7275    1.4139   -0.7582 H   0  0  0  0  0  0  0  0  0  0  0  0
    0.0808   -1.1955   -2.1680 H   0  0  0  0  0  0  0  0  0  0  0  0
    1.0666   -2.1025   -0.9298 H   0  0  0  0  0  0  0  0  0  0  0  0
   -0.6971   -2.0203   -0.7241 H   0  0  0  0  0  0  0  0  0  0  0  0
   -0.5182    1.7701    0.2173 H   0  0  0  0  0  0  0  0  0  0  0  0
   -2.9101    0.3973   -0.0367 H   0  0  0  0  0  0  0  0  0  0  0  0
   -2.1732    1.2530   -1.4126 H   0  0  0  0  0  0  0  0  0  0  0  0
   -1.9479   -0.5011   -1.2689 H   0  0  0  0  0  0  0  0  0  0  0  0
   -0.9270   -1.0584    1.3356 H   0  0  0  0  0  0  0  0  0  0  0  0
    0.3933   -0.1129    3.2592 H   0  0  0  0  0  0  0  0  0  0  0  0
  1  2  3  0
  2  3  1  0
  3  4  1  0
  3  5  1  0
  5  6  1  0
  5  7  1  0
  7  8  1  0
  8  9  2  0
  7  3  1  0
  1 10  1  0
  4 11  1  0
  4 12  1  0
  4 13  1  0
  5 14  1  0
  6 15  1  0
  6 16  1  0
  6 17  1  0
  7 18  1  0
  8 19  1  0
M  END
