
     RDKit          3D

 19 19  0  0  0  0  0  0  0  0999 V2000
    3.1733    0.2571   -0.3019 C   0  0  0  0  0  0  0  0  0  0  0  0
    2.2188   -0.4505   -0.0394 C   0  0  0  0  0  0  0  0  0  0  0  0
    1.0534   -1.2875    0.2877 C   0  0  0  0  0  0  0  0  0  0  0  0
    0.0790   -0.3562    1.0243 C   0  0  0  0  0  0  0  0  0  0  0  0
   -0.3024    0.5282   -0.1467 C   0  0  0  0  0  0  0  0  0  0  0  0
   -1.6337    1.2035    0.0675 C   0  0  0  0  0  0  0  0  0  0  0  0
   -2.6274    0.2700    0.2250 O   0  0  0  0  0  0  0  0  0  0  0  0
   -0.3715   -0.5137   -1.2534 C   0  0  0  0  0  0  0  0  0  0  0  0
    0.3714   -1.5888   -0.8577 O   0  0  0  0  0  0  0  0  0  0  0  0
    3.9947    0.8793   -0.5433 H   0  0  0  0  0  0  0  0  0  0  0  0
    1.3323   -2.1448    0.8906 H   0  0  0  0  0  0  0  0  0  0  0  0
    0.5896    0.2148    1.8202 H   0  0  0  0  0  0  0  0  0  0  0  0
   -0.8105   -0.9032    1.3675 H   0  0  0  0  0  0  0  0  0  0  0  0
    0.5084    1.2418   -0.3218 H   0  0  0  0  0  0  0  0  0  0  0  0
   -1.5289    1.8260    0.9859 H   0  0  0  0  0  0  0  0  0  0  0  0
   -1.8609    1.8419   -0.8069 H   0  0  0  0  0  0  0  0  0  0  0  0
   -2.6893   -0.1146    1.1323 H   0  0  0  0  0  0  0  0  0  0  0  0
   -0.0462   -0.0818   -2.2279 H   0  0  0  0  0  0  0  0  0  0  0  0
   -1.4503   -0.8213   -1.3021 H   0  0  0  0  0  0  0  0  0  0  0  0
  1  2  3  0
  2  3  1  0
  3  4  1  0
  4  5  1  0
  5  6  1  0
  6  7  1  0
  5  8  1  0
  8  9  1  0
  9  3  1  0
  1 10  1  0
  3 11  1  0
  4 12  1  0
  4 13  1  0
  5 14  1  0
  6 15  1  0
  6 16  1  0
  7 17  1  0
  8 18  1  0
  8 19  1  0
M  END
