
     RDKit          3D

 17 18  0  0  0  0  0  0  0  0999 V2000
    3.4053   -1.5303    0.0019 C   0  0  0  0  0  0  0  0  0  0  0  0
    2.3154   -1.0107   -0.0754 C   0  0  0  0  0  0  0  0  0  0  0  0
    1.0298   -0.3740   -0.1541 C   0  0  0  0  0  0  0  0  0  0  0  0
   -0.0674   -0.8726    0.3879 C   0  0  0  0  0  0  0  0  0  0  0  0
   -1.2097    0.0433    0.1131 C   0  0  0  0  0  0  0  0  0  0  0  0
   -0.5226    1.3544   -0.1120 C   0  0  0  0  0  0  0  0  0  0  0  0
    0.7531    0.9046   -0.8388 C   0  0  0  0  0  0  0  0  0  0  0  0
   -2.4976   -0.2027    0.5581 C   0  0  0  0  0  0  0  0  0  0  0  0
   -2.1863   -0.3917   -0.7852 O   0  0  0  0  0  0  0  0  0  0  0  0
    4.3804   -1.9747    0.0678 H   0  0  0  0  0  0  0  0  0  0  0  0
   -0.1872   -1.7893    0.9513 H   0  0  0  0  0  0  0  0  0  0  0  0
   -0.2534    1.8458    0.8574 H   0  0  0  0  0  0  0  0  0  0  0  0
   -1.1073    2.0611   -0.7291 H   0  0  0  0  0  0  0  0  0  0  0  0
    1.5777    1.6231   -0.6914 H   0  0  0  0  0  0  0  0  0  0  0  0
    0.5360    0.7887   -1.9097 H   0  0  0  0  0  0  0  0  0  0  0  0
   -3.2232    0.6320    0.7637 H   0  0  0  0  0  0  0  0  0  0  0  0
   -2.7431   -1.1070    1.1811 H   0  0  0  0  0  0  0  0  0  0  0  0
  1  2  3  0
  2  3  1  0
  3  4  2  0
  4  5  1  0
  5  6  1  0
  6  7  1  0
  5  8  1  0
  8  9  1  0
  7  3  1  0
  9  5  1  0
  1 10  1  0
  4 11  1  0
  6 12  1  0
  6 13  1  0
  7 14  1  0
  7 15  1  0
  8 16  1  0
  8 17  1  0
M  END
