
     RDKit          3D

 15 15  0  0  0  0  0  0  0  0999 V2000
    2.6246    1.6365   -1.2349 C   0  0  0  0  0  0  0  0  0  0  0  0
    1.5922    1.2254   -0.7696 C   0  0  0  0  0  0  0  0  0  0  0  0
    0.3239    0.7182   -0.2249 C   0  0  0  0  0  0  0  0  0  0  0  0
   -0.1489   -0.2635   -1.0611 O   0  0  0  0  0  0  0  0  0  0  0  0
   -0.9975   -1.1673   -0.4859 C   0  0  0  0  0  0  0  0  0  0  0  0
   -1.6155   -0.7231    0.8032 C   0  0  0  0  0  0  0  0  0  0  0  0
   -0.5363   -0.4673    1.7163 O   0  0  0  0  0  0  0  0  0  0  0  0
    0.5744    0.1377    1.1185 C   0  0  0  0  0  0  0  0  0  0  0  0
    1.6937    0.2030    1.6388 O   0  0  0  0  0  0  0  0  0  0  0  0
    3.5408    2.0207   -1.6552 H   0  0  0  0  0  0  0  0  0  0  0  0
   -0.4134    1.5476   -0.1784 H   0  0  0  0  0  0  0  0  0  0  0  0
   -0.4152   -2.1019   -0.2918 H   0  0  0  0  0  0  0  0  0  0  0  0
   -1.7922   -1.4258   -1.2192 H   0  0  0  0  0  0  0  0  0  0  0  0
   -2.2576   -1.5568    1.1681 H   0  0  0  0  0  0  0  0  0  0  0  0
   -2.1729    0.2166    0.6760 H   0  0  0  0  0  0  0  0  0  0  0  0
  1  2  3  0
  2  3  1  0
  3  4  1  0
  4  5  1  0
  5  6  1  0
  6  7  1  0
  7  8  1  0
  8  9  2  0
  8  3  1  0
  1 10  1  0
  3 11  1  0
  5 12  1  0
  5 13  1  0
  6 14  1  0
  6 15  1  0
M  END
