
     RDKit          3D

 17 16  0  0  0  0  0  0  0  0999 V2000
    2.9165    0.0963   -0.3955 C   0  0  0  0  0  0  0  0  0  0  0  0
    1.9935   -0.5177   -0.6864 C   0  0  0  0  0  0  0  0  0  0  0  0
    0.7576   -1.3267   -1.0992 C   0  0  0  0  0  0  0  0  0  0  0  0
   -0.2016   -1.0327   -0.0321 C   0  0  0  0  0  0  0  0  0  0  0  0
   -0.2647    0.3422    0.3199 C   0  0  0  0  0  0  0  0  0  0  0  0
   -1.0290    0.4863    1.6237 C   0  0  0  0  0  0  0  0  0  0  0  0
   -1.7280    0.6178    2.7698 C   0  0  0  0  0  0  0  0  0  0  0  0
   -1.0932    1.2720   -0.6162 C   0  0  0  0  0  0  0  0  0  0  0  0
   -1.7217    1.9579   -1.3296 C   0  0  0  0  0  0  0  0  0  0  0  0
    3.7958    0.6999   -0.1236 H   0  0  0  0  0  0  0  0  0  0  0  0
    1.1740   -2.4231   -0.8678 H   0  0  0  0  0  0  0  0  0  0  0  0
    0.6275   -1.2571   -2.1101 H   0  0  0  0  0  0  0  0  0  0  0  0
   -1.2478   -1.3436   -0.4764 H   0  0  0  0  0  0  0  0  0  0  0  0
   -0.1717   -1.7115    0.8409 H   0  0  0  0  0  0  0  0  0  0  0  0
    0.7020    0.8344    0.5415 H   0  0  0  0  0  0  0  0  0  0  0  0
   -2.2207    0.7160    3.6021 H   0  0  0  0  0  0  0  0  0  0  0  0
   -2.2886    2.5897   -1.9611 H   0  0  0  0  0  0  0  0  0  0  0  0
  1  2  3  0
  2  3  1  0
  3  4  1  0
  4  5  1  0
  5  6  1  0
  6  7  3  0
  5  8  1  0
  8  9  3  0
  1 10  1  0
  3 11  1  0
  3 12  1  0
  4 13  1  0
  4 14  1  0
  5 15  1  0
  7 16  1  0
  9 17  1  0
M  END
