
     RDKit          3D

 17 17  0  0  0  0  0  0  0  0999 V2000
    3.3391    0.9582   -0.7119 C   0  0  0  0  0  0  0  0  0  0  0  0
    2.3108    0.4002   -0.4166 C   0  0  0  0  0  0  0  0  0  0  0  0
    1.0601   -0.2980   -0.0351 C   0  0  0  0  0  0  0  0  0  0  0  0
   -0.0616   -0.1271   -1.0108 C   0  0  0  0  0  0  0  0  0  0  0  0
   -0.9450    0.1822    0.1733 C   0  0  0  0  0  0  0  0  0  0  0  0
   -1.7150   -1.0078    0.6793 C   0  0  0  0  0  0  0  0  0  0  0  0
   -1.7238    1.3346    0.0186 O   0  0  0  0  0  0  0  0  0  0  0  0
    0.2736    0.5102    0.9607 C   0  0  0  0  0  0  0  0  0  0  0  0
    0.6106    1.1171    1.9396 O   0  0  0  0  0  0  0  0  0  0  0  0
    4.2398    1.4532   -0.9896 H   0  0  0  0  0  0  0  0  0  0  0  0
    1.2574   -1.3065    0.3408 H   0  0  0  0  0  0  0  0  0  0  0  0
   -0.3856   -1.0809   -1.5194 H   0  0  0  0  0  0  0  0  0  0  0  0
    0.0823    0.7114   -1.7041 H   0  0  0  0  0  0  0  0  0  0  0  0
   -1.0703   -1.6221    1.3383 H   0  0  0  0  0  0  0  0  0  0  0  0
   -2.5707   -0.6248    1.2724 H   0  0  0  0  0  0  0  0  0  0  0  0
   -2.0417   -1.6109   -0.1735 H   0  0  0  0  0  0  0  0  0  0  0  0
   -2.6600    1.0111   -0.1620 H   0  0  0  0  0  0  0  0  0  0  0  0
  1  2  3  0
  2  3  1  0
  3  4  1  0
  4  5  1  0
  5  6  1  0
  5  7  1  0
  5  8  1  0
  8  9  2  0
  8  3  1  0
  1 10  1  0
  3 11  1  0
  4 12  1  0
  4 13  1  0
  6 14  1  0
  6 15  1  0
  6 16  1  0
  7 17  1  0
M  END
