
     RDKit          3D

 18 17  0  0  0  0  0  0  0  0999 V2000
    1.8416    1.9995    0.9967 C   0  0  0  0  0  0  0  0  0  0  0  0
    1.5113    1.0584    0.3313 C   0  0  0  0  0  0  0  0  0  0  0  0
    1.0904   -0.0874   -0.4964 C   0  0  0  0  0  0  0  0  0  0  0  0
    2.0299   -1.1581   -0.4914 C   0  0  0  0  0  0  0  0  0  0  0  0
    2.8509   -2.1165   -0.4702 C   0  0  0  0  0  0  0  0  0  0  0  0
   -0.2268   -0.5255    0.0531 C   0  0  0  0  0  0  0  0  0  0  0  0
   -1.2591    0.5950   -0.0099 C   0  0  0  0  0  0  0  0  0  0  0  0
   -2.5463    0.0761    0.5790 C   0  0  0  0  0  0  0  0  0  0  0  0
    2.1242    2.8588    1.5929 H   0  0  0  0  0  0  0  0  0  0  0  0
    0.8515    0.2635   -1.5477 H   0  0  0  0  0  0  0  0  0  0  0  0
    3.5383   -2.8960   -0.4416 H   0  0  0  0  0  0  0  0  0  0  0  0
   -0.2316   -1.0132    1.0296 H   0  0  0  0  0  0  0  0  0  0  0  0
   -0.6178   -1.2914   -0.6946 H   0  0  0  0  0  0  0  0  0  0  0  0
   -0.8838    1.5176    0.4796 H   0  0  0  0  0  0  0  0  0  0  0  0
   -1.4549    0.8835   -1.0678 H   0  0  0  0  0  0  0  0  0  0  0  0
   -3.1302    0.9422    0.9714 H   0  0  0  0  0  0  0  0  0  0  0  0
   -2.3531   -0.7185    1.2976 H   0  0  0  0  0  0  0  0  0  0  0  0
   -3.1344   -0.3880   -0.2554 H   0  0  0  0  0  0  0  0  0  0  0  0
  1  2  3  0
  2  3  1  0
  3  4  1  0
  4  5  3  0
  3  6  1  0
  6  7  1  0
  7  8  1  0
  1  9  1  0
  3 10  1  0
  5 11  1  0
  6 12  1  0
  6 13  1  0
  7 14  1  0
  7 15  1  0
  8 16  1  0
  8 17  1  0
  8 18  1  0
M  END
