
     RDKit          3D

 17 17  0  0  0  0  0  0  0  0999 V2000
    2.3939    1.9712   -0.1065 C   0  0  0  0  0  0  0  0  0  0  0  0
    1.7565    0.9598   -0.3013 C   0  0  0  0  0  0  0  0  0  0  0  0
    0.9897   -0.2738   -0.5624 C   0  0  0  0  0  0  0  0  0  0  0  0
    0.5535   -0.8293    0.7539 C   0  0  0  0  0  0  0  0  0  0  0  0
   -0.7656   -0.3878    1.2077 C   0  0  0  0  0  0  0  0  0  0  0  0
   -1.1199   -0.5158    2.3460 O   0  0  0  0  0  0  0  0  0  0  0  0
   -1.6611    0.2276    0.2145 C   0  0  0  0  0  0  0  0  0  0  0  0
   -1.2604   -0.4228   -1.1176 C   0  0  0  0  0  0  0  0  0  0  0  0
   -0.0177    0.0653   -1.4230 O   0  0  0  0  0  0  0  0  0  0  0  0
    2.9484    2.8541    0.0815 H   0  0  0  0  0  0  0  0  0  0  0  0
    1.6810   -1.0035   -1.0302 H   0  0  0  0  0  0  0  0  0  0  0  0
    0.6131   -1.9555    0.7179 H   0  0  0  0  0  0  0  0  0  0  0  0
    1.2977   -0.5167    1.5356 H   0  0  0  0  0  0  0  0  0  0  0  0
   -1.3816    1.2978    0.1157 H   0  0  0  0  0  0  0  0  0  0  0  0
   -2.7300    0.0804    0.4209 H   0  0  0  0  0  0  0  0  0  0  0  0
   -1.9730   -0.0464   -1.8734 H   0  0  0  0  0  0  0  0  0  0  0  0
   -1.3246   -1.5044   -0.9794 H   0  0  0  0  0  0  0  0  0  0  0  0
  1  2  3  0
  2  3  1  0
  3  4  1  0
  4  5  1  0
  5  6  2  0
  5  7  1  0
  7  8  1  0
  8  9  1  0
  9  3  1  0
  1 10  1  0
  3 11  1  0
  4 12  1  0
  4 13  1  0
  7 14  1  0
  7 15  1  0
  8 16  1  0
  8 17  1  0
M  END
