
     RDKit          3D

 17 17  0  0  0  0  0  0  0  0999 V2000
    2.0746   -0.6842    1.8573 C   0  0  0  0  0  0  0  0  0  0  0  0
    1.2372   -0.2752    1.0945 C   0  0  0  0  0  0  0  0  0  0  0  0
    0.2242    0.1975    0.1879 C   0  0  0  0  0  0  0  0  0  0  0  0
    0.1196    1.7220    0.0826 C   0  0  0  0  0  0  0  0  0  0  0  0
   -1.1523   -0.3740    0.5843 C   0  0  0  0  0  0  0  0  0  0  0  0
   -1.5925   -0.6214    1.6686 O   0  0  0  0  0  0  0  0  0  0  0  0
   -1.4740   -0.4062   -0.8418 C   0  0  0  0  0  0  0  0  0  0  0  0
    0.0370   -0.4433   -1.1260 C   0  0  0  0  0  0  0  0  0  0  0  0
    0.5615   -1.6701   -1.3617 O   0  0  0  0  0  0  0  0  0  0  0  0
    2.8425   -1.0443    2.5343 H   0  0  0  0  0  0  0  0  0  0  0  0
   -0.5724    2.0131   -0.7103 H   0  0  0  0  0  0  0  0  0  0  0  0
   -0.3226    2.1223    1.0481 H   0  0  0  0  0  0  0  0  0  0  0  0
    1.1324    2.1632   -0.0946 H   0  0  0  0  0  0  0  0  0  0  0  0
   -1.9247    0.5772   -1.1394 H   0  0  0  0  0  0  0  0  0  0  0  0
   -2.0018   -1.2704   -1.2541 H   0  0  0  0  0  0  0  0  0  0  0  0
    0.1933    0.2360   -2.0039 H   0  0  0  0  0  0  0  0  0  0  0  0
    0.6180   -2.2424   -0.5258 H   0  0  0  0  0  0  0  0  0  0  0  0
  1  2  3  0
  2  3  1  0
  3  4  1  0
  3  5  1  0
  5  6  2  0
  5  7  1  0
  7  8  1  0
  8  9  1  0
  8  3  1  0
  1 10  1  0
  4 11  1  0
  4 12  1  0
  4 13  1  0
  7 14  1  0
  7 15  1  0
  8 16  1  0
  9 17  1  0
M  END
