
     RDKit          3D

 21 20  0  0  0  0  0  0  0  0999 V2000
    1.5519    1.9419   -1.7782 C   0  0  0  0  0  0  0  0  0  0  0  0
    1.3125    1.3797   -0.7382 C   0  0  0  0  0  0  0  0  0  0  0  0
    1.0243    0.7210    0.5337 C   0  0  0  0  0  0  0  0  0  0  0  0
    0.1908   -0.5052    0.2674 C   0  0  0  0  0  0  0  0  0  0  0  0
    0.9903   -1.4123   -0.6344 C   0  0  0  0  0  0  0  0  0  0  0  0
   -0.0544   -1.2113    1.5507 C   0  0  0  0  0  0  0  0  0  0  0  0
   -0.5237   -0.6472    2.5227 O   0  0  0  0  0  0  0  0  0  0  0  0
   -1.1066   -0.2004   -0.4106 C   0  0  0  0  0  0  0  0  0  0  0  0
   -2.0000    0.7112    0.3607 C   0  0  0  0  0  0  0  0  0  0  0  0
    1.7775    2.4357   -2.6908 H   0  0  0  0  0  0  0  0  0  0  0  0
    1.9406    0.4187    1.0798 H   0  0  0  0  0  0  0  0  0  0  0  0
    0.4617    1.4072    1.2254 H   0  0  0  0  0  0  0  0  0  0  0  0
    2.0567   -1.2447   -0.4273 H   0  0  0  0  0  0  0  0  0  0  0  0
    0.7988   -1.0896   -1.6809 H   0  0  0  0  0  0  0  0  0  0  0  0
    0.6920   -2.4757   -0.5375 H   0  0  0  0  0  0  0  0  0  0  0  0
    0.1786   -2.2620    1.6653 H   0  0  0  0  0  0  0  0  0  0  0  0
   -0.9265    0.2001   -1.4368 H   0  0  0  0  0  0  0  0  0  0  0  0
   -1.6423   -1.1605   -0.5563 H   0  0  0  0  0  0  0  0  0  0  0  0
   -2.1877    1.6386   -0.2435 H   0  0  0  0  0  0  0  0  0  0  0  0
   -2.9847    0.2840    0.6177 H   0  0  0  0  0  0  0  0  0  0  0  0
   -1.5501    1.0707    1.3109 H   0  0  0  0  0  0  0  0  0  0  0  0
  1  2  3  0
  2  3  1  0
  3  4  1  0
  4  5  1  0
  4  6  1  0
  6  7  2  0
  4  8  1  0
  8  9  1  0
  1 10  1  0
  3 11  1  0
  3 12  1  0
  5 13  1  0
  5 14  1  0
  5 15  1  0
  6 16  1  0
  8 17  1  0
  8 18  1  0
  9 19  1  0
  9 20  1  0
  9 21  1  0
M  END
