
     RDKit          3D

 23 23  0  0  0  0  0  0  0  0999 V2000
   -3.0954    0.0838   -0.4796 C   0  0  0  0  0  0  0  0  0  0  0  0
   -2.3200   -0.8636   -0.5341 C   0  0  0  0  0  0  0  0  0  0  0  0
   -1.4286   -1.9784   -0.5789 C   0  0  0  0  0  0  0  0  0  0  0  0
   -0.3071   -2.0532    0.3462 C   0  0  0  0  0  0  0  0  0  0  0  0
    0.8552   -1.1712    0.3476 C   0  0  0  0  0  0  0  0  0  0  0  0
    0.6394    0.2886    0.4762 C   0  0  0  0  0  0  0  0  0  0  0  0
   -0.0700    1.0570   -0.5311 C   0  0  0  0  0  0  0  0  0  0  0  0
    1.4536    1.2688   -0.2588 C   0  0  0  0  0  0  0  0  0  0  0  0
    1.7695    2.6313    0.2449 C   0  0  0  0  0  0  0  0  0  0  0  0
   -3.7460    0.9042   -0.4414 H   0  0  0  0  0  0  0  0  0  0  0  0
   -1.0754   -2.0927   -1.6657 H   0  0  0  0  0  0  0  0  0  0  0  0
   -2.0804   -2.8983   -0.3852 H   0  0  0  0  0  0  0  0  0  0  0  0
   -0.7647   -2.1229    1.4150 H   0  0  0  0  0  0  0  0  0  0  0  0
    0.0656   -3.1573    0.2758 H   0  0  0  0  0  0  0  0  0  0  0  0
    1.5020   -1.3888   -0.5802 H   0  0  0  0  0  0  0  0  0  0  0  0
    1.5660   -1.5262    1.1934 H   0  0  0  0  0  0  0  0  0  0  0  0
    0.3702    0.5540    1.5712 H   0  0  0  0  0  0  0  0  0  0  0  0
   -0.2671    0.7384   -1.5804 H   0  0  0  0  0  0  0  0  0  0  0  0
   -0.7547    1.8609   -0.2086 H   0  0  0  0  0  0  0  0  0  0  0  0
    2.1467    0.8912   -1.0339 H   0  0  0  0  0  0  0  0  0  0  0  0
    2.0385    3.3576   -0.5316 H   0  0  0  0  0  0  0  0  0  0  0  0
    2.6170    2.6252    0.9753 H   0  0  0  0  0  0  0  0  0  0  0  0
    0.8856    2.9916    0.8399 H   0  0  0  0  0  0  0  0  0  0  0  0
  1  2  3  0
  2  3  1  0
  3  4  1  0
  4  5  1  0
  5  6  1  0
  6  7  1  0
  7  8  1  0
  8  9  1  0
  8  6  1  0
  1 10  1  0
  3 11  1  0
  3 12  1  0
  4 13  1  0
  4 14  1  0
  5 15  1  0
  5 16  1  0
  6 17  1  0
  7 18  1  0
  7 19  1  0
  8 20  1  0
  9 21  1  0
  9 22  1  0
  9 23  1  0
M  END
