
     RDKit          3D

 17 18  0  0  0  0  0  0  0  0999 V2000
    2.5870    0.4290   -0.2270 C   0  0  0  0  0  0  0  0  0  0  0  0
    1.4100    0.6135   -0.1260 C   0  0  0  0  0  0  0  0  0  0  0  0
   -0.0007    0.8425   -0.0173 C   0  0  0  0  0  0  0  0  0  0  0  0
   -0.8002    1.3899   -1.1692 C   0  0  0  0  0  0  0  0  0  0  0  0
   -1.4891    0.1536   -1.1743 O   0  0  0  0  0  0  0  0  0  0  0  0
   -0.9340   -0.3929   -0.0503 C   0  0  0  0  0  0  0  0  0  0  0  0
   -0.2697   -1.7357   -0.2053 C   0  0  0  0  0  0  0  0  0  0  0  0
   -0.8002    0.4233    1.1587 C   0  0  0  0  0  0  0  0  0  0  0  0
   -0.1038    0.0453    2.2677 O   0  0  0  0  0  0  0  0  0  0  0  0
    3.6499    0.2789   -0.3273 H   0  0  0  0  0  0  0  0  0  0  0  0
   -1.4937    2.1841   -0.7941 H   0  0  0  0  0  0  0  0  0  0  0  0
   -0.2536    1.6157   -2.0866 H   0  0  0  0  0  0  0  0  0  0  0  0
    0.3323   -1.7472   -1.1467 H   0  0  0  0  0  0  0  0  0  0  0  0
    0.4021   -2.0021    0.6052 H   0  0  0  0  0  0  0  0  0  0  0  0
   -1.0548   -2.4914   -0.2767 H   0  0  0  0  0  0  0  0  0  0  0  0
   -1.6691    1.1079    1.3844 H   0  0  0  0  0  0  0  0  0  0  0  0
    0.4876   -0.7144    2.1848 H   0  0  0  0  0  0  0  0  0  0  0  0
  1  2  3  0
  2  3  1  0
  3  4  1  0
  4  5  1  0
  5  6  1  0
  6  7  1  0
  6  8  1  0
  8  9  1  0
  6  3  1  0
  8  3  1  0
  1 10  1  0
  4 11  1  0
  4 12  1  0
  7 13  1  0
  7 14  1  0
  7 15  1  0
  8 16  1  0
  9 17  1  0
M  END
