
     RDKit          3D

 15 15  0  0  0  0  0  0  0  0999 V2000
    3.0557    1.8331    0.1622 C   0  0  0  0  0  0  0  0  0  0  0  0
    2.1497    0.8063   -0.0761 C   0  0  0  0  0  0  0  0  0  0  0  0
    1.2268   -0.2695   -0.3378 C   0  0  0  0  0  0  0  0  0  0  0  0
   -0.1326    0.0866   -0.1203 C   0  0  0  0  0  0  0  0  0  0  0  0
   -1.3874    0.4001    0.0922 C   0  0  0  0  0  0  0  0  0  0  0  0
   -2.6644    0.7160    0.3063 C   0  0  0  0  0  0  0  0  0  0  0  0
   -3.5750   -0.4053    0.2492 O   0  0  0  0  0  0  0  0  0  0  0  0
    1.6374   -1.6853   -0.4015 C   0  0  0  0  0  0  0  0  0  0  0  0
    1.4940   -1.0106   -1.5577 O   0  0  0  0  0  0  0  0  0  0  0  0
    3.6889    2.5768    0.3328 H   0  0  0  0  0  0  0  0  0  0  0  0
   -2.8944    1.2011    1.3251 H   0  0  0  0  0  0  0  0  0  0  0  0
   -3.1146    1.4548   -0.4396 H   0  0  0  0  0  0  0  0  0  0  0  0
   -3.0576   -1.2106    0.5987 H   0  0  0  0  0  0  0  0  0  0  0  0
    0.9004   -2.4591   -0.1382 H   0  0  0  0  0  0  0  0  0  0  0  0
    2.6729   -2.0344   -0.1777 H   0  0  0  0  0  0  0  0  0  0  0  0
  1  2  3  0
  2  3  1  0
  3  4  1  0
  4  5  3  0
  5  6  1  0
  6  7  1  0
  3  8  1  0
  8  9  1  0
  9  3  1  0
  1 10  1  0
  6 11  1  0
  6 12  1  0
  7 13  1  0
  8 14  1  0
  8 15  1  0
M  END
