
     RDKit          3D

 17 18  0  0  0  0  0  0  0  0999 V2000
    3.3575   -1.1472   -0.0724 C   0  0  0  0  0  0  0  0  0  0  0  0
    2.2475   -0.7177    0.1334 C   0  0  0  0  0  0  0  0  0  0  0  0
    0.9347   -0.2012    0.4012 C   0  0  0  0  0  0  0  0  0  0  0  0
    0.0336   -0.7966    1.1682 C   0  0  0  0  0  0  0  0  0  0  0  0
   -1.1638    0.0775    1.1140 C   0  0  0  0  0  0  0  0  0  0  0  0
   -1.7594   -0.0677   -0.2643 C   0  0  0  0  0  0  0  0  0  0  0  0
   -0.7825    0.7492   -1.1049 C   0  0  0  0  0  0  0  0  0  0  0  0
    0.2880    1.0485   -0.0781 C   0  0  0  0  0  0  0  0  0  0  0  0
   -0.5307    1.3428    1.0414 O   0  0  0  0  0  0  0  0  0  0  0  0
    4.3294   -1.5318   -0.2429 H   0  0  0  0  0  0  0  0  0  0  0  0
    0.0717   -1.7104    1.7411 H   0  0  0  0  0  0  0  0  0  0  0  0
   -1.8477   -0.0197    1.9318 H   0  0  0  0  0  0  0  0  0  0  0  0
   -1.6618   -1.1145   -0.6147 H   0  0  0  0  0  0  0  0  0  0  0  0
   -2.7905    0.3250   -0.3278 H   0  0  0  0  0  0  0  0  0  0  0  0
   -1.2703    1.7115   -1.3476 H   0  0  0  0  0  0  0  0  0  0  0  0
   -0.4186    0.2094   -1.9791 H   0  0  0  0  0  0  0  0  0  0  0  0
    0.9628    1.8427   -0.3371 H   0  0  0  0  0  0  0  0  0  0  0  0
  1  2  3  0
  2  3  1  0
  3  4  2  0
  4  5  1  0
  5  6  1  0
  6  7  1  0
  7  8  1  0
  8  9  1  0
  8  3  1  0
  9  5  1  0
  1 10  1  0
  4 11  1  0
  5 12  1  0
  6 13  1  0
  6 14  1  0
  7 15  1  0
  7 16  1  0
  8 17  1  0
M  END
