
     RDKit          3D

 17 17  0  0  0  0  0  0  0  0999 V2000
    2.7018   -1.2498   -0.5634 C   0  0  0  0  0  0  0  0  0  0  0  0
    1.7863   -0.6548   -0.0426 C   0  0  0  0  0  0  0  0  0  0  0  0
    0.6925    0.0601    0.6081 C   0  0  0  0  0  0  0  0  0  0  0  0
    0.6608    1.5503    0.3479 C   0  0  0  0  0  0  0  0  0  0  0  0
   -0.8150    1.4325    0.1788 C   0  0  0  0  0  0  0  0  0  0  0  0
   -1.7444    2.2043    0.2551 O   0  0  0  0  0  0  0  0  0  0  0  0
   -0.6140   -0.0117   -0.1137 C   0  0  0  0  0  0  0  0  0  0  0  0
   -1.6546   -0.8585    0.6019 C   0  0  0  0  0  0  0  0  0  0  0  0
   -0.4653   -0.2821   -1.4540 O   0  0  0  0  0  0  0  0  0  0  0  0
    3.5160   -1.7788   -1.0069 H   0  0  0  0  0  0  0  0  0  0  0  0
    0.5702   -0.1600    1.6859 H   0  0  0  0  0  0  0  0  0  0  0  0
    1.1422    1.8244   -0.6110 H   0  0  0  0  0  0  0  0  0  0  0  0
    0.9912    2.1329    1.2188 H   0  0  0  0  0  0  0  0  0  0  0  0
   -1.4309   -0.8042    1.6868 H   0  0  0  0  0  0  0  0  0  0  0  0
   -1.5227   -1.9007    0.2878 H   0  0  0  0  0  0  0  0  0  0  0  0
   -2.6780   -0.5249    0.3605 H   0  0  0  0  0  0  0  0  0  0  0  0
   -1.1360   -0.9791   -1.7338 H   0  0  0  0  0  0  0  0  0  0  0  0
  1  2  3  0
  2  3  1  0
  3  4  1  0
  4  5  1  0
  5  6  2  0
  5  7  1  0
  7  8  1  0
  7  9  1  0
  7  3  1  0
  1 10  1  0
  3 11  1  0
  4 12  1  0
  4 13  1  0
  8 14  1  0
  8 15  1  0
  8 16  1  0
  9 17  1  0
M  END
