
     RDKit          3D

 16 16  0  0  0  0  0  0  0  0999 V2000
    3.0931    1.0589   -0.3073 C   0  0  0  0  0  0  0  0  0  0  0  0
    1.9892    0.6484   -0.5822 C   0  0  0  0  0  0  0  0  0  0  0  0
    0.6461    0.1664   -0.8964 C   0  0  0  0  0  0  0  0  0  0  0  0
   -0.4132    1.1808   -0.6878 O   0  0  0  0  0  0  0  0  0  0  0  0
   -0.3323   -0.0519    0.1061 C   0  0  0  0  0  0  0  0  0  0  0  0
   -0.1076    0.1553    1.5708 C   0  0  0  0  0  0  0  0  0  0  0  0
   -1.5128   -0.9583   -0.2114 C   0  0  0  0  0  0  0  0  0  0  0  0
   -1.5452   -1.3154   -1.5481 O   0  0  0  0  0  0  0  0  0  0  0  0
    4.0644    1.4120   -0.0554 H   0  0  0  0  0  0  0  0  0  0  0  0
    0.5171   -0.3044   -1.9016 H   0  0  0  0  0  0  0  0  0  0  0  0
    0.9264   -0.1341    1.8118 H   0  0  0  0  0  0  0  0  0  0  0  0
   -0.7680   -0.4691    2.2073 H   0  0  0  0  0  0  0  0  0  0  0  0
   -0.3120    1.2173    1.8926 H   0  0  0  0  0  0  0  0  0  0  0  0
   -2.4630   -0.4633    0.0952 H   0  0  0  0  0  0  0  0  0  0  0  0
   -1.3610   -1.8760    0.4206 H   0  0  0  0  0  0  0  0  0  0  0  0
   -2.4211   -1.0875   -1.9143 H   0  0  0  0  0  0  0  0  0  0  0  0
  1  2  3  0
  2  3  1  0
  3  4  1  0
  4  5  1  0
  5  6  1  0
  5  7  1  0
  7  8  1  0
  5  3  1  0
  1  9  1  0
  3 10  1  0
  6 11  1  0
  6 12  1  0
  6 13  1  0
  7 14  1  0
  7 15  1  0
  8 16  1  0
M  END
