
     RDKit          3D

 17 17  0  0  0  0  0  0  0  0999 V2000
   -2.6178   -0.9545    2.2470 C   0  0  0  0  0  0  0  0  0  0  0  0
   -1.7986   -0.8047    1.5366 C   0  0  0  0  0  0  0  0  0  0  0  0
   -0.7743   -0.6323    0.6285 C   0  0  0  0  0  0  0  0  0  0  0  0
   -1.1369   -0.4450   -0.8316 C   0  0  0  0  0  0  0  0  0  0  0  0
   -0.0090   -0.0806   -1.4156 C   0  0  0  0  0  0  0  0  0  0  0  0
    1.1281    0.0126   -0.4533 C   0  0  0  0  0  0  0  0  0  0  0  0
    1.9761    1.2104   -0.8023 C   0  0  0  0  0  0  0  0  0  0  0  0
    0.2953    0.3250    0.7928 C   0  0  0  0  0  0  0  0  0  0  0  0
    0.5420    1.1327    1.5867 O   0  0  0  0  0  0  0  0  0  0  0  0
   -3.5659   -1.1137    3.0449 H   0  0  0  0  0  0  0  0  0  0  0  0
   -0.1910   -1.6880    0.5761 H   0  0  0  0  0  0  0  0  0  0  0  0
   -2.0829   -0.5989   -1.2789 H   0  0  0  0  0  0  0  0  0  0  0  0
    0.0770    0.1003   -2.5023 H   0  0  0  0  0  0  0  0  0  0  0  0
    1.6623   -0.9354   -0.3550 H   0  0  0  0  0  0  0  0  0  0  0  0
    1.9980    1.9441    0.0136 H   0  0  0  0  0  0  0  0  0  0  0  0
    1.5163    1.6554   -1.7185 H   0  0  0  0  0  0  0  0  0  0  0  0
    2.9813    0.8729   -1.0687 H   0  0  0  0  0  0  0  0  0  0  0  0
  1  2  3  0
  2  3  1  0
  3  4  1  0
  4  5  2  0
  5  6  1  0
  6  7  1  0
  6  8  1  0
  8  9  2  0
  8  3  1  0
  1 10  1  0
  3 11  1  0
  4 12  1  0
  5 13  1  0
  6 14  1  0
  7 15  1  0
  7 16  1  0
  7 17  1  0
M  END
