
     RDKit          3D

 15 15  0  0  0  0  0  0  0  0999 V2000
    1.4024   -0.9190    2.4246 C   0  0  0  0  0  0  0  0  0  0  0  0
    0.6880   -0.8900    1.4167 C   0  0  0  0  0  0  0  0  0  0  0  0
   -0.1571   -0.8756    0.1973 C   0  0  0  0  0  0  0  0  0  0  0  0
   -1.2563    0.0980    0.2561 C   0  0  0  0  0  0  0  0  0  0  0  0
   -2.3303    0.1869    0.8354 O   0  0  0  0  0  0  0  0  0  0  0  0
   -0.5799    1.0221   -0.7012 C   0  0  0  0  0  0  0  0  0  0  0  0
   -0.1215    2.1613   -0.0082 O   0  0  0  0  0  0  0  0  0  0  0  0
    0.4814   -0.0431   -0.9004 C   0  0  0  0  0  0  0  0  0  0  0  0
    0.4697   -0.6571   -2.1482 O   0  0  0  0  0  0  0  0  0  0  0  0
    2.0170   -0.9529    3.2647 H   0  0  0  0  0  0  0  0  0  0  0  0
   -0.4939   -1.8852   -0.1014 H   0  0  0  0  0  0  0  0  0  0  0  0
   -1.0949    1.2379   -1.6347 H   0  0  0  0  0  0  0  0  0  0  0  0
   -0.7732    2.8921   -0.2317 H   0  0  0  0  0  0  0  0  0  0  0  0
    1.5105    0.2508   -0.6322 H   0  0  0  0  0  0  0  0  0  0  0  0
    0.2381   -1.6261   -2.0367 H   0  0  0  0  0  0  0  0  0  0  0  0
  1  2  3  0
  2  3  1  0
  3  4  1  0
  4  5  2  0
  4  6  1  0
  6  7  1  0
  6  8  1  0
  8  9  1  0
  8  3  1  0
  1 10  1  0
  3 11  1  0
  6 12  1  0
  7 13  1  0
  8 14  1  0
  9 15  1  0
M  END
