
     RDKit          3D

 17 17  0  0  0  0  0  0  0  0999 V2000
    2.7102    0.6507    0.6082 C   0  0  0  0  0  0  0  0  0  0  0  0
    1.5169    0.5019    0.5736 C   0  0  0  0  0  0  0  0  0  0  0  0
    0.0492    0.2949    0.5209 C   0  0  0  0  0  0  0  0  0  0  0  0
   -0.5440    1.1687    1.3970 O   0  0  0  0  0  0  0  0  0  0  0  0
   -0.2271   -1.1514    0.8036 C   0  0  0  0  0  0  0  0  0  0  0  0
   -1.3638   -1.4111    0.0227 O   0  0  0  0  0  0  0  0  0  0  0  0
   -0.9534   -0.9169   -1.2201 C   0  0  0  0  0  0  0  0  0  0  0  0
   -0.4329    0.4493   -0.9065 C   0  0  0  0  0  0  0  0  0  0  0  0
   -1.3980    1.4397   -1.0273 O   0  0  0  0  0  0  0  0  0  0  0  0
    3.7746    0.7654    0.6390 H   0  0  0  0  0  0  0  0  0  0  0  0
   -0.8042    0.7543    2.2488 H   0  0  0  0  0  0  0  0  0  0  0  0
   -0.4127   -1.3063    1.8815 H   0  0  0  0  0  0  0  0  0  0  0  0
    0.6042   -1.7448    0.4093 H   0  0  0  0  0  0  0  0  0  0  0  0
   -1.7491   -0.9342   -1.9765 H   0  0  0  0  0  0  0  0  0  0  0  0
   -0.0886   -1.5718   -1.5215 H   0  0  0  0  0  0  0  0  0  0  0  0
    0.3903    0.6786   -1.6134 H   0  0  0  0  0  0  0  0  0  0  0  0
   -1.0716    2.3331   -0.8394 H   0  0  0  0  0  0  0  0  0  0  0  0
  1  2  3  0
  2  3  1  0
  3  4  1  0
  3  5  1  0
  5  6  1  0
  6  7  1  0
  7  8  1  0
  8  9  1  0
  8  3  1  0
  1 10  1  0
  4 11  1  0
  5 12  1  0
  5 13  1  0
  7 14  1  0
  7 15  1  0
  8 16  1  0
  9 17  1  0
M  END
