
     RDKit          3D

 15 14  0  0  0  0  0  0  0  0999 V2000
   -1.1902    2.3406   -0.4136 C   0  0  0  0  0  0  0  0  0  0  0  0
   -0.5665    1.3420   -0.0894 C   0  0  0  0  0  0  0  0  0  0  0  0
    0.1860    0.1427    0.2741 C   0  0  0  0  0  0  0  0  0  0  0  0
    0.3715   -0.7801   -0.9085 C   0  0  0  0  0  0  0  0  0  0  0  0
    1.0668   -0.1458   -1.9362 O   0  0  0  0  0  0  0  0  0  0  0  0
   -0.4968   -0.5218    1.4275 C   0  0  0  0  0  0  0  0  0  0  0  0
    0.1752   -1.6785    1.8244 O   0  0  0  0  0  0  0  0  0  0  0  0
   -1.7212    3.2049   -0.6786 H   0  0  0  0  0  0  0  0  0  0  0  0
    1.1946    0.4675    0.6273 H   0  0  0  0  0  0  0  0  0  0  0  0
   -0.6435   -1.0198   -1.3391 H   0  0  0  0  0  0  0  0  0  0  0  0
    0.8710   -1.7102   -0.6539 H   0  0  0  0  0  0  0  0  0  0  0  0
    1.8682    0.2947   -1.5694 H   0  0  0  0  0  0  0  0  0  0  0  0
   -1.5729   -0.7055    1.2761 H   0  0  0  0  0  0  0  0  0  0  0  0
   -0.4336    0.1936    2.2923 H   0  0  0  0  0  0  0  0  0  0  0  0
    0.8913   -1.4244    2.4480 H   0  0  0  0  0  0  0  0  0  0  0  0
  1  2  3  0
  2  3  1  0
  3  4  1  0
  4  5  1  0
  3  6  1  0
  6  7  1  0
  1  8  1  0
  3  9  1  0
  4 10  1  0
  4 11  1  0
  5 12  1  0
  6 13  1  0
  6 14  1  0
  7 15  1  0
M  END
