
     RDKit          3D

 21 21  0  0  0  0  0  0  0  0999 V2000
    3.3257    1.0852    0.3514 C   0  0  0  0  0  0  0  0  0  0  0  0
    2.4867    0.4588    0.9784 C   0  0  0  0  0  0  0  0  0  0  0  0
    1.4958   -0.3039    1.7481 C   0  0  0  0  0  0  0  0  0  0  0  0
    0.2489   -0.0458    1.1848 O   0  0  0  0  0  0  0  0  0  0  0  0
    0.1851   -0.4236   -0.1369 C   0  0  0  0  0  0  0  0  0  0  0  0
   -1.0025   -1.3515   -0.4054 C   0  0  0  0  0  0  0  0  0  0  0  0
   -2.1817   -0.4083   -0.4403 C   0  0  0  0  0  0  0  0  0  0  0  0
   -1.6234    0.9473   -0.7115 C   0  0  0  0  0  0  0  0  0  0  0  0
   -0.1454    0.7310   -1.0585 C   0  0  0  0  0  0  0  0  0  0  0  0
    4.0539    1.6306   -0.1923 H   0  0  0  0  0  0  0  0  0  0  0  0
    1.5316    0.0144    2.7936 H   0  0  0  0  0  0  0  0  0  0  0  0
    1.6857   -1.3935    1.6386 H   0  0  0  0  0  0  0  0  0  0  0  0
    1.1331   -0.8639   -0.5156 H   0  0  0  0  0  0  0  0  0  0  0  0
   -0.8502   -1.7690   -1.4246 H   0  0  0  0  0  0  0  0  0  0  0  0
   -1.0940   -2.1451    0.3308 H   0  0  0  0  0  0  0  0  0  0  0  0
   -2.7589   -0.4378    0.5275 H   0  0  0  0  0  0  0  0  0  0  0  0
   -2.9141   -0.7274   -1.2172 H   0  0  0  0  0  0  0  0  0  0  0  0
   -1.7249    1.5732    0.2009 H   0  0  0  0  0  0  0  0  0  0  0  0
   -2.1710    1.4303   -1.5310 H   0  0  0  0  0  0  0  0  0  0  0  0
   -0.1037    0.3666   -2.0856 H   0  0  0  0  0  0  0  0  0  0  0  0
    0.4234    1.6324   -0.8424 H   0  0  0  0  0  0  0  0  0  0  0  0
  1  2  3  0
  2  3  1  0
  3  4  1  0
  4  5  1  0
  5  6  1  0
  6  7  1  0
  7  8  1  0
  8  9  1  0
  9  5  1  0
  1 10  1  0
  3 11  1  0
  3 12  1  0
  5 13  1  0
  6 14  1  0
  6 15  1  0
  7 16  1  0
  7 17  1  0
  8 18  1  0
  8 19  1  0
  9 20  1  0
  9 21  1  0
M  END
