
     RDKit          3D

 17 18  0  0  0  0  0  0  0  0999 V2000
    3.1091    0.4596   -0.7075 C   0  0  0  0  0  0  0  0  0  0  0  0
    2.0022    0.3753   -0.2357 C   0  0  0  0  0  0  0  0  0  0  0  0
    0.6591    0.2573    0.3156 C   0  0  0  0  0  0  0  0  0  0  0  0
    0.3714    0.3514    1.5879 C   0  0  0  0  0  0  0  0  0  0  0  0
   -1.0802    0.1812    1.7663 C   0  0  0  0  0  0  0  0  0  0  0  0
   -1.5943   -0.1807    0.4039 C   0  0  0  0  0  0  0  0  0  0  0  0
   -1.6133    0.9017   -0.4791 O   0  0  0  0  0  0  0  0  0  0  0  0
   -0.5443    0.0114   -0.4999 C   0  0  0  0  0  0  0  0  0  0  0  0
   -0.3825   -0.6577   -1.8492 C   0  0  0  0  0  0  0  0  0  0  0  0
    4.0908    0.5159   -1.1292 H   0  0  0  0  0  0  0  0  0  0  0  0
    1.1152    0.5328    2.4097 H   0  0  0  0  0  0  0  0  0  0  0  0
   -1.4667    1.1782    2.0930 H   0  0  0  0  0  0  0  0  0  0  0  0
   -1.3237   -0.5981    2.5304 H   0  0  0  0  0  0  0  0  0  0  0  0
   -2.4039   -0.9320    0.3047 H   0  0  0  0  0  0  0  0  0  0  0  0
    0.6751   -1.0280   -1.9168 H   0  0  0  0  0  0  0  0  0  0  0  0
   -1.0994   -1.5042   -1.9800 H   0  0  0  0  0  0  0  0  0  0  0  0
   -0.5144    0.1357   -2.6141 H   0  0  0  0  0  0  0  0  0  0  0  0
  1  2  3  0
  2  3  1  0
  3  4  2  0
  4  5  1  0
  5  6  1  0
  6  7  1  0
  7  8  1  0
  8  9  1  0
  8  3  1  0
  8  6  1  0
  1 10  1  0
  4 11  1  0
  5 12  1  0
  5 13  1  0
  6 14  1  0
  9 15  1  0
  9 16  1  0
  9 17  1  0
M  END
