
     RDKit          3D

 17 18  0  0  0  0  0  0  0  0999 V2000
    2.9653   -0.6216   -0.0064 C   0  0  0  0  0  0  0  0  0  0  0  0
    1.7971   -0.6664    0.3060 C   0  0  0  0  0  0  0  0  0  0  0  0
    0.3736   -0.7066    0.7033 C   0  0  0  0  0  0  0  0  0  0  0  0
   -0.2988   -1.8004   -0.0419 C   0  0  0  0  0  0  0  0  0  0  0  0
   -0.1803   -3.0027   -0.1024 O   0  0  0  0  0  0  0  0  0  0  0  0
   -1.1846   -0.8010   -0.6878 C   0  0  0  0  0  0  0  0  0  0  0  0
   -0.4976    0.2672    0.0436 C   0  0  0  0  0  0  0  0  0  0  0  0
   -1.1190    1.4330    0.6573 C   0  0  0  0  0  0  0  0  0  0  0  0
   -0.0996    1.5614   -0.5014 C   0  0  0  0  0  0  0  0  0  0  0  0
    3.9870   -0.5639   -0.2789 H   0  0  0  0  0  0  0  0  0  0  0  0
    0.2257   -0.7327    1.8022 H   0  0  0  0  0  0  0  0  0  0  0  0
   -1.0493   -0.8519   -1.7888 H   0  0  0  0  0  0  0  0  0  0  0  0
   -2.2599   -0.8740   -0.4371 H   0  0  0  0  0  0  0  0  0  0  0  0
   -2.1777    1.6859    0.4161 H   0  0  0  0  0  0  0  0  0  0  0  0
   -0.8018    1.7626    1.6481 H   0  0  0  0  0  0  0  0  0  0  0  0
    0.8669    2.0093   -0.2726 H   0  0  0  0  0  0  0  0  0  0  0  0
   -0.5471    1.9019   -1.4592 H   0  0  0  0  0  0  0  0  0  0  0  0
  1  2  3  0
  2  3  1  0
  3  4  1  0
  4  5  2  0
  4  6  1  0
  6  7  1  0
  7  8  1  0
  8  9  1  0
  7  3  1  0
  9  7  1  0
  1 10  1  0
  3 11  1  0
  6 12  1  0
  6 13  1  0
  8 14  1  0
  8 15  1  0
  9 16  1  0
  9 17  1  0
M  END
