
     RDKit          3D

 15 15  0  0  0  0  0  0  0  0999 V2000
    1.6544    2.3388    0.3561 C   0  0  0  0  0  0  0  0  0  0  0  0
    0.9553    1.0662    0.1883 C   0  0  0  0  0  0  0  0  0  0  0  0
    0.3671    0.0059    0.0422 C   0  0  0  0  0  0  0  0  0  0  0  0
    1.1545   -1.0603   -0.0550 C   0  0  0  0  0  0  0  0  0  0  0  0
    1.9197   -2.0917   -0.1387 C   0  0  0  0  0  0  0  0  0  0  0  0
   -0.7301    0.3127   -1.0034 C   0  0  0  0  0  0  0  0  0  0  0  0
   -1.8307   -0.5083   -0.7364 O   0  0  0  0  0  0  0  0  0  0  0  0
   -1.8828   -0.5165    0.6464 C   0  0  0  0  0  0  0  0  0  0  0  0
   -0.5578   -0.3172    1.1575 O   0  0  0  0  0  0  0  0  0  0  0  0
    2.3171    3.5080    0.5160 H   0  0  0  0  0  0  0  0  0  0  0  0
    2.7723   -3.2103   -0.2157 H   0  0  0  0  0  0  0  0  0  0  0  0
   -0.4236    0.1117   -2.0305 H   0  0  0  0  0  0  0  0  0  0  0  0
   -1.0333    1.4198   -0.7991 H   0  0  0  0  0  0  0  0  0  0  0  0
   -2.2675   -1.4421    1.0670 H   0  0  0  0  0  0  0  0  0  0  0  0
   -2.4145    0.3832    1.0051 H   0  0  0  0  0  0  0  0  0  0  0  0
  1  2  3  0
  2  3  1  0
  3  4  1  0
  4  5  3  0
  3  6  1  0
  6  7  1  0
  7  8  1  0
  8  9  1  0
  9  3  1  0
  1 10  1  0
  5 11  1  0
  6 12  1  0
  6 13  1  0
  8 14  1  0
  8 15  1  0
M  END
