
     RDKit          3D

 19 20  0  0  0  0  0  0  0  0999 V2000
   -3.6718   -0.3988    1.6717 C   0  0  0  0  0  0  0  0  0  0  0  0
   -2.8263   -0.6886    0.8909 C   0  0  0  0  0  0  0  0  0  0  0  0
   -1.9216   -1.0019    0.0253 C   0  0  0  0  0  0  0  0  0  0  0  0
   -0.4714   -0.2717    0.3450 C   0  0  0  0  0  0  0  0  0  0  0  0
    0.5852   -0.7707   -0.5222 C   0  0  0  0  0  0  0  0  0  0  0  0
    1.1178   -0.3658   -1.6848 O   0  0  0  0  0  0  0  0  0  0  0  0
    1.5881    0.7386   -0.9703 C   0  0  0  0  0  0  0  0  0  0  0  0
    2.6973    0.5261   -0.0115 C   0  0  0  0  0  0  0  0  0  0  0  0
    0.1607    0.7236   -0.4506 C   0  0  0  0  0  0  0  0  0  0  0  0
   -4.6027   -0.0611    2.5306 H   0  0  0  0  0  0  0  0  0  0  0  0
   -1.9105   -1.3921   -0.9527 H   0  0  0  0  0  0  0  0  0  0  0  0
   -2.2102    0.2041   -0.7194 H   0  0  0  0  0  0  0  0  0  0  0  0
   -0.3933   -0.1874    1.4332 H   0  0  0  0  0  0  0  0  0  0  0  0
    1.4271   -1.1196    0.1441 H   0  0  0  0  0  0  0  0  0  0  0  0
    1.8235    1.5496   -1.6556 H   0  0  0  0  0  0  0  0  0  0  0  0
    3.3340    1.4420    0.0538 H   0  0  0  0  0  0  0  0  0  0  0  0
    3.3816   -0.2706   -0.4201 H   0  0  0  0  0  0  0  0  0  0  0  0
    2.3718    0.3270    1.0655 H   0  0  0  0  0  0  0  0  0  0  0  0
   -0.4792    1.0173   -1.3529 H   0  0  0  0  0  0  0  0  0  0  0  0
  1  2  3  0
  2  3  1  0
  3  4  1  0
  4  5  1  0
  5  6  1  0
  6  7  1  0
  7  8  1  0
  7  9  1  0
  9  4  1  0
  9  5  1  0
  1 10  1  0
  3 11  1  0
  3 12  1  0
  4 13  1  0
  5 14  1  0
  7 15  1  0
  8 16  1  0
  8 17  1  0
  8 18  1  0
  9 19  1  0
M  END
