
     RDKit          3D

 19 19  0  0  0  0  0  0  0  0999 V2000
   -1.0317    2.4634    0.9388 C   0  0  0  0  0  0  0  0  0  0  0  0
   -0.8408    1.3631    0.4827 C   0  0  0  0  0  0  0  0  0  0  0  0
   -0.5876    0.0294   -0.0698 C   0  0  0  0  0  0  0  0  0  0  0  0
    0.5506    0.0807   -1.0499 C   0  0  0  0  0  0  0  0  0  0  0  0
    1.8384    0.5560   -0.4514 C   0  0  0  0  0  0  0  0  0  0  0  0
    2.3683   -0.2936    0.6905 C   0  0  0  0  0  0  0  0  0  0  0  0
    1.8865    1.0010    0.8596 O   0  0  0  0  0  0  0  0  0  0  0  0
   -1.7213   -0.3791   -0.7723 O   0  0  0  0  0  0  0  0  0  0  0  0
   -2.2613   -1.5202   -0.1531 C   0  0  0  0  0  0  0  0  0  0  0  0
   -1.2020    3.4290    1.3409 H   0  0  0  0  0  0  0  0  0  0  0  0
   -0.3856   -0.6360    0.7994 H   0  0  0  0  0  0  0  0  0  0  0  0
    0.6437   -0.9256   -1.5042 H   0  0  0  0  0  0  0  0  0  0  0  0
    0.2678    0.7741   -1.8548 H   0  0  0  0  0  0  0  0  0  0  0  0
    2.5436    1.0652   -1.1228 H   0  0  0  0  0  0  0  0  0  0  0  0
    3.4498   -0.4856    0.7264 H   0  0  0  0  0  0  0  0  0  0  0  0
    1.7233   -1.0808    1.0804 H   0  0  0  0  0  0  0  0  0  0  0  0
   -1.5326   -2.3454   -0.1422 H   0  0  0  0  0  0  0  0  0  0  0  0
   -3.1844   -1.8095   -0.7119 H   0  0  0  0  0  0  0  0  0  0  0  0
   -2.5247   -1.2862    0.9136 H   0  0  0  0  0  0  0  0  0  0  0  0
  1  2  3  0
  2  3  1  0
  3  4  1  0
  4  5  1  0
  5  6  1  0
  6  7  1  0
  3  8  1  0
  8  9  1  0
  7  5  1  0
  1 10  1  0
  3 11  1  0
  4 12  1  0
  4 13  1  0
  5 14  1  0
  6 15  1  0
  6 16  1  0
  9 17  1  0
  9 18  1  0
  9 19  1  0
M  END
