
     RDKit          3D

 19 18  0  0  0  0  0  0  0  0999 V2000
    2.3792   -0.2765    3.0389 C   0  0  0  0  0  0  0  0  0  0  0  0
    1.6516   -0.4276    2.1660 C   0  0  0  0  0  0  0  0  0  0  0  0
    0.7977   -0.6264    1.1453 C   0  0  0  0  0  0  0  0  0  0  0  0
   -0.3361    0.1720    0.6063 C   0  0  0  0  0  0  0  0  0  0  0  0
   -0.6866   -0.9631   -0.5922 C   0  0  0  0  0  0  0  0  0  0  0  0
   -1.7258   -0.5414   -1.4424 C   0  0  0  0  0  0  0  0  0  0  0  0
   -0.0520    1.2423   -0.0347 O   0  0  0  0  0  0  0  0  0  0  0  0
    0.2282    2.3222   -0.6810 C   0  0  0  0  0  0  0  0  0  0  0  0
   -0.7660    2.9341   -1.0936 O   0  0  0  0  0  0  0  0  0  0  0  0
    3.1386   -0.1097    3.9634 H   0  0  0  0  0  0  0  0  0  0  0  0
    1.6139   -0.3633    0.1484 H   0  0  0  0  0  0  0  0  0  0  0  0
    0.6285   -1.7392    0.8442 H   0  0  0  0  0  0  0  0  0  0  0  0
   -1.2771    0.0163    1.0992 H   0  0  0  0  0  0  0  0  0  0  0  0
   -1.0426   -1.8216    0.0576 H   0  0  0  0  0  0  0  0  0  0  0  0
    0.2766   -1.2010   -0.9773 H   0  0  0  0  0  0  0  0  0  0  0  0
   -1.3481   -0.6287   -2.5607 H   0  0  0  0  0  0  0  0  0  0  0  0
   -2.0628    0.4818   -1.2900 H   0  0  0  0  0  0  0  0  0  0  0  0
   -2.6939   -1.1437   -1.4871 H   0  0  0  0  0  0  0  0  0  0  0  0
    1.2766    2.6735   -0.8474 H   0  0  0  0  0  0  0  0  0  0  0  0
  1  2  3  0
  2  3  1  0
  3  4  1  0
  4  5  1  0
  5  6  1  0
  4  7  1  0
  7  8  1  0
  8  9  2  0
  1 10  1  0
  3 11  1  0
  3 12  1  0
  4 13  1  0
  5 14  1  0
  5 15  1  0
  6 16  1  0
  6 17  1  0
  6 18  1  0
  8 19  1  0
M  END
