
     RDKit          3D

 17 18  0  0  0  0  0  0  0  0999 V2000
    2.6216   -0.6110    2.1168 C   0  0  0  0  0  0  0  0  0  0  0  0
    1.5789    0.0381    1.4608 C   0  0  0  0  0  0  0  0  0  0  0  0
    0.6289    0.6109    0.8821 C   0  0  0  0  0  0  0  0  0  0  0  0
   -0.6777    0.8668    1.2459 O   0  0  0  0  0  0  0  0  0  0  0  0
   -1.2664    0.0628    0.2261 C   0  0  0  0  0  0  0  0  0  0  0  0
   -1.9921    0.8342   -0.8648 C   0  0  0  0  0  0  0  0  0  0  0  0
    0.0841   -0.3554   -0.2111 C   0  0  0  0  0  0  0  0  0  0  0  0
    0.7112   -1.1650   -1.0337 C   0  0  0  0  0  0  0  0  0  0  0  0
    0.5465    0.2368   -1.4807 O   0  0  0  0  0  0  0  0  0  0  0  0
    3.4451   -1.1035    2.6235 H   0  0  0  0  0  0  0  0  0  0  0  0
    0.9425    1.6715    0.2715 H   0  0  0  0  0  0  0  0  0  0  0  0
   -1.9245   -0.7075    0.7104 H   0  0  0  0  0  0  0  0  0  0  0  0
   -1.3120    0.8959   -1.7921 H   0  0  0  0  0  0  0  0  0  0  0  0
   -2.8573    0.2119   -1.2000 H   0  0  0  0  0  0  0  0  0  0  0  0
   -2.3824    1.8211   -0.5879 H   0  0  0  0  0  0  0  0  0  0  0  0
    1.7294   -1.5471   -0.9675 H   0  0  0  0  0  0  0  0  0  0  0  0
    0.1243   -1.7604   -1.8312 H   0  0  0  0  0  0  0  0  0  0  0  0
  1  2  3  0
  2  3  1  0
  3  4  1  0
  4  5  1  0
  5  6  1  0
  5  7  1  0
  7  8  1  0
  8  9  1  0
  7  3  1  0
  9  7  1  0
  1 10  1  0
  3 11  1  0
  5 12  1  0
  6 13  1  0
  6 14  1  0
  6 15  1  0
  8 16  1  0
  8 17  1  0
M  END
