
     RDKit          3D

 21 21  0  0  0  0  0  0  0  0999 V2000
    3.1764    0.9442    1.6804 C   0  0  0  0  0  0  0  0  0  0  0  0
    2.3844    0.4098    0.9438 C   0  0  0  0  0  0  0  0  0  0  0  0
    1.4073   -0.2420    0.0696 C   0  0  0  0  0  0  0  0  0  0  0  0
    1.4971   -1.6224    0.0538 O   0  0  0  0  0  0  0  0  0  0  0  0
    1.1627    0.3635   -1.3038 C   0  0  0  0  0  0  0  0  0  0  0  0
    0.1416    0.4583   -0.2175 C   0  0  0  0  0  0  0  0  0  0  0  0
   -1.1671   -0.2758   -0.3419 C   0  0  0  0  0  0  0  0  0  0  0  0
   -1.5304   -1.0202    0.9220 C   0  0  0  0  0  0  0  0  0  0  0  0
   -2.2680    0.7203   -0.6442 C   0  0  0  0  0  0  0  0  0  0  0  0
    3.8899    1.4042    2.3422 H   0  0  0  0  0  0  0  0  0  0  0  0
    2.2675   -1.8545   -0.5411 H   0  0  0  0  0  0  0  0  0  0  0  0
    1.8000    1.2384   -1.5611 H   0  0  0  0  0  0  0  0  0  0  0  0
    1.0025   -0.3147   -2.1665 H   0  0  0  0  0  0  0  0  0  0  0  0
    0.0451    1.4782    0.2255 H   0  0  0  0  0  0  0  0  0  0  0  0
   -1.1129   -1.0027   -1.1818 H   0  0  0  0  0  0  0  0  0  0  0  0
   -0.6726   -1.1257    1.6181 H   0  0  0  0  0  0  0  0  0  0  0  0
   -1.9628   -2.0095    0.6647 H   0  0  0  0  0  0  0  0  0  0  0  0
   -2.3229   -0.4814    1.4942 H   0  0  0  0  0  0  0  0  0  0  0  0
   -1.8655    1.7534   -0.6855 H   0  0  0  0  0  0  0  0  0  0  0  0
   -3.0308    0.7300    0.1848 H   0  0  0  0  0  0  0  0  0  0  0  0
   -2.8414    0.4484   -1.5557 H   0  0  0  0  0  0  0  0  0  0  0  0
  1  2  3  0
  2  3  1  0
  3  4  1  0
  3  5  1  0
  5  6  1  0
  6  7  1  0
  7  8  1  0
  7  9  1  0
  6  3  1  0
  1 10  1  0
  4 11  1  0
  5 12  1  0
  5 13  1  0
  6 14  1  0
  7 15  1  0
  8 16  1  0
  8 17  1  0
  8 18  1  0
  9 19  1  0
  9 20  1  0
  9 21  1  0
M  END
