
     RDKit          3D

 19 19  0  0  0  0  0  0  0  0999 V2000
   -1.8928    2.1840   -0.6483 C   0  0  0  0  0  0  0  0  0  0  0  0
   -1.0206    1.4379   -0.2842 C   0  0  0  0  0  0  0  0  0  0  0  0
    0.0520    0.5432    0.1392 C   0  0  0  0  0  0  0  0  0  0  0  0
    1.2479    0.9872   -0.4238 O   0  0  0  0  0  0  0  0  0  0  0  0
    2.1903    1.3018    0.5510 C   0  0  0  0  0  0  0  0  0  0  0  0
   -0.2918   -0.8535   -0.2539 C   0  0  0  0  0  0  0  0  0  0  0  0
    0.2266   -1.9614    0.6467 C   0  0  0  0  0  0  0  0  0  0  0  0
   -1.6593   -1.0470   -0.8676 C   0  0  0  0  0  0  0  0  0  0  0  0
   -0.4766   -1.1563   -1.6060 O   0  0  0  0  0  0  0  0  0  0  0  0
   -2.6778    2.8422   -0.9726 H   0  0  0  0  0  0  0  0  0  0  0  0
    0.1922    0.5607    1.2434 H   0  0  0  0  0  0  0  0  0  0  0  0
    3.1316    1.6527    0.1099 H   0  0  0  0  0  0  0  0  0  0  0  0
    1.7924    1.9636    1.3472 H   0  0  0  0  0  0  0  0  0  0  0  0
    2.4455    0.3273    1.0619 H   0  0  0  0  0  0  0  0  0  0  0  0
    0.0058   -2.9575    0.2147 H   0  0  0  0  0  0  0  0  0  0  0  0
    1.3471   -1.8303    0.6794 H   0  0  0  0  0  0  0  0  0  0  0  0
   -0.1169   -1.8137    1.6695 H   0  0  0  0  0  0  0  0  0  0  0  0
   -2.3085   -0.1999   -1.0809 H   0  0  0  0  0  0  0  0  0  0  0  0
   -2.1869   -1.9810   -0.5831 H   0  0  0  0  0  0  0  0  0  0  0  0
  1  2  3  0
  2  3  1  0
  3  4  1  0
  4  5  1  0
  3  6  1  0
  6  7  1  0
  6  8  1  0
  8  9  1  0
  9  6  1  0
  1 10  1  0
  3 11  1  0
  5 12  1  0
  5 13  1  0
  5 14  1  0
  7 15  1  0
  7 16  1  0
  7 17  1  0
  8 18  1  0
  8 19  1  0
M  END
