
     RDKit          3D

 16 17  0  0  0  0  0  0  0  0999 V2000
    2.9020    0.3860   -0.1414 C   0  0  0  0  0  0  0  0  0  0  0  0
    1.7218    0.1972   -0.0242 C   0  0  0  0  0  0  0  0  0  0  0  0
    0.3565   -0.0164    0.0877 C   0  0  0  0  0  0  0  0  0  0  0  0
   -0.2585   -0.5707    1.3279 C   0  0  0  0  0  0  0  0  0  0  0  0
   -1.6277   -0.5488    0.9402 O   0  0  0  0  0  0  0  0  0  0  0  0
   -1.5908   -0.0305   -0.3317 C   0  0  0  0  0  0  0  0  0  0  0  0
   -0.4040   -0.7521   -0.9877 C   0  0  0  0  0  0  0  0  0  0  0  0
   -0.6102    1.1436   -0.2002 C   0  0  0  0  0  0  0  0  0  0  0  0
    3.9652    0.5516   -0.2400 H   0  0  0  0  0  0  0  0  0  0  0  0
   -0.0348   -1.6458    1.4991 H   0  0  0  0  0  0  0  0  0  0  0  0
   -0.0825    0.0339    2.2206 H   0  0  0  0  0  0  0  0  0  0  0  0
   -2.4629    0.1122   -0.9048 H   0  0  0  0  0  0  0  0  0  0  0  0
   -0.2009   -0.4594   -2.0156 H   0  0  0  0  0  0  0  0  0  0  0  0
   -0.5010   -1.8356   -0.7713 H   0  0  0  0  0  0  0  0  0  0  0  0
   -0.4162    1.6704   -1.1428 H   0  0  0  0  0  0  0  0  0  0  0  0
   -0.7560    1.7645    0.6843 H   0  0  0  0  0  0  0  0  0  0  0  0
  1  2  3  0
  2  3  1  0
  3  4  1  0
  4  5  1  0
  5  6  1  0
  6  7  1  0
  6  8  1  0
  7  3  1  0
  8  3  1  0
  1  9  1  0
  4 10  1  0
  4 11  1  0
  6 12  1  0
  7 13  1  0
  7 14  1  0
  8 15  1  0
  8 16  1  0
M  END
