
     RDKit          3D

 18 18  0  0  0  0  0  0  0  0999 V2000
   -2.9180    1.0346    0.3903 C   0  0  0  0  0  0  0  0  0  0  0  0
   -1.9117    0.5172   -0.0471 C   0  0  0  0  0  0  0  0  0  0  0  0
   -0.7260   -0.1075   -0.5753 C   0  0  0  0  0  0  0  0  0  0  0  0
   -0.6245   -1.6184   -0.3193 C   0  0  0  0  0  0  0  0  0  0  0  0
    0.8735   -1.3502   -0.1366 C   0  0  0  0  0  0  0  0  0  0  0  0
    0.4223    0.0114    0.4111 C   0  0  0  0  0  0  0  0  0  0  0  0
    1.3650    1.1388    0.1261 C   0  0  0  0  0  0  0  0  0  0  0  0
    1.9384    0.9835   -1.1309 O   0  0  0  0  0  0  0  0  0  0  0  0
   -3.8064    1.4730    0.7648 H   0  0  0  0  0  0  0  0  0  0  0  0
   -0.4481    0.1493   -1.6185 H   0  0  0  0  0  0  0  0  0  0  0  0
   -1.0617   -1.8401    0.6566 H   0  0  0  0  0  0  0  0  0  0  0  0
   -0.8864   -2.2492   -1.1618 H   0  0  0  0  0  0  0  0  0  0  0  0
    1.3322   -1.2132   -1.1148 H   0  0  0  0  0  0  0  0  0  0  0  0
    1.3662   -1.9943    0.5917 H   0  0  0  0  0  0  0  0  0  0  0  0
    0.0650   -0.0994    1.4325 H   0  0  0  0  0  0  0  0  0  0  0  0
    0.7910    2.0864    0.1635 H   0  0  0  0  0  0  0  0  0  0  0  0
    2.1171    1.1646    0.9442 H   0  0  0  0  0  0  0  0  0  0  0  0
    2.1119    1.9133   -1.4648 H   0  0  0  0  0  0  0  0  0  0  0  0
  1  2  3  0
  2  3  1  0
  3  4  1  0
  4  5  1  0
  5  6  1  0
  6  7  1  0
  7  8  1  0
  6  3  1  0
  1  9  1  0
  3 10  1  0
  4 11  1  0
  4 12  1  0
  5 13  1  0
  5 14  1  0
  6 15  1  0
  7 16  1  0
  7 17  1  0
  8 18  1  0
M  END
