
     RDKit          3D

 19 19  0  0  0  0  0  0  0  0999 V2000
   -1.8423    0.8607    1.7405 C   0  0  0  0  0  0  0  0  0  0  0  0
   -1.1589    0.1752    1.0212 C   0  0  0  0  0  0  0  0  0  0  0  0
   -0.3256   -0.6797    0.1503 C   0  0  0  0  0  0  0  0  0  0  0  0
   -1.0475   -0.8176   -1.1641 C   0  0  0  0  0  0  0  0  0  0  0  0
   -2.2836   -1.4068   -0.8986 O   0  0  0  0  0  0  0  0  0  0  0  0
    1.0148   -0.0351    0.0334 C   0  0  0  0  0  0  0  0  0  0  0  0
    1.0289    1.3706   -0.5645 C   0  0  0  0  0  0  0  0  0  0  0  0
    2.0824   -0.3925    1.0365 C   0  0  0  0  0  0  0  0  0  0  0  0
    2.1272   -0.8026   -0.2979 O   0  0  0  0  0  0  0  0  0  0  0  0
   -2.4603    1.4556    2.3853 H   0  0  0  0  0  0  0  0  0  0  0  0
   -0.2233   -1.6716    0.6306 H   0  0  0  0  0  0  0  0  0  0  0  0
   -0.4882   -1.4874   -1.8530 H   0  0  0  0  0  0  0  0  0  0  0  0
   -1.1488    0.1554   -1.6603 H   0  0  0  0  0  0  0  0  0  0  0  0
   -2.9404   -1.2596   -1.6230 H   0  0  0  0  0  0  0  0  0  0  0  0
    0.0293    1.8219   -0.4586 H   0  0  0  0  0  0  0  0  0  0  0  0
    1.7320    2.0224   -0.0093 H   0  0  0  0  0  0  0  0  0  0  0  0
    1.3424    1.3500   -1.6264 H   0  0  0  0  0  0  0  0  0  0  0  0
    1.7814   -1.1013    1.8179 H   0  0  0  0  0  0  0  0  0  0  0  0
    2.7805    0.4422    1.3400 H   0  0  0  0  0  0  0  0  0  0  0  0
  1  2  3  0
  2  3  1  0
  3  4  1  0
  4  5  1  0
  3  6  1  0
  6  7  1  0
  6  8  1  0
  8  9  1  0
  9  6  1  0
  1 10  1  0
  3 11  1  0
  4 12  1  0
  4 13  1  0
  5 14  1  0
  7 15  1  0
  7 16  1  0
  7 17  1  0
  8 18  1  0
  8 19  1  0
M  END
