
     RDKit          3D

 15 14  0  0  0  0  0  0  0  0999 V2000
   -3.1872    0.5591   -0.6378 C   0  0  0  0  0  0  0  0  0  0  0  0
   -2.0626    0.1229   -0.6256 C   0  0  0  0  0  0  0  0  0  0  0  0
   -0.7280   -0.3794   -0.6268 C   0  0  0  0  0  0  0  0  0  0  0  0
   -0.2733   -0.9862   -1.6204 O   0  0  0  0  0  0  0  0  0  0  0  0
    0.1387   -0.1867    0.5551 C   0  0  0  0  0  0  0  0  0  0  0  0
    0.2733    1.2896    0.7727 C   0  0  0  0  0  0  0  0  0  0  0  0
    0.0724    2.1203   -0.0680 O   0  0  0  0  0  0  0  0  0  0  0  0
    1.5152   -0.7959    0.3426 C   0  0  0  0  0  0  0  0  0  0  0  0
    2.1552   -0.2153   -0.7483 O   0  0  0  0  0  0  0  0  0  0  0  0
   -4.1949    0.9439   -0.6667 H   0  0  0  0  0  0  0  0  0  0  0  0
   -0.3702   -0.6334    1.4243 H   0  0  0  0  0  0  0  0  0  0  0  0
    0.5781    1.6108    1.7794 H   0  0  0  0  0  0  0  0  0  0  0  0
    1.3441   -1.8880    0.1917 H   0  0  0  0  0  0  0  0  0  0  0  0
    2.1280   -0.6425    1.2357 H   0  0  0  0  0  0  0  0  0  0  0  0
    2.6112   -0.9191   -1.3079 H   0  0  0  0  0  0  0  0  0  0  0  0
  1  2  3  0
  2  3  1  0
  3  4  2  0
  3  5  1  0
  5  6  1  0
  6  7  2  0
  5  8  1  0
  8  9  1  0
  1 10  1  0
  5 11  1  0
  6 12  1  0
  8 13  1  0
  8 14  1  0
  9 15  1  0
M  END
