
     RDKit          3D

 15 16  0  0  0  0  0  0  0  0999 V2000
    4.3207   -1.2539    0.9979 C   0  0  0  0  0  0  0  0  0  0  0  0
    2.8367   -0.6718    0.5854 C   0  0  0  0  0  0  0  0  0  0  0  0
    1.8979   -0.2946    0.3230 C   0  0  0  0  0  0  0  0  0  0  0  0
    0.8780    0.1351    0.0271 C   0  0  0  0  0  0  0  0  0  0  0  0
   -0.1910    0.5680   -0.2938 C   0  0  0  0  0  0  0  0  0  0  0  0
   -1.3797   -0.6039   -0.2715 C   0  0  0  0  0  0  0  0  0  0  0  0
   -2.3528    0.4328   -0.1941 C   0  0  0  0  0  0  0  0  0  0  0  0
   -1.2219    0.9561   -1.0810 C   0  0  0  0  0  0  0  0  0  0  0  0
   -1.2474   -0.3588   -1.6056 O   0  0  0  0  0  0  0  0  0  0  0  0
    5.4730   -1.6871    1.3022 H   0  0  0  0  0  0  0  0  0  0  0  0
   -0.6166    1.1741    0.8873 H   0  0  0  0  0  0  0  0  0  0  0  0
   -1.1323   -1.2976    0.4150 H   0  0  0  0  0  0  0  0  0  0  0  0
   -2.5938    0.8276    0.7828 H   0  0  0  0  0  0  0  0  0  0  0  0
   -3.2737    0.2282   -0.8577 H   0  0  0  0  0  0  0  0  0  0  0  0
   -1.3972    1.8459   -1.6293 H   0  0  0  0  0  0  0  0  0  0  0  0
  1  2  3  0
  2  3  1  0
  3  4  3  0
  4  5  1  0
  5  6  1  0
  6  7  1  0
  7  8  1  0
  8  9  1  0
  8  5  1  0
  9  6  1  0
  1 10  1  0
  5 11  1  0
  6 12  1  0
  7 13  1  0
  7 14  1  0
  8 15  1  0
M  END
