
     RDKit          3D

 19 19  0  0  0  0  0  0  0  0999 V2000
   -2.3045    0.1947    1.7380 C   0  0  0  0  0  0  0  0  0  0  0  0
   -1.6237    0.2943    0.7264 C   0  0  0  0  0  0  0  0  0  0  0  0
   -0.7950    0.3951   -0.4746 C   0  0  0  0  0  0  0  0  0  0  0  0
   -0.5116    1.8107   -0.9191 C   0  0  0  0  0  0  0  0  0  0  0  0
   -1.2331   -0.4063   -1.5329 O   0  0  0  0  0  0  0  0  0  0  0  0
   -0.6226   -1.4798   -0.8830 C   0  0  0  0  0  0  0  0  0  0  0  0
    0.4213   -0.4983   -0.3789 C   0  0  0  0  0  0  0  0  0  0  0  0
    0.8824   -0.7352    0.8974 O   0  0  0  0  0  0  0  0  0  0  0  0
    2.2585   -0.5362    0.8995 C   0  0  0  0  0  0  0  0  0  0  0  0
   -2.9086    0.1092    2.6025 H   0  0  0  0  0  0  0  0  0  0  0  0
   -1.2368    2.1793   -1.6647 H   0  0  0  0  0  0  0  0  0  0  0  0
   -0.4903    2.4475   -0.0026 H   0  0  0  0  0  0  0  0  0  0  0  0
    0.5365    1.8197   -1.3105 H   0  0  0  0  0  0  0  0  0  0  0  0
   -1.2332   -1.8346   -0.0381 H   0  0  0  0  0  0  0  0  0  0  0  0
   -0.2395   -2.2533   -1.5644 H   0  0  0  0  0  0  0  0  0  0  0  0
    1.1803   -0.2090   -1.1313 H   0  0  0  0  0  0  0  0  0  0  0  0
    2.7586   -1.2380    0.1793 H   0  0  0  0  0  0  0  0  0  0  0  0
    2.7002   -0.5496    1.8940 H   0  0  0  0  0  0  0  0  0  0  0  0
    2.4610    0.4896    0.4757 H   0  0  0  0  0  0  0  0  0  0  0  0
  1  2  3  0
  2  3  1  0
  3  4  1  0
  3  5  1  0
  5  6  1  0
  6  7  1  0
  7  8  1  0
  8  9  1  0
  7  3  1  0
  1 10  1  0
  4 11  1  0
  4 12  1  0
  4 13  1  0
  6 14  1  0
  6 15  1  0
  7 16  1  0
  9 17  1  0
  9 18  1  0
  9 19  1  0
M  END
