
     RDKit          3D

 19 18  0  0  0  0  0  0  0  0999 V2000
    2.4565    1.9602    1.0248 C   0  0  0  0  0  0  0  0  0  0  0  0
    1.8331    1.0758    0.4467 C   0  0  0  0  0  0  0  0  0  0  0  0
    1.0731    0.0379   -0.2434 C   0  0  0  0  0  0  0  0  0  0  0  0
    1.1814   -1.2210    0.5550 C   0  0  0  0  0  0  0  0  0  0  0  0
    1.2702   -2.2109    1.1595 C   0  0  0  0  0  0  0  0  0  0  0  0
   -0.3534    0.4166   -0.4376 C   0  0  0  0  0  0  0  0  0  0  0  0
   -1.0911    0.6734    0.8529 C   0  0  0  0  0  0  0  0  0  0  0  0
   -1.0780   -0.6118   -1.2956 C   0  0  0  0  0  0  0  0  0  0  0  0
   -2.4144   -0.1853   -1.4383 O   0  0  0  0  0  0  0  0  0  0  0  0
    3.0070    2.7210    1.5431 H   0  0  0  0  0  0  0  0  0  0  0  0
    1.5071   -0.1297   -1.2686 H   0  0  0  0  0  0  0  0  0  0  0  0
    1.3358   -3.1487    1.7374 H   0  0  0  0  0  0  0  0  0  0  0  0
   -0.3588    1.3971   -0.9973 H   0  0  0  0  0  0  0  0  0  0  0  0
   -1.9855    0.0210    0.8605 H   0  0  0  0  0  0  0  0  0  0  0  0
   -0.4293    0.4371    1.7141 H   0  0  0  0  0  0  0  0  0  0  0  0
   -1.4307    1.7274    0.9621 H   0  0  0  0  0  0  0  0  0  0  0  0
   -0.5896   -0.5983   -2.3033 H   0  0  0  0  0  0  0  0  0  0  0  0
   -1.0206   -1.6065   -0.8103 H   0  0  0  0  0  0  0  0  0  0  0  0
   -2.9125   -0.7554   -2.0616 H   0  0  0  0  0  0  0  0  0  0  0  0
  1  2  3  0
  2  3  1  0
  3  4  1  0
  4  5  3  0
  3  6  1  0
  6  7  1  0
  6  8  1  0
  8  9  1  0
  1 10  1  0
  3 11  1  0
  5 12  1  0
  6 13  1  0
  7 14  1  0
  7 15  1  0
  7 16  1  0
  8 17  1  0
  8 18  1  0
  9 19  1  0
M  END
