
     RDKit          3D

 19 19  0  0  0  0  0  0  0  0999 V2000
    1.8863    0.2577    2.6158 C   0  0  0  0  0  0  0  0  0  0  0  0
    1.5833    0.3458    1.4609 C   0  0  0  0  0  0  0  0  0  0  0  0
    1.2122    0.4769    0.0681 C   0  0  0  0  0  0  0  0  0  0  0  0
    2.2978    0.6075   -0.7973 O   0  0  0  0  0  0  0  0  0  0  0  0
    0.0173    1.3121   -0.3134 C   0  0  0  0  0  0  0  0  0  0  0  0
    0.0106   -0.1763   -0.4959 C   0  0  0  0  0  0  0  0  0  0  0  0
    0.1126   -0.6925   -1.8033 O   0  0  0  0  0  0  0  0  0  0  0  0
   -0.9640   -0.9205    0.3596 C   0  0  0  0  0  0  0  0  0  0  0  0
   -2.0595   -1.4541   -0.5311 C   0  0  0  0  0  0  0  0  0  0  0  0
    2.1422    0.1867    3.6575 H   0  0  0  0  0  0  0  0  0  0  0  0
    2.6376    1.5358   -0.8374 H   0  0  0  0  0  0  0  0  0  0  0  0
   -0.5207    1.7504    0.5457 H   0  0  0  0  0  0  0  0  0  0  0  0
    0.0993    1.9895   -1.1717 H   0  0  0  0  0  0  0  0  0  0  0  0
    0.3567    0.0023   -2.4512 H   0  0  0  0  0  0  0  0  0  0  0  0
   -0.4513   -1.8235    0.7998 H   0  0  0  0  0  0  0  0  0  0  0  0
   -1.3638   -0.2859    1.1800 H   0  0  0  0  0  0  0  0  0  0  0  0
   -2.9948   -1.5931    0.0480 H   0  0  0  0  0  0  0  0  0  0  0  0
   -1.7759   -2.4645   -0.9127 H   0  0  0  0  0  0  0  0  0  0  0  0
   -2.2259   -0.8079   -1.4215 H   0  0  0  0  0  0  0  0  0  0  0  0
  1  2  3  0
  2  3  1  0
  3  4  1  0
  3  5  1  0
  5  6  1  0
  6  7  1  0
  6  8  1  0
  8  9  1  0
  6  3  1  0
  1 10  1  0
  4 11  1  0
  5 12  1  0
  5 13  1  0
  7 14  1  0
  8 15  1  0
  8 16  1  0
  9 17  1  0
  9 18  1  0
  9 19  1  0
M  END
