
     RDKit          3D

 23 23  0  0  0  0  0  0  0  0999 V2000
    2.7900   -0.0887    2.3412 C   0  0  0  0  0  0  0  0  0  0  0  0
    2.2068   -0.0940    1.2600 C   0  0  0  0  0  0  0  0  0  0  0  0
    1.5276   -0.0808   -0.0313 C   0  0  0  0  0  0  0  0  0  0  0  0
    1.5012   -1.4537   -0.6347 C   0  0  0  0  0  0  0  0  0  0  0  0
    0.2901    0.7123   -0.0446 C   0  0  0  0  0  0  0  0  0  0  0  0
   -0.4645    0.7387   -1.3906 C   0  0  0  0  0  0  0  0  0  0  0  0
   -1.1043    0.3593   -0.0380 C   0  0  0  0  0  0  0  0  0  0  0  0
   -1.7267   -0.9852   -0.0723 C   0  0  0  0  0  0  0  0  0  0  0  0
   -2.0904    1.4177    0.5126 C   0  0  0  0  0  0  0  0  0  0  0  0
    3.3144   -0.0668    3.2955 H   0  0  0  0  0  0  0  0  0  0  0  0
    2.2797    0.4768   -0.7218 H   0  0  0  0  0  0  0  0  0  0  0  0
    0.9436   -1.5144   -1.5882 H   0  0  0  0  0  0  0  0  0  0  0  0
    2.5879   -1.7430   -0.8953 H   0  0  0  0  0  0  0  0  0  0  0  0
    1.2005   -2.2703    0.0861 H   0  0  0  0  0  0  0  0  0  0  0  0
    0.4842    1.8112    0.2834 H   0  0  0  0  0  0  0  0  0  0  0  0
   -0.3038   -0.0563   -2.1332 H   0  0  0  0  0  0  0  0  0  0  0  0
   -0.6883    1.7048   -1.8538 H   0  0  0  0  0  0  0  0  0  0  0  0
   -1.0393   -1.7887   -0.3716 H   0  0  0  0  0  0  0  0  0  0  0  0
   -2.5130   -0.9868   -0.8903 H   0  0  0  0  0  0  0  0  0  0  0  0
   -2.3233   -1.2122    0.8502 H   0  0  0  0  0  0  0  0  0  0  0  0
   -2.4688    2.0945   -0.2581 H   0  0  0  0  0  0  0  0  0  0  0  0
   -2.9150    0.9695    1.0766 H   0  0  0  0  0  0  0  0  0  0  0  0
   -1.4884    2.0559    1.2182 H   0  0  0  0  0  0  0  0  0  0  0  0
  1  2  3  0
  2  3  1  0
  3  4  1  0
  3  5  1  0
  5  6  1  0
  6  7  1  0
  7  8  1  0
  7  9  1  0
  7  5  1  0
  1 10  1  0
  3 11  1  0
  4 12  1  0
  4 13  1  0
  4 14  1  0
  5 15  1  0
  6 16  1  0
  6 17  1  0
  8 18  1  0
  8 19  1  0
  8 20  1  0
  9 21  1  0
  9 22  1  0
  9 23  1  0
M  END
