
     RDKit          3D

 21 21  0  0  0  0  0  0  0  0999 V2000
    3.4165    0.1311    0.5970 C   0  0  0  0  0  0  0  0  0  0  0  0
    2.2004    0.0488    0.6173 C   0  0  0  0  0  0  0  0  0  0  0  0
    0.7666   -0.0681    0.6304 C   0  0  0  0  0  0  0  0  0  0  0  0
    0.0730    0.6822   -0.4957 C   0  0  0  0  0  0  0  0  0  0  0  0
   -0.4804    1.9857   -0.0344 C   0  0  0  0  0  0  0  0  0  0  0  0
   -0.8883   -0.4681   -0.5999 C   0  0  0  0  0  0  0  0  0  0  0  0
   -2.1164   -0.3738    0.2499 C   0  0  0  0  0  0  0  0  0  0  0  0
    0.2023   -1.3475    0.0275 C   0  0  0  0  0  0  0  0  0  0  0  0
    1.0412   -1.9508   -0.8989 O   0  0  0  0  0  0  0  0  0  0  0  0
    4.4735    0.2139    0.5647 H   0  0  0  0  0  0  0  0  0  0  0  0
    0.3386    0.0783    1.6277 H   0  0  0  0  0  0  0  0  0  0  0  0
    0.7451    0.7488   -1.3721 H   0  0  0  0  0  0  0  0  0  0  0  0
   -0.5810    2.0291    1.0647 H   0  0  0  0  0  0  0  0  0  0  0  0
   -1.4253    2.2869   -0.5001 H   0  0  0  0  0  0  0  0  0  0  0  0
    0.2728    2.7808   -0.3095 H   0  0  0  0  0  0  0  0  0  0  0  0
   -1.0302   -0.7733   -1.6429 H   0  0  0  0  0  0  0  0  0  0  0  0
   -1.9612   -0.8484    1.2504 H   0  0  0  0  0  0  0  0  0  0  0  0
   -2.9118   -0.9855   -0.2573 H   0  0  0  0  0  0  0  0  0  0  0  0
   -2.5326    0.6451    0.3323 H   0  0  0  0  0  0  0  0  0  0  0  0
   -0.1628   -2.0690    0.7571 H   0  0  0  0  0  0  0  0  0  0  0  0
    0.5600   -2.7464   -1.2394 H   0  0  0  0  0  0  0  0  0  0  0  0
  1  2  3  0
  2  3  1  0
  3  4  1  0
  4  5  1  0
  4  6  1  0
  6  7  1  0
  6  8  1  0
  8  9  1  0
  8  3  1  0
  1 10  1  0
  3 11  1  0
  4 12  1  0
  5 13  1  0
  5 14  1  0
  5 15  1  0
  6 16  1  0
  7 17  1  0
  7 18  1  0
  7 19  1  0
  8 20  1  0
  9 21  1  0
M  END
