
     RDKit          3D

 15 14  0  0  0  0  0  0  0  0999 V2000
    2.3080    3.2067   -0.1893 C   0  0  0  0  0  0  0  0  0  0  0  0
    1.5906    2.2257    0.0634 C   0  0  0  0  0  0  0  0  0  0  0  0
    0.7396    1.0693    0.3836 C   0  0  0  0  0  0  0  0  0  0  0  0
   -0.1880    1.1778    1.1733 O   0  0  0  0  0  0  0  0  0  0  0  0
    0.9704   -0.1467   -0.1923 O   0  0  0  0  0  0  0  0  0  0  0  0
    0.3770   -1.3686   -0.0954 C   0  0  0  0  0  0  0  0  0  0  0  0
   -1.0549   -1.3848   -0.4956 C   0  0  0  0  0  0  0  0  0  0  0  0
   -1.9864   -0.5767    0.2741 C   0  0  0  0  0  0  0  0  0  0  0  0
   -2.2660   -0.9370    1.4228 O   0  0  0  0  0  0  0  0  0  0  0  0
    2.9226    4.0167   -0.3980 H   0  0  0  0  0  0  0  0  0  0  0  0
    0.5346   -1.8002    0.9436 H   0  0  0  0  0  0  0  0  0  0  0  0
    0.9598   -2.1191   -0.7453 H   0  0  0  0  0  0  0  0  0  0  0  0
   -1.0850   -1.1792   -1.5921 H   0  0  0  0  0  0  0  0  0  0  0  0
   -1.3848   -2.4901   -0.4466 H   0  0  0  0  0  0  0  0  0  0  0  0
   -2.4374    0.3062   -0.1062 H   0  0  0  0  0  0  0  0  0  0  0  0
  1  2  3  0
  2  3  1  0
  3  4  2  0
  3  5  1  0
  5  6  1  0
  6  7  1  0
  7  8  1  0
  8  9  2  0
  1 10  1  0
  6 11  1  0
  6 12  1  0
  7 13  1  0
  7 14  1  0
  8 15  1  0
M  END
