
     RDKit          3D

 19 19  0  0  0  0  0  0  0  0999 V2000
    0.8022   -0.8044   -3.0658 C   0  0  0  0  0  0  0  0  0  0  0  0
    0.2478   -0.0307   -2.2493 C   0  0  0  0  0  0  0  0  0  0  0  0
   -0.3720    0.8758   -1.3207 C   0  0  0  0  0  0  0  0  0  0  0  0
   -1.8659    0.0632   -1.1411 C   0  0  0  0  0  0  0  0  0  0  0  0
   -1.4371   -0.8724   -0.5399 O   0  0  0  0  0  0  0  0  0  0  0  0
    0.2578    0.8588   -0.0054 C   0  0  0  0  0  0  0  0  0  0  0  0
    0.3079   -0.3971    0.7851 C   0  0  0  0  0  0  0  0  0  0  0  0
    1.0642   -0.2949    2.1389 C   0  0  0  0  0  0  0  0  0  0  0  0
   -0.4029   -0.4950    2.0939 C   0  0  0  0  0  0  0  0  0  0  0  0
    1.2738   -1.4344   -3.7407 H   0  0  0  0  0  0  0  0  0  0  0  0
   -0.6366    1.8219   -1.7107 H   0  0  0  0  0  0  0  0  0  0  0  0
   -2.4212    0.6428   -1.5708 H   0  0  0  0  0  0  0  0  0  0  0  0
   -0.1348    1.7134    0.6858 H   0  0  0  0  0  0  0  0  0  0  0  0
    1.3616    1.1332   -0.1620 H   0  0  0  0  0  0  0  0  0  0  0  0
    0.5491   -1.3415    0.1995 H   0  0  0  0  0  0  0  0  0  0  0  0
    1.7839   -1.1039    2.3727 H   0  0  0  0  0  0  0  0  0  0  0  0
    1.4699    0.7399    2.3991 H   0  0  0  0  0  0  0  0  0  0  0  0
   -1.0741    0.4137    2.4194 H   0  0  0  0  0  0  0  0  0  0  0  0
   -0.7734   -1.4886    2.4121 H   0  0  0  0  0  0  0  0  0  0  0  0
  1  2  3  0
  2  3  1  0
  3  4  1  0
  4  5  2  0
  3  6  1  0
  6  7  1  0
  7  8  1  0
  8  9  1  0
  9  7  1  0
  1 10  1  0
  3 11  1  0
  4 12  1  0
  6 13  1  0
  6 14  1  0
  7 15  1  0
  8 16  1  0
  8 17  1  0
  9 18  1  0
  9 19  1  0
M  END
