
     RDKit          3D

 23 22  0  0  0  0  0  0  0  0999 V2000
    3.4089   -0.7234    1.6138 C   0  0  0  0  0  0  0  0  0  0  0  0
    2.3508   -1.2830    1.5239 C   0  0  0  0  0  0  0  0  0  0  0  0
    1.0739   -1.9728    1.4257 C   0  0  0  0  0  0  0  0  0  0  0  0
    0.1800   -1.3271    0.3669 C   0  0  0  0  0  0  0  0  0  0  0  0
   -0.0662    0.1122    0.7516 C   0  0  0  0  0  0  0  0  0  0  0  0
   -0.9463    0.8228   -0.2507 C   0  0  0  0  0  0  0  0  0  0  0  0
   -1.1045    2.2590    0.2704 C   0  0  0  0  0  0  0  0  0  0  0  0
   -0.3899    0.8659   -1.5092 O   0  0  0  0  0  0  0  0  0  0  0  0
   -1.2495    0.3370   -2.4446 C   0  0  0  0  0  0  0  0  0  0  0  0
    4.3514   -0.2244    1.7126 H   0  0  0  0  0  0  0  0  0  0  0  0
    1.2812   -3.0113    1.0583 H   0  0  0  0  0  0  0  0  0  0  0  0
    0.5373   -1.9755    2.3796 H   0  0  0  0  0  0  0  0  0  0  0  0
   -0.7619   -1.8956    0.2497 H   0  0  0  0  0  0  0  0  0  0  0  0
    0.7281   -1.3874   -0.5945 H   0  0  0  0  0  0  0  0  0  0  0  0
    0.9085    0.6158    0.8690 H   0  0  0  0  0  0  0  0  0  0  0  0
   -0.5714    0.1435    1.7371 H   0  0  0  0  0  0  0  0  0  0  0  0
   -1.9569    0.3696   -0.3004 H   0  0  0  0  0  0  0  0  0  0  0  0
   -1.9017    2.2565    1.0239 H   0  0  0  0  0  0  0  0  0  0  0  0
   -0.1662    2.5660    0.8163 H   0  0  0  0  0  0  0  0  0  0  0  0
   -1.2409    2.9681   -0.5441 H   0  0  0  0  0  0  0  0  0  0  0  0
   -1.5056   -0.7304   -2.2327 H   0  0  0  0  0  0  0  0  0  0  0  0
   -2.1929    0.8869   -2.5623 H   0  0  0  0  0  0  0  0  0  0  0  0
   -0.7662    0.3277   -3.4544 H   0  0  0  0  0  0  0  0  0  0  0  0
  1  2  3  0
  2  3  1  0
  3  4  1  0
  4  5  1  0
  5  6  1  0
  6  7  1  0
  6  8  1  0
  8  9  1  0
  1 10  1  0
  3 11  1  0
  3 12  1  0
  4 13  1  0
  4 14  1  0
  5 15  1  0
  5 16  1  0
  6 17  1  0
  7 18  1  0
  7 19  1  0
  7 20  1  0
  9 21  1  0
  9 22  1  0
  9 23  1  0
M  END
