
     RDKit          3D

 18 17  0  0  0  0  0  0  0  0999 V2000
   -3.0456    1.3252   -0.3797 C   0  0  0  0  0  0  0  0  0  0  0  0
   -1.9501    0.8881   -0.4746 C   0  0  0  0  0  0  0  0  0  0  0  0
   -0.6237    0.3559   -0.5647 C   0  0  0  0  0  0  0  0  0  0  0  0
   -0.7863   -1.1771   -0.7112 C   0  0  0  0  0  0  0  0  0  0  0  0
    0.0668    0.6487    0.7730 C   0  0  0  0  0  0  0  0  0  0  0  0
    1.4398    0.2384    0.8532 C   0  0  0  0  0  0  0  0  0  0  0  0
    2.3591   -0.5418    0.1541 C   0  0  0  0  0  0  0  0  0  0  0  0
    2.0071    0.8024    1.9700 O   0  0  0  0  0  0  0  0  0  0  0  0
   -4.0989    1.7265   -0.2978 H   0  0  0  0  0  0  0  0  0  0  0  0
   -0.0500    0.7317   -1.4046 H   0  0  0  0  0  0  0  0  0  0  0  0
   -1.7001   -1.4398   -0.0973 H   0  0  0  0  0  0  0  0  0  0  0  0
   -1.0093   -1.3894   -1.7905 H   0  0  0  0  0  0  0  0  0  0  0  0
    0.0405   -1.7607   -0.3051 H   0  0  0  0  0  0  0  0  0  0  0  0
   -0.0520    1.7699    0.8977 H   0  0  0  0  0  0  0  0  0  0  0  0
   -0.5727    0.1921    1.5764 H   0  0  0  0  0  0  0  0  0  0  0  0
    2.0542   -0.6520   -0.9276 H   0  0  0  0  0  0  0  0  0  0  0  0
    2.5102   -1.5970    0.5472 H   0  0  0  0  0  0  0  0  0  0  0  0
    3.4109   -0.1213    0.1814 H   0  0  0  0  0  0  0  0  0  0  0  0
  1  2  3  0
  2  3  1  0
  3  4  1  0
  3  5  1  0
  5  6  1  0
  6  7  1  0
  6  8  2  0
  1  9  1  0
  3 10  1  0
  4 11  1  0
  4 12  1  0
  4 13  1  0
  5 14  1  0
  5 15  1  0
  7 16  1  0
  7 17  1  0
  7 18  1  0
M  END
