
     RDKit          3D

 16 15  0  0  0  0  0  0  0  0999 V2000
    4.0879   -0.6096    1.2097 C   0  0  0  0  0  0  0  0  0  0  0  0
    3.0869   -0.4359    0.5208 C   0  0  0  0  0  0  0  0  0  0  0  0
    1.9101   -0.2539   -0.2751 C   0  0  0  0  0  0  0  0  0  0  0  0
    2.0183   -0.1550   -1.5034 O   0  0  0  0  0  0  0  0  0  0  0  0
    0.5453   -0.1776    0.3169 C   0  0  0  0  0  0  0  0  0  0  0  0
   -0.4131   -0.0013   -0.6468 O   0  0  0  0  0  0  0  0  0  0  0  0
   -1.6592    0.0596   -0.0175 C   0  0  0  0  0  0  0  0  0  0  0  0
   -2.7744    0.2501   -0.9896 C   0  0  0  0  0  0  0  0  0  0  0  0
    4.9427   -0.7428    1.8077 H   0  0  0  0  0  0  0  0  0  0  0  0
    0.3734   -1.0989    0.9463 H   0  0  0  0  0  0  0  0  0  0  0  0
    0.5618    0.6667    1.0363 H   0  0  0  0  0  0  0  0  0  0  0  0
   -1.8229   -0.8889    0.5320 H   0  0  0  0  0  0  0  0  0  0  0  0
   -1.6977    0.8679    0.7438 H   0  0  0  0  0  0  0  0  0  0  0  0
   -2.4195    0.0495   -2.0237 H   0  0  0  0  0  0  0  0  0  0  0  0
   -3.1121    1.3187   -0.9524 H   0  0  0  0  0  0  0  0  0  0  0  0
   -3.6277   -0.3880   -0.7050 H   0  0  0  0  0  0  0  0  0  0  0  0
  1  2  3  0
  2  3  1  0
  3  4  2  0
  3  5  1  0
  5  6  1  0
  6  7  1  0
  7  8  1  0
  1  9  1  0
  5 10  1  0
  5 11  1  0
  7 12  1  0
  7 13  1  0
  8 14  1  0
  8 15  1  0
  8 16  1  0
M  END
