
     RDKit          3D

 17 18  0  0  0  0  0  0  0  0999 V2000
    3.1403    0.4314   -0.6581 C   0  0  0  0  0  0  0  0  0  0  0  0
    2.0845   -0.0390   -0.3769 C   0  0  0  0  0  0  0  0  0  0  0  0
    0.7872   -0.6183   -0.0055 C   0  0  0  0  0  0  0  0  0  0  0  0
    0.4580   -0.3369    1.3813 C   0  0  0  0  0  0  0  0  0  0  0  0
   -0.8008    0.0461    1.4677 C   0  0  0  0  0  0  0  0  0  0  0  0
   -1.4615    0.0652    0.1382 C   0  0  0  0  0  0  0  0  0  0  0  0
   -2.6410   -0.6077   -0.0692 O   0  0  0  0  0  0  0  0  0  0  0  0
   -0.9938    1.1472   -0.7616 C   0  0  0  0  0  0  0  0  0  0  0  0
   -0.3240   -0.1681   -0.8619 C   0  0  0  0  0  0  0  0  0  0  0  0
    4.0842    0.8405   -0.9240 H   0  0  0  0  0  0  0  0  0  0  0  0
    0.8712   -1.7368   -0.1071 H   0  0  0  0  0  0  0  0  0  0  0  0
    1.1402   -0.4247    2.2354 H   0  0  0  0  0  0  0  0  0  0  0  0
   -1.2992    0.3150    2.3875 H   0  0  0  0  0  0  0  0  0  0  0  0
   -2.4278   -1.5836   -0.1458 H   0  0  0  0  0  0  0  0  0  0  0  0
   -0.4890    2.0234   -0.2997 H   0  0  0  0  0  0  0  0  0  0  0  0
   -1.5960    1.4425   -1.6480 H   0  0  0  0  0  0  0  0  0  0  0  0
   -0.5325   -0.7963   -1.7524 H   0  0  0  0  0  0  0  0  0  0  0  0
  1  2  3  0
  2  3  1  0
  3  4  1  0
  4  5  2  0
  5  6  1  0
  6  7  1  0
  6  8  1  0
  8  9  1  0
  9  3  1  0
  9  6  1  0
  1 10  1  0
  3 11  1  0
  4 12  1  0
  5 13  1  0
  7 14  1  0
  8 15  1  0
  8 16  1  0
  9 17  1  0
M  END
