
     RDKit          3D

 21 21  0  0  0  0  0  0  0  0999 V2000
   -0.8202    1.6022    1.8582 C   0  0  0  0  0  0  0  0  0  0  0  0
   -0.7363    1.0708    0.7842 C   0  0  0  0  0  0  0  0  0  0  0  0
   -0.6238    0.4364   -0.5348 C   0  0  0  0  0  0  0  0  0  0  0  0
   -1.2045    1.2295   -1.6504 C   0  0  0  0  0  0  0  0  0  0  0  0
   -0.4784   -1.0307   -0.5650 C   0  0  0  0  0  0  0  0  0  0  0  0
   -0.6339   -1.7469    0.7620 C   0  0  0  0  0  0  0  0  0  0  0  0
    0.7146   -0.2437   -0.8741 C   0  0  0  0  0  0  0  0  0  0  0  0
    1.8011    0.0392    0.1196 C   0  0  0  0  0  0  0  0  0  0  0  0
    1.5283   -0.3665    1.3973 O   0  0  0  0  0  0  0  0  0  0  0  0
   -0.8814    2.0607    2.8124 H   0  0  0  0  0  0  0  0  0  0  0  0
   -0.6419    2.1977   -1.7059 H   0  0  0  0  0  0  0  0  0  0  0  0
   -2.2592    1.4904   -1.5316 H   0  0  0  0  0  0  0  0  0  0  0  0
   -1.0477    0.7408   -2.6338 H   0  0  0  0  0  0  0  0  0  0  0  0
   -0.9485   -1.6161   -1.4069 H   0  0  0  0  0  0  0  0  0  0  0  0
   -0.7034   -1.0267    1.6019 H   0  0  0  0  0  0  0  0  0  0  0  0
   -1.5672   -2.3402    0.7594 H   0  0  0  0  0  0  0  0  0  0  0  0
    0.2326   -2.4422    0.9558 H   0  0  0  0  0  0  0  0  0  0  0  0
    1.0368   -0.2234   -1.9454 H   0  0  0  0  0  0  0  0  0  0  0  0
    2.1164    1.1110    0.1110 H   0  0  0  0  0  0  0  0  0  0  0  0
    2.7223   -0.5234   -0.2136 H   0  0  0  0  0  0  0  0  0  0  0  0
    2.3942   -0.4188    1.8997 H   0  0  0  0  0  0  0  0  0  0  0  0
  1  2  3  0
  2  3  1  0
  3  4  1  0
  3  5  1  0
  5  6  1  0
  5  7  1  0
  7  8  1  0
  8  9  1  0
  7  3  1  0
  1 10  1  0
  4 11  1  0
  4 12  1  0
  4 13  1  0
  5 14  1  0
  6 15  1  0
  6 16  1  0
  6 17  1  0
  7 18  1  0
  8 19  1  0
  8 20  1  0
  9 21  1  0
M  END
