
     RDKit          3D

 19 20  0  0  0  0  0  0  0  0999 V2000
    1.1329    2.6368    0.5985 C   0  0  0  0  0  0  0  0  0  0  0  0
    0.8046    1.3896    0.0874 C   0  0  0  0  0  0  0  0  0  0  0  0
    0.5064    0.1692   -0.4021 C   0  0  0  0  0  0  0  0  0  0  0  0
    1.1640    0.0863   -1.8305 C   0  0  0  0  0  0  0  0  0  0  0  0
    1.1855   -0.8610    0.3463 O   0  0  0  0  0  0  0  0  0  0  0  0
    0.2566   -1.4229    1.1413 C   0  0  0  0  0  0  0  0  0  0  0  0
   -1.1141   -1.1329    0.6172 C   0  0  0  0  0  0  0  0  0  0  0  0
   -1.7219    0.2162    0.7449 C   0  0  0  0  0  0  0  0  0  0  0  0
   -0.9086   -0.1975   -0.4814 C   0  0  0  0  0  0  0  0  0  0  0  0
    1.3582    3.5555    0.9822 H   0  0  0  0  0  0  0  0  0  0  0  0
    2.2765    0.0780   -1.5657 H   0  0  0  0  0  0  0  0  0  0  0  0
    0.9396    1.0274   -2.3263 H   0  0  0  0  0  0  0  0  0  0  0  0
    0.8436   -0.7989   -2.3659 H   0  0  0  0  0  0  0  0  0  0  0  0
    0.3602   -2.5478    1.1570 H   0  0  0  0  0  0  0  0  0  0  0  0
    0.2904   -1.1487    2.2441 H   0  0  0  0  0  0  0  0  0  0  0  0
   -1.7729   -2.0019    0.4887 H   0  0  0  0  0  0  0  0  0  0  0  0
   -2.8160    0.2586    0.5770 H   0  0  0  0  0  0  0  0  0  0  0  0
   -1.3275    0.9826    1.4348 H   0  0  0  0  0  0  0  0  0  0  0  0
   -1.4574   -0.2884   -1.4475 H   0  0  0  0  0  0  0  0  0  0  0  0
  1  2  3  0
  2  3  1  0
  3  4  1  0
  3  5  1  0
  5  6  1  0
  6  7  1  0
  7  8  1  0
  8  9  1  0
  9  3  1  0
  9  7  1  0
  1 10  1  0
  4 11  1  0
  4 12  1  0
  4 13  1  0
  6 14  1  0
  6 15  1  0
  7 16  1  0
  8 17  1  0
  8 18  1  0
  9 19  1  0
M  END
