
     RDKit          3D

 22 21  0  0  0  0  0  0  0  0999 V2000
   -1.5942    0.0963    2.8394 C   0  0  0  0  0  0  0  0  0  0  0  0
   -1.9977   -0.1555    1.6876 C   0  0  0  0  0  0  0  0  0  0  0  0
   -2.4668   -0.4214    0.3686 C   0  0  0  0  0  0  0  0  0  0  0  0
   -1.6886    0.2800   -0.7206 C   0  0  0  0  0  0  0  0  0  0  0  0
   -0.2631   -0.1239   -0.8746 C   0  0  0  0  0  0  0  0  0  0  0  0
    0.6085   -0.0059    0.3293 C   0  0  0  0  0  0  0  0  0  0  0  0
    2.0464   -0.4239   -0.0623 C   0  0  0  0  0  0  0  0  0  0  0  0
    2.6145    0.4860   -1.0988 C   0  0  0  0  0  0  0  0  0  0  0  0
   -1.2250    0.3046    3.8577 H   0  0  0  0  0  0  0  0  0  0  0  0
   -3.5409   -0.0331    0.3663 H   0  0  0  0  0  0  0  0  0  0  0  0
   -2.4831   -1.5035    0.1256 H   0  0  0  0  0  0  0  0  0  0  0  0
   -2.2561    0.1768   -1.6896 H   0  0  0  0  0  0  0  0  0  0  0  0
   -1.7050    1.3885   -0.4471 H   0  0  0  0  0  0  0  0  0  0  0  0
   -0.1572   -1.1620   -1.3088 H   0  0  0  0  0  0  0  0  0  0  0  0
    0.1799    0.5618   -1.6850 H   0  0  0  0  0  0  0  0  0  0  0  0
    0.3153   -0.7212    1.1369 H   0  0  0  0  0  0  0  0  0  0  0  0
    0.6096    1.0195    0.7255 H   0  0  0  0  0  0  0  0  0  0  0  0
    2.0524   -1.4830   -0.3726 H   0  0  0  0  0  0  0  0  0  0  0  0
    2.6168   -0.3950    0.8944 H   0  0  0  0  0  0  0  0  0  0  0  0
    2.5494    1.5634   -0.7810 H   0  0  0  0  0  0  0  0  0  0  0  0
    2.0972    0.3646   -2.0504 H   0  0  0  0  0  0  0  0  0  0  0  0
    3.6877    0.1869   -1.2404 H   0  0  0  0  0  0  0  0  0  0  0  0
  1  2  3  0
  2  3  1  0
  3  4  1  0
  4  5  1  0
  5  6  1  0
  6  7  1  0
  7  8  1  0
  1  9  1  0
  3 10  1  0
  3 11  1  0
  4 12  1  0
  4 13  1  0
  5 14  1  0
  5 15  1  0
  6 16  1  0
  6 17  1  0
  7 18  1  0
  7 19  1  0
  8 20  1  0
  8 21  1  0
  8 22  1  0
M  END
