
     RDKit          3D

 19 20  0  0  0  0  0  0  0  0999 V2000
    3.5970   -0.5189    0.4912 C   0  0  0  0  0  0  0  0  0  0  0  0
    2.3989   -0.3151    0.5115 C   0  0  0  0  0  0  0  0  0  0  0  0
    0.9736   -0.0707    0.5593 C   0  0  0  0  0  0  0  0  0  0  0  0
    0.2583   -1.2254   -0.0515 C   0  0  0  0  0  0  0  0  0  0  0  0
   -1.2329   -0.9394   -0.3116 C   0  0  0  0  0  0  0  0  0  0  0  0
   -1.2155    0.3571   -1.0015 C   0  0  0  0  0  0  0  0  0  0  0  0
   -1.7611    1.6246   -0.7326 C   0  0  0  0  0  0  0  0  0  0  0  0
   -0.7035    1.3009    0.1452 C   0  0  0  0  0  0  0  0  0  0  0  0
    0.6347    1.1850    0.0146 O   0  0  0  0  0  0  0  0  0  0  0  0
    4.6496   -0.6818    0.4741 H   0  0  0  0  0  0  0  0  0  0  0  0
    0.6302   -0.0048    1.6347 H   0  0  0  0  0  0  0  0  0  0  0  0
    0.6714   -1.4449   -1.0797 H   0  0  0  0  0  0  0  0  0  0  0  0
    0.3998   -2.0985    0.5757 H   0  0  0  0  0  0  0  0  0  0  0  0
   -1.6466   -1.7837   -0.8646 H   0  0  0  0  0  0  0  0  0  0  0  0
   -1.6831   -0.8600    0.7207 H   0  0  0  0  0  0  0  0  0  0  0  0
   -0.5515    0.2869   -1.9191 H   0  0  0  0  0  0  0  0  0  0  0  0
   -1.5982    2.4575   -1.4760 H   0  0  0  0  0  0  0  0  0  0  0  0
   -2.8032    1.7077   -0.3389 H   0  0  0  0  0  0  0  0  0  0  0  0
   -1.0178    1.0236    1.1976 H   0  0  0  0  0  0  0  0  0  0  0  0
  1  2  3  0
  2  3  1  0
  3  4  1  0
  4  5  1  0
  5  6  1  0
  6  7  1  0
  7  8  1  0
  8  9  1  0
  9  3  1  0
  8  6  1  0
  1 10  1  0
  3 11  1  0
  4 12  1  0
  4 13  1  0
  5 14  1  0
  5 15  1  0
  6 16  1  0
  7 17  1  0
  7 18  1  0
  8 19  1  0
M  END
