
     RDKit          3D

 17 18  0  0  0  0  0  0  0  0999 V2000
    2.8363    1.2449   -0.3510 C   0  0  0  0  0  0  0  0  0  0  0  0
    1.9708    0.7118    0.2960 C   0  0  0  0  0  0  0  0  0  0  0  0
    0.9055    0.0853    1.0796 C   0  0  0  0  0  0  0  0  0  0  0  0
    0.6638   -1.3709    0.5906 C   0  0  0  0  0  0  0  0  0  0  0  0
   -0.2457   -0.7533   -0.4246 C   0  0  0  0  0  0  0  0  0  0  0  0
   -1.5502   -1.1609   -0.5130 O   0  0  0  0  0  0  0  0  0  0  0  0
   -2.1432    0.0619   -0.9499 C   0  0  0  0  0  0  0  0  0  0  0  0
   -1.5771    0.9508    0.1320 C   0  0  0  0  0  0  0  0  0  0  0  0
   -0.4161    0.4481    0.4967 C   0  0  0  0  0  0  0  0  0  0  0  0
    3.6044    1.7326   -0.9135 H   0  0  0  0  0  0  0  0  0  0  0  0
    0.9913    0.1674    2.1664 H   0  0  0  0  0  0  0  0  0  0  0  0
    1.5711   -1.8005    0.1586 H   0  0  0  0  0  0  0  0  0  0  0  0
    0.1707   -1.9457    1.3790 H   0  0  0  0  0  0  0  0  0  0  0  0
    0.1824   -0.5058   -1.3944 H   0  0  0  0  0  0  0  0  0  0  0  0
   -1.6948    0.2761   -1.9327 H   0  0  0  0  0  0  0  0  0  0  0  0
   -3.2308    0.0158   -0.9271 H   0  0  0  0  0  0  0  0  0  0  0  0
   -2.0384    1.8424    0.5387 H   0  0  0  0  0  0  0  0  0  0  0  0
  1  2  3  0
  2  3  1  0
  3  4  1  0
  4  5  1  0
  5  6  1  0
  6  7  1  0
  7  8  1  0
  8  9  2  0
  9  3  1  0
  9  5  1  0
  1 10  1  0
  3 11  1  0
  4 12  1  0
  4 13  1  0
  5 14  1  0
  7 15  1  0
  7 16  1  0
  8 17  1  0
M  END
