
     RDKit          3D

 15 17  0  0  0  0  0  0  0  0999 V2000
    3.0947   -0.4920    0.8640 C   0  0  0  0  0  0  0  0  0  0  0  0
    1.9909   -0.6443    0.4264 C   0  0  0  0  0  0  0  0  0  0  0  0
    0.6443   -0.8423   -0.0970 C   0  0  0  0  0  0  0  0  0  0  0  0
    0.4298   -1.8072   -1.1045 O   0  0  0  0  0  0  0  0  0  0  0  0
    0.1685   -0.4815   -1.3200 C   0  0  0  0  0  0  0  0  0  0  0  0
   -1.1602   -0.0382   -0.7310 C   0  0  0  0  0  0  0  0  0  0  0  0
   -1.1271    1.0237    0.2693 C   0  0  0  0  0  0  0  0  0  0  0  0
   -2.3654    1.3269    0.8620 O   0  0  0  0  0  0  0  0  0  0  0  0
   -0.5074   -0.2864    0.6482 C   0  0  0  0  0  0  0  0  0  0  0  0
    4.0712   -0.3669    1.2654 H   0  0  0  0  0  0  0  0  0  0  0  0
    0.5997    0.0815   -2.1569 H   0  0  0  0  0  0  0  0  0  0  0  0
   -2.0381   -0.6675   -0.9656 H   0  0  0  0  0  0  0  0  0  0  0  0
   -0.4346    1.8763    0.0736 H   0  0  0  0  0  0  0  0  0  0  0  0
   -2.2961    2.2729    1.2125 H   0  0  0  0  0  0  0  0  0  0  0  0
   -1.0700   -0.9552    1.3345 H   0  0  0  0  0  0  0  0  0  0  0  0
  1  2  3  0
  2  3  1  0
  3  4  1  0
  4  5  1  0
  5  6  1  0
  6  7  1  0
  7  8  1  0
  7  9  1  0
  5  3  1  0
  9  6  1  0
  9  3  1  0
  1 10  1  0
  5 11  1  0
  6 12  1  0
  7 13  1  0
  8 14  1  0
  9 15  1  0
M  END
