
     RDKit          3D

 17 18  0  0  0  0  0  0  0  0999 V2000
    2.8351   -1.1892    1.4300 C   0  0  0  0  0  0  0  0  0  0  0  0
    1.9470   -0.7061    0.7724 C   0  0  0  0  0  0  0  0  0  0  0  0
    0.8510   -0.1256   -0.0278 C   0  0  0  0  0  0  0  0  0  0  0  0
   -0.1948   -1.0606   -0.4749 C   0  0  0  0  0  0  0  0  0  0  0  0
   -1.6021   -0.5858   -0.3277 C   0  0  0  0  0  0  0  0  0  0  0  0
   -1.7488    0.8837   -0.3181 C   0  0  0  0  0  0  0  0  0  0  0  0
   -0.7613    1.7360   -0.1555 C   0  0  0  0  0  0  0  0  0  0  0  0
    0.6161    1.2514    0.0360 C   0  0  0  0  0  0  0  0  0  0  0  0
    1.3282    0.7436   -1.0437 O   0  0  0  0  0  0  0  0  0  0  0  0
    3.6355   -1.6067    2.0195 H   0  0  0  0  0  0  0  0  0  0  0  0
   -0.0408   -1.2783   -1.5728 H   0  0  0  0  0  0  0  0  0  0  0  0
   -0.0581   -2.0437    0.0209 H   0  0  0  0  0  0  0  0  0  0  0  0
   -2.2801   -1.0177   -1.0932 H   0  0  0  0  0  0  0  0  0  0  0  0
   -2.0009   -0.9498    0.6579 H   0  0  0  0  0  0  0  0  0  0  0  0
   -2.7691    1.2667   -0.4594 H   0  0  0  0  0  0  0  0  0  0  0  0
   -1.0034    2.7941   -0.1686 H   0  0  0  0  0  0  0  0  0  0  0  0
    1.2466    1.8879    0.7050 H   0  0  0  0  0  0  0  0  0  0  0  0
  1  2  3  0
  2  3  1  0
  3  4  1  0
  4  5  1  0
  5  6  1  0
  6  7  2  0
  7  8  1  0
  8  9  1  0
  8  3  1  0
  9  3  1  0
  1 10  1  0
  4 11  1  0
  4 12  1  0
  5 13  1  0
  5 14  1  0
  6 15  1  0
  7 16  1  0
  8 17  1  0
M  END
