
     RDKit          3D

 17 16  0  0  0  0  0  0  0  0999 V2000
   -1.0923    2.5791    0.5791 C   0  0  0  0  0  0  0  0  0  0  0  0
   -0.8573    1.4474    0.2715 C   0  0  0  0  0  0  0  0  0  0  0  0
   -0.5497    0.0452   -0.1004 C   0  0  0  0  0  0  0  0  0  0  0  0
    0.8979   -0.2354    0.1877 C   0  0  0  0  0  0  0  0  0  0  0  0
    1.7616    0.5577   -0.5972 O   0  0  0  0  0  0  0  0  0  0  0  0
    3.1194    0.4326   -0.4645 C   0  0  0  0  0  0  0  0  0  0  0  0
    3.6545   -0.3734    0.3414 O   0  0  0  0  0  0  0  0  0  0  0  0
   -1.3064   -0.7876    0.7247 O   0  0  0  0  0  0  0  0  0  0  0  0
   -2.1915   -1.5527   -0.0251 C   0  0  0  0  0  0  0  0  0  0  0  0
   -1.2855    3.6015    0.8579 H   0  0  0  0  0  0  0  0  0  0  0  0
   -0.8118   -0.0784   -1.1669 H   0  0  0  0  0  0  0  0  0  0  0  0
    1.0540   -0.0730    1.2770 H   0  0  0  0  0  0  0  0  0  0  0  0
    1.0682   -1.3272   -0.0042 H   0  0  0  0  0  0  0  0  0  0  0  0
    3.7683    1.0509   -1.0766 H   0  0  0  0  0  0  0  0  0  0  0  0
   -2.7790   -2.2029    0.6453 H   0  0  0  0  0  0  0  0  0  0  0  0
   -2.8411   -0.8707   -0.6253 H   0  0  0  0  0  0  0  0  0  0  0  0
   -1.6091   -2.2131   -0.7112 H   0  0  0  0  0  0  0  0  0  0  0  0
  1  2  3  0
  2  3  1  0
  3  4  1  0
  4  5  1  0
  5  6  1  0
  6  7  2  0
  3  8  1  0
  8  9  1  0
  1 10  1  0
  3 11  1  0
  4 12  1  0
  4 13  1  0
  6 14  1  0
  9 15  1  0
  9 16  1  0
  9 17  1  0
M  END
