
     RDKit          3D

 16 17  0  0  0  0  0  0  0  0999 V2000
    2.8246    0.1019    0.4849 C   0  0  0  0  0  0  0  0  0  0  0  0
    1.6669   -0.1897    0.3492 C   0  0  0  0  0  0  0  0  0  0  0  0
    0.2491   -0.5263    0.1955 C   0  0  0  0  0  0  0  0  0  0  0  0
   -0.1503   -1.6254   -0.6839 C   0  0  0  0  0  0  0  0  0  0  0  0
   -0.3114   -0.2547   -1.1885 C   0  0  0  0  0  0  0  0  0  0  0  0
   -1.4657    0.5057   -0.5741 C   0  0  0  0  0  0  0  0  0  0  0  0
   -0.6934    0.4935    0.7362 C   0  0  0  0  0  0  0  0  0  0  0  0
   -0.1309    1.7766    0.9181 O   0  0  0  0  0  0  0  0  0  0  0  0
    3.8404    0.3737    0.5952 H   0  0  0  0  0  0  0  0  0  0  0  0
    0.6323   -2.2668   -1.0817 H   0  0  0  0  0  0  0  0  0  0  0  0
   -1.1024   -2.1865   -0.4648 H   0  0  0  0  0  0  0  0  0  0  0  0
    0.3323    0.2140   -1.9295 H   0  0  0  0  0  0  0  0  0  0  0  0
   -1.6885    1.4837   -0.9908 H   0  0  0  0  0  0  0  0  0  0  0  0
   -2.3372   -0.1936   -0.4820 H   0  0  0  0  0  0  0  0  0  0  0  0
   -1.2763    0.1337    1.6105 H   0  0  0  0  0  0  0  0  0  0  0  0
   -0.3897    2.1603    1.7808 H   0  0  0  0  0  0  0  0  0  0  0  0
  1  2  3  0
  2  3  1  0
  3  4  1  0
  4  5  1  0
  5  6  1  0
  6  7  1  0
  7  8  1  0
  5  3  1  0
  7  3  1  0
  1  9  1  0
  4 10  1  0
  4 11  1  0
  5 12  1  0
  6 13  1  0
  6 14  1  0
  7 15  1  0
  8 16  1  0
M  END
