
     RDKit          3D

 18 18  0  0  0  0  0  0  0  0999 V2000
    2.5410    1.4593   -0.8771 C   0  0  0  0  0  0  0  0  0  0  0  0
    1.5308    1.2190   -0.2378 C   0  0  0  0  0  0  0  0  0  0  0  0
    0.3036    0.9476    0.5169 C   0  0  0  0  0  0  0  0  0  0  0  0
    0.5244    0.0345    1.7556 C   0  0  0  0  0  0  0  0  0  0  0  0
   -0.1937   -0.4248    0.5210 C   0  0  0  0  0  0  0  0  0  0  0  0
    0.4273   -1.4927   -0.3535 C   0  0  0  0  0  0  0  0  0  0  0  0
   -1.5711   -0.6158    0.7019 O   0  0  0  0  0  0  0  0  0  0  0  0
   -2.2802    0.0140   -0.3080 C   0  0  0  0  0  0  0  0  0  0  0  0
    3.4159    1.6864   -1.4324 H   0  0  0  0  0  0  0  0  0  0  0  0
   -0.4167    1.7832    0.6454 H   0  0  0  0  0  0  0  0  0  0  0  0
   -0.0234    0.3581    2.6448 H   0  0  0  0  0  0  0  0  0  0  0  0
    1.5604   -0.2938    1.9507 H   0  0  0  0  0  0  0  0  0  0  0  0
    0.1765   -1.2221   -1.4196 H   0  0  0  0  0  0  0  0  0  0  0  0
    1.5150   -1.5947   -0.1978 H   0  0  0  0  0  0  0  0  0  0  0  0
   -0.0696   -2.4671   -0.1476 H   0  0  0  0  0  0  0  0  0  0  0  0
   -2.0808    1.1012   -0.3174 H   0  0  0  0  0  0  0  0  0  0  0  0
   -3.3656   -0.1297   -0.1040 H   0  0  0  0  0  0  0  0  0  0  0  0
   -1.9937   -0.3628   -1.3188 H   0  0  0  0  0  0  0  0  0  0  0  0
  1  2  3  0
  2  3  1  0
  3  4  1  0
  4  5  1  0
  5  6  1  0
  5  7  1  0
  7  8  1  0
  5  3  1  0
  1  9  1  0
  3 10  1  0
  4 11  1  0
  4 12  1  0
  6 13  1  0
  6 14  1  0
  6 15  1  0
  8 16  1  0
  8 17  1  0
  8 18  1  0
M  END
