
     RDKit          3D

 11 10  0  0  0  0  0  0  0  0999 V2000
    0.8783    1.3161    1.3962 C   0  0  0  0  0  0  0  0  0  0  0  0
    0.7929    0.2112    0.7700 C   0  0  0  0  0  0  0  0  0  0  0  0
    0.6797   -1.0107    0.0578 C   0  0  0  0  0  0  0  0  0  0  0  0
   -0.3145   -0.5634   -1.1233 C   0  0  0  0  0  0  0  0  0  0  0  0
   -0.5715   -1.5632   -2.0206 O   0  0  0  0  0  0  0  0  0  0  0  0
   -0.9913    0.5394   -1.4182 C   0  0  0  0  0  0  0  0  0  0  0  0
   -0.7076    1.7853   -1.4291 O   0  0  0  0  0  0  0  0  0  0  0  0
    0.9555    2.2307    1.9352 H   0  0  0  0  0  0  0  0  0  0  0  0
    0.0020   -1.7151    0.7051 H   0  0  0  0  0  0  0  0  0  0  0  0
    1.4256   -1.5991   -0.3767 H   0  0  0  0  0  0  0  0  0  0  0  0
   -2.1491    0.3688   -1.7443 H   0  0  0  0  0  0  0  0  0  0  0  0
  1  2  3  0
  2  3  1  0
  3  4  1  0
  4  5  2  0
  4  6  1  0
  6  7  2  0
  1  8  1  0
  3  9  1  0
  3 10  1  0
  6 11  1  0
M  END
