
     RDKit          3D

 19 19  0  0  0  0  0  0  0  0999 V2000
    3.7482    0.3844   -1.6027 C   0  0  0  0  0  0  0  0  0  0  0  0
    2.7000    0.5362   -1.0231 C   0  0  0  0  0  0  0  0  0  0  0  0
    1.4650    0.7210   -0.3120 C   0  0  0  0  0  0  0  0  0  0  0  0
    1.1066    1.8727    0.0518 O   0  0  0  0  0  0  0  0  0  0  0  0
    0.5533   -0.4017    0.0324 C   0  0  0  0  0  0  0  0  0  0  0  0
    0.0391   -0.3359    1.4561 C   0  0  0  0  0  0  0  0  0  0  0  0
   -0.8780   -0.1872    0.2720 C   0  0  0  0  0  0  0  0  0  0  0  0
   -1.5121    1.1670    0.0676 C   0  0  0  0  0  0  0  0  0  0  0  0
   -1.8218   -1.3521    0.0791 C   0  0  0  0  0  0  0  0  0  0  0  0
    4.6738    0.2349   -2.1271 H   0  0  0  0  0  0  0  0  0  0  0  0
    0.8448   -1.4354   -0.2777 H   0  0  0  0  0  0  0  0  0  0  0  0
    0.2759    0.5472    2.0804 H   0  0  0  0  0  0  0  0  0  0  0  0
   -0.0005   -1.2784    2.0559 H   0  0  0  0  0  0  0  0  0  0  0  0
   -2.5893    1.0895   -0.1112 H   0  0  0  0  0  0  0  0  0  0  0  0
   -1.3978    1.7480    1.0231 H   0  0  0  0  0  0  0  0  0  0  0  0
   -1.0701    1.7064   -0.7932 H   0  0  0  0  0  0  0  0  0  0  0  0
   -1.2537   -2.2949    0.2431 H   0  0  0  0  0  0  0  0  0  0  0  0
   -2.2098   -1.3995   -0.9525 H   0  0  0  0  0  0  0  0  0  0  0  0
   -2.6733   -1.3223    0.8027 H   0  0  0  0  0  0  0  0  0  0  0  0
  1  2  3  0
  2  3  1  0
  3  4  2  0
  3  5  1  0
  5  6  1  0
  6  7  1  0
  7  8  1  0
  7  9  1  0
  7  5  1  0
  1 10  1  0
  5 11  1  0
  6 12  1  0
  6 13  1  0
  8 14  1  0
  8 15  1  0
  8 16  1  0
  9 17  1  0
  9 18  1  0
  9 19  1  0
M  END
