
     RDKit          3D

 19 20  0  0  0  0  0  0  0  0999 V2000
    0.1073   -0.0531    3.0956 C   0  0  0  0  0  0  0  0  0  0  0  0
    0.0738    0.1821    1.9168 C   0  0  0  0  0  0  0  0  0  0  0  0
    0.0408    0.4422    0.5029 C   0  0  0  0  0  0  0  0  0  0  0  0
   -0.8407    1.4399   -0.1112 C   0  0  0  0  0  0  0  0  0  0  0  0
   -1.2285    0.0446   -0.2676 C   0  0  0  0  0  0  0  0  0  0  0  0
   -2.1851   -0.5570    0.5533 O   0  0  0  0  0  0  0  0  0  0  0  0
   -0.4181   -0.8166   -1.1949 C   0  0  0  0  0  0  0  0  0  0  0  0
    0.7783   -0.5714   -0.3446 C   0  0  0  0  0  0  0  0  0  0  0  0
    1.9889    0.0026   -1.0624 C   0  0  0  0  0  0  0  0  0  0  0  0
    0.1242   -0.2527    4.1663 H   0  0  0  0  0  0  0  0  0  0  0  0
   -0.6121    2.0336   -0.9984 H   0  0  0  0  0  0  0  0  0  0  0  0
   -1.4783    2.0207    0.6270 H   0  0  0  0  0  0  0  0  0  0  0  0
   -2.9517   -0.8128   -0.0031 H   0  0  0  0  0  0  0  0  0  0  0  0
   -0.4132   -0.3708   -2.2231 H   0  0  0  0  0  0  0  0  0  0  0  0
   -0.7882   -1.8857   -1.1881 H   0  0  0  0  0  0  0  0  0  0  0  0
    1.0750   -1.4874    0.1948 H   0  0  0  0  0  0  0  0  0  0  0  0
    2.1400   -0.3872   -2.0759 H   0  0  0  0  0  0  0  0  0  0  0  0
    1.7494    1.0974   -1.1949 H   0  0  0  0  0  0  0  0  0  0  0  0
    2.8381   -0.0685   -0.3924 H   0  0  0  0  0  0  0  0  0  0  0  0
  1  2  3  0
  2  3  1  0
  3  4  1  0
  4  5  1  0
  5  6  1  0
  5  7  1  0
  7  8  1  0
  8  9  1  0
  5  3  1  0
  8  3  1  0
  1 10  1  0
  4 11  1  0
  4 12  1  0
  6 13  1  0
  7 14  1  0
  7 15  1  0
  8 16  1  0
  9 17  1  0
  9 18  1  0
  9 19  1  0
M  END
