
     RDKit          3D

 13 12  0  0  0  0  0  0  0  0999 V2000
    3.4476    4.0309   -0.2671 C   0  0  0  0  0  0  0  0  0  0  0  0
    2.6955    2.9779   -0.1639 C   0  0  0  0  0  0  0  0  0  0  0  0
    1.8426    1.8264   -0.0455 C   0  0  0  0  0  0  0  0  0  0  0  0
    1.1574    0.9293    0.0501 C   0  0  0  0  0  0  0  0  0  0  0  0
    0.2422   -0.2745    0.1700 C   0  0  0  0  0  0  0  0  0  0  0  0
   -0.5024   -1.2844    0.2626 C   0  0  0  0  0  0  0  0  0  0  0  0
   -1.2954   -2.3674    0.3386 C   0  0  0  0  0  0  0  0  0  0  0  0
   -2.7062   -1.8484   -0.1482 C   0  0  0  0  0  0  0  0  0  0  0  0
   -2.5893   -0.5563   -0.4177 O   0  0  0  0  0  0  0  0  0  0  0  0
    4.0576    4.8641   -0.3628 H   0  0  0  0  0  0  0  0  0  0  0  0
   -1.5802   -2.7322    1.3607 H   0  0  0  0  0  0  0  0  0  0  0  0
   -1.1725   -3.2304   -0.3030 H   0  0  0  0  0  0  0  0  0  0  0  0
   -3.5969   -2.3350   -0.2698 H   0  0  0  0  0  0  0  0  0  0  0  0
  1  2  3  0
  2  3  1  0
  3  4  3  0
  4  5  1  0
  5  6  3  0
  6  7  1  0
  7  8  1  0
  8  9  2  0
  1 10  1  0
  7 11  1  0
  7 12  1  0
  8 13  1  0
M  END
