
     RDKit          3D

 19 19  0  0  0  0  0  0  0  0999 V2000
    1.1633    2.3902    0.8216 C   0  0  0  0  0  0  0  0  0  0  0  0
    0.1036    1.3718    0.6602 C   0  0  0  0  0  0  0  0  0  0  0  0
   -0.8280    0.4750    0.5412 C   0  0  0  0  0  0  0  0  0  0  0  0
   -0.0841   -0.8673    1.1566 C   0  0  0  0  0  0  0  0  0  0  0  0
    1.1460   -0.6360    1.5945 O   0  0  0  0  0  0  0  0  0  0  0  0
   -0.3917   -1.5252   -0.1438 C   0  0  0  0  0  0  0  0  0  0  0  0
   -0.6850   -0.1752   -0.7825 C   0  0  0  0  0  0  0  0  0  0  0  0
    0.6605    0.1548   -1.5263 C   0  0  0  0  0  0  0  0  0  0  0  0
   -1.7408   -0.1590   -1.6524 O   0  0  0  0  0  0  0  0  0  0  0  0
    2.0993    3.3205    0.9726 H   0  0  0  0  0  0  0  0  0  0  0  0
   -1.6668    0.5471    1.2628 H   0  0  0  0  0  0  0  0  0  0  0  0
   -0.8178   -1.2852    1.9263 H   0  0  0  0  0  0  0  0  0  0  0  0
    1.3253    0.1481    2.1166 H   0  0  0  0  0  0  0  0  0  0  0  0
   -1.2463   -2.2065   -0.2186 H   0  0  0  0  0  0  0  0  0  0  0  0
    0.5506   -2.0868   -0.4511 H   0  0  0  0  0  0  0  0  0  0  0  0
    1.4248    0.1715   -0.7352 H   0  0  0  0  0  0  0  0  0  0  0  0
    0.8530   -0.7772   -2.1581 H   0  0  0  0  0  0  0  0  0  0  0  0
    0.6688    1.0130   -2.1758 H   0  0  0  0  0  0  0  0  0  0  0  0
   -2.5346    0.1265   -1.2087 H   0  0  0  0  0  0  0  0  0  0  0  0
  1  2  3  0
  2  3  1  0
  3  4  1  0
  4  5  1  0
  4  6  1  0
  6  7  1  0
  7  8  1  0
  7  9  1  0
  7  3  1  0
  1 10  1  0
  3 11  1  0
  4 12  1  0
  5 13  1  0
  6 14  1  0
  6 15  1  0
  8 16  1  0
  8 17  1  0
  8 18  1  0
  9 19  1  0
M  END
