
     RDKit          3D

 15 17  0  0  0  0  0  0  0  0999 V2000
    2.4755   -1.6760   -0.6697 C   0  0  0  0  0  0  0  0  0  0  0  0
    1.4793   -1.0989   -0.3624 C   0  0  0  0  0  0  0  0  0  0  0  0
    0.3097   -0.4126    0.0239 C   0  0  0  0  0  0  0  0  0  0  0  0
   -0.7895   -0.0188   -0.9023 C   0  0  0  0  0  0  0  0  0  0  0  0
   -1.9046    0.3078    0.1012 C   0  0  0  0  0  0  0  0  0  0  0  0
   -1.3723    0.1828    1.3608 O   0  0  0  0  0  0  0  0  0  0  0  0
    0.0288    0.3200    1.2253 C   0  0  0  0  0  0  0  0  0  0  0  0
    0.4766    1.1386    0.0884 C   0  0  0  0  0  0  0  0  0  0  0  0
   -0.0993    1.1606   -1.1462 O   0  0  0  0  0  0  0  0  0  0  0  0
    3.3628   -2.1977   -0.9438 H   0  0  0  0  0  0  0  0  0  0  0  0
   -1.0534   -0.6507   -1.7286 H   0  0  0  0  0  0  0  0  0  0  0  0
   -2.8014   -0.3148   -0.0815 H   0  0  0  0  0  0  0  0  0  0  0  0
   -2.2401    1.3692   -0.0192 H   0  0  0  0  0  0  0  0  0  0  0  0
    0.6064    0.3752    2.1380 H   0  0  0  0  0  0  0  0  0  0  0  0
    1.5215    1.5151    0.1200 H   0  0  0  0  0  0  0  0  0  0  0  0
  1  2  3  0
  2  3  1  0
  3  4  1  0
  4  5  1  0
  5  6  1  0
  6  7  1  0
  7  8  1  0
  8  9  1  0
  7  3  1  0
  8  3  1  0
  9  4  1  0
  1 10  1  0
  4 11  1  0
  5 12  1  0
  5 13  1  0
  7 14  1  0
  8 15  1  0
M  END
