
     RDKit          3D

 19 20  0  0  0  0  0  0  0  0999 V2000
    3.2158   -0.6512   -0.9711 C   0  0  0  0  0  0  0  0  0  0  0  0
    2.1097   -0.6069   -0.5975 C   0  0  0  0  0  0  0  0  0  0  0  0
    0.7063   -0.5395   -0.0982 C   0  0  0  0  0  0  0  0  0  0  0  0
   -0.1251   -1.4908    0.4494 C   0  0  0  0  0  0  0  0  0  0  0  0
   -1.2909   -0.6914   -0.1682 C   0  0  0  0  0  0  0  0  0  0  0  0
   -2.3908   -0.4369    0.5348 O   0  0  0  0  0  0  0  0  0  0  0  0
   -0.3228    0.4654   -0.3025 C   0  0  0  0  0  0  0  0  0  0  0  0
   -0.4733    1.5391    0.7513 C   0  0  0  0  0  0  0  0  0  0  0  0
   -0.3895    1.7864   -0.7894 C   0  0  0  0  0  0  0  0  0  0  0  0
    4.2888   -0.7066   -1.3174 H   0  0  0  0  0  0  0  0  0  0  0  0
    1.1385    0.0107    1.1137 H   0  0  0  0  0  0  0  0  0  0  0  0
   -0.0271   -2.5615    0.1518 H   0  0  0  0  0  0  0  0  0  0  0  0
   -0.2508   -1.4462    1.5946 H   0  0  0  0  0  0  0  0  0  0  0  0
   -1.4286   -1.1965   -1.1981 H   0  0  0  0  0  0  0  0  0  0  0  0
   -3.0116   -1.2570    0.5337 H   0  0  0  0  0  0  0  0  0  0  0  0
   -1.4165    1.5566    1.2723 H   0  0  0  0  0  0  0  0  0  0  0  0
    0.5008    1.6389    1.3005 H   0  0  0  0  0  0  0  0  0  0  0  0
   -1.3431    2.1190   -1.2434 H   0  0  0  0  0  0  0  0  0  0  0  0
    0.5105    2.4684   -1.0164 H   0  0  0  0  0  0  0  0  0  0  0  0
  1  2  3  0
  2  3  1  0
  3  4  1  0
  4  5  1  0
  5  6  1  0
  5  7  1  0
  7  8  1  0
  8  9  1  0
  7  3  1  0
  9  7  1  0
  1 10  1  0
  3 11  1  0
  4 12  1  0
  4 13  1  0
  5 14  1  0
  6 15  1  0
  8 16  1  0
  8 17  1  0
  9 18  1  0
  9 19  1  0
M  END
