
     RDKit          3D

 19 19  0  0  0  0  0  0  0  0999 V2000
   -3.0981   -0.1625    0.7317 C   0  0  0  0  0  0  0  0  0  0  0  0
   -2.2173   -0.7057    0.4605 C   0  0  0  0  0  0  0  0  0  0  0  0
   -0.9727   -1.4906    0.0519 C   0  0  0  0  0  0  0  0  0  0  0  0
   -1.0547   -2.4574    1.2096 O   0  0  0  0  0  0  0  0  0  0  0  0
    0.1722   -0.6597    0.4861 C   0  0  0  0  0  0  0  0  0  0  0  0
    1.5947   -1.0571    0.3278 C   0  0  0  0  0  0  0  0  0  0  0  0
    1.1017    0.0641   -0.4359 C   0  0  0  0  0  0  0  0  0  0  0  0
    1.1914    1.3547   -0.3884 O   0  0  0  0  0  0  0  0  0  0  0  0
    1.2354    2.5282   -0.6844 C   0  0  0  0  0  0  0  0  0  0  0  0
   -4.1700    0.5003    1.0703 H   0  0  0  0  0  0  0  0  0  0  0  0
   -1.0746   -1.9788   -0.8309 H   0  0  0  0  0  0  0  0  0  0  0  0
   -1.1508   -1.8287    2.0354 H   0  0  0  0  0  0  0  0  0  0  0  0
   -0.0598   -0.0613    1.4344 H   0  0  0  0  0  0  0  0  0  0  0  0
    1.8991   -1.9978   -0.2414 H   0  0  0  0  0  0  0  0  0  0  0  0
    2.2371   -0.9681    1.2563 H   0  0  0  0  0  0  0  0  0  0  0  0
    0.7954   -0.2477   -1.5879 H   0  0  0  0  0  0  0  0  0  0  0  0
    2.0426    2.9288   -1.4120 H   0  0  0  0  0  0  0  0  0  0  0  0
    1.2705    3.3539    0.1199 H   0  0  0  0  0  0  0  0  0  0  0  0
    0.2578    2.8855   -1.2194 H   0  0  0  0  0  0  0  0  0  0  0  0
  1  2  3  0
  2  3  1  0
  3  4  1  0
  3  5  1  0
  5  6  1  0
  6  7  1  0
  7  8  1  0
  8  9  1  0
  7  5  1  0
  1 10  1  0
  3 11  1  0
  4 12  1  0
  5 13  1  0
  6 14  1  0
  6 15  1  0
  7 16  1  0
  9 17  1  0
  9 18  1  0
  9 19  1  0
M  END
