
     RDKit          3D

 17 17  0  0  0  0  0  0  0  0999 V2000
    2.3183    0.7997   -1.7098 C   0  0  0  0  0  0  0  0  0  0  0  0
    1.4747    0.3650   -0.9658 C   0  0  0  0  0  0  0  0  0  0  0  0
    0.4259   -0.1512   -0.0539 C   0  0  0  0  0  0  0  0  0  0  0  0
    0.9773   -1.3197    0.6391 C   0  0  0  0  0  0  0  0  0  0  0  0
    0.5279   -2.4208    0.3693 O   0  0  0  0  0  0  0  0  0  0  0  0
   -0.8277   -0.5008   -0.8227 C   0  0  0  0  0  0  0  0  0  0  0  0
   -1.9180   -0.1852    0.1483 C   0  0  0  0  0  0  0  0  0  0  0  0
   -1.4690    0.6224    1.0773 C   0  0  0  0  0  0  0  0  0  0  0  0
   -0.0458    0.9437    0.8483 C   0  0  0  0  0  0  0  0  0  0  0  0
    3.0656    1.1963   -2.3540 H   0  0  0  0  0  0  0  0  0  0  0  0
    1.7656   -1.1603    1.3670 H   0  0  0  0  0  0  0  0  0  0  0  0
   -0.9552    0.0716   -1.7448 H   0  0  0  0  0  0  0  0  0  0  0  0
   -0.8407   -1.5842   -0.9890 H   0  0  0  0  0  0  0  0  0  0  0  0
   -2.9358   -0.5805    0.0770 H   0  0  0  0  0  0  0  0  0  0  0  0
   -2.0625    1.0052    1.9054 H   0  0  0  0  0  0  0  0  0  0  0  0
    0.4762    0.9567    1.8253 H   0  0  0  0  0  0  0  0  0  0  0  0
    0.0231    1.9422    0.3829 H   0  0  0  0  0  0  0  0  0  0  0  0
  1  2  3  0
  2  3  1  0
  3  4  1  0
  4  5  2  0
  3  6  1  0
  6  7  1  0
  7  8  2  0
  8  9  1  0
  9  3  1  0
  1 10  1  0
  4 11  1  0
  6 12  1  0
  6 13  1  0
  7 14  1  0
  8 15  1  0
  9 16  1  0
  9 17  1  0
M  END
