
     RDKit          3D

 21 20  0  0  0  0  0  0  0  0999 V2000
   -1.2020    3.0891    0.4982 C   0  0  0  0  0  0  0  0  0  0  0  0
   -0.5824    2.3159    0.6759 C   0  0  0  0  0  0  0  0  0  0  0  0
    0.3210    1.2160    0.9501 C   0  0  0  0  0  0  0  0  0  0  0  0
    1.6186    1.4726    0.5337 O   0  0  0  0  0  0  0  0  0  0  0  0
   -0.1899   -0.1387    0.7901 C   0  0  0  0  0  0  0  0  0  0  0  0
   -1.5458   -0.2907    1.0040 O   0  0  0  0  0  0  0  0  0  0  0  0
    0.4595   -0.9752   -0.2445 C   0  0  0  0  0  0  0  0  0  0  0  0
   -0.1455   -2.3620   -0.3509 C   0  0  0  0  0  0  0  0  0  0  0  0
    0.4248   -0.4052   -1.6505 C   0  0  0  0  0  0  0  0  0  0  0  0
   -1.9690    4.0491    0.2559 H   0  0  0  0  0  0  0  0  0  0  0  0
    0.5143    1.2932    2.1567 H   0  0  0  0  0  0  0  0  0  0  0  0
    2.2437    0.7611    0.8576 H   0  0  0  0  0  0  0  0  0  0  0  0
    0.2036   -0.7019    1.7786 H   0  0  0  0  0  0  0  0  0  0  0  0
   -1.9341    0.6179    1.2417 H   0  0  0  0  0  0  0  0  0  0  0  0
    1.5518   -1.0701    0.0351 H   0  0  0  0  0  0  0  0  0  0  0  0
    0.1830   -2.8574   -1.3084 H   0  0  0  0  0  0  0  0  0  0  0  0
   -1.2458   -2.2211   -0.4676 H   0  0  0  0  0  0  0  0  0  0  0  0
    0.1105   -2.9250    0.5423 H   0  0  0  0  0  0  0  0  0  0  0  0
    0.9852   -1.0966   -2.3208 H   0  0  0  0  0  0  0  0  0  0  0  0
   -0.6621   -0.3714   -1.9371 H   0  0  0  0  0  0  0  0  0  0  0  0
    0.8609    0.6002   -1.6133 H   0  0  0  0  0  0  0  0  0  0  0  0
  1  2  3  0
  2  3  1  0
  3  4  1  0
  3  5  1  0
  5  6  1  0
  5  7  1  0
  7  8  1  0
  7  9  1  0
  1 10  1  0
  3 11  1  0
  4 12  1  0
  5 13  1  0
  6 14  1  0
  7 15  1  0
  8 16  1  0
  8 17  1  0
  8 18  1  0
  9 19  1  0
  9 20  1  0
  9 21  1  0
M  END
