
     RDKit          3D

 17 16  0  0  0  0  0  0  0  0999 V2000
    1.3607    0.3564    2.2938 C   0  0  0  0  0  0  0  0  0  0  0  0
    0.3569   -0.2111    1.0874 C   0  0  0  0  0  0  0  0  0  0  0  0
   -0.3290   -0.6013    0.2468 C   0  0  0  0  0  0  0  0  0  0  0  0
   -1.4353    0.4505   -0.1968 C   0  0  0  0  0  0  0  0  0  0  0  0
   -0.0648   -1.7523   -0.4886 C   0  0  0  0  0  0  0  0  0  0  0  0
    0.7044    0.5802   -0.9209 C   0  0  0  0  0  0  0  0  0  0  0  0
    0.0702    1.7706   -0.2979 O   0  0  0  0  0  0  0  0  0  0  0  0
    2.0975    0.7874    3.2061 H   0  0  0  0  0  0  0  0  0  0  0  0
   -0.8917    1.1164   -1.0694 H   0  0  0  0  0  0  0  0  0  0  0  0
   -2.2397    0.1215   -0.7325 H   0  0  0  0  0  0  0  0  0  0  0  0
   -1.5231    1.1386    0.6129 H   0  0  0  0  0  0  0  0  0  0  0  0
    0.7064   -2.4867   -0.0905 H   0  0  0  0  0  0  0  0  0  0  0  0
   -1.0458   -2.3833   -0.5639 H   0  0  0  0  0  0  0  0  0  0  0  0
    0.1043   -1.5675   -1.6167 H   0  0  0  0  0  0  0  0  0  0  0  0
    1.5746    0.5141   -0.3938 H   0  0  0  0  0  0  0  0  0  0  0  0
    0.2210    0.3460   -1.7280 H   0  0  0  0  0  0  0  0  0  0  0  0
    0.3332    1.8206    0.6520 H   0  0  0  0  0  0  0  0  0  0  0  0
  1  2  3  0
  2  3  1  0
  3  4  1  0
  3  5  1  0
  3  6  1  0
  6  7  1  0
  1  8  1  0
  4  9  1  0
  4 10  1  0
  4 11  1  0
  5 12  1  0
  5 13  1  0
  5 14  1  0
  6 15  1  0
  6 16  1  0
  7 17  1  0
M  END
