
     RDKit          3D

 17 19  0  0  0  0  0  0  0  0999 V2000
    2.9905   -1.0322   -0.1552 C   0  0  0  0  0  0  0  0  0  0  0  0
    1.6565   -0.9048   -0.7099 C   0  0  0  0  0  0  0  0  0  0  0  0
    0.5461   -0.7872   -1.1914 C   0  0  0  0  0  0  0  0  0  0  0  0
   -0.6045   -0.7930   -0.3451 C   0  0  0  0  0  0  0  0  0  0  0  0
   -1.6833   -0.9457    0.3653 C   0  0  0  0  0  0  0  0  0  0  0  0
   -1.7041    0.3689    1.0690 C   0  0  0  0  0  0  0  0  0  0  0  0
   -0.8654    1.2788    0.0327 C   0  0  0  0  0  0  0  0  0  0  0  0
    0.2567    0.3640    0.3415 C   0  0  0  0  0  0  0  0  0  0  0  0
    0.1432    0.9159   -0.9484 C   0  0  0  0  0  0  0  0  0  0  0  0
    3.9902   -1.1191    0.2664 H   0  0  0  0  0  0  0  0  0  0  0  0
    0.3667   -0.7448   -2.3174 H   0  0  0  0  0  0  0  0  0  0  0  0
   -2.2841   -1.8141    0.2968 H   0  0  0  0  0  0  0  0  0  0  0  0
   -2.6045    0.8254    1.3238 H   0  0  0  0  0  0  0  0  0  0  0  0
   -0.9495    0.2182    1.9221 H   0  0  0  0  0  0  0  0  0  0  0  0
   -0.7903    2.3235    0.4169 H   0  0  0  0  0  0  0  0  0  0  0  0
    0.8122    0.3136    1.1832 H   0  0  0  0  0  0  0  0  0  0  0  0
    0.7236    1.4869   -1.5502 H   0  0  0  0  0  0  0  0  0  0  0  0
  1  2  3  0
  2  3  1  0
  3  4  1  0
  4  5  2  0
  5  6  1  0
  6  7  1  0
  7  8  1  0
  8  9  1  0
  9  3  1  0
  8  4  1  0
  9  7  1  0
  1 10  1  0
  3 11  1  0
  5 12  1  0
  6 13  1  0
  6 14  1  0
  7 15  1  0
  8 16  1  0
  9 17  1  0
M  END
