
     RDKit          3D

 17 18  0  0  0  0  0  0  0  0999 V2000
    3.3042   -0.2839   -0.0819 C   0  0  0  0  0  0  0  0  0  0  0  0
    2.1059   -0.0580   -0.1516 C   0  0  0  0  0  0  0  0  0  0  0  0
    0.6829    0.2334   -0.2231 C   0  0  0  0  0  0  0  0  0  0  0  0
    0.1011    0.4611    1.1823 C   0  0  0  0  0  0  0  0  0  0  0  0
   -1.2490    1.0065    0.8992 C   0  0  0  0  0  0  0  0  0  0  0  0
   -1.9779    0.4339   -0.0418 C   0  0  0  0  0  0  0  0  0  0  0  0
   -1.5031   -0.7144   -0.8104 C   0  0  0  0  0  0  0  0  0  0  0  0
   -0.8593   -1.7446   -0.1208 O   0  0  0  0  0  0  0  0  0  0  0  0
   -0.0130   -0.9182   -0.8502 C   0  0  0  0  0  0  0  0  0  0  0  0
    4.3432   -0.4976   -0.0260 H   0  0  0  0  0  0  0  0  0  0  0  0
    0.4547    1.1492   -0.8025 H   0  0  0  0  0  0  0  0  0  0  0  0
    0.0469   -0.5230    1.7268 H   0  0  0  0  0  0  0  0  0  0  0  0
    0.7747    1.1791    1.6702 H   0  0  0  0  0  0  0  0  0  0  0  0
   -1.6428    1.8426    1.4322 H   0  0  0  0  0  0  0  0  0  0  0  0
   -2.9952    0.8126   -0.2866 H   0  0  0  0  0  0  0  0  0  0  0  0
   -2.0119   -0.9750   -1.7613 H   0  0  0  0  0  0  0  0  0  0  0  0
    0.4383   -1.4040   -1.7546 H   0  0  0  0  0  0  0  0  0  0  0  0
  1  2  3  0
  2  3  1  0
  3  4  1  0
  4  5  1  0
  5  6  2  0
  6  7  1  0
  7  8  1  0
  8  9  1  0
  9  3  1  0
  9  7  1  0
  1 10  1  0
  3 11  1  0
  4 12  1  0
  4 13  1  0
  5 14  1  0
  6 15  1  0
  7 16  1  0
  9 17  1  0
M  END
