
     RDKit          3D

 19 20  0  0  0  0  0  0  0  0999 V2000
    0.2505    2.6324   -1.6098 C   0  0  0  0  0  0  0  0  0  0  0  0
    0.0271    1.8949   -0.6491 C   0  0  0  0  0  0  0  0  0  0  0  0
   -0.1836    1.1349    0.3527 C   0  0  0  0  0  0  0  0  0  0  0  0
   -1.3866    0.4485    0.8645 C   0  0  0  0  0  0  0  0  0  0  0  0
   -1.1528   -0.9736    0.3494 C   0  0  0  0  0  0  0  0  0  0  0  0
   -0.4414   -1.8742    1.2371 O   0  0  0  0  0  0  0  0  0  0  0  0
    0.2127   -1.1428    0.2930 C   0  0  0  0  0  0  0  0  0  0  0  0
    0.9496   -1.7458   -0.8605 C   0  0  0  0  0  0  0  0  0  0  0  0
    0.8761    0.1365    0.8273 C   0  0  0  0  0  0  0  0  0  0  0  0
    0.4633    3.2981   -2.5077 H   0  0  0  0  0  0  0  0  0  0  0  0
   -0.0683    2.0261    1.3567 H   0  0  0  0  0  0  0  0  0  0  0  0
   -2.3753    0.7770    0.7163 H   0  0  0  0  0  0  0  0  0  0  0  0
   -1.2977    0.2494    2.0206 H   0  0  0  0  0  0  0  0  0  0  0  0
   -2.0178   -1.4718   -0.0525 H   0  0  0  0  0  0  0  0  0  0  0  0
    0.3087   -1.8105   -1.7556 H   0  0  0  0  0  0  0  0  0  0  0  0
    1.2923   -2.7614   -0.5227 H   0  0  0  0  0  0  0  0  0  0  0  0
    1.8839   -1.1996   -1.1010 H   0  0  0  0  0  0  0  0  0  0  0  0
    1.8764    0.2817    0.5914 H   0  0  0  0  0  0  0  0  0  0  0  0
    0.7828    0.1002    1.9697 H   0  0  0  0  0  0  0  0  0  0  0  0
  1  2  3  0
  2  3  1  0
  3  4  1  0
  4  5  1  0
  5  6  1  0
  6  7  1  0
  7  8  1  0
  7  9  1  0
  9  3  1  0
  7  5  1  0
  1 10  1  0
  3 11  1  0
  4 12  1  0
  4 13  1  0
  5 14  1  0
  8 15  1  0
  8 16  1  0
  8 17  1  0
  9 18  1  0
  9 19  1  0
M  END
