
     RDKit          3D

 21 20  0  0  0  0  0  0  0  0999 V2000
    3.2805   -0.8581    2.0257 C   0  0  0  0  0  0  0  0  0  0  0  0
    2.6546    0.1589    1.8537 C   0  0  0  0  0  0  0  0  0  0  0  0
    1.8780    1.3835    1.6555 C   0  0  0  0  0  0  0  0  0  0  0  0
    0.6637    1.0117    1.0590 O   0  0  0  0  0  0  0  0  0  0  0  0
    0.9901    0.3964   -0.1540 C   0  0  0  0  0  0  0  0  0  0  0  0
   -0.2472   -0.0487   -0.8892 C   0  0  0  0  0  0  0  0  0  0  0  0
   -1.0035   -0.9551   -0.1773 O   0  0  0  0  0  0  0  0  0  0  0  0
   -2.1137   -1.2749   -0.9829 C   0  0  0  0  0  0  0  0  0  0  0  0
   -2.8911   -0.0092   -1.2575 C   0  0  0  0  0  0  0  0  0  0  0  0
    3.8125   -1.7501    2.1751 H   0  0  0  0  0  0  0  0  0  0  0  0
    1.6929    1.9133    2.6137 H   0  0  0  0  0  0  0  0  0  0  0  0
    2.4072    2.0367    0.9197 H   0  0  0  0  0  0  0  0  0  0  0  0
    1.6410   -0.4893    0.0367 H   0  0  0  0  0  0  0  0  0  0  0  0
    1.5605    1.0696   -0.8272 H   0  0  0  0  0  0  0  0  0  0  0  0
   -0.8061    0.8337   -1.2393 H   0  0  0  0  0  0  0  0  0  0  0  0
    0.1050   -0.5770   -1.8113 H   0  0  0  0  0  0  0  0  0  0  0  0
   -1.6954   -1.6929   -1.9294 H   0  0  0  0  0  0  0  0  0  0  0  0
   -2.7377   -2.0610   -0.5241 H   0  0  0  0  0  0  0  0  0  0  0  0
   -2.5295    0.3837   -2.2490 H   0  0  0  0  0  0  0  0  0  0  0  0
   -3.9617   -0.2453   -1.2562 H   0  0  0  0  0  0  0  0  0  0  0  0
   -2.7002    0.7740   -0.4839 H   0  0  0  0  0  0  0  0  0  0  0  0
  1  2  3  0
  2  3  1  0
  3  4  1  0
  4  5  1  0
  5  6  1  0
  6  7  1  0
  7  8  1  0
  8  9  1  0
  1 10  1  0
  3 11  1  0
  3 12  1  0
  5 13  1  0
  5 14  1  0
  6 15  1  0
  6 16  1  0
  8 17  1  0
  8 18  1  0
  9 19  1  0
  9 20  1  0
  9 21  1  0
M  END
