
     RDKit          3D

 21 20  0  0  0  0  0  0  0  0999 V2000
    3.5544   -0.9151    0.4026 C   0  0  0  0  0  0  0  0  0  0  0  0
    2.4678   -1.2620    0.0324 C   0  0  0  0  0  0  0  0  0  0  0  0
    1.1435   -1.6848   -0.3958 C   0  0  0  0  0  0  0  0  0  0  0  0
    0.1449   -0.6932    0.2112 C   0  0  0  0  0  0  0  0  0  0  0  0
   -1.1016   -1.1917   -0.2632 O   0  0  0  0  0  0  0  0  0  0  0  0
    0.3372    0.6608   -0.3931 C   0  0  0  0  0  0  0  0  0  0  0  0
   -0.5295    1.7449    0.1212 C   0  0  0  0  0  0  0  0  0  0  0  0
   -1.9985    1.6150   -0.0007 C   0  0  0  0  0  0  0  0  0  0  0  0
   -2.5671    0.5555    0.6831 O   0  0  0  0  0  0  0  0  0  0  0  0
    4.5280   -0.6073    0.7411 H   0  0  0  0  0  0  0  0  0  0  0  0
    0.8986   -2.6812    0.0090 H   0  0  0  0  0  0  0  0  0  0  0  0
    0.9990   -1.7031   -1.4744 H   0  0  0  0  0  0  0  0  0  0  0  0
    0.1003   -0.7284    1.2899 H   0  0  0  0  0  0  0  0  0  0  0  0
   -1.0660   -2.1631   -0.0744 H   0  0  0  0  0  0  0  0  0  0  0  0
    1.4006    0.9545   -0.1069 H   0  0  0  0  0  0  0  0  0  0  0  0
    0.3669    0.6182   -1.5123 H   0  0  0  0  0  0  0  0  0  0  0  0
   -0.3108    1.8136    1.2426 H   0  0  0  0  0  0  0  0  0  0  0  0
   -0.1523    2.7355   -0.2490 H   0  0  0  0  0  0  0  0  0  0  0  0
   -2.3659    1.6748   -1.0540 H   0  0  0  0  0  0  0  0  0  0  0  0
   -2.4377    2.5369    0.4951 H   0  0  0  0  0  0  0  0  0  0  0  0
   -3.4118    0.2561    0.2956 H   0  0  0  0  0  0  0  0  0  0  0  0
  1  2  3  0
  2  3  1  0
  3  4  1  0
  4  5  1  0
  4  6  1  0
  6  7  1  0
  7  8  1  0
  8  9  1  0
  1 10  1  0
  3 11  1  0
  3 12  1  0
  4 13  1  0
  5 14  1  0
  6 15  1  0
  6 16  1  0
  7 17  1  0
  7 18  1  0
  8 19  1  0
  8 20  1  0
  9 21  1  0
M  END
