
     RDKit          3D

 19 21  0  0  0  0  0  0  0  0999 V2000
    3.1888   -1.0598   -0.8305 C   0  0  0  0  0  0  0  0  0  0  0  0
    2.0799   -0.6883   -0.5665 C   0  0  0  0  0  0  0  0  0  0  0  0
    0.7617   -0.2440   -0.2384 C   0  0  0  0  0  0  0  0  0  0  0  0
   -0.4547   -0.9602   -0.8508 C   0  0  0  0  0  0  0  0  0  0  0  0
   -1.5362   -0.1096   -0.1783 C   0  0  0  0  0  0  0  0  0  0  0  0
   -1.0919   -0.1860    1.2603 C   0  0  0  0  0  0  0  0  0  0  0  0
    0.3669    0.2647    1.0802 C   0  0  0  0  0  0  0  0  0  0  0  0
    0.3872    1.1703   -0.0755 C   0  0  0  0  0  0  0  0  0  0  0  0
   -1.0687    1.2707   -0.5601 C   0  0  0  0  0  0  0  0  0  0  0  0
    4.1851   -1.3840   -1.0833 H   0  0  0  0  0  0  0  0  0  0  0  0
   -0.5008   -2.0084   -0.5356 H   0  0  0  0  0  0  0  0  0  0  0  0
   -0.4742   -0.8329   -1.9528 H   0  0  0  0  0  0  0  0  0  0  0  0
   -2.5329   -0.3725   -0.4003 H   0  0  0  0  0  0  0  0  0  0  0  0
   -1.0422   -1.2046    1.6591 H   0  0  0  0  0  0  0  0  0  0  0  0
   -1.6277    0.5370    1.8902 H   0  0  0  0  0  0  0  0  0  0  0  0
    1.0111    0.3418    1.9449 H   0  0  0  0  0  0  0  0  0  0  0  0
    1.0523    2.0121   -0.2062 H   0  0  0  0  0  0  0  0  0  0  0  0
   -1.1024    1.3730   -1.6546 H   0  0  0  0  0  0  0  0  0  0  0  0
   -1.6011    2.0806   -0.0464 H   0  0  0  0  0  0  0  0  0  0  0  0
  1  2  3  0
  2  3  1  0
  3  4  1  0
  4  5  1  0
  5  6  1  0
  6  7  1  0
  7  8  1  0
  8  9  1  0
  7  3  1  0
  8  3  1  0
  9  5  1  0
  1 10  1  0
  4 11  1  0
  4 12  1  0
  5 13  1  0
  6 14  1  0
  6 15  1  0
  7 16  1  0
  8 17  1  0
  9 18  1  0
  9 19  1  0
M  END
