
     RDKit          3D

 17 16  0  0  0  0  0  0  0  0999 V2000
   -2.8228    1.4408    0.5683 C   0  0  0  0  0  0  0  0  0  0  0  0
   -1.8721    0.6747    0.6096 C   0  0  0  0  0  0  0  0  0  0  0  0
   -0.7088   -0.2299    0.6561 C   0  0  0  0  0  0  0  0  0  0  0  0
   -1.2341   -1.5594    1.0045 C   0  0  0  0  0  0  0  0  0  0  0  0
   -1.6839   -2.6428    1.2849 C   0  0  0  0  0  0  0  0  0  0  0  0
   -0.0822   -0.2460   -0.5749 O   0  0  0  0  0  0  0  0  0  0  0  0
    1.2336    0.2101   -0.3824 C   0  0  0  0  0  0  0  0  0  0  0  0
    1.9779    0.2128   -1.7209 C   0  0  0  0  0  0  0  0  0  0  0  0
    1.3121    1.0589   -2.6036 O   0  0  0  0  0  0  0  0  0  0  0  0
   -3.6361    2.1172    0.5242 H   0  0  0  0  0  0  0  0  0  0  0  0
   -0.0454    0.1281    1.4812 H   0  0  0  0  0  0  0  0  0  0  0  0
   -2.0700   -3.6179    1.5410 H   0  0  0  0  0  0  0  0  0  0  0  0
    1.2511    1.2090    0.0741 H   0  0  0  0  0  0  0  0  0  0  0  0
    1.7321   -0.4779    0.3230 H   0  0  0  0  0  0  0  0  0  0  0  0
    2.0183   -0.8156   -2.1074 H   0  0  0  0  0  0  0  0  0  0  0  0
    3.0129    0.5465   -1.4956 H   0  0  0  0  0  0  0  0  0  0  0  0
    1.6173    1.9912   -2.3662 H   0  0  0  0  0  0  0  0  0  0  0  0
  1  2  3  0
  2  3  1  0
  3  4  1  0
  4  5  3  0
  3  6  1  0
  6  7  1  0
  7  8  1  0
  8  9  1  0
  1 10  1  0
  3 11  1  0
  5 12  1  0
  7 13  1  0
  7 14  1  0
  8 15  1  0
  8 16  1  0
  9 17  1  0
M  END
