
     RDKit          3D

 17 17  0  0  0  0  0  0  0  0999 V2000
    3.4124   -0.2706    2.3741 C   0  0  0  0  0  0  0  0  0  0  0  0
    2.2530   -0.6000    1.7195 C   0  0  0  0  0  0  0  0  0  0  0  0
    1.2628   -0.8738    1.1826 C   0  0  0  0  0  0  0  0  0  0  0  0
    0.7772    0.2572    0.3341 O   0  0  0  0  0  0  0  0  0  0  0  0
   -0.1418   -0.2438   -0.5322 C   0  0  0  0  0  0  0  0  0  0  0  0
   -1.5498   -0.3009    0.0913 C   0  0  0  0  0  0  0  0  0  0  0  0
   -2.2431    0.6548   -0.4385 C   0  0  0  0  0  0  0  0  0  0  0  0
   -1.3311    1.3474   -1.3878 C   0  0  0  0  0  0  0  0  0  0  0  0
   -0.3365    0.3923   -1.6767 O   0  0  0  0  0  0  0  0  0  0  0  0
    4.4623    0.0092    2.9785 H   0  0  0  0  0  0  0  0  0  0  0  0
    0.2503   -0.9945    1.8945 H   0  0  0  0  0  0  0  0  0  0  0  0
    1.0633   -1.7694    0.5419 H   0  0  0  0  0  0  0  0  0  0  0  0
    0.0431   -1.3607   -0.6339 H   0  0  0  0  0  0  0  0  0  0  0  0
   -1.8467   -1.0132    0.8560 H   0  0  0  0  0  0  0  0  0  0  0  0
   -3.2932    0.8836   -0.2377 H   0  0  0  0  0  0  0  0  0  0  0  0
   -1.8961    1.6686   -2.2244 H   0  0  0  0  0  0  0  0  0  0  0  0
   -0.8861    2.2140   -0.8635 H   0  0  0  0  0  0  0  0  0  0  0  0
  1  2  3  0
  2  3  1  0
  3  4  1  0
  4  5  1  0
  5  6  1  0
  6  7  2  0
  7  8  1  0
  8  9  1  0
  9  5  1  0
  1 10  1  0
  3 11  1  0
  3 12  1  0
  5 13  1  0
  6 14  1  0
  7 15  1  0
  8 16  1  0
  8 17  1  0
M  END
