
     RDKit          3D

 17 19  0  0  0  0  0  0  0  0999 V2000
    3.1027    0.6365   -0.3700 C   0  0  0  0  0  0  0  0  0  0  0  0
    1.9300    0.4268   -0.1911 C   0  0  0  0  0  0  0  0  0  0  0  0
    0.5623    0.1734    0.0287 C   0  0  0  0  0  0  0  0  0  0  0  0
   -0.5269    0.3337   -0.9445 C   0  0  0  0  0  0  0  0  0  0  0  0
   -1.5828    1.0161   -0.1206 C   0  0  0  0  0  0  0  0  0  0  0  0
   -1.3280    0.7870    1.1639 C   0  0  0  0  0  0  0  0  0  0  0  0
   -0.1049   -0.0500    1.3096 C   0  0  0  0  0  0  0  0  0  0  0  0
    0.0934   -1.1646    0.3858 C   0  0  0  0  0  0  0  0  0  0  0  0
   -0.7251   -1.1851   -0.8812 C   0  0  0  0  0  0  0  0  0  0  0  0
    4.1572    0.8124   -0.5162 H   0  0  0  0  0  0  0  0  0  0  0  0
   -0.3428    0.7455   -1.9249 H   0  0  0  0  0  0  0  0  0  0  0  0
   -2.4076    1.5936   -0.4962 H   0  0  0  0  0  0  0  0  0  0  0  0
   -1.9178    1.1503    2.0130 H   0  0  0  0  0  0  0  0  0  0  0  0
    0.4079   -0.0309    2.2833 H   0  0  0  0  0  0  0  0  0  0  0  0
    0.7649   -2.0194    0.6051 H   0  0  0  0  0  0  0  0  0  0  0  0
   -1.7720   -1.4809   -0.6292 H   0  0  0  0  0  0  0  0  0  0  0  0
   -0.3107   -1.7442   -1.7156 H   0  0  0  0  0  0  0  0  0  0  0  0
  1  2  3  0
  2  3  1  0
  3  4  1  0
  4  5  1  0
  5  6  2  0
  6  7  1  0
  7  8  1  0
  8  9  1  0
  7  3  1  0
  8  3  1  0
  9  4  1  0
  1 10  1  0
  4 11  1  0
  5 12  1  0
  6 13  1  0
  7 14  1  0
  8 15  1  0
  9 16  1  0
  9 17  1  0
M  END
