
     RDKit          3D

 17 17  0  0  0  0  0  0  0  0999 V2000
    2.9002    0.4956    0.6305 C   0  0  0  0  0  0  0  0  0  0  0  0
    1.8305   -0.0409    0.4572 C   0  0  0  0  0  0  0  0  0  0  0  0
    0.5455   -0.7117    0.2498 C   0  0  0  0  0  0  0  0  0  0  0  0
   -0.4792   -0.1249    1.2284 C   0  0  0  0  0  0  0  0  0  0  0  0
   -1.7095   -0.1622    0.4159 C   0  0  0  0  0  0  0  0  0  0  0  0
   -2.8061   -0.4470    0.8104 O   0  0  0  0  0  0  0  0  0  0  0  0
   -1.3009    0.2178   -0.9489 C   0  0  0  0  0  0  0  0  0  0  0  0
   -1.0164    1.5866   -1.0014 O   0  0  0  0  0  0  0  0  0  0  0  0
   -0.0034   -0.5122   -1.1205 C   0  0  0  0  0  0  0  0  0  0  0  0
    3.8494    0.9571    0.7911 H   0  0  0  0  0  0  0  0  0  0  0  0
    0.6391   -1.7936    0.5239 H   0  0  0  0  0  0  0  0  0  0  0  0
   -0.1913    0.9380    1.4784 H   0  0  0  0  0  0  0  0  0  0  0  0
   -0.5309   -0.7155    2.1556 H   0  0  0  0  0  0  0  0  0  0  0  0
   -2.0541   -0.0372   -1.7158 H   0  0  0  0  0  0  0  0  0  0  0  0
   -0.1331    1.7818   -0.5804 H   0  0  0  0  0  0  0  0  0  0  0  0
    0.6817    0.0824   -1.7805 H   0  0  0  0  0  0  0  0  0  0  0  0
   -0.2214   -1.5141   -1.5937 H   0  0  0  0  0  0  0  0  0  0  0  0
  1  2  3  0
  2  3  1  0
  3  4  1  0
  4  5  1  0
  5  6  2  0
  5  7  1  0
  7  8  1  0
  7  9  1  0
  9  3  1  0
  1 10  1  0
  3 11  1  0
  4 12  1  0
  4 13  1  0
  7 14  1  0
  8 15  1  0
  9 16  1  0
  9 17  1  0
M  END
