
     RDKit          3D

 16 15  0  0  0  0  0  0  0  0999 V2000
    3.3070    0.8786   -0.9066 C   0  0  0  0  0  0  0  0  0  0  0  0
    2.2204    0.3347   -0.9395 C   0  0  0  0  0  0  0  0  0  0  0  0
    0.9068   -0.2976   -0.9779 C   0  0  0  0  0  0  0  0  0  0  0  0
    0.1411    0.0569    0.2914 C   0  0  0  0  0  0  0  0  0  0  0  0
   -1.2290   -0.5787    0.2946 C   0  0  0  0  0  0  0  0  0  0  0  0
   -1.9550   -0.1275   -0.8017 O   0  0  0  0  0  0  0  0  0  0  0  0
   -1.9296   -0.2083    1.5520 C   0  0  0  0  0  0  0  0  0  0  0  0
   -2.9650    0.3930    1.4923 O   0  0  0  0  0  0  0  0  0  0  0  0
    4.2589    1.3613   -0.8599 H   0  0  0  0  0  0  0  0  0  0  0  0
    0.9990   -1.4071   -1.0014 H   0  0  0  0  0  0  0  0  0  0  0  0
    0.3481    0.0198   -1.8733 H   0  0  0  0  0  0  0  0  0  0  0  0
   -0.0170    1.1540    0.3203 H   0  0  0  0  0  0  0  0  0  0  0  0
    0.7215   -0.2566    1.1680 H   0  0  0  0  0  0  0  0  0  0  0  0
   -1.0704   -1.6742    0.2106 H   0  0  0  0  0  0  0  0  0  0  0  0
   -2.2062    0.8180   -0.6870 H   0  0  0  0  0  0  0  0  0  0  0  0
   -1.5306   -0.4662    2.5117 H   0  0  0  0  0  0  0  0  0  0  0  0
  1  2  3  0
  2  3  1  0
  3  4  1  0
  4  5  1  0
  5  6  1  0
  5  7  1  0
  7  8  2  0
  1  9  1  0
  3 10  1  0
  3 11  1  0
  4 12  1  0
  4 13  1  0
  5 14  1  0
  6 15  1  0
  7 16  1  0
M  END
