
     RDKit          3D

 19 19  0  0  0  0  0  0  0  0999 V2000
   -0.1070    2.7690   -0.3224 C   0  0  0  0  0  0  0  0  0  0  0  0
   -0.3626    1.4296   -0.3612 C   0  0  0  0  0  0  0  0  0  0  0  0
   -0.6237    0.0451   -0.4239 C   0  0  0  0  0  0  0  0  0  0  0  0
   -1.1199   -0.2991   -1.6081 O   0  0  0  0  0  0  0  0  0  0  0  0
   -1.5360   -0.2480    0.7666 C   0  0  0  0  0  0  0  0  0  0  0  0
   -2.6632    0.6058    0.6433 O   0  0  0  0  0  0  0  0  0  0  0  0
    0.7656   -0.5461   -0.0448 C   0  0  0  0  0  0  0  0  0  0  0  0
    1.9319   -0.1476   -0.9870 C   0  0  0  0  0  0  0  0  0  0  0  0
    1.5041   -1.5775   -0.7224 C   0  0  0  0  0  0  0  0  0  0  0  0
    0.1148    3.8626   -0.3038 H   0  0  0  0  0  0  0  0  0  0  0  0
   -0.5778   -1.1143   -1.9330 H   0  0  0  0  0  0  0  0  0  0  0  0
   -1.8933   -1.2583    0.8412 H   0  0  0  0  0  0  0  0  0  0  0  0
   -1.0105    0.0364    1.6907 H   0  0  0  0  0  0  0  0  0  0  0  0
   -3.2597    0.4548    1.4580 H   0  0  0  0  0  0  0  0  0  0  0  0
    1.0464   -0.2512    1.0198 H   0  0  0  0  0  0  0  0  0  0  0  0
    1.6069    0.4039   -1.8837 H   0  0  0  0  0  0  0  0  0  0  0  0
    2.8880    0.2031   -0.5387 H   0  0  0  0  0  0  0  0  0  0  0  0
    1.0443   -2.2034   -1.4885 H   0  0  0  0  0  0  0  0  0  0  0  0
    2.2516   -2.1650   -0.0758 H   0  0  0  0  0  0  0  0  0  0  0  0
  1  2  3  0
  2  3  1  0
  3  4  1  0
  3  5  1  0
  5  6  1  0
  3  7  1  0
  7  8  1  0
  8  9  1  0
  9  7  1  0
  1 10  1  0
  4 11  1  0
  5 12  1  0
  5 13  1  0
  6 14  1  0
  7 15  1  0
  8 16  1  0
  8 17  1  0
  9 18  1  0
  9 19  1  0
M  END
