
     RDKit          3D

 18 18  0  0  0  0  0  0  0  0999 V2000
   -2.8906    0.9516    1.0610 C   0  0  0  0  0  0  0  0  0  0  0  0
   -2.4431   -0.0648    0.5967 C   0  0  0  0  0  0  0  0  0  0  0  0
   -1.9244   -1.2962    0.0519 C   0  0  0  0  0  0  0  0  0  0  0  0
   -0.5428   -1.2904    0.1042 O   0  0  0  0  0  0  0  0  0  0  0  0
   -0.0761   -0.1931   -0.6580 C   0  0  0  0  0  0  0  0  0  0  0  0
    1.4219   -0.1758   -0.6093 C   0  0  0  0  0  0  0  0  0  0  0  0
    2.1595   -0.0481    0.6543 C   0  0  0  0  0  0  0  0  0  0  0  0
    2.0445    1.1543   -0.2136 C   0  0  0  0  0  0  0  0  0  0  0  0
   -3.2894    1.8507    1.4555 H   0  0  0  0  0  0  0  0  0  0  0  0
   -2.1966   -1.4302   -1.0331 H   0  0  0  0  0  0  0  0  0  0  0  0
   -2.3085   -2.1788    0.6114 H   0  0  0  0  0  0  0  0  0  0  0  0
   -0.4756   -0.2256   -1.6776 H   0  0  0  0  0  0  0  0  0  0  0  0
   -0.4549    0.7394   -0.1953 H   0  0  0  0  0  0  0  0  0  0  0  0
    1.8932   -0.7260   -1.4497 H   0  0  0  0  0  0  0  0  0  0  0  0
    1.6331   -0.0053    1.6327 H   0  0  0  0  0  0  0  0  0  0  0  0
    3.1699   -0.5081    0.6768 H   0  0  0  0  0  0  0  0  0  0  0  0
    2.9009    1.4767   -0.8412 H   0  0  0  0  0  0  0  0  0  0  0  0
    1.3789    1.9699    0.1239 H   0  0  0  0  0  0  0  0  0  0  0  0
  1  2  3  0
  2  3  1  0
  3  4  1  0
  4  5  1  0
  5  6  1  0
  6  7  1  0
  7  8  1  0
  8  6  1  0
  1  9  1  0
  3 10  1  0
  3 11  1  0
  5 12  1  0
  5 13  1  0
  6 14  1  0
  7 15  1  0
  7 16  1  0
  8 17  1  0
  8 18  1  0
M  END
