
     RDKit          3D

 17 18  0  0  0  0  0  0  0  0999 V2000
    1.1689    0.8361   -3.1091 C   0  0  0  0  0  0  0  0  0  0  0  0
    0.8548    0.6670   -1.8722 C   0  0  0  0  0  0  0  0  0  0  0  0
    0.5101    0.4779   -0.5122 C   0  0  0  0  0  0  0  0  0  0  0  0
   -0.3729   -0.8537   -0.4564 C   0  0  0  0  0  0  0  0  0  0  0  0
   -0.6306   -0.6548    1.0178 C   0  0  0  0  0  0  0  0  0  0  0  0
    0.7764   -0.4808    1.4837 C   0  0  0  0  0  0  0  0  0  0  0  0
    1.4765    0.0662    0.3595 O   0  0  0  0  0  0  0  0  0  0  0  0
   -1.2315    0.7362    0.9188 C   0  0  0  0  0  0  0  0  0  0  0  0
   -0.4146    1.3696   -0.0232 O   0  0  0  0  0  0  0  0  0  0  0  0
    1.4148    0.9681   -4.0488 H   0  0  0  0  0  0  0  0  0  0  0  0
    0.2913   -1.6523   -0.7335 H   0  0  0  0  0  0  0  0  0  0  0  0
   -1.2636   -0.7258   -1.0672 H   0  0  0  0  0  0  0  0  0  0  0  0
   -1.2579   -1.3945    1.4813 H   0  0  0  0  0  0  0  0  0  0  0  0
    0.8323    0.2179    2.3306 H   0  0  0  0  0  0  0  0  0  0  0  0
    1.2101   -1.4888    1.6842 H   0  0  0  0  0  0  0  0  0  0  0  0
   -1.0720    1.1842    1.9229 H   0  0  0  0  0  0  0  0  0  0  0  0
   -2.2923    0.7275    0.6238 H   0  0  0  0  0  0  0  0  0  0  0  0
  1  2  3  0
  2  3  1  0
  3  4  1  0
  4  5  1  0
  5  6  1  0
  6  7  1  0
  5  8  1  0
  8  9  1  0
  7  3  1  0
  9  3  1  0
  1 10  1  0
  4 11  1  0
  4 12  1  0
  5 13  1  0
  6 14  1  0
  6 15  1  0
  8 16  1  0
  8 17  1  0
M  END
