
     RDKit          3D

 19 19  0  0  0  0  0  0  0  0999 V2000
    1.3357    2.8303   -0.2711 C   0  0  0  0  0  0  0  0  0  0  0  0
    0.7302    1.8374   -0.6178 C   0  0  0  0  0  0  0  0  0  0  0  0
   -0.0072    0.6357   -1.0195 C   0  0  0  0  0  0  0  0  0  0  0  0
   -1.4530    0.8114   -0.5513 C   0  0  0  0  0  0  0  0  0  0  0  0
   -2.2271   -0.2731   -0.8309 O   0  0  0  0  0  0  0  0  0  0  0  0
   -1.7671   -1.4842   -0.3969 C   0  0  0  0  0  0  0  0  0  0  0  0
   -0.3523   -1.5130   -0.0040 C   0  0  0  0  0  0  0  0  0  0  0  0
    0.5259   -0.5316   -0.2753 C   0  0  0  0  0  0  0  0  0  0  0  0
    1.9426   -0.6513    0.1650 C   0  0  0  0  0  0  0  0  0  0  0  0
    1.8724    3.7035    0.0193 H   0  0  0  0  0  0  0  0  0  0  0  0
    0.0091    0.4741   -2.1134 H   0  0  0  0  0  0  0  0  0  0  0  0
   -1.4239    1.0450    0.5206 H   0  0  0  0  0  0  0  0  0  0  0  0
   -1.8456    1.6712   -1.1639 H   0  0  0  0  0  0  0  0  0  0  0  0
   -2.3932   -1.8545    0.4458 H   0  0  0  0  0  0  0  0  0  0  0  0
   -1.9278   -2.2228   -1.2237 H   0  0  0  0  0  0  0  0  0  0  0  0
    0.0459   -2.3612    0.5399 H   0  0  0  0  0  0  0  0  0  0  0  0
    2.6036   -0.0007   -0.4154 H   0  0  0  0  0  0  0  0  0  0  0  0
    2.3154   -1.7020    0.0519 H   0  0  0  0  0  0  0  0  0  0  0  0
    2.0164   -0.4143    1.2466 H   0  0  0  0  0  0  0  0  0  0  0  0
  1  2  3  0
  2  3  1  0
  3  4  1  0
  4  5  1  0
  5  6  1  0
  6  7  1  0
  7  8  2  0
  8  9  1  0
  8  3  1  0
  1 10  1  0
  3 11  1  0
  4 12  1  0
  4 13  1  0
  6 14  1  0
  6 15  1  0
  7 16  1  0
  9 17  1  0
  9 18  1  0
  9 19  1  0
M  END
