
     RDKit          3D

 16 17  0  0  0  0  0  0  0  0999 V2000
    2.6899    1.8317    0.1995 C   0  0  0  0  0  0  0  0  0  0  0  0
    1.7231    1.3086   -0.3212 C   0  0  0  0  0  0  0  0  0  0  0  0
    0.5684    0.6833   -0.9717 C   0  0  0  0  0  0  0  0  0  0  0  0
    0.8776   -0.7230   -1.4270 O   0  0  0  0  0  0  0  0  0  0  0  0
   -0.0504   -0.4184   -0.4858 C   0  0  0  0  0  0  0  0  0  0  0  0
   -1.4442   -0.9248   -0.6360 C   0  0  0  0  0  0  0  0  0  0  0  0
   -1.5262   -0.9568    0.8916 C   0  0  0  0  0  0  0  0  0  0  0  0
    0.0060   -0.9359    0.9087 C   0  0  0  0  0  0  0  0  0  0  0  0
    3.5437    2.2857    0.6390 H   0  0  0  0  0  0  0  0  0  0  0  0
    0.2682    1.2250   -1.9053 H   0  0  0  0  0  0  0  0  0  0  0  0
   -2.1779   -0.2361   -1.0697 H   0  0  0  0  0  0  0  0  0  0  0  0
   -1.4391   -1.9559   -1.0513 H   0  0  0  0  0  0  0  0  0  0  0  0
   -1.9799   -1.8559    1.3045 H   0  0  0  0  0  0  0  0  0  0  0  0
   -1.9258   -0.0115    1.3364 H   0  0  0  0  0  0  0  0  0  0  0  0
    0.4210   -0.1971    1.6259 H   0  0  0  0  0  0  0  0  0  0  0  0
    0.4458   -1.9494    0.9625 H   0  0  0  0  0  0  0  0  0  0  0  0
  1  2  3  0
  2  3  1  0
  3  4  1  0
  4  5  1  0
  5  6  1  0
  6  7  1  0
  7  8  1  0
  5  3  1  0
  8  5  1  0
  1  9  1  0
  3 10  1  0
  6 11  1  0
  6 12  1  0
  7 13  1  0
  7 14  1  0
  8 15  1  0
  8 16  1  0
M  END
