
     RDKit          3D

 17 17  0  0  0  0  0  0  0  0999 V2000
   -2.8599    1.5521   -0.8410 C   0  0  0  0  0  0  0  0  0  0  0  0
   -1.9860    0.8435   -0.3538 C   0  0  0  0  0  0  0  0  0  0  0  0
   -0.9574   -0.0211    0.2181 C   0  0  0  0  0  0  0  0  0  0  0  0
   -1.2923   -1.4691    0.3194 C   0  0  0  0  0  0  0  0  0  0  0  0
   -0.5040    0.4808    1.5393 O   0  0  0  0  0  0  0  0  0  0  0  0
    0.3749    0.5127    0.3478 C   0  0  0  0  0  0  0  0  0  0  0  0
    1.6040   -0.3293    0.4482 C   0  0  0  0  0  0  0  0  0  0  0  0
    2.8356    0.5143    0.5731 C   0  0  0  0  0  0  0  0  0  0  0  0
    3.9213   -0.0129    0.6639 O   0  0  0  0  0  0  0  0  0  0  0  0
   -3.6024    2.1692   -1.2746 H   0  0  0  0  0  0  0  0  0  0  0  0
   -2.0330   -1.5798    1.1601 H   0  0  0  0  0  0  0  0  0  0  0  0
   -1.7245   -1.8130   -0.6423 H   0  0  0  0  0  0  0  0  0  0  0  0
   -0.3732   -2.0637    0.5009 H   0  0  0  0  0  0  0  0  0  0  0  0
    0.5536    1.5650    0.0921 H   0  0  0  0  0  0  0  0  0  0  0  0
    1.7249   -1.0183   -0.4233 H   0  0  0  0  0  0  0  0  0  0  0  0
    1.5492   -0.9399    1.3582 H   0  0  0  0  0  0  0  0  0  0  0  0
    2.7692    1.6094    0.5836 H   0  0  0  0  0  0  0  0  0  0  0  0
  1  2  3  0
  2  3  1  0
  3  4  1  0
  3  5  1  0
  5  6  1  0
  6  7  1  0
  7  8  1  0
  8  9  2  0
  6  3  1  0
  1 10  1  0
  4 11  1  0
  4 12  1  0
  4 13  1  0
  6 14  1  0
  7 15  1  0
  7 16  1  0
  8 17  1  0
M  END
