
     RDKit          3D

 21 21  0  0  0  0  0  0  0  0999 V2000
    0.5237   -3.2291    0.5867 C   0  0  0  0  0  0  0  0  0  0  0  0
    0.1368   -2.3608   -0.1463 C   0  0  0  0  0  0  0  0  0  0  0  0
   -0.3411   -1.3098   -1.0251 C   0  0  0  0  0  0  0  0  0  0  0  0
   -1.4081   -0.5363   -0.6658 O   0  0  0  0  0  0  0  0  0  0  0  0
   -0.1922    0.1122   -0.4656 C   0  0  0  0  0  0  0  0  0  0  0  0
    0.1943    0.2066    0.9903 C   0  0  0  0  0  0  0  0  0  0  0  0
   -0.8463   -0.4597    1.8951 C   0  0  0  0  0  0  0  0  0  0  0  0
    0.3131    1.1046   -1.4493 C   0  0  0  0  0  0  0  0  0  0  0  0
    0.4042    2.4698   -0.7511 C   0  0  0  0  0  0  0  0  0  0  0  0
    0.8726   -4.0264    1.2350 H   0  0  0  0  0  0  0  0  0  0  0  0
   -0.1228   -1.4491   -2.1033 H   0  0  0  0  0  0  0  0  0  0  0  0
    1.1523   -0.3729    1.0986 H   0  0  0  0  0  0  0  0  0  0  0  0
    0.3274    1.2575    1.2906 H   0  0  0  0  0  0  0  0  0  0  0  0
   -1.4627    0.3234    2.3867 H   0  0  0  0  0  0  0  0  0  0  0  0
   -1.4657   -1.1805    1.3145 H   0  0  0  0  0  0  0  0  0  0  0  0
   -0.3706   -1.0309    2.7190 H   0  0  0  0  0  0  0  0  0  0  0  0
   -0.3024    1.2296   -2.3408 H   0  0  0  0  0  0  0  0  0  0  0  0
    1.3680    0.8670   -1.7480 H   0  0  0  0  0  0  0  0  0  0  0  0
   -0.5668    2.6727   -0.2548 H   0  0  0  0  0  0  0  0  0  0  0  0
    0.5303    3.2352   -1.5326 H   0  0  0  0  0  0  0  0  0  0  0  0
    1.2559    2.4769   -0.0429 H   0  0  0  0  0  0  0  0  0  0  0  0
  1  2  3  0
  2  3  1  0
  3  4  1  0
  4  5  1  0
  5  6  1  0
  6  7  1  0
  5  8  1  0
  8  9  1  0
  5  3  1  0
  1 10  1  0
  3 11  1  0
  6 12  1  0
  6 13  1  0
  7 14  1  0
  7 15  1  0
  7 16  1  0
  8 17  1  0
  8 18  1  0
  9 19  1  0
  9 20  1  0
  9 21  1  0
M  END
