
     RDKit          3D

 19 18  0  0  0  0  0  0  0  0999 V2000
    3.7667    1.5574   -0.9145 C   0  0  0  0  0  0  0  0  0  0  0  0
    3.5447    0.5171   -0.4931 C   0  0  0  0  0  0  0  0  0  0  0  0
    3.2153   -0.9275    0.1099 C   0  0  0  0  0  0  0  0  0  0  0  0
    1.7175   -0.6839    0.4140 C   0  0  0  0  0  0  0  0  0  0  0  0
    0.4752   -0.4692    0.6854 C   0  0  0  0  0  0  0  0  0  0  0  0
   -0.8853   -0.2318    0.9954 C   0  0  0  0  0  0  0  0  0  0  0  0
   -1.5355   -0.1359   -0.4078 C   0  0  0  0  0  0  0  0  0  0  0  0
   -2.9212    0.3771   -0.2154 C   0  0  0  0  0  0  0  0  0  0  0  0
   -3.6457   -0.4083    0.6040 O   0  0  0  0  0  0  0  0  0  0  0  0
    3.9699    2.4907   -1.3118 H   0  0  0  0  0  0  0  0  0  0  0  0
    3.7167   -0.9062    1.0784 H   0  0  0  0  0  0  0  0  0  0  0  0
    3.2873   -1.6676   -0.5718 H   0  0  0  0  0  0  0  0  0  0  0  0
   -1.3889   -1.0364    1.5197 H   0  0  0  0  0  0  0  0  0  0  0  0
   -1.0483    0.7374    1.5404 H   0  0  0  0  0  0  0  0  0  0  0  0
   -0.9179    0.4025   -1.1289 H   0  0  0  0  0  0  0  0  0  0  0  0
   -1.6573   -1.2389   -0.6937 H   0  0  0  0  0  0  0  0  0  0  0  0
   -3.4144    0.5172   -1.2306 H   0  0  0  0  0  0  0  0  0  0  0  0
   -2.8770    1.4498    0.1471 H   0  0  0  0  0  0  0  0  0  0  0  0
   -3.4018   -0.3435    1.5815 H   0  0  0  0  0  0  0  0  0  0  0  0
  1  2  3  0
  2  3  1  0
  3  4  1  0
  4  5  3  0
  5  6  1  0
  6  7  1  0
  7  8  1  0
  8  9  1  0
  1 10  1  0
  3 11  1  0
  3 12  1  0
  6 13  1  0
  6 14  1  0
  7 15  1  0
  7 16  1  0
  8 17  1  0
  8 18  1  0
  9 19  1  0
M  END
