
     RDKit          3D

 15 15  0  0  0  0  0  0  0  0999 V2000
   -1.5766    1.3667    2.1574 C   0  0  0  0  0  0  0  0  0  0  0  0
   -1.1731    0.4561    1.0799 C   0  0  0  0  0  0  0  0  0  0  0  0
   -0.8308   -0.2804    0.2220 C   0  0  0  0  0  0  0  0  0  0  0  0
    0.3157   -1.2100    0.3753 C   0  0  0  0  0  0  0  0  0  0  0  0
    1.5268   -0.9721   -0.1179 C   0  0  0  0  0  0  0  0  0  0  0  0
    1.8366    0.2326   -0.8612 C   0  0  0  0  0  0  0  0  0  0  0  0
    2.9445    0.5324   -1.3458 O   0  0  0  0  0  0  0  0  0  0  0  0
    0.7142    1.1226   -1.0074 O   0  0  0  0  0  0  0  0  0  0  0  0
   -0.5656    0.5284   -1.1293 C   0  0  0  0  0  0  0  0  0  0  0  0
   -1.8697    2.0095    2.9132 H   0  0  0  0  0  0  0  0  0  0  0  0
   -1.6744   -1.0468   -0.2467 H   0  0  0  0  0  0  0  0  0  0  0  0
    0.1245   -2.1550    0.9060 H   0  0  0  0  0  0  0  0  0  0  0  0
    2.2644   -1.7234    0.0789 H   0  0  0  0  0  0  0  0  0  0  0  0
   -0.7150   -0.1850   -1.9113 H   0  0  0  0  0  0  0  0  0  0  0  0
   -1.3215    1.3246   -1.1132 H   0  0  0  0  0  0  0  0  0  0  0  0
  1  2  3  0
  2  3  1  0
  3  4  1  0
  4  5  2  0
  5  6  1  0
  6  7  2  0
  6  8  1  0
  8  9  1  0
  9  3  1  0
  1 10  1  0
  3 11  1  0
  4 12  1  0
  5 13  1  0
  9 14  1  0
  9 15  1  0
M  END
