
     RDKit          3D

 17 17  0  0  0  0  0  0  0  0999 V2000
   -2.4965   -0.1201    1.7123 C   0  0  0  0  0  0  0  0  0  0  0  0
   -1.8787   -0.0827    1.1808 C   0  0  0  0  0  0  0  0  0  0  0  0
   -0.7470   -0.0035    0.2135 C   0  0  0  0  0  0  0  0  0  0  0  0
   -0.6893   -1.0995   -0.8378 C   0  0  0  0  0  0  0  0  0  0  0  0
   -1.4891   -0.9049   -1.9267 O   0  0  0  0  0  0  0  0  0  0  0  0
    0.4421   -0.5514    1.1746 O   0  0  0  0  0  0  0  0  0  0  0  0
    0.4371    0.7688    0.6176 C   0  0  0  0  0  0  0  0  0  0  0  0
    1.6685    0.8530   -0.3184 C   0  0  0  0  0  0  0  0  0  0  0  0
    2.8020    0.4265    0.3131 O   0  0  0  0  0  0  0  0  0  0  0  0
   -3.5782   -0.2030    2.6630 H   0  0  0  0  0  0  0  0  0  0  0  0
   -0.9886   -2.1144   -0.3950 H   0  0  0  0  0  0  0  0  0  0  0  0
    0.3878   -1.2969   -1.0781 H   0  0  0  0  0  0  0  0  0  0  0  0
   -1.1578   -0.1468   -2.5585 H   0  0  0  0  0  0  0  0  0  0  0  0
    0.3160    1.5942    1.2884 H   0  0  0  0  0  0  0  0  0  0  0  0
    1.4391    0.3563   -1.2523 H   0  0  0  0  0  0  0  0  0  0  0  0
    1.8732    1.9463   -0.5724 H   0  0  0  0  0  0  0  0  0  0  0  0
    3.6592    0.5783   -0.2242 H   0  0  0  0  0  0  0  0  0  0  0  0
  1  2  3  0
  2  3  1  0
  3  4  1  0
  4  5  1  0
  3  6  1  0
  6  7  1  0
  7  8  1  0
  8  9  1  0
  7  3  1  0
  1 10  1  0
  4 11  1  0
  4 12  1  0
  5 13  1  0
  7 14  1  0
  8 15  1  0
  8 16  1  0
  9 17  1  0
M  END
