
     RDKit          3D

 19 19  0  0  0  0  0  0  0  0999 V2000
    2.7494   -1.1422   -0.5989 C   0  0  0  0  0  0  0  0  0  0  0  0
    1.5004   -0.9753   -1.0635 C   0  0  0  0  0  0  0  0  0  0  0  0
    0.1831   -0.7849   -1.5583 C   0  0  0  0  0  0  0  0  0  0  0  0
   -0.7673   -1.3693   -0.4482 C   0  0  0  0  0  0  0  0  0  0  0  0
   -0.9536   -0.2807    0.4845 C   0  0  0  0  0  0  0  0  0  0  0  0
   -0.6674   -0.5170    1.8082 O   0  0  0  0  0  0  0  0  0  0  0  0
    0.0162    0.8032   -0.0563 C   0  0  0  0  0  0  0  0  0  0  0  0
   -0.2869    2.0404    0.6269 C   0  0  0  0  0  0  0  0  0  0  0  0
   -0.0654    0.6347   -1.3946 O   0  0  0  0  0  0  0  0  0  0  0  0
    3.7802   -1.2655   -0.2040 H   0  0  0  0  0  0  0  0  0  0  0  0
   -0.0286   -1.1586   -2.4423 H   0  0  0  0  0  0  0  0  0  0  0  0
   -0.2118   -2.2232    0.0253 H   0  0  0  0  0  0  0  0  0  0  0  0
   -1.6920   -1.7482   -0.9000 H   0  0  0  0  0  0  0  0  0  0  0  0
   -2.0101    0.0951    0.3948 H   0  0  0  0  0  0  0  0  0  0  0  0
   -1.3515   -0.0390    2.3682 H   0  0  0  0  0  0  0  0  0  0  0  0
    1.0238    0.4022    0.2418 H   0  0  0  0  0  0  0  0  0  0  0  0
    0.4424    2.9024    0.5549 H   0  0  0  0  0  0  0  0  0  0  0  0
   -0.3334    1.8091    1.7646 H   0  0  0  0  0  0  0  0  0  0  0  0
   -1.3274    2.4330    0.3969 H   0  0  0  0  0  0  0  0  0  0  0  0
  1  2  3  0
  2  3  1  0
  3  4  1  0
  4  5  1  0
  5  6  1  0
  5  7  1  0
  7  8  1  0
  7  9  1  0
  9  3  1  0
  1 10  1  0
  3 11  1  0
  4 12  1  0
  4 13  1  0
  5 14  1  0
  6 15  1  0
  7 16  1  0
  8 17  1  0
  8 18  1  0
  8 19  1  0
M  END
