
     RDKit          3D

 15 14  0  0  0  0  0  0  0  0999 V2000
   -1.0785    2.7390    0.2307 C   0  0  0  0  0  0  0  0  0  0  0  0
   -0.6218    1.5144    0.4623 C   0  0  0  0  0  0  0  0  0  0  0  0
   -0.1293    0.1663    0.7118 C   0  0  0  0  0  0  0  0  0  0  0  0
   -1.2207   -0.7283    1.1424 C   0  0  0  0  0  0  0  0  0  0  0  0
    0.7910    0.3093    1.8079 O   0  0  0  0  0  0  0  0  0  0  0  0
    0.5750   -0.2814   -0.4523 C   0  0  0  0  0  0  0  0  0  0  0  0
    1.2150   -0.7125   -1.5444 C   0  0  0  0  0  0  0  0  0  0  0  0
    1.8705   -1.1289   -2.6246 C   0  0  0  0  0  0  0  0  0  0  0  0
    1.3580   -2.0596   -3.3755 O   0  0  0  0  0  0  0  0  0  0  0  0
   -1.4186    3.6445    0.0758 H   0  0  0  0  0  0  0  0  0  0  0  0
   -0.8631   -1.7972    1.1698 H   0  0  0  0  0  0  0  0  0  0  0  0
   -2.1271   -0.6910    0.5376 H   0  0  0  0  0  0  0  0  0  0  0  0
   -1.4241   -0.5097    2.2416 H   0  0  0  0  0  0  0  0  0  0  0  0
    0.2283    0.3293    2.6318 H   0  0  0  0  0  0  0  0  0  0  0  0
    2.8453   -0.7943   -3.0147 H   0  0  0  0  0  0  0  0  0  0  0  0
  1  2  3  0
  2  3  1  0
  3  4  1  0
  3  5  1  0
  3  6  1  0
  6  7  3  0
  7  8  1  0
  8  9  2  0
  1 10  1  0
  4 11  1  0
  4 12  1  0
  4 13  1  0
  5 14  1  0
  8 15  1  0
M  END
