
     RDKit          3D

 15 15  0  0  0  0  0  0  0  0999 V2000
    2.4899    2.1633    0.9436 C   0  0  0  0  0  0  0  0  0  0  0  0
    1.2916    0.7027    0.8343 C   0  0  0  0  0  0  0  0  0  0  0  0
    0.4959   -0.2667    0.7558 C   0  0  0  0  0  0  0  0  0  0  0  0
    0.5753   -1.4285    0.3616 O   0  0  0  0  0  0  0  0  0  0  0  0
   -0.0862   -1.2828   -0.9564 C   0  0  0  0  0  0  0  0  0  0  0  0
   -1.4379   -0.6812   -0.4769 C   0  0  0  0  0  0  0  0  0  0  0  0
   -1.8309   -1.1327    0.7442 O   0  0  0  0  0  0  0  0  0  0  0  0
   -0.6289    0.6444    0.2384 C   0  0  0  0  0  0  0  0  0  0  0  0
   -1.2097    1.6682    0.0533 O   0  0  0  0  0  0  0  0  0  0  0  0
    3.2203    3.0263    0.9990 H   0  0  0  0  0  0  0  0  0  0  0  0
    1.3316   -0.0659   -0.6085 H   0  0  0  0  0  0  0  0  0  0  0  0
    0.2384   -0.6071   -1.6110 H   0  0  0  0  0  0  0  0  0  0  0  0
   -0.1336   -2.2727   -1.4289 H   0  0  0  0  0  0  0  0  0  0  0  0
   -2.1371   -0.2240   -1.0938 H   0  0  0  0  0  0  0  0  0  0  0  0
   -2.1786   -0.2435    1.2453 H   0  0  0  0  0  0  0  0  0  0  0  0
  1  2  3  0
  2  3  1  0
  3  4  1  0
  4  5  1  0
  5  6  1  0
  6  7  1  0
  6  8  1  0
  8  9  2  0
  8  3  1  0
  1 10  1  0
  3 11  1  0
  5 12  1  0
  5 13  1  0
  6 14  1  0
  7 15  1  0
M  END
