
     RDKit          3D

 17 16  0  0  0  0  0  0  0  0999 V2000
   -1.0057    1.4327    2.6461 C   0  0  0  0  0  0  0  0  0  0  0  0
   -0.5298    0.8445    1.5076 C   0  0  0  0  0  0  0  0  0  0  0  0
    0.0331    0.1477    0.2097 C   0  0  0  0  0  0  0  0  0  0  0  0
    0.1739    1.1141   -0.6641 C   0  0  0  0  0  0  0  0  0  0  0  0
    0.3620    2.4068   -1.8340 C   0  0  0  0  0  0  0  0  0  0  0  0
    1.4507   -0.2743    0.5641 C   0  0  0  0  0  0  0  0  0  0  0  0
    1.9705   -0.7127   -0.6702 O   0  0  0  0  0  0  0  0  0  0  0  0
   -0.6405   -0.8333   -0.2566 O   0  0  0  0  0  0  0  0  0  0  0  0
   -1.2713   -1.7551   -0.6963 C   0  0  0  0  0  0  0  0  0  0  0  0
   -1.4624    2.0228    3.7834 H   0  0  0  0  0  0  0  0  0  0  0  0
    0.4883    3.2204   -2.5595 H   0  0  0  0  0  0  0  0  0  0  0  0
    1.3616   -1.0847    1.2697 H   0  0  0  0  0  0  0  0  0  0  0  0
    2.0516    0.5406    0.9962 H   0  0  0  0  0  0  0  0  0  0  0  0
    1.3580   -0.4114   -1.4301 H   0  0  0  0  0  0  0  0  0  0  0  0
   -1.4666   -1.7601   -1.8632 H   0  0  0  0  0  0  0  0  0  0  0  0
   -0.6174   -2.7449   -0.6515 H   0  0  0  0  0  0  0  0  0  0  0  0
   -2.2558   -2.1531   -0.3513 H   0  0  0  0  0  0  0  0  0  0  0  0
  1  2  3  0
  2  3  1  0
  3  4  1  0
  4  5  3  0
  3  6  1  0
  6  7  1  0
  3  8  1  0
  8  9  1  0
  1 10  1  0
  5 11  1  0
  6 12  1  0
  6 13  1  0
  7 14  1  0
  9 15  1  0
  9 16  1  0
  9 17  1  0
M  END
