
     RDKit          3D

 16 16  0  0  0  0  0  0  0  0999 V2000
    3.3898   -0.8974    0.0683 C   0  0  0  0  0  0  0  0  0  0  0  0
    2.2227   -0.5898    0.0304 C   0  0  0  0  0  0  0  0  0  0  0  0
    0.8346   -0.2087   -0.0258 C   0  0  0  0  0  0  0  0  0  0  0  0
   -0.1314   -0.9474    0.4955 C   0  0  0  0  0  0  0  0  0  0  0  0
   -1.5665   -0.5915    0.4587 C   0  0  0  0  0  0  0  0  0  0  0  0
   -1.7267    0.8271    0.0336 C   0  0  0  0  0  0  0  0  0  0  0  0
   -0.5958    1.5983    0.1254 O   0  0  0  0  0  0  0  0  0  0  0  0
    0.4081    1.0735   -0.6932 C   0  0  0  0  0  0  0  0  0  0  0  0
    4.4308   -1.1686    0.0837 H   0  0  0  0  0  0  0  0  0  0  0  0
    0.1853   -1.8763    0.9783 H   0  0  0  0  0  0  0  0  0  0  0  0
   -2.1236   -1.2588   -0.2618 H   0  0  0  0  0  0  0  0  0  0  0  0
   -1.9867   -0.7621    1.4918 H   0  0  0  0  0  0  0  0  0  0  0  0
   -2.5384    1.2818    0.6473 H   0  0  0  0  0  0  0  0  0  0  0  0
   -2.0612    0.8586   -1.0414 H   0  0  0  0  0  0  0  0  0  0  0  0
   -0.0162    0.8936   -1.6909 H   0  0  0  0  0  0  0  0  0  0  0  0
    1.2751    1.7678   -0.7000 H   0  0  0  0  0  0  0  0  0  0  0  0
  1  2  3  0
  2  3  1  0
  3  4  2  0
  4  5  1  0
  5  6  1  0
  6  7  1  0
  7  8  1  0
  8  3  1  0
  1  9  1  0
  4 10  1  0
  5 11  1  0
  5 12  1  0
  6 13  1  0
  6 14  1  0
  8 15  1  0
  8 16  1  0
M  END
