
     RDKit          3D

 21 21  0  0  0  0  0  0  0  0999 V2000
    2.4843   -1.5930    1.4871 C   0  0  0  0  0  0  0  0  0  0  0  0
    1.1038   -1.0752    0.9313 C   0  0  0  0  0  0  0  0  0  0  0  0
    0.1751   -0.7429    0.5647 C   0  0  0  0  0  0  0  0  0  0  0  0
   -0.0532    0.8447    1.3208 C   0  0  0  0  0  0  0  0  0  0  0  0
   -1.4164    1.1162    0.8647 C   0  0  0  0  0  0  0  0  0  0  0  0
   -1.6482    1.4179   -0.5053 O   0  0  0  0  0  0  0  0  0  0  0  0
   -1.4416    0.1524   -1.1746 C   0  0  0  0  0  0  0  0  0  0  0  0
   -0.0955   -0.2366   -0.8481 C   0  0  0  0  0  0  0  0  0  0  0  0
    1.0309   -0.2971   -1.7986 C   0  0  0  0  0  0  0  0  0  0  0  0
    3.3483   -1.9070    1.8338 H   0  0  0  0  0  0  0  0  0  0  0  0
   -0.8329   -1.1542    1.0951 H   0  0  0  0  0  0  0  0  0  0  0  0
   -0.0865    0.3964    2.3123 H   0  0  0  0  0  0  0  0  0  0  0  0
    0.7902    1.3085    1.0311 H   0  0  0  0  0  0  0  0  0  0  0  0
   -2.0431    0.0829    0.8729 H   0  0  0  0  0  0  0  0  0  0  0  0
   -2.0185    1.7333    1.5595 H   0  0  0  0  0  0  0  0  0  0  0  0
   -2.2183   -0.5848   -0.8477 H   0  0  0  0  0  0  0  0  0  0  0  0
   -1.5881    0.3331   -2.2628 H   0  0  0  0  0  0  0  0  0  0  0  0
    0.2806    1.0053   -0.4700 H   0  0  0  0  0  0  0  0  0  0  0  0
    1.1985    0.7372   -2.2768 H   0  0  0  0  0  0  0  0  0  0  0  0
    2.0021   -0.4645   -1.1587 H   0  0  0  0  0  0  0  0  0  0  0  0
    1.0284   -1.0726   -2.5307 H   0  0  0  0  0  0  0  0  0  0  0  0
  1  2  3  0
  2  3  1  0
  3  4  1  0
  4  5  1  0
  5  6  1  0
  6  7  1  0
  7  8  1  0
  8  9  1  0
  8  3  1  0
  1 10  1  0
  3 11  1  0
  4 12  1  0
  4 13  1  0
  5 14  1  0
  5 15  1  0
  7 16  1  0
  7 17  1  0
  8 18  1  0
  9 19  1  0
  9 20  1  0
  9 21  1  0
M  END
