
     RDKit          3D

 19 20  0  0  0  0  0  0  0  0999 V2000
    3.5884   -0.3951    0.8436 C   0  0  0  0  0  0  0  0  0  0  0  0
    2.4722   -0.7013    0.4966 C   0  0  0  0  0  0  0  0  0  0  0  0
    1.1251   -1.0829    0.0531 C   0  0  0  0  0  0  0  0  0  0  0  0
    0.4234    0.0147   -0.6603 C   0  0  0  0  0  0  0  0  0  0  0  0
   -0.9185   -0.0743   -1.2103 C   0  0  0  0  0  0  0  0  0  0  0  0
   -1.5673    1.2163   -1.6568 C   0  0  0  0  0  0  0  0  0  0  0  0
   -1.3612    1.7546   -0.3969 O   0  0  0  0  0  0  0  0  0  0  0  0
   -0.7678    0.6094    0.0869 C   0  0  0  0  0  0  0  0  0  0  0  0
   -1.1956   -0.0072    1.3736 C   0  0  0  0  0  0  0  0  0  0  0  0
    4.5838   -0.1242    1.1439 H   0  0  0  0  0  0  0  0  0  0  0  0
    1.2056   -2.0007   -0.5788 H   0  0  0  0  0  0  0  0  0  0  0  0
    0.5474   -1.3550    0.9545 H   0  0  0  0  0  0  0  0  0  0  0  0
    1.0808    0.8167   -1.0704 H   0  0  0  0  0  0  0  0  0  0  0  0
   -1.5436   -0.9629   -1.2438 H   0  0  0  0  0  0  0  0  0  0  0  0
   -0.9906    1.6497   -2.4840 H   0  0  0  0  0  0  0  0  0  0  0  0
   -2.6438    1.1088   -1.9483 H   0  0  0  0  0  0  0  0  0  0  0  0
   -0.4473    0.1102    2.1927 H   0  0  0  0  0  0  0  0  0  0  0  0
   -2.1321    0.4895    1.6950 H   0  0  0  0  0  0  0  0  0  0  0  0
   -1.4590   -1.0663    1.1821 H   0  0  0  0  0  0  0  0  0  0  0  0
  1  2  3  0
  2  3  1  0
  3  4  1  0
  4  5  1  0
  5  6  1  0
  6  7  1  0
  7  8  1  0
  8  9  1  0
  8  4  1  0
  8  5  1  0
  1 10  1  0
  3 11  1  0
  3 12  1  0
  4 13  1  0
  5 14  1  0
  6 15  1  0
  6 16  1  0
  9 17  1  0
  9 18  1  0
  9 19  1  0
M  END
