
     RDKit          3D

 17 17  0  0  0  0  0  0  0  0999 V2000
   -2.0291    1.5802   -2.0951 C   0  0  0  0  0  0  0  0  0  0  0  0
   -1.6065    0.7829   -1.2947 C   0  0  0  0  0  0  0  0  0  0  0  0
   -1.0922   -0.1795   -0.2925 C   0  0  0  0  0  0  0  0  0  0  0  0
   -1.8083   -0.2437    0.8815 O   0  0  0  0  0  0  0  0  0  0  0  0
   -0.3445   -1.3506   -0.7354 C   0  0  0  0  0  0  0  0  0  0  0  0
    0.4619   -0.2385   -0.1832 C   0  0  0  0  0  0  0  0  0  0  0  0
    0.9814   -0.2734    1.1996 C   0  0  0  0  0  0  0  0  0  0  0  0
    2.2032    0.5254    1.4976 C   0  0  0  0  0  0  0  0  0  0  0  0
    0.4531   -0.9243    2.0951 O   0  0  0  0  0  0  0  0  0  0  0  0
   -2.3871    2.2893   -2.8043 H   0  0  0  0  0  0  0  0  0  0  0  0
   -2.6538   -0.7423    0.6735 H   0  0  0  0  0  0  0  0  0  0  0  0
   -0.2770   -1.5647   -1.8376 H   0  0  0  0  0  0  0  0  0  0  0  0
   -0.4699   -2.3022   -0.1538 H   0  0  0  0  0  0  0  0  0  0  0  0
    0.9973    0.3742   -0.9331 H   0  0  0  0  0  0  0  0  0  0  0  0
    1.9445    1.5628    1.8197 H   0  0  0  0  0  0  0  0  0  0  0  0
    2.8054    0.6433    0.5732 H   0  0  0  0  0  0  0  0  0  0  0  0
    2.8218    0.0612    2.2908 H   0  0  0  0  0  0  0  0  0  0  0  0
  1  2  3  0
  2  3  1  0
  3  4  1  0
  3  5  1  0
  5  6  1  0
  6  7  1  0
  7  8  1  0
  7  9  2  0
  6  3  1  0
  1 10  1  0
  4 11  1  0
  5 12  1  0
  5 13  1  0
  6 14  1  0
  8 15  1  0
  8 16  1  0
  8 17  1  0
M  END
