
     RDKit          3D

 18 19  0  0  0  0  0  0  0  0999 V2000
    2.7425   -0.7399   -1.5875 C   0  0  0  0  0  0  0  0  0  0  0  0
    1.9636   -0.4067   -0.7297 C   0  0  0  0  0  0  0  0  0  0  0  0
    1.0201   -0.0292    0.3098 C   0  0  0  0  0  0  0  0  0  0  0  0
    0.1845    1.1809    0.0918 C   0  0  0  0  0  0  0  0  0  0  0  0
   -1.0356    0.4586    0.5655 C   0  0  0  0  0  0  0  0  0  0  0  0
   -2.2398    0.5063   -0.3211 C   0  0  0  0  0  0  0  0  0  0  0  0
   -0.2389   -0.8325    0.5137 C   0  0  0  0  0  0  0  0  0  0  0  0
    0.8761   -0.9072    1.4756 C   0  0  0  0  0  0  0  0  0  0  0  0
    3.4239   -1.0430   -2.3628 H   0  0  0  0  0  0  0  0  0  0  0  0
    0.5118    2.0354    0.7320 H   0  0  0  0  0  0  0  0  0  0  0  0
    0.1619    1.5398   -0.9629 H   0  0  0  0  0  0  0  0  0  0  0  0
   -1.2986    0.6803    1.6169 H   0  0  0  0  0  0  0  0  0  0  0  0
   -2.8601   -0.3993   -0.1194 H   0  0  0  0  0  0  0  0  0  0  0  0
   -2.8530    1.3753   -0.0094 H   0  0  0  0  0  0  0  0  0  0  0  0
   -2.0073    0.4924   -1.3916 H   0  0  0  0  0  0  0  0  0  0  0  0
   -0.4935   -1.6143   -0.1979 H   0  0  0  0  0  0  0  0  0  0  0  0
    1.5014   -1.8235    1.4759 H   0  0  0  0  0  0  0  0  0  0  0  0
    0.6410   -0.4734    2.4914 H   0  0  0  0  0  0  0  0  0  0  0  0
  1  2  3  0
  2  3  1  0
  3  4  1  0
  4  5  1  0
  5  6  1  0
  5  7  1  0
  7  8  1  0
  7  3  1  0
  8  3  1  0
  1  9  1  0
  4 10  1  0
  4 11  1  0
  5 12  1  0
  6 13  1  0
  6 14  1  0
  6 15  1  0
  7 16  1  0
  8 17  1  0
  8 18  1  0
M  END
