
     RDKit          3D

 19 20  0  0  0  0  0  0  0  0999 V2000
    3.1655    1.3391   -0.1566 C   0  0  0  0  0  0  0  0  0  0  0  0
    2.1152    1.1539   -0.1142 C   0  0  0  0  0  0  0  0  0  0  0  0
    0.8092    0.9187   -0.0539 C   0  0  0  0  0  0  0  0  0  0  0  0
   -0.2261    0.4303   -0.9257 C   0  0  0  0  0  0  0  0  0  0  0  0
   -1.4731    0.8596    0.0358 C   0  0  0  0  0  0  0  0  0  0  0  0
   -1.0910    0.4538    1.1579 C   0  0  0  0  0  0  0  0  0  0  0  0
    0.3029   -0.2317    0.8642 C   0  0  0  0  0  0  0  0  0  0  0  0
   -0.0603   -0.9286   -0.3868 C   0  0  0  0  0  0  0  0  0  0  0  0
   -1.3115   -1.7944   -0.3278 C   0  0  0  0  0  0  0  0  0  0  0  0
    4.5092    1.5652   -0.1904 H   0  0  0  0  0  0  0  0  0  0  0  0
    0.2946    1.9351    0.4939 H   0  0  0  0  0  0  0  0  0  0  0  0
   -0.4178    0.7351   -1.8983 H   0  0  0  0  0  0  0  0  0  0  0  0
   -2.2466    1.2981   -0.5184 H   0  0  0  0  0  0  0  0  0  0  0  0
   -1.3381    0.3384    2.2132 H   0  0  0  0  0  0  0  0  0  0  0  0
    0.8614   -0.5716    1.6554 H   0  0  0  0  0  0  0  0  0  0  0  0
    0.8105   -1.4947   -0.8141 H   0  0  0  0  0  0  0  0  0  0  0  0
   -2.1440   -1.1696   -0.0370 H   0  0  0  0  0  0  0  0  0  0  0  0
   -1.4559   -2.2042   -1.3540 H   0  0  0  0  0  0  0  0  0  0  0  0
   -1.1042   -2.6324    0.3566 H   0  0  0  0  0  0  0  0  0  0  0  0
  1  2  3  0
  2  3  1  0
  3  4  1  0
  4  5  1  0
  5  6  2  0
  6  7  1  0
  7  8  1  0
  8  9  1  0
  7  3  1  0
  8  4  1  0
  1 10  1  0
  3 11  1  0
  4 12  1  0
  5 13  1  0
  6 14  1  0
  7 15  1  0
  8 16  1  0
  9 17  1  0
  9 18  1  0
  9 19  1  0
M  END
