
     RDKit          3D

 19 20  0  0  0  0  0  0  0  0999 V2000
    1.7220    1.3503    3.1424 C   0  0  0  0  0  0  0  0  0  0  0  0
    1.7216    1.0028    1.9883 C   0  0  0  0  0  0  0  0  0  0  0  0
    1.7139    0.5765    0.5628 C   0  0  0  0  0  0  0  0  0  0  0  0
    1.0027   -0.5852    0.2638 C   0  0  0  0  0  0  0  0  0  0  0  0
   -0.3457   -1.0682    0.3448 C   0  0  0  0  0  0  0  0  0  0  0  0
   -0.9933   -0.6171   -0.7164 C   0  0  0  0  0  0  0  0  0  0  0  0
   -2.3914   -0.7934   -1.1632 C   0  0  0  0  0  0  0  0  0  0  0  0
   -0.0026    0.2537   -1.4938 C   0  0  0  0  0  0  0  0  0  0  0  0
    0.6209    0.8458   -0.2611 C   0  0  0  0  0  0  0  0  0  0  0  0
    1.7237    1.6433    4.1804 H   0  0  0  0  0  0  0  0  0  0  0  0
    2.7456    0.7522    0.1357 H   0  0  0  0  0  0  0  0  0  0  0  0
    1.5483   -1.2530   -0.4895 H   0  0  0  0  0  0  0  0  0  0  0  0
   -0.7914   -1.6826    1.1036 H   0  0  0  0  0  0  0  0  0  0  0  0
   -2.4532   -1.3410   -2.1408 H   0  0  0  0  0  0  0  0  0  0  0  0
   -2.9400   -1.3482   -0.3712 H   0  0  0  0  0  0  0  0  0  0  0  0
   -2.8586    0.2278   -1.2781 H   0  0  0  0  0  0  0  0  0  0  0  0
   -0.5179    1.0244   -2.0675 H   0  0  0  0  0  0  0  0  0  0  0  0
    0.7257   -0.3489   -2.0314 H   0  0  0  0  0  0  0  0  0  0  0  0
   -0.2302    1.3608    0.2913 H   0  0  0  0  0  0  0  0  0  0  0  0
  1  2  3  0
  2  3  1  0
  3  4  1  0
  4  5  1  0
  5  6  2  0
  6  7  1  0
  6  8  1  0
  8  9  1  0
  9  3  1  0
  9  4  1  0
  1 10  1  0
  3 11  1  0
  4 12  1  0
  5 13  1  0
  7 14  1  0
  7 15  1  0
  7 16  1  0
  8 17  1  0
  8 18  1  0
  9 19  1  0
M  END
