
     RDKit          3D

 21 20  0  0  0  0  0  0  0  0999 V2000
    0.8683    2.5192   -0.5651 C   0  0  0  0  0  0  0  0  0  0  0  0
    0.5063    1.4890   -0.0518 C   0  0  0  0  0  0  0  0  0  0  0  0
    0.0695    0.2507    0.5937 C   0  0  0  0  0  0  0  0  0  0  0  0
    0.2003    0.4476    2.1066 C   0  0  0  0  0  0  0  0  0  0  0  0
    1.0049   -0.8728    0.2084 C   0  0  0  0  0  0  0  0  0  0  0  0
    1.0426   -1.1130   -1.2798 C   0  0  0  0  0  0  0  0  0  0  0  0
   -1.3543   -0.0690    0.3237 C   0  0  0  0  0  0  0  0  0  0  0  0
   -1.9000   -0.2865   -1.0508 C   0  0  0  0  0  0  0  0  0  0  0  0
   -2.1943   -0.1779    1.2304 O   0  0  0  0  0  0  0  0  0  0  0  0
    1.1749    3.4282   -1.0144 H   0  0  0  0  0  0  0  0  0  0  0  0
    1.2763    0.5976    2.3248 H   0  0  0  0  0  0  0  0  0  0  0  0
   -0.1480   -0.4871    2.6236 H   0  0  0  0  0  0  0  0  0  0  0  0
   -0.3387    1.3451    2.4351 H   0  0  0  0  0  0  0  0  0  0  0  0
    2.0330   -0.5996    0.5165 H   0  0  0  0  0  0  0  0  0  0  0  0
    0.7622   -1.8191    0.6932 H   0  0  0  0  0  0  0  0  0  0  0  0
    1.1041   -0.1498   -1.8542 H   0  0  0  0  0  0  0  0  0  0  0  0
    0.2106   -1.7442   -1.6443 H   0  0  0  0  0  0  0  0  0  0  0  0
    1.9865   -1.6999   -1.4811 H   0  0  0  0  0  0  0  0  0  0  0  0
   -2.9196    0.1933   -1.1259 H   0  0  0  0  0  0  0  0  0  0  0  0
   -1.2777    0.1271   -1.8410 H   0  0  0  0  0  0  0  0  0  0  0  0
   -2.1069   -1.3787   -1.1476 H   0  0  0  0  0  0  0  0  0  0  0  0
  1  2  3  0
  2  3  1  0
  3  4  1  0
  3  5  1  0
  5  6  1  0
  3  7  1  0
  7  8  1  0
  7  9  2  0
  1 10  1  0
  4 11  1  0
  4 12  1  0
  4 13  1  0
  5 14  1  0
  5 15  1  0
  6 16  1  0
  6 17  1  0
  6 18  1  0
  8 19  1  0
  8 20  1  0
  8 21  1  0
M  END
