
     RDKit          3D

 23 23  0  0  0  0  0  0  0  0999 V2000
   -1.0771    2.8971   -0.6228 C   0  0  0  0  0  0  0  0  0  0  0  0
   -0.7205    1.7506   -0.6627 C   0  0  0  0  0  0  0  0  0  0  0  0
   -0.2554    0.3397   -0.7184 C   0  0  0  0  0  0  0  0  0  0  0  0
    1.1312    0.3419   -1.2881 C   0  0  0  0  0  0  0  0  0  0  0  0
    1.7285   -1.0389   -1.3993 C   0  0  0  0  0  0  0  0  0  0  0  0
   -0.3955   -0.2904    0.6183 C   0  0  0  0  0  0  0  0  0  0  0  0
    0.4189    0.4182    1.7083 C   0  0  0  0  0  0  0  0  0  0  0  0
   -0.8209   -1.6718    0.8592 C   0  0  0  0  0  0  0  0  0  0  0  0
   -1.8502   -0.6352    0.9862 C   0  0  0  0  0  0  0  0  0  0  0  0
   -1.3804    3.9347   -0.5897 H   0  0  0  0  0  0  0  0  0  0  0  0
   -0.9242   -0.1419   -1.4799 H   0  0  0  0  0  0  0  0  0  0  0  0
    1.8157    1.0138   -0.6920 H   0  0  0  0  0  0  0  0  0  0  0  0
    1.0906    0.7700   -2.3208 H   0  0  0  0  0  0  0  0  0  0  0  0
    1.4541   -1.4477   -2.3914 H   0  0  0  0  0  0  0  0  0  0  0  0
    1.3718   -1.7278   -0.6119 H   0  0  0  0  0  0  0  0  0  0  0  0
    2.8567   -0.9760   -1.3993 H   0  0  0  0  0  0  0  0  0  0  0  0
    1.2492    0.9872    1.2624 H   0  0  0  0  0  0  0  0  0  0  0  0
   -0.2166    1.1643    2.2503 H   0  0  0  0  0  0  0  0  0  0  0  0
    0.7343   -0.3370    2.4280 H   0  0  0  0  0  0  0  0  0  0  0  0
   -0.9466   -2.4352    0.0861 H   0  0  0  0  0  0  0  0  0  0  0  0
   -0.4731   -2.1213    1.8348 H   0  0  0  0  0  0  0  0  0  0  0  0
   -2.6120   -0.5807    0.1852 H   0  0  0  0  0  0  0  0  0  0  0  0
   -2.1784   -0.2135    1.9574 H   0  0  0  0  0  0  0  0  0  0  0  0
  1  2  3  0
  2  3  1  0
  3  4  1  0
  4  5  1  0
  3  6  1  0
  6  7  1  0
  6  8  1  0
  8  9  1  0
  9  6  1  0
  1 10  1  0
  3 11  1  0
  4 12  1  0
  4 13  1  0
  5 14  1  0
  5 15  1  0
  5 16  1  0
  7 17  1  0
  7 18  1  0
  7 19  1  0
  8 20  1  0
  8 21  1  0
  9 22  1  0
  9 23  1  0
M  END
