
     RDKit          3D

 17 19  0  0  0  0  0  0  0  0999 V2000
    3.2494   -1.3291   -0.3594 C   0  0  0  0  0  0  0  0  0  0  0  0
    2.2957   -0.7399    0.0530 C   0  0  0  0  0  0  0  0  0  0  0  0
    1.1367   -0.0420    0.5323 C   0  0  0  0  0  0  0  0  0  0  0  0
    1.2457    1.2634    0.9662 O   0  0  0  0  0  0  0  0  0  0  0  0
    0.5771    1.0941   -0.2238 C   0  0  0  0  0  0  0  0  0  0  0  0
   -0.7520    0.3953   -0.2697 C   0  0  0  0  0  0  0  0  0  0  0  0
   -2.0005    1.1472    0.0571 C   0  0  0  0  0  0  0  0  0  0  0  0
   -0.8310   -1.0422   -0.7141 C   0  0  0  0  0  0  0  0  0  0  0  0
   -0.2171   -0.6840    0.5650 C   0  0  0  0  0  0  0  0  0  0  0  0
    4.0946   -1.8425   -0.7222 H   0  0  0  0  0  0  0  0  0  0  0  0
    1.0346    1.5173   -1.1172 H   0  0  0  0  0  0  0  0  0  0  0  0
   -2.1452    1.3454    1.1234 H   0  0  0  0  0  0  0  0  0  0  0  0
   -1.9893    2.1177   -0.4887 H   0  0  0  0  0  0  0  0  0  0  0  0
   -2.8632    0.5534   -0.2910 H   0  0  0  0  0  0  0  0  0  0  0  0
   -1.8699   -1.4519   -0.6619 H   0  0  0  0  0  0  0  0  0  0  0  0
   -0.2750   -1.4004   -1.5812 H   0  0  0  0  0  0  0  0  0  0  0  0
   -0.6906   -0.9018    1.5340 H   0  0  0  0  0  0  0  0  0  0  0  0
  1  2  3  0
  2  3  1  0
  3  4  1  0
  4  5  1  0
  5  6  1  0
  6  7  1  0
  6  8  1  0
  8  9  1  0
  5  3  1  0
  9  6  1  0
  9  3  1  0
  1 10  1  0
  5 11  1  0
  7 12  1  0
  7 13  1  0
  7 14  1  0
  8 15  1  0
  8 16  1  0
  9 17  1  0
M  END
