
     RDKit          3D

 17 19  0  0  0  0  0  0  0  0999 V2000
   -0.2525    3.3371   -0.2160 C   0  0  0  0  0  0  0  0  0  0  0  0
   -0.3923    1.8716   -0.3200 C   0  0  0  0  0  0  0  0  0  0  0  0
   -0.5373    0.4944   -0.4161 C   0  0  0  0  0  0  0  0  0  0  0  0
    0.7505    0.1217   -1.3298 C   0  0  0  0  0  0  0  0  0  0  0  0
    0.6056   -0.8708   -2.2407 O   0  0  0  0  0  0  0  0  0  0  0  0
    0.9419   -0.0298    0.0815 C   0  0  0  0  0  0  0  0  0  0  0  0
    0.3014   -1.2662    0.7112 C   0  0  0  0  0  0  0  0  0  0  0  0
   -0.8468   -1.8547    0.0170 C   0  0  0  0  0  0  0  0  0  0  0  0
   -0.9521   -0.4385    0.5666 C   0  0  0  0  0  0  0  0  0  0  0  0
   -0.1582    4.5474   -0.1277 H   0  0  0  0  0  0  0  0  0  0  0  0
    1.0736    1.0684   -1.8382 H   0  0  0  0  0  0  0  0  0  0  0  0
    1.3765   -1.5249   -2.3384 H   0  0  0  0  0  0  0  0  0  0  0  0
    1.2275    0.6584    0.9315 H   0  0  0  0  0  0  0  0  0  0  0  0
    0.7349   -1.6366    1.5838 H   0  0  0  0  0  0  0  0  0  0  0  0
   -0.8510   -1.8983   -1.1819 H   0  0  0  0  0  0  0  0  0  0  0  0
   -1.5844   -2.4797    0.3842 H   0  0  0  0  0  0  0  0  0  0  0  0
   -1.4374   -0.0993    1.4913 H   0  0  0  0  0  0  0  0  0  0  0  0
  1  2  3  0
  2  3  1  0
  3  4  1  0
  4  5  1  0
  4  6  1  0
  6  7  1  0
  7  8  1  0
  8  9  1  0
  6  3  1  0
  9  7  1  0
  9  3  1  0
  1 10  1  0
  4 11  1  0
  5 12  1  0
  6 13  1  0
  7 14  1  0
  8 15  1  0
  8 16  1  0
  9 17  1  0
M  END
