
     RDKit          3D

 17 16  0  0  0  0  0  0  0  0999 V2000
    2.5442    0.8067    2.9970 C   0  0  0  0  0  0  0  0  0  0  0  0
    1.6358    0.2322    2.4889 C   0  0  0  0  0  0  0  0  0  0  0  0
    0.5107   -0.4674    1.8456 C   0  0  0  0  0  0  0  0  0  0  0  0
    0.4715   -0.1088    0.5111 O   0  0  0  0  0  0  0  0  0  0  0  0
   -0.5709   -0.6976   -0.1922 C   0  0  0  0  0  0  0  0  0  0  0  0
   -0.5572   -0.2159   -1.6541 C   0  0  0  0  0  0  0  0  0  0  0  0
   -1.6557   -0.8916   -2.2366 O   0  0  0  0  0  0  0  0  0  0  0  0
   -0.8477    1.2264   -1.6991 C   0  0  0  0  0  0  0  0  0  0  0  0
   -1.7117    1.8284   -2.1938 O   0  0  0  0  0  0  0  0  0  0  0  0
    3.3999    1.3334    3.4725 H   0  0  0  0  0  0  0  0  0  0  0  0
    0.6472   -1.5621    1.9460 H   0  0  0  0  0  0  0  0  0  0  0  0
   -0.4364   -0.1349    2.3578 H   0  0  0  0  0  0  0  0  0  0  0  0
   -0.5607   -1.7745   -0.0969 H   0  0  0  0  0  0  0  0  0  0  0  0
   -1.5292   -0.2354    0.2350 H   0  0  0  0  0  0  0  0  0  0  0  0
    0.3997   -0.4628   -2.1351 H   0  0  0  0  0  0  0  0  0  0  0  0
   -1.6863   -0.7129   -3.1868 H   0  0  0  0  0  0  0  0  0  0  0  0
   -0.0533    1.8369   -1.1253 H   0  0  0  0  0  0  0  0  0  0  0  0
  1  2  3  0
  2  3  1  0
  3  4  1  0
  4  5  1  0
  5  6  1  0
  6  7  1  0
  6  8  1  0
  8  9  2  0
  1 10  1  0
  3 11  1  0
  3 12  1  0
  5 13  1  0
  5 14  1  0
  6 15  1  0
  7 16  1  0
  8 17  1  0
M  END
