
     RDKit          3D

 19 18  0  0  0  0  0  0  0  0999 V2000
    1.8405    1.7054   -1.0919 C   0  0  0  0  0  0  0  0  0  0  0  0
    1.3819    0.6569   -0.7050 C   0  0  0  0  0  0  0  0  0  0  0  0
    0.8386   -0.6091   -0.2166 C   0  0  0  0  0  0  0  0  0  0  0  0
    1.9502   -1.3803    0.3858 C   0  0  0  0  0  0  0  0  0  0  0  0
    2.8611   -2.0099    0.8608 C   0  0  0  0  0  0  0  0  0  0  0  0
   -0.1688   -0.3694    0.8995 C   0  0  0  0  0  0  0  0  0  0  0  0
   -1.3223    0.4673    0.4498 C   0  0  0  0  0  0  0  0  0  0  0  0
   -2.1114   -0.1194   -0.6753 C   0  0  0  0  0  0  0  0  0  0  0  0
   -0.8165    1.7042    0.0309 O   0  0  0  0  0  0  0  0  0  0  0  0
    2.2660    2.6335   -1.4313 H   0  0  0  0  0  0  0  0  0  0  0  0
    0.3980   -1.2000   -1.0434 H   0  0  0  0  0  0  0  0  0  0  0  0
    3.6562   -2.5669    1.2814 H   0  0  0  0  0  0  0  0  0  0  0  0
    0.3805    0.2251    1.6764 H   0  0  0  0  0  0  0  0  0  0  0  0
   -0.4530   -1.3143    1.3854 H   0  0  0  0  0  0  0  0  0  0  0  0
   -2.0061    0.5826    1.3165 H   0  0  0  0  0  0  0  0  0  0  0  0
   -2.6236    0.7433   -1.1948 H   0  0  0  0  0  0  0  0  0  0  0  0
   -1.5284   -0.6557   -1.4277 H   0  0  0  0  0  0  0  0  0  0  0  0
   -2.9400   -0.7449   -0.2864 H   0  0  0  0  0  0  0  0  0  0  0  0
   -1.6030    2.2517   -0.2142 H   0  0  0  0  0  0  0  0  0  0  0  0
  1  2  3  0
  2  3  1  0
  3  4  1  0
  4  5  3  0
  3  6  1  0
  6  7  1  0
  7  8  1  0
  7  9  1  0
  1 10  1  0
  3 11  1  0
  5 12  1  0
  6 13  1  0
  6 14  1  0
  7 15  1  0
  8 16  1  0
  8 17  1  0
  8 18  1  0
  9 19  1  0
M  END
