
     RDKit          3D

 19 20  0  0  0  0  0  0  0  0999 V2000
    2.5786   -0.3291    1.4836 C   0  0  0  0  0  0  0  0  0  0  0  0
    2.0902    0.2336    0.5378 C   0  0  0  0  0  0  0  0  0  0  0  0
    1.5236    0.9173   -0.6138 C   0  0  0  0  0  0  0  0  0  0  0  0
    0.9432    0.0183   -1.6550 C   0  0  0  0  0  0  0  0  0  0  0  0
    0.1307    1.0950   -0.8634 C   0  0  0  0  0  0  0  0  0  0  0  0
   -1.0868    0.5860   -0.2363 C   0  0  0  0  0  0  0  0  0  0  0  0
   -1.4577   -0.8344   -0.0941 C   0  0  0  0  0  0  0  0  0  0  0  0
   -1.1305   -0.0134    1.1577 C   0  0  0  0  0  0  0  0  0  0  0  0
   -2.1916    0.2999    2.0092 O   0  0  0  0  0  0  0  0  0  0  0  0
    3.0170   -0.8220    2.3057 H   0  0  0  0  0  0  0  0  0  0  0  0
    2.2316    1.6870   -1.0712 H   0  0  0  0  0  0  0  0  0  0  0  0
    0.7592   -1.0323   -1.4289 H   0  0  0  0  0  0  0  0  0  0  0  0
    1.1371    0.2081   -2.7152 H   0  0  0  0  0  0  0  0  0  0  0  0
   -0.1088    1.9864   -1.5577 H   0  0  0  0  0  0  0  0  0  0  0  0
   -2.0137    1.2371   -0.4009 H   0  0  0  0  0  0  0  0  0  0  0  0
   -0.7904   -1.6801   -0.3125 H   0  0  0  0  0  0  0  0  0  0  0  0
   -2.5234   -1.1402   -0.1532 H   0  0  0  0  0  0  0  0  0  0  0  0
   -0.2316   -0.3007    1.6851 H   0  0  0  0  0  0  0  0  0  0  0  0
   -2.8766   -0.4169    1.9231 H   0  0  0  0  0  0  0  0  0  0  0  0
  1  2  3  0
  2  3  1  0
  3  4  1  0
  4  5  1  0
  5  6  1  0
  6  7  1  0
  7  8  1  0
  8  9  1  0
  5  3  1  0
  8  6  1  0
  1 10  1  0
  3 11  1  0
  4 12  1  0
  4 13  1  0
  5 14  1  0
  6 15  1  0
  7 16  1  0
  7 17  1  0
  8 18  1  0
  9 19  1  0
M  END
