
     RDKit          3D

 17 17  0  0  0  0  0  0  0  0999 V2000
    2.4321   -1.2696    1.1898 C   0  0  0  0  0  0  0  0  0  0  0  0
    1.8416   -0.6970    0.2881 C   0  0  0  0  0  0  0  0  0  0  0  0
    1.1097   -0.0111   -0.7836 C   0  0  0  0  0  0  0  0  0  0  0  0
    0.5815    1.2388   -0.2500 C   0  0  0  0  0  0  0  0  0  0  0  0
   -0.6129    1.5152    0.2362 C   0  0  0  0  0  0  0  0  0  0  0  0
   -1.7672    0.6144    0.3764 C   0  0  0  0  0  0  0  0  0  0  0  0
   -1.9171   -0.1860   -0.7571 O   0  0  0  0  0  0  0  0  0  0  0  0
   -0.9095   -1.1531   -0.6696 C   0  0  0  0  0  0  0  0  0  0  0  0
    0.2128   -0.8535   -1.3626 O   0  0  0  0  0  0  0  0  0  0  0  0
    2.9623   -1.7606    1.9695 H   0  0  0  0  0  0  0  0  0  0  0  0
    1.8912    0.2263   -1.5640 H   0  0  0  0  0  0  0  0  0  0  0  0
    1.3140    2.0663   -0.2662 H   0  0  0  0  0  0  0  0  0  0  0  0
   -0.7190    2.5415    0.5623 H   0  0  0  0  0  0  0  0  0  0  0  0
   -2.6796    1.2649    0.4578 H   0  0  0  0  0  0  0  0  0  0  0  0
   -1.6841   -0.0136    1.3126 H   0  0  0  0  0  0  0  0  0  0  0  0
   -1.3580   -2.0826   -1.1284 H   0  0  0  0  0  0  0  0  0  0  0  0
   -0.6978   -1.4402    0.3887 H   0  0  0  0  0  0  0  0  0  0  0  0
  1  2  3  0
  2  3  1  0
  3  4  1  0
  4  5  2  0
  5  6  1  0
  6  7  1  0
  7  8  1  0
  8  9  1  0
  9  3  1  0
  1 10  1  0
  3 11  1  0
  4 12  1  0
  5 13  1  0
  6 14  1  0
  6 15  1  0
  8 16  1  0
  8 17  1  0
M  END
