
     RDKit          3D

 19 19  0  0  0  0  0  0  0  0999 V2000
   -1.6829    2.2206    1.1715 C   0  0  0  0  0  0  0  0  0  0  0  0
   -1.6155    0.7237    0.4288 C   0  0  0  0  0  0  0  0  0  0  0  0
   -1.5886   -0.2642   -0.0681 C   0  0  0  0  0  0  0  0  0  0  0  0
   -0.8803   -1.4252    0.7265 C   0  0  0  0  0  0  0  0  0  0  0  0
    0.4969   -0.7559    1.0891 C   0  0  0  0  0  0  0  0  0  0  0  0
    1.0374   -0.5419    1.9687 O   0  0  0  0  0  0  0  0  0  0  0  0
    0.9216   -0.4744   -0.4127 C   0  0  0  0  0  0  0  0  0  0  0  0
    2.0474    0.5759   -0.3697 C   0  0  0  0  0  0  0  0  0  0  0  0
   -0.2520   -0.0849   -1.1224 C   0  0  0  0  0  0  0  0  0  0  0  0
   -1.7130    3.0830    1.5831 H   0  0  0  0  0  0  0  0  0  0  0  0
   -2.3266   -0.6578   -0.8693 H   0  0  0  0  0  0  0  0  0  0  0  0
   -0.8045   -2.3189    0.2000 H   0  0  0  0  0  0  0  0  0  0  0  0
   -1.3800   -1.5278    1.7339 H   0  0  0  0  0  0  0  0  0  0  0  0
    1.4331   -1.4293   -0.8009 H   0  0  0  0  0  0  0  0  0  0  0  0
    2.2898    0.9184    0.6425 H   0  0  0  0  0  0  0  0  0  0  0  0
    1.7802    1.4222   -1.0198 H   0  0  0  0  0  0  0  0  0  0  0  0
    2.9420   -0.0207   -0.7977 H   0  0  0  0  0  0  0  0  0  0  0  0
   -0.5176   -0.4929   -2.0511 H   0  0  0  0  0  0  0  0  0  0  0  0
   -0.1873    1.0501   -1.2023 H   0  0  0  0  0  0  0  0  0  0  0  0
  1  2  3  0
  2  3  1  0
  3  4  1  0
  4  5  1  0
  5  6  2  0
  5  7  1  0
  7  8  1  0
  7  9  1  0
  9  3  1  0
  1 10  1  0
  3 11  1  0
  4 12  1  0
  4 13  1  0
  7 14  1  0
  8 15  1  0
  8 16  1  0
  8 17  1  0
  9 18  1  0
  9 19  1  0
M  END
