
     RDKit          3D

 21 21  0  0  0  0  0  0  0  0999 V2000
    3.0859   -0.3741    1.8787 C   0  0  0  0  0  0  0  0  0  0  0  0
    1.9480   -0.2274    1.4963 C   0  0  0  0  0  0  0  0  0  0  0  0
    0.5650   -0.0617    1.0532 C   0  0  0  0  0  0  0  0  0  0  0  0
    0.5452   -0.0080   -0.4576 C   0  0  0  0  0  0  0  0  0  0  0  0
    1.1076   -1.2796   -1.0655 C   0  0  0  0  0  0  0  0  0  0  0  0
   -0.8500    0.1717   -0.9965 C   0  0  0  0  0  0  0  0  0  0  0  0
   -1.5789    1.4021   -0.5776 C   0  0  0  0  0  0  0  0  0  0  0  0
   -2.3864    0.5159    0.3166 C   0  0  0  0  0  0  0  0  0  0  0  0
   -1.7368   -0.6086   -0.2184 O   0  0  0  0  0  0  0  0  0  0  0  0
    4.0975   -0.5056    2.2095 H   0  0  0  0  0  0  0  0  0  0  0  0
   -0.0603   -0.9320    1.4020 H   0  0  0  0  0  0  0  0  0  0  0  0
    0.1567    0.8875    1.4185 H   0  0  0  0  0  0  0  0  0  0  0  0
    1.1798    0.8487   -0.7574 H   0  0  0  0  0  0  0  0  0  0  0  0
    2.1448   -1.1114   -1.4550 H   0  0  0  0  0  0  0  0  0  0  0  0
    0.4636   -1.6562   -1.8840 H   0  0  0  0  0  0  0  0  0  0  0  0
    1.1949   -2.0809   -0.2746 H   0  0  0  0  0  0  0  0  0  0  0  0
   -0.9334   -0.0619   -2.0769 H   0  0  0  0  0  0  0  0  0  0  0  0
   -2.2427    1.8404   -1.3682 H   0  0  0  0  0  0  0  0  0  0  0  0
   -0.9925    2.2012   -0.0914 H   0  0  0  0  0  0  0  0  0  0  0  0
   -3.4786    0.4227    0.0472 H   0  0  0  0  0  0  0  0  0  0  0  0
   -2.2295    0.6173    1.4010 H   0  0  0  0  0  0  0  0  0  0  0  0
  1  2  3  0
  2  3  1  0
  3  4  1  0
  4  5  1  0
  4  6  1  0
  6  7  1  0
  7  8  1  0
  8  9  1  0
  9  6  1  0
  1 10  1  0
  3 11  1  0
  3 12  1  0
  4 13  1  0
  5 14  1  0
  5 15  1  0
  5 16  1  0
  6 17  1  0
  7 18  1  0
  7 19  1  0
  8 20  1  0
  8 21  1  0
M  END
