
     RDKit          3D

 17 17  0  0  0  0  0  0  0  0999 V2000
    2.8250   -0.6349    0.0382 C   0  0  0  0  0  0  0  0  0  0  0  0
    1.7162   -0.1614   -0.2224 C   0  0  0  0  0  0  0  0  0  0  0  0
    0.4214    0.4124   -0.5118 C   0  0  0  0  0  0  0  0  0  0  0  0
    0.3460    1.7162    0.2790 C   0  0  0  0  0  0  0  0  0  0  0  0
   -0.7324   -0.4952   -0.1646 C   0  0  0  0  0  0  0  0  0  0  0  0
   -2.0705    0.1033   -0.4708 C   0  0  0  0  0  0  0  0  0  0  0  0
   -2.1800    1.0425   -1.2422 O   0  0  0  0  0  0  0  0  0  0  0  0
   -0.6684   -1.6067    0.6889 C   0  0  0  0  0  0  0  0  0  0  0  0
   -0.5512   -1.8152   -0.7791 O   0  0  0  0  0  0  0  0  0  0  0  0
    3.7893   -1.0523    0.2838 H   0  0  0  0  0  0  0  0  0  0  0  0
    0.4090    0.7303   -1.5800 H   0  0  0  0  0  0  0  0  0  0  0  0
    1.1372    2.4004   -0.0917 H   0  0  0  0  0  0  0  0  0  0  0  0
   -0.6436    2.1890    0.1774 H   0  0  0  0  0  0  0  0  0  0  0  0
    0.5770    1.5021    1.3472 H   0  0  0  0  0  0  0  0  0  0  0  0
   -2.9836   -0.2701   -0.0239 H   0  0  0  0  0  0  0  0  0  0  0  0
    0.2179   -1.9600    1.2554 H   0  0  0  0  0  0  0  0  0  0  0  0
   -1.6093   -2.1004    1.0166 H   0  0  0  0  0  0  0  0  0  0  0  0
  1  2  3  0
  2  3  1  0
  3  4  1  0
  3  5  1  0
  5  6  1  0
  6  7  2  0
  5  8  1  0
  8  9  1  0
  9  5  1  0
  1 10  1  0
  3 11  1  0
  4 12  1  0
  4 13  1  0
  4 14  1  0
  6 15  1  0
  8 16  1  0
  8 17  1  0
M  END
