
     RDKit          3D

 15 16  0  0  0  0  0  0  0  0999 V2000
    3.5037    0.7466    0.0531 C   0  0  0  0  0  0  0  0  0  0  0  0
    2.3412    0.4309   -0.0297 C   0  0  0  0  0  0  0  0  0  0  0  0
    0.9411    0.0741   -0.1345 C   0  0  0  0  0  0  0  0  0  0  0  0
    0.3351   -0.8845    0.5582 C   0  0  0  0  0  0  0  0  0  0  0  0
   -1.0923   -0.9812    0.2062 C   0  0  0  0  0  0  0  0  0  0  0  0
   -1.9934    0.1378    0.5743 C   0  0  0  0  0  0  0  0  0  0  0  0
   -1.3776    0.1535   -0.7488 C   0  0  0  0  0  0  0  0  0  0  0  0
   -0.0477    0.6995   -1.0135 C   0  0  0  0  0  0  0  0  0  0  0  0
    0.2377    1.5768   -1.8634 O   0  0  0  0  0  0  0  0  0  0  0  0
    4.5277    1.0439    0.1249 H   0  0  0  0  0  0  0  0  0  0  0  0
    0.8285   -1.5101    1.2850 H   0  0  0  0  0  0  0  0  0  0  0  0
   -1.4799   -1.9981   -0.0157 H   0  0  0  0  0  0  0  0  0  0  0  0
   -1.6580    0.7608    1.4171 H   0  0  0  0  0  0  0  0  0  0  0  0
   -3.0799   -0.0953    0.6143 H   0  0  0  0  0  0  0  0  0  0  0  0
   -1.9863   -0.1546   -1.6185 H   0  0  0  0  0  0  0  0  0  0  0  0
  1  2  3  0
  2  3  1  0
  3  4  2  0
  4  5  1  0
  5  6  1  0
  6  7  1  0
  7  8  1  0
  8  9  2  0
  8  3  1  0
  7  5  1  0
  1 10  1  0
  4 11  1  0
  5 12  1  0
  6 13  1  0
  6 14  1  0
  7 15  1  0
M  END
