
     RDKit          3D

 19 20  0  0  0  0  0  0  0  0999 V2000
   -3.3594   -0.4094    0.5816 C   0  0  0  0  0  0  0  0  0  0  0  0
   -2.2857    0.1389    0.4734 C   0  0  0  0  0  0  0  0  0  0  0  0
   -0.9686    0.7929    0.3544 C   0  0  0  0  0  0  0  0  0  0  0  0
   -1.0046    2.1762    0.4164 O   0  0  0  0  0  0  0  0  0  0  0  0
   -0.1882    0.2300   -0.8183 C   0  0  0  0  0  0  0  0  0  0  0  0
    0.8081   -0.2882    0.1487 C   0  0  0  0  0  0  0  0  0  0  0  0
    1.5997   -1.4785    0.0098 C   0  0  0  0  0  0  0  0  0  0  0  0
    2.2605   -0.1001    0.0215 C   0  0  0  0  0  0  0  0  0  0  0  0
    0.0119    0.1410    1.3100 C   0  0  0  0  0  0  0  0  0  0  0  0
   -4.2945   -0.9059    0.6754 H   0  0  0  0  0  0  0  0  0  0  0  0
   -1.0388    2.4992   -0.5334 H   0  0  0  0  0  0  0  0  0  0  0  0
    0.2510    1.0772   -1.4149 H   0  0  0  0  0  0  0  0  0  0  0  0
   -0.7640   -0.4904   -1.4148 H   0  0  0  0  0  0  0  0  0  0  0  0
    1.7630   -2.1543    0.8640 H   0  0  0  0  0  0  0  0  0  0  0  0
    1.6695   -2.0019   -0.9711 H   0  0  0  0  0  0  0  0  0  0  0  0
    2.7877    0.1797    0.9741 H   0  0  0  0  0  0  0  0  0  0  0  0
    2.6083    0.3270   -0.9308 H   0  0  0  0  0  0  0  0  0  0  0  0
   -0.4335   -0.6290    1.9649 H   0  0  0  0  0  0  0  0  0  0  0  0
    0.5776    0.8955    1.9316 H   0  0  0  0  0  0  0  0  0  0  0  0
  1  2  3  0
  2  3  1  0
  3  4  1  0
  3  5  1  0
  5  6  1  0
  6  7  1  0
  7  8  1  0
  6  9  1  0
  9  3  1  0
  8  6  1  0
  1 10  1  0
  4 11  1  0
  5 12  1  0
  5 13  1  0
  7 14  1  0
  7 15  1  0
  8 16  1  0
  8 17  1  0
  9 18  1  0
  9 19  1  0
M  END
