
     RDKit          3D

 17 18  0  0  0  0  0  0  0  0999 V2000
    2.8155   -1.1421    0.4949 C   0  0  0  0  0  0  0  0  0  0  0  0
    1.8860   -0.5308    0.0525 C   0  0  0  0  0  0  0  0  0  0  0  0
    0.7809    0.2164   -0.4876 C   0  0  0  0  0  0  0  0  0  0  0  0
    0.5323    1.5455    0.2350 C   0  0  0  0  0  0  0  0  0  0  0  0
   -0.4326    2.3009   -0.3701 O   0  0  0  0  0  0  0  0  0  0  0  0
   -0.7896    1.2541    0.4349 C   0  0  0  0  0  0  0  0  0  0  0  0
   -0.5948   -0.1776   -0.0327 C   0  0  0  0  0  0  0  0  0  0  0  0
   -1.5348   -0.5957   -1.1156 C   0  0  0  0  0  0  0  0  0  0  0  0
   -0.5204   -1.0659    1.0622 O   0  0  0  0  0  0  0  0  0  0  0  0
    3.6423   -1.6726    0.9015 H   0  0  0  0  0  0  0  0  0  0  0  0
    0.7951    0.3438   -1.6019 H   0  0  0  0  0  0  0  0  0  0  0  0
    1.3309    1.9598    0.8384 H   0  0  0  0  0  0  0  0  0  0  0  0
   -1.5211    1.4845    1.2137 H   0  0  0  0  0  0  0  0  0  0  0  0
   -1.7023   -1.6785   -1.1190 H   0  0  0  0  0  0  0  0  0  0  0  0
   -2.5422   -0.1169   -1.0258 H   0  0  0  0  0  0  0  0  0  0  0  0
   -1.1060   -0.2267   -2.0871 H   0  0  0  0  0  0  0  0  0  0  0  0
   -1.0393   -1.8982    0.8872 H   0  0  0  0  0  0  0  0  0  0  0  0
  1  2  3  0
  2  3  1  0
  3  4  1  0
  4  5  1  0
  5  6  1  0
  6  7  1  0
  7  8  1  0
  7  9  1  0
  7  3  1  0
  6  4  1  0
  1 10  1  0
  3 11  1  0
  4 12  1  0
  6 13  1  0
  8 14  1  0
  8 15  1  0
  8 16  1  0
  9 17  1  0
M  END
