
     RDKit          3D

 21 21  0  0  0  0  0  0  0  0999 V2000
    3.1275    0.0654   -1.7648 C   0  0  0  0  0  0  0  0  0  0  0  0
    2.2166   -0.5872   -1.3209 C   0  0  0  0  0  0  0  0  0  0  0  0
    1.3053   -1.2365   -0.8984 C   0  0  0  0  0  0  0  0  0  0  0  0
    0.5083   -0.1852    0.0875 C   0  0  0  0  0  0  0  0  0  0  0  0
    1.4496    0.3040    1.0794 O   0  0  0  0  0  0  0  0  0  0  0  0
   -0.6247   -0.7611    0.9987 C   0  0  0  0  0  0  0  0  0  0  0  0
   -0.8296    0.2798   -0.0670 C   0  0  0  0  0  0  0  0  0  0  0  0
   -1.1510    1.7288    0.3624 C   0  0  0  0  0  0  0  0  0  0  0  0
   -1.8572   -0.2541   -1.1044 C   0  0  0  0  0  0  0  0  0  0  0  0
    4.2726    0.8764   -2.2943 H   0  0  0  0  0  0  0  0  0  0  0  0
    1.8577   -1.9204    0.0265 H   0  0  0  0  0  0  0  0  0  0  0  0
    0.6217   -1.8643   -1.3247 H   0  0  0  0  0  0  0  0  0  0  0  0
    0.7865    0.6185    1.8108 H   0  0  0  0  0  0  0  0  0  0  0  0
   -0.6230   -0.4084    2.0723 H   0  0  0  0  0  0  0  0  0  0  0  0
   -0.6914   -1.8297    0.8724 H   0  0  0  0  0  0  0  0  0  0  0  0
   -1.4562    1.8755    1.3880 H   0  0  0  0  0  0  0  0  0  0  0  0
   -0.3661    2.3994   -0.0032 H   0  0  0  0  0  0  0  0  0  0  0  0
   -2.1248    2.0647   -0.1840 H   0  0  0  0  0  0  0  0  0  0  0  0
   -2.6058    0.5375   -1.2941 H   0  0  0  0  0  0  0  0  0  0  0  0
   -2.4609   -1.0200   -0.5199 H   0  0  0  0  0  0  0  0  0  0  0  0
   -1.3551   -0.6830   -1.9370 H   0  0  0  0  0  0  0  0  0  0  0  0
  1  2  3  0
  2  3  1  0
  3  4  1  0
  4  5  1  0
  4  6  1  0
  6  7  1  0
  7  8  1  0
  7  9  1  0
  7  4  1  0
  1 10  1  0
  3 11  1  0
  3 12  1  0
  5 13  1  0
  6 14  1  0
  6 15  1  0
  8 16  1  0
  8 17  1  0
  8 18  1  0
  9 19  1  0
  9 20  1  0
  9 21  1  0
M  END
