
     RDKit          3D

 15 16  0  0  0  0  0  0  0  0999 V2000
    2.2930   -0.5059   -1.4447 C   0  0  0  0  0  0  0  0  0  0  0  0
    1.4698   -0.2604   -0.6126 C   0  0  0  0  0  0  0  0  0  0  0  0
    0.5438    0.0382    0.3167 C   0  0  0  0  0  0  0  0  0  0  0  0
    0.4693   -0.5760    1.6824 C   0  0  0  0  0  0  0  0  0  0  0  0
   -0.6210    0.4394    1.5547 C   0  0  0  0  0  0  0  0  0  0  0  0
    0.3307    1.2478    0.9091 O   0  0  0  0  0  0  0  0  0  0  0  0
   -0.9129   -0.1288    0.2009 C   0  0  0  0  0  0  0  0  0  0  0  0
   -1.6345    0.7460   -0.7427 C   0  0  0  0  0  0  0  0  0  0  0  0
   -1.6715    0.4414   -1.9166 O   0  0  0  0  0  0  0  0  0  0  0  0
    3.0264   -0.7393   -2.2069 H   0  0  0  0  0  0  0  0  0  0  0  0
    0.1280   -1.6114    1.6448 H   0  0  0  0  0  0  0  0  0  0  0  0
    1.2390   -0.3043    2.4019 H   0  0  0  0  0  0  0  0  0  0  0  0
   -1.2734    0.7461    2.2538 H   0  0  0  0  0  0  0  0  0  0  0  0
   -1.2530   -1.1821    0.2420 H   0  0  0  0  0  0  0  0  0  0  0  0
   -2.1338    1.6494   -0.4361 H   0  0  0  0  0  0  0  0  0  0  0  0
  1  2  3  0
  2  3  1  0
  3  4  1  0
  4  5  1  0
  5  6  1  0
  5  7  1  0
  7  8  1  0
  8  9  2  0
  6  3  1  0
  7  3  1  0
  1 10  1  0
  4 11  1  0
  4 12  1  0
  5 13  1  0
  7 14  1  0
  8 15  1  0
M  END
