
     RDKit          3D

 15 17  0  0  0  0  0  0  0  0999 V2000
    1.1581   -2.1755   -1.8054 C   0  0  0  0  0  0  0  0  0  0  0  0
    1.0126   -1.1662   -1.1690 C   0  0  0  0  0  0  0  0  0  0  0  0
    0.8290    0.0431   -0.4273 C   0  0  0  0  0  0  0  0  0  0  0  0
    1.8411    0.4614    0.4251 O   0  0  0  0  0  0  0  0  0  0  0  0
    0.7652   -0.0308    1.1123 C   0  0  0  0  0  0  0  0  0  0  0  0
   -0.4019    0.9155    1.2929 C   0  0  0  0  0  0  0  0  0  0  0  0
   -1.4312    0.3927    0.3471 C   0  0  0  0  0  0  0  0  0  0  0  0
   -0.3915    0.9081   -0.6170 C   0  0  0  0  0  0  0  0  0  0  0  0
   -0.1422    1.9182    0.3291 O   0  0  0  0  0  0  0  0  0  0  0  0
    1.2859   -3.0594   -2.3815 H   0  0  0  0  0  0  0  0  0  0  0  0
    0.7622   -1.0191    1.5705 H   0  0  0  0  0  0  0  0  0  0  0  0
   -0.6688    1.2302    2.2723 H   0  0  0  0  0  0  0  0  0  0  0  0
   -2.3190    1.0602    0.3156 H   0  0  0  0  0  0  0  0  0  0  0  0
   -1.6149   -0.6760    0.3333 H   0  0  0  0  0  0  0  0  0  0  0  0
   -0.6846    1.1976   -1.5981 H   0  0  0  0  0  0  0  0  0  0  0  0
  1  2  3  0
  2  3  1  0
  3  4  1  0
  4  5  1  0
  5  6  1  0
  6  7  1  0
  7  8  1  0
  8  9  1  0
  5  3  1  0
  9  6  1  0
  8  3  1  0
  1 10  1  0
  5 11  1  0
  6 12  1  0
  7 13  1  0
  7 14  1  0
  8 15  1  0
M  END
