
     RDKit          3D

 21 21  0  0  0  0  0  0  0  0999 V2000
    3.2568    1.0191    0.8099 C   0  0  0  0  0  0  0  0  0  0  0  0
    2.4451    0.1724    0.5501 C   0  0  0  0  0  0  0  0  0  0  0  0
    1.4669   -0.8472    0.2121 C   0  0  0  0  0  0  0  0  0  0  0  0
    0.3089   -0.3024   -0.5829 C   0  0  0  0  0  0  0  0  0  0  0  0
   -0.6389   -1.4481   -0.8748 C   0  0  0  0  0  0  0  0  0  0  0  0
   -1.9240   -0.9776   -0.5847 O   0  0  0  0  0  0  0  0  0  0  0  0
   -1.6827   -0.3445    0.6561 C   0  0  0  0  0  0  0  0  0  0  0  0
   -0.5685    0.6204    0.2303 C   0  0  0  0  0  0  0  0  0  0  0  0
   -1.2112    1.5994   -0.7292 C   0  0  0  0  0  0  0  0  0  0  0  0
    3.9804    1.7669    1.0586 H   0  0  0  0  0  0  0  0  0  0  0  0
    1.1256   -1.3840    1.1197 H   0  0  0  0  0  0  0  0  0  0  0  0
    1.9728   -1.6025   -0.4239 H   0  0  0  0  0  0  0  0  0  0  0  0
    0.6816    0.1444   -1.5086 H   0  0  0  0  0  0  0  0  0  0  0  0
   -0.4434   -2.2809   -0.1858 H   0  0  0  0  0  0  0  0  0  0  0  0
   -0.6129   -1.7508   -1.9425 H   0  0  0  0  0  0  0  0  0  0  0  0
   -1.2538   -1.0380    1.3804 H   0  0  0  0  0  0  0  0  0  0  0  0
   -2.5872    0.1771    0.9614 H   0  0  0  0  0  0  0  0  0  0  0  0
   -0.0712    1.0851    1.0748 H   0  0  0  0  0  0  0  0  0  0  0  0
   -1.9130    0.9836   -1.3649 H   0  0  0  0  0  0  0  0  0  0  0  0
   -1.8569    2.2676   -0.1253 H   0  0  0  0  0  0  0  0  0  0  0  0
   -0.4744    2.1398   -1.3508 H   0  0  0  0  0  0  0  0  0  0  0  0
  1  2  3  0
  2  3  1  0
  3  4  1  0
  4  5  1  0
  5  6  1  0
  6  7  1  0
  7  8  1  0
  8  9  1  0
  8  4  1  0
  1 10  1  0
  3 11  1  0
  3 12  1  0
  4 13  1  0
  5 14  1  0
  5 15  1  0
  7 16  1  0
  7 17  1  0
  8 18  1  0
  9 19  1  0
  9 20  1  0
  9 21  1  0
M  END
