
     RDKit          3D

 25 24  0  0  0  0  0  0  0  0999 V2000
    1.5838    3.2114    0.8848 C   0  0  0  0  0  0  0  0  0  0  0  0
    1.3218    2.0964    0.4776 C   0  0  0  0  0  0  0  0  0  0  0  0
    1.0314    0.7491   -0.0133 C   0  0  0  0  0  0  0  0  0  0  0  0
    1.3851   -0.2593    1.0211 C   0  0  0  0  0  0  0  0  0  0  0  0
    2.8606   -0.1468    1.3350 C   0  0  0  0  0  0  0  0  0  0  0  0
   -0.4098    0.7063   -0.4366 C   0  0  0  0  0  0  0  0  0  0  0  0
   -0.8427   -0.6267   -0.9637 C   0  0  0  0  0  0  0  0  0  0  0  0
   -2.3207   -0.4887   -1.3428 C   0  0  0  0  0  0  0  0  0  0  0  0
   -2.8369   -1.8240   -1.8942 C   0  0  0  0  0  0  0  0  0  0  0  0
    1.8065    4.1814    1.2445 H   0  0  0  0  0  0  0  0  0  0  0  0
    1.6536    0.5531   -0.9102 H   0  0  0  0  0  0  0  0  0  0  0  0
    0.8486   -0.0775    1.9942 H   0  0  0  0  0  0  0  0  0  0  0  0
    1.1825   -1.2926    0.7492 H   0  0  0  0  0  0  0  0  0  0  0  0
    3.2299   -1.0686    1.8680 H   0  0  0  0  0  0  0  0  0  0  0  0
    3.1051    0.7269    1.9534 H   0  0  0  0  0  0  0  0  0  0  0  0
    3.4388   -0.0780    0.3998 H   0  0  0  0  0  0  0  0  0  0  0  0
   -1.0621    0.9544    0.4265 H   0  0  0  0  0  0  0  0  0  0  0  0
   -0.6262    1.4617   -1.2179 H   0  0  0  0  0  0  0  0  0  0  0  0
   -0.7572   -1.4335   -0.2093 H   0  0  0  0  0  0  0  0  0  0  0  0
   -0.3260   -0.8849   -1.9240 H   0  0  0  0  0  0  0  0  0  0  0  0
   -2.4389    0.2400   -2.1680 H   0  0  0  0  0  0  0  0  0  0  0  0
   -2.9502   -0.2385   -0.4939 H   0  0  0  0  0  0  0  0  0  0  0  0
   -2.5548   -1.9065   -2.9650 H   0  0  0  0  0  0  0  0  0  0  0  0
   -3.9258   -1.8858   -1.7847 H   0  0  0  0  0  0  0  0  0  0  0  0
   -2.3963   -2.6692   -1.3033 H   0  0  0  0  0  0  0  0  0  0  0  0
  1  2  3  0
  2  3  1  0
  3  4  1  0
  4  5  1  0
  3  6  1  0
  6  7  1  0
  7  8  1  0
  8  9  1  0
  1 10  1  0
  3 11  1  0
  4 12  1  0
  4 13  1  0
  5 14  1  0
  5 15  1  0
  5 16  1  0
  6 17  1  0
  6 18  1  0
  7 19  1  0
  7 20  1  0
  8 21  1  0
  8 22  1  0
  9 23  1  0
  9 24  1  0
  9 25  1  0
M  END
