
     RDKit          3D

 19 20  0  0  0  0  0  0  0  0999 V2000
    2.8038   -1.5476   -0.7918 C   0  0  0  0  0  0  0  0  0  0  0  0
    1.9351   -0.7545   -0.5046 C   0  0  0  0  0  0  0  0  0  0  0  0
    0.8490    0.2030   -0.1578 C   0  0  0  0  0  0  0  0  0  0  0  0
    1.4771    1.5315    0.2967 C   0  0  0  0  0  0  0  0  0  0  0  0
   -0.2996    0.1845   -0.9493 C   0  0  0  0  0  0  0  0  0  0  0  0
   -1.3597   -0.7147   -1.3242 C   0  0  0  0  0  0  0  0  0  0  0  0
   -2.2359   -0.7370   -0.3352 C   0  0  0  0  0  0  0  0  0  0  0  0
   -1.6938    0.2030    0.7394 C   0  0  0  0  0  0  0  0  0  0  0  0
   -0.2628   -0.2365    0.5571 C   0  0  0  0  0  0  0  0  0  0  0  0
    3.5535   -2.2472   -1.0574 H   0  0  0  0  0  0  0  0  0  0  0  0
    0.6430    2.2394    0.4846 H   0  0  0  0  0  0  0  0  0  0  0  0
    2.0111    1.3867    1.2555 H   0  0  0  0  0  0  0  0  0  0  0  0
    2.0907    1.9593   -0.5039 H   0  0  0  0  0  0  0  0  0  0  0  0
   -0.6931    1.2438   -1.1512 H   0  0  0  0  0  0  0  0  0  0  0  0
   -1.4413   -1.2823   -2.2511 H   0  0  0  0  0  0  0  0  0  0  0  0
   -3.1490   -1.2823   -0.2553 H   0  0  0  0  0  0  0  0  0  0  0  0
   -1.8873    1.2539    0.4915 H   0  0  0  0  0  0  0  0  0  0  0  0
   -2.0842   -0.0500    1.7318 H   0  0  0  0  0  0  0  0  0  0  0  0
   -0.2567   -1.3531    0.7709 H   0  0  0  0  0  0  0  0  0  0  0  0
  1  2  3  0
  2  3  1  0
  3  4  1  0
  3  5  1  0
  5  6  1  0
  6  7  2  0
  7  8  1  0
  8  9  1  0
  9  3  1  0
  9  5  1  0
  1 10  1  0
  4 11  1  0
  4 12  1  0
  4 13  1  0
  5 14  1  0
  6 15  1  0
  7 16  1  0
  8 17  1  0
  8 18  1  0
  9 19  1  0
M  END
