
     RDKit          3D

 19 19  0  0  0  0  0  0  0  0999 V2000
    3.3396    1.7445    1.3860 C   0  0  0  0  0  0  0  0  0  0  0  0
    2.4119    1.3088    0.7094 C   0  0  0  0  0  0  0  0  0  0  0  0
    1.3254    0.8136   -0.0784 C   0  0  0  0  0  0  0  0  0  0  0  0
    1.2285    1.0565   -1.3032 O   0  0  0  0  0  0  0  0  0  0  0  0
    0.2818   -0.0079    0.5564 C   0  0  0  0  0  0  0  0  0  0  0  0
   -0.4005   -1.0992   -0.1708 C   0  0  0  0  0  0  0  0  0  0  0  0
   -0.9385   -2.2492    0.6263 C   0  0  0  0  0  0  0  0  0  0  0  0
   -1.1068    0.2081    0.0723 C   0  0  0  0  0  0  0  0  0  0  0  0
   -1.3719    1.0262   -1.1576 C   0  0  0  0  0  0  0  0  0  0  0  0
    4.1346    2.1372    1.9643 H   0  0  0  0  0  0  0  0  0  0  0  0
    0.4252   -0.1859    1.6460 H   0  0  0  0  0  0  0  0  0  0  0  0
   -0.0233   -1.3260   -1.1816 H   0  0  0  0  0  0  0  0  0  0  0  0
   -0.7301   -3.2030    0.0982 H   0  0  0  0  0  0  0  0  0  0  0  0
   -0.4282   -2.3493    1.6213 H   0  0  0  0  0  0  0  0  0  0  0  0
   -2.0108   -2.0761    0.8157 H   0  0  0  0  0  0  0  0  0  0  0  0
   -1.8780    0.2789    0.8567 H   0  0  0  0  0  0  0  0  0  0  0  0
   -0.9313    0.6246   -2.0762 H   0  0  0  0  0  0  0  0  0  0  0  0
   -2.4499    1.2712   -1.2649 H   0  0  0  0  0  0  0  0  0  0  0  0
   -0.8780    2.0270   -0.9773 H   0  0  0  0  0  0  0  0  0  0  0  0
  1  2  3  0
  2  3  1  0
  3  4  2  0
  3  5  1  0
  5  6  1  0
  6  7  1  0
  6  8  1  0
  8  9  1  0
  8  5  1  0
  1 10  1  0
  5 11  1  0
  6 12  1  0
  7 13  1  0
  7 14  1  0
  7 15  1  0
  8 16  1  0
  9 17  1  0
  9 18  1  0
  9 19  1  0
M  END
