
     RDKit          3D

 17 18  0  0  0  0  0  0  0  0999 V2000
    3.5397    0.7927   -0.2574 C   0  0  0  0  0  0  0  0  0  0  0  0
    2.4106    0.4461   -0.5092 C   0  0  0  0  0  0  0  0  0  0  0  0
    1.0425    0.0157   -0.8016 C   0  0  0  0  0  0  0  0  0  0  0  0
    0.3382   -0.5715    0.4286 C   0  0  0  0  0  0  0  0  0  0  0  0
   -0.6703    0.4227   -0.0105 C   0  0  0  0  0  0  0  0  0  0  0  0
   -1.4686    1.1414    0.9908 C   0  0  0  0  0  0  0  0  0  0  0  0
   -2.5801    1.0593    0.1227 O   0  0  0  0  0  0  0  0  0  0  0  0
   -1.9744   -0.0466   -0.5040 C   0  0  0  0  0  0  0  0  0  0  0  0
    0.1715    1.0918   -0.8314 O   0  0  0  0  0  0  0  0  0  0  0  0
    4.5387    1.1184   -0.0289 H   0  0  0  0  0  0  0  0  0  0  0  0
    0.9320   -0.5845   -1.7154 H   0  0  0  0  0  0  0  0  0  0  0  0
    0.8722   -0.4064    1.3619 H   0  0  0  0  0  0  0  0  0  0  0  0
    0.0878   -1.6341    0.2046 H   0  0  0  0  0  0  0  0  0  0  0  0
   -1.2445    2.2186    1.1615 H   0  0  0  0  0  0  0  0  0  0  0  0
   -1.6539    0.6249    1.9587 H   0  0  0  0  0  0  0  0  0  0  0  0
   -2.0579   -0.0655   -1.5916 H   0  0  0  0  0  0  0  0  0  0  0  0
   -2.2835   -0.9957    0.0212 H   0  0  0  0  0  0  0  0  0  0  0  0
  1  2  3  0
  2  3  1  0
  3  4  1  0
  4  5  1  0
  5  6  1  0
  6  7  1  0
  7  8  1  0
  5  9  1  0
  9  3  1  0
  8  5  1  0
  1 10  1  0
  3 11  1  0
  4 12  1  0
  4 13  1  0
  6 14  1  0
  6 15  1  0
  8 16  1  0
  8 17  1  0
M  END
