
     RDKit          3D

 15 17  0  0  0  0  0  0  0  0999 V2000
    3.0142    0.2821   -0.4520 C   0  0  0  0  0  0  0  0  0  0  0  0
    1.9464   -0.1829   -0.1440 C   0  0  0  0  0  0  0  0  0  0  0  0
    0.6528   -0.7579    0.2065 C   0  0  0  0  0  0  0  0  0  0  0  0
   -0.0268   -1.0795   -0.9930 O   0  0  0  0  0  0  0  0  0  0  0  0
   -1.1593   -0.2967   -0.9259 C   0  0  0  0  0  0  0  0  0  0  0  0
   -0.7884    1.0151   -0.3039 C   0  0  0  0  0  0  0  0  0  0  0  0
   -2.0250    1.0052    0.3083 O   0  0  0  0  0  0  0  0  0  0  0  0
   -1.6294   -0.3132    0.4858 C   0  0  0  0  0  0  0  0  0  0  0  0
   -0.2809    0.2050    0.8354 C   0  0  0  0  0  0  0  0  0  0  0  0
    3.9629    0.6822   -0.7155 H   0  0  0  0  0  0  0  0  0  0  0  0
    0.7773   -1.6413    0.8540 H   0  0  0  0  0  0  0  0  0  0  0  0
   -1.8663   -0.3159   -1.7309 H   0  0  0  0  0  0  0  0  0  0  0  0
   -0.3372    1.7922   -0.7623 H   0  0  0  0  0  0  0  0  0  0  0  0
   -2.1553   -1.0382    0.9536 H   0  0  0  0  0  0  0  0  0  0  0  0
   -0.0850    0.6439    1.7808 H   0  0  0  0  0  0  0  0  0  0  0  0
  1  2  3  0
  2  3  1  0
  3  4  1  0
  4  5  1  0
  5  6  1  0
  6  7  1  0
  7  8  1  0
  8  9  1  0
  9  3  1  0
  8  5  1  0
  9  6  1  0
  1 10  1  0
  3 11  1  0
  5 12  1  0
  6 13  1  0
  8 14  1  0
  9 15  1  0
M  END
