
     RDKit          3D

 25 24  0  0  0  0  0  0  0  0999 V2000
   -1.9577    1.3366   -2.2470 C   0  0  0  0  0  0  0  0  0  0  0  0
   -1.0765    0.6628   -1.7238 C   0  0  0  0  0  0  0  0  0  0  0  0
   -0.0101   -0.1511   -1.1194 C   0  0  0  0  0  0  0  0  0  0  0  0
   -0.1658   -1.5729   -1.5949 C   0  0  0  0  0  0  0  0  0  0  0  0
    0.0886    0.0745    0.3175 C   0  0  0  0  0  0  0  0  0  0  0  0
    0.4104    1.4816    0.7714 C   0  0  0  0  0  0  0  0  0  0  0  0
   -0.5488    2.5386    0.4054 C   0  0  0  0  0  0  0  0  0  0  0  0
    1.0354   -0.8062    1.0887 C   0  0  0  0  0  0  0  0  0  0  0  0
    0.7711   -2.2626    1.1076 C   0  0  0  0  0  0  0  0  0  0  0  0
   -2.7255    1.9157   -2.6983 H   0  0  0  0  0  0  0  0  0  0  0  0
    0.9958    0.1830   -1.5674 H   0  0  0  0  0  0  0  0  0  0  0  0
    0.8091   -2.0493   -1.8654 H   0  0  0  0  0  0  0  0  0  0  0  0
   -0.7572   -1.5791   -2.5840 H   0  0  0  0  0  0  0  0  0  0  0  0
   -0.7170   -2.2372   -0.9505 H   0  0  0  0  0  0  0  0  0  0  0  0
   -0.9468   -0.1625    0.7736 H   0  0  0  0  0  0  0  0  0  0  0  0
    0.4570    1.4255    1.8989 H   0  0  0  0  0  0  0  0  0  0  0  0
    1.4390    1.7242    0.3802 H   0  0  0  0  0  0  0  0  0  0  0  0
   -0.3373    2.9523   -0.5944 H   0  0  0  0  0  0  0  0  0  0  0  0
   -0.5012    3.4294    1.0889 H   0  0  0  0  0  0  0  0  0  0  0  0
   -1.5932    2.1751    0.4141 H   0  0  0  0  0  0  0  0  0  0  0  0
    2.0477   -0.6144    0.6120 H   0  0  0  0  0  0  0  0  0  0  0  0
    1.1084   -0.4672    2.1483 H   0  0  0  0  0  0  0  0  0  0  0  0
   -0.3099   -2.5065    1.2968 H   0  0  0  0  0  0  0  0  0  0  0  0
    1.2570   -2.7060    2.0463 H   0  0  0  0  0  0  0  0  0  0  0  0
    1.2276   -2.7844    0.2815 H   0  0  0  0  0  0  0  0  0  0  0  0
  1  2  3  0
  2  3  1  0
  3  4  1  0
  3  5  1  0
  5  6  1  0
  6  7  1  0
  5  8  1  0
  8  9  1  0
  1 10  1  0
  3 11  1  0
  4 12  1  0
  4 13  1  0
  4 14  1  0
  5 15  1  0
  6 16  1  0
  6 17  1  0
  7 18  1  0
  7 19  1  0
  7 20  1  0
  8 21  1  0
  8 22  1  0
  9 23  1  0
  9 24  1  0
  9 25  1  0
M  END
