
     RDKit          3D

 16 16  0  0  0  0  0  0  0  0999 V2000
    3.0995    0.4851   -0.6607 C   0  0  0  0  0  0  0  0  0  0  0  0
    1.7882    0.2104   -0.1498 C   0  0  0  0  0  0  0  0  0  0  0  0
    0.5312   -0.0285    0.3354 C   0  0  0  0  0  0  0  0  0  0  0  0
    0.2043   -0.7674    1.3866 C   0  0  0  0  0  0  0  0  0  0  0  0
   -1.2547   -0.7213    1.4899 C   0  0  0  0  0  0  0  0  0  0  0  0
   -1.5647   -0.7132    0.0890 O   0  0  0  0  0  0  0  0  0  0  0  0
   -0.7778    0.4081   -0.2763 C   0  0  0  0  0  0  0  0  0  0  0  0
   -0.6270    0.4862   -1.7781 C   0  0  0  0  0  0  0  0  0  0  0  0
    3.8413    0.6264   -0.9519 H   0  0  0  0  0  0  0  0  0  0  0  0
    0.8811   -1.3090    2.0459 H   0  0  0  0  0  0  0  0  0  0  0  0
   -1.6845   -1.6016    1.9661 H   0  0  0  0  0  0  0  0  0  0  0  0
   -1.6174    0.2485    1.8510 H   0  0  0  0  0  0  0  0  0  0  0  0
   -1.1531    1.2900    0.2079 H   0  0  0  0  0  0  0  0  0  0  0  0
    0.3322   -0.0526   -2.0211 H   0  0  0  0  0  0  0  0  0  0  0  0
   -0.5914    1.5105   -2.1413 H   0  0  0  0  0  0  0  0  0  0  0  0
   -1.4074   -0.0716   -2.2659 H   0  0  0  0  0  0  0  0  0  0  0  0
  1  2  3  0
  2  3  1  0
  3  4  2  0
  4  5  1  0
  5  6  1  0
  6  7  1  0
  7  8  1  0
  7  3  1  0
  1  9  1  0
  4 10  1  0
  5 11  1  0
  5 12  1  0
  7 13  1  0
  8 14  1  0
  8 15  1  0
  8 16  1  0
M  END
