
     RDKit          3D

 15 14  0  0  0  0  0  0  0  0999 V2000
    4.2402   -0.0252   -0.0434 C   0  0  0  0  0  0  0  0  0  0  0  0
    3.0507   -0.1983   -0.0868 C   0  0  0  0  0  0  0  0  0  0  0  0
    1.6430   -0.4141   -0.1309 C   0  0  0  0  0  0  0  0  0  0  0  0
    0.4485   -0.5864   -0.1864 C   0  0  0  0  0  0  0  0  0  0  0  0
   -1.0066   -0.8014   -0.2574 C   0  0  0  0  0  0  0  0  0  0  0  0
   -1.2463   -2.1369   -0.0575 O   0  0  0  0  0  0  0  0  0  0  0  0
   -1.6567    0.0614    0.7695 C   0  0  0  0  0  0  0  0  0  0  0  0
   -1.4624    1.5392    0.6500 C   0  0  0  0  0  0  0  0  0  0  0  0
   -2.3248   -0.3538    1.6844 O   0  0  0  0  0  0  0  0  0  0  0  0
    5.3067    0.1198    0.0113 H   0  0  0  0  0  0  0  0  0  0  0  0
   -1.3967   -0.5109   -1.2751 H   0  0  0  0  0  0  0  0  0  0  0  0
   -1.4121   -2.3491    0.8951 H   0  0  0  0  0  0  0  0  0  0  0  0
   -1.8929    2.1002    1.4833 H   0  0  0  0  0  0  0  0  0  0  0  0
   -0.3603    1.7295    0.5309 H   0  0  0  0  0  0  0  0  0  0  0  0
   -1.9304    1.8261   -0.3351 H   0  0  0  0  0  0  0  0  0  0  0  0
  1  2  3  0
  2  3  1  0
  3  4  3  0
  4  5  1  0
  5  6  1  0
  5  7  1  0
  7  8  1  0
  7  9  2  0
  1 10  1  0
  5 11  1  0
  6 12  1  0
  8 13  1  0
  8 14  1  0
  8 15  1  0
M  END
