
     RDKit          3D

 17 16  0  0  0  0  0  0  0  0999 V2000
    1.8951    2.0541    1.1720 C   0  0  0  0  0  0  0  0  0  0  0  0
    1.2358    1.1277    0.7202 C   0  0  0  0  0  0  0  0  0  0  0  0
    0.4408    0.0240    0.1807 C   0  0  0  0  0  0  0  0  0  0  0  0
    0.4718   -1.1073    1.1099 C   0  0  0  0  0  0  0  0  0  0  0  0
    1.1832   -2.0659    0.8858 O   0  0  0  0  0  0  0  0  0  0  0  0
    1.0610   -0.3681   -1.1104 C   0  0  0  0  0  0  0  0  0  0  0  0
    0.6502    0.0813   -2.1517 O   0  0  0  0  0  0  0  0  0  0  0  0
   -0.9847    0.5027   -0.1097 C   0  0  0  0  0  0  0  0  0  0  0  0
   -1.8061   -0.6158   -0.6611 C   0  0  0  0  0  0  0  0  0  0  0  0
    2.4777    2.8558    1.5489 H   0  0  0  0  0  0  0  0  0  0  0  0
   -0.1356   -1.0931    1.9942 H   0  0  0  0  0  0  0  0  0  0  0  0
    1.8879   -1.0635   -1.1068 H   0  0  0  0  0  0  0  0  0  0  0  0
   -0.8825    1.3353   -0.8565 H   0  0  0  0  0  0  0  0  0  0  0  0
   -1.4452    0.9373    0.7960 H   0  0  0  0  0  0  0  0  0  0  0  0
   -2.1323   -0.3440   -1.6939 H   0  0  0  0  0  0  0  0  0  0  0  0
   -1.1948   -1.5398   -0.6722 H   0  0  0  0  0  0  0  0  0  0  0  0
   -2.7225   -0.7208   -0.0454 H   0  0  0  0  0  0  0  0  0  0  0  0
  1  2  3  0
  2  3  1  0
  3  4  1  0
  4  5  2  0
  3  6  1  0
  6  7  2  0
  3  8  1  0
  8  9  1  0
  1 10  1  0
  4 11  1  0
  6 12  1  0
  8 13  1  0
  8 14  1  0
  9 15  1  0
  9 16  1  0
  9 17  1  0
M  END
