
     RDKit          3D

 17 18  0  0  0  0  0  0  0  0999 V2000
   -2.3713    0.1376   -1.6933 C   0  0  0  0  0  0  0  0  0  0  0  0
   -1.5254    0.0785   -0.8446 C   0  0  0  0  0  0  0  0  0  0  0  0
   -0.4728    0.0050    0.1758 C   0  0  0  0  0  0  0  0  0  0  0  0
    0.1895   -1.3137    0.3912 C   0  0  0  0  0  0  0  0  0  0  0  0
    1.5528   -0.6147    0.3312 C   0  0  0  0  0  0  0  0  0  0  0  0
    2.3822   -1.1438   -0.6584 O   0  0  0  0  0  0  0  0  0  0  0  0
    0.8385    0.6452   -0.0687 C   0  0  0  0  0  0  0  0  0  0  0  0
   -0.0864    1.2189    0.9194 C   0  0  0  0  0  0  0  0  0  0  0  0
   -0.8280    2.3565    0.6589 O   0  0  0  0  0  0  0  0  0  0  0  0
   -3.1285    0.2090   -2.4600 H   0  0  0  0  0  0  0  0  0  0  0  0
    0.0227   -2.0463   -0.4061 H   0  0  0  0  0  0  0  0  0  0  0  0
    0.0390   -1.7996    1.3759 H   0  0  0  0  0  0  0  0  0  0  0  0
    2.0211   -0.5316    1.3364 H   0  0  0  0  0  0  0  0  0  0  0  0
    1.8132   -1.7160   -1.2437 H   0  0  0  0  0  0  0  0  0  0  0  0
    1.0015    1.0949   -1.0666 H   0  0  0  0  0  0  0  0  0  0  0  0
    0.1831    1.1043    1.9935 H   0  0  0  0  0  0  0  0  0  0  0  0
   -1.6313    2.3157    1.2592 H   0  0  0  0  0  0  0  0  0  0  0  0
  1  2  3  0
  2  3  1  0
  3  4  1  0
  4  5  1  0
  5  6  1  0
  5  7  1  0
  7  8  1  0
  8  9  1  0
  7  3  1  0
  8  3  1  0
  1 10  1  0
  4 11  1  0
  4 12  1  0
  5 13  1  0
  6 14  1  0
  7 15  1  0
  8 16  1  0
  9 17  1  0
M  END
