
     RDKit          3D

 21 20  0  0  0  0  0  0  0  0999 V2000
    2.5763   -1.2393   -1.3462 C   0  0  0  0  0  0  0  0  0  0  0  0
    1.4276   -1.3561   -1.3977 C   0  0  0  0  0  0  0  0  0  0  0  0
   -0.0136   -1.4874   -1.4803 C   0  0  0  0  0  0  0  0  0  0  0  0
   -0.7080   -0.4806   -0.5391 C   0  0  0  0  0  0  0  0  0  0  0  0
   -0.2184    0.8324   -1.0791 C   0  0  0  0  0  0  0  0  0  0  0  0
    0.1776    1.8892   -1.5031 C   0  0  0  0  0  0  0  0  0  0  0  0
   -0.1788   -0.7099    0.8341 C   0  0  0  0  0  0  0  0  0  0  0  0
   -0.8131    0.1539    1.8810 C   0  0  0  0  0  0  0  0  0  0  0  0
   -0.5951    1.6217    1.6503 C   0  0  0  0  0  0  0  0  0  0  0  0
    3.6705   -1.1268   -1.3140 H   0  0  0  0  0  0  0  0  0  0  0  0
   -0.3352   -1.2855   -2.5207 H   0  0  0  0  0  0  0  0  0  0  0  0
   -0.3280   -2.5131   -1.1317 H   0  0  0  0  0  0  0  0  0  0  0  0
   -1.7818   -0.5814   -0.6123 H   0  0  0  0  0  0  0  0  0  0  0  0
    0.5371    2.8397   -1.8653 H   0  0  0  0  0  0  0  0  0  0  0  0
    0.9401   -0.6010    0.8737 H   0  0  0  0  0  0  0  0  0  0  0  0
   -0.4432   -1.7711    1.1337 H   0  0  0  0  0  0  0  0  0  0  0  0
   -0.4286   -0.1242    2.8997 H   0  0  0  0  0  0  0  0  0  0  0  0
   -1.9181   -0.0892    1.9315 H   0  0  0  0  0  0  0  0  0  0  0  0
   -1.3028    2.0526    0.9154 H   0  0  0  0  0  0  0  0  0  0  0  0
    0.4573    1.7698    1.3349 H   0  0  0  0  0  0  0  0  0  0  0  0
   -0.7217    2.2065    2.6246 H   0  0  0  0  0  0  0  0  0  0  0  0
  1  2  3  0
  2  3  1  0
  3  4  1  0
  4  5  1  0
  5  6  3  0
  4  7  1  0
  7  8  1  0
  8  9  1  0
  1 10  1  0
  3 11  1  0
  3 12  1  0
  4 13  1  0
  6 14  1  0
  7 15  1  0
  7 16  1  0
  8 17  1  0
  8 18  1  0
  9 19  1  0
  9 20  1  0
  9 21  1  0
M  END
