
     RDKit          3D

 15 16  0  0  0  0  0  0  0  0999 V2000
    2.7991   -0.7881    0.8260 C   0  0  0  0  0  0  0  0  0  0  0  0
    1.7038   -0.3559    0.7679 C   0  0  0  0  0  0  0  0  0  0  0  0
    0.3566    0.1832    0.7175 C   0  0  0  0  0  0  0  0  0  0  0  0
   -0.6944   -0.5188    1.2946 O   0  0  0  0  0  0  0  0  0  0  0  0
   -0.7015   -0.1576   -0.0553 C   0  0  0  0  0  0  0  0  0  0  0  0
   -0.9953   -1.2199   -1.0231 C   0  0  0  0  0  0  0  0  0  0  0  0
   -1.0766    1.2827   -0.2800 C   0  0  0  0  0  0  0  0  0  0  0  0
    0.1933    1.6213    0.4040 C   0  0  0  0  0  0  0  0  0  0  0  0
    0.8475    2.6043    0.6333 O   0  0  0  0  0  0  0  0  0  0  0  0
    3.8069   -1.1664    0.8791 H   0  0  0  0  0  0  0  0  0  0  0  0
   -0.6517   -1.0052   -2.0657 H   0  0  0  0  0  0  0  0  0  0  0  0
   -0.4587   -2.1445   -0.7234 H   0  0  0  0  0  0  0  0  0  0  0  0
   -2.0838   -1.5222   -1.0577 H   0  0  0  0  0  0  0  0  0  0  0  0
   -1.0826    1.6376   -1.3096 H   0  0  0  0  0  0  0  0  0  0  0  0
   -1.9626    1.5495    0.3434 H   0  0  0  0  0  0  0  0  0  0  0  0
  1  2  3  0
  2  3  1  0
  3  4  1  0
  4  5  1  0
  5  6  1  0
  5  7  1  0
  7  8  1  0
  8  9  2  0
  5  3  1  0
  8  3  1  0
  1 10  1  0
  6 11  1  0
  6 12  1  0
  6 13  1  0
  7 14  1  0
  7 15  1  0
M  END
