
     RDKit          3D

 17 17  0  0  0  0  0  0  0  0999 V2000
    2.8664   -2.1889    0.6343 C   0  0  0  0  0  0  0  0  0  0  0  0
    2.1265   -1.2407    0.6042 C   0  0  0  0  0  0  0  0  0  0  0  0
    1.2327   -0.0933    0.5427 C   0  0  0  0  0  0  0  0  0  0  0  0
    0.2511   -0.2124   -0.6060 C   0  0  0  0  0  0  0  0  0  0  0  0
   -0.7206    0.8873   -0.2278 C   0  0  0  0  0  0  0  0  0  0  0  0
   -2.1120    0.6000   -0.7345 C   0  0  0  0  0  0  0  0  0  0  0  0
   -0.6803    0.7934    1.2597 C   0  0  0  0  0  0  0  0  0  0  0  0
   -1.5046    1.4019    2.0034 O   0  0  0  0  0  0  0  0  0  0  0  0
    0.3681   -0.0368    1.6458 O   0  0  0  0  0  0  0  0  0  0  0  0
    3.5288   -3.0148    0.6638 H   0  0  0  0  0  0  0  0  0  0  0  0
    1.7950    0.8680    0.5031 H   0  0  0  0  0  0  0  0  0  0  0  0
    0.7326   -0.0306   -1.5840 H   0  0  0  0  0  0  0  0  0  0  0  0
   -0.2447   -1.1836   -0.5374 H   0  0  0  0  0  0  0  0  0  0  0  0
   -0.3064    1.8386   -0.5851 H   0  0  0  0  0  0  0  0  0  0  0  0
   -2.6138    1.5504   -0.9096 H   0  0  0  0  0  0  0  0  0  0  0  0
   -2.6502    0.0711    0.0790 H   0  0  0  0  0  0  0  0  0  0  0  0
   -2.0687   -0.0093   -1.6406 H   0  0  0  0  0  0  0  0  0  0  0  0
  1  2  3  0
  2  3  1  0
  3  4  1  0
  4  5  1  0
  5  6  1  0
  5  7  1  0
  7  8  2  0
  7  9  1  0
  9  3  1  0
  1 10  1  0
  3 11  1  0
  4 12  1  0
  4 13  1  0
  5 14  1  0
  6 15  1  0
  6 16  1  0
  6 17  1  0
M  END
