
     RDKit          3D

 19 20  0  0  0  0  0  0  0  0999 V2000
    1.5447   -2.5643    0.9520 C   0  0  0  0  0  0  0  0  0  0  0  0
    1.2398   -1.5178    0.6524 C   0  0  0  0  0  0  0  0  0  0  0  0
    0.9047   -0.3069    0.2915 C   0  0  0  0  0  0  0  0  0  0  0  0
    0.2336    0.3492   -0.7915 C   0  0  0  0  0  0  0  0  0  0  0  0
   -0.1670   -0.8100   -1.7727 C   0  0  0  0  0  0  0  0  0  0  0  0
   -1.0048    1.2727   -0.7607 C   0  0  0  0  0  0  0  0  0  0  0  0
   -1.5393    0.1814   -0.1093 O   0  0  0  0  0  0  0  0  0  0  0  0
   -0.4101    0.2346    0.6373 C   0  0  0  0  0  0  0  0  0  0  0  0
   -0.3395    1.3243    1.6292 C   0  0  0  0  0  0  0  0  0  0  0  0
    1.9103   -3.7840    1.2802 H   0  0  0  0  0  0  0  0  0  0  0  0
    1.8298    0.4391    0.6182 H   0  0  0  0  0  0  0  0  0  0  0  0
   -0.6218   -1.6474   -1.2136 H   0  0  0  0  0  0  0  0  0  0  0  0
    0.7141   -1.1157   -2.3512 H   0  0  0  0  0  0  0  0  0  0  0  0
   -0.9417   -0.4847   -2.4849 H   0  0  0  0  0  0  0  0  0  0  0  0
   -1.3629    1.4411   -1.7964 H   0  0  0  0  0  0  0  0  0  0  0  0
   -0.9209    2.2156   -0.2726 H   0  0  0  0  0  0  0  0  0  0  0  0
   -0.0146    2.3044    1.2856 H   0  0  0  0  0  0  0  0  0  0  0  0
   -1.3471    1.4250    2.0810 H   0  0  0  0  0  0  0  0  0  0  0  0
    0.2927    1.0432    2.5740 H   0  0  0  0  0  0  0  0  0  0  0  0
  1  2  3  0
  2  3  1  0
  3  4  1  0
  4  5  1  0
  4  6  1  0
  6  7  1  0
  7  8  1  0
  8  9  1  0
  8  3  1  0
  8  4  1  0
  1 10  1  0
  3 11  1  0
  5 12  1  0
  5 13  1  0
  5 14  1  0
  6 15  1  0
  6 16  1  0
  9 17  1  0
  9 18  1  0
  9 19  1  0
M  END
