
     RDKit          3D

 19 20  0  0  0  0  0  0  0  0999 V2000
    1.9800    2.0972   -0.4192 C   0  0  0  0  0  0  0  0  0  0  0  0
    1.4232    1.0682   -0.1242 C   0  0  0  0  0  0  0  0  0  0  0  0
    0.7445   -0.1530    0.2478 C   0  0  0  0  0  0  0  0  0  0  0  0
    1.5363   -1.3740    0.5777 C   0  0  0  0  0  0  0  0  0  0  0  0
    0.7236   -1.2999   -0.6518 C   0  0  0  0  0  0  0  0  0  0  0  0
   -0.6372   -1.5443   -0.4706 O   0  0  0  0  0  0  0  0  0  0  0  0
   -0.7378   -0.2412    0.0199 C   0  0  0  0  0  0  0  0  0  0  0  0
   -1.4971   -0.1141    1.3184 C   0  0  0  0  0  0  0  0  0  0  0  0
   -1.3100    0.6555   -1.0295 C   0  0  0  0  0  0  0  0  0  0  0  0
    2.4599    3.0073   -0.6635 H   0  0  0  0  0  0  0  0  0  0  0  0
    2.6253   -1.2573    0.5758 H   0  0  0  0  0  0  0  0  0  0  0  0
    1.1800   -2.0908    1.3469 H   0  0  0  0  0  0  0  0  0  0  0  0
    1.1478   -1.2540   -1.6563 H   0  0  0  0  0  0  0  0  0  0  0  0
   -1.2013   -0.8639    2.0621 H   0  0  0  0  0  0  0  0  0  0  0  0
   -2.5906   -0.1251    1.0863 H   0  0  0  0  0  0  0  0  0  0  0  0
   -1.2711    0.8923    1.7238 H   0  0  0  0  0  0  0  0  0  0  0  0
   -0.7018    0.7609   -1.9318 H   0  0  0  0  0  0  0  0  0  0  0  0
   -1.5932    1.6556   -0.6502 H   0  0  0  0  0  0  0  0  0  0  0  0
   -2.2805    0.1805   -1.3616 H   0  0  0  0  0  0  0  0  0  0  0  0
  1  2  3  0
  2  3  1  0
  3  4  1  0
  4  5  1  0
  5  6  1  0
  6  7  1  0
  7  8  1  0
  7  9  1  0
  5  3  1  0
  7  3  1  0
  1 10  1  0
  4 11  1  0
  4 12  1  0
  5 13  1  0
  8 14  1  0
  8 15  1  0
  8 16  1  0
  9 17  1  0
  9 18  1  0
  9 19  1  0
M  END
