
     RDKit          3D

 11 10  0  0  0  0  0  0  0  0999 V2000
    2.6489   -1.6444    0.6782 C   0  0  0  0  0  0  0  0  0  0  0  0
    2.0898   -1.4180    0.5912 C   0  0  0  0  0  0  0  0  0  0  0  0
    1.5382   -1.2041    0.5002 C   0  0  0  0  0  0  0  0  0  0  0  0
   -0.2268   -0.4942    0.2210 C   0  0  0  0  0  0  0  0  0  0  0  0
   -1.2175   -0.1144    0.0639 C   0  0  0  0  0  0  0  0  0  0  0  0
   -1.3752    1.5029    0.0357 C   0  0  0  0  0  0  0  0  0  0  0  0
   -1.4773    2.5559    0.0000 C   0  0  0  0  0  0  0  0  0  0  0  0
    3.4956   -1.9937    0.7954 H   0  0  0  0  0  0  0  0  0  0  0  0
   -2.1893   -0.2852    0.7121 H   0  0  0  0  0  0  0  0  0  0  0  0
   -1.7397   -0.2035   -1.0135 H   0  0  0  0  0  0  0  0  0  0  0  0
   -1.5465    3.2987   -0.0321 H   0  0  0  0  0  0  0  0  0  0  0  0
  1  2  3  0
  2  3  1  0
  3  4  3  0
  4  5  1  0
  5  6  1  0
  6  7  3  0
  1  8  1  0
  5  9  1  0
  5 10  1  0
  7 11  1  0
M  END
