
     RDKit          3D

 21 22  0  0  0  0  0  0  0  0999 V2000
    2.2060    1.8676    0.9422 C   0  0  0  0  0  0  0  0  0  0  0  0
    1.6495    0.8645    0.5645 C   0  0  0  0  0  0  0  0  0  0  0  0
    0.9968   -0.3513    0.0922 C   0  0  0  0  0  0  0  0  0  0  0  0
    1.7792   -1.5736    0.5032 C   0  0  0  0  0  0  0  0  0  0  0  0
    0.6486   -0.2665   -1.3708 C   0  0  0  0  0  0  0  0  0  0  0  0
   -0.7833   -0.0078   -1.0640 C   0  0  0  0  0  0  0  0  0  0  0  0
   -1.2524    0.8020    0.0587 C   0  0  0  0  0  0  0  0  0  0  0  0
   -2.7518    0.6940    0.3605 C   0  0  0  0  0  0  0  0  0  0  0  0
   -0.4561   -0.3973    0.4122 C   0  0  0  0  0  0  0  0  0  0  0  0
    2.6846    2.7682    1.2810 H   0  0  0  0  0  0  0  0  0  0  0  0
    1.6811   -1.6416    1.6237 H   0  0  0  0  0  0  0  0  0  0  0  0
    2.8476   -1.3716    0.2957 H   0  0  0  0  0  0  0  0  0  0  0  0
    1.4030   -2.5071    0.0644 H   0  0  0  0  0  0  0  0  0  0  0  0
    0.8324   -1.2172   -1.9173 H   0  0  0  0  0  0  0  0  0  0  0  0
    1.1098    0.6172   -1.8645 H   0  0  0  0  0  0  0  0  0  0  0  0
   -1.4985   -0.6643   -1.5923 H   0  0  0  0  0  0  0  0  0  0  0  0
   -0.8265    1.7682    0.3550 H   0  0  0  0  0  0  0  0  0  0  0  0
   -3.0608    1.4023    1.1372 H   0  0  0  0  0  0  0  0  0  0  0  0
   -3.0171   -0.3609    0.5881 H   0  0  0  0  0  0  0  0  0  0  0  0
   -3.2539    0.9157   -0.6197 H   0  0  0  0  0  0  0  0  0  0  0  0
   -0.9380   -1.3405    0.7342 H   0  0  0  0  0  0  0  0  0  0  0  0
  1  2  3  0
  2  3  1  0
  3  4  1  0
  3  5  1  0
  5  6  1  0
  6  7  1  0
  7  8  1  0
  7  9  1  0
  9  3  1  0
  9  6  1  0
  1 10  1  0
  4 11  1  0
  4 12  1  0
  4 13  1  0
  5 14  1  0
  5 15  1  0
  6 16  1  0
  7 17  1  0
  8 18  1  0
  8 19  1  0
  8 20  1  0
  9 21  1  0
M  END
