
     RDKit          3D

 19 19  0  0  0  0  0  0  0  0999 V2000
    0.2256    3.5796    0.5851 C   0  0  0  0  0  0  0  0  0  0  0  0
    0.5691    2.1002    0.8307 C   0  0  0  0  0  0  0  0  0  0  0  0
    0.8747    0.7650    1.0769 C   0  0  0  0  0  0  0  0  0  0  0  0
    1.3488   -0.2238    0.0691 C   0  0  0  0  0  0  0  0  0  0  0  0
    1.6530    0.0605   -1.0609 C   0  0  0  0  0  0  0  0  0  0  0  0
    2.0553    0.4417   -2.5807 C   0  0  0  0  0  0  0  0  0  0  0  0
   -0.1735   -0.1047    0.6349 C   0  0  0  0  0  0  0  0  0  0  0  0
   -0.8000   -1.3459    1.0399 C   0  0  0  0  0  0  0  0  0  0  0  0
   -2.0295   -1.5583    0.0974 C   0  0  0  0  0  0  0  0  0  0  0  0
    0.0106    4.4424    0.4375 H   0  0  0  0  0  0  0  0  0  0  0  0
    1.3640    0.6613    2.1113 H   0  0  0  0  0  0  0  0  0  0  0  0
    1.6694   -1.2776    0.5555 H   0  0  0  0  0  0  0  0  0  0  0  0
    2.2136    0.5986   -3.2187 H   0  0  0  0  0  0  0  0  0  0  0  0
   -0.8115    0.4275   -0.2281 H   0  0  0  0  0  0  0  0  0  0  0  0
   -1.0793   -1.5464    2.0573 H   0  0  0  0  0  0  0  0  0  0  0  0
   -0.1779   -2.2889    0.6917 H   0  0  0  0  0  0  0  0  0  0  0  0
   -1.8063   -2.2227   -0.7544 H   0  0  0  0  0  0  0  0  0  0  0  0
   -2.2240   -0.5553   -0.3847 H   0  0  0  0  0  0  0  0  0  0  0  0
   -2.8822   -1.9531    0.6258 H   0  0  0  0  0  0  0  0  0  0  0  0
  1  2  3  0
  2  3  1  0
  3  4  1  0
  4  5  1  0
  5  6  3  0
  4  7  1  0
  7  8  1  0
  8  9  1  0
  7  3  1  0
  1 10  1  0
  3 11  1  0
  4 12  1  0
  6 13  1  0
  7 14  1  0
  8 15  1  0
  8 16  1  0
  9 17  1  0
  9 18  1  0
  9 19  1  0
M  END
