
     RDKit          3D

 17 18  0  0  0  0  0  0  0  0999 V2000
    3.1059    0.5804   -0.4089 C   0  0  0  0  0  0  0  0  0  0  0  0
    2.0391    0.8934    0.0574 C   0  0  0  0  0  0  0  0  0  0  0  0
    0.7394    1.2766    0.5981 C   0  0  0  0  0  0  0  0  0  0  0  0
   -0.3410    0.3117    0.2809 C   0  0  0  0  0  0  0  0  0  0  0  0
   -0.0820   -1.1087    0.8267 C   0  0  0  0  0  0  0  0  0  0  0  0
   -0.1988   -0.8302   -0.6199 C   0  0  0  0  0  0  0  0  0  0  0  0
   -1.4208   -0.9107   -1.2755 O   0  0  0  0  0  0  0  0  0  0  0  0
   -2.3519   -0.2591   -0.4814 C   0  0  0  0  0  0  0  0  0  0  0  0
   -1.6594    0.7317    0.2113 O   0  0  0  0  0  0  0  0  0  0  0  0
    4.0536    0.3094   -0.8140 H   0  0  0  0  0  0  0  0  0  0  0  0
    0.8562    1.3663    1.7057 H   0  0  0  0  0  0  0  0  0  0  0  0
    0.4524    2.2756    0.2163 H   0  0  0  0  0  0  0  0  0  0  0  0
    0.9118   -1.3355    1.2103 H   0  0  0  0  0  0  0  0  0  0  0  0
   -0.9167   -1.4616    1.4440 H   0  0  0  0  0  0  0  0  0  0  0  0
    0.6877   -0.9761   -1.2541 H   0  0  0  0  0  0  0  0  0  0  0  0
   -3.1785    0.1317   -1.0949 H   0  0  0  0  0  0  0  0  0  0  0  0
   -2.6969   -0.9949    0.2939 H   0  0  0  0  0  0  0  0  0  0  0  0
  1  2  3  0
  2  3  1  0
  3  4  1  0
  4  5  1  0
  5  6  1  0
  6  7  1  0
  7  8  1  0
  8  9  1  0
  6  4  1  0
  9  4  1  0
  1 10  1  0
  3 11  1  0
  3 12  1  0
  5 13  1  0
  5 14  1  0
  6 15  1  0
  8 16  1  0
  8 17  1  0
M  END
