
     RDKit          3D

 18 19  0  0  0  0  0  0  0  0999 V2000
    2.8127    1.6173   -0.0414 C   0  0  0  0  0  0  0  0  0  0  0  0
    1.7583    1.0751   -0.2696 C   0  0  0  0  0  0  0  0  0  0  0  0
    0.4808    0.4152   -0.5211 C   0  0  0  0  0  0  0  0  0  0  0  0
    0.3904   -0.8517    0.2882 C   0  0  0  0  0  0  0  0  0  0  0  0
    0.2958    0.0458    1.4870 C   0  0  0  0  0  0  0  0  0  0  0  0
   -0.6091    0.6960    0.4750 C   0  0  0  0  0  0  0  0  0  0  0  0
   -1.0990   -0.6910    0.1657 C   0  0  0  0  0  0  0  0  0  0  0  0
   -1.6326   -0.9064   -1.2266 C   0  0  0  0  0  0  0  0  0  0  0  0
    3.7451    2.1034    0.1721 H   0  0  0  0  0  0  0  0  0  0  0  0
    0.1359    0.3825   -1.5499 H   0  0  0  0  0  0  0  0  0  0  0  0
    0.9277   -1.6852    0.1813 H   0  0  0  0  0  0  0  0  0  0  0  0
    1.2158    0.6300    1.6347 H   0  0  0  0  0  0  0  0  0  0  0  0
   -0.2131   -0.3461    2.3679 H   0  0  0  0  0  0  0  0  0  0  0  0
   -1.1466    1.5267    0.5816 H   0  0  0  0  0  0  0  0  0  0  0  0
   -1.6976   -1.1332    0.9819 H   0  0  0  0  0  0  0  0  0  0  0  0
   -0.8635   -1.3612   -1.8956 H   0  0  0  0  0  0  0  0  0  0  0  0
   -2.5212   -1.6038   -1.2212 H   0  0  0  0  0  0  0  0  0  0  0  0
   -1.9796    0.0864   -1.6100 H   0  0  0  0  0  0  0  0  0  0  0  0
  1  2  3  0
  2  3  1  0
  3  4  1  0
  4  5  1  0
  5  6  1  0
  6  7  1  0
  7  8  1  0
  6  3  1  0
  7  4  1  0
  1  9  1  0
  3 10  1  0
  4 11  1  0
  5 12  1  0
  5 13  1  0
  6 14  1  0
  7 15  1  0
  8 16  1  0
  8 17  1  0
  8 18  1  0
M  END
