
     RDKit          3D

 17 19  0  0  0  0  0  0  0  0999 V2000
    3.0812   -0.1576   -0.7889 C   0  0  0  0  0  0  0  0  0  0  0  0
    1.8974   -0.0747   -0.5797 C   0  0  0  0  0  0  0  0  0  0  0  0
    0.5277    0.0446   -0.3321 C   0  0  0  0  0  0  0  0  0  0  0  0
   -0.0266   -0.2879    1.0193 C   0  0  0  0  0  0  0  0  0  0  0  0
   -1.3253   -0.5017    0.2287 C   0  0  0  0  0  0  0  0  0  0  0  0
   -0.3944   -1.0699   -0.8521 C   0  0  0  0  0  0  0  0  0  0  0  0
   -1.6421    0.8476   -0.3331 C   0  0  0  0  0  0  0  0  0  0  0  0
   -1.2901    1.1601   -1.6365 O   0  0  0  0  0  0  0  0  0  0  0  0
   -0.2220    1.2675   -0.7694 C   0  0  0  0  0  0  0  0  0  0  0  0
    4.1409   -0.2437   -0.9647 H   0  0  0  0  0  0  0  0  0  0  0  0
   -0.0837    0.5443    1.7457 H   0  0  0  0  0  0  0  0  0  0  0  0
    0.2971   -1.2590    1.4201 H   0  0  0  0  0  0  0  0  0  0  0  0
   -2.0653   -1.1309    0.6358 H   0  0  0  0  0  0  0  0  0  0  0  0
   -0.0200   -2.0868   -0.6304 H   0  0  0  0  0  0  0  0  0  0  0  0
   -0.7991   -0.8973   -1.8509 H   0  0  0  0  0  0  0  0  0  0  0  0
   -2.2045    1.5873    0.2827 H   0  0  0  0  0  0  0  0  0  0  0  0
    0.1289    2.2582   -0.4384 H   0  0  0  0  0  0  0  0  0  0  0  0
  1  2  3  0
  2  3  1  0
  3  4  1  0
  4  5  1  0
  5  6  1  0
  5  7  1  0
  7  8  1  0
  8  9  1  0
  6  3  1  0
  9  7  1  0
  9  3  1  0
  1 10  1  0
  4 11  1  0
  4 12  1  0
  5 13  1  0
  6 14  1  0
  6 15  1  0
  7 16  1  0
  9 17  1  0
M  END
