
     RDKit          3D

 15 15  0  0  0  0  0  0  0  0999 V2000
    2.8757   -0.7135   -0.1455 C   0  0  0  0  0  0  0  0  0  0  0  0
    1.6922   -1.0110   -0.1285 C   0  0  0  0  0  0  0  0  0  0  0  0
    0.2748   -1.3893   -0.0939 C   0  0  0  0  0  0  0  0  0  0  0  0
   -0.4934   -0.1652    0.3546 C   0  0  0  0  0  0  0  0  0  0  0  0
   -0.3210    1.0046   -0.5629 C   0  0  0  0  0  0  0  0  0  0  0  0
   -1.7832    1.1434   -0.2384 C   0  0  0  0  0  0  0  0  0  0  0  0
   -1.8338   -0.2389   -0.0603 O   0  0  0  0  0  0  0  0  0  0  0  0
    3.9056   -0.4614   -0.1616 H   0  0  0  0  0  0  0  0  0  0  0  0
    0.1160   -2.1718    0.6695 H   0  0  0  0  0  0  0  0  0  0  0  0
   -0.0223   -1.6977   -1.1078 H   0  0  0  0  0  0  0  0  0  0  0  0
   -0.3454    0.0189    1.4269 H   0  0  0  0  0  0  0  0  0  0  0  0
   -0.1119    0.6660   -1.5878 H   0  0  0  0  0  0  0  0  0  0  0  0
    0.3520    1.7682   -0.1412 H   0  0  0  0  0  0  0  0  0  0  0  0
   -1.9707    1.7340    0.6691 H   0  0  0  0  0  0  0  0  0  0  0  0
   -2.3347    1.5137   -1.1228 H   0  0  0  0  0  0  0  0  0  0  0  0
  1  2  3  0
  2  3  1  0
  3  4  1  0
  4  5  1  0
  5  6  1  0
  6  7  1  0
  7  4  1  0
  1  8  1  0
  3  9  1  0
  3 10  1  0
  4 11  1  0
  5 12  1  0
  5 13  1  0
  6 14  1  0
  6 15  1  0
M  END
