
     RDKit          3D

 19 20  0  0  0  0  0  0  0  0999 V2000
    1.1310   -3.2048    0.1772 C   0  0  0  0  0  0  0  0  0  0  0  0
    0.6867   -2.0678    0.0188 C   0  0  0  0  0  0  0  0  0  0  0  0
    0.1712   -0.7009   -0.1804 C   0  0  0  0  0  0  0  0  0  0  0  0
   -1.0048   -0.3116    0.5982 C   0  0  0  0  0  0  0  0  0  0  0  0
   -1.1540    1.0454    1.1061 C   0  0  0  0  0  0  0  0  0  0  0  0
   -0.1224    1.9843    0.6587 C   0  0  0  0  0  0  0  0  0  0  0  0
    0.8527    1.6515   -0.1471 C   0  0  0  0  0  0  0  0  0  0  0  0
    1.0499    0.3139   -0.7085 C   0  0  0  0  0  0  0  0  0  0  0  0
    0.0852   -0.2910   -1.6513 C   0  0  0  0  0  0  0  0  0  0  0  0
    1.5134   -4.1530    0.3028 H   0  0  0  0  0  0  0  0  0  0  0  0
   -1.9132   -0.5421   -0.0572 H   0  0  0  0  0  0  0  0  0  0  0  0
   -1.1138   -1.0498    1.4564 H   0  0  0  0  0  0  0  0  0  0  0  0
   -2.1738    1.4576    0.8462 H   0  0  0  0  0  0  0  0  0  0  0  0
   -1.1737    0.9929    2.2524 H   0  0  0  0  0  0  0  0  0  0  0  0
   -0.1754    3.0610    1.0306 H   0  0  0  0  0  0  0  0  0  0  0  0
    1.5715    2.4582   -0.4094 H   0  0  0  0  0  0  0  0  0  0  0  0
    2.1184    0.0371   -0.9395 H   0  0  0  0  0  0  0  0  0  0  0  0
   -0.7530    0.3573   -1.9821 H   0  0  0  0  0  0  0  0  0  0  0  0
    0.4040   -1.0382   -2.3720 H   0  0  0  0  0  0  0  0  0  0  0  0
  1  2  3  0
  2  3  1  0
  3  4  1  0
  4  5  1  0
  5  6  1  0
  6  7  2  0
  7  8  1  0
  8  9  1  0
  8  3  1  0
  9  3  1  0
  1 10  1  0
  4 11  1  0
  4 12  1  0
  5 13  1  0
  5 14  1  0
  6 15  1  0
  7 16  1  0
  8 17  1  0
  9 18  1  0
  9 19  1  0
M  END
