
     RDKit          3D

 19 20  0  0  0  0  0  0  0  0999 V2000
    2.8312    1.6261    1.7408 C   0  0  0  0  0  0  0  0  0  0  0  0
    1.8811    1.0158    1.3069 C   0  0  0  0  0  0  0  0  0  0  0  0
    0.7585    0.2908    0.7776 C   0  0  0  0  0  0  0  0  0  0  0  0
   -0.5009    0.5975    1.0714 C   0  0  0  0  0  0  0  0  0  0  0  0
   -1.5062    0.2891    0.0017 C   0  0  0  0  0  0  0  0  0  0  0  0
   -1.4860   -1.1703   -0.3538 C   0  0  0  0  0  0  0  0  0  0  0  0
   -0.1955   -0.8704   -1.1309 C   0  0  0  0  0  0  0  0  0  0  0  0
    0.9374   -0.8742   -0.1529 C   0  0  0  0  0  0  0  0  0  0  0  0
   -0.7587    0.5431   -1.3159 C   0  0  0  0  0  0  0  0  0  0  0  0
    3.6790    2.1727    2.1086 H   0  0  0  0  0  0  0  0  0  0  0  0
   -0.8100    1.0364    2.0006 H   0  0  0  0  0  0  0  0  0  0  0  0
   -2.4665    0.7785    0.0937 H   0  0  0  0  0  0  0  0  0  0  0  0
   -2.3216   -1.3947   -1.0507 H   0  0  0  0  0  0  0  0  0  0  0  0
   -1.3617   -1.8431    0.4974 H   0  0  0  0  0  0  0  0  0  0  0  0
   -0.0798   -1.4412   -2.0507 H   0  0  0  0  0  0  0  0  0  0  0  0
    0.8225   -1.8048    0.4726 H   0  0  0  0  0  0  0  0  0  0  0  0
    1.9311   -0.8989   -0.6057 H   0  0  0  0  0  0  0  0  0  0  0  0
    0.0469    1.3182   -1.2149 H   0  0  0  0  0  0  0  0  0  0  0  0
   -1.4009    0.6294   -2.1959 H   0  0  0  0  0  0  0  0  0  0  0  0
  1  2  3  0
  2  3  1  0
  3  4  2  0
  4  5  1  0
  5  6  1  0
  6  7  1  0
  7  8  1  0
  7  9  1  0
  8  3  1  0
  9  5  1  0
  1 10  1  0
  4 11  1  0
  5 12  1  0
  6 13  1  0
  6 14  1  0
  7 15  1  0
  8 16  1  0
  8 17  1  0
  9 18  1  0
  9 19  1  0
M  END
