
     RDKit          3D

 15 14  0  0  0  0  0  0  0  0999 V2000
    3.3236    0.2937   -0.1900 C   0  0  0  0  0  0  0  0  0  0  0  0
    2.4633   -0.4553    0.2608 C   0  0  0  0  0  0  0  0  0  0  0  0
    1.4264   -1.3259    0.7873 C   0  0  0  0  0  0  0  0  0  0  0  0
    0.2866   -0.5232    1.0211 O   0  0  0  0  0  0  0  0  0  0  0  0
   -0.3900    0.1877    0.0450 C   0  0  0  0  0  0  0  0  0  0  0  0
    0.0136    0.1312   -1.1385 O   0  0  0  0  0  0  0  0  0  0  0  0
   -1.5849    1.0254    0.3284 C   0  0  0  0  0  0  0  0  0  0  0  0
   -2.8246    0.2559    0.1880 C   0  0  0  0  0  0  0  0  0  0  0  0
   -3.8809    0.8248    0.3763 O   0  0  0  0  0  0  0  0  0  0  0  0
    4.0898    0.9382   -0.5944 H   0  0  0  0  0  0  0  0  0  0  0  0
    1.7030   -1.7579    1.7802 H   0  0  0  0  0  0  0  0  0  0  0  0
    1.2150   -2.1847    0.1087 H   0  0  0  0  0  0  0  0  0  0  0  0
   -1.5231    1.4695    1.3647 H   0  0  0  0  0  0  0  0  0  0  0  0
   -1.5238    1.9121   -0.3481 H   0  0  0  0  0  0  0  0  0  0  0  0
   -2.7941   -0.7915   -0.0767 H   0  0  0  0  0  0  0  0  0  0  0  0
  1  2  3  0
  2  3  1  0
  3  4  1  0
  4  5  1  0
  5  6  2  0
  5  7  1  0
  7  8  1  0
  8  9  2  0
  1 10  1  0
  3 11  1  0
  3 12  1  0
  7 13  1  0
  7 14  1  0
  8 15  1  0
M  END
