
     RDKit          3D

 15 14  0  0  0  0  0  0  0  0999 V2000
    4.0849   -0.4069    1.7622 C   0  0  0  0  0  0  0  0  0  0  0  0
    2.7405   -0.1373    1.3240 C   0  0  0  0  0  0  0  0  0  0  0  0
    1.5245    0.1122    0.9283 C   0  0  0  0  0  0  0  0  0  0  0  0
    0.4512    0.3399    0.5982 C   0  0  0  0  0  0  0  0  0  0  0  0
   -0.7600    0.6023    0.2205 C   0  0  0  0  0  0  0  0  0  0  0  0
   -1.1144    0.5807   -1.2821 C   0  0  0  0  0  0  0  0  0  0  0  0
   -2.3964    0.9808   -1.5270 O   0  0  0  0  0  0  0  0  0  0  0  0
   -1.2063   -0.9841   -1.5101 C   0  0  0  0  0  0  0  0  0  0  0  0
   -2.1632   -1.5080   -1.9039 O   0  0  0  0  0  0  0  0  0  0  0  0
    5.2145   -0.6292    2.1215 H   0  0  0  0  0  0  0  0  0  0  0  0
   -1.5363   -0.2348    0.6462 H   0  0  0  0  0  0  0  0  0  0  0  0
   -1.2827    1.5415    0.6827 H   0  0  0  0  0  0  0  0  0  0  0  0
   -0.3057    0.8232   -1.9272 H   0  0  0  0  0  0  0  0  0  0  0  0
   -3.0139    0.3746   -1.0420 H   0  0  0  0  0  0  0  0  0  0  0  0
   -0.2365   -1.4548   -1.2253 H   0  0  0  0  0  0  0  0  0  0  0  0
  1  2  3  0
  2  3  1  0
  3  4  3  0
  4  5  1  0
  5  6  1  0
  6  7  1  0
  6  8  1  0
  8  9  2  0
  1 10  1  0
  5 11  1  0
  5 12  1  0
  6 13  1  0
  7 14  1  0
  8 15  1  0
M  END
