
     RDKit          3D

 17 18  0  0  0  0  0  0  0  0999 V2000
    1.3649    0.1877   -3.1993 C   0  0  0  0  0  0  0  0  0  0  0  0
    0.7870    0.0363   -2.1992 C   0  0  0  0  0  0  0  0  0  0  0  0
    0.0575   -0.1658   -0.8847 C   0  0  0  0  0  0  0  0  0  0  0  0
    0.1094   -1.3199   -0.2529 C   0  0  0  0  0  0  0  0  0  0  0  0
   -0.7036   -1.1884    1.0357 C   0  0  0  0  0  0  0  0  0  0  0  0
   -0.8998    0.3086    1.1471 C   0  0  0  0  0  0  0  0  0  0  0  0
    0.5156    0.9810    1.1910 C   0  0  0  0  0  0  0  0  0  0  0  0
   -0.0669    1.9389    0.2923 O   0  0  0  0  0  0  0  0  0  0  0  0
   -0.8105    0.8399   -0.2647 C   0  0  0  0  0  0  0  0  0  0  0  0
    1.9122    0.3507   -4.1580 H   0  0  0  0  0  0  0  0  0  0  0  0
    0.5811   -2.2586   -0.4512 H   0  0  0  0  0  0  0  0  0  0  0  0
    0.0882   -1.4943    1.7879 H   0  0  0  0  0  0  0  0  0  0  0  0
   -1.5453   -1.8087    0.9426 H   0  0  0  0  0  0  0  0  0  0  0  0
   -1.6159    0.7256    1.8105 H   0  0  0  0  0  0  0  0  0  0  0  0
    1.2761    0.3628    0.7083 H   0  0  0  0  0  0  0  0  0  0  0  0
    0.6704    1.3579    2.2016 H   0  0  0  0  0  0  0  0  0  0  0  0
   -1.7203    1.1463   -0.7389 H   0  0  0  0  0  0  0  0  0  0  0  0
  1  2  3  0
  2  3  1  0
  3  4  2  0
  4  5  1  0
  5  6  1  0
  6  7  1  0
  7  8  1  0
  8  9  1  0
  9  3  1  0
  9  6  1  0
  1 10  1  0
  4 11  1  0
  5 12  1  0
  5 13  1  0
  6 14  1  0
  7 15  1  0
  7 16  1  0
  9 17  1  0
M  END
