
     RDKit          3D

 19 19  0  0  0  0  0  0  0  0999 V2000
    1.3734   -1.3047    3.4498 C   0  0  0  0  0  0  0  0  0  0  0  0
    0.9200   -0.8120    2.2264 C   0  0  0  0  0  0  0  0  0  0  0  0
    0.5090   -0.3868    1.1781 C   0  0  0  0  0  0  0  0  0  0  0  0
   -0.0345   -1.2385    0.2410 C   0  0  0  0  0  0  0  0  0  0  0  0
   -0.5982   -1.1336   -1.0480 C   0  0  0  0  0  0  0  0  0  0  0  0
   -0.4037    0.0843   -1.8625 C   0  0  0  0  0  0  0  0  0  0  0  0
   -0.8268    1.3533   -1.1761 C   0  0  0  0  0  0  0  0  0  0  0  0
    0.0417    1.7589   -0.0898 C   0  0  0  0  0  0  0  0  0  0  0  0
    0.6084    1.1126    0.8849 C   0  0  0  0  0  0  0  0  0  0  0  0
    1.7798   -1.7284    4.4864 H   0  0  0  0  0  0  0  0  0  0  0  0
    0.0425   -2.2700    0.7008 H   0  0  0  0  0  0  0  0  0  0  0  0
   -1.6855   -1.4208   -1.1291 H   0  0  0  0  0  0  0  0  0  0  0  0
   -0.1226   -1.9708   -1.6793 H   0  0  0  0  0  0  0  0  0  0  0  0
   -1.0322   -0.0091   -2.7713 H   0  0  0  0  0  0  0  0  0  0  0  0
    0.6468    0.1597   -2.2031 H   0  0  0  0  0  0  0  0  0  0  0  0
   -0.8568    2.1560   -1.9349 H   0  0  0  0  0  0  0  0  0  0  0  0
   -1.8606    1.2248   -0.8129 H   0  0  0  0  0  0  0  0  0  0  0  0
    0.2755    2.8328   -0.0832 H   0  0  0  0  0  0  0  0  0  0  0  0
    1.2236    1.5923    1.6230 H   0  0  0  0  0  0  0  0  0  0  0  0
  1  2  3  0
  2  3  1  0
  3  4  2  0
  4  5  1  0
  5  6  1  0
  6  7  1  0
  7  8  1  0
  8  9  2  0
  9  3  1  0
  1 10  1  0
  4 11  1  0
  5 12  1  0
  5 13  1  0
  6 14  1  0
  6 15  1  0
  7 16  1  0
  7 17  1  0
  8 18  1  0
  9 19  1  0
M  END
