
     RDKit          3D

 23 22  0  0  0  0  0  0  0  0999 V2000
   -1.6129    1.9438    3.2722 C   0  0  0  0  0  0  0  0  0  0  0  0
   -1.3868    1.2624    2.2683 C   0  0  0  0  0  0  0  0  0  0  0  0
   -1.0853    0.4373    1.0444 C   0  0  0  0  0  0  0  0  0  0  0  0
   -0.9571    1.8355    0.0628 C   0  0  0  0  0  0  0  0  0  0  0  0
   -0.6472    1.4223   -1.2816 C   0  0  0  0  0  0  0  0  0  0  0  0
    0.2490    0.1772    1.0584 O   0  0  0  0  0  0  0  0  0  0  0  0
    0.9530   -0.5821    0.2581 C   0  0  0  0  0  0  0  0  0  0  0  0
    0.6139   -2.0063   -0.0166 C   0  0  0  0  0  0  0  0  0  0  0  0
    1.7546   -2.5390   -0.9072 C   0  0  0  0  0  0  0  0  0  0  0  0
   -1.8259    2.5714    4.1866 H   0  0  0  0  0  0  0  0  0  0  0  0
   -1.8722    0.0194    0.5651 H   0  0  0  0  0  0  0  0  0  0  0  0
   -1.9150    2.3067    0.1970 H   0  0  0  0  0  0  0  0  0  0  0  0
   -0.1604    2.3768    0.5492 H   0  0  0  0  0  0  0  0  0  0  0  0
   -1.3787    1.9603   -2.0168 H   0  0  0  0  0  0  0  0  0  0  0  0
   -0.6620    0.3616   -1.5509 H   0  0  0  0  0  0  0  0  0  0  0  0
    0.3302    1.9064   -1.5923 H   0  0  0  0  0  0  0  0  0  0  0  0
    1.2942   -0.1025   -0.7213 H   0  0  0  0  0  0  0  0  0  0  0  0
    2.0182   -0.6618    0.7521 H   0  0  0  0  0  0  0  0  0  0  0  0
   -0.3266   -2.0710   -0.6502 H   0  0  0  0  0  0  0  0  0  0  0  0
    0.5597   -2.5689    0.8991 H   0  0  0  0  0  0  0  0  0  0  0  0
    1.4199   -2.5921   -1.9559 H   0  0  0  0  0  0  0  0  0  0  0  0
    2.6288   -1.8884   -0.8015 H   0  0  0  0  0  0  0  0  0  0  0  0
    2.0087   -3.5690   -0.6053 H   0  0  0  0  0  0  0  0  0  0  0  0
  1  2  3  0
  2  3  1  0
  3  4  1  0
  4  5  1  0
  3  6  1  0
  6  7  1  0
  7  8  1  0
  8  9  1  0
  1 10  1  0
  3 11  1  0
  4 12  1  0
  4 13  1  0
  5 14  1  0
  5 15  1  0
  5 16  1  0
  7 17  1  0
  7 18  1  0
  8 19  1  0
  8 20  1  0
  9 21  1  0
  9 22  1  0
  9 23  1  0
M  END
