
     RDKit          3D

 15 14  0  0  0  0  0  0  0  0999 V2000
    2.8912   -1.1321   -1.7147 C   0  0  0  0  0  0  0  0  0  0  0  0
    1.9229   -1.0930   -0.9120 C   0  0  0  0  0  0  0  0  0  0  0  0
    0.8040   -1.0376    0.0430 C   0  0  0  0  0  0  0  0  0  0  0  0
    0.3050    0.3439    0.1517 C   0  0  0  0  0  0  0  0  0  0  0  0
    0.8306    1.2188   -0.5064 O   0  0  0  0  0  0  0  0  0  0  0  0
   -0.8274    0.6616    1.0560 C   0  0  0  0  0  0  0  0  0  0  0  0
   -2.0552    0.8995    0.1947 C   0  0  0  0  0  0  0  0  0  0  0  0
    3.6763   -1.1783   -2.3527 H   0  0  0  0  0  0  0  0  0  0  0  0
   -0.0672   -1.6458   -0.3442 H   0  0  0  0  0  0  0  0  0  0  0  0
    1.1425   -1.4878    0.9707 H   0  0  0  0  0  0  0  0  0  0  0  0
   -0.6105    1.6503    1.5557 H   0  0  0  0  0  0  0  0  0  0  0  0
   -1.0773   -0.1299    1.7797 H   0  0  0  0  0  0  0  0  0  0  0  0
   -2.8491    1.3218    0.8230 H   0  0  0  0  0  0  0  0  0  0  0  0
   -2.2994   -0.0363   -0.3093 H   0  0  0  0  0  0  0  0  0  0  0  0
   -1.7865    1.6451   -0.6156 H   0  0  0  0  0  0  0  0  0  0  0  0
  1  2  3  0
  2  3  1  0
  3  4  1  0
  4  5  2  0
  4  6  1  0
  6  7  1  0
  1  8  1  0
  3  9  1  0
  3 10  1  0
  6 11  1  0
  6 12  1  0
  7 13  1  0
  7 14  1  0
  7 15  1  0
M  END
