
     RDKit          3D

 19 20  0  0  0  0  0  0  0  0999 V2000
   -1.4086    3.0692    0.0377 C   0  0  0  0  0  0  0  0  0  0  0  0
   -1.1342    1.9197   -0.2087 C   0  0  0  0  0  0  0  0  0  0  0  0
   -0.8136    0.5200   -0.4859 C   0  0  0  0  0  0  0  0  0  0  0  0
   -1.6948   -0.4053    0.3550 C   0  0  0  0  0  0  0  0  0  0  0  0
   -0.7938   -1.5802    0.5903 C   0  0  0  0  0  0  0  0  0  0  0  0
    0.4731   -1.2789    0.4097 C   0  0  0  0  0  0  0  0  0  0  0  0
    1.9501   -1.2153    0.2737 C   0  0  0  0  0  0  0  0  0  0  0  0
    1.6390   -0.2030   -0.8637 C   0  0  0  0  0  0  0  0  0  0  0  0
    0.5369    0.2102    0.0730 C   0  0  0  0  0  0  0  0  0  0  0  0
   -1.6584    4.0827    0.2381 H   0  0  0  0  0  0  0  0  0  0  0  0
   -0.8757    0.3240   -1.5559 H   0  0  0  0  0  0  0  0  0  0  0  0
   -2.5851   -0.7282   -0.1744 H   0  0  0  0  0  0  0  0  0  0  0  0
   -1.9780    0.1190    1.2712 H   0  0  0  0  0  0  0  0  0  0  0  0
   -1.1973   -2.5450    0.8752 H   0  0  0  0  0  0  0  0  0  0  0  0
    2.4512   -2.1200   -0.0755 H   0  0  0  0  0  0  0  0  0  0  0  0
    2.4192   -0.6975    1.1457 H   0  0  0  0  0  0  0  0  0  0  0  0
    1.3097   -0.8132   -1.7424 H   0  0  0  0  0  0  0  0  0  0  0  0
    2.4402    0.5120   -1.0431 H   0  0  0  0  0  0  0  0  0  0  0  0
    0.9203    0.8296    0.8800 H   0  0  0  0  0  0  0  0  0  0  0  0
  1  2  3  0
  2  3  1  0
  3  4  1  0
  4  5  1  0
  5  6  2  0
  6  7  1  0
  7  8  1  0
  8  9  1  0
  9  3  1  0
  9  6  1  0
  1 10  1  0
  3 11  1  0
  4 12  1  0
  4 13  1  0
  5 14  1  0
  7 15  1  0
  7 16  1  0
  8 17  1  0
  8 18  1  0
  9 19  1  0
M  END
