
     RDKit          3D

 15 16  0  0  0  0  0  0  0  0999 V2000
    2.7968   -0.1338    0.6313 C   0  0  0  0  0  0  0  0  0  0  0  0
    1.5939   -0.0448    0.6232 C   0  0  0  0  0  0  0  0  0  0  0  0
    0.1218    0.0760    0.6361 C   0  0  0  0  0  0  0  0  0  0  0  0
   -0.3338    0.3097    1.9298 O   0  0  0  0  0  0  0  0  0  0  0  0
   -0.5243   -1.1512    0.0797 C   0  0  0  0  0  0  0  0  0  0  0  0
   -1.2184   -0.8441   -0.9843 C   0  0  0  0  0  0  0  0  0  0  0  0
   -1.1225    0.6327   -1.2733 C   0  0  0  0  0  0  0  0  0  0  0  0
    0.1785    1.0136   -1.6050 O   0  0  0  0  0  0  0  0  0  0  0  0
   -0.3346    1.1879   -0.2589 C   0  0  0  0  0  0  0  0  0  0  0  0
    3.8684   -0.1999    0.6254 H   0  0  0  0  0  0  0  0  0  0  0  0
   -0.6433   -0.5370    2.3427 H   0  0  0  0  0  0  0  0  0  0  0  0
   -0.3960   -2.1356    0.5425 H   0  0  0  0  0  0  0  0  0  0  0  0
   -1.7906   -1.5345   -1.5908 H   0  0  0  0  0  0  0  0  0  0  0  0
   -1.9479    1.1336   -1.7757 H   0  0  0  0  0  0  0  0  0  0  0  0
   -0.2478    2.2274    0.0773 H   0  0  0  0  0  0  0  0  0  0  0  0
  1  2  3  0
  2  3  1  0
  3  4  1  0
  3  5  1  0
  5  6  2  0
  6  7  1  0
  7  8  1  0
  8  9  1  0
  9  3  1  0
  9  7  1  0
  1 10  1  0
  4 11  1  0
  5 12  1  0
  6 13  1  0
  7 14  1  0
  9 15  1  0
M  END
