
     RDKit          3D

 19 20  0  0  0  0  0  0  0  0999 V2000
    2.8270    1.8552   -0.7172 C   0  0  0  0  0  0  0  0  0  0  0  0
    2.0879    0.9117   -0.8218 C   0  0  0  0  0  0  0  0  0  0  0  0
    1.2088   -0.2519   -0.9492 C   0  0  0  0  0  0  0  0  0  0  0  0
   -0.0376   -0.0481   -1.7607 C   0  0  0  0  0  0  0  0  0  0  0  0
   -0.0895   -0.3220   -0.3357 C   0  0  0  0  0  0  0  0  0  0  0  0
   -0.7083   -1.5231    0.2821 C   0  0  0  0  0  0  0  0  0  0  0  0
   -1.0259   -0.6605    1.5122 C   0  0  0  0  0  0  0  0  0  0  0  0
   -0.6363    0.5807    0.6992 C   0  0  0  0  0  0  0  0  0  0  0  0
   -1.8067    1.2408    0.3064 O   0  0  0  0  0  0  0  0  0  0  0  0
    3.4918    2.6973   -0.6419 H   0  0  0  0  0  0  0  0  0  0  0  0
    1.7748   -1.1984   -1.1540 H   0  0  0  0  0  0  0  0  0  0  0  0
   -0.3367   -0.8471   -2.4792 H   0  0  0  0  0  0  0  0  0  0  0  0
   -0.2924    1.0077   -2.0719 H   0  0  0  0  0  0  0  0  0  0  0  0
   -1.6083   -1.9214   -0.2275 H   0  0  0  0  0  0  0  0  0  0  0  0
    0.0001   -2.3474    0.4862 H   0  0  0  0  0  0  0  0  0  0  0  0
   -2.0887   -0.7436    1.7465 H   0  0  0  0  0  0  0  0  0  0  0  0
   -0.3101   -0.8563    2.3386 H   0  0  0  0  0  0  0  0  0  0  0  0
    0.0525    1.2213    1.2595 H   0  0  0  0  0  0  0  0  0  0  0  0
   -2.5024    1.2050    1.0149 H   0  0  0  0  0  0  0  0  0  0  0  0
  1  2  3  0
  2  3  1  0
  3  4  1  0
  4  5  1  0
  5  6  1  0
  6  7  1  0
  7  8  1  0
  8  9  1  0
  5  3  1  0
  8  5  1  0
  1 10  1  0
  3 11  1  0
  4 12  1  0
  4 13  1  0
  6 14  1  0
  6 15  1  0
  7 16  1  0
  7 17  1  0
  8 18  1  0
  9 19  1  0
M  END
