
     RDKit          3D

 19 20  0  0  0  0  0  0  0  0999 V2000
    2.8240   -0.5785    0.9431 C   0  0  0  0  0  0  0  0  0  0  0  0
    1.4518   -0.5027    1.0301 C   0  0  0  0  0  0  0  0  0  0  0  0
    0.0685   -0.4088    1.1276 C   0  0  0  0  0  0  0  0  0  0  0  0
   -0.4763   -0.4457   -0.1669 C   0  0  0  0  0  0  0  0  0  0  0  0
   -0.5178   -1.7391   -0.8821 C   0  0  0  0  0  0  0  0  0  0  0  0
   -1.9500   -1.3320   -0.6801 O   0  0  0  0  0  0  0  0  0  0  0  0
   -1.4534   -0.0885   -1.1717 C   0  0  0  0  0  0  0  0  0  0  0  0
   -0.3558    0.8085   -0.9577 C   0  0  0  0  0  0  0  0  0  0  0  0
   -0.4855    2.1482   -0.3651 C   0  0  0  0  0  0  0  0  0  0  0  0
    4.1409   -0.6359    0.8771 H   0  0  0  0  0  0  0  0  0  0  0  0
   -0.1715   -1.3046    1.8341 H   0  0  0  0  0  0  0  0  0  0  0  0
   -0.1129    0.5236    1.7559 H   0  0  0  0  0  0  0  0  0  0  0  0
   -0.3465   -2.6328   -0.3146 H   0  0  0  0  0  0  0  0  0  0  0  0
   -0.3891   -1.8040   -1.9948 H   0  0  0  0  0  0  0  0  0  0  0  0
   -1.4408   -0.3524   -2.3101 H   0  0  0  0  0  0  0  0  0  0  0  0
    0.6590    0.7129   -1.5065 H   0  0  0  0  0  0  0  0  0  0  0  0
   -1.3108    2.7470   -0.7396 H   0  0  0  0  0  0  0  0  0  0  0  0
    0.4926    2.7437   -0.4110 H   0  0  0  0  0  0  0  0  0  0  0  0
   -0.6267    2.1409    0.7540 H   0  0  0  0  0  0  0  0  0  0  0  0
  1  2  3  0
  2  3  1  0
  3  4  1  0
  4  5  1  0
  5  6  1  0
  6  7  1  0
  7  8  1  0
  8  9  1  0
  7  4  1  0
  8  4  1  0
  1 10  1  0
  3 11  1  0
  3 12  1  0
  5 13  1  0
  5 14  1  0
  7 15  1  0
  8 16  1  0
  9 17  1  0
  9 18  1  0
  9 19  1  0
M  END
