
     RDKit          3D

 17 17  0  0  0  0  0  0  0  0999 V2000
   -2.9471    0.4959    1.1903 C   0  0  0  0  0  0  0  0  0  0  0  0
   -2.0810    0.6348    0.3661 C   0  0  0  0  0  0  0  0  0  0  0  0
   -1.0160    0.7851   -0.6249 C   0  0  0  0  0  0  0  0  0  0  0  0
   -0.6887   -0.4024   -1.3052 O   0  0  0  0  0  0  0  0  0  0  0  0
    0.6408    0.0426   -1.2758 C   0  0  0  0  0  0  0  0  0  0  0  0
    1.5993   -1.0392   -1.1375 C   0  0  0  0  0  0  0  0  0  0  0  0
    2.4200   -1.9394   -1.0317 C   0  0  0  0  0  0  0  0  0  0  0  0
    0.3271    0.7291    0.0195 C   0  0  0  0  0  0  0  0  0  0  0  0
    0.4272   -0.1251    1.2581 C   0  0  0  0  0  0  0  0  0  0  0  0
   -3.7132    0.3737    1.9104 H   0  0  0  0  0  0  0  0  0  0  0  0
   -1.1601    1.6593   -1.2828 H   0  0  0  0  0  0  0  0  0  0  0  0
    0.9127    0.7510   -2.0815 H   0  0  0  0  0  0  0  0  0  0  0  0
    3.1392   -2.7079   -0.9280 H   0  0  0  0  0  0  0  0  0  0  0  0
    0.8055    1.6941    0.1787 H   0  0  0  0  0  0  0  0  0  0  0  0
    1.4835   -0.2298    1.5564 H   0  0  0  0  0  0  0  0  0  0  0  0
   -0.1062    0.4076    2.0765 H   0  0  0  0  0  0  0  0  0  0  0  0
   -0.0429   -1.1296    1.1115 H   0  0  0  0  0  0  0  0  0  0  0  0
  1  2  3  0
  2  3  1  0
  3  4  1  0
  4  5  1  0
  5  6  1  0
  6  7  3  0
  5  8  1  0
  8  9  1  0
  8  3  1  0
  1 10  1  0
  3 11  1  0
  5 12  1  0
  7 13  1  0
  8 14  1  0
  9 15  1  0
  9 16  1  0
  9 17  1  0
M  END
