
     RDKit          3D

 15 15  0  0  0  0  0  0  0  0999 V2000
    2.8127    0.7993   -0.3601 C   0  0  0  0  0  0  0  0  0  0  0  0
    1.6414    0.8855   -0.0475 C   0  0  0  0  0  0  0  0  0  0  0  0
    0.2233    0.9693    0.3162 C   0  0  0  0  0  0  0  0  0  0  0  0
   -0.1189    0.0106    1.4037 C   0  0  0  0  0  0  0  0  0  0  0  0
    0.3161    0.1159    2.5368 O   0  0  0  0  0  0  0  0  0  0  0  0
   -1.0351   -1.0327    0.8739 C   0  0  0  0  0  0  0  0  0  0  0  0
   -1.0539   -0.8076   -0.6119 C   0  0  0  0  0  0  0  0  0  0  0  0
   -0.5816    0.5588   -0.8623 C   0  0  0  0  0  0  0  0  0  0  0  0
   -0.7850    1.2629   -1.8360 O   0  0  0  0  0  0  0  0  0  0  0  0
    3.8458    0.7341   -0.6219 H   0  0  0  0  0  0  0  0  0  0  0  0
   -0.0361    1.9790    0.6826 H   0  0  0  0  0  0  0  0  0  0  0  0
   -2.0749   -0.9124    1.2565 H   0  0  0  0  0  0  0  0  0  0  0  0
   -0.6264   -2.0537    1.1225 H   0  0  0  0  0  0  0  0  0  0  0  0
   -0.4370   -1.5883   -1.0783 H   0  0  0  0  0  0  0  0  0  0  0  0
   -2.0903   -0.9207   -1.0041 H   0  0  0  0  0  0  0  0  0  0  0  0
  1  2  3  0
  2  3  1  0
  3  4  1  0
  4  5  2  0
  4  6  1  0
  6  7  1  0
  7  8  1  0
  8  9  2  0
  8  3  1  0
  1 10  1  0
  3 11  1  0
  6 12  1  0
  6 13  1  0
  7 14  1  0
  7 15  1  0
M  END
