
     RDKit          3D

 21 21  0  0  0  0  0  0  0  0999 V2000
   -3.2184    0.9923   -1.7257 C   0  0  0  0  0  0  0  0  0  0  0  0
   -2.7831    0.5596   -0.7924 C   0  0  0  0  0  0  0  0  0  0  0  0
   -2.3381    0.0919    0.1752 C   0  0  0  0  0  0  0  0  0  0  0  0
   -0.8476    0.2376    0.5848 C   0  0  0  0  0  0  0  0  0  0  0  0
    0.0257   -0.7217   -0.1341 C   0  0  0  0  0  0  0  0  0  0  0  0
    1.4575   -0.3809    0.2970 C   0  0  0  0  0  0  0  0  0  0  0  0
    1.9631    0.9411   -0.1902 C   0  0  0  0  0  0  0  0  0  0  0  0
    2.3876   -1.3123    0.8904 C   0  0  0  0  0  0  0  0  0  0  0  0
    1.6244   -0.5068    1.6919 O   0  0  0  0  0  0  0  0  0  0  0  0
   -3.7715    1.5779   -2.9428 H   0  0  0  0  0  0  0  0  0  0  0  0
   -2.3648   -1.1614    0.1487 H   0  0  0  0  0  0  0  0  0  0  0  0
   -2.8852    0.1681    1.2347 H   0  0  0  0  0  0  0  0  0  0  0  0
   -0.5630    1.2503    0.1689 H   0  0  0  0  0  0  0  0  0  0  0  0
   -0.7073    0.2284    1.6560 H   0  0  0  0  0  0  0  0  0  0  0  0
   -0.1979   -1.7869    0.0099 H   0  0  0  0  0  0  0  0  0  0  0  0
   -0.0228   -0.4417   -1.2368 H   0  0  0  0  0  0  0  0  0  0  0  0
    2.9906    0.7625   -0.6956 H   0  0  0  0  0  0  0  0  0  0  0  0
    2.1447    1.6884    0.5708 H   0  0  0  0  0  0  0  0  0  0  0  0
    1.3501    1.2883   -1.0653 H   0  0  0  0  0  0  0  0  0  0  0  0
    3.5115   -1.0587    0.8429 H   0  0  0  0  0  0  0  0  0  0  0  0
    2.2448   -2.4160    0.9618 H   0  0  0  0  0  0  0  0  0  0  0  0
  1  2  3  0
  2  3  1  0
  3  4  1  0
  4  5  1  0
  5  6  1  0
  6  7  1  0
  6  8  1  0
  8  9  1  0
  9  6  1  0
  1 10  1  0
  3 11  1  0
  3 12  1  0
  4 13  1  0
  4 14  1  0
  5 15  1  0
  5 16  1  0
  7 17  1  0
  7 18  1  0
  7 19  1  0
  8 20  1  0
  8 21  1  0
M  END
