
     RDKit          3D

 19 18  0  0  0  0  0  0  0  0999 V2000
   -0.2995   -2.9230    1.0180 C   0  0  0  0  0  0  0  0  0  0  0  0
   -0.3607   -1.5433    0.7744 C   0  0  0  0  0  0  0  0  0  0  0  0
   -0.4006   -0.1324    0.5186 C   0  0  0  0  0  0  0  0  0  0  0  0
   -0.6422    0.4962    1.9507 C   0  0  0  0  0  0  0  0  0  0  0  0
   -1.7752   -0.0053   -0.0668 C   0  0  0  0  0  0  0  0  0  0  0  0
   -2.9752    0.0833   -0.5712 C   0  0  0  0  0  0  0  0  0  0  0  0
    0.4963    0.3414   -0.2072 O   0  0  0  0  0  0  0  0  0  0  0  0
    1.2406    1.1400   -0.7968 C   0  0  0  0  0  0  0  0  0  0  0  0
    2.0024    0.3844   -1.9247 C   0  0  0  0  0  0  0  0  0  0  0  0
   -0.2607   -3.8644    1.2009 H   0  0  0  0  0  0  0  0  0  0  0  0
   -0.0674    0.0269    2.7463 H   0  0  0  0  0  0  0  0  0  0  0  0
   -0.7195    1.5690    1.9591 H   0  0  0  0  0  0  0  0  0  0  0  0
   -1.7270    0.1671    2.2024 H   0  0  0  0  0  0  0  0  0  0  0  0
   -3.9590    0.1418   -0.9769 H   0  0  0  0  0  0  0  0  0  0  0  0
    2.1200    1.5309   -0.1695 H   0  0  0  0  0  0  0  0  0  0  0  0
    0.8074    2.0287   -1.3375 H   0  0  0  0  0  0  0  0  0  0  0  0
    2.8799   -0.1120   -1.4922 H   0  0  0  0  0  0  0  0  0  0  0  0
    1.3258   -0.4117   -2.2843 H   0  0  0  0  0  0  0  0  0  0  0  0
    2.3146    1.0823   -2.6900 H   0  0  0  0  0  0  0  0  0  0  0  0
  1  2  3  0
  2  3  1  0
  3  4  1  0
  3  5  1  0
  5  6  3  0
  3  7  1  0
  7  8  1  0
  8  9  1  0
  1 10  1  0
  4 11  1  0
  4 12  1  0
  4 13  1  0
  6 14  1  0
  8 15  1  0
  8 16  1  0
  9 17  1  0
  9 18  1  0
  9 19  1  0
M  END
