
     RDKit          3D

 14 13  0  0  0  0  0  0  0  0999 V2000
    1.5258   -0.2309    2.5975 C   0  0  0  0  0  0  0  0  0  0  0  0
    0.5826   -0.1167    1.8545 C   0  0  0  0  0  0  0  0  0  0  0  0
   -0.5366    0.0371    0.9488 C   0  0  0  0  0  0  0  0  0  0  0  0
   -1.6251    0.5024    1.3527 O   0  0  0  0  0  0  0  0  0  0  0  0
   -0.3426   -0.3768   -0.4701 C   0  0  0  0  0  0  0  0  0  0  0  0
    0.7768    0.4174   -1.1179 C   0  0  0  0  0  0  0  0  0  0  0  0
   -1.6198   -0.1285   -1.2023 C   0  0  0  0  0  0  0  0  0  0  0  0
   -1.9544   -0.8442   -2.1045 O   0  0  0  0  0  0  0  0  0  0  0  0
    2.3749   -0.3246    3.2463 H   0  0  0  0  0  0  0  0  0  0  0  0
   -0.1210   -1.4577   -0.5693 H   0  0  0  0  0  0  0  0  0  0  0  0
    0.3596    1.0623   -1.9075 H   0  0  0  0  0  0  0  0  0  0  0  0
    1.3095    1.0395   -0.3726 H   0  0  0  0  0  0  0  0  0  0  0  0
    1.5340   -0.2757   -1.5427 H   0  0  0  0  0  0  0  0  0  0  0  0
   -2.2638    0.6966   -0.9348 H   0  0  0  0  0  0  0  0  0  0  0  0
  1  2  3  0
  2  3  1  0
  3  4  2  0
  3  5  1  0
  5  6  1  0
  5  7  1  0
  7  8  2  0
  1  9  1  0
  5 10  1  0
  6 11  1  0
  6 12  1  0
  6 13  1  0
  7 14  1  0
M  END
