
     RDKit          3D

 17 18  0  0  0  0  0  0  0  0999 V2000
    2.7258   -1.5695   -0.4070 C   0  0  0  0  0  0  0  0  0  0  0  0
    1.6887   -0.9966   -0.2131 C   0  0  0  0  0  0  0  0  0  0  0  0
    0.4768   -0.3416   -0.0074 C   0  0  0  0  0  0  0  0  0  0  0  0
    0.4564    1.1899   -0.0366 C   0  0  0  0  0  0  0  0  0  0  0  0
   -1.0142    0.9746   -0.3117 C   0  0  0  0  0  0  0  0  0  0  0  0
   -1.4908    0.3566    0.9782 C   0  0  0  0  0  0  0  0  0  0  0  0
   -0.3447   -0.6235    1.1759 C   0  0  0  0  0  0  0  0  0  0  0  0
   -0.2203   -1.3897    2.0856 O   0  0  0  0  0  0  0  0  0  0  0  0
   -0.5401   -0.2489   -1.1110 C   0  0  0  0  0  0  0  0  0  0  0  0
    3.6491   -2.0939   -0.5666 H   0  0  0  0  0  0  0  0  0  0  0  0
    0.7081    1.6628    0.9211 H   0  0  0  0  0  0  0  0  0  0  0  0
    0.9648    1.5324   -0.9362 H   0  0  0  0  0  0  0  0  0  0  0  0
   -1.5808    1.7092   -0.8081 H   0  0  0  0  0  0  0  0  0  0  0  0
   -2.4264   -0.1798    0.7593 H   0  0  0  0  0  0  0  0  0  0  0  0
   -1.5409    1.0471    1.8189 H   0  0  0  0  0  0  0  0  0  0  0  0
   -1.3500   -1.0037   -1.0766 H   0  0  0  0  0  0  0  0  0  0  0  0
   -0.1615   -0.0253   -2.1060 H   0  0  0  0  0  0  0  0  0  0  0  0
  1  2  3  0
  2  3  1  0
  3  4  1  0
  4  5  1  0
  5  6  1  0
  6  7  1  0
  7  8  2  0
  5  9  1  0
  7  3  1  0
  9  3  1  0
  1 10  1  0
  4 11  1  0
  4 12  1  0
  5 13  1  0
  6 14  1  0
  6 15  1  0
  9 16  1  0
  9 17  1  0
M  END
