
     RDKit          3D

 17 17  0  0  0  0  0  0  0  0999 V2000
    0.7396    2.5118   -1.1935 C   0  0  0  0  0  0  0  0  0  0  0  0
    0.8309    1.4102   -0.6479 C   0  0  0  0  0  0  0  0  0  0  0  0
    0.9407   -0.1123    0.1331 C   0  0  0  0  0  0  0  0  0  0  0  0
   -0.4832   -0.3367    0.5617 C   0  0  0  0  0  0  0  0  0  0  0  0
   -0.8232   -0.9193    1.7827 O   0  0  0  0  0  0  0  0  0  0  0  0
   -1.5918    0.0002   -0.1752 O   0  0  0  0  0  0  0  0  0  0  0  0
   -2.8942   -0.0879    0.0669 C   0  0  0  0  0  0  0  0  0  0  0  0
    2.1526   -0.4873    0.8071 C   0  0  0  0  0  0  0  0  0  0  0  0
    1.6465   -1.0748   -0.5735 C   0  0  0  0  0  0  0  0  0  0  0  0
    0.6553    3.3566   -1.6141 H   0  0  0  0  0  0  0  0  0  0  0  0
   -3.2573    0.8731    0.5462 H   0  0  0  0  0  0  0  0  0  0  0  0
   -3.4593   -0.3033   -0.8738 H   0  0  0  0  0  0  0  0  0  0  0  0
   -3.0020   -0.9476    0.8289 H   0  0  0  0  0  0  0  0  0  0  0  0
    1.9193   -1.0677    1.7393 H   0  0  0  0  0  0  0  0  0  0  0  0
    3.0203    0.1975    0.6530 H   0  0  0  0  0  0  0  0  0  0  0  0
    1.2838   -2.1938   -0.5541 H   0  0  0  0  0  0  0  0  0  0  0  0
    2.3217   -0.8186   -1.4869 H   0  0  0  0  0  0  0  0  0  0  0  0
  1  2  3  0
  2  3  1  0
  3  4  1  0
  4  5  2  0
  4  6  1  0
  6  7  1  0
  3  8  1  0
  8  9  1  0
  9  3  1  0
  1 10  1  0
  7 11  1  0
  7 12  1  0
  7 13  1  0
  8 14  1  0
  8 15  1  0
  9 16  1  0
  9 17  1  0
M  END
