
     RDKit          3D

 17 18  0  0  0  0  0  0  0  0999 V2000
    3.7321    0.1352   -0.9175 C   0  0  0  0  0  0  0  0  0  0  0  0
    2.5839   -0.0188   -0.5760 C   0  0  0  0  0  0  0  0  0  0  0  0
    1.2149   -0.1889   -0.1748 C   0  0  0  0  0  0  0  0  0  0  0  0
    0.4120    0.6241    0.4930 C   0  0  0  0  0  0  0  0  0  0  0  0
   -0.8850   -0.0125    0.6477 C   0  0  0  0  0  0  0  0  0  0  0  0
   -1.9810    0.5645   -0.2827 C   0  0  0  0  0  0  0  0  0  0  0  0
   -2.0651    0.5943    1.2377 C   0  0  0  0  0  0  0  0  0  0  0  0
   -0.6706   -1.3390    0.4615 O   0  0  0  0  0  0  0  0  0  0  0  0
    0.3850   -1.3939   -0.4524 C   0  0  0  0  0  0  0  0  0  0  0  0
    4.7523    0.2555   -1.2112 H   0  0  0  0  0  0  0  0  0  0  0  0
    0.7504    1.5991    0.8359 H   0  0  0  0  0  0  0  0  0  0  0  0
   -2.6052   -0.1346   -0.8376 H   0  0  0  0  0  0  0  0  0  0  0  0
   -1.7443    1.5013   -0.8192 H   0  0  0  0  0  0  0  0  0  0  0  0
   -2.0179    1.5892    1.6689 H   0  0  0  0  0  0  0  0  0  0  0  0
   -2.8099   -0.1042    1.7100 H   0  0  0  0  0  0  0  0  0  0  0  0
    0.0297   -1.3420   -1.4901 H   0  0  0  0  0  0  0  0  0  0  0  0
    0.9186   -2.3291   -0.2931 H   0  0  0  0  0  0  0  0  0  0  0  0
  1  2  3  0
  2  3  1  0
  3  4  2  0
  4  5  1  0
  5  6  1  0
  6  7  1  0
  5  8  1  0
  8  9  1  0
  9  3  1  0
  7  5  1  0
  1 10  1  0
  4 11  1  0
  6 12  1  0
  6 13  1  0
  7 14  1  0
  7 15  1  0
  9 16  1  0
  9 17  1  0
M  END
