
     RDKit          3D

 17 18  0  0  0  0  0  0  0  0999 V2000
    2.6409    0.7034   -0.1371 C   0  0  0  0  0  0  0  0  0  0  0  0
    1.5856    0.3469   -0.5967 C   0  0  0  0  0  0  0  0  0  0  0  0
    0.2962   -0.0913   -1.1323 C   0  0  0  0  0  0  0  0  0  0  0  0
   -0.8999    0.6778   -0.6105 C   0  0  0  0  0  0  0  0  0  0  0  0
   -0.5419    0.8314    0.8424 C   0  0  0  0  0  0  0  0  0  0  0  0
   -0.0493   -0.6015    1.1212 C   0  0  0  0  0  0  0  0  0  0  0  0
   -0.2817   -1.1874   -0.2427 C   0  0  0  0  0  0  0  0  0  0  0  0
   -1.6061   -0.6277   -0.6056 C   0  0  0  0  0  0  0  0  0  0  0  0
   -2.7447   -0.9614   -0.8167 O   0  0  0  0  0  0  0  0  0  0  0  0
    3.5772    1.0380    0.2810 H   0  0  0  0  0  0  0  0  0  0  0  0
    0.2705   -0.3578   -2.1868 H   0  0  0  0  0  0  0  0  0  0  0  0
   -1.2837    1.4905   -1.1640 H   0  0  0  0  0  0  0  0  0  0  0  0
    0.2410    1.5692    1.0237 H   0  0  0  0  0  0  0  0  0  0  0  0
   -1.4884    1.0258    1.3953 H   0  0  0  0  0  0  0  0  0  0  0  0
   -0.6950   -1.0650    1.8892 H   0  0  0  0  0  0  0  0  0  0  0  0
    1.0268   -0.5985    1.3927 H   0  0  0  0  0  0  0  0  0  0  0  0
   -0.0473   -2.1925   -0.4530 H   0  0  0  0  0  0  0  0  0  0  0  0
  1  2  3  0
  2  3  1  0
  3  4  1  0
  4  5  1  0
  5  6  1  0
  6  7  1  0
  7  8  1  0
  8  9  2  0
  7  3  1  0
  8  4  1  0
  1 10  1  0
  3 11  1  0
  4 12  1  0
  5 13  1  0
  5 14  1  0
  6 15  1  0
  6 16  1  0
  7 17  1  0
M  END
