
     RDKit          3D

 21 20  0  0  0  0  0  0  0  0999 V2000
   -3.1568   -0.0888    1.8491 C   0  0  0  0  0  0  0  0  0  0  0  0
   -2.1835    0.0336    1.1517 C   0  0  0  0  0  0  0  0  0  0  0  0
   -0.9659    0.1678    0.3023 C   0  0  0  0  0  0  0  0  0  0  0  0
   -0.8673    1.6041   -0.1225 C   0  0  0  0  0  0  0  0  0  0  0  0
   -1.9963    1.8845   -0.8959 O   0  0  0  0  0  0  0  0  0  0  0  0
    0.0880   -0.2027    1.0935 O   0  0  0  0  0  0  0  0  0  0  0  0
    0.7130   -1.3146    0.5805 C   0  0  0  0  0  0  0  0  0  0  0  0
    1.3756   -1.0842   -0.7582 C   0  0  0  0  0  0  0  0  0  0  0  0
    2.4535   -0.0075   -0.5254 C   0  0  0  0  0  0  0  0  0  0  0  0
   -4.0194   -0.2147    2.4776 H   0  0  0  0  0  0  0  0  0  0  0  0
   -1.0529   -0.5312   -0.5527 H   0  0  0  0  0  0  0  0  0  0  0  0
   -0.0071    1.8166   -0.7707 H   0  0  0  0  0  0  0  0  0  0  0  0
   -0.8075    2.2032    0.8062 H   0  0  0  0  0  0  0  0  0  0  0  0
   -1.7948    1.6844   -1.8448 H   0  0  0  0  0  0  0  0  0  0  0  0
    0.0041   -2.1764    0.4366 H   0  0  0  0  0  0  0  0  0  0  0  0
    1.4835   -1.6494    1.2936 H   0  0  0  0  0  0  0  0  0  0  0  0
    1.8773   -2.0375   -1.0467 H   0  0  0  0  0  0  0  0  0  0  0  0
    0.7111   -0.7142   -1.5361 H   0  0  0  0  0  0  0  0  0  0  0  0
    3.2320   -0.4606    0.1585 H   0  0  0  0  0  0  0  0  0  0  0  0
    1.9777    0.8238    0.0130 H   0  0  0  0  0  0  0  0  0  0  0  0
    2.9357    0.2636   -1.4638 H   0  0  0  0  0  0  0  0  0  0  0  0
  1  2  3  0
  2  3  1  0
  3  4  1  0
  4  5  1  0
  3  6  1  0
  6  7  1  0
  7  8  1  0
  8  9  1  0
  1 10  1  0
  3 11  1  0
  4 12  1  0
  4 13  1  0
  5 14  1  0
  7 15  1  0
  7 16  1  0
  8 17  1  0
  8 18  1  0
  9 19  1  0
  9 20  1  0
  9 21  1  0
M  END
