
     RDKit          3D

 17 18  0  0  0  0  0  0  0  0999 V2000
    2.0005   -2.0829    0.0116 C   0  0  0  0  0  0  0  0  0  0  0  0
    1.3361   -1.1335    0.3456 C   0  0  0  0  0  0  0  0  0  0  0  0
    0.5338   -0.0166    0.7613 C   0  0  0  0  0  0  0  0  0  0  0  0
    0.6381    1.2257   -0.1254 C   0  0  0  0  0  0  0  0  0  0  0  0
   -0.8160    1.4635    0.3209 C   0  0  0  0  0  0  0  0  0  0  0  0
   -0.8638   -0.0623    0.1465 C   0  0  0  0  0  0  0  0  0  0  0  0
   -1.8174   -0.7472    0.7350 O   0  0  0  0  0  0  0  0  0  0  0  0
   -0.5518   -0.1783   -1.3038 C   0  0  0  0  0  0  0  0  0  0  0  0
    0.5184    0.7480   -1.4035 O   0  0  0  0  0  0  0  0  0  0  0  0
    2.5817   -2.9355   -0.3003 H   0  0  0  0  0  0  0  0  0  0  0  0
    0.5689    0.2186    1.8278 H   0  0  0  0  0  0  0  0  0  0  0  0
    1.3520    1.9638    0.1339 H   0  0  0  0  0  0  0  0  0  0  0  0
   -0.9182    1.8066    1.3552 H   0  0  0  0  0  0  0  0  0  0  0  0
   -1.4080    2.0115   -0.4160 H   0  0  0  0  0  0  0  0  0  0  0  0
   -1.4583   -1.3320    1.4520 H   0  0  0  0  0  0  0  0  0  0  0  0
   -1.4291    0.2175   -1.8868 H   0  0  0  0  0  0  0  0  0  0  0  0
   -0.2670   -1.1670   -1.6539 H   0  0  0  0  0  0  0  0  0  0  0  0
  1  2  3  0
  2  3  1  0
  3  4  1  0
  4  5  1  0
  5  6  1  0
  6  7  1  0
  6  8  1  0
  8  9  1  0
  6  3  1  0
  9  4  1  0
  1 10  1  0
  3 11  1  0
  4 12  1  0
  5 13  1  0
  5 14  1  0
  7 15  1  0
  8 16  1  0
  8 17  1  0
M  END
