
     RDKit          3D

 18 18  0  0  0  0  0  0  0  0999 V2000
    2.5770    1.1106    1.9374 C   0  0  0  0  0  0  0  0  0  0  0  0
    1.7047    0.3231    1.6909 C   0  0  0  0  0  0  0  0  0  0  0  0
    0.6182   -0.6295    1.3758 C   0  0  0  0  0  0  0  0  0  0  0  0
    0.2534   -0.4079   -0.0654 C   0  0  0  0  0  0  0  0  0  0  0  0
   -0.2212    1.0131   -0.3214 C   0  0  0  0  0  0  0  0  0  0  0  0
   -1.1087    0.8215   -1.4923 C   0  0  0  0  0  0  0  0  0  0  0  0
   -1.5637   -0.4271   -1.5146 C   0  0  0  0  0  0  0  0  0  0  0  0
   -1.0143   -1.1808   -0.3512 C   0  0  0  0  0  0  0  0  0  0  0  0
    3.3679    1.8191    2.1453 H   0  0  0  0  0  0  0  0  0  0  0  0
   -0.2325   -0.5311    2.0739 H   0  0  0  0  0  0  0  0  0  0  0  0
    0.9802   -1.6783    1.4514 H   0  0  0  0  0  0  0  0  0  0  0  0
    1.0396   -0.6904   -0.7602 H   0  0  0  0  0  0  0  0  0  0  0  0
   -0.8490    1.3634    0.5348 H   0  0  0  0  0  0  0  0  0  0  0  0
    0.6206    1.7003   -0.5305 H   0  0  0  0  0  0  0  0  0  0  0  0
   -1.3709    1.5551   -2.2411 H   0  0  0  0  0  0  0  0  0  0  0  0
   -2.2315   -0.8791   -2.2422 H   0  0  0  0  0  0  0  0  0  0  0  0
   -1.7480   -1.0404    0.4842 H   0  0  0  0  0  0  0  0  0  0  0  0
   -0.8217   -2.2417   -0.5842 H   0  0  0  0  0  0  0  0  0  0  0  0
  1  2  3  0
  2  3  1  0
  3  4  1  0
  4  5  1  0
  5  6  1  0
  6  7  2  0
  7  8  1  0
  8  4  1  0
  1  9  1  0
  3 10  1  0
  3 11  1  0
  4 12  1  0
  5 13  1  0
  5 14  1  0
  6 15  1  0
  7 16  1  0
  8 17  1  0
  8 18  1  0
M  END
