
     RDKit          3D

 15 14  0  0  0  0  0  0  0  0999 V2000
    2.5687    0.1534    2.5303 C   0  0  0  0  0  0  0  0  0  0  0  0
    2.0004    0.7909    1.5032 C   0  0  0  0  0  0  0  0  0  0  0  0
    1.4939    1.3663    0.5800 C   0  0  0  0  0  0  0  0  0  0  0  0
    1.2924    2.7459    0.7109 O   0  0  0  0  0  0  0  0  0  0  0  0
    0.9444    1.0216   -0.8456 C   0  0  0  0  0  0  0  0  0  0  0  0
   -0.0922    0.0561   -0.5367 C   0  0  0  0  0  0  0  0  0  0  0  0
   -0.9457   -0.7108   -0.2841 C   0  0  0  0  0  0  0  0  0  0  0  0
   -2.1076   -1.7609    0.0548 C   0  0  0  0  0  0  0  0  0  0  0  0
   -3.1553   -1.2891   -0.8479 O   0  0  0  0  0  0  0  0  0  0  0  0
    3.0377   -0.3672    3.3439 H   0  0  0  0  0  0  0  0  0  0  0  0
    0.5450    1.9304   -1.2789 H   0  0  0  0  0  0  0  0  0  0  0  0
    1.7872    0.5611   -1.3630 H   0  0  0  0  0  0  0  0  0  0  0  0
   -1.7780   -2.6960   -0.2674 H   0  0  0  0  0  0  0  0  0  0  0  0
   -2.3527   -1.5113    1.0862 H   0  0  0  0  0  0  0  0  0  0  0  0
   -3.2382   -0.2905   -0.7230 H   0  0  0  0  0  0  0  0  0  0  0  0
  1  2  3  0
  2  3  1  0
  3  4  2  0
  3  5  1  0
  5  6  1  0
  6  7  3  0
  7  8  1  0
  8  9  1  0
  1 10  1  0
  5 11  1  0
  5 12  1  0
  8 13  1  0
  8 14  1  0
  9 15  1  0
M  END
