
     RDKit          3D

 19 19  0  0  0  0  0  0  0  0999 V2000
    2.7837   -1.6658    0.7772 C   0  0  0  0  0  0  0  0  0  0  0  0
    1.8381   -0.9003    0.6562 C   0  0  0  0  0  0  0  0  0  0  0  0
    0.7071    0.0225    0.5360 C   0  0  0  0  0  0  0  0  0  0  0  0
    1.1517    1.1309   -0.3874 C   0  0  0  0  0  0  0  0  0  0  0  0
    2.2525    1.7422    0.1887 O   0  0  0  0  0  0  0  0  0  0  0  0
   -0.4706   -0.7522   -0.0336 C   0  0  0  0  0  0  0  0  0  0  0  0
   -1.6470    0.1520   -0.1728 C   0  0  0  0  0  0  0  0  0  0  0  0
   -2.9186   -0.3039   -0.6902 C   0  0  0  0  0  0  0  0  0  0  0  0
   -2.7638   -0.2656    0.7070 O   0  0  0  0  0  0  0  0  0  0  0  0
    3.6013   -2.3317    0.8811 H   0  0  0  0  0  0  0  0  0  0  0  0
    0.4222    0.3576    1.5281 H   0  0  0  0  0  0  0  0  0  0  0  0
    0.3807    1.8827   -0.5827 H   0  0  0  0  0  0  0  0  0  0  0  0
    1.4613    0.6567   -1.3421 H   0  0  0  0  0  0  0  0  0  0  0  0
    2.2655    2.6840   -0.1150 H   0  0  0  0  0  0  0  0  0  0  0  0
   -0.2091   -1.2026   -1.0254 H   0  0  0  0  0  0  0  0  0  0  0  0
   -0.6676   -1.5996    0.6446 H   0  0  0  0  0  0  0  0  0  0  0  0
   -1.4936    1.2536   -0.0806 H   0  0  0  0  0  0  0  0  0  0  0  0
   -3.0405   -1.3113   -1.1260 H   0  0  0  0  0  0  0  0  0  0  0  0
   -3.6532    0.4509   -1.0438 H   0  0  0  0  0  0  0  0  0  0  0  0
  1  2  3  0
  2  3  1  0
  3  4  1  0
  4  5  1  0
  3  6  1  0
  6  7  1  0
  7  8  1  0
  8  9  1  0
  9  7  1  0
  1 10  1  0
  3 11  1  0
  4 12  1  0
  4 13  1  0
  5 14  1  0
  6 15  1  0
  6 16  1  0
  7 17  1  0
  8 18  1  0
  8 19  1  0
M  END
