
     RDKit          3D

 19 19  0  0  0  0  0  0  0  0999 V2000
    2.4327   -2.0668    0.1821 C   0  0  0  0  0  0  0  0  0  0  0  0
    1.5533   -1.2547   -0.1815 C   0  0  0  0  0  0  0  0  0  0  0  0
    0.5529   -0.3562   -0.6067 C   0  0  0  0  0  0  0  0  0  0  0  0
   -0.9465   -0.6412   -0.3208 C   0  0  0  0  0  0  0  0  0  0  0  0
   -1.7339   -0.4850   -1.5364 C   0  0  0  0  0  0  0  0  0  0  0  0
   -1.7254    0.9257   -1.7737 O   0  0  0  0  0  0  0  0  0  0  0  0
   -0.2433    0.3783    0.4337 C   0  0  0  0  0  0  0  0  0  0  0  0
   -0.4291    1.8593    0.2232 C   0  0  0  0  0  0  0  0  0  0  0  0
    0.2428    0.0619    1.8532 C   0  0  0  0  0  0  0  0  0  0  0  0
    3.2161   -2.8099    0.5146 H   0  0  0  0  0  0  0  0  0  0  0  0
    0.7828    0.2414   -1.5165 H   0  0  0  0  0  0  0  0  0  0  0  0
   -0.9975   -1.6945    0.1609 H   0  0  0  0  0  0  0  0  0  0  0  0
   -2.2623   -0.7953   -2.2754 H   0  0  0  0  0  0  0  0  0  0  0  0
    0.0794    2.2418   -0.6595 H   0  0  0  0  0  0  0  0  0  0  0  0
   -1.5293    2.0849    0.2008 H   0  0  0  0  0  0  0  0  0  0  0  0
   -0.0341    2.4428    1.0794 H   0  0  0  0  0  0  0  0  0  0  0  0
   -0.0257   -0.9887    2.0717 H   0  0  0  0  0  0  0  0  0  0  0  0
   -0.2851    0.6958    2.5800 H   0  0  0  0  0  0  0  0  0  0  0  0
    1.3522    0.1605    1.9199 H   0  0  0  0  0  0  0  0  0  0  0  0
  1  2  3  0
  2  3  1  0
  3  4  1  0
  4  5  1  0
  5  6  2  0
  4  7  1  0
  7  8  1  0
  7  9  1  0
  7  3  1  0
  1 10  1  0
  3 11  1  0
  4 12  1  0
  5 13  1  0
  8 14  1  0
  8 15  1  0
  8 16  1  0
  9 17  1  0
  9 18  1  0
  9 19  1  0
M  END
