
     RDKit          3D

 21 21  0  0  0  0  0  0  0  0999 V2000
   -1.8239   -2.4843    1.4093 C   0  0  0  0  0  0  0  0  0  0  0  0
   -1.3712   -1.3743    1.0874 C   0  0  0  0  0  0  0  0  0  0  0  0
   -0.7635    0.0664    0.6475 C   0  0  0  0  0  0  0  0  0  0  0  0
   -1.8968    0.8603    0.1222 C   0  0  0  0  0  0  0  0  0  0  0  0
   -1.2638    1.6285   -1.0636 C   0  0  0  0  0  0  0  0  0  0  0  0
   -0.0371    0.9707   -1.0993 C   0  0  0  0  0  0  0  0  0  0  0  0
    0.3875    0.0552   -0.2340 C   0  0  0  0  0  0  0  0  0  0  0  0
    1.6551   -0.6383   -0.5285 C   0  0  0  0  0  0  0  0  0  0  0  0
    2.8061   -0.3270    0.3303 C   0  0  0  0  0  0  0  0  0  0  0  0
   -2.1309   -3.2430    1.6154 H   0  0  0  0  0  0  0  0  0  0  0  0
   -0.5854    0.6003    1.7357 H   0  0  0  0  0  0  0  0  0  0  0  0
   -2.6117    0.0289   -0.2475 H   0  0  0  0  0  0  0  0  0  0  0  0
   -2.4796    1.4649    0.8588 H   0  0  0  0  0  0  0  0  0  0  0  0
   -1.9026    1.5671   -1.9795 H   0  0  0  0  0  0  0  0  0  0  0  0
   -1.2940    2.7222   -0.7016 H   0  0  0  0  0  0  0  0  0  0  0  0
    0.7414    1.1784   -2.0058 H   0  0  0  0  0  0  0  0  0  0  0  0
    1.4589   -1.7763   -0.2976 H   0  0  0  0  0  0  0  0  0  0  0  0
    1.9009   -0.7478   -1.6363 H   0  0  0  0  0  0  0  0  0  0  0  0
    3.0202   -1.1247    1.0392 H   0  0  0  0  0  0  0  0  0  0  0  0
    3.7100    0.0710   -0.2046 H   0  0  0  0  0  0  0  0  0  0  0  0
    2.4802    0.5019    1.1524 H   0  0  0  0  0  0  0  0  0  0  0  0
  1  2  3  0
  2  3  1  0
  3  4  1  0
  4  5  1  0
  5  6  1  0
  6  7  2  0
  7  8  1  0
  8  9  1  0
  7  3  1  0
  1 10  1  0
  3 11  1  0
  4 12  1  0
  4 13  1  0
  5 14  1  0
  5 15  1  0
  6 16  1  0
  8 17  1  0
  8 18  1  0
  9 19  1  0
  9 20  1  0
  9 21  1  0
M  END
