
     RDKit          3D

 19 20  0  0  0  0  0  0  0  0999 V2000
    3.3929    0.1980    0.3848 C   0  0  0  0  0  0  0  0  0  0  0  0
    2.2505    0.3274    0.0296 C   0  0  0  0  0  0  0  0  0  0  0  0
    0.8658    0.5035   -0.3994 C   0  0  0  0  0  0  0  0  0  0  0  0
    0.1454    1.3224    0.6170 C   0  0  0  0  0  0  0  0  0  0  0  0
   -1.1571    1.1419    0.6745 C   0  0  0  0  0  0  0  0  0  0  0  0
   -1.6863   -0.1487    0.1942 C   0  0  0  0  0  0  0  0  0  0  0  0
   -0.6585   -1.1976    0.6478 C   0  0  0  0  0  0  0  0  0  0  0  0
    0.1444   -0.7882   -0.5638 C   0  0  0  0  0  0  0  0  0  0  0  0
   -1.2017   -0.4508   -1.2247 C   0  0  0  0  0  0  0  0  0  0  0  0
    4.4143    0.0922    0.6858 H   0  0  0  0  0  0  0  0  0  0  0  0
    0.8115    1.1048   -1.3544 H   0  0  0  0  0  0  0  0  0  0  0  0
    0.6786    2.0190    1.2609 H   0  0  0  0  0  0  0  0  0  0  0  0
   -1.8162    1.8900    1.0517 H   0  0  0  0  0  0  0  0  0  0  0  0
   -2.7182   -0.3895    0.4017 H   0  0  0  0  0  0  0  0  0  0  0  0
   -0.2133   -0.9675    1.6257 H   0  0  0  0  0  0  0  0  0  0  0  0
   -1.0976   -2.1876    0.5378 H   0  0  0  0  0  0  0  0  0  0  0  0
    0.6904   -1.6095   -1.0625 H   0  0  0  0  0  0  0  0  0  0  0  0
   -1.1316    0.4569   -1.8650 H   0  0  0  0  0  0  0  0  0  0  0  0
   -1.7133   -1.3168   -1.6418 H   0  0  0  0  0  0  0  0  0  0  0  0
  1  2  3  0
  2  3  1  0
  3  4  1  0
  4  5  2  0
  5  6  1  0
  6  7  1  0
  7  8  1  0
  8  9  1  0
  8  3  1  0
  9  6  1  0
  1 10  1  0
  3 11  1  0
  4 12  1  0
  5 13  1  0
  6 14  1  0
  7 15  1  0
  7 16  1  0
  8 17  1  0
  9 18  1  0
  9 19  1  0
M  END
