
     RDKit          3D

 17 19  0  0  0  0  0  0  0  0999 V2000
    2.9492    0.2793    1.3678 C   0  0  0  0  0  0  0  0  0  0  0  0
    1.8198    0.4057    1.0381 C   0  0  0  0  0  0  0  0  0  0  0  0
    0.4420    0.5847    0.6295 C   0  0  0  0  0  0  0  0  0  0  0  0
    0.2694    0.9135   -0.8185 C   0  0  0  0  0  0  0  0  0  0  0  0
   -1.1087    0.3132   -1.1386 C   0  0  0  0  0  0  0  0  0  0  0  0
   -1.0373   -1.2202   -0.9799 C   0  0  0  0  0  0  0  0  0  0  0  0
   -0.1040   -1.6947   -0.0834 O   0  0  0  0  0  0  0  0  0  0  0  0
   -0.3782   -0.6844    0.8461 C   0  0  0  0  0  0  0  0  0  0  0  0
   -1.6044   -0.3554    0.0434 C   0  0  0  0  0  0  0  0  0  0  0  0
    3.9632    0.1732    1.6693 H   0  0  0  0  0  0  0  0  0  0  0  0
   -0.0527    1.3849    1.2188 H   0  0  0  0  0  0  0  0  0  0  0  0
    0.2713    2.0083   -1.0213 H   0  0  0  0  0  0  0  0  0  0  0  0
    0.9773    0.3956   -1.4869 H   0  0  0  0  0  0  0  0  0  0  0  0
   -1.6872    0.7110   -1.9615 H   0  0  0  0  0  0  0  0  0  0  0  0
   -1.6062   -1.8500   -1.6400 H   0  0  0  0  0  0  0  0  0  0  0  0
   -0.5163   -0.9927    1.8759 H   0  0  0  0  0  0  0  0  0  0  0  0
   -2.5972   -0.3720    0.4411 H   0  0  0  0  0  0  0  0  0  0  0  0
  1  2  3  0
  2  3  1  0
  3  4  1  0
  4  5  1  0
  5  6  1  0
  6  7  1  0
  7  8  1  0
  8  9  1  0
  8  3  1  0
  9  5  1  0
  9  6  1  0
  1 10  1  0
  3 11  1  0
  4 12  1  0
  4 13  1  0
  5 14  1  0
  6 15  1  0
  8 16  1  0
  9 17  1  0
M  END
