
     RDKit          3D

 19 20  0  0  0  0  0  0  0  0999 V2000
    3.3971    0.1053    2.0201 C   0  0  0  0  0  0  0  0  0  0  0  0
    2.6739   -0.0734    1.0722 C   0  0  0  0  0  0  0  0  0  0  0  0
    1.7619   -0.2819   -0.0855 C   0  0  0  0  0  0  0  0  0  0  0  0
    0.8691    0.7763   -0.3821 C   0  0  0  0  0  0  0  0  0  0  0  0
   -0.5026    1.0559    0.2387 C   0  0  0  0  0  0  0  0  0  0  0  0
   -0.8334   -0.1758   -0.6376 C   0  0  0  0  0  0  0  0  0  0  0  0
   -2.0902   -0.8638   -0.2413 C   0  0  0  0  0  0  0  0  0  0  0  0
   -3.1454    0.0567   -0.3592 O   0  0  0  0  0  0  0  0  0  0  0  0
    0.4148   -0.6656    0.1108 C   0  0  0  0  0  0  0  0  0  0  0  0
    4.0236    0.2523    2.8663 H   0  0  0  0  0  0  0  0  0  0  0  0
    2.3306   -0.8300   -0.8979 H   0  0  0  0  0  0  0  0  0  0  0  0
    0.7255    0.9415   -1.4987 H   0  0  0  0  0  0  0  0  0  0  0  0
   -0.5658    0.8521    1.3088 H   0  0  0  0  0  0  0  0  0  0  0  0
   -0.9457    1.9832   -0.1031 H   0  0  0  0  0  0  0  0  0  0  0  0
   -0.6575    0.0158   -1.6900 H   0  0  0  0  0  0  0  0  0  0  0  0
   -2.0588   -1.3689    0.7214 H   0  0  0  0  0  0  0  0  0  0  0  0
   -2.3002   -1.6400   -1.0232 H   0  0  0  0  0  0  0  0  0  0  0  0
   -3.2000    0.5490    0.5025 H   0  0  0  0  0  0  0  0  0  0  0  0
    0.1030   -0.6887    1.2055 H   0  0  0  0  0  0  0  0  0  0  0  0
  1  2  3  0
  2  3  1  0
  3  4  1  0
  4  5  1  0
  5  6  1  0
  6  7  1  0
  7  8  1  0
  6  9  1  0
  9  3  1  0
  9  4  1  0
  1 10  1  0
  3 11  1  0
  4 12  1  0
  5 13  1  0
  5 14  1  0
  6 15  1  0
  7 16  1  0
  7 17  1  0
  8 18  1  0
  9 19  1  0
M  END
