
     RDKit          3D

 15 15  0  0  0  0  0  0  0  0999 V2000
    2.5718    1.0107    0.7866 C   0  0  0  0  0  0  0  0  0  0  0  0
    1.5658    0.8090    0.1528 C   0  0  0  0  0  0  0  0  0  0  0  0
    0.3300    0.5840   -0.6382 C   0  0  0  0  0  0  0  0  0  0  0  0
    0.2084   -0.9048   -0.8414 C   0  0  0  0  0  0  0  0  0  0  0  0
   -1.1490   -1.2220   -0.3116 C   0  0  0  0  0  0  0  0  0  0  0  0
   -1.9284   -2.0838   -0.6632 O   0  0  0  0  0  0  0  0  0  0  0  0
   -1.3764   -0.2358    0.7803 C   0  0  0  0  0  0  0  0  0  0  0  0
   -0.8225    1.0000    0.1907 C   0  0  0  0  0  0  0  0  0  0  0  0
   -1.2374    2.1182    0.3601 O   0  0  0  0  0  0  0  0  0  0  0  0
    3.4649    1.2015    1.3388 H   0  0  0  0  0  0  0  0  0  0  0  0
    0.3961    1.0924   -1.6067 H   0  0  0  0  0  0  0  0  0  0  0  0
    0.9859   -1.4849   -0.3120 H   0  0  0  0  0  0  0  0  0  0  0  0
    0.2140   -1.1539   -1.9420 H   0  0  0  0  0  0  0  0  0  0  0  0
   -0.7774   -0.5915    1.6484 H   0  0  0  0  0  0  0  0  0  0  0  0
   -2.4456   -0.1389    1.0573 H   0  0  0  0  0  0  0  0  0  0  0  0
  1  2  3  0
  2  3  1  0
  3  4  1  0
  4  5  1  0
  5  6  2  0
  5  7  1  0
  7  8  1  0
  8  9  2  0
  8  3  1  0
  1 10  1  0
  3 11  1  0
  4 12  1  0
  4 13  1  0
  7 14  1  0
  7 15  1  0
M  END
