
     RDKit          3D

 14 13  0  0  0  0  0  0  0  0999 V2000
    2.5132    2.2948    0.8335 C   0  0  0  0  0  0  0  0  0  0  0  0
    1.7363    1.3638    0.8476 C   0  0  0  0  0  0  0  0  0  0  0  0
    0.8037    0.2606    0.8881 C   0  0  0  0  0  0  0  0  0  0  0  0
    0.3889   -0.1421    2.0422 O   0  0  0  0  0  0  0  0  0  0  0  0
    0.3041   -0.4131   -0.2936 C   0  0  0  0  0  0  0  0  0  0  0  0
   -1.2298   -0.4870   -0.1853 C   0  0  0  0  0  0  0  0  0  0  0  0
   -1.7720   -1.2041   -1.3626 C   0  0  0  0  0  0  0  0  0  0  0  0
   -1.0635   -1.6913   -2.2024 O   0  0  0  0  0  0  0  0  0  0  0  0
    3.1869    3.1163    0.8374 H   0  0  0  0  0  0  0  0  0  0  0  0
    0.5559    0.1045   -1.2434 H   0  0  0  0  0  0  0  0  0  0  0  0
    0.6205   -1.4944   -0.2948 H   0  0  0  0  0  0  0  0  0  0  0  0
   -1.5072   -0.9869    0.7521 H   0  0  0  0  0  0  0  0  0  0  0  0
   -1.6636    0.5438   -0.1464 H   0  0  0  0  0  0  0  0  0  0  0  0
   -2.8733   -1.2650   -1.4210 H   0  0  0  0  0  0  0  0  0  0  0  0
  1  2  3  0
  2  3  1  0
  3  4  2  0
  3  5  1  0
  5  6  1  0
  6  7  1  0
  7  8  2  0
  1  9  1  0
  5 10  1  0
  5 11  1  0
  6 12  1  0
  6 13  1  0
  7 14  1  0
M  END
