
     RDKit          3D

 19 19  0  0  0  0  0  0  0  0999 V2000
    2.7197    2.2221   -0.1039 C   0  0  0  0  0  0  0  0  0  0  0  0
    1.9273    1.2904   -0.0547 C   0  0  0  0  0  0  0  0  0  0  0  0
    1.0012    0.1643    0.0125 C   0  0  0  0  0  0  0  0  0  0  0  0
    0.6671   -0.1893   -1.4107 C   0  0  0  0  0  0  0  0  0  0  0  0
   -0.3179   -1.0487   -1.5604 C   0  0  0  0  0  0  0  0  0  0  0  0
   -0.9503   -1.5347   -0.2806 C   0  0  0  0  0  0  0  0  0  0  0  0
   -1.3951   -0.3232    0.5438 C   0  0  0  0  0  0  0  0  0  0  0  0
   -1.7488   -0.7837    1.8045 O   0  0  0  0  0  0  0  0  0  0  0  0
   -0.2438    0.6438    0.7269 C   0  0  0  0  0  0  0  0  0  0  0  0
    3.4181    3.0497   -0.1660 H   0  0  0  0  0  0  0  0  0  0  0  0
    1.4207   -0.7263    0.4995 H   0  0  0  0  0  0  0  0  0  0  0  0
    1.1831    0.2300   -2.2517 H   0  0  0  0  0  0  0  0  0  0  0  0
   -0.6889   -1.4148   -2.4909 H   0  0  0  0  0  0  0  0  0  0  0  0
   -1.8312   -2.1363   -0.5235 H   0  0  0  0  0  0  0  0  0  0  0  0
   -0.1907   -2.0842    0.2711 H   0  0  0  0  0  0  0  0  0  0  0  0
   -2.2830    0.1651    0.0939 H   0  0  0  0  0  0  0  0  0  0  0  0
   -2.0453    0.0196    2.3120 H   0  0  0  0  0  0  0  0  0  0  0  0
   -0.5835    1.6283    0.2885 H   0  0  0  0  0  0  0  0  0  0  0  0
   -0.0588    0.8277    1.7825 H   0  0  0  0  0  0  0  0  0  0  0  0
  1  2  3  0
  2  3  1  0
  3  4  1  0
  4  5  2  0
  5  6  1  0
  6  7  1  0
  7  8  1  0
  7  9  1  0
  9  3  1  0
  1 10  1  0
  3 11  1  0
  4 12  1  0
  5 13  1  0
  6 14  1  0
  6 15  1  0
  7 16  1  0
  8 17  1  0
  9 18  1  0
  9 19  1  0
M  END
