
     RDKit          3D

 17 17  0  0  0  0  0  0  0  0999 V2000
    1.7429    2.4780   -0.0089 C   0  0  0  0  0  0  0  0  0  0  0  0
    0.8854    1.7694   -0.4895 C   0  0  0  0  0  0  0  0  0  0  0  0
   -0.1276    0.9317   -1.0786 C   0  0  0  0  0  0  0  0  0  0  0  0
   -1.3556    0.8582   -0.5067 O   0  0  0  0  0  0  0  0  0  0  0  0
   -0.5718   -0.2116   -0.1858 C   0  0  0  0  0  0  0  0  0  0  0  0
   -0.1267   -0.2046    1.2654 C   0  0  0  0  0  0  0  0  0  0  0  0
   -1.2560   -0.2516    2.1143 O   0  0  0  0  0  0  0  0  0  0  0  0
   -0.5977   -1.5372   -0.8613 C   0  0  0  0  0  0  0  0  0  0  0  0
    0.3420   -2.3579   -0.2068 O   0  0  0  0  0  0  0  0  0  0  0  0
    2.5170    3.1117    0.4098 H   0  0  0  0  0  0  0  0  0  0  0  0
   -0.0904    0.6829   -2.1698 H   0  0  0  0  0  0  0  0  0  0  0  0
    0.4842    0.6825    1.4821 H   0  0  0  0  0  0  0  0  0  0  0  0
    0.4517   -1.1277    1.4389 H   0  0  0  0  0  0  0  0  0  0  0  0
   -1.7636    0.5794    1.9541 H   0  0  0  0  0  0  0  0  0  0  0  0
   -0.1796   -1.4605   -1.9029 H   0  0  0  0  0  0  0  0  0  0  0  0
   -1.6002   -1.9782   -0.8449 H   0  0  0  0  0  0  0  0  0  0  0  0
    1.2460   -1.9645   -0.4094 H   0  0  0  0  0  0  0  0  0  0  0  0
  1  2  3  0
  2  3  1  0
  3  4  1  0
  4  5  1  0
  5  6  1  0
  6  7  1  0
  5  8  1  0
  8  9  1  0
  5  3  1  0
  1 10  1  0
  3 11  1  0
  6 12  1  0
  6 13  1  0
  7 14  1  0
  8 15  1  0
  8 16  1  0
  9 17  1  0
M  END
