
     RDKit          3D

 18 18  0  0  0  0  0  0  0  0999 V2000
    0.9330    2.8149    1.5124 C   0  0  0  0  0  0  0  0  0  0  0  0
    0.1266    1.0637    1.1900 C   0  0  0  0  0  0  0  0  0  0  0  0
   -0.4919   -0.2827    0.9421 C   0  0  0  0  0  0  0  0  0  0  0  0
   -1.8414    0.0096    0.2500 C   0  0  0  0  0  0  0  0  0  0  0  0
   -1.4207   -0.4679   -0.9533 O   0  0  0  0  0  0  0  0  0  0  0  0
   -0.1253   -0.4954   -0.7349 C   0  0  0  0  0  0  0  0  0  0  0  0
    0.9297    0.4343   -1.1197 C   0  0  0  0  0  0  0  0  0  0  0  0
    0.3930   -1.9750   -0.5280 C   0  0  0  0  0  0  0  0  0  0  0  0
    1.6298    4.3950    1.7946 H   0  0  0  0  0  0  0  0  0  0  0  0
   -0.1488   -1.1768    1.2249 H   0  0  0  0  0  0  0  0  0  0  0  0
   -2.6265   -0.6863    0.7362 H   0  0  0  0  0  0  0  0  0  0  0  0
   -2.2139    1.0276    0.4722 H   0  0  0  0  0  0  0  0  0  0  0  0
    1.8614   -0.0332   -1.5197 H   0  0  0  0  0  0  0  0  0  0  0  0
    0.6109    1.1406   -1.9438 H   0  0  0  0  0  0  0  0  0  0  0  0
    1.2016    1.0692   -0.2468 H   0  0  0  0  0  0  0  0  0  0  0  0
   -0.6058   -2.5140   -0.5150 H   0  0  0  0  0  0  0  0  0  0  0  0
    1.1038   -2.2518   -1.1441 H   0  0  0  0  0  0  0  0  0  0  0  0
    0.6847   -2.0719    0.5829 H   0  0  0  0  0  0  0  0  0  0  0  0
  1  2  3  0
  2  3  1  0
  3  4  1  0
  4  5  1  0
  5  6  1  0
  6  7  1  0
  6  8  1  0
  6  3  1  0
  1  9  1  0
  3 10  1  0
  4 11  1  0
  4 12  1  0
  7 13  1  0
  7 14  1  0
  7 15  1  0
  8 16  1  0
  8 17  1  0
  8 18  1  0
M  END
