
     RDKit          3D

 19 19  0  0  0  0  0  0  0  0999 V2000
   -0.4550    1.7564    2.1823 C   0  0  0  0  0  0  0  0  0  0  0  0
   -0.4494    1.0188    1.2260 C   0  0  0  0  0  0  0  0  0  0  0  0
   -0.4340    0.1432    0.0524 C   0  0  0  0  0  0  0  0  0  0  0  0
    0.8905    0.1159   -0.6964 C   0  0  0  0  0  0  0  0  0  0  0  0
    2.0130   -0.3718    0.2163 C   0  0  0  0  0  0  0  0  0  0  0  0
    1.1901    1.4522   -0.9817 O   0  0  0  0  0  0  0  0  0  0  0  0
   -1.6353    0.1505   -0.8708 C   0  0  0  0  0  0  0  0  0  0  0  0
   -1.3506   -1.0159    0.0110 C   0  0  0  0  0  0  0  0  0  0  0  0
   -0.9794   -2.2346   -0.5084 O   0  0  0  0  0  0  0  0  0  0  0  0
   -0.4514    2.3998    3.0439 H   0  0  0  0  0  0  0  0  0  0  0  0
    0.8099   -0.5030   -1.5987 H   0  0  0  0  0  0  0  0  0  0  0  0
    2.9544   -0.0475   -0.2642 H   0  0  0  0  0  0  0  0  0  0  0  0
    2.0075   -1.4901    0.1761 H   0  0  0  0  0  0  0  0  0  0  0  0
    1.8839   -0.0447    1.2471 H   0  0  0  0  0  0  0  0  0  0  0  0
    0.7743    1.6511   -1.8675 H   0  0  0  0  0  0  0  0  0  0  0  0
   -2.4332    0.8749   -0.5766 H   0  0  0  0  0  0  0  0  0  0  0  0
   -1.4875    0.0845   -1.9634 H   0  0  0  0  0  0  0  0  0  0  0  0
   -2.0365   -1.0992    0.8912 H   0  0  0  0  0  0  0  0  0  0  0  0
   -0.8112   -2.8405    0.2814 H   0  0  0  0  0  0  0  0  0  0  0  0
  1  2  3  0
  2  3  1  0
  3  4  1  0
  4  5  1  0
  4  6  1  0
  3  7  1  0
  7  8  1  0
  8  9  1  0
  8  3  1  0
  1 10  1  0
  4 11  1  0
  5 12  1  0
  5 13  1  0
  5 14  1  0
  6 15  1  0
  7 16  1  0
  7 17  1  0
  8 18  1  0
  9 19  1  0
M  END
