
     RDKit          3D

 18 19  0  0  0  0  0  0  0  0999 V2000
    3.5563    0.7970   -0.0909 C   0  0  0  0  0  0  0  0  0  0  0  0
    2.4390    0.4919    0.2362 C   0  0  0  0  0  0  0  0  0  0  0  0
    1.1095    0.1060    0.6367 C   0  0  0  0  0  0  0  0  0  0  0  0
    0.7237   -1.3216    0.3694 C   0  0  0  0  0  0  0  0  0  0  0  0
   -0.5866   -0.9398   -0.2295 C   0  0  0  0  0  0  0  0  0  0  0  0
   -1.3673    0.2267    0.1931 C   0  0  0  0  0  0  0  0  0  0  0  0
   -2.5720    0.5673   -0.6534 C   0  0  0  0  0  0  0  0  0  0  0  0
   -0.0087    0.5113   -0.3125 C   0  0  0  0  0  0  0  0  0  0  0  0
    4.5466    1.0488   -0.3812 H   0  0  0  0  0  0  0  0  0  0  0  0
    0.8219    0.4005    1.6814 H   0  0  0  0  0  0  0  0  0  0  0  0
    1.4266   -1.7607   -0.3870 H   0  0  0  0  0  0  0  0  0  0  0  0
    0.6997   -1.9897    1.2452 H   0  0  0  0  0  0  0  0  0  0  0  0
   -0.8303   -1.4209   -1.1830 H   0  0  0  0  0  0  0  0  0  0  0  0
   -1.5294    0.4796    1.2781 H   0  0  0  0  0  0  0  0  0  0  0  0
   -3.2313    1.3217   -0.1584 H   0  0  0  0  0  0  0  0  0  0  0  0
   -3.1740   -0.3643   -0.8144 H   0  0  0  0  0  0  0  0  0  0  0  0
   -2.2380    1.0150   -1.6162 H   0  0  0  0  0  0  0  0  0  0  0  0
    0.2144    0.8311   -1.3253 H   0  0  0  0  0  0  0  0  0  0  0  0
  1  2  3  0
  2  3  1  0
  3  4  1  0
  4  5  1  0
  5  6  1  0
  6  7  1  0
  6  8  1  0
  8  3  1  0
  8  5  1  0
  1  9  1  0
  3 10  1  0
  4 11  1  0
  4 12  1  0
  5 13  1  0
  6 14  1  0
  7 15  1  0
  7 16  1  0
  7 17  1  0
  8 18  1  0
M  END
