
     RDKit          3D

 17 16  0  0  0  0  0  0  0  0999 V2000
    3.1620   -0.4497    0.0991 C   0  0  0  0  0  0  0  0  0  0  0  0
    2.1847    0.2504    0.1825 C   0  0  0  0  0  0  0  0  0  0  0  0
    0.9878    1.1084    0.2797 C   0  0  0  0  0  0  0  0  0  0  0  0
    0.5784    1.4235   -1.0043 O   0  0  0  0  0  0  0  0  0  0  0  0
   -0.0481    0.3688    1.0444 C   0  0  0  0  0  0  0  0  0  0  0  0
    0.1217    0.0045    2.1871 O   0  0  0  0  0  0  0  0  0  0  0  0
   -1.3403    0.0685    0.3731 C   0  0  0  0  0  0  0  0  0  0  0  0
   -1.5228   -1.4517    0.3752 C   0  0  0  0  0  0  0  0  0  0  0  0
   -1.3901    0.5469   -0.9326 O   0  0  0  0  0  0  0  0  0  0  0  0
    4.0238   -1.0897    0.0251 H   0  0  0  0  0  0  0  0  0  0  0  0
    1.2193    2.0265    0.8816 H   0  0  0  0  0  0  0  0  0  0  0  0
    0.9323    0.7964   -1.6642 H   0  0  0  0  0  0  0  0  0  0  0  0
   -2.1825    0.5405    0.9529 H   0  0  0  0  0  0  0  0  0  0  0  0
   -2.1330   -1.7172    1.2813 H   0  0  0  0  0  0  0  0  0  0  0  0
   -0.5583   -1.9814    0.4395 H   0  0  0  0  0  0  0  0  0  0  0  0
   -2.0866   -1.7799   -0.5008 H   0  0  0  0  0  0  0  0  0  0  0  0
   -1.9483    1.3353   -1.0472 H   0  0  0  0  0  0  0  0  0  0  0  0
  1  2  3  0
  2  3  1  0
  3  4  1  0
  3  5  1  0
  5  6  2  0
  5  7  1  0
  7  8  1  0
  7  9  1  0
  1 10  1  0
  3 11  1  0
  4 12  1  0
  7 13  1  0
  8 14  1  0
  8 15  1  0
  8 16  1  0
  9 17  1  0
M  END
