
     RDKit          3D

 19 18  0  0  0  0  0  0  0  0999 V2000
   -2.3986    2.1384   -0.5560 C   0  0  0  0  0  0  0  0  0  0  0  0
   -2.0669    1.1314    0.0299 C   0  0  0  0  0  0  0  0  0  0  0  0
   -1.6630   -0.0978    0.7159 C   0  0  0  0  0  0  0  0  0  0  0  0
   -2.7168   -1.0015    0.5798 O   0  0  0  0  0  0  0  0  0  0  0  0
   -0.4542   -0.7089    0.0507 C   0  0  0  0  0  0  0  0  0  0  0  0
   -0.7105   -0.9419   -1.2886 O   0  0  0  0  0  0  0  0  0  0  0  0
    0.7913    0.1280    0.2593 C   0  0  0  0  0  0  0  0  0  0  0  0
    1.8517   -0.5574   -0.2878 O   0  0  0  0  0  0  0  0  0  0  0  0
    3.0667    0.0866   -0.1737 C   0  0  0  0  0  0  0  0  0  0  0  0
   -2.6820    3.0361   -1.0686 H   0  0  0  0  0  0  0  0  0  0  0  0
   -1.4362    0.1066    1.7877 H   0  0  0  0  0  0  0  0  0  0  0  0
   -2.4552   -1.8120    0.0823 H   0  0  0  0  0  0  0  0  0  0  0  0
   -0.2756   -1.6912    0.5386 H   0  0  0  0  0  0  0  0  0  0  0  0
   -0.7760   -1.9139   -1.4958 H   0  0  0  0  0  0  0  0  0  0  0  0
    0.9462    0.2712    1.3310 H   0  0  0  0  0  0  0  0  0  0  0  0
    0.6626    1.0757   -0.3117 H   0  0  0  0  0  0  0  0  0  0  0  0
    3.0722    1.0930   -0.6813 H   0  0  0  0  0  0  0  0  0  0  0  0
    3.4281    0.1850    0.8667 H   0  0  0  0  0  0  0  0  0  0  0  0
    3.8161   -0.5273   -0.7208 H   0  0  0  0  0  0  0  0  0  0  0  0
  1  2  3  0
  2  3  1  0
  3  4  1  0
  3  5  1  0
  5  6  1  0
  5  7  1  0
  7  8  1  0
  8  9  1  0
  1 10  1  0
  3 11  1  0
  4 12  1  0
  5 13  1  0
  6 14  1  0
  7 15  1  0
  7 16  1  0
  9 17  1  0
  9 18  1  0
  9 19  1  0
M  END
