
     RDKit          3D

 17 17  0  0  0  0  0  0  0  0999 V2000
    3.6136    0.2328   -0.5992 C   0  0  0  0  0  0  0  0  0  0  0  0
    2.4326    0.1414   -0.3876 C   0  0  0  0  0  0  0  0  0  0  0  0
    1.0368    0.0516   -0.1493 C   0  0  0  0  0  0  0  0  0  0  0  0
    0.4729   -1.1437   -0.0299 C   0  0  0  0  0  0  0  0  0  0  0  0
   -0.9256   -1.5606    0.2154 C   0  0  0  0  0  0  0  0  0  0  0  0
   -1.6864   -0.5483    0.7964 O   0  0  0  0  0  0  0  0  0  0  0  0
   -2.0552    0.4400   -0.0826 C   0  0  0  0  0  0  0  0  0  0  0  0
   -1.0356    1.5220   -0.0138 C   0  0  0  0  0  0  0  0  0  0  0  0
    0.2736    1.3147   -0.0452 C   0  0  0  0  0  0  0  0  0  0  0  0
    4.6418    0.3091   -0.7697 H   0  0  0  0  0  0  0  0  0  0  0  0
    1.1604   -1.9660   -0.1299 H   0  0  0  0  0  0  0  0  0  0  0  0
   -1.4262   -1.9626   -0.6888 H   0  0  0  0  0  0  0  0  0  0  0  0
   -0.8956   -2.3957    0.9604 H   0  0  0  0  0  0  0  0  0  0  0  0
   -3.0806    0.8225    0.0709 H   0  0  0  0  0  0  0  0  0  0  0  0
   -2.0328   -0.0105   -1.1139 H   0  0  0  0  0  0  0  0  0  0  0  0
   -1.3853    2.5558    0.0680 H   0  0  0  0  0  0  0  0  0  0  0  0
    0.8915    2.1975    0.0135 H   0  0  0  0  0  0  0  0  0  0  0  0
  1  2  3  0
  2  3  1  0
  3  4  2  0
  4  5  1  0
  5  6  1  0
  6  7  1  0
  7  8  1  0
  8  9  2  0
  9  3  1  0
  1 10  1  0
  4 11  1  0
  5 12  1  0
  5 13  1  0
  7 14  1  0
  7 15  1  0
  8 16  1  0
  9 17  1  0
M  END
