
     RDKit          3D

 15 15  0  0  0  0  0  0  0  0999 V2000
   -2.4341    1.2358    0.9064 C   0  0  0  0  0  0  0  0  0  0  0  0
   -1.8053    0.4353    0.6513 C   0  0  0  0  0  0  0  0  0  0  0  0
   -0.8672   -0.7469    0.2955 C   0  0  0  0  0  0  0  0  0  0  0  0
    0.2384   -0.4789    1.1157 O   0  0  0  0  0  0  0  0  0  0  0  0
   -0.4561   -0.6149   -1.1285 C   0  0  0  0  0  0  0  0  0  0  0  0
   -0.0873    0.7894   -1.4655 O   0  0  0  0  0  0  0  0  0  0  0  0
    0.9904   -0.4643   -1.4264 C   0  0  0  0  0  0  0  0  0  0  0  0
    1.9423   -0.0358   -0.7730 C   0  0  0  0  0  0  0  0  0  0  0  0
    3.0857    0.4980    0.0322 C   0  0  0  0  0  0  0  0  0  0  0  0
   -3.0893    2.0650    1.1523 H   0  0  0  0  0  0  0  0  0  0  0  0
   -1.2747   -1.6755    0.5724 H   0  0  0  0  0  0  0  0  0  0  0  0
    0.0044   -0.5014    2.0643 H   0  0  0  0  0  0  0  0  0  0  0  0
   -1.1698   -0.9070   -1.9001 H   0  0  0  0  0  0  0  0  0  0  0  0
    1.0566   -0.4779   -2.6519 H   0  0  0  0  0  0  0  0  0  0  0  0
    3.8660    0.8791    0.5977 H   0  0  0  0  0  0  0  0  0  0  0  0
  1  2  3  0
  2  3  1  0
  3  4  1  0
  3  5  1  0
  5  6  1  0
  6  7  1  0
  7  8  1  0
  8  9  3  0
  7  5  1  0
  1 10  1  0
  3 11  1  0
  4 12  1  0
  5 13  1  0
  7 14  1  0
  9 15  1  0
M  END
