
     RDKit          3D

 14 14  0  0  0  0  0  0  0  0999 V2000
   -0.4244    0.2242   -2.4662 C   0  0  0  0  0  0  0  0  0  0  0  0
   -0.2218    0.4845   -1.0813 C   0  0  0  0  0  0  0  0  0  0  0  0
   -0.0348    0.7139    0.0869 C   0  0  0  0  0  0  0  0  0  0  0  0
   -1.4111    0.6712    0.6616 C   0  0  0  0  0  0  0  0  0  0  0  0
   -2.6292    0.6528    1.1666 C   0  0  0  0  0  0  0  0  0  0  0  0
    0.7229   -0.2631    1.0221 C   0  0  0  0  0  0  0  0  0  0  0  0
    1.9812   -0.7773    0.9409 C   0  0  0  0  0  0  0  0  0  0  0  0
    0.8015   -1.6018    0.4772 O   0  0  0  0  0  0  0  0  0  0  0  0
   -0.5611    0.0182   -3.5103 H   0  0  0  0  0  0  0  0  0  0  0  0
    0.2593    1.7634    0.4549 H   0  0  0  0  0  0  0  0  0  0  0  0
   -3.7997    0.6257    1.6665 H   0  0  0  0  0  0  0  0  0  0  0  0
    0.1644   -0.3655    2.0106 H   0  0  0  0  0  0  0  0  0  0  0  0
    2.4214   -1.2186    1.9157 H   0  0  0  0  0  0  0  0  0  0  0  0
    2.7314   -0.9275    0.1167 H   0  0  0  0  0  0  0  0  0  0  0  0
  1  2  3  0
  2  3  1  0
  3  4  1  0
  4  5  3  0
  3  6  1  0
  6  7  1  0
  7  8  1  0
  8  6  1  0
  1  9  1  0
  3 10  1  0
  5 11  1  0
  6 12  1  0
  7 13  1  0
  7 14  1  0
M  END
