
     RDKit          3D

 21 21  0  0  0  0  0  0  0  0999 V2000
    1.8241    2.8247   -0.3782 C   0  0  0  0  0  0  0  0  0  0  0  0
    1.2485    1.7790   -0.5693 C   0  0  0  0  0  0  0  0  0  0  0  0
    0.5553    0.5166   -0.7746 C   0  0  0  0  0  0  0  0  0  0  0  0
    1.2968   -0.3435   -1.7805 C   0  0  0  0  0  0  0  0  0  0  0  0
    0.3813   -0.2588    0.5014 C   0  0  0  0  0  0  0  0  0  0  0  0
   -0.3461   -1.6029    0.2952 C   0  0  0  0  0  0  0  0  0  0  0  0
   -0.9235   -0.4802    1.1324 C   0  0  0  0  0  0  0  0  0  0  0  0
   -2.2216    0.0614    0.6572 C   0  0  0  0  0  0  0  0  0  0  0  0
   -0.9211   -0.7592    2.5190 O   0  0  0  0  0  0  0  0  0  0  0  0
    2.3535    3.7525   -0.1981 H   0  0  0  0  0  0  0  0  0  0  0  0
   -0.4218    0.7660   -1.2172 H   0  0  0  0  0  0  0  0  0  0  0  0
    2.3697   -0.0328   -1.7635 H   0  0  0  0  0  0  0  0  0  0  0  0
    0.9298   -0.2337   -2.7980 H   0  0  0  0  0  0  0  0  0  0  0  0
    1.1845   -1.4065   -1.4720 H   0  0  0  0  0  0  0  0  0  0  0  0
    1.2763   -0.3231    1.1494 H   0  0  0  0  0  0  0  0  0  0  0  0
    0.0511   -2.4931    0.8178 H   0  0  0  0  0  0  0  0  0  0  0  0
   -0.8223   -1.7780   -0.7145 H   0  0  0  0  0  0  0  0  0  0  0  0
   -2.6789    0.6776    1.4862 H   0  0  0  0  0  0  0  0  0  0  0  0
   -2.9680   -0.7388    0.4187 H   0  0  0  0  0  0  0  0  0  0  0  0
   -2.1582    0.7639   -0.1947 H   0  0  0  0  0  0  0  0  0  0  0  0
   -0.0095   -0.6911    2.8832 H   0  0  0  0  0  0  0  0  0  0  0  0
  1  2  3  0
  2  3  1  0
  3  4  1  0
  3  5  1  0
  5  6  1  0
  6  7  1  0
  7  8  1  0
  7  9  1  0
  7  5  1  0
  1 10  1  0
  3 11  1  0
  4 12  1  0
  4 13  1  0
  4 14  1  0
  5 15  1  0
  6 16  1  0
  6 17  1  0
  8 18  1  0
  8 19  1  0
  8 20  1  0
  9 21  1  0
M  END
