
     RDKit          3D

 19 19  0  0  0  0  0  0  0  0999 V2000
    3.0334    0.4237   -1.3246 C   0  0  0  0  0  0  0  0  0  0  0  0
    1.8115    0.5553   -1.1060 C   0  0  0  0  0  0  0  0  0  0  0  0
    0.3883    0.7185   -0.8750 C   0  0  0  0  0  0  0  0  0  0  0  0
   -0.6073   -0.0772   -1.6055 C   0  0  0  0  0  0  0  0  0  0  0  0
   -0.3429   -0.3093   -0.1047 C   0  0  0  0  0  0  0  0  0  0  0  0
    0.3285   -1.5470    0.2687 C   0  0  0  0  0  0  0  0  0  0  0  0
    0.8906   -2.5862    0.5603 C   0  0  0  0  0  0  0  0  0  0  0  0
   -1.4561    0.0975    0.8266 C   0  0  0  0  0  0  0  0  0  0  0  0
   -0.9765    1.0340    1.9096 C   0  0  0  0  0  0  0  0  0  0  0  0
    4.0459    0.3195   -1.4881 H   0  0  0  0  0  0  0  0  0  0  0  0
    0.0937    1.7951   -0.7163 H   0  0  0  0  0  0  0  0  0  0  0  0
   -1.5980    0.3624   -1.8768 H   0  0  0  0  0  0  0  0  0  0  0  0
   -0.2258   -0.8888   -2.2882 H   0  0  0  0  0  0  0  0  0  0  0  0
    1.3943   -3.4876    0.8081 H   0  0  0  0  0  0  0  0  0  0  0  0
   -2.3111    0.5807    0.3129 H   0  0  0  0  0  0  0  0  0  0  0  0
   -1.8639   -0.8231    1.3483 H   0  0  0  0  0  0  0  0  0  0  0  0
   -0.7036    0.4549    2.8163 H   0  0  0  0  0  0  0  0  0  0  0  0
   -0.1164    1.6487    1.5179 H   0  0  0  0  0  0  0  0  0  0  0  0
   -1.7846    1.7290    2.1450 H   0  0  0  0  0  0  0  0  0  0  0  0
  1  2  3  0
  2  3  1  0
  3  4  1  0
  4  5  1  0
  5  6  1  0
  6  7  3  0
  5  8  1  0
  8  9  1  0
  5  3  1  0
  1 10  1  0
  3 11  1  0
  4 12  1  0
  4 13  1  0
  7 14  1  0
  8 15  1  0
  8 16  1  0
  9 17  1  0
  9 18  1  0
  9 19  1  0
M  END
