
     RDKit          3D

 17 17  0  0  0  0  0  0  0  0999 V2000
    2.7244    0.4614    0.9107 C   0  0  0  0  0  0  0  0  0  0  0  0
    1.9236    0.1253    0.1969 C   0  0  0  0  0  0  0  0  0  0  0  0
    1.0103   -0.2696   -0.6469 C   0  0  0  0  0  0  0  0  0  0  0  0
    0.5556   -1.8381   -0.0525 C   0  0  0  0  0  0  0  0  0  0  0  0
   -0.2700   -1.1160    0.8084 O   0  0  0  0  0  0  0  0  0  0  0  0
   -0.5076   -0.2466   -0.2667 C   0  0  0  0  0  0  0  0  0  0  0  0
   -0.9034    1.1438    0.0775 C   0  0  0  0  0  0  0  0  0  0  0  0
   -2.3798    1.1991    0.1748 C   0  0  0  0  0  0  0  0  0  0  0  0
   -3.0532    0.1978    0.2135 O   0  0  0  0  0  0  0  0  0  0  0  0
    3.4576    0.7818    1.5563 H   0  0  0  0  0  0  0  0  0  0  0  0
    1.1395   -0.4949   -1.7323 H   0  0  0  0  0  0  0  0  0  0  0  0
    0.0147   -2.4872   -0.8054 H   0  0  0  0  0  0  0  0  0  0  0  0
    1.4560   -2.2958    0.3630 H   0  0  0  0  0  0  0  0  0  0  0  0
   -1.1757   -0.6849   -1.0293 H   0  0  0  0  0  0  0  0  0  0  0  0
   -0.4374    1.5672    0.9894 H   0  0  0  0  0  0  0  0  0  0  0  0
   -0.6479    1.7958   -0.7922 H   0  0  0  0  0  0  0  0  0  0  0  0
   -2.9067    2.1608    0.2091 H   0  0  0  0  0  0  0  0  0  0  0  0
  1  2  3  0
  2  3  1  0
  3  4  1  0
  4  5  1  0
  5  6  1  0
  6  7  1  0
  7  8  1  0
  8  9  2  0
  6  3  1  0
  1 10  1  0
  3 11  1  0
  4 12  1  0
  4 13  1  0
  6 14  1  0
  7 15  1  0
  7 16  1  0
  8 17  1  0
M  END
