
     RDKit          3D

 20 19  0  0  0  0  0  0  0  0999 V2000
    0.3284    2.6250   -0.7369 C   0  0  0  0  0  0  0  0  0  0  0  0
    0.3740    1.4204   -0.7337 C   0  0  0  0  0  0  0  0  0  0  0  0
    0.4346   -0.0522   -0.7460 C   0  0  0  0  0  0  0  0  0  0  0  0
    1.1243   -0.4541   -1.9415 O   0  0  0  0  0  0  0  0  0  0  0  0
    1.2855   -0.5472    0.3684 C   0  0  0  0  0  0  0  0  0  0  0  0
    0.8504   -0.1672    1.7411 C   0  0  0  0  0  0  0  0  0  0  0  0
   -0.9035   -0.6939   -0.8112 C   0  0  0  0  0  0  0  0  0  0  0  0
   -1.8415   -0.3704    0.3135 C   0  0  0  0  0  0  0  0  0  0  0  0
    0.3026    3.7007   -0.7501 H   0  0  0  0  0  0  0  0  0  0  0  0
    0.5818   -0.1035   -2.7134 H   0  0  0  0  0  0  0  0  0  0  0  0
    2.3587   -0.2132    0.2342 H   0  0  0  0  0  0  0  0  0  0  0  0
    1.3601   -1.6691    0.3059 H   0  0  0  0  0  0  0  0  0  0  0  0
    0.0791    0.6106    1.7956 H   0  0  0  0  0  0  0  0  0  0  0  0
    0.4710   -1.0594    2.3238 H   0  0  0  0  0  0  0  0  0  0  0  0
    1.7245    0.2347    2.3243 H   0  0  0  0  0  0  0  0  0  0  0  0
   -1.3891   -0.5085   -1.8085 H   0  0  0  0  0  0  0  0  0  0  0  0
   -0.7590   -1.8146   -0.8044 H   0  0  0  0  0  0  0  0  0  0  0  0
   -1.6128   -0.9656    1.1945 H   0  0  0  0  0  0  0  0  0  0  0  0
   -2.8643   -0.7019   -0.0596 H   0  0  0  0  0  0  0  0  0  0  0  0
   -1.9047    0.7294    0.5038 H   0  0  0  0  0  0  0  0  0  0  0  0
  1  2  3  0
  2  3  1  0
  3  4  1  0
  3  5  1  0
  5  6  1  0
  3  7  1  0
  7  8  1  0
  1  9  1  0
  4 10  1  0
  5 11  1  0
  5 12  1  0
  6 13  1  0
  6 14  1  0
  6 15  1  0
  7 16  1  0
  7 17  1  0
  8 18  1  0
  8 19  1  0
  8 20  1  0
M  END
