
     RDKit          3D

 17 17  0  0  0  0  0  0  0  0999 V2000
   -2.0413    1.7449    0.8955 C   0  0  0  0  0  0  0  0  0  0  0  0
   -1.6908    0.5865    0.7451 C   0  0  0  0  0  0  0  0  0  0  0  0
   -1.2473   -0.7943    0.5717 C   0  0  0  0  0  0  0  0  0  0  0  0
   -0.4878   -1.2874    1.7357 C   0  0  0  0  0  0  0  0  0  0  0  0
   -0.6458   -1.3793    2.9610 O   0  0  0  0  0  0  0  0  0  0  0  0
    0.5389   -1.6296    0.8609 O   0  0  0  0  0  0  0  0  0  0  0  0
    0.0202   -0.9289   -0.2611 C   0  0  0  0  0  0  0  0  0  0  0  0
    0.6462    0.4251   -0.4515 C   0  0  0  0  0  0  0  0  0  0  0  0
    1.9055    0.3780   -1.2655 C   0  0  0  0  0  0  0  0  0  0  0  0
   -2.3389    2.7554    1.0434 H   0  0  0  0  0  0  0  0  0  0  0  0
   -2.0638   -1.4753    0.2899 H   0  0  0  0  0  0  0  0  0  0  0  0
   -0.1107   -1.5488   -1.1491 H   0  0  0  0  0  0  0  0  0  0  0  0
   -0.0675    1.0970   -0.9483 H   0  0  0  0  0  0  0  0  0  0  0  0
    0.9073    0.8127    0.5574 H   0  0  0  0  0  0  0  0  0  0  0  0
    2.6312   -0.3684   -0.9038 H   0  0  0  0  0  0  0  0  0  0  0  0
    1.6489    0.2398   -2.3402 H   0  0  0  0  0  0  0  0  0  0  0  0
    2.3956    1.3726   -1.1718 H   0  0  0  0  0  0  0  0  0  0  0  0
  1  2  3  0
  2  3  1  0
  3  4  1  0
  4  5  2  0
  4  6  1  0
  6  7  1  0
  7  8  1  0
  8  9  1  0
  7  3  1  0
  1 10  1  0
  3 11  1  0
  7 12  1  0
  8 13  1  0
  8 14  1  0
  9 15  1  0
  9 16  1  0
  9 17  1  0
M  END
