
     RDKit          3D

 15 16  0  0  0  0  0  0  0  0999 V2000
   -0.8697    2.4316   -0.2906 C   0  0  0  0  0  0  0  0  0  0  0  0
   -0.6783    1.2640   -0.0562 C   0  0  0  0  0  0  0  0  0  0  0  0
   -0.4412   -0.1294    0.2099 C   0  0  0  0  0  0  0  0  0  0  0  0
   -1.5008   -1.1445    0.0019 C   0  0  0  0  0  0  0  0  0  0  0  0
   -0.4025   -1.1024   -0.9900 C   0  0  0  0  0  0  0  0  0  0  0  0
    0.9035   -1.3748   -0.6396 O   0  0  0  0  0  0  0  0  0  0  0  0
    0.9408   -0.6408    0.5196 C   0  0  0  0  0  0  0  0  0  0  0  0
    1.9815    0.3783    0.6405 C   0  0  0  0  0  0  0  0  0  0  0  0
    2.7776    0.5600   -0.2570 O   0  0  0  0  0  0  0  0  0  0  0  0
   -1.0238    3.4586   -0.5074 H   0  0  0  0  0  0  0  0  0  0  0  0
   -1.5807   -1.9232    0.7658 H   0  0  0  0  0  0  0  0  0  0  0  0
   -2.4752   -0.7543   -0.3566 H   0  0  0  0  0  0  0  0  0  0  0  0
   -0.5522   -0.6599   -1.9711 H   0  0  0  0  0  0  0  0  0  0  0  0
    0.8677   -1.3441    1.4008 H   0  0  0  0  0  0  0  0  0  0  0  0
    2.0533    0.9808    1.5301 H   0  0  0  0  0  0  0  0  0  0  0  0
  1  2  3  0
  2  3  1  0
  3  4  1  0
  4  5  1  0
  5  6  1  0
  6  7  1  0
  7  8  1  0
  8  9  2  0
  5  3  1  0
  7  3  1  0
  1 10  1  0
  4 11  1  0
  4 12  1  0
  5 13  1  0
  7 14  1  0
  8 15  1  0
M  END
