
     RDKit          3D

 19 19  0  0  0  0  0  0  0  0999 V2000
   -0.1858    2.4732    1.0489 C   0  0  0  0  0  0  0  0  0  0  0  0
    0.1806    1.3565    0.5451 C   0  0  0  0  0  0  0  0  0  0  0  0
    0.5886    0.0756   -0.0181 C   0  0  0  0  0  0  0  0  0  0  0  0
    1.4895   -0.8118    0.5004 C   0  0  0  0  0  0  0  0  0  0  0  0
    1.2776   -1.4207    1.7930 O   0  0  0  0  0  0  0  0  0  0  0  0
    0.1677    0.0953   -1.5066 C   0  0  0  0  0  0  0  0  0  0  0  0
   -1.1106    0.8110   -1.3796 C   0  0  0  0  0  0  0  0  0  0  0  0
   -1.7242    0.2511   -0.2942 C   0  0  0  0  0  0  0  0  0  0  0  0
   -0.9140   -0.7575    0.3448 C   0  0  0  0  0  0  0  0  0  0  0  0
   -0.5147    3.4789    1.4911 H   0  0  0  0  0  0  0  0  0  0  0  0
    1.1503   -1.8914   -0.1267 H   0  0  0  0  0  0  0  0  0  0  0  0
    2.5354   -0.9654    0.1886 H   0  0  0  0  0  0  0  0  0  0  0  0
    1.9982   -2.0741    1.8974 H   0  0  0  0  0  0  0  0  0  0  0  0
    0.9581    0.4890   -2.0853 H   0  0  0  0  0  0  0  0  0  0  0  0
   -0.0115   -1.0096   -1.7751 H   0  0  0  0  0  0  0  0  0  0  0  0
   -1.5641    1.6943   -1.9119 H   0  0  0  0  0  0  0  0  0  0  0  0
   -2.7266    0.5664   -0.0561 H   0  0  0  0  0  0  0  0  0  0  0  0
   -0.7460   -1.7077   -0.0767 H   0  0  0  0  0  0  0  0  0  0  0  0
   -0.8486   -0.6532    1.4212 H   0  0  0  0  0  0  0  0  0  0  0  0
  1  2  3  0
  2  3  1  0
  3  4  1  0
  4  5  1  0
  3  6  1  0
  6  7  1  0
  7  8  2  0
  8  9  1  0
  9  3  1  0
  1 10  1  0
  4 11  1  0
  4 12  1  0
  5 13  1  0
  6 14  1  0
  6 15  1  0
  7 16  1  0
  8 17  1  0
  9 18  1  0
  9 19  1  0
M  END
