
     RDKit          3D

 19 18  0  0  0  0  0  0  0  0999 V2000
    4.1590    1.8918   -0.0062 C   0  0  0  0  0  0  0  0  0  0  0  0
    2.7875    1.0724   -0.1240 C   0  0  0  0  0  0  0  0  0  0  0  0
    1.6890    0.4383   -0.2114 C   0  0  0  0  0  0  0  0  0  0  0  0
    0.3574    0.8363    0.3303 C   0  0  0  0  0  0  0  0  0  0  0  0
   -0.5170   -0.1084   -0.7203 C   0  0  0  0  0  0  0  0  0  0  0  0
   -0.4979    0.4381   -1.7470 O   0  0  0  0  0  0  0  0  0  0  0  0
   -1.0854   -1.3124   -0.1625 C   0  0  0  0  0  0  0  0  0  0  0  0
   -2.3209   -0.8892    0.6516 C   0  0  0  0  0  0  0  0  0  0  0  0
   -3.1617   -0.0461   -0.0994 O   0  0  0  0  0  0  0  0  0  0  0  0
    4.8722    2.3240    0.0673 H   0  0  0  0  0  0  0  0  0  0  0  0
    1.9215   -0.5689    0.5904 H   0  0  0  0  0  0  0  0  0  0  0  0
    1.5681   -0.2548   -1.1438 H   0  0  0  0  0  0  0  0  0  0  0  0
    0.0756    1.8403   -0.0119 H   0  0  0  0  0  0  0  0  0  0  0  0
    0.1594    0.5266    1.3214 H   0  0  0  0  0  0  0  0  0  0  0  0
   -1.4462   -1.9588   -1.0176 H   0  0  0  0  0  0  0  0  0  0  0  0
   -0.4528   -1.8417    0.5376 H   0  0  0  0  0  0  0  0  0  0  0  0
   -2.0525   -0.4447    1.5806 H   0  0  0  0  0  0  0  0  0  0  0  0
   -2.9855   -1.8095    0.8193 H   0  0  0  0  0  0  0  0  0  0  0  0
   -3.0698   -0.1333   -1.0674 H   0  0  0  0  0  0  0  0  0  0  0  0
  1  2  3  0
  2  3  1  0
  3  4  1  0
  4  5  1  0
  5  6  2  0
  5  7  1  0
  7  8  1  0
  8  9  1  0
  1 10  1  0
  3 11  1  0
  3 12  1  0
  4 13  1  0
  4 14  1  0
  7 15  1  0
  7 16  1  0
  8 17  1  0
  8 18  1  0
  9 19  1  0
M  END
