
     RDKit          3D

 20 19  0  0  0  0  0  0  0  0999 V2000
    2.1581    1.8146    1.1895 C   0  0  0  0  0  0  0  0  0  0  0  0
    1.0828    1.6500    0.6913 C   0  0  0  0  0  0  0  0  0  0  0  0
   -0.2652    1.4347    0.0930 C   0  0  0  0  0  0  0  0  0  0  0  0
   -0.0721    0.5593   -1.0829 C   0  0  0  0  0  0  0  0  0  0  0  0
    0.8086    1.1615   -2.0086 O   0  0  0  0  0  0  0  0  0  0  0  0
    0.2890   -0.8453   -0.8526 C   0  0  0  0  0  0  0  0  0  0  0  0
   -0.6594   -1.7024   -0.0770 C   0  0  0  0  0  0  0  0  0  0  0  0
   -0.9078   -1.3200    1.3378 C   0  0  0  0  0  0  0  0  0  0  0  0
    3.1155    1.9697    1.6317 H   0  0  0  0  0  0  0  0  0  0  0  0
   -1.0033    1.0985    0.7848 H   0  0  0  0  0  0  0  0  0  0  0  0
   -0.5559    2.4899   -0.2311 H   0  0  0  0  0  0  0  0  0  0  0  0
   -1.0822    0.5616   -1.6499 H   0  0  0  0  0  0  0  0  0  0  0  0
    0.3056    1.6840   -2.6919 H   0  0  0  0  0  0  0  0  0  0  0  0
    0.3746   -1.3447   -1.8827 H   0  0  0  0  0  0  0  0  0  0  0  0
    1.3382   -0.9126   -0.4369 H   0  0  0  0  0  0  0  0  0  0  0  0
   -1.6594   -1.6197   -0.6164 H   0  0  0  0  0  0  0  0  0  0  0  0
   -0.3122   -2.7825   -0.1680 H   0  0  0  0  0  0  0  0  0  0  0  0
   -0.9770   -2.3197    1.9143 H   0  0  0  0  0  0  0  0  0  0  0  0
   -1.8985   -0.8527    1.4573 H   0  0  0  0  0  0  0  0  0  0  0  0
   -0.0795   -0.7242    1.8130 H   0  0  0  0  0  0  0  0  0  0  0  0
  1  2  3  0
  2  3  1  0
  3  4  1  0
  4  5  1  0
  4  6  1  0
  6  7  1  0
  7  8  1  0
  1  9  1  0
  3 10  1  0
  3 11  1  0
  4 12  1  0
  5 13  1  0
  6 14  1  0
  6 15  1  0
  7 16  1  0
  7 17  1  0
  8 18  1  0
  8 19  1  0
  8 20  1  0
M  END
