
     RDKit          3D

 17 19  0  0  0  0  0  0  0  0999 V2000
    3.0509   -0.9657    0.9319 C   0  0  0  0  0  0  0  0  0  0  0  0
    2.0916   -0.6830    0.2619 C   0  0  0  0  0  0  0  0  0  0  0  0
    0.9168   -0.3198   -0.5382 C   0  0  0  0  0  0  0  0  0  0  0  0
    0.8358    0.9282   -1.2814 C   0  0  0  0  0  0  0  0  0  0  0  0
    0.1171    0.9136    0.0074 C   0  0  0  0  0  0  0  0  0  0  0  0
   -0.9912   -0.0519    0.2962 C   0  0  0  0  0  0  0  0  0  0  0  0
   -2.4078    0.3821    0.3858 C   0  0  0  0  0  0  0  0  0  0  0  0
   -0.6354   -1.2193    1.0852 O   0  0  0  0  0  0  0  0  0  0  0  0
   -0.3719   -1.1071   -0.2778 C   0  0  0  0  0  0  0  0  0  0  0  0
    3.9018   -1.1974    1.5207 H   0  0  0  0  0  0  0  0  0  0  0  0
    1.7288    1.5588   -1.3363 H   0  0  0  0  0  0  0  0  0  0  0  0
    0.2622    0.9152   -2.2448 H   0  0  0  0  0  0  0  0  0  0  0  0
    0.5913    1.4267    0.8749 H   0  0  0  0  0  0  0  0  0  0  0  0
   -2.5769    1.4516    0.3018 H   0  0  0  0  0  0  0  0  0  0  0  0
   -2.9993   -0.1918   -0.3764 H   0  0  0  0  0  0  0  0  0  0  0  0
   -2.8220    0.0258    1.3731 H   0  0  0  0  0  0  0  0  0  0  0  0
   -0.6919   -1.8659   -0.9841 H   0  0  0  0  0  0  0  0  0  0  0  0
  1  2  3  0
  2  3  1  0
  3  4  1  0
  4  5  1  0
  5  6  1  0
  6  7  1  0
  6  8  1  0
  8  9  1  0
  5  3  1  0
  9  6  1  0
  9  3  1  0
  1 10  1  0
  4 11  1  0
  4 12  1  0
  5 13  1  0
  7 14  1  0
  7 15  1  0
  7 16  1  0
  9 17  1  0
M  END
