
     RDKit          3D

 19 18  0  0  0  0  0  0  0  0999 V2000
   -1.2893    2.5255   -0.0978 C   0  0  0  0  0  0  0  0  0  0  0  0
   -1.0648    1.3428   -0.0076 C   0  0  0  0  0  0  0  0  0  0  0  0
   -0.8163   -0.0975    0.0954 C   0  0  0  0  0  0  0  0  0  0  0  0
   -1.7560   -0.6656    1.1246 C   0  0  0  0  0  0  0  0  0  0  0  0
   -1.0547   -0.6820   -1.2402 C   0  0  0  0  0  0  0  0  0  0  0  0
   -1.8800   -1.5641   -1.3456 O   0  0  0  0  0  0  0  0  0  0  0  0
    0.6388   -0.3664    0.4591 C   0  0  0  0  0  0  0  0  0  0  0  0
    1.4111    0.1867   -0.5580 O   0  0  0  0  0  0  0  0  0  0  0  0
    2.7765   -0.0012   -0.3287 C   0  0  0  0  0  0  0  0  0  0  0  0
   -1.4803    3.5820   -0.1631 H   0  0  0  0  0  0  0  0  0  0  0  0
   -1.4249   -1.6657    1.4309 H   0  0  0  0  0  0  0  0  0  0  0  0
   -1.8089    0.0251    1.9991 H   0  0  0  0  0  0  0  0  0  0  0  0
   -2.7516   -0.7734    0.6330 H   0  0  0  0  0  0  0  0  0  0  0  0
   -0.5262   -0.3522   -2.1029 H   0  0  0  0  0  0  0  0  0  0  0  0
    0.7991   -1.4546    0.4521 H   0  0  0  0  0  0  0  0  0  0  0  0
    0.9055    0.0958    1.4376 H   0  0  0  0  0  0  0  0  0  0  0  0
    3.0223    0.4929    0.6313 H   0  0  0  0  0  0  0  0  0  0  0  0
    3.2976    0.4699   -1.1962 H   0  0  0  0  0  0  0  0  0  0  0  0
    3.0020   -1.0978   -0.2869 H   0  0  0  0  0  0  0  0  0  0  0  0
  1  2  3  0
  2  3  1  0
  3  4  1  0
  3  5  1  0
  5  6  2  0
  3  7  1  0
  7  8  1  0
  8  9  1  0
  1 10  1  0
  4 11  1  0
  4 12  1  0
  4 13  1  0
  5 14  1  0
  7 15  1  0
  7 16  1  0
  9 17  1  0
  9 18  1  0
  9 19  1  0
M  END
