
     RDKit          3D

 21 20  0  0  0  0  0  0  0  0999 V2000
    1.6030   -2.6519   -1.0584 C   0  0  0  0  0  0  0  0  0  0  0  0
    1.2967   -1.4984   -0.7621 C   0  0  0  0  0  0  0  0  0  0  0  0
    0.9586   -0.1400   -0.4275 C   0  0  0  0  0  0  0  0  0  0  0  0
    0.9302    0.0163    1.0682 C   0  0  0  0  0  0  0  0  0  0  0  0
    0.5881    1.3257    1.4374 O   0  0  0  0  0  0  0  0  0  0  0  0
    0.5689    1.4255    2.8226 C   0  0  0  0  0  0  0  0  0  0  0  0
   -0.3352    0.2668   -1.0814 C   0  0  0  0  0  0  0  0  0  0  0  0
   -1.3984   -0.5152   -0.6967 O   0  0  0  0  0  0  0  0  0  0  0  0
   -2.5419   -0.0746   -1.3529 C   0  0  0  0  0  0  0  0  0  0  0  0
    1.8807   -3.6670   -1.3374 H   0  0  0  0  0  0  0  0  0  0  0  0
    1.7524    0.5171   -0.8911 H   0  0  0  0  0  0  0  0  0  0  0  0
    0.3071   -0.7561    1.5118 H   0  0  0  0  0  0  0  0  0  0  0  0
    1.9870   -0.1857    1.4219 H   0  0  0  0  0  0  0  0  0  0  0  0
   -0.1647    0.7311    3.2981 H   0  0  0  0  0  0  0  0  0  0  0  0
    0.3879    2.4619    3.1563 H   0  0  0  0  0  0  0  0  0  0  0  0
    1.5867    1.1284    3.2180 H   0  0  0  0  0  0  0  0  0  0  0  0
   -0.5757    1.3394   -1.0074 H   0  0  0  0  0  0  0  0  0  0  0  0
   -0.2133    0.0868   -2.1947 H   0  0  0  0  0  0  0  0  0  0  0  0
   -2.3969   -0.1518   -2.4703 H   0  0  0  0  0  0  0  0  0  0  0  0
   -3.4453   -0.6504   -1.0642 H   0  0  0  0  0  0  0  0  0  0  0  0
   -2.7762    0.9922   -1.1716 H   0  0  0  0  0  0  0  0  0  0  0  0
  1  2  3  0
  2  3  1  0
  3  4  1  0
  4  5  1  0
  5  6  1  0
  3  7  1  0
  7  8  1  0
  8  9  1  0
  1 10  1  0
  3 11  1  0
  4 12  1  0
  4 13  1  0
  6 14  1  0
  6 15  1  0
  6 16  1  0
  7 17  1  0
  7 18  1  0
  9 19  1  0
  9 20  1  0
  9 21  1  0
M  END
