
     RDKit          3D

 21 21  0  0  0  0  0  0  0  0999 V2000
   -0.1425    2.7629   -0.3587 C   0  0  0  0  0  0  0  0  0  0  0  0
    0.1529    1.6047   -0.1942 C   0  0  0  0  0  0  0  0  0  0  0  0
    0.5110    0.2029    0.0296 C   0  0  0  0  0  0  0  0  0  0  0  0
   -0.6855   -0.6986    0.2823 C   0  0  0  0  0  0  0  0  0  0  0  0
   -1.6080   -0.6506   -0.9169 C   0  0  0  0  0  0  0  0  0  0  0  0
   -1.4646   -0.2708    1.4894 C   0  0  0  0  0  0  0  0  0  0  0  0
    1.5247   -0.3644   -0.9218 C   0  0  0  0  0  0  0  0  0  0  0  0
    2.4630   -0.3454    0.2511 C   0  0  0  0  0  0  0  0  0  0  0  0
    1.4330    0.1325    1.0838 O   0  0  0  0  0  0  0  0  0  0  0  0
   -0.3895    3.7978   -0.5089 H   0  0  0  0  0  0  0  0  0  0  0  0
   -0.3164   -1.7282    0.4059 H   0  0  0  0  0  0  0  0  0  0  0  0
   -2.1893    0.3024   -0.9443 H   0  0  0  0  0  0  0  0  0  0  0  0
   -0.9959   -0.6708   -1.8210 H   0  0  0  0  0  0  0  0  0  0  0  0
   -2.3296   -1.5012   -0.8468 H   0  0  0  0  0  0  0  0  0  0  0  0
   -0.8274    0.1212    2.2958 H   0  0  0  0  0  0  0  0  0  0  0  0
   -2.2538    0.4673    1.1715 H   0  0  0  0  0  0  0  0  0  0  0  0
   -2.0254   -1.1640    1.8685 H   0  0  0  0  0  0  0  0  0  0  0  0
    1.8061    0.3650   -1.7133 H   0  0  0  0  0  0  0  0  0  0  0  0
    1.2930   -1.3476   -1.3497 H   0  0  0  0  0  0  0  0  0  0  0  0
    3.2887    0.3755    0.1853 H   0  0  0  0  0  0  0  0  0  0  0  0
    2.7556   -1.3907    0.5122 H   0  0  0  0  0  0  0  0  0  0  0  0
  1  2  3  0
  2  3  1  0
  3  4  1  0
  4  5  1  0
  4  6  1  0
  3  7  1  0
  7  8  1  0
  8  9  1  0
  9  3  1  0
  1 10  1  0
  4 11  1  0
  5 12  1  0
  5 13  1  0
  5 14  1  0
  6 15  1  0
  6 16  1  0
  6 17  1  0
  7 18  1  0
  7 19  1  0
  8 20  1  0
  8 21  1  0
M  END
