
     RDKit          3D

 23 22  0  0  0  0  0  0  0  0999 V2000
   -1.8146    1.9846   -1.2253 C   0  0  0  0  0  0  0  0  0  0  0  0
   -1.3338    0.9984   -0.7245 C   0  0  0  0  0  0  0  0  0  0  0  0
   -0.7604   -0.2023   -0.0915 C   0  0  0  0  0  0  0  0  0  0  0  0
   -1.4360   -0.3609    1.2411 C   0  0  0  0  0  0  0  0  0  0  0  0
   -1.0717   -1.4270   -0.9221 C   0  0  0  0  0  0  0  0  0  0  0  0
    0.7241   -0.0719    0.0039 C   0  0  0  0  0  0  0  0  0  0  0  0
    1.2644   -1.3240    0.6579 C   0  0  0  0  0  0  0  0  0  0  0  0
    1.1528    1.0078    0.7515 O   0  0  0  0  0  0  0  0  0  0  0  0
    1.9781    1.8000   -0.0385 C   0  0  0  0  0  0  0  0  0  0  0  0
   -2.2275    2.8744   -1.6716 H   0  0  0  0  0  0  0  0  0  0  0  0
   -1.1264   -1.2578    1.7955 H   0  0  0  0  0  0  0  0  0  0  0  0
   -2.5428   -0.3673    1.0361 H   0  0  0  0  0  0  0  0  0  0  0  0
   -1.2704    0.5279    1.8949 H   0  0  0  0  0  0  0  0  0  0  0  0
   -0.1787   -1.8389   -1.4326 H   0  0  0  0  0  0  0  0  0  0  0  0
   -1.6166   -2.2072   -0.3306 H   0  0  0  0  0  0  0  0  0  0  0  0
   -1.7851   -1.1320   -1.7293 H   0  0  0  0  0  0  0  0  0  0  0  0
    1.1314   -0.0501   -1.0256 H   0  0  0  0  0  0  0  0  0  0  0  0
    1.2287   -1.2540    1.7673 H   0  0  0  0  0  0  0  0  0  0  0  0
    0.7123   -2.2295    0.3636 H   0  0  0  0  0  0  0  0  0  0  0  0
    2.3306   -1.5034    0.4011 H   0  0  0  0  0  0  0  0  0  0  0  0
    2.3025    2.6514    0.5867 H   0  0  0  0  0  0  0  0  0  0  0  0
    1.4703    2.1501   -0.9585 H   0  0  0  0  0  0  0  0  0  0  0  0
    2.8691    1.2318   -0.3495 H   0  0  0  0  0  0  0  0  0  0  0  0
  1  2  3  0
  2  3  1  0
  3  4  1  0
  3  5  1  0
  3  6  1  0
  6  7  1  0
  6  8  1  0
  8  9  1  0
  1 10  1  0
  4 11  1  0
  4 12  1  0
  4 13  1  0
  5 14  1  0
  5 15  1  0
  5 16  1  0
  6 17  1  0
  7 18  1  0
  7 19  1  0
  7 20  1  0
  9 21  1  0
  9 22  1  0
  9 23  1  0
M  END
