
     RDKit          3D

 17 16  0  0  0  0  0  0  0  0999 V2000
   -3.3411    0.5732    0.4622 C   0  0  0  0  0  0  0  0  0  0  0  0
   -2.2606    0.4502   -0.0653 C   0  0  0  0  0  0  0  0  0  0  0  0
   -0.9349    0.3252   -0.7137 C   0  0  0  0  0  0  0  0  0  0  0  0
   -0.3786    1.6804   -0.9597 C   0  0  0  0  0  0  0  0  0  0  0  0
    0.2104    1.8992   -2.0017 O   0  0  0  0  0  0  0  0  0  0  0  0
   -0.0387   -0.3621    0.2846 C   0  0  0  0  0  0  0  0  0  0  0  0
    1.3287   -0.5679   -0.2039 C   0  0  0  0  0  0  0  0  0  0  0  0
    2.3192   -1.2308    0.6746 C   0  0  0  0  0  0  0  0  0  0  0  0
    1.6465   -0.1977   -1.3202 O   0  0  0  0  0  0  0  0  0  0  0  0
   -4.2942    0.6630    0.9268 H   0  0  0  0  0  0  0  0  0  0  0  0
   -1.0144   -0.1903   -1.6660 H   0  0  0  0  0  0  0  0  0  0  0  0
   -0.4774    2.5043   -0.2318 H   0  0  0  0  0  0  0  0  0  0  0  0
   -0.0669    0.1870    1.2360 H   0  0  0  0  0  0  0  0  0  0  0  0
   -0.4684   -1.3796    0.4983 H   0  0  0  0  0  0  0  0  0  0  0  0
    2.8965   -1.9873    0.0671 H   0  0  0  0  0  0  0  0  0  0  0  0
    3.0342   -0.5415    1.1421 H   0  0  0  0  0  0  0  0  0  0  0  0
    1.8400   -1.8253    1.4787 H   0  0  0  0  0  0  0  0  0  0  0  0
  1  2  3  0
  2  3  1  0
  3  4  1  0
  4  5  2  0
  3  6  1  0
  6  7  1  0
  7  8  1  0
  7  9  2  0
  1 10  1  0
  3 11  1  0
  4 12  1  0
  6 13  1  0
  6 14  1  0
  8 15  1  0
  8 16  1  0
  8 17  1  0
M  END
