
     RDKit          3D

 17 17  0  0  0  0  0  0  0  0999 V2000
    1.4890    2.5243    1.2771 C   0  0  0  0  0  0  0  0  0  0  0  0
    1.0683    1.5683    1.3396 C   0  0  0  0  0  0  0  0  0  0  0  0
    0.3620   -0.0810    1.4219 C   0  0  0  0  0  0  0  0  0  0  0  0
   -0.0494    0.0543    2.5145 O   0  0  0  0  0  0  0  0  0  0  0  0
    0.6983   -0.5319    0.1940 C   0  0  0  0  0  0  0  0  0  0  0  0
    0.9728   -0.1143   -1.1687 C   0  0  0  0  0  0  0  0  0  0  0  0
   -0.4080   -0.0047   -0.8538 C   0  0  0  0  0  0  0  0  0  0  0  0
   -1.5981   -0.8660   -0.6147 C   0  0  0  0  0  0  0  0  0  0  0  0
   -1.2436   -2.2320   -0.7976 O   0  0  0  0  0  0  0  0  0  0  0  0
    1.9779    3.6027    1.2058 H   0  0  0  0  0  0  0  0  0  0  0  0
    0.6677   -1.7511    0.1778 H   0  0  0  0  0  0  0  0  0  0  0  0
    1.5003    0.8630   -1.4586 H   0  0  0  0  0  0  0  0  0  0  0  0
    1.4316   -0.9087   -1.8441 H   0  0  0  0  0  0  0  0  0  0  0  0
   -0.7152    1.0992   -0.6156 H   0  0  0  0  0  0  0  0  0  0  0  0
   -2.5128   -0.5912   -1.1820 H   0  0  0  0  0  0  0  0  0  0  0  0
   -1.8331   -0.7825    0.5059 H   0  0  0  0  0  0  0  0  0  0  0  0
   -1.8077   -2.7424   -0.1016 H   0  0  0  0  0  0  0  0  0  0  0  0
  1  2  3  0
  2  3  1  0
  3  4  2  0
  3  5  1  0
  5  6  1  0
  6  7  1  0
  7  8  1  0
  8  9  1  0
  7  5  1  0
  1 10  1  0
  5 11  1  0
  6 12  1  0
  6 13  1  0
  7 14  1  0
  8 15  1  0
  8 16  1  0
  9 17  1  0
M  END
