
     RDKit          3D

 18 18  0  0  0  0  0  0  0  0999 V2000
    2.1257    1.7150   -0.5195 C   0  0  0  0  0  0  0  0  0  0  0  0
    1.3503    1.0816    0.1792 C   0  0  0  0  0  0  0  0  0  0  0  0
    0.4284    0.3230    1.0366 C   0  0  0  0  0  0  0  0  0  0  0  0
    1.0102   -0.9062    1.3084 O   0  0  0  0  0  0  0  0  0  0  0  0
    0.5033   -1.8535    0.4678 C   0  0  0  0  0  0  0  0  0  0  0  0
   -0.2890   -1.1155   -0.6079 C   0  0  0  0  0  0  0  0  0  0  0  0
   -0.8009    0.0102    0.2668 C   0  0  0  0  0  0  0  0  0  0  0  0
   -1.3594    1.1411   -0.5353 C   0  0  0  0  0  0  0  0  0  0  0  0
    2.8098    2.2816   -1.1179 H   0  0  0  0  0  0  0  0  0  0  0  0
    0.2245    0.8868    1.9851 H   0  0  0  0  0  0  0  0  0  0  0  0
   -0.2649   -2.4388    1.0402 H   0  0  0  0  0  0  0  0  0  0  0  0
    1.2358   -2.5474    0.0423 H   0  0  0  0  0  0  0  0  0  0  0  0
   -1.1020   -1.7359   -1.0190 H   0  0  0  0  0  0  0  0  0  0  0  0
    0.3885   -0.6963   -1.3424 H   0  0  0  0  0  0  0  0  0  0  0  0
   -1.5869   -0.3313    0.9637 H   0  0  0  0  0  0  0  0  0  0  0  0
   -1.3977    2.0300    0.1108 H   0  0  0  0  0  0  0  0  0  0  0  0
   -2.4229    0.8764   -0.7666 H   0  0  0  0  0  0  0  0  0  0  0  0
   -0.8527    1.2790   -1.4924 H   0  0  0  0  0  0  0  0  0  0  0  0
  1  2  3  0
  2  3  1  0
  3  4  1  0
  4  5  1  0
  5  6  1  0
  6  7  1  0
  7  8  1  0
  7  3  1  0
  1  9  1  0
  3 10  1  0
  5 11  1  0
  5 12  1  0
  6 13  1  0
  6 14  1  0
  7 15  1  0
  8 16  1  0
  8 17  1  0
  8 18  1  0
M  END
