
     RDKit          3D

 23 23  0  0  0  0  0  0  0  0999 V2000
    2.0492    0.1889   -3.2669 C   0  0  0  0  0  0  0  0  0  0  0  0
    1.7694    0.3533   -2.2015 C   0  0  0  0  0  0  0  0  0  0  0  0
    1.3819    0.5514   -0.7806 C   0  0  0  0  0  0  0  0  0  0  0  0
    1.9829   -0.4466    0.2173 C   0  0  0  0  0  0  0  0  0  0  0  0
    0.4969   -0.5133   -0.2070 C   0  0  0  0  0  0  0  0  0  0  0  0
    0.1901   -1.7689   -1.0208 C   0  0  0  0  0  0  0  0  0  0  0  0
   -0.5087   -0.1274    0.8480 C   0  0  0  0  0  0  0  0  0  0  0  0
   -1.5072    0.9166    0.3498 C   0  0  0  0  0  0  0  0  0  0  0  0
   -2.4583    1.2044    1.4860 C   0  0  0  0  0  0  0  0  0  0  0  0
    2.3260    0.0084   -4.3978 H   0  0  0  0  0  0  0  0  0  0  0  0
    1.1994    1.5780   -0.4541 H   0  0  0  0  0  0  0  0  0  0  0  0
    2.1514   -0.1499    1.2728 H   0  0  0  0  0  0  0  0  0  0  0  0
    2.6694   -1.1728   -0.2147 H   0  0  0  0  0  0  0  0  0  0  0  0
    0.6261   -1.7236   -2.0223 H   0  0  0  0  0  0  0  0  0  0  0  0
   -0.9049   -1.8406   -1.1016 H   0  0  0  0  0  0  0  0  0  0  0  0
    0.5570   -2.6809   -0.4821 H   0  0  0  0  0  0  0  0  0  0  0  0
   -1.0140   -1.0234    1.2153 H   0  0  0  0  0  0  0  0  0  0  0  0
    0.0548    0.3177    1.7094 H   0  0  0  0  0  0  0  0  0  0  0  0
   -2.0726    0.5658   -0.5283 H   0  0  0  0  0  0  0  0  0  0  0  0
   -0.9640    1.8517    0.0753 H   0  0  0  0  0  0  0  0  0  0  0  0
   -1.8534    1.4381    2.3956 H   0  0  0  0  0  0  0  0  0  0  0  0
   -3.1395    0.3423    1.6661 H   0  0  0  0  0  0  0  0  0  0  0  0
   -3.0318    2.1307    1.2305 H   0  0  0  0  0  0  0  0  0  0  0  0
  1  2  3  0
  2  3  1  0
  3  4  1  0
  4  5  1  0
  5  6  1  0
  5  7  1  0
  7  8  1  0
  8  9  1  0
  5  3  1  0
  1 10  1  0
  3 11  1  0
  4 12  1  0
  4 13  1  0
  6 14  1  0
  6 15  1  0
  6 16  1  0
  7 17  1  0
  7 18  1  0
  8 19  1  0
  8 20  1  0
  9 21  1  0
  9 22  1  0
  9 23  1  0
M  END
