
     RDKit          3D

 15 15  0  0  0  0  0  0  0  0999 V2000
    3.0035   -1.0028   -0.8844 C   0  0  0  0  0  0  0  0  0  0  0  0
    1.6662   -0.1957   -0.3386 C   0  0  0  0  0  0  0  0  0  0  0  0
    0.7427    0.3846    0.0482 C   0  0  0  0  0  0  0  0  0  0  0  0
   -0.2976    1.0642   -0.8496 C   0  0  0  0  0  0  0  0  0  0  0  0
   -0.6834   -0.2839   -1.1949 O   0  0  0  0  0  0  0  0  0  0  0  0
   -0.5531   -0.6339    0.1261 C   0  0  0  0  0  0  0  0  0  0  0  0
   -1.6420   -0.1795    1.0288 C   0  0  0  0  0  0  0  0  0  0  0  0
    3.6754   -1.3960   -1.1629 H   0  0  0  0  0  0  0  0  0  0  0  0
    0.7179    0.8875    1.1058 H   0  0  0  0  0  0  0  0  0  0  0  0
    0.1949    1.5145   -1.7488 H   0  0  0  0  0  0  0  0  0  0  0  0
   -1.0178    1.6494   -0.3381 H   0  0  0  0  0  0  0  0  0  0  0  0
   -0.0896   -1.6137    0.3912 H   0  0  0  0  0  0  0  0  0  0  0  0
   -2.6272   -0.3786    0.4911 H   0  0  0  0  0  0  0  0  0  0  0  0
   -1.4858    0.9085    1.3002 H   0  0  0  0  0  0  0  0  0  0  0  0
   -1.6041   -0.7245    2.0259 H   0  0  0  0  0  0  0  0  0  0  0  0
  1  2  3  0
  2  3  1  0
  3  4  1  0
  4  5  1  0
  5  6  1  0
  6  7  1  0
  6  3  1  0
  1  8  1  0
  3  9  1  0
  4 10  1  0
  4 11  1  0
  6 12  1  0
  7 13  1  0
  7 14  1  0
  7 15  1  0
M  END
