
     RDKit          3D

 16 17  0  0  0  0  0  0  0  0999 V2000
    2.9341   -1.1145   -0.3547 C   0  0  0  0  0  0  0  0  0  0  0  0
    1.7714   -0.9546   -0.0891 C   0  0  0  0  0  0  0  0  0  0  0  0
    0.3512   -0.7662    0.2103 C   0  0  0  0  0  0  0  0  0  0  0  0
    0.0328    0.3929    1.1133 C   0  0  0  0  0  0  0  0  0  0  0  0
   -1.1069    0.7177    0.1439 C   0  0  0  0  0  0  0  0  0  0  0  0
   -2.3853    0.3701    0.4523 O   0  0  0  0  0  0  0  0  0  0  0  0
   -0.6549    1.2270   -1.1467 C   0  0  0  0  0  0  0  0  0  0  0  0
   -0.4374   -0.2008   -0.9139 C   0  0  0  0  0  0  0  0  0  0  0  0
    3.9539   -1.2580   -0.6063 H   0  0  0  0  0  0  0  0  0  0  0  0
   -0.1373   -1.6877    0.6394 H   0  0  0  0  0  0  0  0  0  0  0  0
    0.8220    1.1738    1.0438 H   0  0  0  0  0  0  0  0  0  0  0  0
   -0.2812    0.1629    2.1290 H   0  0  0  0  0  0  0  0  0  0  0  0
   -2.5507   -0.6147    0.3022 H   0  0  0  0  0  0  0  0  0  0  0  0
    0.2043    1.9585   -1.1298 H   0  0  0  0  0  0  0  0  0  0  0  0
   -1.4186    1.5099   -1.8766 H   0  0  0  0  0  0  0  0  0  0  0  0
   -1.0973   -0.9162   -1.4386 H   0  0  0  0  0  0  0  0  0  0  0  0
  1  2  3  0
  2  3  1  0
  3  4  1  0
  4  5  1  0
  5  6  1  0
  5  7  1  0
  7  8  1  0
  8  3  1  0
  8  5  1  0
  1  9  1  0
  3 10  1  0
  4 11  1  0
  4 12  1  0
  6 13  1  0
  7 14  1  0
  7 15  1  0
  8 16  1  0
M  END
