
     RDKit          3D

 19 20  0  0  0  0  0  0  0  0999 V2000
    3.0694    1.1628   -1.6064 C   0  0  0  0  0  0  0  0  0  0  0  0
    2.1205    0.7078   -1.0445 C   0  0  0  0  0  0  0  0  0  0  0  0
    1.0600    0.1876   -0.4328 C   0  0  0  0  0  0  0  0  0  0  0  0
    1.0345   -1.0047    0.4706 C   0  0  0  0  0  0  0  0  0  0  0  0
   -0.4034   -0.4992    0.4555 C   0  0  0  0  0  0  0  0  0  0  0  0
   -1.3660   -1.0117    1.0491 O   0  0  0  0  0  0  0  0  0  0  0  0
   -2.6137   -0.4662    0.9602 C   0  0  0  0  0  0  0  0  0  0  0  0
   -0.1883   -0.3188   -1.0386 C   0  0  0  0  0  0  0  0  0  0  0  0
    0.2036    0.8764    0.5943 C   0  0  0  0  0  0  0  0  0  0  0  0
    3.9389    1.5803   -2.1003 H   0  0  0  0  0  0  0  0  0  0  0  0
    1.1924   -1.9650   -0.0412 H   0  0  0  0  0  0  0  0  0  0  0  0
    1.5781   -0.8573    1.4019 H   0  0  0  0  0  0  0  0  0  0  0  0
   -3.3476   -1.0721    1.5654 H   0  0  0  0  0  0  0  0  0  0  0  0
   -2.9560   -0.6037   -0.1079 H   0  0  0  0  0  0  0  0  0  0  0  0
   -2.6870    0.6031    1.1688 H   0  0  0  0  0  0  0  0  0  0  0  0
   -0.8674    0.4504   -1.4447 H   0  0  0  0  0  0  0  0  0  0  0  0
   -0.1127   -1.2566   -1.6146 H   0  0  0  0  0  0  0  0  0  0  0  0
   -0.4169    1.7125    0.2390 H   0  0  0  0  0  0  0  0  0  0  0  0
    0.7615    1.0362    1.5262 H   0  0  0  0  0  0  0  0  0  0  0  0
  1  2  3  0
  2  3  1  0
  3  4  1  0
  4  5  1  0
  5  6  1  0
  6  7  1  0
  5  8  1  0
  5  9  1  0
  8  3  1  0
  9  3  1  0
  1 10  1  0
  4 11  1  0
  4 12  1  0
  7 13  1  0
  7 14  1  0
  7 15  1  0
  8 16  1  0
  8 17  1  0
  9 18  1  0
  9 19  1  0
M  END
