
     RDKit          3D

 10  9  0  0  0  0  0  0  0  0999 V2000
    1.8578   -0.8473    1.0401 C   0  0  0  0  0  0  0  0  0  0  0  0
    0.7898   -0.6965    0.4802 C   0  0  0  0  0  0  0  0  0  0  0  0
   -0.4996   -0.4888   -0.2013 C   0  0  0  0  0  0  0  0  0  0  0  0
   -0.7542    0.9702   -0.4395 C   0  0  0  0  0  0  0  0  0  0  0  0
    2.8034   -0.9732    1.5160 H   0  0  0  0  0  0  0  0  0  0  0  0
   -0.4077   -0.9744   -1.1925 H   0  0  0  0  0  0  0  0  0  0  0  0
   -1.3000   -0.9671    0.3973 H   0  0  0  0  0  0  0  0  0  0  0  0
   -1.2843    1.4486    0.4148 H   0  0  0  0  0  0  0  0  0  0  0  0
    0.1976    1.4856   -0.6778 H   0  0  0  0  0  0  0  0  0  0  0  0
   -1.4028    1.0428   -1.3373 H   0  0  0  0  0  0  0  0  0  0  0  0
  1  2  3  0
  2  3  1  0
  3  4  1  0
  1  5  1  0
  3  6  1  0
  3  7  1  0
  4  8  1  0
  4  9  1  0
  4 10  1  0
M  END
