
     RDKit          3D

 17 18  0  0  0  0  0  0  0  0999 V2000
    3.2330   -0.1152    0.6404 C   0  0  0  0  0  0  0  0  0  0  0  0
    2.2847   -0.1002    0.1062 C   0  0  0  0  0  0  0  0  0  0  0  0
    0.9349   -0.0545   -0.6435 C   0  0  0  0  0  0  0  0  0  0  0  0
    0.0158    1.0534   -0.0669 C   0  0  0  0  0  0  0  0  0  0  0  0
    0.0501    0.2952    1.1682 C   0  0  0  0  0  0  0  0  0  0  0  0
   -0.0692   -0.7587    0.0988 C   0  0  0  0  0  0  0  0  0  0  0  0
   -1.0216    0.2714   -0.6098 C   0  0  0  0  0  0  0  0  0  0  0  0
   -2.3354   -0.1374   -0.3469 C   0  0  0  0  0  0  0  0  0  0  0  0
   -3.2561   -0.4398   -0.1532 C   0  0  0  0  0  0  0  0  0  0  0  0
    4.2666   -0.1124    1.2315 H   0  0  0  0  0  0  0  0  0  0  0  0
    1.0265   -0.1007   -1.7022 H   0  0  0  0  0  0  0  0  0  0  0  0
    0.2517    2.0690   -0.1853 H   0  0  0  0  0  0  0  0  0  0  0  0
    1.0409    0.2302    1.6702 H   0  0  0  0  0  0  0  0  0  0  0  0
   -0.8027    0.3337    1.8628 H   0  0  0  0  0  0  0  0  0  0  0  0
   -0.3515   -1.7096    0.2541 H   0  0  0  0  0  0  0  0  0  0  0  0
   -0.8111    0.1233   -1.8005 H   0  0  0  0  0  0  0  0  0  0  0  0
   -4.4566   -0.8479    0.1173 H   0  0  0  0  0  0  0  0  0  0  0  0
  1  2  3  0
  2  3  1  0
  3  4  1  0
  4  5  1  0
  5  6  1  0
  6  7  1  0
  7  8  1  0
  8  9  3  0
  6  3  1  0
  7  4  1  0
  1 10  1  0
  3 11  1  0
  4 12  1  0
  5 13  1  0
  5 14  1  0
  6 15  1  0
  7 16  1  0
  9 17  1  0
M  END
