
     RDKit          3D

 17 17  0  0  0  0  0  0  0  0999 V2000
    2.9800    1.3010    0.5172 C   0  0  0  0  0  0  0  0  0  0  0  0
    2.1312    0.4529    0.6319 C   0  0  0  0  0  0  0  0  0  0  0  0
    1.0863   -0.5612    0.7607 C   0  0  0  0  0  0  0  0  0  0  0  0
   -0.0552   -0.1853   -0.1521 C   0  0  0  0  0  0  0  0  0  0  0  0
    0.3284   -0.1159   -1.4755 O   0  0  0  0  0  0  0  0  0  0  0  0
   -1.3044   -1.0267    0.0334 C   0  0  0  0  0  0  0  0  0  0  0  0
   -2.0640    0.2877   -0.0639 C   0  0  0  0  0  0  0  0  0  0  0  0
   -0.8121    1.0201    0.2627 C   0  0  0  0  0  0  0  0  0  0  0  0
   -0.5884    2.1370    0.6872 O   0  0  0  0  0  0  0  0  0  0  0  0
    3.7187    2.0634    0.4094 H   0  0  0  0  0  0  0  0  0  0  0  0
    1.4392   -1.5805    0.5073 H   0  0  0  0  0  0  0  0  0  0  0  0
    0.7463   -0.6040    1.8177 H   0  0  0  0  0  0  0  0  0  0  0  0
    0.6180   -0.9970   -1.8379 H   0  0  0  0  0  0  0  0  0  0  0  0
   -1.4383   -1.4397    1.0568 H   0  0  0  0  0  0  0  0  0  0  0  0
   -1.5360   -1.6906   -0.8033 H   0  0  0  0  0  0  0  0  0  0  0  0
   -2.8711    0.4036    0.6927 H   0  0  0  0  0  0  0  0  0  0  0  0
   -2.3786    0.5352   -1.1067 H   0  0  0  0  0  0  0  0  0  0  0  0
  1  2  3  0
  2  3  1  0
  3  4  1  0
  4  5  1  0
  4  6  1  0
  6  7  1  0
  7  8  1  0
  8  9  2  0
  8  4  1  0
  1 10  1  0
  3 11  1  0
  3 12  1  0
  5 13  1  0
  6 14  1  0
  6 15  1  0
  7 16  1  0
  7 17  1  0
M  END
