
     RDKit          3D

 19 18  0  0  0  0  0  0  0  0999 V2000
    2.8614    1.9614   -0.9101 C   0  0  0  0  0  0  0  0  0  0  0  0
    2.4548    0.8619   -1.1922 C   0  0  0  0  0  0  0  0  0  0  0  0
    1.9766   -0.4946   -1.5247 C   0  0  0  0  0  0  0  0  0  0  0  0
    0.5598   -0.6829   -1.0069 C   0  0  0  0  0  0  0  0  0  0  0  0
    0.6036   -0.5073    0.3579 O   0  0  0  0  0  0  0  0  0  0  0  0
   -0.6021   -0.6553    0.9896 C   0  0  0  0  0  0  0  0  0  0  0  0
   -1.5939    0.3405    0.4745 C   0  0  0  0  0  0  0  0  0  0  0  0
   -2.9106    0.1772    1.1776 C   0  0  0  0  0  0  0  0  0  0  0  0
   -3.0087   -0.6903    2.0289 O   0  0  0  0  0  0  0  0  0  0  0  0
    3.2290    2.9381   -0.6741 H   0  0  0  0  0  0  0  0  0  0  0  0
    1.9161   -0.5777   -2.6306 H   0  0  0  0  0  0  0  0  0  0  0  0
    2.6704   -1.2700   -1.1105 H   0  0  0  0  0  0  0  0  0  0  0  0
    0.2098   -1.6571   -1.3405 H   0  0  0  0  0  0  0  0  0  0  0  0
   -0.0371    0.1037   -1.5330 H   0  0  0  0  0  0  0  0  0  0  0  0
   -0.4821   -0.4610    2.0810 H   0  0  0  0  0  0  0  0  0  0  0  0
   -1.0284   -1.6760    0.9083 H   0  0  0  0  0  0  0  0  0  0  0  0
   -1.8260    0.1099   -0.6051 H   0  0  0  0  0  0  0  0  0  0  0  0
   -1.2607    1.3692    0.6288 H   0  0  0  0  0  0  0  0  0  0  0  0
   -3.7318    0.8104    0.9294 H   0  0  0  0  0  0  0  0  0  0  0  0
  1  2  3  0
  2  3  1  0
  3  4  1  0
  4  5  1  0
  5  6  1  0
  6  7  1  0
  7  8  1  0
  8  9  2  0
  1 10  1  0
  3 11  1  0
  3 12  1  0
  4 13  1  0
  4 14  1  0
  6 15  1  0
  6 16  1  0
  7 17  1  0
  7 18  1  0
  8 19  1  0
M  END
