
     RDKit          3D

 15 15  0  0  0  0  0  0  0  0999 V2000
    2.0115   -2.1122   -0.0299 C   0  0  0  0  0  0  0  0  0  0  0  0
    1.0834   -1.3724   -0.1379 C   0  0  0  0  0  0  0  0  0  0  0  0
   -0.0197   -0.4627   -0.2617 C   0  0  0  0  0  0  0  0  0  0  0  0
   -0.8882   -0.8027   -1.2947 O   0  0  0  0  0  0  0  0  0  0  0  0
    0.4622    0.9506   -0.5575 C   0  0  0  0  0  0  0  0  0  0  0  0
   -0.7042    1.6772   -0.3308 O   0  0  0  0  0  0  0  0  0  0  0  0
   -1.2829    1.1740    0.8511 C   0  0  0  0  0  0  0  0  0  0  0  0
   -0.7498   -0.2004    1.0081 C   0  0  0  0  0  0  0  0  0  0  0  0
   -0.8531   -0.9642    1.9225 O   0  0  0  0  0  0  0  0  0  0  0  0
    2.8566   -2.7643    0.0590 H   0  0  0  0  0  0  0  0  0  0  0  0
   -0.4969   -0.4228   -2.1312 H   0  0  0  0  0  0  0  0  0  0  0  0
    1.2136    1.2919    0.1565 H   0  0  0  0  0  0  0  0  0  0  0  0
    0.7437    1.0736   -1.6196 H   0  0  0  0  0  0  0  0  0  0  0  0
   -0.9930    1.8621    1.6475 H   0  0  0  0  0  0  0  0  0  0  0  0
   -2.3830    1.0724    0.7186 H   0  0  0  0  0  0  0  0  0  0  0  0
  1  2  3  0
  2  3  1  0
  3  4  1  0
  3  5  1  0
  5  6  1  0
  6  7  1  0
  7  8  1  0
  8  9  2  0
  8  3  1  0
  1 10  1  0
  4 11  1  0
  5 12  1  0
  5 13  1  0
  7 14  1  0
  7 15  1  0
M  END
