
     RDKit          3D

 21 21  0  0  0  0  0  0  0  0999 V2000
    2.4472    0.1501    1.4872 C   0  0  0  0  0  0  0  0  0  0  0  0
    1.5332    0.2008    0.6756 C   0  0  0  0  0  0  0  0  0  0  0  0
    0.4594    0.2626   -0.3118 C   0  0  0  0  0  0  0  0  0  0  0  0
    1.0248    0.4071   -1.6832 C   0  0  0  0  0  0  0  0  0  0  0  0
   -0.4788    1.3610    0.0880 C   0  0  0  0  0  0  0  0  0  0  0  0
   -1.6916    0.6823    0.6509 C   0  0  0  0  0  0  0  0  0  0  0  0
   -1.2291   -0.7213    0.9798 C   0  0  0  0  0  0  0  0  0  0  0  0
   -0.3507   -1.0306   -0.2367 C   0  0  0  0  0  0  0  0  0  0  0  0
    0.4810   -2.1101   -0.0069 O   0  0  0  0  0  0  0  0  0  0  0  0
    3.2311    0.0939    2.1991 H   0  0  0  0  0  0  0  0  0  0  0  0
    2.0679   -0.0184   -1.6553 H   0  0  0  0  0  0  0  0  0  0  0  0
    0.4700   -0.2448   -2.4085 H   0  0  0  0  0  0  0  0  0  0  0  0
    1.0404    1.4591   -2.0427 H   0  0  0  0  0  0  0  0  0  0  0  0
   -0.7253    1.9767   -0.8181 H   0  0  0  0  0  0  0  0  0  0  0  0
   -0.0007    2.0347    0.8418 H   0  0  0  0  0  0  0  0  0  0  0  0
   -2.0951    1.1831    1.5525 H   0  0  0  0  0  0  0  0  0  0  0  0
   -2.4854    0.5626   -0.1434 H   0  0  0  0  0  0  0  0  0  0  0  0
   -2.0648   -1.4120    1.0800 H   0  0  0  0  0  0  0  0  0  0  0  0
   -0.5586   -0.7404    1.8676 H   0  0  0  0  0  0  0  0  0  0  0  0
   -0.9792   -1.1723   -1.1216 H   0  0  0  0  0  0  0  0  0  0  0  0
   -0.0958   -2.9239   -0.0393 H   0  0  0  0  0  0  0  0  0  0  0  0
  1  2  3  0
  2  3  1  0
  3  4  1  0
  3  5  1  0
  5  6  1  0
  6  7  1  0
  7  8  1  0
  8  9  1  0
  8  3  1  0
  1 10  1  0
  4 11  1  0
  4 12  1  0
  4 13  1  0
  5 14  1  0
  5 15  1  0
  6 16  1  0
  6 17  1  0
  7 18  1  0
  7 19  1  0
  8 20  1  0
  9 21  1  0
M  END
