
     RDKit          3D

 17 16  0  0  0  0  0  0  0  0999 V2000
    1.5454   -1.0261   -2.7035 C   0  0  0  0  0  0  0  0  0  0  0  0
    1.4192   -1.1137   -1.4851 C   0  0  0  0  0  0  0  0  0  0  0  0
    1.2533   -1.2022   -0.0788 C   0  0  0  0  0  0  0  0  0  0  0  0
    1.3062   -2.2386    0.5938 O   0  0  0  0  0  0  0  0  0  0  0  0
    0.9913    0.1370    0.5966 C   0  0  0  0  0  0  0  0  0  0  0  0
   -0.3864    0.5117    0.1362 C   0  0  0  0  0  0  0  0  0  0  0  0
   -0.8533    1.8328    0.6913 C   0  0  0  0  0  0  0  0  0  0  0  0
   -1.3956   -0.5241    0.5908 C   0  0  0  0  0  0  0  0  0  0  0  0
   -2.1548   -1.3098    0.9145 C   0  0  0  0  0  0  0  0  0  0  0  0
    1.6547   -0.9679   -3.7607 H   0  0  0  0  0  0  0  0  0  0  0  0
    1.1066    0.0632    1.6706 H   0  0  0  0  0  0  0  0  0  0  0  0
    1.7012    0.8446    0.1482 H   0  0  0  0  0  0  0  0  0  0  0  0
   -0.4646    0.5541   -0.9635 H   0  0  0  0  0  0  0  0  0  0  0  0
   -0.4799    1.9922    1.7522 H   0  0  0  0  0  0  0  0  0  0  0  0
   -1.9492    1.8710    0.6367 H   0  0  0  0  0  0  0  0  0  0  0  0
   -0.4233    2.6353    0.0272 H   0  0  0  0  0  0  0  0  0  0  0  0
   -2.8707   -2.0595    1.2334 H   0  0  0  0  0  0  0  0  0  0  0  0
  1  2  3  0
  2  3  1  0
  3  4  2  0
  3  5  1  0
  5  6  1  0
  6  7  1  0
  6  8  1  0
  8  9  3  0
  1 10  1  0
  5 11  1  0
  5 12  1  0
  6 13  1  0
  7 14  1  0
  7 15  1  0
  7 16  1  0
  9 17  1  0
M  END
