
     RDKit          3D

 19 19  0  0  0  0  0  0  0  0999 V2000
    3.7265    0.6198    0.5041 C   0  0  0  0  0  0  0  0  0  0  0  0
    2.7337    0.4754   -0.1708 C   0  0  0  0  0  0  0  0  0  0  0  0
    1.5406    0.3272   -0.9763 C   0  0  0  0  0  0  0  0  0  0  0  0
    0.3268   -0.0477   -0.1936 C   0  0  0  0  0  0  0  0  0  0  0  0
   -0.8326   -0.1616   -1.1915 C   0  0  0  0  0  0  0  0  0  0  0  0
   -1.8137   -0.8711   -0.4720 O   0  0  0  0  0  0  0  0  0  0  0  0
   -2.2693   -0.0327    0.5176 C   0  0  0  0  0  0  0  0  0  0  0  0
   -1.2185    0.5994    1.3521 C   0  0  0  0  0  0  0  0  0  0  0  0
   -0.0547    0.9184    0.7174 O   0  0  0  0  0  0  0  0  0  0  0  0
    4.6061    0.7646    1.0936 H   0  0  0  0  0  0  0  0  0  0  0  0
    1.3419    1.2417   -1.5880 H   0  0  0  0  0  0  0  0  0  0  0  0
    1.7423   -0.4859   -1.7097 H   0  0  0  0  0  0  0  0  0  0  0  0
    0.4813   -0.9918    0.3319 H   0  0  0  0  0  0  0  0  0  0  0  0
   -0.5387   -0.6670   -2.1081 H   0  0  0  0  0  0  0  0  0  0  0  0
   -1.2387    0.8612   -1.3393 H   0  0  0  0  0  0  0  0  0  0  0  0
   -2.8864    0.7611    0.0107 H   0  0  0  0  0  0  0  0  0  0  0  0
   -2.9374   -0.6540    1.1819 H   0  0  0  0  0  0  0  0  0  0  0  0
   -1.6491    1.5612    1.7621 H   0  0  0  0  0  0  0  0  0  0  0  0
   -1.0600   -0.0284    2.2780 H   0  0  0  0  0  0  0  0  0  0  0  0
  1  2  3  0
  2  3  1  0
  3  4  1  0
  4  5  1  0
  5  6  1  0
  6  7  1  0
  7  8  1  0
  8  9  1  0
  9  4  1  0
  1 10  1  0
  3 11  1  0
  3 12  1  0
  4 13  1  0
  5 14  1  0
  5 15  1  0
  7 16  1  0
  7 17  1  0
  8 18  1  0
  8 19  1  0
M  END
