
     RDKit          3D

 19 19  0  0  0  0  0  0  0  0999 V2000
    1.7752   -2.0439    0.8282 C   0  0  0  0  0  0  0  0  0  0  0  0
    0.5783   -1.9806    0.7999 C   0  0  0  0  0  0  0  0  0  0  0  0
   -0.9052   -1.8774    0.7567 C   0  0  0  0  0  0  0  0  0  0  0  0
   -1.2605   -0.5179    0.7759 O   0  0  0  0  0  0  0  0  0  0  0  0
   -0.7125    0.0960   -0.3257 C   0  0  0  0  0  0  0  0  0  0  0  0
   -1.5662    1.0570   -1.0906 C   0  0  0  0  0  0  0  0  0  0  0  0
   -0.3688    1.7667   -1.3614 O   0  0  0  0  0  0  0  0  0  0  0  0
    0.0145    1.3970   -0.0651 C   0  0  0  0  0  0  0  0  0  0  0  0
    1.4973    1.3010    0.1416 C   0  0  0  0  0  0  0  0  0  0  0  0
    2.8599   -2.1184    0.8620 H   0  0  0  0  0  0  0  0  0  0  0  0
   -1.3266   -2.3675    1.6540 H   0  0  0  0  0  0  0  0  0  0  0  0
   -1.2845   -2.2769   -0.2009 H   0  0  0  0  0  0  0  0  0  0  0  0
   -0.1344   -0.5844   -0.9736 H   0  0  0  0  0  0  0  0  0  0  0  0
   -2.1887    1.6971   -0.4650 H   0  0  0  0  0  0  0  0  0  0  0  0
   -2.0318    0.6125   -1.9914 H   0  0  0  0  0  0  0  0  0  0  0  0
   -0.5347    2.0067    0.6617 H   0  0  0  0  0  0  0  0  0  0  0  0
    1.6930    1.0377    1.1953 H   0  0  0  0  0  0  0  0  0  0  0  0
    1.9372    2.2689   -0.1652 H   0  0  0  0  0  0  0  0  0  0  0  0
    1.9584    0.5264   -0.4865 H   0  0  0  0  0  0  0  0  0  0  0  0
  1  2  3  0
  2  3  1  0
  3  4  1  0
  4  5  1  0
  5  6  1  0
  6  7  1  0
  7  8  1  0
  8  9  1  0
  8  5  1  0
  1 10  1  0
  3 11  1  0
  3 12  1  0
  5 13  1  0
  6 14  1  0
  6 15  1  0
  8 16  1  0
  9 17  1  0
  9 18  1  0
  9 19  1  0
M  END
