
     RDKit          3D

 19 18  0  0  0  0  0  0  0  0999 V2000
   -1.7280    1.9018   -1.1528 C   0  0  0  0  0  0  0  0  0  0  0  0
   -0.9023    1.0540   -1.0464 C   0  0  0  0  0  0  0  0  0  0  0  0
    0.1274   -0.0116   -0.8963 C   0  0  0  0  0  0  0  0  0  0  0  0
   -0.6128   -1.2964   -0.6943 C   0  0  0  0  0  0  0  0  0  0  0  0
    0.8558   -0.1426   -2.0740 O   0  0  0  0  0  0  0  0  0  0  0  0
    1.0164    0.2808    0.2676 C   0  0  0  0  0  0  0  0  0  0  0  0
    1.9149   -0.7721    0.4141 O   0  0  0  0  0  0  0  0  0  0  0  0
    0.2576    0.5089    1.5502 C   0  0  0  0  0  0  0  0  0  0  0  0
   -0.4538   -0.6001    1.9354 O   0  0  0  0  0  0  0  0  0  0  0  0
   -2.4694    2.6873   -1.2583 H   0  0  0  0  0  0  0  0  0  0  0  0
   -1.4950   -1.2031   -0.0591 H   0  0  0  0  0  0  0  0  0  0  0  0
   -0.9791   -1.6534   -1.7026 H   0  0  0  0  0  0  0  0  0  0  0  0
    0.0724   -2.0289   -0.2679 H   0  0  0  0  0  0  0  0  0  0  0  0
    0.2033    0.0486   -2.8183 H   0  0  0  0  0  0  0  0  0  0  0  0
    1.6402    1.1923    0.0310 H   0  0  0  0  0  0  0  0  0  0  0  0
    2.0680   -1.0157    1.3426 H   0  0  0  0  0  0  0  0  0  0  0  0
   -0.4641    1.3481    1.4502 H   0  0  0  0  0  0  0  0  0  0  0  0
    0.9861    0.8395    2.3301 H   0  0  0  0  0  0  0  0  0  0  0  0
   -0.0375   -1.1374    2.6489 H   0  0  0  0  0  0  0  0  0  0  0  0
  1  2  3  0
  2  3  1  0
  3  4  1  0
  3  5  1  0
  3  6  1  0
  6  7  1  0
  6  8  1  0
  8  9  1  0
  1 10  1  0
  4 11  1  0
  4 12  1  0
  4 13  1  0
  5 14  1  0
  6 15  1  0
  7 16  1  0
  8 17  1  0
  8 18  1  0
  9 19  1  0
M  END
