
     RDKit          3D

 15 15  0  0  0  0  0  0  0  0999 V2000
    2.6754    1.5322    2.0884 C   0  0  0  0  0  0  0  0  0  0  0  0
    1.6894    1.0926    1.5066 C   0  0  0  0  0  0  0  0  0  0  0  0
    0.5009    0.5885    0.8199 C   0  0  0  0  0  0  0  0  0  0  0  0
    0.0475    1.4665   -0.1763 O   0  0  0  0  0  0  0  0  0  0  0  0
   -0.1674    0.3340   -0.9852 C   0  0  0  0  0  0  0  0  0  0  0  0
   -1.5827   -0.1216   -0.8226 C   0  0  0  0  0  0  0  0  0  0  0  0
   -1.8621   -1.2555   -1.6076 O   0  0  0  0  0  0  0  0  0  0  0  0
    0.7778   -0.4695   -0.1784 C   0  0  0  0  0  0  0  0  0  0  0  0
    1.4517   -1.4800   -0.2604 O   0  0  0  0  0  0  0  0  0  0  0  0
    3.5175    1.9223    2.5970 H   0  0  0  0  0  0  0  0  0  0  0  0
   -0.3184    0.3430    1.5505 H   0  0  0  0  0  0  0  0  0  0  0  0
    0.1737    0.5411   -1.9997 H   0  0  0  0  0  0  0  0  0  0  0  0
   -1.7679   -0.3333    0.2531 H   0  0  0  0  0  0  0  0  0  0  0  0
   -2.2960    0.6745   -1.1115 H   0  0  0  0  0  0  0  0  0  0  0  0
   -2.8394   -1.3982   -1.6738 H   0  0  0  0  0  0  0  0  0  0  0  0
  1  2  3  0
  2  3  1  0
  3  4  1  0
  4  5  1  0
  5  6  1  0
  6  7  1  0
  5  8  1  0
  8  9  2  0
  8  3  1  0
  1 10  1  0
  3 11  1  0
  5 12  1  0
  6 13  1  0
  6 14  1  0
  7 15  1  0
M  END
