
     RDKit          3D

 16 15  0  0  0  0  0  0  0  0999 V2000
   -2.4024    1.6591   -0.2794 C   0  0  0  0  0  0  0  0  0  0  0  0
   -1.6818    0.7419    0.0280 C   0  0  0  0  0  0  0  0  0  0  0  0
   -0.8175   -0.3741    0.4148 C   0  0  0  0  0  0  0  0  0  0  0  0
   -1.4171   -1.6498   -0.1275 C   0  0  0  0  0  0  0  0  0  0  0  0
    0.5525   -0.2180   -0.1149 C   0  0  0  0  0  0  0  0  0  0  0  0
    0.9922   -1.1034   -0.8826 O   0  0  0  0  0  0  0  0  0  0  0  0
    1.3860    0.8489    0.1838 O   0  0  0  0  0  0  0  0  0  0  0  0
    2.7012    0.9419   -0.3611 C   0  0  0  0  0  0  0  0  0  0  0  0
   -3.0352    2.4634   -0.5683 H   0  0  0  0  0  0  0  0  0  0  0  0
   -0.7133   -0.4377    1.5279 H   0  0  0  0  0  0  0  0  0  0  0  0
   -1.5155   -1.5584   -1.2201 H   0  0  0  0  0  0  0  0  0  0  0  0
   -2.3885   -1.7897    0.3889 H   0  0  0  0  0  0  0  0  0  0  0  0
   -0.7246   -2.4730    0.1496 H   0  0  0  0  0  0  0  0  0  0  0  0
    2.6540    0.6221   -1.4076 H   0  0  0  0  0  0  0  0  0  0  0  0
    3.0121    2.0045   -0.2754 H   0  0  0  0  0  0  0  0  0  0  0  0
    3.3979    0.3224    0.2490 H   0  0  0  0  0  0  0  0  0  0  0  0
  1  2  3  0
  2  3  1  0
  3  4  1  0
  3  5  1  0
  5  6  2  0
  5  7  1  0
  7  8  1  0
  1  9  1  0
  3 10  1  0
  4 11  1  0
  4 12  1  0
  4 13  1  0
  8 14  1  0
  8 15  1  0
  8 16  1  0
M  END
