
     RDKit          3D

 19 18  0  0  0  0  0  0  0  0999 V2000
    2.4394    0.5060    2.2860 C   0  0  0  0  0  0  0  0  0  0  0  0
    1.8240    0.4439    1.2027 C   0  0  0  0  0  0  0  0  0  0  0  0
    1.1037    0.3666   -0.1183 C   0  0  0  0  0  0  0  0  0  0  0  0
    2.0269   -0.6060   -0.9222 C   0  0  0  0  0  0  0  0  0  0  0  0
   -0.0325   -0.2555    0.1162 O   0  0  0  0  0  0  0  0  0  0  0  0
   -1.2714    0.3158    0.1501 C   0  0  0  0  0  0  0  0  0  0  0  0
   -2.1798   -0.5397    0.9756 C   0  0  0  0  0  0  0  0  0  0  0  0
   -1.7446    0.3491   -1.3101 C   0  0  0  0  0  0  0  0  0  0  0  0
   -2.1281    0.3921   -2.5131 C   0  0  0  0  0  0  0  0  0  0  0  0
    3.0080    0.5586    3.2483 H   0  0  0  0  0  0  0  0  0  0  0  0
    1.1891    1.3840   -0.4879 H   0  0  0  0  0  0  0  0  0  0  0  0
    1.4887   -0.9428   -1.8169 H   0  0  0  0  0  0  0  0  0  0  0  0
    2.2287   -1.4675   -0.2204 H   0  0  0  0  0  0  0  0  0  0  0  0
    2.9453   -0.1209   -1.1599 H   0  0  0  0  0  0  0  0  0  0  0  0
   -1.2572    1.3858    0.3977 H   0  0  0  0  0  0  0  0  0  0  0  0
   -3.0458   -0.8005    0.3885 H   0  0  0  0  0  0  0  0  0  0  0  0
   -1.6226   -1.4332    1.3622 H   0  0  0  0  0  0  0  0  0  0  0  0
   -2.5598    0.0380    1.8489 H   0  0  0  0  0  0  0  0  0  0  0  0
   -2.4120    0.4261   -3.4275 H   0  0  0  0  0  0  0  0  0  0  0  0
  1  2  3  0
  2  3  1  0
  3  4  1  0
  3  5  1  0
  5  6  1  0
  6  7  1  0
  6  8  1  0
  8  9  3  0
  1 10  1  0
  3 11  1  0
  4 12  1  0
  4 13  1  0
  4 14  1  0
  6 15  1  0
  7 16  1  0
  7 17  1  0
  7 18  1  0
  9 19  1  0
M  END
