
     RDKit          3D

 17 18  0  0  0  0  0  0  0  0999 V2000
    2.7511   -0.8892    1.4938 C   0  0  0  0  0  0  0  0  0  0  0  0
    1.8329   -0.3125    0.9684 C   0  0  0  0  0  0  0  0  0  0  0  0
    0.7220    0.3695    0.3126 C   0  0  0  0  0  0  0  0  0  0  0  0
   -0.3171    0.6832    1.3898 C   0  0  0  0  0  0  0  0  0  0  0  0
   -1.4854    0.7472    0.7551 C   0  0  0  0  0  0  0  0  0  0  0  0
   -1.2326    0.5015   -0.6407 C   0  0  0  0  0  0  0  0  0  0  0  0
   -1.0226   -0.5647   -1.5118 C   0  0  0  0  0  0  0  0  0  0  0  0
   -0.4811   -0.3570   -2.7922 O   0  0  0  0  0  0  0  0  0  0  0  0
   -0.1527   -0.6070   -0.4213 C   0  0  0  0  0  0  0  0  0  0  0  0
    3.5756   -1.3893    1.9737 H   0  0  0  0  0  0  0  0  0  0  0  0
    1.0414    1.2426   -0.2319 H   0  0  0  0  0  0  0  0  0  0  0  0
   -0.0994    0.8172    2.4402 H   0  0  0  0  0  0  0  0  0  0  0  0
   -2.4264    0.9567    1.2870 H   0  0  0  0  0  0  0  0  0  0  0  0
   -0.8524    1.4940   -1.0659 H   0  0  0  0  0  0  0  0  0  0  0  0
   -1.8586   -1.3192   -1.6127 H   0  0  0  0  0  0  0  0  0  0  0  0
    0.4165    0.0435   -2.6820 H   0  0  0  0  0  0  0  0  0  0  0  0
   -0.4112   -1.4165    0.3378 H   0  0  0  0  0  0  0  0  0  0  0  0
  1  2  3  0
  2  3  1  0
  3  4  1  0
  4  5  2  0
  5  6  1  0
  6  7  1  0
  7  8  1  0
  7  9  1  0
  9  3  1  0
  9  6  1  0
  1 10  1  0
  3 11  1  0
  4 12  1  0
  5 13  1  0
  6 14  1  0
  7 15  1  0
  8 16  1  0
  9 17  1  0
M  END
