
     RDKit          3D

 17 17  0  0  0  0  0  0  0  0999 V2000
   -2.5673    1.0584    0.1280 C   0  0  0  0  0  0  0  0  0  0  0  0
   -1.5337    0.4944    0.0809 C   0  0  0  0  0  0  0  0  0  0  0  0
   -0.1908   -0.2551    0.0417 C   0  0  0  0  0  0  0  0  0  0  0  0
    0.9036    0.1561    0.8512 C   0  0  0  0  0  0  0  0  0  0  0  0
    1.7895    1.1804    0.7398 C   0  0  0  0  0  0  0  0  0  0  0  0
    2.3126    1.9206   -0.0726 O   0  0  0  0  0  0  0  0  0  0  0  0
   -0.5043   -1.6614   -0.2489 C   0  0  0  0  0  0  0  0  0  0  0  0
   -0.6801   -1.3503   -1.5818 O   0  0  0  0  0  0  0  0  0  0  0  0
    0.0973   -0.2417   -1.4985 C   0  0  0  0  0  0  0  0  0  0  0  0
   -3.7660    1.7206    0.2059 H   0  0  0  0  0  0  0  0  0  0  0  0
    0.4353    0.2294    1.9558 H   0  0  0  0  0  0  0  0  0  0  0  0
    1.4714   -0.8768    1.0274 H   0  0  0  0  0  0  0  0  0  0  0  0
    2.3638    1.5726    1.7975 H   0  0  0  0  0  0  0  0  0  0  0  0
   -1.3445   -2.1485    0.2936 H   0  0  0  0  0  0  0  0  0  0  0  0
    0.4514   -2.2967   -0.1045 H   0  0  0  0  0  0  0  0  0  0  0  0
   -0.3648    0.7737   -1.8490 H   0  0  0  0  0  0  0  0  0  0  0  0
    1.1266   -0.2756   -1.7666 H   0  0  0  0  0  0  0  0  0  0  0  0
  1  2  3  0
  2  3  1  0
  3  4  1  0
  4  5  1  0
  5  6  2  0
  3  7  1  0
  7  8  1  0
  8  9  1  0
  9  3  1  0
  1 10  1  0
  4 11  1  0
  4 12  1  0
  5 13  1  0
  7 14  1  0
  7 15  1  0
  9 16  1  0
  9 17  1  0
M  END
