
     RDKit          3D

 19 20  0  0  0  0  0  0  0  0999 V2000
    3.9213    0.2757    0.1774 C   0  0  0  0  0  0  0  0  0  0  0  0
    2.7030    0.1922    0.1535 C   0  0  0  0  0  0  0  0  0  0  0  0
    1.2753    0.0704    0.1237 C   0  0  0  0  0  0  0  0  0  0  0  0
    0.3733    1.0300   -0.1527 C   0  0  0  0  0  0  0  0  0  0  0  0
   -0.9078    0.2867   -0.0361 C   0  0  0  0  0  0  0  0  0  0  0  0
   -2.1684    0.9367   -0.2287 C   0  0  0  0  0  0  0  0  0  0  0  0
   -0.5805   -1.0093   -0.7448 C   0  0  0  0  0  0  0  0  0  0  0  0
    0.4605   -1.1069    0.3821 C   0  0  0  0  0  0  0  0  0  0  0  0
   -0.6617   -0.5214    1.2458 C   0  0  0  0  0  0  0  0  0  0  0  0
    4.9728    0.3425    0.2156 H   0  0  0  0  0  0  0  0  0  0  0  0
    0.5740    2.0644   -0.3930 H   0  0  0  0  0  0  0  0  0  0  0  0
   -2.0802    1.8124   -0.8882 H   0  0  0  0  0  0  0  0  0  0  0  0
   -2.9395    0.2129   -0.5609 H   0  0  0  0  0  0  0  0  0  0  0  0
   -2.5558    1.3370    0.7539 H   0  0  0  0  0  0  0  0  0  0  0  0
   -0.1166   -0.9028   -1.7422 H   0  0  0  0  0  0  0  0  0  0  0  0
   -1.3137   -1.8091   -0.6575 H   0  0  0  0  0  0  0  0  0  0  0  0
    0.8519   -2.0447    0.6244 H   0  0  0  0  0  0  0  0  0  0  0  0
   -1.4760   -1.2298    1.3798 H   0  0  0  0  0  0  0  0  0  0  0  0
   -0.3318    0.0629    2.1011 H   0  0  0  0  0  0  0  0  0  0  0  0
  1  2  3  0
  2  3  1  0
  3  4  2  0
  4  5  1  0
  5  6  1  0
  5  7  1  0
  7  8  1  0
  8  9  1  0
  8  3  1  0
  9  5  1  0
  1 10  1  0
  4 11  1  0
  6 12  1  0
  6 13  1  0
  6 14  1  0
  7 15  1  0
  7 16  1  0
  8 17  1  0
  9 18  1  0
  9 19  1  0
M  END
