
     RDKit          3D

 19 19  0  0  0  0  0  0  0  0999 V2000
    2.4410    1.4938   -1.0419 C   0  0  0  0  0  0  0  0  0  0  0  0
    1.4877    0.7183   -0.9979 C   0  0  0  0  0  0  0  0  0  0  0  0
    0.3967   -0.1809   -0.9703 C   0  0  0  0  0  0  0  0  0  0  0  0
   -0.9713    0.4054   -1.3243 C   0  0  0  0  0  0  0  0  0  0  0  0
   -1.5326   -0.5628   -0.2849 C   0  0  0  0  0  0  0  0  0  0  0  0
   -0.1933   -0.4263    0.4030 C   0  0  0  0  0  0  0  0  0  0  0  0
    0.2865   -1.6740    1.0976 C   0  0  0  0  0  0  0  0  0  0  0  0
   -0.1499    0.7814    1.2264 C   0  0  0  0  0  0  0  0  0  0  0  0
   -0.1039    1.7567    1.9130 C   0  0  0  0  0  0  0  0  0  0  0  0
    3.2556    2.1768   -1.0758 H   0  0  0  0  0  0  0  0  0  0  0  0
    0.5096   -1.1272   -1.5447 H   0  0  0  0  0  0  0  0  0  0  0  0
   -1.3039    0.2492   -2.3481 H   0  0  0  0  0  0  0  0  0  0  0  0
   -1.0339    1.4235   -0.8952 H   0  0  0  0  0  0  0  0  0  0  0  0
   -2.4010   -0.1556    0.2740 H   0  0  0  0  0  0  0  0  0  0  0  0
   -1.6402   -1.5547   -0.7080 H   0  0  0  0  0  0  0  0  0  0  0  0
    0.4420   -2.4534    0.3241 H   0  0  0  0  0  0  0  0  0  0  0  0
   -0.5970   -2.0508    1.6901 H   0  0  0  0  0  0  0  0  0  0  0  0
    1.1516   -1.4600    1.7223 H   0  0  0  0  0  0  0  0  0  0  0  0
   -0.0436    2.6405    2.5406 H   0  0  0  0  0  0  0  0  0  0  0  0
  1  2  3  0
  2  3  1  0
  3  4  1  0
  4  5  1  0
  5  6  1  0
  6  7  1  0
  6  8  1  0
  8  9  3  0
  6  3  1  0
  1 10  1  0
  3 11  1  0
  4 12  1  0
  4 13  1  0
  5 14  1  0
  5 15  1  0
  7 16  1  0
  7 17  1  0
  7 18  1  0
  9 19  1  0
M  END
