
     RDKit          3D

 19 20  0  0  0  0  0  0  0  0999 V2000
    1.1879    1.5563    1.8703 C   0  0  0  0  0  0  0  0  0  0  0  0
    1.1318    0.5895    1.1129 C   0  0  0  0  0  0  0  0  0  0  0  0
    1.0881   -0.5784    0.1863 C   0  0  0  0  0  0  0  0  0  0  0  0
    0.3495   -1.6561    0.9062 C   0  0  0  0  0  0  0  0  0  0  0  0
   -0.8324   -0.9140    1.2006 O   0  0  0  0  0  0  0  0  0  0  0  0
   -1.1252   -0.1897    0.0208 C   0  0  0  0  0  0  0  0  0  0  0  0
   -1.4529    1.2456    0.2248 C   0  0  0  0  0  0  0  0  0  0  0  0
   -0.0650   -0.5417   -0.8981 C   0  0  0  0  0  0  0  0  0  0  0  0
    1.2634   -0.2092   -1.1616 C   0  0  0  0  0  0  0  0  0  0  0  0
    1.2177    2.3726    2.5073 H   0  0  0  0  0  0  0  0  0  0  0  0
    0.8137   -1.9239    1.8599 H   0  0  0  0  0  0  0  0  0  0  0  0
    0.0997   -2.5331    0.2875 H   0  0  0  0  0  0  0  0  0  0  0  0
   -2.1212   -0.6547   -0.2796 H   0  0  0  0  0  0  0  0  0  0  0  0
   -1.6270    1.5628    1.2504 H   0  0  0  0  0  0  0  0  0  0  0  0
   -2.3958    1.5681   -0.3232 H   0  0  0  0  0  0  0  0  0  0  0  0
   -0.6672    1.8506   -0.3151 H   0  0  0  0  0  0  0  0  0  0  0  0
   -0.2980   -1.5698   -1.3572 H   0  0  0  0  0  0  0  0  0  0  0  0
    1.9660   -0.8394   -1.7717 H   0  0  0  0  0  0  0  0  0  0  0  0
    1.4671    0.8647   -1.4554 H   0  0  0  0  0  0  0  0  0  0  0  0
  1  2  3  0
  2  3  1  0
  3  4  1  0
  4  5  1  0
  5  6  1  0
  6  7  1  0
  6  8  1  0
  8  9  1  0
  8  3  1  0
  9  3  1  0
  1 10  1  0
  4 11  1  0
  4 12  1  0
  6 13  1  0
  7 14  1  0
  7 15  1  0
  7 16  1  0
  8 17  1  0
  9 18  1  0
  9 19  1  0
M  END
