
     RDKit          3D

 15 15  0  0  0  0  0  0  0  0999 V2000
    2.4767    1.0170    0.9552 C   0  0  0  0  0  0  0  0  0  0  0  0
    1.6696    0.2222    0.5244 C   0  0  0  0  0  0  0  0  0  0  0  0
    0.7189   -0.7454   -0.0044 C   0  0  0  0  0  0  0  0  0  0  0  0
   -0.2033   -1.2174    0.9327 O   0  0  0  0  0  0  0  0  0  0  0  0
   -1.1154   -1.3435   -0.1359 C   0  0  0  0  0  0  0  0  0  0  0  0
   -0.4073   -0.1436   -0.7755 C   0  0  0  0  0  0  0  0  0  0  0  0
   -0.9154    1.1862   -0.2684 C   0  0  0  0  0  0  0  0  0  0  0  0
    3.1957    1.7014    1.3245 H   0  0  0  0  0  0  0  0  0  0  0  0
    1.1885   -1.5731   -0.5982 H   0  0  0  0  0  0  0  0  0  0  0  0
   -2.1593   -1.1611    0.1147 H   0  0  0  0  0  0  0  0  0  0  0  0
   -0.8921   -2.2712   -0.6833 H   0  0  0  0  0  0  0  0  0  0  0  0
   -0.3618   -0.2133   -1.8660 H   0  0  0  0  0  0  0  0  0  0  0  0
   -0.0985    1.9160   -0.2973 H   0  0  0  0  0  0  0  0  0  0  0  0
   -1.4153    1.0958    0.7052 H   0  0  0  0  0  0  0  0  0  0  0  0
   -1.6809    1.5300   -0.9989 H   0  0  0  0  0  0  0  0  0  0  0  0
  1  2  3  0
  2  3  1  0
  3  4  1  0
  4  5  1  0
  5  6  1  0
  6  7  1  0
  6  3  1  0
  1  8  1  0
  3  9  1  0
  5 10  1  0
  5 11  1  0
  6 12  1  0
  7 13  1  0
  7 14  1  0
  7 15  1  0
M  END
