
     RDKit          3D

 19 19  0  0  0  0  0  0  0  0999 V2000
   -1.3666    2.1042    2.1134 C   0  0  0  0  0  0  0  0  0  0  0  0
   -1.2694    1.4571    1.0806 C   0  0  0  0  0  0  0  0  0  0  0  0
   -1.1319    0.6935   -0.1627 C   0  0  0  0  0  0  0  0  0  0  0  0
   -1.9592   -0.5676   -0.0707 C   0  0  0  0  0  0  0  0  0  0  0  0
    0.3139    0.4273   -0.4206 C   0  0  0  0  0  0  0  0  0  0  0  0
    0.7689   -0.3315   -1.6163 C   0  0  0  0  0  0  0  0  0  0  0  0
    0.9465   -0.8791   -0.2160 C   0  0  0  0  0  0  0  0  0  0  0  0
    2.3296   -0.9172    0.2937 C   0  0  0  0  0  0  0  0  0  0  0  0
    3.4671   -0.9696    0.7126 C   0  0  0  0  0  0  0  0  0  0  0  0
   -1.4494    2.6494    3.0180 H   0  0  0  0  0  0  0  0  0  0  0  0
   -1.6172    1.3231   -0.9566 H   0  0  0  0  0  0  0  0  0  0  0  0
   -1.6002   -1.2643    0.6882 H   0  0  0  0  0  0  0  0  0  0  0  0
   -3.0039   -0.2870    0.1745 H   0  0  0  0  0  0  0  0  0  0  0  0
   -1.9565   -1.0991   -1.0408 H   0  0  0  0  0  0  0  0  0  0  0  0
    0.9709    1.3183   -0.1916 H   0  0  0  0  0  0  0  0  0  0  0  0
    1.6810   -0.0234   -2.1611 H   0  0  0  0  0  0  0  0  0  0  0  0
    0.0126   -0.8010   -2.2788 H   0  0  0  0  0  0  0  0  0  0  0  0
    0.4027   -1.8148   -0.0414 H   0  0  0  0  0  0  0  0  0  0  0  0
    4.4610   -1.0184    1.0755 H   0  0  0  0  0  0  0  0  0  0  0  0
  1  2  3  0
  2  3  1  0
  3  4  1  0
  3  5  1  0
  5  6  1  0
  6  7  1  0
  7  8  1  0
  8  9  3  0
  7  5  1  0
  1 10  1  0
  3 11  1  0
  4 12  1  0
  4 13  1  0
  4 14  1  0
  5 15  1  0
  6 16  1  0
  6 17  1  0
  7 18  1  0
  9 19  1  0
M  END
