
     RDKit          3D

 19 19  0  0  0  0  0  0  0  0999 V2000
    1.0680    2.7675   -1.1704 C   0  0  0  0  0  0  0  0  0  0  0  0
    0.3307    1.9316   -0.6496 C   0  0  0  0  0  0  0  0  0  0  0  0
   -0.5414    0.9146   -0.0331 C   0  0  0  0  0  0  0  0  0  0  0  0
    0.1106   -0.1933    0.7544 C   0  0  0  0  0  0  0  0  0  0  0  0
   -0.5494   -0.7264    1.9787 C   0  0  0  0  0  0  0  0  0  0  0  0
    1.4996   -0.0953    0.8148 O   0  0  0  0  0  0  0  0  0  0  0  0
   -0.5316   -0.4592   -0.5852 C   0  0  0  0  0  0  0  0  0  0  0  0
    0.4413   -0.8398   -1.6715 C   0  0  0  0  0  0  0  0  0  0  0  0
   -1.7045   -1.1888   -0.5206 O   0  0  0  0  0  0  0  0  0  0  0  0
    1.6814    3.4762   -1.5916 H   0  0  0  0  0  0  0  0  0  0  0  0
   -1.4834    1.3105    0.3603 H   0  0  0  0  0  0  0  0  0  0  0  0
   -1.2778    0.0377    2.3260 H   0  0  0  0  0  0  0  0  0  0  0  0
   -1.0383   -1.7190    1.8116 H   0  0  0  0  0  0  0  0  0  0  0  0
    0.2014   -0.8370    2.7855 H   0  0  0  0  0  0  0  0  0  0  0  0
    1.9562   -0.9022    1.0960 H   0  0  0  0  0  0  0  0  0  0  0  0
    0.1379   -1.7001   -2.2777 H   0  0  0  0  0  0  0  0  0  0  0  0
    0.6564    0.0669   -2.3177 H   0  0  0  0  0  0  0  0  0  0  0  0
    1.4123   -1.0862   -1.1972 H   0  0  0  0  0  0  0  0  0  0  0  0
   -2.3694   -0.7577    0.0874 H   0  0  0  0  0  0  0  0  0  0  0  0
  1  2  3  0
  2  3  1  0
  3  4  1  0
  4  5  1  0
  4  6  1  0
  4  7  1  0
  7  8  1  0
  7  9  1  0
  7  3  1  0
  1 10  1  0
  3 11  1  0
  5 12  1  0
  5 13  1  0
  5 14  1  0
  6 15  1  0
  8 16  1  0
  8 17  1  0
  8 18  1  0
  9 19  1  0
M  END
