
     RDKit          3D

 17 17  0  0  0  0  0  0  0  0999 V2000
   -2.2221    0.8885    0.6099 C   0  0  0  0  0  0  0  0  0  0  0  0
   -1.1254    0.4816    0.0981 C   0  0  0  0  0  0  0  0  0  0  0  0
    0.1498   -0.0146   -0.5165 C   0  0  0  0  0  0  0  0  0  0  0  0
    0.6374    0.9050   -1.3410 O   0  0  0  0  0  0  0  0  0  0  0  0
    1.0217    2.1005   -0.7493 C   0  0  0  0  0  0  0  0  0  0  0  0
    0.9337   -0.5341    0.6011 C   0  0  0  0  0  0  0  0  0  0  0  0
    0.5324   -1.7486    0.8589 C   0  0  0  0  0  0  0  0  0  0  0  0
   -0.5666   -2.0540   -0.1381 C   0  0  0  0  0  0  0  0  0  0  0  0
   -0.2088   -1.1967   -1.2226 O   0  0  0  0  0  0  0  0  0  0  0  0
   -3.1087    1.2025    1.0092 H   0  0  0  0  0  0  0  0  0  0  0  0
    1.8135    1.9323   -0.0040 H   0  0  0  0  0  0  0  0  0  0  0  0
    1.3936    2.8043   -1.5130 H   0  0  0  0  0  0  0  0  0  0  0  0
    0.1955    2.6008   -0.2165 H   0  0  0  0  0  0  0  0  0  0  0  0
    1.7085   -0.0188    1.1413 H   0  0  0  0  0  0  0  0  0  0  0  0
    0.8336   -2.4727    1.5933 H   0  0  0  0  0  0  0  0  0  0  0  0
   -0.4292   -3.0973   -0.4368 H   0  0  0  0  0  0  0  0  0  0  0  0
   -1.5590   -1.7788    0.2259 H   0  0  0  0  0  0  0  0  0  0  0  0
  1  2  3  0
  2  3  1  0
  3  4  1  0
  4  5  1  0
  3  6  1  0
  6  7  2  0
  7  8  1  0
  8  9  1  0
  9  3  1  0
  1 10  1  0
  5 11  1  0
  5 12  1  0
  5 13  1  0
  6 14  1  0
  7 15  1  0
  8 16  1  0
  8 17  1  0
M  END
