
     RDKit          3D

 17 18  0  0  0  0  0  0  0  0999 V2000
    3.2456    0.5526   -0.5617 C   0  0  0  0  0  0  0  0  0  0  0  0
    2.0754    0.3535   -0.4241 C   0  0  0  0  0  0  0  0  0  0  0  0
    0.7800    0.1111   -0.2633 C   0  0  0  0  0  0  0  0  0  0  0  0
   -0.1961    0.9790    0.4891 C   0  0  0  0  0  0  0  0  0  0  0  0
   -1.0259   -0.1717   -0.0469 C   0  0  0  0  0  0  0  0  0  0  0  0
   -2.3329   -0.4136    0.0984 C   0  0  0  0  0  0  0  0  0  0  0  0
   -3.2020    0.1283   -0.6024 O   0  0  0  0  0  0  0  0  0  0  0  0
    0.1261   -1.0546    0.3555 C   0  0  0  0  0  0  0  0  0  0  0  0
   -0.2590    0.0420   -1.3408 C   0  0  0  0  0  0  0  0  0  0  0  0
    4.3073    0.7285   -0.6931 H   0  0  0  0  0  0  0  0  0  0  0  0
   -0.0094    0.9786    1.5659 H   0  0  0  0  0  0  0  0  0  0  0  0
   -0.4119    1.9584    0.0307 H   0  0  0  0  0  0  0  0  0  0  0  0
   -2.7725   -1.1067    0.8413 H   0  0  0  0  0  0  0  0  0  0  0  0
    0.2348   -1.2195    1.4318 H   0  0  0  0  0  0  0  0  0  0  0  0
    0.1415   -1.9770   -0.2804 H   0  0  0  0  0  0  0  0  0  0  0  0
   -0.4826    0.9690   -1.8664 H   0  0  0  0  0  0  0  0  0  0  0  0
   -0.2184   -0.8579   -1.9841 H   0  0  0  0  0  0  0  0  0  0  0  0
  1  2  3  0
  2  3  1  0
  3  4  1  0
  4  5  1  0
  5  6  1  0
  6  7  2  0
  5  8  1  0
  5  9  1  0
  8  3  1  0
  9  3  1  0
  1 10  1  0
  4 11  1  0
  4 12  1  0
  6 13  1  0
  8 14  1  0
  8 15  1  0
  9 16  1  0
  9 17  1  0
M  END
