
     RDKit          3D

 17 17  0  0  0  0  0  0  0  0999 V2000
   -0.1295    2.7916   -0.1415 C   0  0  0  0  0  0  0  0  0  0  0  0
   -0.1122    1.6016    0.1563 C   0  0  0  0  0  0  0  0  0  0  0  0
   -0.0828    0.2144    0.5164 C   0  0  0  0  0  0  0  0  0  0  0  0
   -0.3895    0.0218    1.9908 C   0  0  0  0  0  0  0  0  0  0  0  0
   -0.6078   -0.1348    3.1327 C   0  0  0  0  0  0  0  0  0  0  0  0
    1.2735   -0.4545    0.2328 C   0  0  0  0  0  0  0  0  0  0  0  0
   -0.0185   -0.9499   -0.3301 C   0  0  0  0  0  0  0  0  0  0  0  0
   -0.0668   -0.9237   -1.8414 C   0  0  0  0  0  0  0  0  0  0  0  0
   -1.2464   -0.3855   -2.3266 O   0  0  0  0  0  0  0  0  0  0  0  0
   -0.1560    3.8253   -0.4151 H   0  0  0  0  0  0  0  0  0  0  0  0
   -0.7974   -0.2903    4.1886 H   0  0  0  0  0  0  0  0  0  0  0  0
    1.7206   -1.1028    1.0415 H   0  0  0  0  0  0  0  0  0  0  0  0
    2.0251    0.0924   -0.3182 H   0  0  0  0  0  0  0  0  0  0  0  0
   -0.4709   -1.8974    0.1045 H   0  0  0  0  0  0  0  0  0  0  0  0
    0.8348   -0.4687   -2.2749 H   0  0  0  0  0  0  0  0  0  0  0  0
   -0.0678   -2.0018   -2.1760 H   0  0  0  0  0  0  0  0  0  0  0  0
   -1.7085    0.0621   -1.5397 H   0  0  0  0  0  0  0  0  0  0  0  0
  1  2  3  0
  2  3  1  0
  3  4  1  0
  4  5  3  0
  3  6  1  0
  6  7  1  0
  7  8  1  0
  8  9  1  0
  7  3  1  0
  1 10  1  0
  5 11  1  0
  6 12  1  0
  6 13  1  0
  7 14  1  0
  8 15  1  0
  8 16  1  0
  9 17  1  0
M  END
