
     RDKit          3D

 21 21  0  0  0  0  0  0  0  0999 V2000
   -1.4691    2.4212   -3.4474 C   0  0  0  0  0  0  0  0  0  0  0  0
   -1.1143    2.0046   -2.3778 C   0  0  0  0  0  0  0  0  0  0  0  0
   -0.6860    1.4777   -1.0941 C   0  0  0  0  0  0  0  0  0  0  0  0
   -0.4490    0.0113   -1.1620 C   0  0  0  0  0  0  0  0  0  0  0  0
   -0.0039   -0.5866    0.1438 C   0  0  0  0  0  0  0  0  0  0  0  0
   -0.9379   -0.4425    1.2944 C   0  0  0  0  0  0  0  0  0  0  0  0
    0.3446   -2.0102   -0.0705 O   0  0  0  0  0  0  0  0  0  0  0  0
    1.3844   -1.0618    0.2674 C   0  0  0  0  0  0  0  0  0  0  0  0
    2.0108   -1.3820    1.5856 C   0  0  0  0  0  0  0  0  0  0  0  0
   -1.7712    2.7944   -4.4177 H   0  0  0  0  0  0  0  0  0  0  0  0
   -1.5271    1.6982   -0.3733 H   0  0  0  0  0  0  0  0  0  0  0  0
    0.1748    2.0581   -0.7236 H   0  0  0  0  0  0  0  0  0  0  0  0
   -1.3976   -0.4826   -1.4570 H   0  0  0  0  0  0  0  0  0  0  0  0
    0.2665   -0.1861   -1.9892 H   0  0  0  0  0  0  0  0  0  0  0  0
   -1.0291    0.6410    1.5332 H   0  0  0  0  0  0  0  0  0  0  0  0
   -0.5974   -0.9500    2.2072 H   0  0  0  0  0  0  0  0  0  0  0  0
   -1.9578   -0.8606    1.0807 H   0  0  0  0  0  0  0  0  0  0  0  0
    2.0515   -0.7880   -0.6003 H   0  0  0  0  0  0  0  0  0  0  0  0
    1.4221   -1.0563    2.4579 H   0  0  0  0  0  0  0  0  0  0  0  0
    2.9951   -0.8344    1.6754 H   0  0  0  0  0  0  0  0  0  0  0  0
    2.2904   -2.4657    1.6673 H   0  0  0  0  0  0  0  0  0  0  0  0
  1  2  3  0
  2  3  1  0
  3  4  1  0
  4  5  1  0
  5  6  1  0
  5  7  1  0
  7  8  1  0
  8  9  1  0
  8  5  1  0
  1 10  1  0
  3 11  1  0
  3 12  1  0
  4 13  1  0
  4 14  1  0
  6 15  1  0
  6 16  1  0
  6 17  1  0
  8 18  1  0
  9 19  1  0
  9 20  1  0
  9 21  1  0
M  END
