
     RDKit          3D

 17 17  0  0  0  0  0  0  0  0999 V2000
    3.1683    0.9469    0.4872 C   0  0  0  0  0  0  0  0  0  0  0  0
    2.0111    0.5728    0.4649 C   0  0  0  0  0  0  0  0  0  0  0  0
    0.6742    0.1349    0.4275 C   0  0  0  0  0  0  0  0  0  0  0  0
    0.4985   -1.4128    0.4443 C   0  0  0  0  0  0  0  0  0  0  0  0
   -0.8755   -1.5567    0.1909 O   0  0  0  0  0  0  0  0  0  0  0  0
   -1.2774   -0.4944   -0.6388 C   0  0  0  0  0  0  0  0  0  0  0  0
   -2.2541    0.3310   -0.0632 C   0  0  0  0  0  0  0  0  0  0  0  0
   -3.0365    0.9943    0.3773 C   0  0  0  0  0  0  0  0  0  0  0  0
   -0.0051    0.3448   -0.9085 C   0  0  0  0  0  0  0  0  0  0  0  0
    4.2530    1.2781    0.5096 H   0  0  0  0  0  0  0  0  0  0  0  0
    0.0241    0.5447    1.2502 H   0  0  0  0  0  0  0  0  0  0  0  0
    0.7887   -1.8426    1.4176 H   0  0  0  0  0  0  0  0  0  0  0  0
    1.1289   -1.8050   -0.3587 H   0  0  0  0  0  0  0  0  0  0  0  0
   -1.5751   -0.9243   -1.6300 H   0  0  0  0  0  0  0  0  0  0  0  0
   -3.9233    1.7204    0.8736 H   0  0  0  0  0  0  0  0  0  0  0  0
    0.6159   -0.1980   -1.6853 H   0  0  0  0  0  0  0  0  0  0  0  0
   -0.2159    1.3660   -1.1585 H   0  0  0  0  0  0  0  0  0  0  0  0
  1  2  3  0
  2  3  1  0
  3  4  1  0
  4  5  1  0
  5  6  1  0
  6  7  1  0
  7  8  3  0
  6  9  1  0
  9  3  1  0
  1 10  1  0
  3 11  1  0
  4 12  1  0
  4 13  1  0
  6 14  1  0
  8 15  1  0
  9 16  1  0
  9 17  1  0
M  END
