
     RDKit          3D

 19 20  0  0  0  0  0  0  0  0999 V2000
   -2.5815    1.4240    1.3083 C   0  0  0  0  0  0  0  0  0  0  0  0
   -1.7359    0.5854    1.0467 C   0  0  0  0  0  0  0  0  0  0  0  0
   -0.7421   -0.4336    0.7243 C   0  0  0  0  0  0  0  0  0  0  0  0
   -0.7476   -0.8464   -0.7180 C   0  0  0  0  0  0  0  0  0  0  0  0
    0.1866   -1.9118   -1.2071 C   0  0  0  0  0  0  0  0  0  0  0  0
    1.3155   -1.3627   -0.3850 C   0  0  0  0  0  0  0  0  0  0  0  0
    0.4298   -0.1506   -0.0944 C   0  0  0  0  0  0  0  0  0  0  0  0
    0.7955    1.0585   -0.6068 O   0  0  0  0  0  0  0  0  0  0  0  0
    1.0578    2.0203    0.3454 C   0  0  0  0  0  0  0  0  0  0  0  0
   -3.3334    2.1484    1.5267 H   0  0  0  0  0  0  0  0  0  0  0  0
   -0.6606   -1.3179    1.4248 H   0  0  0  0  0  0  0  0  0  0  0  0
   -1.3962   -0.2979   -1.4289 H   0  0  0  0  0  0  0  0  0  0  0  0
    0.3519   -1.8118   -2.2989 H   0  0  0  0  0  0  0  0  0  0  0  0
   -0.1053   -2.9614   -0.9780 H   0  0  0  0  0  0  0  0  0  0  0  0
    1.5634   -1.9221    0.5214 H   0  0  0  0  0  0  0  0  0  0  0  0
    2.1870   -1.0879   -1.0163 H   0  0  0  0  0  0  0  0  0  0  0  0
    1.8917    1.7249    1.0323 H   0  0  0  0  0  0  0  0  0  0  0  0
    0.1518    2.1711    0.9576 H   0  0  0  0  0  0  0  0  0  0  0  0
    1.3716    2.9714   -0.1539 H   0  0  0  0  0  0  0  0  0  0  0  0
  1  2  3  0
  2  3  1  0
  3  4  1  0
  4  5  1  0
  5  6  1  0
  6  7  1  0
  7  8  1  0
  8  9  1  0
  7  3  1  0
  7  4  1  0
  1 10  1  0
  3 11  1  0
  4 12  1  0
  5 13  1  0
  5 14  1  0
  6 15  1  0
  6 16  1  0
  9 17  1  0
  9 18  1  0
  9 19  1  0
M  END
