
     RDKit          3D

 19 19  0  0  0  0  0  0  0  0999 V2000
    0.5944    2.5754   -0.1309 C   0  0  0  0  0  0  0  0  0  0  0  0
    0.5326    1.3621   -0.2009 C   0  0  0  0  0  0  0  0  0  0  0  0
    0.4717   -0.0775   -0.2932 C   0  0  0  0  0  0  0  0  0  0  0  0
    0.4160   -0.6021   -1.5881 O   0  0  0  0  0  0  0  0  0  0  0  0
   -0.7108   -0.1364   -2.2693 C   0  0  0  0  0  0  0  0  0  0  0  0
   -0.3718   -0.7429    0.7444 C   0  0  0  0  0  0  0  0  0  0  0  0
   -0.9741    0.1159    1.8155 C   0  0  0  0  0  0  0  0  0  0  0  0
    1.0964   -0.9447    0.7658 C   0  0  0  0  0  0  0  0  0  0  0  0
    1.5984   -2.1961    0.3125 O   0  0  0  0  0  0  0  0  0  0  0  0
    0.6360    3.6690   -0.0611 H   0  0  0  0  0  0  0  0  0  0  0  0
   -0.5803    0.9609   -2.3688 H   0  0  0  0  0  0  0  0  0  0  0  0
   -1.6415   -0.3374   -1.6851 H   0  0  0  0  0  0  0  0  0  0  0  0
   -0.7280   -0.5957   -3.2638 H   0  0  0  0  0  0  0  0  0  0  0  0
   -0.9972   -1.6254    0.4740 H   0  0  0  0  0  0  0  0  0  0  0  0
   -2.0918   -0.0613    1.9095 H   0  0  0  0  0  0  0  0  0  0  0  0
   -0.5623   -0.0600    2.8329 H   0  0  0  0  0  0  0  0  0  0  0  0
   -0.8786    1.2170    1.5887 H   0  0  0  0  0  0  0  0  0  0  0  0
    1.7162   -0.4710    1.5520 H   0  0  0  0  0  0  0  0  0  0  0  0
    2.4748   -2.0498   -0.1343 H   0  0  0  0  0  0  0  0  0  0  0  0
  1  2  3  0
  2  3  1  0
  3  4  1  0
  4  5  1  0
  3  6  1  0
  6  7  1  0
  6  8  1  0
  8  9  1  0
  8  3  1  0
  1 10  1  0
  5 11  1  0
  5 12  1  0
  5 13  1  0
  6 14  1  0
  7 15  1  0
  7 16  1  0
  7 17  1  0
  8 18  1  0
  9 19  1  0
M  END
