
     RDKit          3D

 21 22  0  0  0  0  0  0  0  0999 V2000
   -1.5553    2.0069    2.4944 C   0  0  0  0  0  0  0  0  0  0  0  0
   -1.2313    1.4657    1.4514 C   0  0  0  0  0  0  0  0  0  0  0  0
   -0.8339    0.8102    0.2318 C   0  0  0  0  0  0  0  0  0  0  0  0
   -1.7803   -0.3519   -0.1021 C   0  0  0  0  0  0  0  0  0  0  0  0
   -0.8809   -1.2014    0.7962 C   0  0  0  0  0  0  0  0  0  0  0  0
    0.2412   -0.2657    0.3904 C   0  0  0  0  0  0  0  0  0  0  0  0
    0.8683   -0.6352   -0.9145 C   0  0  0  0  0  0  0  0  0  0  0  0
    1.5567    0.4431   -1.6675 C   0  0  0  0  0  0  0  0  0  0  0  0
    2.3485   -0.6091   -0.9614 C   0  0  0  0  0  0  0  0  0  0  0  0
   -1.8359    2.4968    3.3991 H   0  0  0  0  0  0  0  0  0  0  0  0
   -0.6716    1.4482   -0.6442 H   0  0  0  0  0  0  0  0  0  0  0  0
   -2.7600   -0.2356    0.3616 H   0  0  0  0  0  0  0  0  0  0  0  0
   -1.7270   -0.6947   -1.1381 H   0  0  0  0  0  0  0  0  0  0  0  0
   -1.1359   -1.1726    1.8576 H   0  0  0  0  0  0  0  0  0  0  0  0
   -0.7203   -2.2214    0.3644 H   0  0  0  0  0  0  0  0  0  0  0  0
    0.9400   -0.0415    1.2219 H   0  0  0  0  0  0  0  0  0  0  0  0
    0.3952   -1.4830   -1.4398 H   0  0  0  0  0  0  0  0  0  0  0  0
    1.4225    0.3905   -2.7767 H   0  0  0  0  0  0  0  0  0  0  0  0
    1.5124    1.4726   -1.2512 H   0  0  0  0  0  0  0  0  0  0  0  0
    2.9041   -1.3713   -1.5702 H   0  0  0  0  0  0  0  0  0  0  0  0
    2.9433   -0.2505   -0.1030 H   0  0  0  0  0  0  0  0  0  0  0  0
  1  2  3  0
  2  3  1  0
  3  4  1  0
  4  5  1  0
  5  6  1  0
  6  7  1  0
  7  8  1  0
  8  9  1  0
  6  3  1  0
  9  7  1  0
  1 10  1  0
  3 11  1  0
  4 12  1  0
  4 13  1  0
  5 14  1  0
  5 15  1  0
  6 16  1  0
  7 17  1  0
  8 18  1  0
  8 19  1  0
  9 20  1  0
  9 21  1  0
M  END
