
     RDKit          3D

 21 21  0  0  0  0  0  0  0  0999 V2000
   -0.1943    2.8877   -1.3203 C   0  0  0  0  0  0  0  0  0  0  0  0
    0.2116    1.7598   -1.1486 C   0  0  0  0  0  0  0  0  0  0  0  0
    0.7105    0.4102   -0.9497 C   0  0  0  0  0  0  0  0  0  0  0  0
    1.2371    0.3518    0.4940 C   0  0  0  0  0  0  0  0  0  0  0  0
   -0.0329    0.1091    1.2492 C   0  0  0  0  0  0  0  0  0  0  0  0
    0.2112   -0.5702    2.5825 C   0  0  0  0  0  0  0  0  0  0  0  0
   -0.8018   -0.7627    0.3233 C   0  0  0  0  0  0  0  0  0  0  0  0
   -0.3856   -0.5966   -0.9243 C   0  0  0  0  0  0  0  0  0  0  0  0
   -0.9628   -1.3312   -2.0800 C   0  0  0  0  0  0  0  0  0  0  0  0
   -0.5607    3.8841   -1.4551 H   0  0  0  0  0  0  0  0  0  0  0  0
    1.5071    0.1555   -1.6706 H   0  0  0  0  0  0  0  0  0  0  0  0
    1.9441   -0.4833    0.5521 H   0  0  0  0  0  0  0  0  0  0  0  0
    1.7170    1.3217    0.7489 H   0  0  0  0  0  0  0  0  0  0  0  0
   -0.5383    1.0865    1.3972 H   0  0  0  0  0  0  0  0  0  0  0  0
    1.3038   -0.7229    2.6841 H   0  0  0  0  0  0  0  0  0  0  0  0
   -0.3394   -1.5360    2.5925 H   0  0  0  0  0  0  0  0  0  0  0  0
   -0.2154    0.0876    3.3640 H   0  0  0  0  0  0  0  0  0  0  0  0
   -1.6012   -1.4412    0.6634 H   0  0  0  0  0  0  0  0  0  0  0  0
   -1.0759   -2.4075   -1.8029 H   0  0  0  0  0  0  0  0  0  0  0  0
   -1.9326   -0.9132   -2.4051 H   0  0  0  0  0  0  0  0  0  0  0  0
   -0.2014   -1.2892   -2.8943 H   0  0  0  0  0  0  0  0  0  0  0  0
  1  2  3  0
  2  3  1  0
  3  4  1  0
  4  5  1  0
  5  6  1  0
  5  7  1  0
  7  8  2  0
  8  9  1  0
  8  3  1  0
  1 10  1  0
  3 11  1  0
  4 12  1  0
  4 13  1  0
  5 14  1  0
  6 15  1  0
  6 16  1  0
  6 17  1  0
  7 18  1  0
  9 19  1  0
  9 20  1  0
  9 21  1  0
M  END
