
     RDKit          3D

 15 15  0  0  0  0  0  0  0  0999 V2000
    2.6214    1.7147   -1.5568 C   0  0  0  0  0  0  0  0  0  0  0  0
    1.6536    1.1049   -1.1908 C   0  0  0  0  0  0  0  0  0  0  0  0
    0.4831    0.3448   -0.7470 C   0  0  0  0  0  0  0  0  0  0  0  0
    0.8206   -0.9902   -0.4734 O   0  0  0  0  0  0  0  0  0  0  0  0
   -0.3388   -1.3695    0.2375 C   0  0  0  0  0  0  0  0  0  0  0  0
   -0.4443   -0.2224    1.2029 C   0  0  0  0  0  0  0  0  0  0  0  0
   -1.8800   -0.0667    1.6360 C   0  0  0  0  0  0  0  0  0  0  0  0
   -2.5465    0.8645    1.2974 O   0  0  0  0  0  0  0  0  0  0  0  0
   -0.0830    0.8493    0.3951 O   0  0  0  0  0  0  0  0  0  0  0  0
    3.4873    2.2788   -1.8925 H   0  0  0  0  0  0  0  0  0  0  0  0
   -0.2317    0.3085   -1.6179 H   0  0  0  0  0  0  0  0  0  0  0  0
   -0.2383   -2.3441    0.7053 H   0  0  0  0  0  0  0  0  0  0  0  0
   -1.2289   -1.2946   -0.4525 H   0  0  0  0  0  0  0  0  0  0  0  0
    0.1948   -0.3310    2.0956 H   0  0  0  0  0  0  0  0  0  0  0  0
   -2.2694   -0.8469    2.2701 H   0  0  0  0  0  0  0  0  0  0  0  0
  1  2  3  0
  2  3  1  0
  3  4  1  0
  4  5  1  0
  5  6  1  0
  6  7  1  0
  7  8  2  0
  6  9  1  0
  9  3  1  0
  1 10  1  0
  3 11  1  0
  5 12  1  0
  5 13  1  0
  6 14  1  0
  7 15  1  0
M  END
