
     RDKit          3D

 19 18  0  0  0  0  0  0  0  0999 V2000
    2.5008    0.6888    0.8047 C   0  0  0  0  0  0  0  0  0  0  0  0
    1.8161    0.2448   -0.0707 C   0  0  0  0  0  0  0  0  0  0  0  0
    1.0065   -0.3064   -1.1377 C   0  0  0  0  0  0  0  0  0  0  0  0
   -0.4259   -0.5072   -0.7160 C   0  0  0  0  0  0  0  0  0  0  0  0
   -0.5874   -1.4395    0.4559 C   0  0  0  0  0  0  0  0  0  0  0  0
    0.0594   -1.0206    1.6036 O   0  0  0  0  0  0  0  0  0  0  0  0
   -1.2110    0.7729   -0.5815 C   0  0  0  0  0  0  0  0  0  0  0  0
   -0.7048    1.7288    0.3947 C   0  0  0  0  0  0  0  0  0  0  0  0
   -0.4960    1.5232    1.5392 O   0  0  0  0  0  0  0  0  0  0  0  0
    3.1294    1.0896    1.5782 H   0  0  0  0  0  0  0  0  0  0  0  0
    1.3889   -1.2961   -1.5058 H   0  0  0  0  0  0  0  0  0  0  0  0
    0.9653    0.3713   -2.0257 H   0  0  0  0  0  0  0  0  0  0  0  0
   -0.8800   -1.0799   -1.5898 H   0  0  0  0  0  0  0  0  0  0  0  0
   -1.6961   -1.5171    0.6345 H   0  0  0  0  0  0  0  0  0  0  0  0
   -0.2698   -2.4557    0.1683 H   0  0  0  0  0  0  0  0  0  0  0  0
   -0.5199   -1.2099    2.3787 H   0  0  0  0  0  0  0  0  0  0  0  0
   -2.2628    0.4368   -0.3239 H   0  0  0  0  0  0  0  0  0  0  0  0
   -1.3153    1.2198   -1.6096 H   0  0  0  0  0  0  0  0  0  0  0  0
   -0.4974    2.7566    0.0028 H   0  0  0  0  0  0  0  0  0  0  0  0
  1  2  3  0
  2  3  1  0
  3  4  1  0
  4  5  1  0
  5  6  1  0
  4  7  1  0
  7  8  1  0
  8  9  2  0
  1 10  1  0
  3 11  1  0
  3 12  1  0
  4 13  1  0
  5 14  1  0
  5 15  1  0
  6 16  1  0
  7 17  1  0
  7 18  1  0
  8 19  1  0
M  END
