
     RDKit          3D

 16 17  0  0  0  0  0  0  0  0999 V2000
    3.0931   -0.7420    0.1803 C   0  0  0  0  0  0  0  0  0  0  0  0
    2.0149   -0.2053    0.1938 C   0  0  0  0  0  0  0  0  0  0  0  0
    0.7253    0.4455    0.2335 C   0  0  0  0  0  0  0  0  0  0  0  0
    0.4642    1.6367   -0.5751 C   0  0  0  0  0  0  0  0  0  0  0  0
   -0.0631    0.3735   -1.0883 C   0  0  0  0  0  0  0  0  0  0  0  0
   -0.7989   -0.6282   -0.2706 C   0  0  0  0  0  0  0  0  0  0  0  0
   -2.3182   -0.5688   -0.3970 C   0  0  0  0  0  0  0  0  0  0  0  0
   -0.3273   -0.1350    0.9306 O   0  0  0  0  0  0  0  0  0  0  0  0
    4.0672   -1.2063    0.1701 H   0  0  0  0  0  0  0  0  0  0  0  0
   -0.3081    2.3890   -0.2538 H   0  0  0  0  0  0  0  0  0  0  0  0
    1.3440    2.0935   -1.0795 H   0  0  0  0  0  0  0  0  0  0  0  0
    0.4695   -0.0592   -1.9694 H   0  0  0  0  0  0  0  0  0  0  0  0
   -0.4266   -1.6807   -0.4137 H   0  0  0  0  0  0  0  0  0  0  0  0
   -2.5976   -1.0066   -1.3799 H   0  0  0  0  0  0  0  0  0  0  0  0
   -2.7342   -1.1834    0.4472 H   0  0  0  0  0  0  0  0  0  0  0  0
   -2.6043    0.4773   -0.2922 H   0  0  0  0  0  0  0  0  0  0  0  0
  1  2  3  0
  2  3  1  0
  3  4  1  0
  4  5  1  0
  5  6  1  0
  6  7  1  0
  6  8  1  0
  5  3  1  0
  8  3  1  0
  1  9  1  0
  4 10  1  0
  4 11  1  0
  5 12  1  0
  6 13  1  0
  7 14  1  0
  7 15  1  0
  7 16  1  0
M  END
