
     RDKit          3D

 21 22  0  0  0  0  0  0  0  0999 V2000
    3.3653   -0.3673   -0.7876 C   0  0  0  0  0  0  0  0  0  0  0  0
    2.3189   -0.2942   -0.1698 C   0  0  0  0  0  0  0  0  0  0  0  0
    1.0618   -0.1970    0.5454 C   0  0  0  0  0  0  0  0  0  0  0  0
    0.0812    0.7489   -0.1392 C   0  0  0  0  0  0  0  0  0  0  0  0
    0.3071    0.9905   -1.5787 C   0  0  0  0  0  0  0  0  0  0  0  0
   -1.0244   -0.1430    0.2927 C   0  0  0  0  0  0  0  0  0  0  0  0
   -1.9134    0.5205    1.1968 C   0  0  0  0  0  0  0  0  0  0  0  0
   -1.1615   -1.5660    0.6304 C   0  0  0  0  0  0  0  0  0  0  0  0
   -0.0063   -1.1255    0.0743 C   0  0  0  0  0  0  0  0  0  0  0  0
    4.2902   -0.4134   -1.3338 H   0  0  0  0  0  0  0  0  0  0  0  0
    1.1663   -0.0554    1.6351 H   0  0  0  0  0  0  0  0  0  0  0  0
    0.1937    1.7306    0.4099 H   0  0  0  0  0  0  0  0  0  0  0  0
   -0.6371    1.4536   -1.9918 H   0  0  0  0  0  0  0  0  0  0  0  0
    0.5744    0.1550   -2.2163 H   0  0  0  0  0  0  0  0  0  0  0  0
    1.0714    1.8124   -1.6826 H   0  0  0  0  0  0  0  0  0  0  0  0
   -2.0430    0.1313    2.2411 H   0  0  0  0  0  0  0  0  0  0  0  0
   -2.9709    0.4918    0.7899 H   0  0  0  0  0  0  0  0  0  0  0  0
   -1.7664    1.6290    1.3705 H   0  0  0  0  0  0  0  0  0  0  0  0
   -1.9459   -2.1052    0.0419 H   0  0  0  0  0  0  0  0  0  0  0  0
   -1.1430   -1.9873    1.6817 H   0  0  0  0  0  0  0  0  0  0  0  0
    0.1816   -1.4092   -1.0098 H   0  0  0  0  0  0  0  0  0  0  0  0
  1  2  3  0
  2  3  1  0
  3  4  1  0
  4  5  1  0
  4  6  1  0
  6  7  1  0
  6  8  1  0
  8  9  1  0
  9  3  1  0
  9  6  1  0
  1 10  1  0
  3 11  1  0
  4 12  1  0
  5 13  1  0
  5 14  1  0
  5 15  1  0
  7 16  1  0
  7 17  1  0
  7 18  1  0
  8 19  1  0
  8 20  1  0
  9 21  1  0
M  END
