
     RDKit          3D

 13 14  0  0  0  0  0  0  0  0999 V2000
    2.8466    0.5736    0.1935 C   0  0  0  0  0  0  0  0  0  0  0  0
    1.7233    0.1425    0.1834 C   0  0  0  0  0  0  0  0  0  0  0  0
    0.3646   -0.3943    0.1919 C   0  0  0  0  0  0  0  0  0  0  0  0
   -0.4737   -0.3189   -1.0590 C   0  0  0  0  0  0  0  0  0  0  0  0
   -1.6584    0.0467   -0.1547 C   0  0  0  0  0  0  0  0  0  0  0  0
   -0.6398    0.1050    0.9896 C   0  0  0  0  0  0  0  0  0  0  0  0
   -0.0772   -1.1316    1.2791 O   0  0  0  0  0  0  0  0  0  0  0  0
    3.8446    0.9559    0.2211 H   0  0  0  0  0  0  0  0  0  0  0  0
   -0.1553    0.4978   -1.7138 H   0  0  0  0  0  0  0  0  0  0  0  0
   -0.5776   -1.3151   -1.5143 H   0  0  0  0  0  0  0  0  0  0  0  0
   -2.3489   -0.7866    0.0430 H   0  0  0  0  0  0  0  0  0  0  0  0
   -2.1411    0.9961   -0.3909 H   0  0  0  0  0  0  0  0  0  0  0  0
   -0.7072    0.8936    1.7310 H   0  0  0  0  0  0  0  0  0  0  0  0
  1  2  3  0
  2  3  1  0
  3  4  1  0
  4  5  1  0
  5  6  1  0
  6  7  1  0
  6  3  1  0
  7  3  1  0
  1  8  1  0
  4  9  1  0
  4 10  1  0
  5 11  1  0
  5 12  1  0
  6 13  1  0
M  END
