
     RDKit          3D

 17 16  0  0  0  0  0  0  0  0999 V2000
    4.4455    0.8852   -0.0979 C   0  0  0  0  0  0  0  0  0  0  0  0
    3.3022    0.5324    0.1379 C   0  0  0  0  0  0  0  0  0  0  0  0
    1.9649    0.0937    0.4139 C   0  0  0  0  0  0  0  0  0  0  0  0
    1.6836   -1.0198    0.9181 O   0  0  0  0  0  0  0  0  0  0  0  0
    0.9080    0.9392    0.1112 O   0  0  0  0  0  0  0  0  0  0  0  0
   -0.4206    0.6026    0.3420 C   0  0  0  0  0  0  0  0  0  0  0  0
   -0.8932   -0.6213   -0.3815 C   0  0  0  0  0  0  0  0  0  0  0  0
   -2.3616   -0.8221   -0.0017 C   0  0  0  0  0  0  0  0  0  0  0  0
   -3.1181    0.3001   -0.3868 O   0  0  0  0  0  0  0  0  0  0  0  0
    5.4471    1.1799   -0.2965 H   0  0  0  0  0  0  0  0  0  0  0  0
   -0.6773    0.4805    1.4203 H   0  0  0  0  0  0  0  0  0  0  0  0
   -1.0495    1.4561   -0.0227 H   0  0  0  0  0  0  0  0  0  0  0  0
   -0.3749   -1.5458   -0.0552 H   0  0  0  0  0  0  0  0  0  0  0  0
   -0.8622   -0.5193   -1.4778 H   0  0  0  0  0  0  0  0  0  0  0  0
   -2.7857   -1.7285   -0.4725 H   0  0  0  0  0  0  0  0  0  0  0  0
   -2.4931   -0.9139    1.0896 H   0  0  0  0  0  0  0  0  0  0  0  0
   -2.7152    0.7009   -1.2142 H   0  0  0  0  0  0  0  0  0  0  0  0
  1  2  3  0
  2  3  1  0
  3  4  2  0
  3  5  1  0
  5  6  1  0
  6  7  1  0
  7  8  1  0
  8  9  1  0
  1 10  1  0
  6 11  1  0
  6 12  1  0
  7 13  1  0
  7 14  1  0
  8 15  1  0
  8 16  1  0
  9 17  1  0
M  END
