
     RDKit          3D

 21 21  0  0  0  0  0  0  0  0999 V2000
    2.7523   -1.5155   -0.8989 C   0  0  0  0  0  0  0  0  0  0  0  0
    2.1467   -0.7789   -0.4717 C   0  0  0  0  0  0  0  0  0  0  0  0
    1.2481    0.3196    0.1936 C   0  0  0  0  0  0  0  0  0  0  0  0
   -0.1579   -0.1166    0.0277 C   0  0  0  0  0  0  0  0  0  0  0  0
   -0.2988   -1.4975    0.7005 C   0  0  0  0  0  0  0  0  0  0  0  0
   -0.6884   -0.1725   -1.3578 C   0  0  0  0  0  0  0  0  0  0  0  0
   -1.0804    0.7803    0.8736 C   0  0  0  0  0  0  0  0  0  0  0  0
   -1.1217    2.2070    0.6293 C   0  0  0  0  0  0  0  0  0  0  0  0
   -2.2307    1.2776    0.3016 O   0  0  0  0  0  0  0  0  0  0  0  0
    3.3563   -2.2622   -1.3456 H   0  0  0  0  0  0  0  0  0  0  0  0
    1.4203    1.2458   -0.3750 H   0  0  0  0  0  0  0  0  0  0  0  0
    1.5395    0.4184    1.2381 H   0  0  0  0  0  0  0  0  0  0  0  0
   -1.3363   -1.8673    0.5670 H   0  0  0  0  0  0  0  0  0  0  0  0
   -0.0601   -1.3449    1.7643 H   0  0  0  0  0  0  0  0  0  0  0  0
    0.4455   -2.1551    0.2263 H   0  0  0  0  0  0  0  0  0  0  0  0
   -1.0037   -1.2220   -1.6413 H   0  0  0  0  0  0  0  0  0  0  0  0
   -1.6290    0.4377   -1.4872 H   0  0  0  0  0  0  0  0  0  0  0  0
    0.0348    0.1363   -2.1595 H   0  0  0  0  0  0  0  0  0  0  0  0
   -1.1669    0.4652    1.9325 H   0  0  0  0  0  0  0  0  0  0  0  0
   -0.7717    2.7859   -0.2155 H   0  0  0  0  0  0  0  0  0  0  0  0
   -1.3979    2.8587    1.4981 H   0  0  0  0  0  0  0  0  0  0  0  0
  1  2  3  0
  2  3  1  0
  3  4  1  0
  4  5  1  0
  4  6  1  0
  4  7  1  0
  7  8  1  0
  8  9  1  0
  9  7  1  0
  1 10  1  0
  3 11  1  0
  3 12  1  0
  5 13  1  0
  5 14  1  0
  5 15  1  0
  6 16  1  0
  6 17  1  0
  6 18  1  0
  7 19  1  0
  8 20  1  0
  8 21  1  0
M  END
