
     RDKit          3D

 21 21  0  0  0  0  0  0  0  0999 V2000
    3.6358    0.8025    1.1035 C   0  0  0  0  0  0  0  0  0  0  0  0
    2.5488    0.8069    0.5786 C   0  0  0  0  0  0  0  0  0  0  0  0
    1.2135    0.8040   -0.0403 C   0  0  0  0  0  0  0  0  0  0  0  0
    0.9149   -0.3815   -0.8889 C   0  0  0  0  0  0  0  0  0  0  0  0
    1.8334   -1.4203   -0.9840 O   0  0  0  0  0  0  0  0  0  0  0  0
    0.1759   -0.1397    0.3903 C   0  0  0  0  0  0  0  0  0  0  0  0
   -1.2743    0.1945    0.4059 C   0  0  0  0  0  0  0  0  0  0  0  0
   -1.8350    0.5656   -0.9407 C   0  0  0  0  0  0  0  0  0  0  0  0
   -2.0607   -0.9847    0.9788 C   0  0  0  0  0  0  0  0  0  0  0  0
    4.6005    0.7834    1.5816 H   0  0  0  0  0  0  0  0  0  0  0  0
    0.9520    1.7982   -0.4738 H   0  0  0  0  0  0  0  0  0  0  0  0
    0.3592   -0.2014   -1.8319 H   0  0  0  0  0  0  0  0  0  0  0  0
    2.7326   -1.1150   -1.2433 H   0  0  0  0  0  0  0  0  0  0  0  0
    0.4802   -0.8456    1.2178 H   0  0  0  0  0  0  0  0  0  0  0  0
   -1.4233    1.0617    1.0861 H   0  0  0  0  0  0  0  0  0  0  0  0
   -2.9498    0.6619   -0.7986 H   0  0  0  0  0  0  0  0  0  0  0  0
   -1.4810    1.5779   -1.1916 H   0  0  0  0  0  0  0  0  0  0  0  0
   -1.6774   -0.1783   -1.7167 H   0  0  0  0  0  0  0  0  0  0  0  0
   -2.6172   -1.4827    0.1510 H   0  0  0  0  0  0  0  0  0  0  0  0
   -2.7724   -0.6279    1.7391 H   0  0  0  0  0  0  0  0  0  0  0  0
   -1.3557   -1.6795    1.4611 H   0  0  0  0  0  0  0  0  0  0  0  0
  1  2  3  0
  2  3  1  0
  3  4  1  0
  4  5  1  0
  4  6  1  0
  6  7  1  0
  7  8  1  0
  7  9  1  0
  6  3  1  0
  1 10  1  0
  3 11  1  0
  4 12  1  0
  5 13  1  0
  6 14  1  0
  7 15  1  0
  8 16  1  0
  8 17  1  0
  8 18  1  0
  9 19  1  0
  9 20  1  0
  9 21  1  0
M  END
