
     RDKit          3D

 16 16  0  0  0  0  0  0  0  0999 V2000
    0.1598    1.3765    2.2725 C   0  0  0  0  0  0  0  0  0  0  0  0
   -0.0066    0.8363    1.2246 C   0  0  0  0  0  0  0  0  0  0  0  0
   -0.1899    0.2208   -0.0161 C   0  0  0  0  0  0  0  0  0  0  0  0
   -0.4075    1.2334   -1.1541 C   0  0  0  0  0  0  0  0  0  0  0  0
    1.0836   -0.6527   -0.3836 C   0  0  0  0  0  0  0  0  0  0  0  0
    0.2977   -1.6988    0.3803 C   0  0  0  0  0  0  0  0  0  0  0  0
    0.7492   -2.5919    1.0611 O   0  0  0  0  0  0  0  0  0  0  0  0
   -0.8876   -1.0793   -0.1251 C   0  0  0  0  0  0  0  0  0  0  0  0
    0.3073    1.8944    3.2624 H   0  0  0  0  0  0  0  0  0  0  0  0
   -0.8995    0.6546   -1.9583 H   0  0  0  0  0  0  0  0  0  0  0  0
    0.6513    1.4741   -1.5208 H   0  0  0  0  0  0  0  0  0  0  0  0
   -0.9816    2.0757   -0.8276 H   0  0  0  0  0  0  0  0  0  0  0  0
    1.9994   -0.2916    0.0195 H   0  0  0  0  0  0  0  0  0  0  0  0
    1.0438   -0.8906   -1.4737 H   0  0  0  0  0  0  0  0  0  0  0  0
   -1.0688   -1.4033   -1.2060 H   0  0  0  0  0  0  0  0  0  0  0  0
   -1.8507   -1.1576    0.4448 H   0  0  0  0  0  0  0  0  0  0  0  0
  1  2  3  0
  2  3  1  0
  3  4  1  0
  3  5  1  0
  5  6  1  0
  6  7  2  0
  6  8  1  0
  8  3  1  0
  1  9  1  0
  4 10  1  0
  4 11  1  0
  4 12  1  0
  5 13  1  0
  5 14  1  0
  8 15  1  0
  8 16  1  0
M  END
