
     RDKit          3D

 17 16  0  0  0  0  0  0  0  0999 V2000
    2.7159    0.5535   -1.9024 C   0  0  0  0  0  0  0  0  0  0  0  0
    1.8275    1.0980   -1.2433 C   0  0  0  0  0  0  0  0  0  0  0  0
    0.7877    1.7585   -0.4829 C   0  0  0  0  0  0  0  0  0  0  0  0
   -0.2890    0.9014   -0.3747 O   0  0  0  0  0  0  0  0  0  0  0  0
    0.0594   -0.2915    0.2541 C   0  0  0  0  0  0  0  0  0  0  0  0
   -1.0990   -1.2142    0.4142 C   0  0  0  0  0  0  0  0  0  0  0  0
   -0.6974   -2.4032    1.0284 O   0  0  0  0  0  0  0  0  0  0  0  0
   -2.0688   -0.5959    1.3926 C   0  0  0  0  0  0  0  0  0  0  0  0
   -2.8239   -0.0899    2.1630 C   0  0  0  0  0  0  0  0  0  0  0  0
    3.4880    0.0764   -2.4551 H   0  0  0  0  0  0  0  0  0  0  0  0
    1.1544    2.0595    0.5242 H   0  0  0  0  0  0  0  0  0  0  0  0
    0.4059    2.6987   -0.9797 H   0  0  0  0  0  0  0  0  0  0  0  0
    0.5432   -0.1084    1.2456 H   0  0  0  0  0  0  0  0  0  0  0  0
    0.8403   -0.7704   -0.3691 H   0  0  0  0  0  0  0  0  0  0  0  0
   -1.5816   -1.3985   -0.5541 H   0  0  0  0  0  0  0  0  0  0  0  0
    0.2317   -2.6404    0.7699 H   0  0  0  0  0  0  0  0  0  0  0  0
   -3.4944    0.3662    2.8275 H   0  0  0  0  0  0  0  0  0  0  0  0
  1  2  3  0
  2  3  1  0
  3  4  1  0
  4  5  1  0
  5  6  1  0
  6  7  1  0
  6  8  1  0
  8  9  3  0
  1 10  1  0
  3 11  1  0
  3 12  1  0
  5 13  1  0
  5 14  1  0
  6 15  1  0
  7 16  1  0
  9 17  1  0
M  END
