
     RDKit          3D

 19 19  0  0  0  0  0  0  0  0999 V2000
    4.1954   -1.9353    1.3285 C   0  0  0  0  0  0  0  0  0  0  0  0
    3.2476   -1.2156    1.1120 C   0  0  0  0  0  0  0  0  0  0  0  0
    2.1446   -0.3485    0.8484 C   0  0  0  0  0  0  0  0  0  0  0  0
    1.2212    0.4003    0.6269 C   0  0  0  0  0  0  0  0  0  0  0  0
    0.0873    1.2991    0.3671 C   0  0  0  0  0  0  0  0  0  0  0  0
   -1.0057    0.4668   -0.2439 C   0  0  0  0  0  0  0  0  0  0  0  0
   -1.4708   -0.6648    0.6600 C   0  0  0  0  0  0  0  0  0  0  0  0
   -1.9583    1.0701   -1.2180 C   0  0  0  0  0  0  0  0  0  0  0  0
   -0.8634    0.2024   -1.7144 C   0  0  0  0  0  0  0  0  0  0  0  0
    5.0345   -2.5558    1.5169 H   0  0  0  0  0  0  0  0  0  0  0  0
   -0.2506    1.8188    1.2838 H   0  0  0  0  0  0  0  0  0  0  0  0
    0.3544    2.0920   -0.3790 H   0  0  0  0  0  0  0  0  0  0  0  0
   -2.2616   -1.2387    0.1545 H   0  0  0  0  0  0  0  0  0  0  0  0
   -1.8257   -0.1792    1.6011 H   0  0  0  0  0  0  0  0  0  0  0  0
   -0.6271   -1.3469    0.9003 H   0  0  0  0  0  0  0  0  0  0  0  0
   -2.9800    0.6387   -1.2006 H   0  0  0  0  0  0  0  0  0  0  0  0
   -1.9166    2.1499   -1.3907 H   0  0  0  0  0  0  0  0  0  0  0  0
   -1.0735   -0.8582   -1.9923 H   0  0  0  0  0  0  0  0  0  0  0  0
   -0.0518    0.7398   -2.2608 H   0  0  0  0  0  0  0  0  0  0  0  0
  1  2  3  0
  2  3  1  0
  3  4  3  0
  4  5  1  0
  5  6  1  0
  6  7  1  0
  6  8  1  0
  8  9  1  0
  9  6  1  0
  1 10  1  0
  5 11  1  0
  5 12  1  0
  7 13  1  0
  7 14  1  0
  7 15  1  0
  8 16  1  0
  8 17  1  0
  9 18  1  0
  9 19  1  0
M  END
