
     RDKit          3D

 19 19  0  0  0  0  0  0  0  0999 V2000
   -1.1181    2.6608   -1.0513 C   0  0  0  0  0  0  0  0  0  0  0  0
   -0.7861    1.4525   -0.7796 C   0  0  0  0  0  0  0  0  0  0  0  0
   -0.4309    0.1571   -0.5072 C   0  0  0  0  0  0  0  0  0  0  0  0
   -1.0138   -0.3119    0.8055 C   0  0  0  0  0  0  0  0  0  0  0  0
   -0.4131    0.5352    1.9362 C   0  0  0  0  0  0  0  0  0  0  0  0
   -0.3456   -0.7146   -1.5124 O   0  0  0  0  0  0  0  0  0  0  0  0
    0.9070   -1.3055   -1.6225 C   0  0  0  0  0  0  0  0  0  0  0  0
    1.4594   -1.0067   -0.2044 C   0  0  0  0  0  0  0  0  0  0  0  0
    1.0157    0.2747   -0.0762 O   0  0  0  0  0  0  0  0  0  0  0  0
   -1.4135    3.7159   -1.3058 H   0  0  0  0  0  0  0  0  0  0  0  0
   -0.8230   -1.3571    1.0694 H   0  0  0  0  0  0  0  0  0  0  0  0
   -2.1183   -0.1461    0.7336 H   0  0  0  0  0  0  0  0  0  0  0  0
   -1.1549    0.5292    2.7339 H   0  0  0  0  0  0  0  0  0  0  0  0
   -0.1821    1.5387    1.6244 H   0  0  0  0  0  0  0  0  0  0  0  0
    0.5039   -0.0218    2.2401 H   0  0  0  0  0  0  0  0  0  0  0  0
    0.8750   -2.3850   -1.8087 H   0  0  0  0  0  0  0  0  0  0  0  0
    1.5195   -0.8188   -2.3946 H   0  0  0  0  0  0  0  0  0  0  0  0
    2.5656   -1.0970   -0.1927 H   0  0  0  0  0  0  0  0  0  0  0  0
    0.9533   -1.6996    0.4561 H   0  0  0  0  0  0  0  0  0  0  0  0
  1  2  3  0
  2  3  1  0
  3  4  1  0
  4  5  1  0
  3  6  1  0
  6  7  1  0
  7  8  1  0
  8  9  1  0
  9  3  1  0
  1 10  1  0
  4 11  1  0
  4 12  1  0
  5 13  1  0
  5 14  1  0
  5 15  1  0
  7 16  1  0
  7 17  1  0
  8 18  1  0
  8 19  1  0
M  END
