
     RDKit          3D

 19 19  0  0  0  0  0  0  0  0999 V2000
    2.1204    2.3366   -0.5870 C   0  0  0  0  0  0  0  0  0  0  0  0
    1.5462    1.2816   -0.4391 C   0  0  0  0  0  0  0  0  0  0  0  0
    0.8467   -0.0007   -0.2584 C   0  0  0  0  0  0  0  0  0  0  0  0
    1.8176   -1.1695   -0.4507 C   0  0  0  0  0  0  0  0  0  0  0  0
    0.4105   -0.0499    1.0462 O   0  0  0  0  0  0  0  0  0  0  0  0
   -0.6892   -0.9058    0.9638 C   0  0  0  0  0  0  0  0  0  0  0  0
   -1.3429   -0.4308   -0.3064 C   0  0  0  0  0  0  0  0  0  0  0  0
   -2.2000    0.7724    0.0133 C   0  0  0  0  0  0  0  0  0  0  0  0
   -0.2435   -0.1037   -1.0891 O   0  0  0  0  0  0  0  0  0  0  0  0
    2.6149    3.2677   -0.7016 H   0  0  0  0  0  0  0  0  0  0  0  0
    1.4581   -2.0770    0.0386 H   0  0  0  0  0  0  0  0  0  0  0  0
    1.9841   -1.2597   -1.5385 H   0  0  0  0  0  0  0  0  0  0  0  0
    2.7554   -0.8499    0.0895 H   0  0  0  0  0  0  0  0  0  0  0  0
   -1.3873   -0.7554    1.8107 H   0  0  0  0  0  0  0  0  0  0  0  0
   -0.3759   -1.9667    0.9254 H   0  0  0  0  0  0  0  0  0  0  0  0
   -1.9551   -1.2463   -0.7859 H   0  0  0  0  0  0  0  0  0  0  0  0
   -2.1412    1.0316    1.0997 H   0  0  0  0  0  0  0  0  0  0  0  0
   -1.9460    1.6592   -0.6016 H   0  0  0  0  0  0  0  0  0  0  0  0
   -3.2727    0.4661   -0.1420 H   0  0  0  0  0  0  0  0  0  0  0  0
  1  2  3  0
  2  3  1  0
  3  4  1  0
  3  5  1  0
  5  6  1  0
  6  7  1  0
  7  8  1  0
  7  9  1  0
  9  3  1  0
  1 10  1  0
  4 11  1  0
  4 12  1  0
  4 13  1  0
  6 14  1  0
  6 15  1  0
  7 16  1  0
  8 17  1  0
  8 18  1  0
  8 19  1  0
M  END
