
     RDKit          3D

 21 20  0  0  0  0  0  0  0  0999 V2000
   -4.0302    1.3291    1.5136 C   0  0  0  0  0  0  0  0  0  0  0  0
   -2.7553    0.5765    0.3693 C   0  0  0  0  0  0  0  0  0  0  0  0
   -1.5067   -0.1685   -0.7882 C   0  0  0  0  0  0  0  0  0  0  0  0
   -0.6552   -0.4709    0.4521 C   0  0  0  0  0  0  0  0  0  0  0  0
    0.6660    0.1272   -0.3466 C   0  0  0  0  0  0  0  0  0  0  0  0
    0.8265   -0.6498   -1.5499 C   0  0  0  0  0  0  0  0  0  0  0  0
    1.7885   -0.5173    1.1775 C   0  0  0  0  0  0  0  0  0  0  0  0
    2.3253   -0.0312    0.7194 C   0  0  0  0  0  0  0  0  0  0  0  0
    3.7256    1.2842   -0.4742 C   0  0  0  0  0  0  0  0  0  0  0  0
   -4.7800    1.7808    2.2108 H   0  0  0  0  0  0  0  0  0  0  0  0
   -2.3570   -1.2864   -0.3828 H   0  0  0  0  0  0  0  0  0  0  0  0
   -2.1482   -0.2019   -1.4648 H   0  0  0  0  0  0  0  0  0  0  0  0
   -0.7698   -0.1416    1.5732 H   0  0  0  0  0  0  0  0  0  0  0  0
   -0.5531   -1.6432    0.6331 H   0  0  0  0  0  0  0  0  0  0  0  0
    0.7423    1.0847   -0.1748 H   0  0  0  0  0  0  0  0  0  0  0  0
    0.6500   -1.7268   -1.4067 H   0  0  0  0  0  0  0  0  0  0  0  0
   -0.0426   -0.2625   -2.3228 H   0  0  0  0  0  0  0  0  0  0  0  0
    1.7520   -0.3497   -2.0324 H   0  0  0  0  0  0  0  0  0  0  0  0
    1.2305   -1.4646    0.9702 H   0  0  0  0  0  0  0  0  0  0  0  0
    1.0397    0.3741    1.7173 H   0  0  0  0  0  0  0  0  0  0  0  0
    4.8518    2.3577   -1.4059 H   0  0  0  0  0  0  0  0  0  0  0  0
  1  2  3  0
  2  3  1  0
  3  4  1  0
  4  5  1  0
  5  6  1  0
  5  7  1  0
  7  8  1  0
  8  9  3  0
  1 10  1  0
  3 11  1  0
  3 12  1  0
  4 13  1  0
  4 14  1  0
  5 15  1  0
  6 16  1  0
  6 17  1  0
  6 18  1  0
  7 19  1  0
  7 20  1  0
  9 21  1  0
M  END
