
     RDKit          3D

 16 15  0  0  0  0  0  0  0  0999 V2000
    2.7659    1.2309   -1.4425 C   0  0  0  0  0  0  0  0  0  0  0  0
    2.0916    0.3001   -1.0566 C   0  0  0  0  0  0  0  0  0  0  0  0
    1.3065   -0.8082   -0.5795 C   0  0  0  0  0  0  0  0  0  0  0  0
    1.5287   -1.9819   -0.9630 O   0  0  0  0  0  0  0  0  0  0  0  0
    0.2263   -0.5624    0.3726 C   0  0  0  0  0  0  0  0  0  0  0  0
   -0.4227   -1.7435    0.7231 O   0  0  0  0  0  0  0  0  0  0  0  0
   -0.8242    0.3872   -0.1494 C   0  0  0  0  0  0  0  0  0  0  0  0
   -1.8654    0.5286    0.9637 C   0  0  0  0  0  0  0  0  0  0  0  0
    3.3618    2.0368   -1.7904 H   0  0  0  0  0  0  0  0  0  0  0  0
    0.6628   -0.1656    1.3358 H   0  0  0  0  0  0  0  0  0  0  0  0
   -0.7812   -2.1455   -0.1155 H   0  0  0  0  0  0  0  0  0  0  0  0
   -0.4181    1.3767   -0.4299 H   0  0  0  0  0  0  0  0  0  0  0  0
   -1.2862   -0.0900   -1.0382 H   0  0  0  0  0  0  0  0  0  0  0  0
   -2.8631    0.7306    0.5505 H   0  0  0  0  0  0  0  0  0  0  0  0
   -1.9363   -0.4126    1.5570 H   0  0  0  0  0  0  0  0  0  0  0  0
   -1.5463    1.3188    1.6821 H   0  0  0  0  0  0  0  0  0  0  0  0
  1  2  3  0
  2  3  1  0
  3  4  2  0
  3  5  1  0
  5  6  1  0
  5  7  1  0
  7  8  1  0
  1  9  1  0
  5 10  1  0
  6 11  1  0
  7 12  1  0
  7 13  1  0
  8 14  1  0
  8 15  1  0
  8 16  1  0
M  END
