
     RDKit          3D

 16 16  0  0  0  0  0  0  0  0999 V2000
    1.0372   -1.3020   -1.8841 C   0  0  0  0  0  0  0  0  0  0  0  0
    0.6050   -1.0642   -0.7845 C   0  0  0  0  0  0  0  0  0  0  0  0
    0.0741   -0.7954    0.5806 C   0  0  0  0  0  0  0  0  0  0  0  0
    1.2265   -0.6760    1.5165 C   0  0  0  0  0  0  0  0  0  0  0  0
    2.1671   -0.5806    2.2534 C   0  0  0  0  0  0  0  0  0  0  0  0
   -0.6434    0.5084    0.5251 C   0  0  0  0  0  0  0  0  0  0  0  0
   -1.8005    0.5911   -0.4287 C   0  0  0  0  0  0  0  0  0  0  0  0
   -0.5324    1.4071   -0.6505 C   0  0  0  0  0  0  0  0  0  0  0  0
    1.4328   -1.5217   -2.8478 H   0  0  0  0  0  0  0  0  0  0  0  0
   -0.5326   -1.6575    0.9004 H   0  0  0  0  0  0  0  0  0  0  0  0
    3.0003   -0.4879    2.9222 H   0  0  0  0  0  0  0  0  0  0  0  0
   -0.8376    1.0261    1.4994 H   0  0  0  0  0  0  0  0  0  0  0  0
   -2.6719    1.2141   -0.2188 H   0  0  0  0  0  0  0  0  0  0  0  0
   -1.9804   -0.2832   -1.0996 H   0  0  0  0  0  0  0  0  0  0  0  0
   -0.5653    2.5043   -0.5050 H   0  0  0  0  0  0  0  0  0  0  0  0
    0.0213    1.1176   -1.5627 H   0  0  0  0  0  0  0  0  0  0  0  0
  1  2  3  0
  2  3  1  0
  3  4  1  0
  4  5  3  0
  3  6  1  0
  6  7  1  0
  7  8  1  0
  8  6  1  0
  1  9  1  0
  3 10  1  0
  5 11  1  0
  6 12  1  0
  7 13  1  0
  7 14  1  0
  8 15  1  0
  8 16  1  0
M  END
