
     RDKit          3D

 13 12  0  0  0  0  0  0  0  0999 V2000
    2.3001   -0.8755   -0.1439 C   0  0  0  0  0  0  0  0  0  0  0  0
    1.1718   -0.4527   -0.0991 C   0  0  0  0  0  0  0  0  0  0  0  0
   -0.2164    0.0667   -0.0185 C   0  0  0  0  0  0  0  0  0  0  0  0
   -1.0985   -1.1148    0.0698 C   0  0  0  0  0  0  0  0  0  0  0  0
   -2.1525   -1.0565    0.6901 O   0  0  0  0  0  0  0  0  0  0  0  0
   -0.5162    0.9365   -1.1771 C   0  0  0  0  0  0  0  0  0  0  0  0
    0.2984    1.0510   -2.0661 O   0  0  0  0  0  0  0  0  0  0  0  0
   -0.2875    0.8637    1.2187 C   0  0  0  0  0  0  0  0  0  0  0  0
    0.4781    1.7781    1.3650 O   0  0  0  0  0  0  0  0  0  0  0  0
    3.2881   -1.2554   -0.1697 H   0  0  0  0  0  0  0  0  0  0  0  0
   -0.8171   -2.0315   -0.4115 H   0  0  0  0  0  0  0  0  0  0  0  0
   -1.4418    1.4581   -1.2286 H   0  0  0  0  0  0  0  0  0  0  0  0
   -1.0065    0.6323    1.9709 H   0  0  0  0  0  0  0  0  0  0  0  0
  1  2  3  0
  2  3  1  0
  3  4  1  0
  4  5  2  0
  3  6  1  0
  6  7  2  0
  3  8  1  0
  8  9  2  0
  1 10  1  0
  4 11  1  0
  6 12  1  0
  8 13  1  0
M  END
