
     RDKit          3D

 17 18  0  0  0  0  0  0  0  0999 V2000
    2.0348    2.1837   -0.4049 C   0  0  0  0  0  0  0  0  0  0  0  0
    1.1990    1.3715   -0.0940 C   0  0  0  0  0  0  0  0  0  0  0  0
    0.2073    0.3749    0.2904 C   0  0  0  0  0  0  0  0  0  0  0  0
    0.5040   -0.6034    1.3884 C   0  0  0  0  0  0  0  0  0  0  0  0
    0.8865   -1.7378    0.6358 O   0  0  0  0  0  0  0  0  0  0  0  0
   -0.0910   -1.8584   -0.3442 C   0  0  0  0  0  0  0  0  0  0  0  0
   -0.3657   -0.4727   -0.8687 C   0  0  0  0  0  0  0  0  0  0  0  0
   -1.2009    0.4892   -0.1194 C   0  0  0  0  0  0  0  0  0  0  0  0
   -1.6680    1.5923   -0.8066 O   0  0  0  0  0  0  0  0  0  0  0  0
    2.7789    2.8847   -0.6847 H   0  0  0  0  0  0  0  0  0  0  0  0
   -0.4293   -0.8349    1.9718 H   0  0  0  0  0  0  0  0  0  0  0  0
    1.3250   -0.2459    2.0138 H   0  0  0  0  0  0  0  0  0  0  0  0
   -0.9833   -2.3743    0.0232 H   0  0  0  0  0  0  0  0  0  0  0  0
    0.3429   -2.4644   -1.1603 H   0  0  0  0  0  0  0  0  0  0  0  0
   -0.0065   -0.2230   -1.8889 H   0  0  0  0  0  0  0  0  0  0  0  0
   -1.9700    0.0304    0.5470 H   0  0  0  0  0  0  0  0  0  0  0  0
   -2.5638    1.8881   -0.4988 H   0  0  0  0  0  0  0  0  0  0  0  0
  1  2  3  0
  2  3  1  0
  3  4  1  0
  4  5  1  0
  5  6  1  0
  6  7  1  0
  7  8  1  0
  8  9  1  0
  7  3  1  0
  8  3  1  0
  1 10  1  0
  4 11  1  0
  4 12  1  0
  6 13  1  0
  6 14  1  0
  7 15  1  0
  8 16  1  0
  9 17  1  0
M  END
