
     RDKit          3D

 17 18  0  0  0  0  0  0  0  0999 V2000
    3.0052    0.1720   -0.0537 C   0  0  0  0  0  0  0  0  0  0  0  0
    1.8359    0.3717   -0.2669 C   0  0  0  0  0  0  0  0  0  0  0  0
    0.4051    0.6403   -0.5348 C   0  0  0  0  0  0  0  0  0  0  0  0
   -0.2081    1.3479    0.6099 C   0  0  0  0  0  0  0  0  0  0  0  0
   -1.3306    0.5011    1.0397 C   0  0  0  0  0  0  0  0  0  0  0  0
   -1.9969    0.6561    2.0242 O   0  0  0  0  0  0  0  0  0  0  0  0
   -1.5066   -0.5841    0.0509 C   0  0  0  0  0  0  0  0  0  0  0  0
   -0.5305   -1.6903    0.1480 C   0  0  0  0  0  0  0  0  0  0  0  0
   -0.3247   -0.5987   -0.8250 C   0  0  0  0  0  0  0  0  0  0  0  0
    4.0534    0.0107    0.1299 H   0  0  0  0  0  0  0  0  0  0  0  0
    0.3174    1.3186   -1.4378 H   0  0  0  0  0  0  0  0  0  0  0  0
   -0.5482    2.3898    0.3266 H   0  0  0  0  0  0  0  0  0  0  0  0
    0.5134    1.5208    1.4443 H   0  0  0  0  0  0  0  0  0  0  0  0
   -2.4937   -0.7215   -0.4378 H   0  0  0  0  0  0  0  0  0  0  0  0
    0.0963   -1.8113    1.0516 H   0  0  0  0  0  0  0  0  0  0  0  0
   -0.8634   -2.6592   -0.2711 H   0  0  0  0  0  0  0  0  0  0  0  0
   -0.4241   -0.8638   -1.9142 H   0  0  0  0  0  0  0  0  0  0  0  0
  1  2  3  0
  2  3  1  0
  3  4  1  0
  4  5  1  0
  5  6  2  0
  5  7  1  0
  7  8  1  0
  8  9  1  0
  9  3  1  0
  9  7  1  0
  1 10  1  0
  3 11  1  0
  4 12  1  0
  4 13  1  0
  7 14  1  0
  8 15  1  0
  8 16  1  0
  9 17  1  0
M  END
