
     RDKit          3D

 17 17  0  0  0  0  0  0  0  0999 V2000
    2.3887    1.1333   -1.1954 C   0  0  0  0  0  0  0  0  0  0  0  0
    1.8196    0.2723   -0.5646 C   0  0  0  0  0  0  0  0  0  0  0  0
    1.1336   -0.7684    0.2253 C   0  0  0  0  0  0  0  0  0  0  0  0
    0.0978   -1.4833   -0.5669 C   0  0  0  0  0  0  0  0  0  0  0  0
    0.1843   -2.2931   -1.4706 O   0  0  0  0  0  0  0  0  0  0  0  0
   -0.9443   -0.7809    0.2215 C   0  0  0  0  0  0  0  0  0  0  0  0
   -1.7202    0.2625   -0.5699 C   0  0  0  0  0  0  0  0  0  0  0  0
    0.0949   -0.1920    1.1265 C   0  0  0  0  0  0  0  0  0  0  0  0
    0.0824    1.1904    1.2409 O   0  0  0  0  0  0  0  0  0  0  0  0
    2.8949    1.8905   -1.7586 H   0  0  0  0  0  0  0  0  0  0  0  0
    1.8529   -1.4710    0.6872 H   0  0  0  0  0  0  0  0  0  0  0  0
   -1.6745   -1.4545    0.7381 H   0  0  0  0  0  0  0  0  0  0  0  0
   -1.1295    0.6536   -1.4230 H   0  0  0  0  0  0  0  0  0  0  0  0
   -2.6438   -0.1795   -0.9977 H   0  0  0  0  0  0  0  0  0  0  0  0
   -2.0104    1.0640    0.1345 H   0  0  0  0  0  0  0  0  0  0  0  0
    0.0474   -0.6640    2.1442 H   0  0  0  0  0  0  0  0  0  0  0  0
   -0.4738    1.4280    2.0285 H   0  0  0  0  0  0  0  0  0  0  0  0
  1  2  3  0
  2  3  1  0
  3  4  1  0
  4  5  2  0
  4  6  1  0
  6  7  1  0
  6  8  1  0
  8  9  1  0
  8  3  1  0
  1 10  1  0
  3 11  1  0
  6 12  1  0
  7 13  1  0
  7 14  1  0
  7 15  1  0
  8 16  1  0
  9 17  1  0
M  END
