
     RDKit          3D

 21 21  0  0  0  0  0  0  0  0999 V2000
    0.8526    1.4275    2.9341 C   0  0  0  0  0  0  0  0  0  0  0  0
    0.5429    0.5125    2.2104 C   0  0  0  0  0  0  0  0  0  0  0  0
    0.1677   -0.6259    1.3420 C   0  0  0  0  0  0  0  0  0  0  0  0
    1.3867   -1.4856    1.1144 C   0  0  0  0  0  0  0  0  0  0  0  0
    0.9549   -1.6237   -0.2052 O   0  0  0  0  0  0  0  0  0  0  0  0
    0.3934   -0.3288   -0.0826 C   0  0  0  0  0  0  0  0  0  0  0  0
   -0.7122   -0.1511   -1.0190 C   0  0  0  0  0  0  0  0  0  0  0  0
   -1.6851    0.9475   -0.7445 C   0  0  0  0  0  0  0  0  0  0  0  0
   -0.1567    0.0616   -2.4163 C   0  0  0  0  0  0  0  0  0  0  0  0
    1.1291    2.2384    3.5530 H   0  0  0  0  0  0  0  0  0  0  0  0
   -0.7344   -1.1164    1.6686 H   0  0  0  0  0  0  0  0  0  0  0  0
    2.3439   -0.9511    1.1858 H   0  0  0  0  0  0  0  0  0  0  0  0
    1.3176   -2.4341    1.6787 H   0  0  0  0  0  0  0  0  0  0  0  0
    1.2448    0.3928   -0.2109 H   0  0  0  0  0  0  0  0  0  0  0  0
   -1.3179   -1.1039   -1.0908 H   0  0  0  0  0  0  0  0  0  0  0  0
   -1.1597    1.9055   -0.4709 H   0  0  0  0  0  0  0  0  0  0  0  0
   -2.4050    0.7552    0.0447 H   0  0  0  0  0  0  0  0  0  0  0  0
   -2.2672    1.1992   -1.6577 H   0  0  0  0  0  0  0  0  0  0  0  0
    0.4425    1.0106   -2.4346 H   0  0  0  0  0  0  0  0  0  0  0  0
   -0.9258    0.1233   -3.1852 H   0  0  0  0  0  0  0  0  0  0  0  0
    0.5879   -0.7535   -2.6093 H   0  0  0  0  0  0  0  0  0  0  0  0
  1  2  3  0
  2  3  1  0
  3  4  1  0
  4  5  1  0
  5  6  1  0
  6  7  1  0
  7  8  1  0
  7  9  1  0
  6  3  1  0
  1 10  1  0
  3 11  1  0
  4 12  1  0
  4 13  1  0
  6 14  1  0
  7 15  1  0
  8 16  1  0
  8 17  1  0
  8 18  1  0
  9 19  1  0
  9 20  1  0
  9 21  1  0
M  END
