
     RDKit          3D

 19 19  0  0  0  0  0  0  0  0999 V2000
    4.0490    0.2450    2.2384 C   0  0  0  0  0  0  0  0  0  0  0  0
    2.9872    0.0374    1.8712 C   0  0  0  0  0  0  0  0  0  0  0  0
    1.4531   -0.2457    1.3659 C   0  0  0  0  0  0  0  0  0  0  0  0
    0.5440   -0.4261    1.0604 C   0  0  0  0  0  0  0  0  0  0  0  0
   -0.7945   -0.6927    0.6336 C   0  0  0  0  0  0  0  0  0  0  0  0
   -0.6389   -1.3134   -0.8070 C   0  0  0  0  0  0  0  0  0  0  0  0
    0.1957    0.0035   -0.9139 C   0  0  0  0  0  0  0  0  0  0  0  0
   -1.0558    0.6078   -0.0028 C   0  0  0  0  0  0  0  0  0  0  0  0
   -2.0874    0.9832   -0.9233 C   0  0  0  0  0  0  0  0  0  0  0  0
    5.0161    0.4380    2.5806 H   0  0  0  0  0  0  0  0  0  0  0  0
   -1.5721   -1.2741    1.2314 H   0  0  0  0  0  0  0  0  0  0  0  0
    0.1044   -2.1804   -0.7777 H   0  0  0  0  0  0  0  0  0  0  0  0
   -1.5336   -1.3871   -1.3515 H   0  0  0  0  0  0  0  0  0  0  0  0
    1.1502    0.1367   -0.6498 H   0  0  0  0  0  0  0  0  0  0  0  0
   -0.0729    0.4698   -1.9128 H   0  0  0  0  0  0  0  0  0  0  0  0
   -0.4725    1.4441    0.5378 H   0  0  0  0  0  0  0  0  0  0  0  0
   -2.0506    0.5539   -1.9681 H   0  0  0  0  0  0  0  0  0  0  0  0
   -3.0877    0.5496   -0.4900 H   0  0  0  0  0  0  0  0  0  0  0  0
   -2.1337    2.0504   -1.0347 H   0  0  0  0  0  0  0  0  0  0  0  0
  1  2  3  0
  2  3  1  0
  3  4  3  0
  4  5  1  0
  5  6  1  0
  6  7  1  0
  7  8  1  0
  8  9  1  0
  8  5  1  0
  1 10  1  0
  5 11  1  0
  6 12  1  0
  6 13  1  0
  7 14  1  0
  7 15  1  0
  8 16  1  0
  9 17  1  0
  9 18  1  0
  9 19  1  0
M  END
