
     RDKit          3D

 23 23  0  0  0  0  0  0  0  0999 V2000
    1.2852    2.6433   -1.3642 C   0  0  0  0  0  0  0  0  0  0  0  0
    1.6090    1.6619   -0.7975 C   0  0  0  0  0  0  0  0  0  0  0  0
    2.0240    0.4457   -0.0676 C   0  0  0  0  0  0  0  0  0  0  0  0
    0.8606   -0.2755    0.4504 C   0  0  0  0  0  0  0  0  0  0  0  0
   -0.1145   -0.7030   -0.6922 C   0  0  0  0  0  0  0  0  0  0  0  0
   -0.3223   -2.1680   -0.8291 C   0  0  0  0  0  0  0  0  0  0  0  0
   -0.5398    0.0633    0.5061 C   0  0  0  0  0  0  0  0  0  0  0  0
   -1.4024   -0.7409    1.5104 C   0  0  0  0  0  0  0  0  0  0  0  0
   -1.1289    1.4345    0.2584 C   0  0  0  0  0  0  0  0  0  0  0  0
    0.9987    3.5254   -1.8755 H   0  0  0  0  0  0  0  0  0  0  0  0
    2.7199   -0.1757   -0.6839 H   0  0  0  0  0  0  0  0  0  0  0  0
    2.6640    0.8150    0.7784 H   0  0  0  0  0  0  0  0  0  0  0  0
    1.1521   -1.1504    1.1394 H   0  0  0  0  0  0  0  0  0  0  0  0
   -0.0762   -0.1431   -1.6291 H   0  0  0  0  0  0  0  0  0  0  0  0
   -1.0996   -2.5760   -0.1514 H   0  0  0  0  0  0  0  0  0  0  0  0
    0.6655   -2.6766   -0.6291 H   0  0  0  0  0  0  0  0  0  0  0  0
   -0.5870   -2.4568   -1.8700 H   0  0  0  0  0  0  0  0  0  0  0  0
   -0.9200   -1.7239    1.7047 H   0  0  0  0  0  0  0  0  0  0  0  0
   -2.3900   -0.8332    1.0457 H   0  0  0  0  0  0  0  0  0  0  0  0
   -1.4083   -0.2287    2.4949 H   0  0  0  0  0  0  0  0  0  0  0  0
   -2.1463    1.4944    0.7590 H   0  0  0  0  0  0  0  0  0  0  0  0
   -0.5398    2.2007    0.7610 H   0  0  0  0  0  0  0  0  0  0  0  0
   -1.3038    1.5678   -0.8187 H   0  0  0  0  0  0  0  0  0  0  0  0
  1  2  3  0
  2  3  1  0
  3  4  1  0
  4  5  1  0
  5  6  1  0
  5  7  1  0
  7  8  1  0
  7  9  1  0
  7  4  1  0
  1 10  1  0
  3 11  1  0
  3 12  1  0
  4 13  1  0
  5 14  1  0
  6 15  1  0
  6 16  1  0
  6 17  1  0
  8 18  1  0
  8 19  1  0
  8 20  1  0
  9 21  1  0
  9 22  1  0
  9 23  1  0
M  END
