
     RDKit          3D

 19 19  0  0  0  0  0  0  0  0999 V2000
    2.5487    1.7067   -0.8853 C   0  0  0  0  0  0  0  0  0  0  0  0
    2.0663    0.9205    0.0529 C   0  0  0  0  0  0  0  0  0  0  0  0
    1.5213    0.0196    1.0993 C   0  0  0  0  0  0  0  0  0  0  0  0
   -0.0012    0.1410    1.0116 C   0  0  0  0  0  0  0  0  0  0  0  0
   -0.5331   -0.7129    2.0031 O   0  0  0  0  0  0  0  0  0  0  0  0
   -1.5764   -0.9658    1.0958 C   0  0  0  0  0  0  0  0  0  0  0  0
   -0.5042   -0.8594   -0.0021 C   0  0  0  0  0  0  0  0  0  0  0  0
   -1.1646   -0.2715   -1.2169 C   0  0  0  0  0  0  0  0  0  0  0  0
   -0.3453    0.5754   -1.9315 O   0  0  0  0  0  0  0  0  0  0  0  0
    2.8887    2.2376   -1.5120 H   0  0  0  0  0  0  0  0  0  0  0  0
    1.8827    0.4028    2.0693 H   0  0  0  0  0  0  0  0  0  0  0  0
    1.8140   -1.0204    0.9137 H   0  0  0  0  0  0  0  0  0  0  0  0
   -0.4212    1.1367    0.9864 H   0  0  0  0  0  0  0  0  0  0  0  0
   -2.3017   -0.1525    1.0873 H   0  0  0  0  0  0  0  0  0  0  0  0
   -1.9520   -1.9995    1.1093 H   0  0  0  0  0  0  0  0  0  0  0  0
    0.1311   -1.7235   -0.0971 H   0  0  0  0  0  0  0  0  0  0  0  0
   -1.4165   -1.1664   -1.8668 H   0  0  0  0  0  0  0  0  0  0  0  0
   -2.1305    0.2113   -0.9919 H   0  0  0  0  0  0  0  0  0  0  0  0
   -0.5062    1.5204   -1.6408 H   0  0  0  0  0  0  0  0  0  0  0  0
  1  2  3  0
  2  3  1  0
  3  4  1  0
  4  5  1  0
  5  6  1  0
  6  7  1  0
  7  8  1  0
  8  9  1  0
  7  4  1  0
  1 10  1  0
  3 11  1  0
  3 12  1  0
  4 13  1  0
  6 14  1  0
  6 15  1  0
  7 16  1  0
  8 17  1  0
  8 18  1  0
  9 19  1  0
M  END
