
     RDKit          3D

 23 22  0  0  0  0  0  0  0  0999 V2000
   -1.9181    1.8192    1.4135 C   0  0  0  0  0  0  0  0  0  0  0  0
   -1.7061    0.9053    0.4674 C   0  0  0  0  0  0  0  0  0  0  0  0
   -1.4740   -0.0087   -0.4659 C   0  0  0  0  0  0  0  0  0  0  0  0
   -1.9982    0.5786   -1.8718 C   0  0  0  0  0  0  0  0  0  0  0  0
    0.0209   -0.2754   -0.6426 C   0  0  0  0  0  0  0  0  0  0  0  0
    0.2744   -1.4910   -1.4435 C   0  0  0  0  0  0  0  0  0  0  0  0
    0.7588   -0.0732    0.6308 C   0  0  0  0  0  0  0  0  0  0  0  0
    2.1113   -0.2834    0.4733 O   0  0  0  0  0  0  0  0  0  0  0  0
    2.7726   -0.1269    1.7163 C   0  0  0  0  0  0  0  0  0  0  0  0
   -2.0995    2.5855    2.1814 H   0  0  0  0  0  0  0  0  0  0  0  0
   -1.9669   -0.9977   -0.4065 H   0  0  0  0  0  0  0  0  0  0  0  0
   -1.1934    0.5012   -2.5849 H   0  0  0  0  0  0  0  0  0  0  0  0
   -2.3078    1.6450   -1.6342 H   0  0  0  0  0  0  0  0  0  0  0  0
   -2.8654   -0.0176   -2.1973 H   0  0  0  0  0  0  0  0  0  0  0  0
    0.3535    0.5879   -1.3574 H   0  0  0  0  0  0  0  0  0  0  0  0
   -0.6468   -2.1086   -1.6820 H   0  0  0  0  0  0  0  0  0  0  0  0
    0.9366   -2.1746   -0.7755 H   0  0  0  0  0  0  0  0  0  0  0  0
    0.8144   -1.3043   -2.3784 H   0  0  0  0  0  0  0  0  0  0  0  0
    0.4104   -0.6521    1.5024 H   0  0  0  0  0  0  0  0  0  0  0  0
    0.6961    1.0058    0.9691 H   0  0  0  0  0  0  0  0  0  0  0  0
    2.4631    0.8420    2.1466 H   0  0  0  0  0  0  0  0  0  0  0  0
    2.6856   -0.9744    2.3757 H   0  0  0  0  0  0  0  0  0  0  0  0
    3.8784    0.0176    1.4349 H   0  0  0  0  0  0  0  0  0  0  0  0
  1  2  3  0
  2  3  1  0
  3  4  1  0
  3  5  1  0
  5  6  1  0
  5  7  1  0
  7  8  1  0
  8  9  1  0
  1 10  1  0
  3 11  1  0
  4 12  1  0
  4 13  1  0
  4 14  1  0
  5 15  1  0
  6 16  1  0
  6 17  1  0
  6 18  1  0
  7 19  1  0
  7 20  1  0
  9 21  1  0
  9 22  1  0
  9 23  1  0
M  END
