
     RDKit          3D

 25 24  0  0  0  0  0  0  0  0999 V2000
   -1.7373    2.1955   -0.4145 C   0  0  0  0  0  0  0  0  0  0  0  0
   -1.2975    1.0950   -0.3086 C   0  0  0  0  0  0  0  0  0  0  0  0
   -0.7682   -0.2029   -0.1815 C   0  0  0  0  0  0  0  0  0  0  0  0
   -0.9288   -0.8009   -1.5804 C   0  0  0  0  0  0  0  0  0  0  0  0
   -1.4655   -1.0616    0.7942 C   0  0  0  0  0  0  0  0  0  0  0  0
    0.7279    0.0449    0.0989 C   0  0  0  0  0  0  0  0  0  0  0  0
    0.7459    1.0869    1.2579 C   0  0  0  0  0  0  0  0  0  0  0  0
    1.3482   -1.1706    0.8408 C   0  0  0  0  0  0  0  0  0  0  0  0
    1.5899    0.4539   -1.0021 C   0  0  0  0  0  0  0  0  0  0  0  0
   -2.2166    3.3747   -0.5073 H   0  0  0  0  0  0  0  0  0  0  0  0
   -0.4461   -1.7563   -1.7727 H   0  0  0  0  0  0  0  0  0  0  0  0
   -2.0520   -0.9766   -1.6501 H   0  0  0  0  0  0  0  0  0  0  0  0
   -0.7546   -0.0164   -2.3797 H   0  0  0  0  0  0  0  0  0  0  0  0
   -0.7446   -1.7464    1.2508 H   0  0  0  0  0  0  0  0  0  0  0  0
   -1.8349   -0.4513    1.6709 H   0  0  0  0  0  0  0  0  0  0  0  0
   -2.2870   -1.6133    0.2751 H   0  0  0  0  0  0  0  0  0  0  0  0
    0.2569    2.0502    0.8472 H   0  0  0  0  0  0  0  0  0  0  0  0
    0.0976    0.7496    2.0721 H   0  0  0  0  0  0  0  0  0  0  0  0
    1.7969    1.2428    1.4965 H   0  0  0  0  0  0  0  0  0  0  0  0
    0.9981   -1.0486    1.9213 H   0  0  0  0  0  0  0  0  0  0  0  0
    2.4180   -1.0180    0.7835 H   0  0  0  0  0  0  0  0  0  0  0  0
    1.0051   -2.1362    0.5240 H   0  0  0  0  0  0  0  0  0  0  0  0
    2.6287    0.7325   -0.6847 H   0  0  0  0  0  0  0  0  0  0  0  0
    1.7438   -0.3561   -1.7846 H   0  0  0  0  0  0  0  0  0  0  0  0
    1.1762    1.3290   -1.5669 H   0  0  0  0  0  0  0  0  0  0  0  0
  1  2  3  0
  2  3  1  0
  3  4  1  0
  3  5  1  0
  3  6  1  0
  6  7  1  0
  6  8  1  0
  6  9  1  0
  1 10  1  0
  4 11  1  0
  4 12  1  0
  4 13  1  0
  5 14  1  0
  5 15  1  0
  5 16  1  0
  7 17  1  0
  7 18  1  0
  7 19  1  0
  8 20  1  0
  8 21  1  0
  8 22  1  0
  9 23  1  0
  9 24  1  0
  9 25  1  0
M  END
