
     RDKit          3D

 19 20  0  0  0  0  0  0  0  0999 V2000
    2.4040    0.8102   -2.8759 C   0  0  0  0  0  0  0  0  0  0  0  0
    2.0742    0.3843   -1.7944 C   0  0  0  0  0  0  0  0  0  0  0  0
    1.6722   -0.1007   -0.4990 C   0  0  0  0  0  0  0  0  0  0  0  0
    0.2674    0.3168   -0.2144 C   0  0  0  0  0  0  0  0  0  0  0  0
   -0.7761   -0.1368   -1.1613 C   0  0  0  0  0  0  0  0  0  0  0  0
   -0.7692   -0.6550    0.2016 C   0  0  0  0  0  0  0  0  0  0  0  0
   -1.2003    0.4059    1.2229 C   0  0  0  0  0  0  0  0  0  0  0  0
   -1.4122   -0.2444    2.5464 C   0  0  0  0  0  0  0  0  0  0  0  0
   -0.0234    1.0298    0.9437 O   0  0  0  0  0  0  0  0  0  0  0  0
    2.7130    1.2109   -3.8521 H   0  0  0  0  0  0  0  0  0  0  0  0
    2.4238    0.2701    0.2352 H   0  0  0  0  0  0  0  0  0  0  0  0
    1.8136   -1.2118   -0.4943 H   0  0  0  0  0  0  0  0  0  0  0  0
   -0.4803   -0.7776   -1.9816 H   0  0  0  0  0  0  0  0  0  0  0  0
   -1.5335    0.6689   -1.4133 H   0  0  0  0  0  0  0  0  0  0  0  0
   -0.5489   -1.6692    0.5118 H   0  0  0  0  0  0  0  0  0  0  0  0
   -2.0932    0.9225    0.7939 H   0  0  0  0  0  0  0  0  0  0  0  0
   -0.4811   -0.7265    2.8913 H   0  0  0  0  0  0  0  0  0  0  0  0
   -1.8066    0.5156    3.2504 H   0  0  0  0  0  0  0  0  0  0  0  0
   -2.2432   -1.0128    2.4860 H   0  0  0  0  0  0  0  0  0  0  0  0
  1  2  3  0
  2  3  1  0
  3  4  1  0
  4  5  1  0
  5  6  1  0
  6  7  1  0
  7  8  1  0
  7  9  1  0
  6  4  1  0
  9  4  1  0
  1 10  1  0
  3 11  1  0
  3 12  1  0
  5 13  1  0
  5 14  1  0
  6 15  1  0
  7 16  1  0
  8 17  1  0
  8 18  1  0
  8 19  1  0
M  END
