
     RDKit          3D

 16 17  0  0  0  0  0  0  0  0999 V2000
    2.8219   -0.1874   -1.1715 C   0  0  0  0  0  0  0  0  0  0  0  0
    1.8163   -0.0617   -0.5240 C   0  0  0  0  0  0  0  0  0  0  0  0
    0.6126    0.0881    0.2810 C   0  0  0  0  0  0  0  0  0  0  0  0
   -0.0433    1.4100    0.2781 C   0  0  0  0  0  0  0  0  0  0  0  0
   -1.3029    1.2782   -0.0612 C   0  0  0  0  0  0  0  0  0  0  0  0
   -1.6813   -0.1145   -0.3325 C   0  0  0  0  0  0  0  0  0  0  0  0
   -0.4905   -0.9287   -0.0423 C   0  0  0  0  0  0  0  0  0  0  0  0
    0.2151   -0.9599    1.2485 C   0  0  0  0  0  0  0  0  0  0  0  0
    3.7335   -0.3028   -1.7362 H   0  0  0  0  0  0  0  0  0  0  0  0
    0.4815    2.3653    0.5323 H   0  0  0  0  0  0  0  0  0  0  0  0
   -1.9829    2.1720   -0.1235 H   0  0  0  0  0  0  0  0  0  0  0  0
   -1.9422   -0.1871   -1.4174 H   0  0  0  0  0  0  0  0  0  0  0  0
   -2.5706   -0.3984    0.2758 H   0  0  0  0  0  0  0  0  0  0  0  0
   -0.2452   -1.7252   -0.7739 H   0  0  0  0  0  0  0  0  0  0  0  0
    0.9348   -1.7717    1.4109 H   0  0  0  0  0  0  0  0  0  0  0  0
   -0.3568   -0.6761    2.1559 H   0  0  0  0  0  0  0  0  0  0  0  0
  1  2  3  0
  2  3  1  0
  3  4  1  0
  4  5  2  0
  5  6  1  0
  6  7  1  0
  7  8  1  0
  7  3  1  0
  8  3  1  0
  1  9  1  0
  4 10  1  0
  5 11  1  0
  6 12  1  0
  6 13  1  0
  7 14  1  0
  8 15  1  0
  8 16  1  0
M  END
