
     RDKit          3D

 17 17  0  0  0  0  0  0  0  0999 V2000
    2.8922    0.0245    0.2125 C   0  0  0  0  0  0  0  0  0  0  0  0
    1.5487   -0.1889    0.5935 C   0  0  0  0  0  0  0  0  0  0  0  0
    0.1383   -0.4081    1.0190 C   0  0  0  0  0  0  0  0  0  0  0  0
   -0.1747   -1.8188    0.0833 C   0  0  0  0  0  0  0  0  0  0  0  0
    0.7344   -2.4303    0.0966 O   0  0  0  0  0  0  0  0  0  0  0  0
   -1.5408   -1.4000   -0.2111 C   0  0  0  0  0  0  0  0  0  0  0  0
   -1.3531    0.0051   -0.7794 C   0  0  0  0  0  0  0  0  0  0  0  0
   -0.4460    0.5415   -0.0556 C   0  0  0  0  0  0  0  0  0  0  0  0
    0.0385    1.9653   -0.2090 C   0  0  0  0  0  0  0  0  0  0  0  0
    3.9017    0.1854   -0.0835 H   0  0  0  0  0  0  0  0  0  0  0  0
   -0.1370   -0.5731    1.9030 H   0  0  0  0  0  0  0  0  0  0  0  0
   -2.1396   -2.0066   -0.8887 H   0  0  0  0  0  0  0  0  0  0  0  0
   -2.1444   -1.1242    0.7459 H   0  0  0  0  0  0  0  0  0  0  0  0
   -1.8715    0.3321   -1.7186 H   0  0  0  0  0  0  0  0  0  0  0  0
    1.1565    1.9719   -0.0476 H   0  0  0  0  0  0  0  0  0  0  0  0
   -0.4075    2.5740    0.5881 H   0  0  0  0  0  0  0  0  0  0  0  0
   -0.1956    2.3504   -1.2485 H   0  0  0  0  0  0  0  0  0  0  0  0
  1  2  3  0
  2  3  1  0
  3  4  1  0
  4  5  2  0
  4  6  1  0
  6  7  1  0
  7  8  2  0
  8  9  1  0
  8  3  1  0
  1 10  1  0
  3 11  1  0
  6 12  1  0
  6 13  1  0
  7 14  1  0
  9 15  1  0
  9 16  1  0
  9 17  1  0
M  END
