
     RDKit          3D

 21 21  0  0  0  0  0  0  0  0999 V2000
    2.6562    0.7525   -2.6055 C   0  0  0  0  0  0  0  0  0  0  0  0
    1.9864    0.4795   -1.6958 C   0  0  0  0  0  0  0  0  0  0  0  0
    1.3308    0.1923   -0.8073 C   0  0  0  0  0  0  0  0  0  0  0  0
    1.3442   -1.0210   -0.0434 C   0  0  0  0  0  0  0  0  0  0  0  0
    0.3734   -1.0205    1.0534 C   0  0  0  0  0  0  0  0  0  0  0  0
   -0.6602   -0.1234    0.5302 C   0  0  0  0  0  0  0  0  0  0  0  0
   -1.5376   -0.8072   -0.5201 C   0  0  0  0  0  0  0  0  0  0  0  0
   -1.5183    0.4171    1.6055 C   0  0  0  0  0  0  0  0  0  0  0  0
    0.1500    0.9759   -0.0665 C   0  0  0  0  0  0  0  0  0  0  0  0
    3.4280    1.0427   -3.6506 H   0  0  0  0  0  0  0  0  0  0  0  0
    2.0571   -1.8132   -0.3609 H   0  0  0  0  0  0  0  0  0  0  0  0
    0.9563   -0.4593    1.9083 H   0  0  0  0  0  0  0  0  0  0  0  0
    0.0526   -2.0024    1.3686 H   0  0  0  0  0  0  0  0  0  0  0  0
   -1.9358    0.0637   -1.1820 H   0  0  0  0  0  0  0  0  0  0  0  0
   -2.4854   -1.1317    0.0030 H   0  0  0  0  0  0  0  0  0  0  0  0
   -0.9939   -1.5799   -1.0373 H   0  0  0  0  0  0  0  0  0  0  0  0
   -1.0467    0.5233    2.6082 H   0  0  0  0  0  0  0  0  0  0  0  0
   -2.4533   -0.2197    1.8363 H   0  0  0  0  0  0  0  0  0  0  0  0
   -2.0017    1.3717    1.2478 H   0  0  0  0  0  0  0  0  0  0  0  0
    0.6220    1.6387    0.7013 H   0  0  0  0  0  0  0  0  0  0  0  0
   -0.3242    1.5327   -0.8932 H   0  0  0  0  0  0  0  0  0  0  0  0
  1  2  3  0
  2  3  1  0
  3  4  2  0
  4  5  1  0
  5  6  1  0
  6  7  1  0
  6  8  1  0
  6  9  1  0
  9  3  1  0
  1 10  1  0
  4 11  1  0
  5 12  1  0
  5 13  1  0
  7 14  1  0
  7 15  1  0
  7 16  1  0
  8 17  1  0
  8 18  1  0
  8 19  1  0
  9 20  1  0
  9 21  1  0
M  END
