
     RDKit          3D

 17 19  0  0  0  0  0  0  0  0999 V2000
    3.3078    0.2084   -0.2117 C   0  0  0  0  0  0  0  0  0  0  0  0
    2.2314   -0.3265   -0.2659 C   0  0  0  0  0  0  0  0  0  0  0  0
    0.9132   -0.9853   -0.3580 C   0  0  0  0  0  0  0  0  0  0  0  0
    0.4038   -1.0930    0.9597 O   0  0  0  0  0  0  0  0  0  0  0  0
   -0.7420   -0.3354    0.8920 C   0  0  0  0  0  0  0  0  0  0  0  0
   -1.3848   -0.5796   -0.4472 C   0  0  0  0  0  0  0  0  0  0  0  0
   -1.8158    0.8523   -0.4006 C   0  0  0  0  0  0  0  0  0  0  0  0
   -0.4012    0.8998    0.0934 C   0  0  0  0  0  0  0  0  0  0  0  0
   -0.0815   -0.0798   -0.9858 C   0  0  0  0  0  0  0  0  0  0  0  0
    4.2639    0.6966   -0.1535 H   0  0  0  0  0  0  0  0  0  0  0  0
    0.9723   -1.9724   -0.8298 H   0  0  0  0  0  0  0  0  0  0  0  0
   -1.3688   -0.2296    1.7544 H   0  0  0  0  0  0  0  0  0  0  0  0
   -1.9092   -1.3804   -0.7318 H   0  0  0  0  0  0  0  0  0  0  0  0
   -1.9054    1.3765   -1.3735 H   0  0  0  0  0  0  0  0  0  0  0  0
   -2.6085    1.0290    0.3250 H   0  0  0  0  0  0  0  0  0  0  0  0
    0.1228    1.6903    0.4029 H   0  0  0  0  0  0  0  0  0  0  0  0
    0.0020    0.2290   -1.9975 H   0  0  0  0  0  0  0  0  0  0  0  0
  1  2  3  0
  2  3  1  0
  3  4  1  0
  4  5  1  0
  5  6  1  0
  6  7  1  0
  7  8  1  0
  8  9  1  0
  9  3  1  0
  8  5  1  0
  9  6  1  0
  1 10  1  0
  3 11  1  0
  5 12  1  0
  6 13  1  0
  7 14  1  0
  7 15  1  0
  8 16  1  0
  9 17  1  0
M  END
