
     RDKit          3D

 21 20  0  0  0  0  0  0  0  0999 V2000
    1.3255    2.0784    0.1806 C   0  0  0  0  0  0  0  0  0  0  0  0
    1.0841    1.1663   -0.2654 C   0  0  0  0  0  0  0  0  0  0  0  0
    0.6929   -0.3013   -1.0158 C   0  0  0  0  0  0  0  0  0  0  0  0
    1.3237   -0.9984   -0.1026 O   0  0  0  0  0  0  0  0  0  0  0  0
    2.0907   -0.3913    0.8334 C   0  0  0  0  0  0  0  0  0  0  0  0
   -0.8343   -0.2812   -0.0856 C   0  0  0  0  0  0  0  0  0  0  0  0
   -1.2628   -1.6326    0.1349 C   0  0  0  0  0  0  0  0  0  0  0  0
   -1.6875    0.4530   -1.0586 C   0  0  0  0  0  0  0  0  0  0  0  0
   -0.4666    0.4132    0.9995 O   0  0  0  0  0  0  0  0  0  0  0  0
    1.6016    3.1425    0.7220 H   0  0  0  0  0  0  0  0  0  0  0  0
    0.2116    0.2363   -1.7133 H   0  0  0  0  0  0  0  0  0  0  0  0
    2.8901    0.2484    0.3726 H   0  0  0  0  0  0  0  0  0  0  0  0
    2.7191   -1.1906    1.3719 H   0  0  0  0  0  0  0  0  0  0  0  0
    1.6375    0.1926    1.6189 H   0  0  0  0  0  0  0  0  0  0  0  0
   -1.8068   -1.7199    1.1384 H   0  0  0  0  0  0  0  0  0  0  0  0
   -0.4757   -2.4524    0.1122 H   0  0  0  0  0  0  0  0  0  0  0  0
   -2.0782   -2.0329   -0.5532 H   0  0  0  0  0  0  0  0  0  0  0  0
   -1.4098    0.3059   -2.1132 H   0  0  0  0  0  0  0  0  0  0  0  0
   -1.6754    1.5605   -0.8431 H   0  0  0  0  0  0  0  0  0  0  0  0
   -2.7532    0.0802   -0.9651 H   0  0  0  0  0  0  0  0  0  0  0  0
   -1.1266    1.1232    1.2317 H   0  0  0  0  0  0  0  0  0  0  0  0
  1  2  3  0
  2  3  1  0
  3  4  1  0
  4  5  1  0
  3  6  1  0
  6  7  1  0
  6  8  1  0
  6  9  1  0
  1 10  1  0
  3 11  1  0
  5 12  1  0
  5 13  1  0
  5 14  1  0
  7 15  1  0
  7 16  1  0
  7 17  1  0
  8 18  1  0
  8 19  1  0
  8 20  1  0
  9 21  1  0
M  END
