
     RDKit          3D

 20 19  0  0  0  0  0  0  0  0999 V2000
    2.9500    1.8276    0.2871 C   0  0  0  0  0  0  0  0  0  0  0  0
    2.4159    0.7555   -0.1909 C   0  0  0  0  0  0  0  0  0  0  0  0
    1.8476   -0.4287   -0.7112 C   0  0  0  0  0  0  0  0  0  0  0  0
    0.4956   -0.7842   -0.1773 C   0  0  0  0  0  0  0  0  0  0  0  0
   -0.4127    0.4371   -0.3783 C   0  0  0  0  0  0  0  0  0  0  0  0
   -0.4000    0.7122   -1.7648 O   0  0  0  0  0  0  0  0  0  0  0  0
   -1.8322    0.0459    0.0142 C   0  0  0  0  0  0  0  0  0  0  0  0
   -1.9584   -0.4647    1.4078 C   0  0  0  0  0  0  0  0  0  0  0  0
    3.3802    2.6862    0.6572 H   0  0  0  0  0  0  0  0  0  0  0  0
    1.8332   -0.4110   -1.8586 H   0  0  0  0  0  0  0  0  0  0  0  0
    2.5207   -1.3523   -0.5055 H   0  0  0  0  0  0  0  0  0  0  0  0
    0.0773   -1.6434   -0.7714 H   0  0  0  0  0  0  0  0  0  0  0  0
    0.4468   -1.0736    0.8646 H   0  0  0  0  0  0  0  0  0  0  0  0
   -0.0595    1.2584    0.1952 H   0  0  0  0  0  0  0  0  0  0  0  0
   -0.5153   -0.1634   -2.2498 H   0  0  0  0  0  0  0  0  0  0  0  0
   -2.4267    1.0123   -0.0637 H   0  0  0  0  0  0  0  0  0  0  0  0
   -2.2402   -0.6543   -0.7358 H   0  0  0  0  0  0  0  0  0  0  0  0
   -3.0485   -0.2581    1.7101 H   0  0  0  0  0  0  0  0  0  0  0  0
   -1.2779    0.0658    2.1101 H   0  0  0  0  0  0  0  0  0  0  0  0
   -1.7957   -1.5676    1.4887 H   0  0  0  0  0  0  0  0  0  0  0  0
  1  2  3  0
  2  3  1  0
  3  4  1  0
  4  5  1  0
  5  6  1  0
  5  7  1  0
  7  8  1  0
  1  9  1  0
  3 10  1  0
  3 11  1  0
  4 12  1  0
  4 13  1  0
  5 14  1  0
  6 15  1  0
  7 16  1  0
  7 17  1  0
  8 18  1  0
  8 19  1  0
  8 20  1  0
M  END
