
     RDKit          3D

 19 19  0  0  0  0  0  0  0  0999 V2000
   -0.2437   -0.0638    2.5147 C   0  0  0  0  0  0  0  0  0  0  0  0
   -0.5258   -0.0135    1.3431 C   0  0  0  0  0  0  0  0  0  0  0  0
   -0.8888    0.0333   -0.0746 C   0  0  0  0  0  0  0  0  0  0  0  0
   -2.3223   -0.3912   -0.3555 C   0  0  0  0  0  0  0  0  0  0  0  0
   -0.3538    1.2176   -0.9050 C   0  0  0  0  0  0  0  0  0  0  0  0
    0.1332   -0.1612   -1.1347 C   0  0  0  0  0  0  0  0  0  0  0  0
    1.4867   -0.5832   -0.7686 C   0  0  0  0  0  0  0  0  0  0  0  0
    2.2192   -0.0893    0.4344 C   0  0  0  0  0  0  0  0  0  0  0  0
    2.0702   -1.3845   -1.4729 O   0  0  0  0  0  0  0  0  0  0  0  0
    0.0181   -0.1155    3.5440 H   0  0  0  0  0  0  0  0  0  0  0  0
   -2.4366   -1.4002    0.0689 H   0  0  0  0  0  0  0  0  0  0  0  0
   -2.9847    0.3539    0.1259 H   0  0  0  0  0  0  0  0  0  0  0  0
   -2.4827   -0.4268   -1.4455 H   0  0  0  0  0  0  0  0  0  0  0  0
   -1.0745    1.6752   -1.5814 H   0  0  0  0  0  0  0  0  0  0  0  0
    0.2717    1.9658   -0.3520 H   0  0  0  0  0  0  0  0  0  0  0  0
   -0.2673   -0.6263   -2.0728 H   0  0  0  0  0  0  0  0  0  0  0  0
    1.8745    0.8876    0.7824 H   0  0  0  0  0  0  0  0  0  0  0  0
    3.3098    0.0147    0.1583 H   0  0  0  0  0  0  0  0  0  0  0  0
    2.1968   -0.8925    1.1914 H   0  0  0  0  0  0  0  0  0  0  0  0
  1  2  3  0
  2  3  1  0
  3  4  1  0
  3  5  1  0
  5  6  1  0
  6  7  1  0
  7  8  1  0
  7  9  2  0
  6  3  1  0
  1 10  1  0
  4 11  1  0
  4 12  1  0
  4 13  1  0
  5 14  1  0
  5 15  1  0
  6 16  1  0
  8 17  1  0
  8 18  1  0
  8 19  1  0
M  END
