
     RDKit          3D

 17 19  0  0  0  0  0  0  0  0999 V2000
    3.0155    1.1392    0.2092 C   0  0  0  0  0  0  0  0  0  0  0  0
    1.8340    0.7069    0.0914 C   0  0  0  0  0  0  0  0  0  0  0  0
    0.5336    0.2103   -0.0539 C   0  0  0  0  0  0  0  0  0  0  0  0
    0.2920   -1.2681    0.0561 C   0  0  0  0  0  0  0  0  0  0  0  0
   -1.2333   -1.2970   -0.0664 C   0  0  0  0  0  0  0  0  0  0  0  0
   -1.5140    0.1890   -0.1298 C   0  0  0  0  0  0  0  0  0  0  0  0
   -0.4416    0.7967   -0.9683 C   0  0  0  0  0  0  0  0  0  0  0  0
   -0.5022    1.8973   -0.1057 O   0  0  0  0  0  0  0  0  0  0  0  0
   -0.5461    0.8503    0.7922 C   0  0  0  0  0  0  0  0  0  0  0  0
    3.9856    1.4855    0.2894 H   0  0  0  0  0  0  0  0  0  0  0  0
    0.8298   -1.8557   -0.6971 H   0  0  0  0  0  0  0  0  0  0  0  0
    0.5654   -1.6295    1.0983 H   0  0  0  0  0  0  0  0  0  0  0  0
   -1.5796   -1.8329   -0.9747 H   0  0  0  0  0  0  0  0  0  0  0  0
   -1.7143   -1.7287    0.8606 H   0  0  0  0  0  0  0  0  0  0  0  0
   -2.5361    0.5095   -0.2027 H   0  0  0  0  0  0  0  0  0  0  0  0
   -0.4337    0.9049   -1.9950 H   0  0  0  0  0  0  0  0  0  0  0  0
   -0.5551    0.9224    1.7965 H   0  0  0  0  0  0  0  0  0  0  0  0
  1  2  3  0
  2  3  1  0
  3  4  1  0
  4  5  1  0
  5  6  1  0
  6  7  1  0
  7  8  1  0
  8  9  1  0
  7  3  1  0
  9  3  1  0
  9  6  1  0
  1 10  1  0
  4 11  1  0
  4 12  1  0
  5 13  1  0
  5 14  1  0
  6 15  1  0
  7 16  1  0
  9 17  1  0
M  END
