
     RDKit          3D

 19 20  0  0  0  0  0  0  0  0999 V2000
    2.5856    0.7320   -0.4902 C   0  0  0  0  0  0  0  0  0  0  0  0
    0.8823    0.1135   -0.7355 C   0  0  0  0  0  0  0  0  0  0  0  0
   -0.1904   -0.2837   -0.8913 C   0  0  0  0  0  0  0  0  0  0  0  0
   -0.3648   -1.0232   -2.0510 O   0  0  0  0  0  0  0  0  0  0  0  0
   -1.2445    0.3593   -0.0512 C   0  0  0  0  0  0  0  0  0  0  0  0
   -0.9642    1.9221   -0.3903 C   0  0  0  0  0  0  0  0  0  0  0  0
   -0.3851   -0.0785    1.0605 C   0  0  0  0  0  0  0  0  0  0  0  0
   -0.0228   -1.3313    1.6793 C   0  0  0  0  0  0  0  0  0  0  0  0
   -0.3006   -1.3703    0.3089 C   0  0  0  0  0  0  0  0  0  0  0  0
    3.7677    1.1559   -0.3055 H   0  0  0  0  0  0  0  0  0  0  0  0
   -0.1257   -2.0339   -1.8141 H   0  0  0  0  0  0  0  0  0  0  0  0
   -2.2071   -0.0006   -0.3954 H   0  0  0  0  0  0  0  0  0  0  0  0
    0.1805    1.9920   -0.3377 H   0  0  0  0  0  0  0  0  0  0  0  0
   -1.4536    2.4828    0.3321 H   0  0  0  0  0  0  0  0  0  0  0  0
   -1.1470    2.0000   -1.4999 H   0  0  0  0  0  0  0  0  0  0  0  0
    0.3432    0.6773    1.3993 H   0  0  0  0  0  0  0  0  0  0  0  0
    1.0178   -1.5311    1.8914 H   0  0  0  0  0  0  0  0  0  0  0  0
   -0.7913   -1.7086    2.4557 H   0  0  0  0  0  0  0  0  0  0  0  0
    0.4199   -2.0738   -0.1652 H   0  0  0  0  0  0  0  0  0  0  0  0
  1  2  3  0
  2  3  1  0
  3  4  1  0
  3  5  1  0
  5  6  1  0
  5  7  1  0
  7  8  1  0
  8  9  1  0
  9  3  1  0
  9  7  1  0
  1 10  1  0
  4 11  1  0
  5 12  1  0
  6 13  1  0
  6 14  1  0
  6 15  1  0
  7 16  1  0
  8 17  1  0
  8 18  1  0
  9 19  1  0
M  END
