
     RDKit          3D

 18 17  0  0  0  0  0  0  0  0999 V2000
    2.7268   -1.3797   -0.0558 C   0  0  0  0  0  0  0  0  0  0  0  0
    1.7735   -0.6654   -0.1771 C   0  0  0  0  0  0  0  0  0  0  0  0
    0.6070    0.2360   -0.3405 C   0  0  0  0  0  0  0  0  0  0  0  0
    0.9199    1.5019    0.4292 C   0  0  0  0  0  0  0  0  0  0  0  0
   -0.5728   -0.4969    0.2078 C   0  0  0  0  0  0  0  0  0  0  0  0
   -0.7097   -1.6854   -0.5454 O   0  0  0  0  0  0  0  0  0  0  0  0
   -1.8604    0.2873    0.1381 C   0  0  0  0  0  0  0  0  0  0  0  0
   -2.1842    0.6313   -1.1612 O   0  0  0  0  0  0  0  0  0  0  0  0
    3.5675   -2.0013    0.0677 H   0  0  0  0  0  0  0  0  0  0  0  0
    0.4770    0.4456   -1.4059 H   0  0  0  0  0  0  0  0  0  0  0  0
    0.0110    2.0619    0.6669 H   0  0  0  0  0  0  0  0  0  0  0  0
    1.3776    1.1731    1.4084 H   0  0  0  0  0  0  0  0  0  0  0  0
    1.6845    2.1134   -0.0617 H   0  0  0  0  0  0  0  0  0  0  0  0
   -0.4078   -0.8114    1.2579 H   0  0  0  0  0  0  0  0  0  0  0  0
    0.0282   -2.3124   -0.3269 H   0  0  0  0  0  0  0  0  0  0  0  0
   -2.6548   -0.4059    0.5453 H   0  0  0  0  0  0  0  0  0  0  0  0
   -1.7900    1.1288    0.8233 H   0  0  0  0  0  0  0  0  0  0  0  0
   -2.9933    0.1791   -1.4700 H   0  0  0  0  0  0  0  0  0  0  0  0
  1  2  3  0
  2  3  1  0
  3  4  1  0
  3  5  1  0
  5  6  1  0
  5  7  1  0
  7  8  1  0
  1  9  1  0
  3 10  1  0
  4 11  1  0
  4 12  1  0
  4 13  1  0
  5 14  1  0
  6 15  1  0
  7 16  1  0
  7 17  1  0
  8 18  1  0
M  END
