
     RDKit          3D

 15 15  0  0  0  0  0  0  0  0999 V2000
    3.1177   -0.1259    0.3391 C   0  0  0  0  0  0  0  0  0  0  0  0
    1.9776   -0.4932    0.1318 C   0  0  0  0  0  0  0  0  0  0  0  0
    0.6063   -0.9530   -0.0999 C   0  0  0  0  0  0  0  0  0  0  0  0
    0.1461   -0.4094   -1.4217 O   0  0  0  0  0  0  0  0  0  0  0  0
   -0.4721   -0.0531   -0.1027 C   0  0  0  0  0  0  0  0  0  0  0  0
   -1.8973   -0.6104   -0.1353 C   0  0  0  0  0  0  0  0  0  0  0  0
   -0.3519    1.4042    0.2252 C   0  0  0  0  0  0  0  0  0  0  0  0
    4.1173    0.2065    0.5134 H   0  0  0  0  0  0  0  0  0  0  0  0
    0.4564   -2.0355   -0.0281 H   0  0  0  0  0  0  0  0  0  0  0  0
   -2.3147   -0.7063    0.8648 H   0  0  0  0  0  0  0  0  0  0  0  0
   -2.4660    0.0634   -0.8059 H   0  0  0  0  0  0  0  0  0  0  0  0
   -1.9167   -1.6113   -0.6244 H   0  0  0  0  0  0  0  0  0  0  0  0
    0.4994    1.5691    0.9074 H   0  0  0  0  0  0  0  0  0  0  0  0
   -1.2935    1.7250    0.7509 H   0  0  0  0  0  0  0  0  0  0  0  0
   -0.2085    2.0298   -0.6632 H   0  0  0  0  0  0  0  0  0  0  0  0
  1  2  3  0
  2  3  1  0
  3  4  1  0
  4  5  1  0
  5  6  1  0
  5  7  1  0
  5  3  1  0
  1  8  1  0
  3  9  1  0
  6 10  1  0
  6 11  1  0
  6 12  1  0
  7 13  1  0
  7 14  1  0
  7 15  1  0
M  END
