
     RDKit          3D

 15 15  0  0  0  0  0  0  0  0999 V2000
    0.2359   -2.8948   -0.2632 C   0  0  0  0  0  0  0  0  0  0  0  0
    0.4219   -1.6161   -0.2295 C   0  0  0  0  0  0  0  0  0  0  0  0
    0.6214   -0.2788   -0.1921 C   0  0  0  0  0  0  0  0  0  0  0  0
    1.5645    0.4068    0.7536 C   0  0  0  0  0  0  0  0  0  0  0  0
    0.6293    1.6438    0.6138 C   0  0  0  0  0  0  0  0  0  0  0  0
    0.5954    2.7344    0.4815 O   0  0  0  0  0  0  0  0  0  0  0  0
   -0.4163    0.4769    0.7364 C   0  0  0  0  0  0  0  0  0  0  0  0
   -1.7113    0.6569    0.1137 C   0  0  0  0  0  0  0  0  0  0  0  0
   -2.8192    0.8293   -0.4287 C   0  0  0  0  0  0  0  0  0  0  0  0
    0.0873   -3.9972   -0.2848 H   0  0  0  0  0  0  0  0  0  0  0  0
    0.6709    0.2354   -1.2097 H   0  0  0  0  0  0  0  0  0  0  0  0
    2.5576    0.6191    0.2554 H   0  0  0  0  0  0  0  0  0  0  0  0
    1.5636    0.0928    1.7814 H   0  0  0  0  0  0  0  0  0  0  0  0
   -0.3727    0.1260    1.7263 H   0  0  0  0  0  0  0  0  0  0  0  0
   -3.6283    0.9654   -0.8388 H   0  0  0  0  0  0  0  0  0  0  0  0
  1  2  3  0
  2  3  1  0
  3  4  1  0
  4  5  1  0
  5  6  2  0
  5  7  1  0
  7  8  1  0
  8  9  3  0
  7  3  1  0
  1 10  1  0
  3 11  1  0
  4 12  1  0
  4 13  1  0
  7 14  1  0
  9 15  1  0
M  END
