
     RDKit          3D

 17 18  0  0  0  0  0  0  0  0999 V2000
   -3.4602   -1.4454    0.7287 C   0  0  0  0  0  0  0  0  0  0  0  0
   -2.2932   -1.1926    0.7992 C   0  0  0  0  0  0  0  0  0  0  0  0
   -0.8797   -0.8784    0.8696 C   0  0  0  0  0  0  0  0  0  0  0  0
   -0.0666   -1.0139   -0.4056 C   0  0  0  0  0  0  0  0  0  0  0  0
    0.7534    0.1568    0.0748 C   0  0  0  0  0  0  0  0  0  0  0  0
    0.7406    1.2859   -0.7061 O   0  0  0  0  0  0  0  0  0  0  0  0
    2.0779    1.7133   -0.8410 C   0  0  0  0  0  0  0  0  0  0  0  0
   -0.2392    0.2589    1.2419 C   0  0  0  0  0  0  0  0  0  0  0  0
   -0.2857   -0.8268    2.0930 O   0  0  0  0  0  0  0  0  0  0  0  0
   -4.5094   -1.6779    0.6631 H   0  0  0  0  0  0  0  0  0  0  0  0
    0.4373   -1.9817   -0.4424 H   0  0  0  0  0  0  0  0  0  0  0  0
   -0.7294   -0.8270   -1.2660 H   0  0  0  0  0  0  0  0  0  0  0  0
    1.7631   -0.1713    0.4216 H   0  0  0  0  0  0  0  0  0  0  0  0
    2.1729    2.6178   -1.4535 H   0  0  0  0  0  0  0  0  0  0  0  0
    2.6341    0.8862   -1.3609 H   0  0  0  0  0  0  0  0  0  0  0  0
    2.5521    1.8697    0.1411 H   0  0  0  0  0  0  0  0  0  0  0  0
   -0.6680    1.2262    1.4983 H   0  0  0  0  0  0  0  0  0  0  0  0
  1  2  3  0
  2  3  1  0
  3  4  1  0
  4  5  1  0
  5  6  1  0
  6  7  1  0
  5  8  1  0
  8  9  1  0
  8  3  1  0
  9  3  1  0
  1 10  1  0
  4 11  1  0
  4 12  1  0
  5 13  1  0
  7 14  1  0
  7 15  1  0
  7 16  1  0
  8 17  1  0
M  END
