
     RDKit          3D

 19 20  0  0  0  0  0  0  0  0999 V2000
    3.4625    0.4532   -0.0616 C   0  0  0  0  0  0  0  0  0  0  0  0
    2.4419   -0.1961   -0.0606 C   0  0  0  0  0  0  0  0  0  0  0  0
    1.1747   -0.9725   -0.0531 C   0  0  0  0  0  0  0  0  0  0  0  0
    0.1020   -0.5347   -0.8403 C   0  0  0  0  0  0  0  0  0  0  0  0
   -1.3441   -0.8508   -0.9189 C   0  0  0  0  0  0  0  0  0  0  0  0
   -1.8819    0.3034   -0.0439 C   0  0  0  0  0  0  0  0  0  0  0  0
   -0.6797    0.7176    0.8322 C   0  0  0  0  0  0  0  0  0  0  0  0
   -0.0902    1.8311    0.2896 O   0  0  0  0  0  0  0  0  0  0  0  0
    0.1119   -0.5275    0.7432 C   0  0  0  0  0  0  0  0  0  0  0  0
    4.3562    1.0238   -0.0441 H   0  0  0  0  0  0  0  0  0  0  0  0
    1.4324   -2.0731   -0.0820 H   0  0  0  0  0  0  0  0  0  0  0  0
    0.2513    0.4806   -1.3271 H   0  0  0  0  0  0  0  0  0  0  0  0
   -1.5945   -1.8228   -0.4901 H   0  0  0  0  0  0  0  0  0  0  0  0
   -1.7608   -0.7273   -1.9488 H   0  0  0  0  0  0  0  0  0  0  0  0
   -2.1734    1.1370   -0.7005 H   0  0  0  0  0  0  0  0  0  0  0  0
   -2.6975   -0.0743    0.5769 H   0  0  0  0  0  0  0  0  0  0  0  0
   -1.0482    0.9167    1.8722 H   0  0  0  0  0  0  0  0  0  0  0  0
    0.4352    2.2701    1.0259 H   0  0  0  0  0  0  0  0  0  0  0  0
   -0.4977   -1.3542    1.2310 H   0  0  0  0  0  0  0  0  0  0  0  0
  1  2  3  0
  2  3  1  0
  3  4  1  0
  4  5  1  0
  5  6  1  0
  6  7  1  0
  7  8  1  0
  7  9  1  0
  9  3  1  0
  9  4  1  0
  1 10  1  0
  3 11  1  0
  4 12  1  0
  5 13  1  0
  5 14  1  0
  6 15  1  0
  6 16  1  0
  7 17  1  0
  8 18  1  0
  9 19  1  0
M  END
