
     RDKit          3D

 17 19  0  0  0  0  0  0  0  0999 V2000
    0.4783   -1.1640    3.6342 C   0  0  0  0  0  0  0  0  0  0  0  0
   -0.0212   -0.9610    2.5582 C   0  0  0  0  0  0  0  0  0  0  0  0
   -0.5873   -0.7562    1.3506 C   0  0  0  0  0  0  0  0  0  0  0  0
    0.0176    0.5338    0.7620 C   0  0  0  0  0  0  0  0  0  0  0  0
   -0.8301    1.2883   -0.0125 O   0  0  0  0  0  0  0  0  0  0  0  0
   -0.4918    0.3888   -1.0169 C   0  0  0  0  0  0  0  0  0  0  0  0
   -0.6935    0.5570   -2.3923 C   0  0  0  0  0  0  0  0  0  0  0  0
    0.7341    0.7058   -1.8726 C   0  0  0  0  0  0  0  0  0  0  0  0
   -0.2503   -0.7591   -0.0619 C   0  0  0  0  0  0  0  0  0  0  0  0
    0.9771   -1.3565    4.7031 H   0  0  0  0  0  0  0  0  0  0  0  0
   -1.7727   -0.5002    1.5236 H   0  0  0  0  0  0  0  0  0  0  0  0
    1.1081    0.7157    0.8427 H   0  0  0  0  0  0  0  0  0  0  0  0
   -1.0849    1.5291   -2.8258 H   0  0  0  0  0  0  0  0  0  0  0  0
   -0.7982   -0.2467   -3.1652 H   0  0  0  0  0  0  0  0  0  0  0  0
    1.3876   -0.2138   -2.0523 H   0  0  0  0  0  0  0  0  0  0  0  0
    1.1976    1.6265   -1.5804 H   0  0  0  0  0  0  0  0  0  0  0  0
    0.6297   -1.3875   -0.3643 H   0  0  0  0  0  0  0  0  0  0  0  0
  1  2  3  0
  2  3  1  0
  3  4  1  0
  4  5  1  0
  5  6  1  0
  6  7  1  0
  7  8  1  0
  6  9  1  0
  9  3  1  0
  9  4  1  0
  8  6  1  0
  1 10  1  0
  3 11  1  0
  4 12  1  0
  7 13  1  0
  7 14  1  0
  8 15  1  0
  8 16  1  0
  9 17  1  0
M  END
