
     RDKit          3D

 15 16  0  0  0  0  0  0  0  0999 V2000
   -1.8805    1.8705    1.5891 C   0  0  0  0  0  0  0  0  0  0  0  0
   -1.3629    1.1109    0.8544 C   0  0  0  0  0  0  0  0  0  0  0  0
   -0.7135    0.1715   -0.0489 C   0  0  0  0  0  0  0  0  0  0  0  0
   -0.7217   -1.2905    0.0684 C   0  0  0  0  0  0  0  0  0  0  0  0
    0.3035   -1.3742   -1.0753 C   0  0  0  0  0  0  0  0  0  0  0  0
    0.4251    0.1742   -0.8038 C   0  0  0  0  0  0  0  0  0  0  0  0
    1.6501    0.5915   -0.2001 C   0  0  0  0  0  0  0  0  0  0  0  0
    2.7771    0.9800    0.3347 C   0  0  0  0  0  0  0  0  0  0  0  0
   -0.6155    0.8255   -1.3105 O   0  0  0  0  0  0  0  0  0  0  0  0
   -2.3719    2.5712    2.2537 H   0  0  0  0  0  0  0  0  0  0  0  0
   -1.7278   -1.7369   -0.3449 H   0  0  0  0  0  0  0  0  0  0  0  0
   -0.3405   -1.7847    0.9603 H   0  0  0  0  0  0  0  0  0  0  0  0
   -0.1646   -1.5043   -2.0737 H   0  0  0  0  0  0  0  0  0  0  0  0
    1.2566   -1.8150   -0.8756 H   0  0  0  0  0  0  0  0  0  0  0  0
    3.4864    1.2101    0.6722 H   0  0  0  0  0  0  0  0  0  0  0  0
  1  2  3  0
  2  3  1  0
  3  4  1  0
  4  5  1  0
  5  6  1  0
  6  7  1  0
  7  8  3  0
  6  9  1  0
  6  3  1  0
  9  3  1  0
  1 10  1  0
  4 11  1  0
  4 12  1  0
  5 13  1  0
  5 14  1  0
  8 15  1  0
M  END
