
     RDKit          3D

 17 18  0  0  0  0  0  0  0  0999 V2000
    3.2589    0.1407   -0.1491 C   0  0  0  0  0  0  0  0  0  0  0  0
    2.0634    0.0639   -0.0131 C   0  0  0  0  0  0  0  0  0  0  0  0
    0.5992   -0.0381    0.1293 C   0  0  0  0  0  0  0  0  0  0  0  0
   -0.0003   -0.8402   -0.9832 C   0  0  0  0  0  0  0  0  0  0  0  0
   -1.4567   -1.0465   -0.6293 C   0  0  0  0  0  0  0  0  0  0  0  0
   -1.9265   -0.3671    0.4070 C   0  0  0  0  0  0  0  0  0  0  0  0
   -0.9690    0.4773    1.1622 C   0  0  0  0  0  0  0  0  0  0  0  0
   -0.0803    1.2874    0.2519 C   0  0  0  0  0  0  0  0  0  0  0  0
    0.1516   -0.3587    1.3897 O   0  0  0  0  0  0  0  0  0  0  0  0
    4.3121    0.1909   -0.2729 H   0  0  0  0  0  0  0  0  0  0  0  0
    0.0002   -0.2612   -1.9233 H   0  0  0  0  0  0  0  0  0  0  0  0
    0.4645   -1.8279   -1.0712 H   0  0  0  0  0  0  0  0  0  0  0  0
   -2.0137   -1.7258   -1.2359 H   0  0  0  0  0  0  0  0  0  0  0  0
   -2.9529   -0.3995    0.7198 H   0  0  0  0  0  0  0  0  0  0  0  0
   -1.3447    0.9707    2.0579 H   0  0  0  0  0  0  0  0  0  0  0  0
   -0.5417    1.6643   -0.6692 H   0  0  0  0  0  0  0  0  0  0  0  0
    0.4358    2.0698    0.8297 H   0  0  0  0  0  0  0  0  0  0  0  0
  1  2  3  0
  2  3  1  0
  3  4  1  0
  4  5  1  0
  5  6  2  0
  6  7  1  0
  7  8  1  0
  7  9  1  0
  8  3  1  0
  9  3  1  0
  1 10  1  0
  4 11  1  0
  4 12  1  0
  5 13  1  0
  6 14  1  0
  7 15  1  0
  8 16  1  0
  8 17  1  0
M  END
