
     RDKit          3D

 21 21  0  0  0  0  0  0  0  0999 V2000
    1.6722    2.7210    0.1910 C   0  0  0  0  0  0  0  0  0  0  0  0
    1.0368    1.5931   -0.2744 C   0  0  0  0  0  0  0  0  0  0  0  0
    0.4113    0.5077   -0.7435 C   0  0  0  0  0  0  0  0  0  0  0  0
   -0.9778    0.5084    0.1106 C   0  0  0  0  0  0  0  0  0  0  0  0
   -2.0468   -0.2534   -0.4935 C   0  0  0  0  0  0  0  0  0  0  0  0
   -0.4220   -0.2140    1.3357 C   0  0  0  0  0  0  0  0  0  0  0  0
    0.1661   -1.4532    0.6095 C   0  0  0  0  0  0  0  0  0  0  0  0
    0.9818   -0.7935   -0.4136 C   0  0  0  0  0  0  0  0  0  0  0  0
    1.5370   -1.4805   -1.4596 O   0  0  0  0  0  0  0  0  0  0  0  0
    2.2462    3.7032    0.6064 H   0  0  0  0  0  0  0  0  0  0  0  0
    0.0248    0.7162   -1.8271 H   0  0  0  0  0  0  0  0  0  0  0  0
   -1.2362    1.5632    0.2611 H   0  0  0  0  0  0  0  0  0  0  0  0
   -2.1977   -1.2564   -0.0585 H   0  0  0  0  0  0  0  0  0  0  0  0
   -3.0284    0.3794   -0.3412 H   0  0  0  0  0  0  0  0  0  0  0  0
   -2.0064   -0.3931   -1.6227 H   0  0  0  0  0  0  0  0  0  0  0  0
    0.4840    0.3039    1.7343 H   0  0  0  0  0  0  0  0  0  0  0  0
   -1.1997   -0.4471    2.0493 H   0  0  0  0  0  0  0  0  0  0  0  0
    0.7847   -2.0163    1.3593 H   0  0  0  0  0  0  0  0  0  0  0  0
   -0.6797   -2.0471    0.2081 H   0  0  0  0  0  0  0  0  0  0  0  0
    1.9299   -0.4448    0.2811 H   0  0  0  0  0  0  0  0  0  0  0  0
    2.5200   -1.1965   -1.5125 H   0  0  0  0  0  0  0  0  0  0  0  0
  1  2  3  0
  2  3  1  0
  3  4  1  0
  4  5  1  0
  4  6  1  0
  6  7  1  0
  7  8  1  0
  8  9  1  0
  8  3  1  0
  1 10  1  0
  3 11  1  0
  4 12  1  0
  5 13  1  0
  5 14  1  0
  5 15  1  0
  6 16  1  0
  6 17  1  0
  7 18  1  0
  7 19  1  0
  8 20  1  0
  9 21  1  0
M  END
