
     RDKit          3D

 15 15  0  0  0  0  0  0  0  0999 V2000
    3.1488    1.7170    0.0067 C   0  0  0  0  0  0  0  0  0  0  0  0
    1.9894    0.3203    0.1489 C   0  0  0  0  0  0  0  0  0  0  0  0
    1.2070   -0.6078    0.2630 C   0  0  0  0  0  0  0  0  0  0  0  0
    0.0202    0.1479   -0.5673 C   0  0  0  0  0  0  0  0  0  0  0  0
   -1.0583   -0.8078   -0.3370 C   0  0  0  0  0  0  0  0  0  0  0  0
   -2.1892    0.4644   -0.3517 C   0  0  0  0  0  0  0  0  0  0  0  0
   -2.8844    1.2670   -0.3721 C   0  0  0  0  0  0  0  0  0  0  0  0
   -0.8042   -1.0339    1.1808 O   0  0  0  0  0  0  0  0  0  0  0  0
    0.5932   -1.7140    0.6468 C   0  0  0  0  0  0  0  0  0  0  0  0
    4.0846    2.8522   -0.1282 H   0  0  0  0  0  0  0  0  0  0  0  0
    0.2213    0.9092   -0.9965 H   0  0  0  0  0  0  0  0  0  0  0  0
   -1.6387   -1.5140   -0.6812 H   0  0  0  0  0  0  0  0  0  0  0  0
   -3.7293    2.2605   -0.3996 H   0  0  0  0  0  0  0  0  0  0  0  0
    0.9051   -1.8986    1.6416 H   0  0  0  0  0  0  0  0  0  0  0  0
    0.1346   -2.3624   -0.0542 H   0  0  0  0  0  0  0  0  0  0  0  0
  1  2  3  0
  2  3  1  0
  3  4  2  0
  4  5  1  0
  5  6  1  0
  6  7  3  0
  5  8  1  0
  8  9  1  0
  9  3  1  0
  1 10  1  0
  4 11  1  0
  5 12  1  0
  7 13  1  0
  9 14  1  0
  9 15  1  0
M  END
