
     RDKit          3D

 21 20  0  0  0  0  0  0  0  0999 V2000
   -0.5775    2.3006    2.1231 C   0  0  0  0  0  0  0  0  0  0  0  0
   -0.5611    1.5344    1.1886 C   0  0  0  0  0  0  0  0  0  0  0  0
   -0.5627    0.6094    0.0504 C   0  0  0  0  0  0  0  0  0  0  0  0
   -1.8816   -0.0917   -0.0288 C   0  0  0  0  0  0  0  0  0  0  0  0
   -0.4089    1.3860   -1.0973 O   0  0  0  0  0  0  0  0  0  0  0  0
    0.6043   -0.3474    0.1463 C   0  0  0  0  0  0  0  0  0  0  0  0
    1.9027    0.4137    0.1455 C   0  0  0  0  0  0  0  0  0  0  0  0
    0.5939   -1.3933   -0.9122 C   0  0  0  0  0  0  0  0  0  0  0  0
   -0.5549   -2.1555   -0.8378 O   0  0  0  0  0  0  0  0  0  0  0  0
   -0.5806    2.9712    2.9643 H   0  0  0  0  0  0  0  0  0  0  0  0
   -2.0894   -0.4093   -1.0707 H   0  0  0  0  0  0  0  0  0  0  0  0
   -2.7051    0.6103    0.2541 H   0  0  0  0  0  0  0  0  0  0  0  0
   -1.9635   -0.9869    0.6114 H   0  0  0  0  0  0  0  0  0  0  0  0
   -0.2096    0.7579   -1.8397 H   0  0  0  0  0  0  0  0  0  0  0  0
    0.5153   -0.8540    1.1306 H   0  0  0  0  0  0  0  0  0  0  0  0
    1.6825    1.5065    0.1109 H   0  0  0  0  0  0  0  0  0  0  0  0
    2.4226    0.1839   -0.8055 H   0  0  0  0  0  0  0  0  0  0  0  0
    2.5304    0.1485    1.0196 H   0  0  0  0  0  0  0  0  0  0  0  0
    0.8047   -1.0095   -1.9281 H   0  0  0  0  0  0  0  0  0  0  0  0
    1.4485   -2.0923   -0.6824 H   0  0  0  0  0  0  0  0  0  0  0  0
   -0.4100   -3.0827   -0.5423 H   0  0  0  0  0  0  0  0  0  0  0  0
  1  2  3  0
  2  3  1  0
  3  4  1  0
  3  5  1  0
  3  6  1  0
  6  7  1  0
  6  8  1  0
  8  9  1  0
  1 10  1  0
  4 11  1  0
  4 12  1  0
  4 13  1  0
  5 14  1  0
  6 15  1  0
  7 16  1  0
  7 17  1  0
  7 18  1  0
  8 19  1  0
  8 20  1  0
  9 21  1  0
M  END
