
     RDKit          3D

 17 18  0  0  0  0  0  0  0  0999 V2000
    2.2360    1.3012    1.2381 C   0  0  0  0  0  0  0  0  0  0  0  0
    1.6503    0.5357    0.5549 C   0  0  0  0  0  0  0  0  0  0  0  0
    0.9524   -0.4173   -0.2812 C   0  0  0  0  0  0  0  0  0  0  0  0
   -0.2727   -1.0073    0.4075 C   0  0  0  0  0  0  0  0  0  0  0  0
   -1.0211    0.1998    0.9151 C   0  0  0  0  0  0  0  0  0  0  0  0
   -0.8246    1.0770   -0.3104 C   0  0  0  0  0  0  0  0  0  0  0  0
   -1.2204    2.2135   -0.4301 O   0  0  0  0  0  0  0  0  0  0  0  0
   -0.0803    0.1970   -1.2060 C   0  0  0  0  0  0  0  0  0  0  0  0
   -0.8280   -1.1320   -1.0168 C   0  0  0  0  0  0  0  0  0  0  0  0
    2.7609    2.0064    1.8435 H   0  0  0  0  0  0  0  0  0  0  0  0
    1.5551   -1.2095   -0.7495 H   0  0  0  0  0  0  0  0  0  0  0  0
   -0.1748   -1.8758    0.9904 H   0  0  0  0  0  0  0  0  0  0  0  0
   -2.1090   -0.0131    1.0580 H   0  0  0  0  0  0  0  0  0  0  0  0
   -0.5547    0.6617    1.8057 H   0  0  0  0  0  0  0  0  0  0  0  0
    0.1931    0.4758   -2.1830 H   0  0  0  0  0  0  0  0  0  0  0  0
   -0.3480   -1.9626   -1.5651 H   0  0  0  0  0  0  0  0  0  0  0  0
   -1.9143   -1.0505   -1.0711 H   0  0  0  0  0  0  0  0  0  0  0  0
  1  2  3  0
  2  3  1  0
  3  4  1  0
  4  5  1  0
  5  6  1  0
  6  7  2  0
  6  8  1  0
  8  9  1  0
  8  3  1  0
  9  4  1  0
  1 10  1  0
  3 11  1  0
  4 12  1  0
  5 13  1  0
  5 14  1  0
  8 15  1  0
  9 16  1  0
  9 17  1  0
M  END
