
     RDKit          3D

 19 20  0  0  0  0  0  0  0  0999 V2000
    3.0395    0.4239   -2.0142 C   0  0  0  0  0  0  0  0  0  0  0  0
    2.1485    0.7753   -1.3756 C   0  0  0  0  0  0  0  0  0  0  0  0
    1.0435    1.2216   -0.5531 C   0  0  0  0  0  0  0  0  0  0  0  0
   -0.3458    1.3101   -1.0225 C   0  0  0  0  0  0  0  0  0  0  0  0
    0.1069    0.3394    0.0855 C   0  0  0  0  0  0  0  0  0  0  0  0
   -0.2619   -1.0698   -0.2695 C   0  0  0  0  0  0  0  0  0  0  0  0
   -1.6373   -1.0457    0.4643 C   0  0  0  0  0  0  0  0  0  0  0  0
   -0.9961   -0.6101    1.8202 C   0  0  0  0  0  0  0  0  0  0  0  0
   -0.3309    0.5498    1.3917 O   0  0  0  0  0  0  0  0  0  0  0  0
    3.8752    0.0896   -2.6367 H   0  0  0  0  0  0  0  0  0  0  0  0
    1.3296    2.1361    0.0727 H   0  0  0  0  0  0  0  0  0  0  0  0
   -1.0336    2.1035   -0.6274 H   0  0  0  0  0  0  0  0  0  0  0  0
   -0.5565    0.9099   -2.0133 H   0  0  0  0  0  0  0  0  0  0  0  0
    0.3402   -1.8175    0.2757 H   0  0  0  0  0  0  0  0  0  0  0  0
   -0.3755   -1.3223   -1.2977 H   0  0  0  0  0  0  0  0  0  0  0  0
   -2.2280   -0.1703    0.0985 H   0  0  0  0  0  0  0  0  0  0  0  0
   -2.1290   -1.9869    0.5011 H   0  0  0  0  0  0  0  0  0  0  0  0
   -0.2489   -1.3834    1.9961 H   0  0  0  0  0  0  0  0  0  0  0  0
   -1.7397   -0.4530    2.5855 H   0  0  0  0  0  0  0  0  0  0  0  0
  1  2  3  0
  2  3  1  0
  3  4  1  0
  4  5  1  0
  5  6  1  0
  6  7  1  0
  7  8  1  0
  8  9  1  0
  5  3  1  0
  9  5  1  0
  1 10  1  0
  3 11  1  0
  4 12  1  0
  4 13  1  0
  6 14  1  0
  6 15  1  0
  7 16  1  0
  7 17  1  0
  8 18  1  0
  8 19  1  0
M  END
