
     RDKit          3D

 19 20  0  0  0  0  0  0  0  0999 V2000
    3.2574    0.5870   -0.5927 C   0  0  0  0  0  0  0  0  0  0  0  0
    2.1106    0.0977   -0.0436 C   0  0  0  0  0  0  0  0  0  0  0  0
    0.9844   -0.3604    0.5016 C   0  0  0  0  0  0  0  0  0  0  0  0
   -0.1614   -0.6843   -0.3304 C   0  0  0  0  0  0  0  0  0  0  0  0
   -1.1290   -1.7245    0.1961 C   0  0  0  0  0  0  0  0  0  0  0  0
   -0.8232    0.6907   -0.0232 C   0  0  0  0  0  0  0  0  0  0  0  0
   -1.0415    1.5025   -1.0639 O   0  0  0  0  0  0  0  0  0  0  0  0
   -1.1995    0.8887    1.3958 C   0  0  0  0  0  0  0  0  0  0  0  0
    0.2162    0.8731    1.0507 C   0  0  0  0  0  0  0  0  0  0  0  0
    4.2403    1.0088   -1.0492 H   0  0  0  0  0  0  0  0  0  0  0  0
    1.2156   -1.0761    1.3878 H   0  0  0  0  0  0  0  0  0  0  0  0
    0.0398   -0.7780   -1.4234 H   0  0  0  0  0  0  0  0  0  0  0  0
   -2.1734   -1.3351   -0.0022 H   0  0  0  0  0  0  0  0  0  0  0  0
   -0.9680   -2.6962   -0.2653 H   0  0  0  0  0  0  0  0  0  0  0  0
   -0.9553   -1.7272    1.3140 H   0  0  0  0  0  0  0  0  0  0  0  0
   -1.1691    0.9355   -1.8940 H   0  0  0  0  0  0  0  0  0  0  0  0
   -1.5809    0.0614    2.0358 H   0  0  0  0  0  0  0  0  0  0  0  0
   -1.6590    1.9007    1.5759 H   0  0  0  0  0  0  0  0  0  0  0  0
    0.7959    1.8357    1.0724 H   0  0  0  0  0  0  0  0  0  0  0  0
  1  2  3  0
  2  3  1  0
  3  4  1  0
  4  5  1  0
  4  6  1  0
  6  7  1  0
  6  8  1  0
  8  9  1  0
  9  3  1  0
  9  6  1  0
  1 10  1  0
  3 11  1  0
  4 12  1  0
  5 13  1  0
  5 14  1  0
  5 15  1  0
  7 16  1  0
  8 17  1  0
  8 18  1  0
  9 19  1  0
M  END
