
     RDKit          3D

 17 17  0  0  0  0  0  0  0  0999 V2000
    3.2725   -1.1364    0.5937 C   0  0  0  0  0  0  0  0  0  0  0  0
    2.3353   -0.8183    0.0894 C   0  0  0  0  0  0  0  0  0  0  0  0
    1.0325   -0.3578   -0.6269 C   0  0  0  0  0  0  0  0  0  0  0  0
    0.8173    1.0422   -0.2317 C   0  0  0  0  0  0  0  0  0  0  0  0
   -0.6794    1.0921    0.0928 C   0  0  0  0  0  0  0  0  0  0  0  0
   -1.1169   -0.2920   -0.3867 C   0  0  0  0  0  0  0  0  0  0  0  0
   -2.4041   -0.5928    0.3568 C   0  0  0  0  0  0  0  0  0  0  0  0
   -3.3896   -0.8090    0.9077 C   0  0  0  0  0  0  0  0  0  0  0  0
   -0.0415   -1.0690   -0.0777 O   0  0  0  0  0  0  0  0  0  0  0  0
    4.2050   -1.4457    1.0750 H   0  0  0  0  0  0  0  0  0  0  0  0
    1.1888   -0.5163   -1.6927 H   0  0  0  0  0  0  0  0  0  0  0  0
    1.4503    1.3609    0.5895 H   0  0  0  0  0  0  0  0  0  0  0  0
    0.9571    1.7292   -1.1334 H   0  0  0  0  0  0  0  0  0  0  0  0
   -1.1403    1.8238   -0.6120 H   0  0  0  0  0  0  0  0  0  0  0  0
   -0.8797    1.2839    1.1402 H   0  0  0  0  0  0  0  0  0  0  0  0
   -1.3334   -0.2830   -1.4695 H   0  0  0  0  0  0  0  0  0  0  0  0
   -4.2739   -1.0119    1.3856 H   0  0  0  0  0  0  0  0  0  0  0  0
  1  2  3  0
  2  3  1  0
  3  4  1  0
  4  5  1  0
  5  6  1  0
  6  7  1  0
  7  8  3  0
  6  9  1  0
  9  3  1  0
  1 10  1  0
  3 11  1  0
  4 12  1  0
  4 13  1  0
  5 14  1  0
  5 15  1  0
  6 16  1  0
  8 17  1  0
M  END
