
     RDKit          3D

 19 19  0  0  0  0  0  0  0  0999 V2000
   -1.4223    2.0715   -0.8192 C   0  0  0  0  0  0  0  0  0  0  0  0
   -1.2044    1.0349   -0.2933 C   0  0  0  0  0  0  0  0  0  0  0  0
   -0.9429   -0.2314    0.3737 C   0  0  0  0  0  0  0  0  0  0  0  0
   -1.4725   -0.2535    1.7966 C   0  0  0  0  0  0  0  0  0  0  0  0
    0.5337   -0.5607    0.3314 C   0  0  0  0  0  0  0  0  0  0  0  0
    0.8215   -1.7697    0.9556 O   0  0  0  0  0  0  0  0  0  0  0  0
    0.9691   -0.6279   -1.1164 C   0  0  0  0  0  0  0  0  0  0  0  0
    1.7144    0.4574   -1.7114 C   0  0  0  0  0  0  0  0  0  0  0  0
    2.3007   -0.8672   -1.4140 O   0  0  0  0  0  0  0  0  0  0  0  0
   -1.6342    3.0277   -1.3230 H   0  0  0  0  0  0  0  0  0  0  0  0
   -1.5149   -1.0205   -0.1535 H   0  0  0  0  0  0  0  0  0  0  0  0
   -1.9550    0.7261    1.9852 H   0  0  0  0  0  0  0  0  0  0  0  0
   -0.5576   -0.2419    2.4602 H   0  0  0  0  0  0  0  0  0  0  0  0
   -2.1207   -1.1058    2.0122 H   0  0  0  0  0  0  0  0  0  0  0  0
    1.1015    0.2840    0.8249 H   0  0  0  0  0  0  0  0  0  0  0  0
    1.2877   -1.6794    1.8109 H   0  0  0  0  0  0  0  0  0  0  0  0
    0.2613   -1.1703   -1.8128 H   0  0  0  0  0  0  0  0  0  0  0  0
    2.1754    1.2617   -1.1092 H   0  0  0  0  0  0  0  0  0  0  0  0
    1.6591    0.6651   -2.7980 H   0  0  0  0  0  0  0  0  0  0  0  0
  1  2  3  0
  2  3  1  0
  3  4  1  0
  3  5  1  0
  5  6  1  0
  5  7  1  0
  7  8  1  0
  8  9  1  0
  9  7  1  0
  1 10  1  0
  3 11  1  0
  4 12  1  0
  4 13  1  0
  4 14  1  0
  5 15  1  0
  6 16  1  0
  7 17  1  0
  8 18  1  0
  8 19  1  0
M  END
