
     RDKit          3D

 19 19  0  0  0  0  0  0  0  0999 V2000
   -3.0543   -1.5684    1.1410 C   0  0  0  0  0  0  0  0  0  0  0  0
   -2.1013   -1.1792    0.5125 C   0  0  0  0  0  0  0  0  0  0  0  0
   -0.9218   -0.7066   -0.2356 C   0  0  0  0  0  0  0  0  0  0  0  0
    0.1640   -0.4038    0.7469 C   0  0  0  0  0  0  0  0  0  0  0  0
    1.1812    0.2800    0.1675 C   0  0  0  0  0  0  0  0  0  0  0  0
    2.3554    0.6824    0.9521 C   0  0  0  0  0  0  0  0  0  0  0  0
    0.9796    0.5540   -1.2785 C   0  0  0  0  0  0  0  0  0  0  0  0
   -0.2279    1.0530   -1.6334 O   0  0  0  0  0  0  0  0  0  0  0  0
   -1.3090    0.5298   -0.9608 C   0  0  0  0  0  0  0  0  0  0  0  0
   -3.8818   -1.9190    1.7043 H   0  0  0  0  0  0  0  0  0  0  0  0
   -0.5389   -1.4396   -0.9428 H   0  0  0  0  0  0  0  0  0  0  0  0
    0.1585   -0.6829    1.7829 H   0  0  0  0  0  0  0  0  0  0  0  0
    3.0235    1.2799    0.2983 H   0  0  0  0  0  0  0  0  0  0  0  0
    2.0657    1.3429    1.8138 H   0  0  0  0  0  0  0  0  0  0  0  0
    2.8768   -0.2258    1.3437 H   0  0  0  0  0  0  0  0  0  0  0  0
    1.2114   -0.3776   -1.8319 H   0  0  0  0  0  0  0  0  0  0  0  0
    1.7874    1.2772   -1.5628 H   0  0  0  0  0  0  0  0  0  0  0  0
   -2.0829    0.3129   -1.7269 H   0  0  0  0  0  0  0  0  0  0  0  0
   -1.6859    1.3388   -0.2904 H   0  0  0  0  0  0  0  0  0  0  0  0
  1  2  3  0
  2  3  1  0
  3  4  1  0
  4  5  2  0
  5  6  1  0
  5  7  1  0
  7  8  1  0
  8  9  1  0
  9  3  1  0
  1 10  1  0
  3 11  1  0
  4 12  1  0
  6 13  1  0
  6 14  1  0
  6 15  1  0
  7 16  1  0
  7 17  1  0
  9 18  1  0
  9 19  1  0
M  END
