
     RDKit          3D

 15 14  0  0  0  0  0  0  0  0999 V2000
    1.8107   -0.3668    2.0975 C   0  0  0  0  0  0  0  0  0  0  0  0
    1.5504   -0.2049    0.9066 C   0  0  0  0  0  0  0  0  0  0  0  0
    1.2243   -0.0320   -0.5090 C   0  0  0  0  0  0  0  0  0  0  0  0
    1.2592   -1.2279   -1.1774 O   0  0  0  0  0  0  0  0  0  0  0  0
   -0.1339    0.6207   -0.5677 C   0  0  0  0  0  0  0  0  0  0  0  0
   -1.1862   -0.1853    0.0741 C   0  0  0  0  0  0  0  0  0  0  0  0
   -1.0004   -1.2933    0.6139 O   0  0  0  0  0  0  0  0  0  0  0  0
   -2.5420    0.3523    0.0775 C   0  0  0  0  0  0  0  0  0  0  0  0
   -2.8363    1.4717   -0.4442 O   0  0  0  0  0  0  0  0  0  0  0  0
    2.0338   -0.5113    3.1253 H   0  0  0  0  0  0  0  0  0  0  0  0
    1.9514    0.6647   -0.9828 H   0  0  0  0  0  0  0  0  0  0  0  0
    1.7705   -1.1378   -1.9957 H   0  0  0  0  0  0  0  0  0  0  0  0
   -0.1419    1.6140   -0.1048 H   0  0  0  0  0  0  0  0  0  0  0  0
   -0.3786    0.7594   -1.6407 H   0  0  0  0  0  0  0  0  0  0  0  0
   -3.3809   -0.1742    0.5272 H   0  0  0  0  0  0  0  0  0  0  0  0
  1  2  3  0
  2  3  1  0
  3  4  1  0
  3  5  1  0
  5  6  1  0
  6  7  2  0
  6  8  1  0
  8  9  2  0
  1 10  1  0
  3 11  1  0
  4 12  1  0
  5 13  1  0
  5 14  1  0
  8 15  1  0
M  END
