
     RDKit          3D

 16 17  0  0  0  0  0  0  0  0999 V2000
    3.1549    0.1985   -0.1145 C   0  0  0  0  0  0  0  0  0  0  0  0
    1.9699   -0.0567   -0.1738 C   0  0  0  0  0  0  0  0  0  0  0  0
    0.5458   -0.3770   -0.2255 C   0  0  0  0  0  0  0  0  0  0  0  0
   -0.2366    0.6252   -1.0386 C   0  0  0  0  0  0  0  0  0  0  0  0
   -1.6254    0.4754   -0.4509 C   0  0  0  0  0  0  0  0  0  0  0  0
   -1.3612    0.2247    1.0135 C   0  0  0  0  0  0  0  0  0  0  0  0
   -1.2317   -1.1198    1.3473 O   0  0  0  0  0  0  0  0  0  0  0  0
   -0.0435   -0.2164    1.1379 C   0  0  0  0  0  0  0  0  0  0  0  0
    4.1897    0.4268   -0.0804 H   0  0  0  0  0  0  0  0  0  0  0  0
    0.3542   -1.3702   -0.6333 H   0  0  0  0  0  0  0  0  0  0  0  0
    0.0936    1.6602   -0.9064 H   0  0  0  0  0  0  0  0  0  0  0  0
   -0.2497    0.2976   -2.1002 H   0  0  0  0  0  0  0  0  0  0  0  0
   -2.2393    1.3792   -0.6244 H   0  0  0  0  0  0  0  0  0  0  0  0
   -2.0864   -0.4147   -0.9485 H   0  0  0  0  0  0  0  0  0  0  0  0
   -1.8285    0.9011    1.7744 H   0  0  0  0  0  0  0  0  0  0  0  0
    0.5944   -0.3142    2.0235 H   0  0  0  0  0  0  0  0  0  0  0  0
  1  2  3  0
  2  3  1  0
  3  4  1  0
  4  5  1  0
  5  6  1  0
  6  7  1  0
  7  8  1  0
  8  3  1  0
  8  6  1  0
  1  9  1  0
  3 10  1  0
  4 11  1  0
  4 12  1  0
  5 13  1  0
  5 14  1  0
  6 15  1  0
  8 16  1  0
M  END
