
     RDKit          3D

 21 20  0  0  0  0  0  0  0  0999 V2000
    3.0688    1.6653   -0.5735 C   0  0  0  0  0  0  0  0  0  0  0  0
    2.4919    0.7357   -1.0922 C   0  0  0  0  0  0  0  0  0  0  0  0
    1.8171   -0.3960   -1.7278 C   0  0  0  0  0  0  0  0  0  0  0  0
    0.4528   -0.3738   -1.4393 O   0  0  0  0  0  0  0  0  0  0  0  0
    0.3217   -0.4531   -0.0744 C   0  0  0  0  0  0  0  0  0  0  0  0
   -1.1249   -0.4377    0.3684 C   0  0  0  0  0  0  0  0  0  0  0  0
   -1.7364    0.9124    0.0664 C   0  0  0  0  0  0  0  0  0  0  0  0
   -1.1095   -0.5853    1.8889 C   0  0  0  0  0  0  0  0  0  0  0  0
   -1.8532   -1.4809   -0.1438 O   0  0  0  0  0  0  0  0  0  0  0  0
    3.5581    2.4865   -0.1136 H   0  0  0  0  0  0  0  0  0  0  0  0
    2.0033   -0.4343   -2.8222 H   0  0  0  0  0  0  0  0  0  0  0  0
    2.2696   -1.3140   -1.3045 H   0  0  0  0  0  0  0  0  0  0  0  0
    0.8254   -1.3714    0.2849 H   0  0  0  0  0  0  0  0  0  0  0  0
    0.8240    0.4276    0.3793 H   0  0  0  0  0  0  0  0  0  0  0  0
   -2.8178    0.7365   -0.1487 H   0  0  0  0  0  0  0  0  0  0  0  0
   -1.2869    1.3899   -0.8267 H   0  0  0  0  0  0  0  0  0  0  0  0
   -1.6500    1.5796    0.9457 H   0  0  0  0  0  0  0  0  0  0  0  0
   -0.5123    0.2115    2.3635 H   0  0  0  0  0  0  0  0  0  0  0  0
   -2.1406   -0.5473    2.3033 H   0  0  0  0  0  0  0  0  0  0  0  0
   -0.6769   -1.5491    2.2065 H   0  0  0  0  0  0  0  0  0  0  0  0
   -2.7241   -1.2021   -0.5401 H   0  0  0  0  0  0  0  0  0  0  0  0
  1  2  3  0
  2  3  1  0
  3  4  1  0
  4  5  1  0
  5  6  1  0
  6  7  1  0
  6  8  1  0
  6  9  1  0
  1 10  1  0
  3 11  1  0
  3 12  1  0
  5 13  1  0
  5 14  1  0
  7 15  1  0
  7 16  1  0
  7 17  1  0
  8 18  1  0
  8 19  1  0
  8 20  1  0
  9 21  1  0
M  END
