
     RDKit          3D

 14 14  0  0  0  0  0  0  0  0999 V2000
    3.6475    0.7751   -0.9612 C   0  0  0  0  0  0  0  0  0  0  0  0
    2.7917   -0.0864   -0.8105 C   0  0  0  0  0  0  0  0  0  0  0  0
    1.7692   -1.0914   -0.6203 C   0  0  0  0  0  0  0  0  0  0  0  0
    0.4878   -0.4363   -0.3481 C   0  0  0  0  0  0  0  0  0  0  0  0
   -0.5649    0.1125   -0.1390 C   0  0  0  0  0  0  0  0  0  0  0  0
   -1.8611    0.7971    0.0958 C   0  0  0  0  0  0  0  0  0  0  0  0
   -2.9357    0.0696    0.7260 C   0  0  0  0  0  0  0  0  0  0  0  0
   -2.8839    0.2962   -0.6974 O   0  0  0  0  0  0  0  0  0  0  0  0
    4.3769    1.5334   -1.0965 H   0  0  0  0  0  0  0  0  0  0  0  0
    2.0705   -1.7625    0.2322 H   0  0  0  0  0  0  0  0  0  0  0  0
    1.6011   -1.7119   -1.5372 H   0  0  0  0  0  0  0  0  0  0  0  0
   -1.8410    1.8961    0.2035 H   0  0  0  0  0  0  0  0  0  0  0  0
   -3.7302    0.6228    1.2657 H   0  0  0  0  0  0  0  0  0  0  0  0
   -2.9277   -1.0143    0.9294 H   0  0  0  0  0  0  0  0  0  0  0  0
  1  2  3  0
  2  3  1  0
  3  4  1  0
  4  5  3  0
  5  6  1  0
  6  7  1  0
  7  8  1  0
  8  6  1  0
  1  9  1  0
  3 10  1  0
  3 11  1  0
  6 12  1  0
  7 13  1  0
  7 14  1  0
M  END
