
     RDKit          3D

 18 18  0  0  0  0  0  0  0  0999 V2000
    1.7089    0.9330   -1.5480 C   0  0  0  0  0  0  0  0  0  0  0  0
    1.2667    0.1352   -0.6998 C   0  0  0  0  0  0  0  0  0  0  0  0
    0.7391   -0.8076    0.2709 C   0  0  0  0  0  0  0  0  0  0  0  0
    0.3954   -2.1280   -0.3660 C   0  0  0  0  0  0  0  0  0  0  0  0
   -0.5008   -0.1941    0.8957 C   0  0  0  0  0  0  0  0  0  0  0  0
   -0.2105    1.1157    1.5993 C   0  0  0  0  0  0  0  0  0  0  0  0
   -1.0457    1.0888    0.4073 C   0  0  0  0  0  0  0  0  0  0  0  0
   -2.3858    1.3746    0.5302 O   0  0  0  0  0  0  0  0  0  0  0  0
    2.0596    1.6023   -2.2458 H   0  0  0  0  0  0  0  0  0  0  0  0
    1.5182   -1.0055    1.0418 H   0  0  0  0  0  0  0  0  0  0  0  0
   -0.1084   -1.9195   -1.3359 H   0  0  0  0  0  0  0  0  0  0  0  0
   -0.3797   -2.6889    0.2296 H   0  0  0  0  0  0  0  0  0  0  0  0
    1.2951   -2.7716   -0.5018 H   0  0  0  0  0  0  0  0  0  0  0  0
   -1.2301   -0.8927    1.3354 H   0  0  0  0  0  0  0  0  0  0  0  0
    0.8035    1.5614    1.5270 H   0  0  0  0  0  0  0  0  0  0  0  0
   -0.6061    1.1884    2.6295 H   0  0  0  0  0  0  0  0  0  0  0  0
   -0.5974    1.4556   -0.5471 H   0  0  0  0  0  0  0  0  0  0  0  0
   -2.7222    1.9531   -0.1898 H   0  0  0  0  0  0  0  0  0  0  0  0
  1  2  3  0
  2  3  1  0
  3  4  1  0
  3  5  1  0
  5  6  1  0
  6  7  1  0
  7  8  1  0
  7  5  1  0
  1  9  1  0
  3 10  1  0
  4 11  1  0
  4 12  1  0
  4 13  1  0
  5 14  1  0
  6 15  1  0
  6 16  1  0
  7 17  1  0
  8 18  1  0
M  END
