
     RDKit          3D

 19 20  0  0  0  0  0  0  0  0999 V2000
    2.8866   -0.7351   -0.7146 C   0  0  0  0  0  0  0  0  0  0  0  0
    1.7289   -0.3992   -0.7126 C   0  0  0  0  0  0  0  0  0  0  0  0
    0.3351    0.0126   -0.7336 C   0  0  0  0  0  0  0  0  0  0  0  0
   -0.5977   -0.7727    0.1353 C   0  0  0  0  0  0  0  0  0  0  0  0
   -0.9847   -2.0842   -0.0253 C   0  0  0  0  0  0  0  0  0  0  0  0
   -1.4989    0.4338    0.1537 C   0  0  0  0  0  0  0  0  0  0  0  0
   -0.1039    0.9012    0.4015 C   0  0  0  0  0  0  0  0  0  0  0  0
    0.3288    2.1843    0.6507 C   0  0  0  0  0  0  0  0  0  0  0  0
    0.0571   -0.2117    1.2212 O   0  0  0  0  0  0  0  0  0  0  0  0
    3.9176   -1.0513   -0.7247 H   0  0  0  0  0  0  0  0  0  0  0  0
   -0.0216    0.2864   -1.7291 H   0  0  0  0  0  0  0  0  0  0  0  0
   -1.0680   -2.6793    0.9125 H   0  0  0  0  0  0  0  0  0  0  0  0
   -0.2905   -2.6925   -0.6769 H   0  0  0  0  0  0  0  0  0  0  0  0
   -1.9887   -2.2173   -0.5262 H   0  0  0  0  0  0  0  0  0  0  0  0
   -1.8965    0.6602   -0.8388 H   0  0  0  0  0  0  0  0  0  0  0  0
   -2.2040    0.4916    0.9998 H   0  0  0  0  0  0  0  0  0  0  0  0
   -0.4905    2.9122    0.9261 H   0  0  0  0  0  0  0  0  0  0  0  0
    1.0574    2.2772    1.5094 H   0  0  0  0  0  0  0  0  0  0  0  0
    0.8335    2.6840   -0.2285 H   0  0  0  0  0  0  0  0  0  0  0  0
  1  2  3  0
  2  3  1  0
  3  4  1  0
  4  5  1  0
  4  6  1  0
  6  7  1  0
  7  8  1  0
  7  9  1  0
  7  3  1  0
  9  4  1  0
  1 10  1  0
  3 11  1  0
  5 12  1  0
  5 13  1  0
  5 14  1  0
  6 15  1  0
  6 16  1  0
  8 17  1  0
  8 18  1  0
  8 19  1  0
M  END
