
     RDKit          3D

 17 18  0  0  0  0  0  0  0  0999 V2000
    0.1393    2.8160    1.6298 C   0  0  0  0  0  0  0  0  0  0  0  0
   -0.0632    1.8363    0.9779 C   0  0  0  0  0  0  0  0  0  0  0  0
   -0.3409    0.6077    0.1424 C   0  0  0  0  0  0  0  0  0  0  0  0
   -0.5709   -0.4914    1.1158 C   0  0  0  0  0  0  0  0  0  0  0  0
   -0.8869   -1.8605    0.8534 C   0  0  0  0  0  0  0  0  0  0  0  0
   -1.9960   -0.8893    1.0872 O   0  0  0  0  0  0  0  0  0  0  0  0
    0.8763    0.3999   -0.7171 C   0  0  0  0  0  0  0  0  0  0  0  0
    0.9955   -0.6936   -1.7128 C   0  0  0  0  0  0  0  0  0  0  0  0
    1.6441   -0.7570   -0.4818 O   0  0  0  0  0  0  0  0  0  0  0  0
    0.3177    3.6649    2.2085 H   0  0  0  0  0  0  0  0  0  0  0  0
   -1.2386    0.8747   -0.4538 H   0  0  0  0  0  0  0  0  0  0  0  0
   -0.3340   -0.2009    2.1956 H   0  0  0  0  0  0  0  0  0  0  0  0
   -0.9253   -2.5476    1.7472 H   0  0  0  0  0  0  0  0  0  0  0  0
   -0.9326   -2.2851   -0.1421 H   0  0  0  0  0  0  0  0  0  0  0  0
    1.4571    1.3359   -0.9564 H   0  0  0  0  0  0  0  0  0  0  0  0
    1.7553   -0.5410   -2.5422 H   0  0  0  0  0  0  0  0  0  0  0  0
    0.1032   -1.2690   -1.9454 H   0  0  0  0  0  0  0  0  0  0  0  0
  1  2  3  0
  2  3  1  0
  3  4  1  0
  4  5  1  0
  5  6  1  0
  3  7  1  0
  7  8  1  0
  8  9  1  0
  6  4  1  0
  9  7  1  0
  1 10  1  0
  3 11  1  0
  4 12  1  0
  5 13  1  0
  5 14  1  0
  7 15  1  0
  8 16  1  0
  8 17  1  0
M  END
