
     RDKit          3D

 19 20  0  0  0  0  0  0  0  0999 V2000
    3.2201    1.6217   -0.2032 C   0  0  0  0  0  0  0  0  0  0  0  0
    2.1030    1.2588    0.2046 C   0  0  0  0  0  0  0  0  0  0  0  0
    0.7763    0.8005    0.6939 C   0  0  0  0  0  0  0  0  0  0  0  0
   -0.1894    0.7533   -0.4512 C   0  0  0  0  0  0  0  0  0  0  0  0
   -1.5842    0.3141   -0.1511 C   0  0  0  0  0  0  0  0  0  0  0  0
   -1.4731   -0.9712    0.6509 C   0  0  0  0  0  0  0  0  0  0  0  0
   -0.4266   -1.6486   -0.2596 C   0  0  0  0  0  0  0  0  0  0  0  0
   -0.2542   -0.5271   -1.2391 C   0  0  0  0  0  0  0  0  0  0  0  0
   -1.6123   -0.1898   -1.4684 O   0  0  0  0  0  0  0  0  0  0  0  0
    4.1288    1.8986   -0.5331 H   0  0  0  0  0  0  0  0  0  0  0  0
    0.4251    1.5679    1.4107 H   0  0  0  0  0  0  0  0  0  0  0  0
    0.8575   -0.1346    1.2431 H   0  0  0  0  0  0  0  0  0  0  0  0
   -0.1806    1.6399   -1.0874 H   0  0  0  0  0  0  0  0  0  0  0  0
   -2.3305    1.0273    0.1232 H   0  0  0  0  0  0  0  0  0  0  0  0
   -1.0561   -0.8117    1.6658 H   0  0  0  0  0  0  0  0  0  0  0  0
   -2.4179   -1.5059    0.6376 H   0  0  0  0  0  0  0  0  0  0  0  0
    0.4563   -1.9007    0.3170 H   0  0  0  0  0  0  0  0  0  0  0  0
   -0.8230   -2.5547   -0.7449 H   0  0  0  0  0  0  0  0  0  0  0  0
    0.3810   -0.6380   -2.0856 H   0  0  0  0  0  0  0  0  0  0  0  0
  1  2  3  0
  2  3  1  0
  3  4  1  0
  4  5  1  0
  5  6  1  0
  6  7  1  0
  7  8  1  0
  8  9  1  0
  8  4  1  0
  9  5  1  0
  1 10  1  0
  3 11  1  0
  3 12  1  0
  4 13  1  0
  5 14  1  0
  6 15  1  0
  6 16  1  0
  7 17  1  0
  7 18  1  0
  8 19  1  0
M  END
