
     RDKit          3D

 15 14  0  0  0  0  0  0  0  0999 V2000
    4.2452    0.4145   -0.7849 C   0  0  0  0  0  0  0  0  0  0  0  0
    3.0672    0.3406   -0.5302 C   0  0  0  0  0  0  0  0  0  0  0  0
    1.6873    0.2683   -0.2113 C   0  0  0  0  0  0  0  0  0  0  0  0
    0.5154    0.2211    0.0752 C   0  0  0  0  0  0  0  0  0  0  0  0
   -0.9151    0.1427    0.4396 C   0  0  0  0  0  0  0  0  0  0  0  0
   -1.7590    0.8316   -0.6199 C   0  0  0  0  0  0  0  0  0  0  0  0
   -1.2526   -1.2994    0.6094 C   0  0  0  0  0  0  0  0  0  0  0  0
    5.2979    0.4905   -0.9963 H   0  0  0  0  0  0  0  0  0  0  0  0
   -1.0452    0.6638    1.4239 H   0  0  0  0  0  0  0  0  0  0  0  0
   -1.1359    0.8740   -1.5468 H   0  0  0  0  0  0  0  0  0  0  0  0
   -2.6348    0.2121   -0.8350 H   0  0  0  0  0  0  0  0  0  0  0  0
   -2.0016    1.8778   -0.3497 H   0  0  0  0  0  0  0  0  0  0  0  0
   -1.7745   -1.4641    1.5791 H   0  0  0  0  0  0  0  0  0  0  0  0
   -0.3449   -1.9506    0.6425 H   0  0  0  0  0  0  0  0  0  0  0  0
   -1.9493   -1.6229   -0.2117 H   0  0  0  0  0  0  0  0  0  0  0  0
  1  2  3  0
  2  3  1  0
  3  4  3  0
  4  5  1  0
  5  6  1  0
  5  7  1  0
  1  8  1  0
  5  9  1  0
  6 10  1  0
  6 11  1  0
  6 12  1  0
  7 13  1  0
  7 14  1  0
  7 15  1  0
M  END
