
     RDKit          3D

 25 24  0  0  0  0  0  0  0  0999 V2000
   -2.3782    2.6542    0.2895 C   0  0  0  0  0  0  0  0  0  0  0  0
   -1.7780    1.6247    0.0828 C   0  0  0  0  0  0  0  0  0  0  0  0
   -1.0553    0.3439   -0.1604 C   0  0  0  0  0  0  0  0  0  0  0  0
   -1.6212   -0.6233    0.8157 C   0  0  0  0  0  0  0  0  0  0  0  0
   -1.4500   -0.1052   -1.5511 C   0  0  0  0  0  0  0  0  0  0  0  0
    0.3855    0.6659   -0.0364 C   0  0  0  0  0  0  0  0  0  0  0  0
    1.3605   -0.4316   -0.2364 C   0  0  0  0  0  0  0  0  0  0  0  0
    1.2287   -1.5825    0.7166 C   0  0  0  0  0  0  0  0  0  0  0  0
    2.7542    0.1683    0.0134 C   0  0  0  0  0  0  0  0  0  0  0  0
   -2.9166    3.5483    0.4686 H   0  0  0  0  0  0  0  0  0  0  0  0
   -1.4246   -1.6764    0.6415 H   0  0  0  0  0  0  0  0  0  0  0  0
   -1.4249   -0.2871    1.8773 H   0  0  0  0  0  0  0  0  0  0  0  0
   -2.7490   -0.5273    0.7483 H   0  0  0  0  0  0  0  0  0  0  0  0
   -1.5125   -1.2127   -1.5331 H   0  0  0  0  0  0  0  0  0  0  0  0
   -0.6232    0.1481   -2.2758 H   0  0  0  0  0  0  0  0  0  0  0  0
   -2.4063    0.3521   -1.8812 H   0  0  0  0  0  0  0  0  0  0  0  0
    0.6348    1.1688    0.9311 H   0  0  0  0  0  0  0  0  0  0  0  0
    0.6290    1.4503   -0.8108 H   0  0  0  0  0  0  0  0  0  0  0  0
    1.3987   -0.7776   -1.2950 H   0  0  0  0  0  0  0  0  0  0  0  0
    0.7209   -1.3041    1.6378 H   0  0  0  0  0  0  0  0  0  0  0  0
    2.2395   -1.9763    1.0390 H   0  0  0  0  0  0  0  0  0  0  0  0
    0.7874   -2.4334    0.1622 H   0  0  0  0  0  0  0  0  0  0  0  0
    3.4803   -0.6645   -0.0758 H   0  0  0  0  0  0  0  0  0  0  0  0
    2.7640    0.4677    1.0956 H   0  0  0  0  0  0  0  0  0  0  0  0
    2.9563    1.0097   -0.6632 H   0  0  0  0  0  0  0  0  0  0  0  0
  1  2  3  0
  2  3  1  0
  3  4  1  0
  3  5  1  0
  3  6  1  0
  6  7  1  0
  7  8  1  0
  7  9  1  0
  1 10  1  0
  4 11  1  0
  4 12  1  0
  4 13  1  0
  5 14  1  0
  5 15  1  0
  5 16  1  0
  6 17  1  0
  6 18  1  0
  7 19  1  0
  8 20  1  0
  8 21  1  0
  8 22  1  0
  9 23  1  0
  9 24  1  0
  9 25  1  0
M  END
