
     RDKit          3D

 17 18  0  0  0  0  0  0  0  0999 V2000
    2.8557    1.6255    2.0358 C   0  0  0  0  0  0  0  0  0  0  0  0
    2.1225    1.0464    1.2482 C   0  0  0  0  0  0  0  0  0  0  0  0
    1.2419    0.3727    0.2896 C   0  0  0  0  0  0  0  0  0  0  0  0
   -0.0702    0.5830    0.6943 O   0  0  0  0  0  0  0  0  0  0  0  0
   -0.9957   -0.0088   -0.1407 C   0  0  0  0  0  0  0  0  0  0  0  0
   -1.0725    0.3729   -1.5936 C   0  0  0  0  0  0  0  0  0  0  0  0
   -1.0661   -0.9844   -1.9093 O   0  0  0  0  0  0  0  0  0  0  0  0
   -0.8388   -1.3978   -0.6232 C   0  0  0  0  0  0  0  0  0  0  0  0
   -1.8565   -1.0674    0.4016 C   0  0  0  0  0  0  0  0  0  0  0  0
    3.5078    2.1274    2.7095 H   0  0  0  0  0  0  0  0  0  0  0  0
    1.3681    0.8427   -0.6985 H   0  0  0  0  0  0  0  0  0  0  0  0
    1.5176   -0.6999    0.3180 H   0  0  0  0  0  0  0  0  0  0  0  0
   -2.0338    0.8899   -1.7937 H   0  0  0  0  0  0  0  0  0  0  0  0
   -0.2042    0.8717   -2.0194 H   0  0  0  0  0  0  0  0  0  0  0  0
    0.0566   -1.9998   -0.3697 H   0  0  0  0  0  0  0  0  0  0  0  0
   -1.6174   -1.4275    1.4282 H   0  0  0  0  0  0  0  0  0  0  0  0
   -2.9150   -1.1468    0.0690 H   0  0  0  0  0  0  0  0  0  0  0  0
  1  2  3  0
  2  3  1  0
  3  4  1  0
  4  5  1  0
  5  6  1  0
  6  7  1  0
  7  8  1  0
  8  9  1  0
  8  5  1  0
  9  5  1  0
  1 10  1  0
  3 11  1  0
  3 12  1  0
  6 13  1  0
  6 14  1  0
  8 15  1  0
  9 16  1  0
  9 17  1  0
M  END
