
     RDKit          3D

 15 15  0  0  0  0  0  0  0  0999 V2000
    2.7616   -0.7660    1.6233 C   0  0  0  0  0  0  0  0  0  0  0  0
    1.7418   -0.4422    0.9361 C   0  0  0  0  0  0  0  0  0  0  0  0
    0.5867   -0.0839    0.1873 C   0  0  0  0  0  0  0  0  0  0  0  0
    0.1976    1.1558   -0.0370 C   0  0  0  0  0  0  0  0  0  0  0  0
   -1.0169    1.4995   -0.8160 C   0  0  0  0  0  0  0  0  0  0  0  0
   -2.0474    0.5432   -0.5020 O   0  0  0  0  0  0  0  0  0  0  0  0
   -1.6741   -0.7429   -0.1265 C   0  0  0  0  0  0  0  0  0  0  0  0
   -2.4374   -1.5714    0.4266 O   0  0  0  0  0  0  0  0  0  0  0  0
   -0.2511   -1.1796   -0.4003 C   0  0  0  0  0  0  0  0  0  0  0  0
    3.5754   -1.0077    2.1686 H   0  0  0  0  0  0  0  0  0  0  0  0
    0.8275    1.9293    0.3920 H   0  0  0  0  0  0  0  0  0  0  0  0
   -0.8181    1.5409   -1.8982 H   0  0  0  0  0  0  0  0  0  0  0  0
   -1.3360    2.5261   -0.5129 H   0  0  0  0  0  0  0  0  0  0  0  0
   -0.0427   -2.1683    0.0503 H   0  0  0  0  0  0  0  0  0  0  0  0
   -0.0670   -1.2331   -1.4913 H   0  0  0  0  0  0  0  0  0  0  0  0
  1  2  3  0
  2  3  1  0
  3  4  2  0
  4  5  1  0
  5  6  1  0
  6  7  1  0
  7  8  2  0
  7  9  1  0
  9  3  1  0
  1 10  1  0
  4 11  1  0
  5 12  1  0
  5 13  1  0
  9 14  1  0
  9 15  1  0
M  END
