
     RDKit          3D

 19 20  0  0  0  0  0  0  0  0999 V2000
   -2.3235    0.3699   -2.9481 C   0  0  0  0  0  0  0  0  0  0  0  0
   -1.5166   -0.1722   -2.2320 C   0  0  0  0  0  0  0  0  0  0  0  0
   -0.5462   -0.8504   -1.3765 C   0  0  0  0  0  0  0  0  0  0  0  0
    0.8952   -0.4332   -1.4745 C   0  0  0  0  0  0  0  0  0  0  0  0
    0.1033   -0.1142   -0.2527 C   0  0  0  0  0  0  0  0  0  0  0  0
    0.4035   -0.8448    1.0484 C   0  0  0  0  0  0  0  0  0  0  0  0
    1.0527    0.1568    1.9775 C   0  0  0  0  0  0  0  0  0  0  0  0
    0.1661    1.3583    2.2781 C   0  0  0  0  0  0  0  0  0  0  0  0
    0.5514    0.3496    3.2394 O   0  0  0  0  0  0  0  0  0  0  0  0
   -3.0528    0.8404   -3.5869 H   0  0  0  0  0  0  0  0  0  0  0  0
   -0.6907   -1.9477   -1.3401 H   0  0  0  0  0  0  0  0  0  0  0  0
    1.1116    0.3485   -2.2198 H   0  0  0  0  0  0  0  0  0  0  0  0
    1.6952   -1.1800   -1.3649 H   0  0  0  0  0  0  0  0  0  0  0  0
   -0.2035    0.9609   -0.1799 H   0  0  0  0  0  0  0  0  0  0  0  0
    1.0505   -1.7162    0.8473 H   0  0  0  0  0  0  0  0  0  0  0  0
   -0.5363   -1.2434    1.5039 H   0  0  0  0  0  0  0  0  0  0  0  0
    2.0725    0.4278    1.6955 H   0  0  0  0  0  0  0  0  0  0  0  0
    0.6388    2.3431    2.4410 H   0  0  0  0  0  0  0  0  0  0  0  0
   -0.8713    1.3468    1.9443 H   0  0  0  0  0  0  0  0  0  0  0  0
  1  2  3  0
  2  3  1  0
  3  4  1  0
  4  5  1  0
  5  6  1  0
  6  7  1  0
  7  8  1  0
  8  9  1  0
  5  3  1  0
  9  7  1  0
  1 10  1  0
  3 11  1  0
  4 12  1  0
  4 13  1  0
  5 14  1  0
  6 15  1  0
  6 16  1  0
  7 17  1  0
  8 18  1  0
  8 19  1  0
M  END
