
     RDKit          3D

 17 19  0  0  0  0  0  0  0  0999 V2000
    2.8958    0.6847    0.0085 C   0  0  0  0  0  0  0  0  0  0  0  0
    1.7725    0.2882    0.0808 C   0  0  0  0  0  0  0  0  0  0  0  0
    0.5186   -0.1466    0.1815 C   0  0  0  0  0  0  0  0  0  0  0  0
   -0.0022   -1.2049    1.0833 C   0  0  0  0  0  0  0  0  0  0  0  0
   -1.2073   -0.7765    0.2908 C   0  0  0  0  0  0  0  0  0  0  0  0
   -0.7009    0.6291    0.4603 C   0  0  0  0  0  0  0  0  0  0  0  0
   -1.0386    1.2622   -0.8498 C   0  0  0  0  0  0  0  0  0  0  0  0
   -0.7430    0.2047   -1.7451 O   0  0  0  0  0  0  0  0  0  0  0  0
   -0.2905   -0.7828   -0.9119 C   0  0  0  0  0  0  0  0  0  0  0  0
    3.9126    1.0520   -0.0638 H   0  0  0  0  0  0  0  0  0  0  0  0
    0.3443   -2.2439    0.9028 H   0  0  0  0  0  0  0  0  0  0  0  0
   -0.1058   -0.9337    2.1534 H   0  0  0  0  0  0  0  0  0  0  0  0
   -2.1423   -1.1131    0.3450 H   0  0  0  0  0  0  0  0  0  0  0  0
   -0.8592    1.1437    1.3738 H   0  0  0  0  0  0  0  0  0  0  0  0
   -0.2952    2.0703   -1.0609 H   0  0  0  0  0  0  0  0  0  0  0  0
   -2.0790    1.5964   -0.9417 H   0  0  0  0  0  0  0  0  0  0  0  0
    0.0202   -1.7299   -1.3068 H   0  0  0  0  0  0  0  0  0  0  0  0
  1  2  3  0
  2  3  1  0
  3  4  1  0
  4  5  1  0
  5  6  1  0
  6  7  1  0
  7  8  1  0
  8  9  1  0
  6  3  1  0
  9  3  1  0
  9  5  1  0
  1 10  1  0
  4 11  1  0
  4 12  1  0
  5 13  1  0
  6 14  1  0
  7 15  1  0
  7 16  1  0
  9 17  1  0
M  END
