
     RDKit          3D

 17 20  0  0  0  0  0  0  0  0999 V2000
    2.9537    0.0882    1.0242 C   0  0  0  0  0  0  0  0  0  0  0  0
    1.8436   -0.1177    0.6562 C   0  0  0  0  0  0  0  0  0  0  0  0
    0.5466   -0.3343    0.2327 C   0  0  0  0  0  0  0  0  0  0  0  0
   -0.2699   -1.5442    0.2621 C   0  0  0  0  0  0  0  0  0  0  0  0
   -0.5914   -1.3951   -1.1299 C   0  0  0  0  0  0  0  0  0  0  0  0
   -1.4180   -0.7155    0.0171 C   0  0  0  0  0  0  0  0  0  0  0  0
   -0.5334    0.4654   -0.1612 C   0  0  0  0  0  0  0  0  0  0  0  0
   -0.8961    1.8438    0.0620 C   0  0  0  0  0  0  0  0  0  0  0  0
    0.1277   -0.1601   -1.2628 C   0  0  0  0  0  0  0  0  0  0  0  0
    3.9650    0.2710    1.3400 H   0  0  0  0  0  0  0  0  0  0  0  0
   -0.1531   -2.4120    0.8619 H   0  0  0  0  0  0  0  0  0  0  0  0
   -1.0858   -2.0167   -1.8211 H   0  0  0  0  0  0  0  0  0  0  0  0
   -2.4383   -0.8294   -0.0935 H   0  0  0  0  0  0  0  0  0  0  0  0
   -1.6581    1.9749    0.8465 H   0  0  0  0  0  0  0  0  0  0  0  0
   -1.3319    2.2963   -0.8746 H   0  0  0  0  0  0  0  0  0  0  0  0
   -0.0092    2.4633    0.2927 H   0  0  0  0  0  0  0  0  0  0  0  0
    0.9485    0.1220   -1.8679 H   0  0  0  0  0  0  0  0  0  0  0  0
  1  2  3  0
  2  3  1  0
  3  4  1  0
  4  5  1  0
  5  6  1  0
  6  7  1  0
  7  8  1  0
  7  9  1  0
  7  3  1  0
  9  3  1  0
  6  4  1  0
  9  5  1  0
  1 10  1  0
  4 11  1  0
  5 12  1  0
  6 13  1  0
  8 14  1  0
  8 15  1  0
  8 16  1  0
  9 17  1  0
M  END
