
     RDKit          3D

 13 12  0  0  0  0  0  0  0  0999 V2000
    3.8946    2.5795    0.3945 C   0  0  0  0  0  0  0  0  0  0  0  0
    2.9153    1.9275    0.4232 C   0  0  0  0  0  0  0  0  0  0  0  0
    1.7674    1.1867    0.4703 C   0  0  0  0  0  0  0  0  0  0  0  0
    0.7672    0.5286    0.5244 C   0  0  0  0  0  0  0  0  0  0  0  0
   -0.3569   -0.1904    0.5915 C   0  0  0  0  0  0  0  0  0  0  0  0
   -0.1568   -0.6573   -0.9708 O   0  0  0  0  0  0  0  0  0  0  0  0
   -1.5181   -0.9339    0.6588 C   0  0  0  0  0  0  0  0  0  0  0  0
   -2.3028   -1.5639   -0.5060 C   0  0  0  0  0  0  0  0  0  0  0  0
   -2.1801   -1.2212    1.7436 O   0  0  0  0  0  0  0  0  0  0  0  0
    4.7616    3.1627    0.3551 H   0  0  0  0  0  0  0  0  0  0  0  0
   -3.3505   -1.1499   -0.3751 H   0  0  0  0  0  0  0  0  0  0  0  0
   -2.2704   -2.6257   -0.5140 H   0  0  0  0  0  0  0  0  0  0  0  0
   -1.9703   -1.0427   -1.4265 H   0  0  0  0  0  0  0  0  0  0  0  0
  1  2  3  0
  2  3  1  0
  3  4  3  0
  4  5  1  0
  5  6  2  0
  5  7  1  0
  7  8  1  0
  7  9  2  0
  1 10  1  0
  8 11  1  0
  8 12  1  0
  8 13  1  0
M  END
