
     RDKit          3D

 19 19  0  0  0  0  0  0  0  0999 V2000
    2.4614   -1.5702    0.7985 C   0  0  0  0  0  0  0  0  0  0  0  0
    1.5520   -0.8804    0.4346 C   0  0  0  0  0  0  0  0  0  0  0  0
    0.4587   -0.0326   -0.0280 C   0  0  0  0  0  0  0  0  0  0  0  0
    0.9103    1.1388   -0.8637 C   0  0  0  0  0  0  0  0  0  0  0  0
   -0.6933   -0.7654   -0.6522 C   0  0  0  0  0  0  0  0  0  0  0  0
   -0.8711   -2.0614   -0.2276 O   0  0  0  0  0  0  0  0  0  0  0  0
   -1.6256    0.1652    0.0982 C   0  0  0  0  0  0  0  0  0  0  0  0
   -0.4871    0.4299    1.0583 C   0  0  0  0  0  0  0  0  0  0  0  0
   -0.2909    1.7718    1.3621 O   0  0  0  0  0  0  0  0  0  0  0  0
    3.2579   -2.1963    1.1186 H   0  0  0  0  0  0  0  0  0  0  0  0
    1.8737    0.9403   -1.3861 H   0  0  0  0  0  0  0  0  0  0  0  0
    1.0776    1.9867   -0.1396 H   0  0  0  0  0  0  0  0  0  0  0  0
    0.1424    1.4723   -1.5719 H   0  0  0  0  0  0  0  0  0  0  0  0
   -0.7386   -0.6309   -1.7685 H   0  0  0  0  0  0  0  0  0  0  0  0
   -1.2063   -2.5831   -1.0209 H   0  0  0  0  0  0  0  0  0  0  0  0
   -1.9311    1.0497   -0.5087 H   0  0  0  0  0  0  0  0  0  0  0  0
   -2.5124   -0.3403    0.5437 H   0  0  0  0  0  0  0  0  0  0  0  0
   -0.5001   -0.2555    1.9239 H   0  0  0  0  0  0  0  0  0  0  0  0
   -0.8775    2.3616    0.8292 H   0  0  0  0  0  0  0  0  0  0  0  0
  1  2  3  0
  2  3  1  0
  3  4  1  0
  3  5  1  0
  5  6  1  0
  5  7  1  0
  7  8  1  0
  8  9  1  0
  8  3  1  0
  1 10  1  0
  4 11  1  0
  4 12  1  0
  4 13  1  0
  5 14  1  0
  6 15  1  0
  7 16  1  0
  7 17  1  0
  8 18  1  0
  9 19  1  0
M  END
