
     RDKit          3D

 22 21  0  0  0  0  0  0  0  0999 V2000
    0.4596    2.7285    0.9597 C   0  0  0  0  0  0  0  0  0  0  0  0
    0.5101    1.5825    0.5851 C   0  0  0  0  0  0  0  0  0  0  0  0
    0.5911    0.1733    0.1341 C   0  0  0  0  0  0  0  0  0  0  0  0
    0.7383   -0.7148    1.3461 C   0  0  0  0  0  0  0  0  0  0  0  0
    1.7518    0.0681   -0.8092 C   0  0  0  0  0  0  0  0  0  0  0  0
   -0.7035   -0.0965   -0.6100 C   0  0  0  0  0  0  0  0  0  0  0  0
   -0.7947   -1.4876   -1.1410 C   0  0  0  0  0  0  0  0  0  0  0  0
   -1.8625    0.2914    0.2594 C   0  0  0  0  0  0  0  0  0  0  0  0
    0.4281    3.7392    1.2764 H   0  0  0  0  0  0  0  0  0  0  0  0
    1.7190   -1.2467    1.2359 H   0  0  0  0  0  0  0  0  0  0  0  0
    0.7697   -0.1416    2.2926 H   0  0  0  0  0  0  0  0  0  0  0  0
   -0.0430   -1.4936    1.4104 H   0  0  0  0  0  0  0  0  0  0  0  0
    1.9397   -0.9566   -1.1370 H   0  0  0  0  0  0  0  0  0  0  0  0
    1.5828    0.7852   -1.6304 H   0  0  0  0  0  0  0  0  0  0  0  0
    2.6752    0.3797   -0.2376 H   0  0  0  0  0  0  0  0  0  0  0  0
   -0.6963    0.5925   -1.4920 H   0  0  0  0  0  0  0  0  0  0  0  0
   -1.6157   -1.4905   -1.9128 H   0  0  0  0  0  0  0  0  0  0  0  0
    0.1299   -1.7078   -1.7045 H   0  0  0  0  0  0  0  0  0  0  0  0
   -1.0348   -2.2522   -0.3735 H   0  0  0  0  0  0  0  0  0  0  0  0
   -1.5976    0.2237    1.3407 H   0  0  0  0  0  0  0  0  0  0  0  0
   -2.1811    1.3517    0.1025 H   0  0  0  0  0  0  0  0  0  0  0  0
   -2.7662   -0.3280    0.1050 H   0  0  0  0  0  0  0  0  0  0  0  0
  1  2  3  0
  2  3  1  0
  3  4  1  0
  3  5  1  0
  3  6  1  0
  6  7  1  0
  6  8  1  0
  1  9  1  0
  4 10  1  0
  4 11  1  0
  4 12  1  0
  5 13  1  0
  5 14  1  0
  5 15  1  0
  6 16  1  0
  7 17  1  0
  7 18  1  0
  7 19  1  0
  8 20  1  0
  8 21  1  0
  8 22  1  0
M  END
