
     RDKit          3D

 14 15  0  0  0  0  0  0  0  0999 V2000
    2.8820    0.2635    1.0160 C   0  0  0  0  0  0  0  0  0  0  0  0
    1.8735    0.0585    0.3565 C   0  0  0  0  0  0  0  0  0  0  0  0
    0.6720   -0.2067   -0.4144 C   0  0  0  0  0  0  0  0  0  0  0  0
   -0.1059    1.0097   -0.7609 C   0  0  0  0  0  0  0  0  0  0  0  0
    0.1898    2.0567   -1.3112 O   0  0  0  0  0  0  0  0  0  0  0  0
   -1.3536    0.4784   -0.1951 C   0  0  0  0  0  0  0  0  0  0  0  0
   -1.7433   -0.9431   -0.3334 C   0  0  0  0  0  0  0  0  0  0  0  0
   -0.4899   -0.6584    0.4267 C   0  0  0  0  0  0  0  0  0  0  0  0
    3.7576    0.4588    1.5821 H   0  0  0  0  0  0  0  0  0  0  0  0
    0.8723   -0.8837   -1.2895 H   0  0  0  0  0  0  0  0  0  0  0  0
   -1.9249    1.1039    0.5218 H   0  0  0  0  0  0  0  0  0  0  0  0
   -2.6307   -1.2682    0.2040 H   0  0  0  0  0  0  0  0  0  0  0  0
   -1.5561   -1.4699   -1.3135 H   0  0  0  0  0  0  0  0  0  0  0  0
   -0.4429   -0.6820    1.5108 H   0  0  0  0  0  0  0  0  0  0  0  0
  1  2  3  0
  2  3  1  0
  3  4  1  0
  4  5  2  0
  4  6  1  0
  6  7  1  0
  7  8  1  0
  8  3  1  0
  8  6  1  0
  1  9  1  0
  3 10  1  0
  6 11  1  0
  7 12  1  0
  7 13  1  0
  8 14  1  0
M  END
