
     RDKit          3D

 21 22  0  0  0  0  0  0  0  0999 V2000
    2.9644    1.4347    1.8889 C   0  0  0  0  0  0  0  0  0  0  0  0
    2.3040    0.5415    1.4140 C   0  0  0  0  0  0  0  0  0  0  0  0
    1.4828   -0.5401    0.8127 C   0  0  0  0  0  0  0  0  0  0  0  0
    0.0812   -0.4518    0.9078 C   0  0  0  0  0  0  0  0  0  0  0  0
   -1.0426   -1.2929    0.4649 C   0  0  0  0  0  0  0  0  0  0  0  0
   -1.9159   -0.3892   -0.4025 C   0  0  0  0  0  0  0  0  0  0  0  0
   -1.1947    0.4106   -1.4140 C   0  0  0  0  0  0  0  0  0  0  0  0
    0.1943    0.8971   -1.0091 C   0  0  0  0  0  0  0  0  0  0  0  0
    0.8726   -0.2673   -0.4316 C   0  0  0  0  0  0  0  0  0  0  0  0
    3.5268    2.2208    2.3127 H   0  0  0  0  0  0  0  0  0  0  0  0
    1.9803   -1.5199    0.9814 H   0  0  0  0  0  0  0  0  0  0  0  0
   -0.3230    0.4894    1.3903 H   0  0  0  0  0  0  0  0  0  0  0  0
   -0.7591   -2.1485   -0.1831 H   0  0  0  0  0  0  0  0  0  0  0  0
   -1.6915   -1.6602    1.2831 H   0  0  0  0  0  0  0  0  0  0  0  0
   -2.4298    0.2990    0.3087 H   0  0  0  0  0  0  0  0  0  0  0  0
   -2.6772   -1.0128   -0.9538 H   0  0  0  0  0  0  0  0  0  0  0  0
   -1.0491   -0.2166   -2.3302 H   0  0  0  0  0  0  0  0  0  0  0  0
   -1.8479    1.2871   -1.6766 H   0  0  0  0  0  0  0  0  0  0  0  0
    0.6579    1.3136   -1.9185 H   0  0  0  0  0  0  0  0  0  0  0  0
    0.0289    1.7416   -0.2882 H   0  0  0  0  0  0  0  0  0  0  0  0
    0.8377   -1.1363   -1.1570 H   0  0  0  0  0  0  0  0  0  0  0  0
  1  2  3  0
  2  3  1  0
  3  4  1  0
  4  5  1  0
  5  6  1  0
  6  7  1  0
  7  8  1  0
  8  9  1  0
  9  3  1  0
  9  4  1  0
  1 10  1  0
  3 11  1  0
  4 12  1  0
  5 13  1  0
  5 14  1  0
  6 15  1  0
  6 16  1  0
  7 17  1  0
  7 18  1  0
  8 19  1  0
  8 20  1  0
  9 21  1  0
M  END
