
     RDKit          3D

 21 21  0  0  0  0  0  0  0  0999 V2000
    3.4020    1.0621    0.3588 C   0  0  0  0  0  0  0  0  0  0  0  0
    2.2510    0.8521   -0.3181 C   0  0  0  0  0  0  0  0  0  0  0  0
    1.0988    0.6277   -1.0092 C   0  0  0  0  0  0  0  0  0  0  0  0
    0.1493   -0.3913   -0.5175 C   0  0  0  0  0  0  0  0  0  0  0  0
    0.6056   -1.7476   -0.2269 C   0  0  0  0  0  0  0  0  0  0  0  0
   -0.8817    0.2490    0.4235 C   0  0  0  0  0  0  0  0  0  0  0  0
   -0.3676    0.9468    1.4877 O   0  0  0  0  0  0  0  0  0  0  0  0
   -2.1483   -0.4981    0.6984 C   0  0  0  0  0  0  0  0  0  0  0  0
   -2.1802    0.6770   -0.2417 C   0  0  0  0  0  0  0  0  0  0  0  0
    4.3272    1.2389    0.8844 H   0  0  0  0  0  0  0  0  0  0  0  0
    0.8600    1.3163   -1.8511 H   0  0  0  0  0  0  0  0  0  0  0  0
    0.5107    1.6610   -0.2720 H   0  0  0  0  0  0  0  0  0  0  0  0
   -0.4803   -0.5833   -1.5390 H   0  0  0  0  0  0  0  0  0  0  0  0
    1.5249   -2.0795   -0.7386 H   0  0  0  0  0  0  0  0  0  0  0  0
    0.8307   -1.8152    0.8915 H   0  0  0  0  0  0  0  0  0  0  0  0
   -0.1791   -2.5446   -0.4131 H   0  0  0  0  0  0  0  0  0  0  0  0
    0.6032    0.8116    1.5623 H   0  0  0  0  0  0  0  0  0  0  0  0
   -2.6341   -0.2641    1.7023 H   0  0  0  0  0  0  0  0  0  0  0  0
   -2.3023   -1.5271    0.3587 H   0  0  0  0  0  0  0  0  0  0  0  0
   -2.6450    1.6431    0.0758 H   0  0  0  0  0  0  0  0  0  0  0  0
   -2.3450    0.3650   -1.3161 H   0  0  0  0  0  0  0  0  0  0  0  0
  1  2  3  0
  2  3  1  0
  3  4  1  0
  4  5  1  0
  4  6  1  0
  6  7  1  0
  6  8  1  0
  8  9  1  0
  9  6  1  0
  1 10  1  0
  3 11  1  0
  3 12  1  0
  4 13  1  0
  5 14  1  0
  5 15  1  0
  5 16  1  0
  7 17  1  0
  8 18  1  0
  8 19  1  0
  9 20  1  0
  9 21  1  0
M  END
