
     RDKit          3D

 15 15  0  0  0  0  0  0  0  0999 V2000
   -0.3999    1.9785    3.3645 C   0  0  0  0  0  0  0  0  0  0  0  0
   -0.4109    1.5655    2.3432 C   0  0  0  0  0  0  0  0  0  0  0  0
   -0.4194    1.0171    0.9594 C   0  0  0  0  0  0  0  0  0  0  0  0
   -0.4359    0.6779    0.1324 C   0  0  0  0  0  0  0  0  0  0  0  0
   -0.4928    0.0063   -1.5234 C   0  0  0  0  0  0  0  0  0  0  0  0
   -1.3341   -1.0359   -1.3509 O   0  0  0  0  0  0  0  0  0  0  0  0
   -0.2915   -1.7112   -0.6444 C   0  0  0  0  0  0  0  0  0  0  0  0
    0.6960   -0.8525   -1.4051 C   0  0  0  0  0  0  0  0  0  0  0  0
    1.7239   -0.3181   -0.5957 O   0  0  0  0  0  0  0  0  0  0  0  0
   -0.3676    2.4314    4.4951 H   0  0  0  0  0  0  0  0  0  0  0  0
   -0.6307    0.8840   -2.0221 H   0  0  0  0  0  0  0  0  0  0  0  0
   -0.2332   -1.4157    0.4000 H   0  0  0  0  0  0  0  0  0  0  0  0
   -0.2797   -2.7872   -0.8863 H   0  0  0  0  0  0  0  0  0  0  0  0
    1.0785   -1.2965   -2.3494 H   0  0  0  0  0  0  0  0  0  0  0  0
    1.7974    0.6413   -0.9174 H   0  0  0  0  0  0  0  0  0  0  0  0
  1  2  3  0
  2  3  1  0
  3  4  3  0
  4  5  1  0
  5  6  1  0
  6  7  1  0
  7  8  1  0
  8  9  1  0
  8  5  1  0
  1 10  1  0
  5 11  1  0
  7 12  1  0
  7 13  1  0
  8 14  1  0
  9 15  1  0
M  END
