
     RDKit          3D

 19 20  0  0  0  0  0  0  0  0999 V2000
    3.6550   -0.3262    1.3655 C   0  0  0  0  0  0  0  0  0  0  0  0
    2.7104   -0.1534    0.6312 C   0  0  0  0  0  0  0  0  0  0  0  0
    1.5573    0.0439   -0.2735 C   0  0  0  0  0  0  0  0  0  0  0  0
    0.2868   -0.4400    0.3657 C   0  0  0  0  0  0  0  0  0  0  0  0
   -0.8669   -0.2422   -0.5896 C   0  0  0  0  0  0  0  0  0  0  0  0
   -2.1224   -0.7818    0.1316 C   0  0  0  0  0  0  0  0  0  0  0  0
   -1.8350    0.3466    0.9473 O   0  0  0  0  0  0  0  0  0  0  0  0
   -1.8336    0.9737   -0.2874 C   0  0  0  0  0  0  0  0  0  0  0  0
   -0.8207    0.9857   -1.3159 C   0  0  0  0  0  0  0  0  0  0  0  0
    4.4869   -0.4897    2.0146 H   0  0  0  0  0  0  0  0  0  0  0  0
    1.5650    1.0737   -0.6160 H   0  0  0  0  0  0  0  0  0  0  0  0
    1.7542   -0.6399   -1.1448 H   0  0  0  0  0  0  0  0  0  0  0  0
    0.0848    0.0643    1.3404 H   0  0  0  0  0  0  0  0  0  0  0  0
    0.4552   -1.5398    0.5656 H   0  0  0  0  0  0  0  0  0  0  0  0
   -3.0454   -0.7428   -0.4355 H   0  0  0  0  0  0  0  0  0  0  0  0
   -1.9313   -1.7055    0.6854 H   0  0  0  0  0  0  0  0  0  0  0  0
   -2.8786    0.8663   -0.7105 H   0  0  0  0  0  0  0  0  0  0  0  0
   -1.1206    0.8818   -2.4096 H   0  0  0  0  0  0  0  0  0  0  0  0
   -0.1012    1.8253   -1.2471 H   0  0  0  0  0  0  0  0  0  0  0  0
  1  2  3  0
  2  3  1  0
  3  4  1  0
  4  5  1  0
  5  6  1  0
  6  7  1  0
  7  8  1  0
  8  9  1  0
  8  5  1  0
  9  5  1  0
  1 10  1  0
  3 11  1  0
  3 12  1  0
  4 13  1  0
  4 14  1  0
  6 15  1  0
  6 16  1  0
  8 17  1  0
  9 18  1  0
  9 19  1  0
M  END
