
     RDKit          3D

 19 20  0  0  0  0  0  0  0  0999 V2000
    3.9939   -0.0471    0.2095 C   0  0  0  0  0  0  0  0  0  0  0  0
    2.4889    0.4445   -0.1391 C   0  0  0  0  0  0  0  0  0  0  0  0
    1.0550    0.9002   -0.4951 C   0  0  0  0  0  0  0  0  0  0  0  0
    0.6890   -0.7055   -0.3209 C   0  0  0  0  0  0  0  0  0  0  0  0
    0.0417   -1.3180    0.7707 C   0  0  0  0  0  0  0  0  0  0  0  0
   -1.2682   -0.5595    0.8559 C   0  0  0  0  0  0  0  0  0  0  0  0
   -1.3100    0.3816   -0.1714 C   0  0  0  0  0  0  0  0  0  0  0  0
   -2.5346    1.1868   -0.2336 C   0  0  0  0  0  0  0  0  0  0  0  0
   -0.0327    0.3197   -1.0326 C   0  0  0  0  0  0  0  0  0  0  0  0
    5.1015   -0.3887    0.4653 H   0  0  0  0  0  0  0  0  0  0  0  0
    0.9073    1.5563    0.4845 H   0  0  0  0  0  0  0  0  0  0  0  0
    1.5593   -1.3318   -0.8999 H   0  0  0  0  0  0  0  0  0  0  0  0
   -0.3365   -2.4539    0.5837 H   0  0  0  0  0  0  0  0  0  0  0  0
    0.6183   -1.3702    1.7599 H   0  0  0  0  0  0  0  0  0  0  0  0
   -1.9228   -0.7018    1.6569 H   0  0  0  0  0  0  0  0  0  0  0  0
   -3.1208    1.2000    0.7746 H   0  0  0  0  0  0  0  0  0  0  0  0
   -3.1810    0.5968   -0.9910 H   0  0  0  0  0  0  0  0  0  0  0  0
   -2.4909    2.2003   -0.5668 H   0  0  0  0  0  0  0  0  0  0  0  0
   -0.2574    0.0903   -2.1342 H   0  0  0  0  0  0  0  0  0  0  0  0
  1  2  3  0
  2  3  1  0
  3  4  1  0
  4  5  1  0
  5  6  1  0
  6  7  2  0
  7  8  1  0
  7  9  1  0
  9  3  1  0
  9  4  1  0
  1 10  1  0
  3 11  1  0
  4 12  1  0
  5 13  1  0
  5 14  1  0
  6 15  1  0
  8 16  1  0
  8 17  1  0
  8 18  1  0
  9 19  1  0
M  END
