
     RDKit          3D

 17 19  0  0  0  0  0  0  0  0999 V2000
    2.8927   -0.3331    0.3992 C   0  0  0  0  0  0  0  0  0  0  0  0
    1.7037   -0.3543    0.2404 C   0  0  0  0  0  0  0  0  0  0  0  0
    0.3137   -0.3936    0.0744 C   0  0  0  0  0  0  0  0  0  0  0  0
   -0.4143   -1.6683   -0.0801 C   0  0  0  0  0  0  0  0  0  0  0  0
   -1.7533   -1.2057   -0.1576 O   0  0  0  0  0  0  0  0  0  0  0  0
   -1.6062    0.1582   -0.0901 C   0  0  0  0  0  0  0  0  0  0  0  0
   -0.5745    0.4124    0.9757 C   0  0  0  0  0  0  0  0  0  0  0  0
   -0.1647    1.6075    0.1740 C   0  0  0  0  0  0  0  0  0  0  0  0
   -0.3633    0.5371   -0.8606 C   0  0  0  0  0  0  0  0  0  0  0  0
    3.9480   -0.3191    0.5556 H   0  0  0  0  0  0  0  0  0  0  0  0
   -0.2356   -2.2005   -1.0443 H   0  0  0  0  0  0  0  0  0  0  0  0
   -0.2853   -2.3514    0.7932 H   0  0  0  0  0  0  0  0  0  0  0  0
   -2.4608    0.7996   -0.1493 H   0  0  0  0  0  0  0  0  0  0  0  0
   -0.6869    0.3306    1.9636 H   0  0  0  0  0  0  0  0  0  0  0  0
    0.8816    1.9434    0.3289 H   0  0  0  0  0  0  0  0  0  0  0  0
   -0.9144    2.4157    0.0724 H   0  0  0  0  0  0  0  0  0  0  0  0
   -0.2804    0.6216   -1.8533 H   0  0  0  0  0  0  0  0  0  0  0  0
  1  2  3  0
  2  3  1  0
  3  4  1  0
  4  5  1  0
  5  6  1  0
  6  7  1  0
  7  8  1  0
  8  9  1  0
  7  3  1  0
  9  3  1  0
  9  6  1  0
  1 10  1  0
  4 11  1  0
  4 12  1  0
  6 13  1  0
  7 14  1  0
  8 15  1  0
  8 16  1  0
  9 17  1  0
M  END
