
     RDKit          3D

 11 10  0  0  0  0  0  0  0  0999 V2000
    3.8043    0.1578    1.4702 C   0  0  0  0  0  0  0  0  0  0  0  0
    2.9358    0.1321    1.1610 C   0  0  0  0  0  0  0  0  0  0  0  0
    1.4311    0.0873    0.6084 C   0  0  0  0  0  0  0  0  0  0  0  0
    0.5575    0.0602    0.2811 C   0  0  0  0  0  0  0  0  0  0  0  0
   -0.5190    0.0468   -0.1202 C   0  0  0  0  0  0  0  0  0  0  0  0
   -1.5147    0.0292   -0.5029 C   0  0  0  0  0  0  0  0  0  0  0  0
   -2.7175   -0.0063   -0.9464 C   0  0  0  0  0  0  0  0  0  0  0  0
    5.4496    0.2018    2.0786 H   0  0  0  0  0  0  0  0  0  0  0  0
   -3.4191   -1.0544   -0.6696 H   0  0  0  0  0  0  0  0  0  0  0  0
   -2.4096   -0.5696   -2.1440 H   0  0  0  0  0  0  0  0  0  0  0  0
   -3.5982    0.6595   -1.2163 H   0  0  0  0  0  0  0  0  0  0  0  0
  1  2  3  0
  2  3  1  0
  3  4  3  0
  4  5  1  0
  5  6  3  0
  6  7  1  0
  1  8  1  0
  7  9  1  0
  7 10  1  0
  7 11  1  0
M  END
