
     RDKit          3D

 19 19  0  0  0  0  0  0  0  0999 V2000
   -1.9871    0.9991    3.0447 C   0  0  0  0  0  0  0  0  0  0  0  0
   -1.5857    0.0328    2.4000 C   0  0  0  0  0  0  0  0  0  0  0  0
   -1.1325   -1.1163    1.6485 C   0  0  0  0  0  0  0  0  0  0  0  0
   -1.6228   -1.3836    0.2478 C   0  0  0  0  0  0  0  0  0  0  0  0
   -0.2429   -0.8821    0.4241 C   0  0  0  0  0  0  0  0  0  0  0  0
    0.1041    0.5523    0.1651 C   0  0  0  0  0  0  0  0  0  0  0  0
    0.9688    0.6480   -1.0566 C   0  0  0  0  0  0  0  0  0  0  0  0
    1.6529    0.7152   -1.9927 C   0  0  0  0  0  0  0  0  0  0  0  0
    2.5169    0.8008   -3.2196 C   0  0  0  0  0  0  0  0  0  0  0  0
   -2.3484    1.8410    3.6118 H   0  0  0  0  0  0  0  0  0  0  0  0
   -0.8182   -1.9897    2.2713 H   0  0  0  0  0  0  0  0  0  0  0  0
   -1.7211   -2.4466    0.0044 H   0  0  0  0  0  0  0  0  0  0  0  0
   -2.4281   -0.7404   -0.1547 H   0  0  0  0  0  0  0  0  0  0  0  0
    0.6003   -1.5918    0.2761 H   0  0  0  0  0  0  0  0  0  0  0  0
    0.6252    0.9816    1.0389 H   0  0  0  0  0  0  0  0  0  0  0  0
   -0.7933    1.1411   -0.0190 H   0  0  0  0  0  0  0  0  0  0  0  0
    3.5379    0.4275   -2.9644 H   0  0  0  0  0  0  0  0  0  0  0  0
    2.0900    0.1517   -4.0168 H   0  0  0  0  0  0  0  0  0  0  0  0
    2.5840    1.8594   -3.4811 H   0  0  0  0  0  0  0  0  0  0  0  0
  1  2  3  0
  2  3  1  0
  3  4  1  0
  4  5  1  0
  5  6  1  0
  6  7  1  0
  7  8  3  0
  8  9  1  0
  5  3  1  0
  1 10  1  0
  3 11  1  0
  4 12  1  0
  4 13  1  0
  5 14  1  0
  6 15  1  0
  6 16  1  0
  9 17  1  0
  9 18  1  0
  9 19  1  0
M  END
