
     RDKit          3D

 21 21  0  0  0  0  0  0  0  0999 V2000
    1.4541    2.3589   -2.2323 C   0  0  0  0  0  0  0  0  0  0  0  0
    1.0434    1.2451   -1.5606 C   0  0  0  0  0  0  0  0  0  0  0  0
    0.5977    0.0708   -0.8250 C   0  0  0  0  0  0  0  0  0  0  0  0
   -0.6224    0.5237   -0.0697 C   0  0  0  0  0  0  0  0  0  0  0  0
   -1.4532   -0.2309    0.8069 C   0  0  0  0  0  0  0  0  0  0  0  0
   -0.7934   -0.8096    2.0546 C   0  0  0  0  0  0  0  0  0  0  0  0
   -2.3291    0.7806    1.4271 O   0  0  0  0  0  0  0  0  0  0  0  0
    1.6292   -0.8661   -0.3457 C   0  0  0  0  0  0  0  0  0  0  0  0
    0.6935   -1.2503   -1.4748 C   0  0  0  0  0  0  0  0  0  0  0  0
    1.8183    3.2927   -2.7904 H   0  0  0  0  0  0  0  0  0  0  0  0
   -1.2123    1.1543   -0.8237 H   0  0  0  0  0  0  0  0  0  0  0  0
   -0.1912    1.4499    0.5647 H   0  0  0  0  0  0  0  0  0  0  0  0
   -2.1844   -0.9008    0.3424 H   0  0  0  0  0  0  0  0  0  0  0  0
    0.0442   -0.1053    2.3057 H   0  0  0  0  0  0  0  0  0  0  0  0
   -0.4970   -1.8450    1.9342 H   0  0  0  0  0  0  0  0  0  0  0  0
   -1.5836   -0.8412    2.8795 H   0  0  0  0  0  0  0  0  0  0  0  0
   -1.7261    1.5417    1.6712 H   0  0  0  0  0  0  0  0  0  0  0  0
    1.5165   -1.4639    0.5596 H   0  0  0  0  0  0  0  0  0  0  0  0
    2.6688   -0.6714   -0.6562 H   0  0  0  0  0  0  0  0  0  0  0  0
   -0.0705   -2.0260   -1.3050 H   0  0  0  0  0  0  0  0  0  0  0  0
    1.1975   -1.4073   -2.4625 H   0  0  0  0  0  0  0  0  0  0  0  0
  1  2  3  0
  2  3  1  0
  3  4  1  0
  4  5  1  0
  5  6  1  0
  5  7  1  0
  3  8  1  0
  8  9  1  0
  9  3  1  0
  1 10  1  0
  4 11  1  0
  4 12  1  0
  5 13  1  0
  6 14  1  0
  6 15  1  0
  6 16  1  0
  7 17  1  0
  8 18  1  0
  8 19  1  0
  9 20  1  0
  9 21  1  0
M  END
