
     RDKit          3D

 19 19  0  0  0  0  0  0  0  0999 V2000
    3.4693   -0.3736   -0.0911 C   0  0  0  0  0  0  0  0  0  0  0  0
    2.4667   -0.9786    0.2639 C   0  0  0  0  0  0  0  0  0  0  0  0
    1.2574   -1.6962    0.6721 C   0  0  0  0  0  0  0  0  0  0  0  0
    0.1109   -0.7092    0.5680 C   0  0  0  0  0  0  0  0  0  0  0  0
   -0.0465   -0.2025   -0.8164 C   0  0  0  0  0  0  0  0  0  0  0  0
    0.7329   -0.5999   -1.6606 O   0  0  0  0  0  0  0  0  0  0  0  0
   -1.1459    0.7551   -1.0794 C   0  0  0  0  0  0  0  0  0  0  0  0
   -1.3210    1.8217   -0.0246 C   0  0  0  0  0  0  0  0  0  0  0  0
   -2.3524    0.7446   -0.2271 C   0  0  0  0  0  0  0  0  0  0  0  0
    4.3287    0.1626   -0.4084 H   0  0  0  0  0  0  0  0  0  0  0  0
    1.0180   -2.5340    0.0026 H   0  0  0  0  0  0  0  0  0  0  0  0
    1.3021   -2.0202    1.7293 H   0  0  0  0  0  0  0  0  0  0  0  0
    0.2566    0.1186    1.3064 H   0  0  0  0  0  0  0  0  0  0  0  0
   -0.8331   -1.2568    0.8266 H   0  0  0  0  0  0  0  0  0  0  0  0
   -1.1874    1.0588   -2.1498 H   0  0  0  0  0  0  0  0  0  0  0  0
   -0.7743    1.7992    0.9240 H   0  0  0  0  0  0  0  0  0  0  0  0
   -1.5137    2.8328   -0.4444 H   0  0  0  0  0  0  0  0  0  0  0  0
   -2.4682   -0.0112    0.5693 H   0  0  0  0  0  0  0  0  0  0  0  0
   -3.2999    1.0887   -0.6601 H   0  0  0  0  0  0  0  0  0  0  0  0
  1  2  3  0
  2  3  1  0
  3  4  1  0
  4  5  1  0
  5  6  2  0
  5  7  1  0
  7  8  1  0
  8  9  1  0
  9  7  1  0
  1 10  1  0
  3 11  1  0
  3 12  1  0
  4 13  1  0
  4 14  1  0
  7 15  1  0
  8 16  1  0
  8 17  1  0
  9 18  1  0
  9 19  1  0
M  END
