
     RDKit          3D

 15 16  0  0  0  0  0  0  0  0999 V2000
    2.1925   -1.4114    0.7614 C   0  0  0  0  0  0  0  0  0  0  0  0
    1.4292   -0.8842    0.0009 C   0  0  0  0  0  0  0  0  0  0  0  0
    0.5146   -0.2557   -0.9398 C   0  0  0  0  0  0  0  0  0  0  0  0
    0.8999    1.1340   -1.2909 C   0  0  0  0  0  0  0  0  0  0  0  0
    1.9357    1.7633   -1.6371 O   0  0  0  0  0  0  0  0  0  0  0  0
   -0.4180    1.5243   -1.0793 O   0  0  0  0  0  0  0  0  0  0  0  0
   -0.5875    0.4422   -0.2595 C   0  0  0  0  0  0  0  0  0  0  0  0
   -0.8837    0.4343    1.1533 C   0  0  0  0  0  0  0  0  0  0  0  0
   -1.8586   -0.1682    0.1216 C   0  0  0  0  0  0  0  0  0  0  0  0
    2.8820   -1.8758    1.4226 H   0  0  0  0  0  0  0  0  0  0  0  0
    0.2288   -0.8874   -1.8147 H   0  0  0  0  0  0  0  0  0  0  0  0
   -0.4014   -0.2748    1.8627 H   0  0  0  0  0  0  0  0  0  0  0  0
   -1.2652    1.3506    1.6501 H   0  0  0  0  0  0  0  0  0  0  0  0
   -1.8898   -1.2833    0.1430 H   0  0  0  0  0  0  0  0  0  0  0  0
   -2.7784    0.3922   -0.0944 H   0  0  0  0  0  0  0  0  0  0  0  0
  1  2  3  0
  2  3  1  0
  3  4  1  0
  4  5  2  0
  4  6  1  0
  6  7  1  0
  7  8  1  0
  8  9  1  0
  7  3  1  0
  9  7  1  0
  1 10  1  0
  3 11  1  0
  8 12  1  0
  8 13  1  0
  9 14  1  0
  9 15  1  0
M  END
