
     RDKit          3D

 19 18  0  0  0  0  0  0  0  0999 V2000
    3.8829    1.0280    0.2375 C   0  0  0  0  0  0  0  0  0  0  0  0
    2.7125    0.7704    0.3649 C   0  0  0  0  0  0  0  0  0  0  0  0
    1.2635    0.4612    0.5320 C   0  0  0  0  0  0  0  0  0  0  0  0
    0.7417    0.1193   -0.8361 C   0  0  0  0  0  0  0  0  0  0  0  0
   -0.7304   -0.2005   -0.8241 C   0  0  0  0  0  0  0  0  0  0  0  0
   -0.9806   -1.3674    0.0565 C   0  0  0  0  0  0  0  0  0  0  0  0
   -2.3035   -1.7901    0.1499 O   0  0  0  0  0  0  0  0  0  0  0  0
   -3.2676   -0.9362    0.6406 C   0  0  0  0  0  0  0  0  0  0  0  0
   -2.8963    0.2074    0.9893 O   0  0  0  0  0  0  0  0  0  0  0  0
    4.9112    1.2686    0.1372 H   0  0  0  0  0  0  0  0  0  0  0  0
    0.8000    1.3604    0.9618 H   0  0  0  0  0  0  0  0  0  0  0  0
    1.1862   -0.4078    1.2329 H   0  0  0  0  0  0  0  0  0  0  0  0
    1.2500   -0.8313   -1.1746 H   0  0  0  0  0  0  0  0  0  0  0  0
    0.9982    0.8927   -1.5898 H   0  0  0  0  0  0  0  0  0  0  0  0
   -0.9974   -0.4621   -1.8938 H   0  0  0  0  0  0  0  0  0  0  0  0
   -1.2353    0.7423   -0.5217 H   0  0  0  0  0  0  0  0  0  0  0  0
   -0.6541   -1.1203    1.0948 H   0  0  0  0  0  0  0  0  0  0  0  0
   -0.3693   -2.2130   -0.2898 H   0  0  0  0  0  0  0  0  0  0  0  0
   -4.3117   -1.2148    0.7325 H   0  0  0  0  0  0  0  0  0  0  0  0
  1  2  3  0
  2  3  1  0
  3  4  1  0
  4  5  1  0
  5  6  1  0
  6  7  1  0
  7  8  1  0
  8  9  2  0
  1 10  1  0
  3 11  1  0
  3 12  1  0
  4 13  1  0
  4 14  1  0
  5 15  1  0
  5 16  1  0
  6 17  1  0
  6 18  1  0
  8 19  1  0
M  END
