
     RDKit          3D

 14 14  0  0  0  0  0  0  0  0999 V2000
    3.5254   -0.2212    0.1288 C   0  0  0  0  0  0  0  0  0  0  0  0
    2.3754   -0.4055   -0.2460 C   0  0  0  0  0  0  0  0  0  0  0  0
    0.9909   -0.6274   -0.6705 C   0  0  0  0  0  0  0  0  0  0  0  0
    0.5292    0.6259   -1.3582 O   0  0  0  0  0  0  0  0  0  0  0  0
   -0.0475    0.1217   -0.0859 C   0  0  0  0  0  0  0  0  0  0  0  0
   -1.4990   -0.2079   -0.3024 C   0  0  0  0  0  0  0  0  0  0  0  0
   -2.4043    0.7140    0.4072 C   0  0  0  0  0  0  0  0  0  0  0  0
   -1.9245    1.6117    1.0696 O   0  0  0  0  0  0  0  0  0  0  0  0
    4.5152   -0.0491    0.4656 H   0  0  0  0  0  0  0  0  0  0  0  0
    0.7695   -1.5240   -1.2868 H   0  0  0  0  0  0  0  0  0  0  0  0
    0.1330    0.8285    0.7481 H   0  0  0  0  0  0  0  0  0  0  0  0
   -1.7161   -1.2557    0.0597 H   0  0  0  0  0  0  0  0  0  0  0  0
   -1.7731   -0.2036   -1.3556 H   0  0  0  0  0  0  0  0  0  0  0  0
   -3.4741    0.5926    0.3388 H   0  0  0  0  0  0  0  0  0  0  0  0
  1  2  3  0
  2  3  1  0
  3  4  1  0
  4  5  1  0
  5  6  1  0
  6  7  1  0
  7  8  2  0
  5  3  1  0
  1  9  1  0
  3 10  1  0
  5 11  1  0
  6 12  1  0
  6 13  1  0
  7 14  1  0
M  END
