
     RDKit          3D

 19 18  0  0  0  0  0  0  0  0999 V2000
   -2.8170    0.9755    0.4148 C   0  0  0  0  0  0  0  0  0  0  0  0
   -1.6654    0.6458    0.2601 C   0  0  0  0  0  0  0  0  0  0  0  0
   -0.2405    0.2596    0.0540 C   0  0  0  0  0  0  0  0  0  0  0  0
    0.2083   -0.6575    1.1729 C   0  0  0  0  0  0  0  0  0  0  0  0
   -0.6259   -1.7988    1.1109 O   0  0  0  0  0  0  0  0  0  0  0  0
   -0.2509   -0.5744   -1.1983 C   0  0  0  0  0  0  0  0  0  0  0  0
    1.0186   -0.9511   -1.5262 O   0  0  0  0  0  0  0  0  0  0  0  0
    0.4560    1.4121   -0.0333 O   0  0  0  0  0  0  0  0  0  0  0  0
    1.7974    1.3916   -0.2053 C   0  0  0  0  0  0  0  0  0  0  0  0
   -3.8330    1.2516    0.5628 H   0  0  0  0  0  0  0  0  0  0  0  0
    0.1350   -0.2192    2.1653 H   0  0  0  0  0  0  0  0  0  0  0  0
    1.2323   -1.0431    1.0018 H   0  0  0  0  0  0  0  0  0  0  0  0
   -1.5608   -1.4847    1.2287 H   0  0  0  0  0  0  0  0  0  0  0  0
   -0.7914   -0.0818   -2.0326 H   0  0  0  0  0  0  0  0  0  0  0  0
   -0.8336   -1.5167   -0.9725 H   0  0  0  0  0  0  0  0  0  0  0  0
    1.1824   -1.9439   -1.4845 H   0  0  0  0  0  0  0  0  0  0  0  0
    2.1958    0.9258   -1.1024 H   0  0  0  0  0  0  0  0  0  0  0  0
    2.1531    2.4660   -0.1482 H   0  0  0  0  0  0  0  0  0  0  0  0
    2.2395    0.9430    0.7320 H   0  0  0  0  0  0  0  0  0  0  0  0
  1  2  3  0
  2  3  1  0
  3  4  1  0
  4  5  1  0
  3  6  1  0
  6  7  1  0
  3  8  1  0
  8  9  1  0
  1 10  1  0
  4 11  1  0
  4 12  1  0
  5 13  1  0
  6 14  1  0
  6 15  1  0
  7 16  1  0
  9 17  1  0
  9 18  1  0
  9 19  1  0
M  END
