
     RDKit          3D

 23 23  0  0  0  0  0  0  0  0999 V2000
    3.2821   -1.3394    1.0249 C   0  0  0  0  0  0  0  0  0  0  0  0
    2.3397   -1.1780    0.2609 C   0  0  0  0  0  0  0  0  0  0  0  0
    1.1985   -0.9912   -0.6322 C   0  0  0  0  0  0  0  0  0  0  0  0
    0.2977    0.0557   -0.0080 C   0  0  0  0  0  0  0  0  0  0  0  0
   -0.9315    0.3643   -0.8099 C   0  0  0  0  0  0  0  0  0  0  0  0
   -1.8287    1.4022   -0.1866 C   0  0  0  0  0  0  0  0  0  0  0  0
   -1.7653   -0.8803   -1.0661 C   0  0  0  0  0  0  0  0  0  0  0  0
    0.9152    1.2066    0.7160 C   0  0  0  0  0  0  0  0  0  0  0  0
    0.2749    0.0631    1.4825 C   0  0  0  0  0  0  0  0  0  0  0  0
    4.1164   -1.4716    1.6826 H   0  0  0  0  0  0  0  0  0  0  0  0
    1.5391   -0.7097   -1.6579 H   0  0  0  0  0  0  0  0  0  0  0  0
    0.6707   -1.9653   -0.7627 H   0  0  0  0  0  0  0  0  0  0  0  0
   -0.6273    0.8075   -1.8080 H   0  0  0  0  0  0  0  0  0  0  0  0
   -1.8724    2.3536   -0.7621 H   0  0  0  0  0  0  0  0  0  0  0  0
   -2.8584    0.9998   -0.1645 H   0  0  0  0  0  0  0  0  0  0  0  0
   -1.5617    1.6358    0.8783 H   0  0  0  0  0  0  0  0  0  0  0  0
   -2.1150   -1.2347   -0.0660 H   0  0  0  0  0  0  0  0  0  0  0  0
   -2.6678   -0.5546   -1.6183 H   0  0  0  0  0  0  0  0  0  0  0  0
   -1.1720   -1.6454   -1.5794 H   0  0  0  0  0  0  0  0  0  0  0  0
    0.3945    2.1562    0.7838 H   0  0  0  0  0  0  0  0  0  0  0  0
    2.0186    1.2658    0.6467 H   0  0  0  0  0  0  0  0  0  0  0  0
    1.0262   -0.5486    2.0259 H   0  0  0  0  0  0  0  0  0  0  0  0
   -0.6733    0.2081    2.0064 H   0  0  0  0  0  0  0  0  0  0  0  0
  1  2  3  0
  2  3  1  0
  3  4  1  0
  4  5  1  0
  5  6  1  0
  5  7  1  0
  4  8  1  0
  8  9  1  0
  9  4  1  0
  1 10  1  0
  3 11  1  0
  3 12  1  0
  5 13  1  0
  6 14  1  0
  6 15  1  0
  6 16  1  0
  7 17  1  0
  7 18  1  0
  7 19  1  0
  8 20  1  0
  8 21  1  0
  9 22  1  0
  9 23  1  0
M  END
