
     RDKit          3D

 19 20  0  0  0  0  0  0  0  0999 V2000
    3.4211    0.3845   -1.4406 C   0  0  0  0  0  0  0  0  0  0  0  0
    2.4985    0.6107   -0.6858 C   0  0  0  0  0  0  0  0  0  0  0  0
    1.3884    0.9010    0.2028 C   0  0  0  0  0  0  0  0  0  0  0  0
    0.0513    0.6628   -0.4380 C   0  0  0  0  0  0  0  0  0  0  0  0
   -1.1218    0.9660    0.4910 C   0  0  0  0  0  0  0  0  0  0  0  0
   -2.3796    1.0341   -0.0961 O   0  0  0  0  0  0  0  0  0  0  0  0
   -2.3148   -0.3464   -0.2710 C   0  0  0  0  0  0  0  0  0  0  0  0
   -0.8573   -0.3915    0.0560 C   0  0  0  0  0  0  0  0  0  0  0  0
   -0.4157   -1.5080    0.9296 C   0  0  0  0  0  0  0  0  0  0  0  0
    4.2166    0.1926   -2.1012 H   0  0  0  0  0  0  0  0  0  0  0  0
    1.5186    0.3065    1.1375 H   0  0  0  0  0  0  0  0  0  0  0  0
    1.4036    1.9859    0.5063 H   0  0  0  0  0  0  0  0  0  0  0  0
   -0.0164    1.0030   -1.4863 H   0  0  0  0  0  0  0  0  0  0  0  0
   -0.9385    1.3857    1.4732 H   0  0  0  0  0  0  0  0  0  0  0  0
   -2.9566   -0.9245    0.4058 H   0  0  0  0  0  0  0  0  0  0  0  0
   -2.5218   -0.6670   -1.3246 H   0  0  0  0  0  0  0  0  0  0  0  0
   -0.8320   -2.4555    0.4740 H   0  0  0  0  0  0  0  0  0  0  0  0
    0.6904   -1.6666    0.9450 H   0  0  0  0  0  0  0  0  0  0  0  0
   -0.8338   -1.4733    1.9568 H   0  0  0  0  0  0  0  0  0  0  0  0
  1  2  3  0
  2  3  1  0
  3  4  1  0
  4  5  1  0
  5  6  1  0
  6  7  1  0
  7  8  1  0
  8  9  1  0
  8  4  1  0
  8  5  1  0
  1 10  1  0
  3 11  1  0
  3 12  1  0
  4 13  1  0
  5 14  1  0
  7 15  1  0
  7 16  1  0
  9 17  1  0
  9 18  1  0
  9 19  1  0
M  END
