
     RDKit          3D

 19 19  0  0  0  0  0  0  0  0999 V2000
    3.9087   -0.5573   -0.5808 C   0  0  0  0  0  0  0  0  0  0  0  0
    2.7500   -0.3892   -0.0147 C   0  0  0  0  0  0  0  0  0  0  0  0
    1.7448   -0.2626    0.4691 C   0  0  0  0  0  0  0  0  0  0  0  0
    0.6225    0.0676   -0.7132 C   0  0  0  0  0  0  0  0  0  0  0  0
   -0.7982    0.0760   -0.7001 C   0  0  0  0  0  0  0  0  0  0  0  0
   -1.4353   -0.9614    0.0496 O   0  0  0  0  0  0  0  0  0  0  0  0
   -2.5814   -0.1830   -0.0146 C   0  0  0  0  0  0  0  0  0  0  0  0
   -1.6146    1.0504    0.0911 C   0  0  0  0  0  0  0  0  0  0  0  0
   -1.2653    1.1384    1.4236 O   0  0  0  0  0  0  0  0  0  0  0  0
    5.2694   -0.7711   -1.2707 H   0  0  0  0  0  0  0  0  0  0  0  0
    1.2802   -1.7223    0.0226 H   0  0  0  0  0  0  0  0  0  0  0  0
    1.3680   -0.6131    1.3396 H   0  0  0  0  0  0  0  0  0  0  0  0
    0.9457    1.2231   -0.8130 H   0  0  0  0  0  0  0  0  0  0  0  0
    1.0123   -0.2436   -1.7328 H   0  0  0  0  0  0  0  0  0  0  0  0
   -1.2567    0.0231   -1.7490 H   0  0  0  0  0  0  0  0  0  0  0  0
   -3.0270   -0.1054   -1.0368 H   0  0  0  0  0  0  0  0  0  0  0  0
   -3.2893   -0.1558    0.8352 H   0  0  0  0  0  0  0  0  0  0  0  0
   -1.9051    1.9342   -0.4678 H   0  0  0  0  0  0  0  0  0  0  0  0
   -1.7288    0.4520    1.9928 H   0  0  0  0  0  0  0  0  0  0  0  0
  1  2  3  0
  2  3  1  0
  3  4  1  0
  4  5  1  0
  5  6  1  0
  6  7  1  0
  7  8  1  0
  8  9  1  0
  8  5  1  0
  1 10  1  0
  3 11  1  0
  3 12  1  0
  4 13  1  0
  4 14  1  0
  5 15  1  0
  7 16  1  0
  7 17  1  0
  8 18  1  0
  9 19  1  0
M  END
