
     RDKit          3D

 19 19  0  0  0  0  0  0  0  0999 V2000
    0.7783    2.8080   -0.6402 C   0  0  0  0  0  0  0  0  0  0  0  0
    0.5230    1.7887   -0.0715 C   0  0  0  0  0  0  0  0  0  0  0  0
    0.2279    0.5274    0.6429 C   0  0  0  0  0  0  0  0  0  0  0  0
    0.9999   -0.6867    0.3132 C   0  0  0  0  0  0  0  0  0  0  0  0
    2.2088   -0.4927   -0.5668 C   0  0  0  0  0  0  0  0  0  0  0  0
   -0.3333   -0.5862   -0.2769 C   0  0  0  0  0  0  0  0  0  0  0  0
   -1.5491   -1.2434    0.3272 C   0  0  0  0  0  0  0  0  0  0  0  0
   -2.5942   -0.1955    0.5089 C   0  0  0  0  0  0  0  0  0  0  0  0
   -3.0113    0.4880   -0.4412 O   0  0  0  0  0  0  0  0  0  0  0  0
    1.0045    3.7270   -1.1593 H   0  0  0  0  0  0  0  0  0  0  0  0
   -0.1652    0.5929    1.6712 H   0  0  0  0  0  0  0  0  0  0  0  0
    1.1405   -1.4775    1.0843 H   0  0  0  0  0  0  0  0  0  0  0  0
    2.1708    0.5449   -0.9972 H   0  0  0  0  0  0  0  0  0  0  0  0
    2.2600   -1.2496   -1.3656 H   0  0  0  0  0  0  0  0  0  0  0  0
    3.1055   -0.4945    0.0892 H   0  0  0  0  0  0  0  0  0  0  0  0
   -0.4003   -0.3706   -1.3539 H   0  0  0  0  0  0  0  0  0  0  0  0
   -1.3831   -1.7451    1.2730 H   0  0  0  0  0  0  0  0  0  0  0  0
   -1.9516   -1.9445   -0.4548 H   0  0  0  0  0  0  0  0  0  0  0  0
   -3.0311    0.0096    1.4841 H   0  0  0  0  0  0  0  0  0  0  0  0
  1  2  3  0
  2  3  1  0
  3  4  1  0
  4  5  1  0
  4  6  1  0
  6  7  1  0
  7  8  1  0
  8  9  2  0
  6  3  1  0
  1 10  1  0
  3 11  1  0
  4 12  1  0
  5 13  1  0
  5 14  1  0
  5 15  1  0
  6 16  1  0
  7 17  1  0
  7 18  1  0
  8 19  1  0
M  END
