
     RDKit          3D

 16 15  0  0  0  0  0  0  0  0999 V2000
   -2.9337    1.0457   -0.1271 C   0  0  0  0  0  0  0  0  0  0  0  0
   -2.0208    0.0962   -0.0052 C   0  0  0  0  0  0  0  0  0  0  0  0
   -1.2327   -0.7102    0.1031 C   0  0  0  0  0  0  0  0  0  0  0  0
   -1.5702   -2.1049    0.1061 O   0  0  0  0  0  0  0  0  0  0  0  0
    0.1601   -0.5619   -0.4317 C   0  0  0  0  0  0  0  0  0  0  0  0
    0.6823   -1.4442   -1.0956 O   0  0  0  0  0  0  0  0  0  0  0  0
    0.8919    0.6963   -0.0931 C   0  0  0  0  0  0  0  0  0  0  0  0
    2.3758    0.5244   -0.3454 C   0  0  0  0  0  0  0  0  0  0  0  0
   -3.6066    1.7458   -0.1999 H   0  0  0  0  0  0  0  0  0  0  0  0
   -0.8468   -0.6290    1.3719 H   0  0  0  0  0  0  0  0  0  0  0  0
   -1.2398   -2.6205    0.9450 H   0  0  0  0  0  0  0  0  0  0  0  0
    0.6982    0.9284    0.9653 H   0  0  0  0  0  0  0  0  0  0  0  0
    0.5025    1.4998   -0.7683 H   0  0  0  0  0  0  0  0  0  0  0  0
    2.8809    1.4226    0.0913 H   0  0  0  0  0  0  0  0  0  0  0  0
    2.5540    0.5332   -1.4426 H   0  0  0  0  0  0  0  0  0  0  0  0
    2.7049   -0.4216    0.1227 H   0  0  0  0  0  0  0  0  0  0  0  0
  1  2  3  0
  2  3  1  0
  3  4  1  0
  3  5  1  0
  5  6  2  0
  5  7  1  0
  7  8  1  0
  1  9  1  0
  3 10  1  0
  4 11  1  0
  7 12  1  0
  7 13  1  0
  8 14  1  0
  8 15  1  0
  8 16  1  0
M  END
