
     RDKit          3D

 19 19  0  0  0  0  0  0  0  0999 V2000
    3.7422   -0.6922   -0.4982 C   0  0  0  0  0  0  0  0  0  0  0  0
    2.6322   -0.3024   -0.2838 C   0  0  0  0  0  0  0  0  0  0  0  0
    1.2811    0.1749    0.0025 C   0  0  0  0  0  0  0  0  0  0  0  0
    0.6562    0.8315   -1.1447 C   0  0  0  0  0  0  0  0  0  0  0  0
   -0.6478    0.5958   -1.0596 C   0  0  0  0  0  0  0  0  0  0  0  0
   -0.8144   -0.2368    0.1893 C   0  0  0  0  0  0  0  0  0  0  0  0
   -1.8764   -1.2542   -0.0697 C   0  0  0  0  0  0  0  0  0  0  0  0
   -1.0555    0.6194    1.3893 C   0  0  0  0  0  0  0  0  0  0  0  0
    0.4341   -0.9022    0.2539 O   0  0  0  0  0  0  0  0  0  0  0  0
    4.7186   -1.0534   -0.6944 H   0  0  0  0  0  0  0  0  0  0  0  0
    1.2297    0.8369    0.8741 H   0  0  0  0  0  0  0  0  0  0  0  0
    1.0942    1.4227   -1.9636 H   0  0  0  0  0  0  0  0  0  0  0  0
   -1.4621    0.8971   -1.6983 H   0  0  0  0  0  0  0  0  0  0  0  0
   -1.4222   -2.2262   -0.3836 H   0  0  0  0  0  0  0  0  0  0  0  0
   -2.5662   -0.8419   -0.8351 H   0  0  0  0  0  0  0  0  0  0  0  0
   -2.4905   -1.4195    0.8380 H   0  0  0  0  0  0  0  0  0  0  0  0
   -0.6188    0.1513    2.3041 H   0  0  0  0  0  0  0  0  0  0  0  0
   -2.1645    0.7266    1.5153 H   0  0  0  0  0  0  0  0  0  0  0  0
   -0.6701    1.6628    1.2646 H   0  0  0  0  0  0  0  0  0  0  0  0
  1  2  3  0
  2  3  1  0
  3  4  1  0
  4  5  2  0
  5  6  1  0
  6  7  1  0
  6  8  1  0
  6  9  1  0
  9  3  1  0
  1 10  1  0
  3 11  1  0
  4 12  1  0
  5 13  1  0
  7 14  1  0
  7 15  1  0
  7 16  1  0
  8 17  1  0
  8 18  1  0
  8 19  1  0
M  END
