
     RDKit          3D

 17 17  0  0  0  0  0  0  0  0999 V2000
   -1.5680    1.4908   -1.9051 C   0  0  0  0  0  0  0  0  0  0  0  0
   -0.7067    0.8389   -1.3100 C   0  0  0  0  0  0  0  0  0  0  0  0
    0.3001    0.0679   -0.5835 C   0  0  0  0  0  0  0  0  0  0  0  0
    0.7408   -1.0533   -1.2820 O   0  0  0  0  0  0  0  0  0  0  0  0
    1.6736   -1.9728   -0.8993 C   0  0  0  0  0  0  0  0  0  0  0  0
    2.2159   -1.8085    0.2111 O   0  0  0  0  0  0  0  0  0  0  0  0
    1.0393    0.7246    0.4961 C   0  0  0  0  0  0  0  0  0  0  0  0
   -0.0262   -0.2161    0.8843 C   0  0  0  0  0  0  0  0  0  0  0  0
   -1.3768    0.2823    1.3486 C   0  0  0  0  0  0  0  0  0  0  0  0
   -2.2942    2.0579   -2.4267 H   0  0  0  0  0  0  0  0  0  0  0  0
    1.9455   -2.8308   -1.5373 H   0  0  0  0  0  0  0  0  0  0  0  0
    2.1120    0.5155    0.7007 H   0  0  0  0  0  0  0  0  0  0  0  0
    0.8106    1.8008    0.6546 H   0  0  0  0  0  0  0  0  0  0  0  0
    0.2884   -1.1747    1.3371 H   0  0  0  0  0  0  0  0  0  0  0  0
   -1.5634    0.0328    2.3977 H   0  0  0  0  0  0  0  0  0  0  0  0
   -1.4398    1.3875    1.2613 H   0  0  0  0  0  0  0  0  0  0  0  0
   -2.1513   -0.1425    0.6525 H   0  0  0  0  0  0  0  0  0  0  0  0
  1  2  3  0
  2  3  1  0
  3  4  1  0
  4  5  1  0
  5  6  2  0
  3  7  1  0
  7  8  1  0
  8  9  1  0
  8  3  1  0
  1 10  1  0
  5 11  1  0
  7 12  1  0
  7 13  1  0
  8 14  1  0
  9 15  1  0
  9 16  1  0
  9 17  1  0
M  END
