
     RDKit          3D

 19 20  0  0  0  0  0  0  0  0999 V2000
   -1.4669   -2.2717   -1.5416 C   0  0  0  0  0  0  0  0  0  0  0  0
   -0.9746   -1.4131   -0.8829 C   0  0  0  0  0  0  0  0  0  0  0  0
   -0.3463   -0.3669   -0.0735 C   0  0  0  0  0  0  0  0  0  0  0  0
    0.6144    0.5676   -0.7785 C   0  0  0  0  0  0  0  0  0  0  0  0
    1.3001    1.6485   -0.0743 C   0  0  0  0  0  0  0  0  0  0  0  0
    2.0785    0.4313   -0.5669 C   0  0  0  0  0  0  0  0  0  0  0  0
   -0.1194   -0.7307    1.3518 C   0  0  0  0  0  0  0  0  0  0  0  0
   -1.1920    0.2644    0.9641 C   0  0  0  0  0  0  0  0  0  0  0  0
   -2.5217   -0.1308    1.0604 O   0  0  0  0  0  0  0  0  0  0  0  0
   -1.9091   -3.0433   -2.1119 H   0  0  0  0  0  0  0  0  0  0  0  0
    0.3137    0.7763   -1.8281 H   0  0  0  0  0  0  0  0  0  0  0  0
    1.4916    2.6143   -0.6262 H   0  0  0  0  0  0  0  0  0  0  0  0
    1.2815    1.7976    1.0158 H   0  0  0  0  0  0  0  0  0  0  0  0
    2.7710    0.5618   -1.4222 H   0  0  0  0  0  0  0  0  0  0  0  0
    2.4840   -0.2380    0.2168 H   0  0  0  0  0  0  0  0  0  0  0  0
    0.8288   -0.3775    1.7893 H   0  0  0  0  0  0  0  0  0  0  0  0
   -0.5021   -1.6804    1.7217 H   0  0  0  0  0  0  0  0  0  0  0  0
   -1.0088    1.2813    1.3453 H   0  0  0  0  0  0  0  0  0  0  0  0
   -3.1225    0.3093    0.4409 H   0  0  0  0  0  0  0  0  0  0  0  0
  1  2  3  0
  2  3  1  0
  3  4  1  0
  4  5  1  0
  5  6  1  0
  3  7  1  0
  7  8  1  0
  8  9  1  0
  8  3  1  0
  6  4  1  0
  1 10  1  0
  4 11  1  0
  5 12  1  0
  5 13  1  0
  6 14  1  0
  6 15  1  0
  7 16  1  0
  7 17  1  0
  8 18  1  0
  9 19  1  0
M  END
