
     RDKit          3D

 19 18  0  0  0  0  0  0  0  0999 V2000
   -1.5006   -0.0435   -3.1174 C   0  0  0  0  0  0  0  0  0  0  0  0
   -1.0952    0.2634   -2.0237 C   0  0  0  0  0  0  0  0  0  0  0  0
   -0.5970    0.6631   -0.6946 C   0  0  0  0  0  0  0  0  0  0  0  0
   -0.0395   -0.5528    0.0280 C   0  0  0  0  0  0  0  0  0  0  0  0
   -1.0582   -1.6246    0.2292 C   0  0  0  0  0  0  0  0  0  0  0  0
    0.5140   -0.0628    1.3226 C   0  0  0  0  0  0  0  0  0  0  0  0
    0.0317   -0.5276    2.3775 O   0  0  0  0  0  0  0  0  0  0  0  0
    1.5283    0.8762    1.3078 O   0  0  0  0  0  0  0  0  0  0  0  0
    2.0318    1.3205    2.5578 C   0  0  0  0  0  0  0  0  0  0  0  0
   -1.8543   -0.3343   -4.0917 H   0  0  0  0  0  0  0  0  0  0  0  0
    0.2229    1.3863   -0.8280 H   0  0  0  0  0  0  0  0  0  0  0  0
   -1.3911    1.1674   -0.1153 H   0  0  0  0  0  0  0  0  0  0  0  0
    0.7869   -0.9343   -0.6357 H   0  0  0  0  0  0  0  0  0  0  0  0
   -1.2572   -1.8366    1.3121 H   0  0  0  0  0  0  0  0  0  0  0  0
   -2.0463   -1.3641   -0.2416 H   0  0  0  0  0  0  0  0  0  0  0  0
   -0.7296   -2.5584   -0.2724 H   0  0  0  0  0  0  0  0  0  0  0  0
    2.4720    0.4006    3.0419 H   0  0  0  0  0  0  0  0  0  0  0  0
    2.8039    2.1050    2.4327 H   0  0  0  0  0  0  0  0  0  0  0  0
    1.1775    1.6565    3.1711 H   0  0  0  0  0  0  0  0  0  0  0  0
  1  2  3  0
  2  3  1  0
  3  4  1  0
  4  5  1  0
  4  6  1  0
  6  7  2  0
  6  8  1  0
  8  9  1  0
  1 10  1  0
  3 11  1  0
  3 12  1  0
  4 13  1  0
  5 14  1  0
  5 15  1  0
  5 16  1  0
  9 17  1  0
  9 18  1  0
  9 19  1  0
M  END
