
     RDKit          3D

 19 20  0  0  0  0  0  0  0  0999 V2000
    3.1269   -0.3174   -0.5496 C   0  0  0  0  0  0  0  0  0  0  0  0
    1.9700   -0.0388   -0.7563 C   0  0  0  0  0  0  0  0  0  0  0  0
    0.5535    0.3124   -0.9855 C   0  0  0  0  0  0  0  0  0  0  0  0
   -0.3138   -0.9219   -0.9339 C   0  0  0  0  0  0  0  0  0  0  0  0
   -0.9316   -1.0918    0.4321 C   0  0  0  0  0  0  0  0  0  0  0  0
   -1.7958    0.0602    0.8421 C   0  0  0  0  0  0  0  0  0  0  0  0
   -0.4660    0.6082    1.2513 C   0  0  0  0  0  0  0  0  0  0  0  0
    0.1265    1.3345    0.0679 C   0  0  0  0  0  0  0  0  0  0  0  0
    0.0001   -0.6934    1.3688 O   0  0  0  0  0  0  0  0  0  0  0  0
    4.1521   -0.5797   -0.3773 H   0  0  0  0  0  0  0  0  0  0  0  0
    0.4915    0.7240   -2.0087 H   0  0  0  0  0  0  0  0  0  0  0  0
    0.2898   -1.8347   -1.1287 H   0  0  0  0  0  0  0  0  0  0  0  0
   -1.0972   -0.9050   -1.7255 H   0  0  0  0  0  0  0  0  0  0  0  0
   -1.3984   -2.0667    0.5586 H   0  0  0  0  0  0  0  0  0  0  0  0
   -2.2815    0.6363    0.0565 H   0  0  0  0  0  0  0  0  0  0  0  0
   -2.3999   -0.1993    1.7261 H   0  0  0  0  0  0  0  0  0  0  0  0
   -0.3983    1.1265    2.2053 H   0  0  0  0  0  0  0  0  0  0  0  0
    1.0290    1.9012    0.3377 H   0  0  0  0  0  0  0  0  0  0  0  0
   -0.6570    1.9453   -0.3811 H   0  0  0  0  0  0  0  0  0  0  0  0
  1  2  3  0
  2  3  1  0
  3  4  1  0
  4  5  1  0
  5  6  1  0
  6  7  1  0
  7  8  1  0
  7  9  1  0
  8  3  1  0
  9  5  1  0
  1 10  1  0
  3 11  1  0
  4 12  1  0
  4 13  1  0
  5 14  1  0
  6 15  1  0
  6 16  1  0
  7 17  1  0
  8 18  1  0
  8 19  1  0
M  END
