
     RDKit          3D

 19 19  0  0  0  0  0  0  0  0999 V2000
    1.8436    2.2529   -0.2807 C   0  0  0  0  0  0  0  0  0  0  0  0
    1.2641    1.2561    0.1005 C   0  0  0  0  0  0  0  0  0  0  0  0
    0.5493    0.0657    0.5702 C   0  0  0  0  0  0  0  0  0  0  0  0
    1.0343   -0.5393    1.7269 O   0  0  0  0  0  0  0  0  0  0  0  0
    0.1292   -0.9177   -0.5616 C   0  0  0  0  0  0  0  0  0  0  0  0
    0.2429   -2.3945   -0.2010 C   0  0  0  0  0  0  0  0  0  0  0  0
   -0.8495   -0.1006    0.1828 C   0  0  0  0  0  0  0  0  0  0  0  0
   -1.5888    0.9480   -0.6070 C   0  0  0  0  0  0  0  0  0  0  0  0
   -1.6245    2.1671    0.0833 O   0  0  0  0  0  0  0  0  0  0  0  0
    2.3363    3.1365   -0.6192 H   0  0  0  0  0  0  0  0  0  0  0  0
    1.8968   -0.1568    2.0135 H   0  0  0  0  0  0  0  0  0  0  0  0
    0.4662   -0.6357   -1.5921 H   0  0  0  0  0  0  0  0  0  0  0  0
   -0.7816   -2.8101   -0.0232 H   0  0  0  0  0  0  0  0  0  0  0  0
    0.8698   -2.5436    0.6808 H   0  0  0  0  0  0  0  0  0  0  0  0
    0.7416   -2.9561   -1.0424 H   0  0  0  0  0  0  0  0  0  0  0  0
   -1.5016   -0.6467    0.9099 H   0  0  0  0  0  0  0  0  0  0  0  0
   -1.0718    1.1743   -1.5798 H   0  0  0  0  0  0  0  0  0  0  0  0
   -2.6390    0.6359   -0.7728 H   0  0  0  0  0  0  0  0  0  0  0  0
   -1.3174    2.0645    1.0118 H   0  0  0  0  0  0  0  0  0  0  0  0
  1  2  3  0
  2  3  1  0
  3  4  1  0
  3  5  1  0
  5  6  1  0
  5  7  1  0
  7  8  1  0
  8  9  1  0
  7  3  1  0
  1 10  1  0
  4 11  1  0
  5 12  1  0
  6 13  1  0
  6 14  1  0
  6 15  1  0
  7 16  1  0
  8 17  1  0
  8 18  1  0
  9 19  1  0
M  END
