
     RDKit          3D

 17 16  0  0  0  0  0  0  0  0999 V2000
    3.5476    0.1864   -0.0083 C   0  0  0  0  0  0  0  0  0  0  0  0
    2.4552   -0.4182   -0.1672 C   0  0  0  0  0  0  0  0  0  0  0  0
    1.2468   -1.0628   -0.3311 C   0  0  0  0  0  0  0  0  0  0  0  0
    1.0475   -2.3111   -0.1360 O   0  0  0  0  0  0  0  0  0  0  0  0
    0.0495   -0.2451   -0.7759 C   0  0  0  0  0  0  0  0  0  0  0  0
   -0.9945   -0.2185    0.3335 C   0  0  0  0  0  0  0  0  0  0  0  0
   -2.1771    0.5728   -0.1992 C   0  0  0  0  0  0  0  0  0  0  0  0
   -0.5184    0.4486    1.5452 C   0  0  0  0  0  0  0  0  0  0  0  0
   -1.1016    1.1640    2.2506 O   0  0  0  0  0  0  0  0  0  0  0  0
    4.5106    0.7203    0.1124 H   0  0  0  0  0  0  0  0  0  0  0  0
    0.3905    0.7852   -0.9882 H   0  0  0  0  0  0  0  0  0  0  0  0
   -0.3314   -0.7130   -1.6809 H   0  0  0  0  0  0  0  0  0  0  0  0
   -1.3329   -1.2411    0.5618 H   0  0  0  0  0  0  0  0  0  0  0  0
   -3.0685    0.1671    0.3325 H   0  0  0  0  0  0  0  0  0  0  0  0
   -2.0623    1.6432   -0.0883 H   0  0  0  0  0  0  0  0  0  0  0  0
   -2.2228    0.2984   -1.2969 H   0  0  0  0  0  0  0  0  0  0  0  0
    0.5618    0.2237    1.8017 H   0  0  0  0  0  0  0  0  0  0  0  0
  1  2  3  0
  2  3  1  0
  3  4  2  0
  3  5  1  0
  5  6  1  0
  6  7  1  0
  6  8  1  0
  8  9  2  0
  1 10  1  0
  5 11  1  0
  5 12  1  0
  6 13  1  0
  7 14  1  0
  7 15  1  0
  7 16  1  0
  8 17  1  0
M  END
