
     RDKit          3D

 15 14  0  0  0  0  0  0  0  0999 V2000
   -2.1815    1.5354    0.0174 C   0  0  0  0  0  0  0  0  0  0  0  0
   -1.0539    0.7696   -0.0856 C   0  0  0  0  0  0  0  0  0  0  0  0
    0.0401    0.0420   -0.1828 C   0  0  0  0  0  0  0  0  0  0  0  0
   -0.0911   -1.0074   -1.2925 C   0  0  0  0  0  0  0  0  0  0  0  0
    0.0028   -0.8088    1.2328 C   0  0  0  0  0  0  0  0  0  0  0  0
    1.2323    0.6606   -0.0626 C   0  0  0  0  0  0  0  0  0  0  0  0
    2.3767    1.2780    0.0619 C   0  0  0  0  0  0  0  0  0  0  0  0
   -3.1810    2.1919    0.1018 H   0  0  0  0  0  0  0  0  0  0  0  0
   -1.1657   -1.1222   -1.4827 H   0  0  0  0  0  0  0  0  0  0  0  0
    0.2119   -2.0030   -0.8450 H   0  0  0  0  0  0  0  0  0  0  0  0
    0.5062   -0.7973   -2.1551 H   0  0  0  0  0  0  0  0  0  0  0  0
    0.0866    0.0369    1.9910 H   0  0  0  0  0  0  0  0  0  0  0  0
    0.7573   -1.5515    1.2726 H   0  0  0  0  0  0  0  0  0  0  0  0
   -1.0527   -1.1386    1.2474 H   0  0  0  0  0  0  0  0  0  0  0  0
    3.5121    1.9142    0.1814 H   0  0  0  0  0  0  0  0  0  0  0  0
  1  2  3  0
  2  3  1  0
  3  4  1  0
  3  5  1  0
  3  6  1  0
  6  7  3  0
  1  8  1  0
  4  9  1  0
  4 10  1  0
  4 11  1  0
  5 12  1  0
  5 13  1  0
  5 14  1  0
  7 15  1  0
M  END
