
     RDKit          3D

 19 19  0  0  0  0  0  0  0  0999 V2000
    3.2036   -0.5112   -0.1423 C   0  0  0  0  0  0  0  0  0  0  0  0
    2.0476   -0.3965   -0.4946 C   0  0  0  0  0  0  0  0  0  0  0  0
    0.6604   -0.2560   -0.9437 C   0  0  0  0  0  0  0  0  0  0  0  0
   -0.0765    0.9081   -0.3951 C   0  0  0  0  0  0  0  0  0  0  0  0
   -1.1709    1.5585   -1.2050 C   0  0  0  0  0  0  0  0  0  0  0  0
   -0.3793   -0.4936    0.0627 C   0  0  0  0  0  0  0  0  0  0  0  0
   -1.5514   -1.1129   -0.3594 O   0  0  0  0  0  0  0  0  0  0  0  0
   -0.0390   -0.7299    1.5168 C   0  0  0  0  0  0  0  0  0  0  0  0
   -1.1041   -0.2229    2.2622 O   0  0  0  0  0  0  0  0  0  0  0  0
    4.2177   -0.6238    0.1798 H   0  0  0  0  0  0  0  0  0  0  0  0
    0.4427   -0.4984   -2.0007 H   0  0  0  0  0  0  0  0  0  0  0  0
    0.4580    1.6046    0.2793 H   0  0  0  0  0  0  0  0  0  0  0  0
   -1.0011    1.3188   -2.2868 H   0  0  0  0  0  0  0  0  0  0  0  0
   -2.1416    1.1002   -0.9102 H   0  0  0  0  0  0  0  0  0  0  0  0
   -1.1800    2.6545   -1.0758 H   0  0  0  0  0  0  0  0  0  0  0  0
   -1.4091   -1.5858   -1.2261 H   0  0  0  0  0  0  0  0  0  0  0  0
    0.8571   -0.1273    1.8070 H   0  0  0  0  0  0  0  0  0  0  0  0
    0.0724   -1.8019    1.7505 H   0  0  0  0  0  0  0  0  0  0  0  0
   -1.9064   -0.7847    2.2077 H   0  0  0  0  0  0  0  0  0  0  0  0
  1  2  3  0
  2  3  1  0
  3  4  1  0
  4  5  1  0
  4  6  1  0
  6  7  1  0
  6  8  1  0
  8  9  1  0
  6  3  1  0
  1 10  1  0
  3 11  1  0
  4 12  1  0
  5 13  1  0
  5 14  1  0
  5 15  1  0
  7 16  1  0
  8 17  1  0
  8 18  1  0
  9 19  1  0
M  END
