
     RDKit          3D

 17 17  0  0  0  0  0  0  0  0999 V2000
    2.4664    1.5308   -0.4884 C   0  0  0  0  0  0  0  0  0  0  0  0
    1.1101    1.0831   -0.5833 C   0  0  0  0  0  0  0  0  0  0  0  0
   -0.0782    0.7080   -0.6712 C   0  0  0  0  0  0  0  0  0  0  0  0
   -0.7662    0.8719   -1.8398 O   0  0  0  0  0  0  0  0  0  0  0  0
   -0.8251    1.0747    0.6063 C   0  0  0  0  0  0  0  0  0  0  0  0
   -0.7136    0.1237    1.4557 C   0  0  0  0  0  0  0  0  0  0  0  0
    0.1047   -1.0882    0.9691 C   0  0  0  0  0  0  0  0  0  0  0  0
    0.0146   -0.9226   -0.5009 C   0  0  0  0  0  0  0  0  0  0  0  0
   -1.2508   -1.3004   -0.9200 O   0  0  0  0  0  0  0  0  0  0  0  0
    3.5307    1.8947   -0.4195 H   0  0  0  0  0  0  0  0  0  0  0  0
   -0.8515   -0.0205   -2.3319 H   0  0  0  0  0  0  0  0  0  0  0  0
   -1.3542    2.0138    0.6791 H   0  0  0  0  0  0  0  0  0  0  0  0
   -1.0104    0.0339    2.5405 H   0  0  0  0  0  0  0  0  0  0  0  0
   -0.5044   -1.9912    1.3072 H   0  0  0  0  0  0  0  0  0  0  0  0
    1.0406   -1.1015    1.4876 H   0  0  0  0  0  0  0  0  0  0  0  0
    0.8523   -1.2283   -1.1203 H   0  0  0  0  0  0  0  0  0  0  0  0
   -1.7649   -1.6820   -0.1702 H   0  0  0  0  0  0  0  0  0  0  0  0
  1  2  3  0
  2  3  1  0
  3  4  1  0
  3  5  1  0
  5  6  2  0
  6  7  1  0
  7  8  1  0
  8  9  1  0
  8  3  1  0
  1 10  1  0
  4 11  1  0
  5 12  1  0
  6 13  1  0
  7 14  1  0
  7 15  1  0
  8 16  1  0
  9 17  1  0
M  END
