
     RDKit          3D

 20 19  0  0  0  0  0  0  0  0999 V2000
   -2.2113    1.2779   -0.2916 C   0  0  0  0  0  0  0  0  0  0  0  0
   -1.2675    0.5217   -0.1168 C   0  0  0  0  0  0  0  0  0  0  0  0
   -0.1306   -0.3713    0.1084 C   0  0  0  0  0  0  0  0  0  0  0  0
   -0.1325   -1.4746   -0.9033 C   0  0  0  0  0  0  0  0  0  0  0  0
    1.1187    0.4674    0.0705 C   0  0  0  0  0  0  0  0  0  0  0  0
    1.2988    1.1696   -1.2522 C   0  0  0  0  0  0  0  0  0  0  0  0
   -0.2152   -0.9542    1.5267 C   0  0  0  0  0  0  0  0  0  0  0  0
   -0.1855    0.0746    2.4535 O   0  0  0  0  0  0  0  0  0  0  0  0
   -3.0131    1.9349   -0.4270 H   0  0  0  0  0  0  0  0  0  0  0  0
    0.0788   -1.0563   -1.8917 H   0  0  0  0  0  0  0  0  0  0  0  0
    0.5236   -2.3071   -0.6720 H   0  0  0  0  0  0  0  0  0  0  0  0
   -1.1797   -1.8893   -0.9247 H   0  0  0  0  0  0  0  0  0  0  0  0
    0.9721    1.2804    0.8342 H   0  0  0  0  0  0  0  0  0  0  0  0
    2.0370   -0.0858    0.2856 H   0  0  0  0  0  0  0  0  0  0  0  0
    1.4615    0.4826   -2.0905 H   0  0  0  0  0  0  0  0  0  0  0  0
    0.4260    1.8367   -1.4507 H   0  0  0  0  0  0  0  0  0  0  0  0
    2.1750    1.8227   -1.1665 H   0  0  0  0  0  0  0  0  0  0  0  0
    0.5335   -1.7323    1.6884 H   0  0  0  0  0  0  0  0  0  0  0  0
   -1.2164   -1.4681    1.5963 H   0  0  0  0  0  0  0  0  0  0  0  0
   -1.0731    0.4706    2.6232 H   0  0  0  0  0  0  0  0  0  0  0  0
  1  2  3  0
  2  3  1  0
  3  4  1  0
  3  5  1  0
  5  6  1  0
  3  7  1  0
  7  8  1  0
  1  9  1  0
  4 10  1  0
  4 11  1  0
  4 12  1  0
  5 13  1  0
  5 14  1  0
  6 15  1  0
  6 16  1  0
  6 17  1  0
  7 18  1  0
  7 19  1  0
  8 20  1  0
M  END
