
     RDKit          3D

 15 15  0  0  0  0  0  0  0  0999 V2000
    2.9869   -0.7673   -0.7756 C   0  0  0  0  0  0  0  0  0  0  0  0
    1.9618   -0.5243   -0.1966 C   0  0  0  0  0  0  0  0  0  0  0  0
    0.7135   -0.2536    0.5058 C   0  0  0  0  0  0  0  0  0  0  0  0
   -0.3047   -1.2742    0.1934 C   0  0  0  0  0  0  0  0  0  0  0  0
   -1.4798   -0.6894    0.0412 C   0  0  0  0  0  0  0  0  0  0  0  0
   -1.3900    0.7701    0.2298 C   0  0  0  0  0  0  0  0  0  0  0  0
   -1.8494    1.1663    1.4767 O   0  0  0  0  0  0  0  0  0  0  0  0
    0.0903    1.0195    0.0798 C   0  0  0  0  0  0  0  0  0  0  0  0
    0.6690    1.9993   -0.2919 O   0  0  0  0  0  0  0  0  0  0  0  0
    3.8852   -0.9880   -1.2944 H   0  0  0  0  0  0  0  0  0  0  0  0
    0.8674   -0.2616    1.6055 H   0  0  0  0  0  0  0  0  0  0  0  0
   -0.1757   -2.3611    0.0892 H   0  0  0  0  0  0  0  0  0  0  0  0
   -2.4416   -1.1932   -0.1990 H   0  0  0  0  0  0  0  0  0  0  0  0
   -1.9633    1.2768   -0.5824 H   0  0  0  0  0  0  0  0  0  0  0  0
   -1.5696    2.0807    1.6899 H   0  0  0  0  0  0  0  0  0  0  0  0
  1  2  3  0
  2  3  1  0
  3  4  1  0
  4  5  2  0
  5  6  1  0
  6  7  1  0
  6  8  1  0
  8  9  2  0
  8  3  1  0
  1 10  1  0
  3 11  1  0
  4 12  1  0
  5 13  1  0
  6 14  1  0
  7 15  1  0
M  END
