
     RDKit          3D

 17 16  0  0  0  0  0  0  0  0999 V2000
    0.8290   -0.6333   -2.7041 C   0  0  0  0  0  0  0  0  0  0  0  0
    0.3368   -0.3187   -1.4939 C   0  0  0  0  0  0  0  0  0  0  0  0
   -0.1735    0.0248   -0.2514 C   0  0  0  0  0  0  0  0  0  0  0  0
   -1.5350    0.6414   -0.4151 C   0  0  0  0  0  0  0  0  0  0  0  0
   -1.7146    1.4649   -1.2822 O   0  0  0  0  0  0  0  0  0  0  0  0
    0.7290    1.0308    0.4358 C   0  0  0  0  0  0  0  0  0  0  0  0
    0.1896    1.3092    1.6797 O   0  0  0  0  0  0  0  0  0  0  0  0
   -0.3791   -1.1961    0.6613 C   0  0  0  0  0  0  0  0  0  0  0  0
    0.8313   -1.8189    0.8327 O   0  0  0  0  0  0  0  0  0  0  0  0
    1.1863   -0.8628   -3.5648 H   0  0  0  0  0  0  0  0  0  0  0  0
   -2.3511    0.3694    0.2159 H   0  0  0  0  0  0  0  0  0  0  0  0
    0.7375    1.9796   -0.1915 H   0  0  0  0  0  0  0  0  0  0  0  0
    1.7481    0.6722    0.4071 H   0  0  0  0  0  0  0  0  0  0  0  0
    0.5065    2.1778    2.0280 H   0  0  0  0  0  0  0  0  0  0  0  0
   -0.8236   -0.8589    1.6302 H   0  0  0  0  0  0  0  0  0  0  0  0
   -1.1092   -1.8871    0.2238 H   0  0  0  0  0  0  0  0  0  0  0  0
    0.9920   -2.0943    1.7884 H   0  0  0  0  0  0  0  0  0  0  0  0
  1  2  3  0
  2  3  1  0
  3  4  1  0
  4  5  2  0
  3  6  1  0
  6  7  1  0
  3  8  1  0
  8  9  1  0
  1 10  1  0
  4 11  1  0
  6 12  1  0
  6 13  1  0
  7 14  1  0
  8 15  1  0
  8 16  1  0
  9 17  1  0
M  END
