
     RDKit          3D

 21 22  0  0  0  0  0  0  0  0999 V2000
    3.9601    0.3253   -0.1081 C   0  0  0  0  0  0  0  0  0  0  0  0
    2.7598    0.4433   -0.0947 C   0  0  0  0  0  0  0  0  0  0  0  0
    1.3054    0.6060   -0.0910 C   0  0  0  0  0  0  0  0  0  0  0  0
    0.6109    0.0631   -1.2828 C   0  0  0  0  0  0  0  0  0  0  0  0
   -0.3799   -0.6858   -0.4004 C   0  0  0  0  0  0  0  0  0  0  0  0
   -1.7177   -0.0024   -0.4600 C   0  0  0  0  0  0  0  0  0  0  0  0
   -2.7546   -0.6899    0.3924 C   0  0  0  0  0  0  0  0  0  0  0  0
    0.4893   -0.3221    0.7774 C   0  0  0  0  0  0  0  0  0  0  0  0
    0.6032    1.1178    1.1030 C   0  0  0  0  0  0  0  0  0  0  0  0
    5.0300    0.2022   -0.1139 H   0  0  0  0  0  0  0  0  0  0  0  0
    1.2202   -0.6724   -1.8636 H   0  0  0  0  0  0  0  0  0  0  0  0
    0.1712    0.8402   -1.9159 H   0  0  0  0  0  0  0  0  0  0  0  0
   -0.4293   -1.7578   -0.5650 H   0  0  0  0  0  0  0  0  0  0  0  0
   -2.0841   -0.0541   -1.5182 H   0  0  0  0  0  0  0  0  0  0  0  0
   -1.6937    1.0486   -0.1836 H   0  0  0  0  0  0  0  0  0  0  0  0
   -3.7583   -0.2873    0.1036 H   0  0  0  0  0  0  0  0  0  0  0  0
   -2.6272   -0.4498    1.4722 H   0  0  0  0  0  0  0  0  0  0  0  0
   -2.7851   -1.7854    0.2481 H   0  0  0  0  0  0  0  0  0  0  0  0
    1.0528   -1.0900    1.3170 H   0  0  0  0  0  0  0  0  0  0  0  0
    1.2750    1.3440    1.9692 H   0  0  0  0  0  0  0  0  0  0  0  0
   -0.2479    1.8064    1.0399 H   0  0  0  0  0  0  0  0  0  0  0  0
  1  2  3  0
  2  3  1  0
  3  4  1  0
  4  5  1  0
  5  6  1  0
  6  7  1  0
  5  8  1  0
  8  9  1  0
  8  3  1  0
  9  3  1  0
  1 10  1  0
  4 11  1  0
  4 12  1  0
  5 13  1  0
  6 14  1  0
  6 15  1  0
  7 16  1  0
  7 17  1  0
  7 18  1  0
  8 19  1  0
  9 20  1  0
  9 21  1  0
M  END
