
     RDKit          3D

 21 21  0  0  0  0  0  0  0  0999 V2000
   -2.3787    2.3781   -0.5291 C   0  0  0  0  0  0  0  0  0  0  0  0
   -1.7349    1.4932    0.0058 C   0  0  0  0  0  0  0  0  0  0  0  0
   -0.9375    0.4275    0.6366 C   0  0  0  0  0  0  0  0  0  0  0  0
   -1.8904   -0.2749    1.6057 C   0  0  0  0  0  0  0  0  0  0  0  0
   -0.5422   -0.4331   -0.3438 O   0  0  0  0  0  0  0  0  0  0  0  0
    0.8011   -0.6030   -0.5078 C   0  0  0  0  0  0  0  0  0  0  0  0
    1.1437   -1.5891   -1.6341 C   0  0  0  0  0  0  0  0  0  0  0  0
    1.7918   -0.4430    0.5636 C   0  0  0  0  0  0  0  0  0  0  0  0
    1.6534    0.6546   -0.4904 C   0  0  0  0  0  0  0  0  0  0  0  0
   -2.9243    3.1498   -1.0058 H   0  0  0  0  0  0  0  0  0  0  0  0
   -0.1268    0.9060    1.2039 H   0  0  0  0  0  0  0  0  0  0  0  0
   -1.5896   -1.3458    1.6237 H   0  0  0  0  0  0  0  0  0  0  0  0
   -1.8254    0.1942    2.5855 H   0  0  0  0  0  0  0  0  0  0  0  0
   -2.9341   -0.1733    1.2465 H   0  0  0  0  0  0  0  0  0  0  0  0
    2.2322   -1.7665   -1.6474 H   0  0  0  0  0  0  0  0  0  0  0  0
    0.5578   -2.5218   -1.4075 H   0  0  0  0  0  0  0  0  0  0  0  0
    0.7584   -1.1495   -2.5732 H   0  0  0  0  0  0  0  0  0  0  0  0
    1.5487   -0.1830    1.6019 H   0  0  0  0  0  0  0  0  0  0  0  0
    2.7124   -1.0644    0.4820 H   0  0  0  0  0  0  0  0  0  0  0  0
    1.1899    1.6128   -0.1829 H   0  0  0  0  0  0  0  0  0  0  0  0
    2.4944    0.7312   -1.2331 H   0  0  0  0  0  0  0  0  0  0  0  0
  1  2  3  0
  2  3  1  0
  3  4  1  0
  3  5  1  0
  5  6  1  0
  6  7  1  0
  6  8  1  0
  8  9  1  0
  9  6  1  0
  1 10  1  0
  3 11  1  0
  4 12  1  0
  4 13  1  0
  4 14  1  0
  7 15  1  0
  7 16  1  0
  7 17  1  0
  8 18  1  0
  8 19  1  0
  9 20  1  0
  9 21  1  0
M  END
