
     RDKit          3D

 19 18  0  0  0  0  0  0  0  0999 V2000
    4.1375    0.1777   -1.1405 C   0  0  0  0  0  0  0  0  0  0  0  0
    3.1710   -0.0957   -0.4732 C   0  0  0  0  0  0  0  0  0  0  0  0
    2.0168   -0.4167    0.3524 C   0  0  0  0  0  0  0  0  0  0  0  0
    2.0822   -1.4354    1.0879 O   0  0  0  0  0  0  0  0  0  0  0  0
    0.8086    0.4477    0.3111 C   0  0  0  0  0  0  0  0  0  0  0  0
   -0.1994   -0.1220    1.2505 C   0  0  0  0  0  0  0  0  0  0  0  0
   -1.3749    0.5660    1.3257 O   0  0  0  0  0  0  0  0  0  0  0  0
   -2.0834    0.6839    0.1697 C   0  0  0  0  0  0  0  0  0  0  0  0
   -2.5094   -0.6044   -0.4581 C   0  0  0  0  0  0  0  0  0  0  0  0
    5.0013    0.4264   -1.7160 H   0  0  0  0  0  0  0  0  0  0  0  0
    0.4482    0.4973   -0.7284 H   0  0  0  0  0  0  0  0  0  0  0  0
    1.1188    1.4698    0.5958 H   0  0  0  0  0  0  0  0  0  0  0  0
    0.2631   -0.0906    2.2818 H   0  0  0  0  0  0  0  0  0  0  0  0
   -0.3117   -1.2051    1.0312 H   0  0  0  0  0  0  0  0  0  0  0  0
   -3.0186    1.2575    0.4048 H   0  0  0  0  0  0  0  0  0  0  0  0
   -1.5692    1.3046   -0.6126 H   0  0  0  0  0  0  0  0  0  0  0  0
   -3.5855   -0.8634   -0.2328 H   0  0  0  0  0  0  0  0  0  0  0  0
   -2.4769   -0.5223   -1.5818 H   0  0  0  0  0  0  0  0  0  0  0  0
   -1.9184   -1.4752   -0.1957 H   0  0  0  0  0  0  0  0  0  0  0  0
  1  2  3  0
  2  3  1  0
  3  4  2  0
  3  5  1  0
  5  6  1  0
  6  7  1  0
  7  8  1  0
  8  9  1  0
  1 10  1  0
  5 11  1  0
  5 12  1  0
  6 13  1  0
  6 14  1  0
  8 15  1  0
  8 16  1  0
  9 17  1  0
  9 18  1  0
  9 19  1  0
M  END
