
     RDKit          3D

 21 20  0  0  0  0  0  0  0  0999 V2000
   -1.0889    2.3419    0.3531 C   0  0  0  0  0  0  0  0  0  0  0  0
   -0.5881    1.2615    0.3859 C   0  0  0  0  0  0  0  0  0  0  0  0
    0.0303   -0.0418    0.4471 C   0  0  0  0  0  0  0  0  0  0  0  0
    1.5439    0.4123    0.8679 C   0  0  0  0  0  0  0  0  0  0  0  0
    0.1032   -0.7930   -0.7688 C   0  0  0  0  0  0  0  0  0  0  0  0
    0.8207   -0.3473   -1.9729 C   0  0  0  0  0  0  0  0  0  0  0  0
    0.3556    0.7944   -2.5920 O   0  0  0  0  0  0  0  0  0  0  0  0
   -0.2564   -0.7415    1.5874 O   0  0  0  0  0  0  0  0  0  0  0  0
   -1.5195   -1.0111    1.9301 C   0  0  0  0  0  0  0  0  0  0  0  0
   -1.5818    3.4174    0.3033 H   0  0  0  0  0  0  0  0  0  0  0  0
    1.4605    0.4485    1.9846 H   0  0  0  0  0  0  0  0  0  0  0  0
    2.1434   -0.4073    0.5703 H   0  0  0  0  0  0  0  0  0  0  0  0
    1.7221    1.4156    0.5574 H   0  0  0  0  0  0  0  0  0  0  0  0
    0.3908   -1.8735   -0.5293 H   0  0  0  0  0  0  0  0  0  0  0  0
   -0.9876   -0.9340   -1.1251 H   0  0  0  0  0  0  0  0  0  0  0  0
    0.6915   -1.1535   -2.7747 H   0  0  0  0  0  0  0  0  0  0  0  0
    1.9221   -0.2225   -1.9186 H   0  0  0  0  0  0  0  0  0  0  0  0
    0.5995    0.7858   -3.5696 H   0  0  0  0  0  0  0  0  0  0  0  0
   -2.0851   -1.6194    1.1745 H   0  0  0  0  0  0  0  0  0  0  0  0
   -2.1517   -0.1013    2.2254 H   0  0  0  0  0  0  0  0  0  0  0  0
   -1.5245   -1.6312    2.8640 H   0  0  0  0  0  0  0  0  0  0  0  0
  1  2  3  0
  2  3  1  0
  3  4  1  0
  3  5  1  0
  5  6  1  0
  6  7  1  0
  3  8  1  0
  8  9  1  0
  1 10  1  0
  4 11  1  0
  4 12  1  0
  4 13  1  0
  5 14  1  0
  5 15  1  0
  6 16  1  0
  6 17  1  0
  7 18  1  0
  9 19  1  0
  9 20  1  0
  9 21  1  0
M  END
