
     RDKit          3D

 17 18  0  0  0  0  0  0  0  0999 V2000
    2.3080   -0.5360    1.8000 C   0  0  0  0  0  0  0  0  0  0  0  0
    1.3731   -0.0825    1.2070 C   0  0  0  0  0  0  0  0  0  0  0  0
    0.3336    0.4262    0.5199 C   0  0  0  0  0  0  0  0  0  0  0  0
    0.3392    1.6677   -0.2861 C   0  0  0  0  0  0  0  0  0  0  0  0
   -1.0587    1.1048   -0.2846 C   0  0  0  0  0  0  0  0  0  0  0  0
   -0.8592    0.8504    1.0685 O   0  0  0  0  0  0  0  0  0  0  0  0
   -0.4418   -0.2338   -0.5402 C   0  0  0  0  0  0  0  0  0  0  0  0
   -1.2761   -1.4277   -0.1661 C   0  0  0  0  0  0  0  0  0  0  0  0
    0.1782   -0.2832   -1.7618 O   0  0  0  0  0  0  0  0  0  0  0  0
    3.1466   -0.9590    2.3409 H   0  0  0  0  0  0  0  0  0  0  0  0
    0.8725    1.5328   -1.2407 H   0  0  0  0  0  0  0  0  0  0  0  0
    0.4702    2.6194    0.2373 H   0  0  0  0  0  0  0  0  0  0  0  0
   -1.8722    1.5073   -0.7152 H   0  0  0  0  0  0  0  0  0  0  0  0
   -1.0297   -1.7858    0.8487 H   0  0  0  0  0  0  0  0  0  0  0  0
   -2.3731   -1.2471   -0.2957 H   0  0  0  0  0  0  0  0  0  0  0  0
   -1.0196   -2.2398   -0.8842 H   0  0  0  0  0  0  0  0  0  0  0  0
    0.9091   -0.9136   -1.8476 H   0  0  0  0  0  0  0  0  0  0  0  0
  1  2  3  0
  2  3  1  0
  3  4  1  0
  4  5  1  0
  5  6  1  0
  5  7  1  0
  7  8  1  0
  7  9  1  0
  6  3  1  0
  7  3  1  0
  1 10  1  0
  4 11  1  0
  4 12  1  0
  5 13  1  0
  8 14  1  0
  8 15  1  0
  8 16  1  0
  9 17  1  0
M  END
