
     RDKit          3D

 21 21  0  0  0  0  0  0  0  0999 V2000
    2.0207    2.0869    1.0688 C   0  0  0  0  0  0  0  0  0  0  0  0
    1.6848    1.0401    0.4846 C   0  0  0  0  0  0  0  0  0  0  0  0
    1.3495    0.0076   -0.0688 C   0  0  0  0  0  0  0  0  0  0  0  0
    2.0698   -0.0942   -1.4723 O   0  0  0  0  0  0  0  0  0  0  0  0
    0.7483   -1.2384    0.3650 C   0  0  0  0  0  0  0  0  0  0  0  0
   -0.1252   -0.2957   -0.4607 C   0  0  0  0  0  0  0  0  0  0  0  0
   -0.3865   -0.8078   -1.8685 C   0  0  0  0  0  0  0  0  0  0  0  0
   -1.2956    0.3283    0.1646 C   0  0  0  0  0  0  0  0  0  0  0  0
   -1.5494    0.0481    1.6069 C   0  0  0  0  0  0  0  0  0  0  0  0
    2.3774    3.1702    1.6619 H   0  0  0  0  0  0  0  0  0  0  0  0
    1.5390    0.6503   -1.9097 H   0  0  0  0  0  0  0  0  0  0  0  0
    1.0215   -2.1959   -0.0715 H   0  0  0  0  0  0  0  0  0  0  0  0
    0.4230   -1.2761    1.4396 H   0  0  0  0  0  0  0  0  0  0  0  0
   -1.0221   -1.7630   -1.7734 H   0  0  0  0  0  0  0  0  0  0  0  0
   -1.0560   -0.0523   -2.3759 H   0  0  0  0  0  0  0  0  0  0  0  0
    0.4990   -1.0534   -2.4516 H   0  0  0  0  0  0  0  0  0  0  0  0
   -1.1167    1.4747    0.1005 H   0  0  0  0  0  0  0  0  0  0  0  0
   -2.2347    0.1358   -0.4154 H   0  0  0  0  0  0  0  0  0  0  0  0
   -1.6392   -1.0627    1.7745 H   0  0  0  0  0  0  0  0  0  0  0  0
   -0.7666    0.3957    2.2977 H   0  0  0  0  0  0  0  0  0  0  0  0
   -2.5410    0.5018    1.9037 H   0  0  0  0  0  0  0  0  0  0  0  0
  1  2  3  0
  2  3  1  0
  3  4  1  0
  3  5  1  0
  5  6  1  0
  6  7  1  0
  6  8  1  0
  8  9  1  0
  6  3  1  0
  1 10  1  0
  4 11  1  0
  5 12  1  0
  5 13  1  0
  7 14  1  0
  7 15  1  0
  7 16  1  0
  8 17  1  0
  8 18  1  0
  9 19  1  0
  9 20  1  0
  9 21  1  0
M  END
