
     RDKit          3D

 20 19  0  0  0  0  0  0  0  0999 V2000
    2.3721    2.2413    0.0303 C   0  0  0  0  0  0  0  0  0  0  0  0
    1.9637    1.0969   -0.0065 C   0  0  0  0  0  0  0  0  0  0  0  0
    1.4606   -0.2609   -0.0682 C   0  0  0  0  0  0  0  0  0  0  0  0
    1.4802   -0.8499    1.1958 O   0  0  0  0  0  0  0  0  0  0  0  0
    0.0309   -0.2264   -0.5262 C   0  0  0  0  0  0  0  0  0  0  0  0
   -0.4403   -1.6813   -0.5706 C   0  0  0  0  0  0  0  0  0  0  0  0
   -0.8609    0.5227    0.4394 C   0  0  0  0  0  0  0  0  0  0  0  0
   -2.2911    0.5392   -0.0498 C   0  0  0  0  0  0  0  0  0  0  0  0
    2.7342    3.2450    0.0805 H   0  0  0  0  0  0  0  0  0  0  0  0
    2.0180   -0.8888   -0.8088 H   0  0  0  0  0  0  0  0  0  0  0  0
    2.4124   -1.2064    1.3121 H   0  0  0  0  0  0  0  0  0  0  0  0
   -0.1003    0.1976   -1.5416 H   0  0  0  0  0  0  0  0  0  0  0  0
   -1.3758   -1.8022   -1.1193 H   0  0  0  0  0  0  0  0  0  0  0  0
    0.4125   -2.2498   -1.0234 H   0  0  0  0  0  0  0  0  0  0  0  0
   -0.5127   -2.0025    0.4917 H   0  0  0  0  0  0  0  0  0  0  0  0
   -0.4646    1.5428    0.5699 H   0  0  0  0  0  0  0  0  0  0  0  0
   -0.8596   -0.0004    1.4331 H   0  0  0  0  0  0  0  0  0  0  0  0
   -2.3492    0.2162   -1.1085 H   0  0  0  0  0  0  0  0  0  0  0  0
   -2.9769   -0.0408    0.5806 H   0  0  0  0  0  0  0  0  0  0  0  0
   -2.6532    1.6077   -0.0327 H   0  0  0  0  0  0  0  0  0  0  0  0
  1  2  3  0
  2  3  1  0
  3  4  1  0
  3  5  1  0
  5  6  1  0
  5  7  1  0
  7  8  1  0
  1  9  1  0
  3 10  1  0
  4 11  1  0
  5 12  1  0
  6 13  1  0
  6 14  1  0
  6 15  1  0
  7 16  1  0
  7 17  1  0
  8 18  1  0
  8 19  1  0
  8 20  1  0
M  END
