
     RDKit          3D

 13 12  0  0  0  0  0  0  0  0999 V2000
   -3.6617    1.0900    0.9244 C   0  0  0  0  0  0  0  0  0  0  0  0
   -2.4441    1.0084    0.6942 C   0  0  0  0  0  0  0  0  0  0  0  0
   -1.0448    0.9335    0.4464 C   0  0  0  0  0  0  0  0  0  0  0  0
   -0.2951    1.8179    0.9168 O   0  0  0  0  0  0  0  0  0  0  0  0
   -0.5818   -0.2280   -0.3690 C   0  0  0  0  0  0  0  0  0  0  0  0
    0.8639   -0.2890   -0.3954 C   0  0  0  0  0  0  0  0  0  0  0  0
    2.0975   -0.3500   -0.4371 C   0  0  0  0  0  0  0  0  0  0  0  0
    3.5155   -0.4327   -0.5063 C   0  0  0  0  0  0  0  0  0  0  0  0
    4.1555   -1.5288   -0.6052 O   0  0  0  0  0  0  0  0  0  0  0  0
   -4.7216    1.1601    1.1061 H   0  0  0  0  0  0  0  0  0  0  0  0
   -1.0238   -0.2385   -1.4007 H   0  0  0  0  0  0  0  0  0  0  0  0
   -0.9771   -1.1634    0.1019 H   0  0  0  0  0  0  0  0  0  0  0  0
    4.1177    0.4712   -0.4761 H   0  0  0  0  0  0  0  0  0  0  0  0
  1  2  3  0
  2  3  1  0
  3  4  2  0
  3  5  1  0
  5  6  1  0
  6  7  3  0
  7  8  1  0
  8  9  2  0
  1 10  1  0
  5 11  1  0
  5 12  1  0
  8 13  1  0
M  END
