
     RDKit          3D

 19 20  0  0  0  0  0  0  0  0999 V2000
    3.8191    0.1491   -0.5110 C   0  0  0  0  0  0  0  0  0  0  0  0
    2.7219   -0.3171   -0.5504 C   0  0  0  0  0  0  0  0  0  0  0  0
    1.3883   -0.8641   -0.6150 C   0  0  0  0  0  0  0  0  0  0  0  0
    0.3314    0.0216   -1.1854 C   0  0  0  0  0  0  0  0  0  0  0  0
    0.5306    0.8362   -0.0917 O   0  0  0  0  0  0  0  0  0  0  0  0
    0.4916   -0.4118    0.5103 C   0  0  0  0  0  0  0  0  0  0  0  0
   -0.6458   -0.7571   -0.3629 C   0  0  0  0  0  0  0  0  0  0  0  0
   -1.9664   -0.1370   -0.0997 C   0  0  0  0  0  0  0  0  0  0  0  0
   -1.9130    1.1704    0.6325 C   0  0  0  0  0  0  0  0  0  0  0  0
    4.8056    0.5858   -0.4799 H   0  0  0  0  0  0  0  0  0  0  0  0
    1.2682   -1.8959   -0.9324 H   0  0  0  0  0  0  0  0  0  0  0  0
    0.2244    0.3019   -2.1495 H   0  0  0  0  0  0  0  0  0  0  0  0
    0.6329   -0.6123    1.4881 H   0  0  0  0  0  0  0  0  0  0  0  0
   -0.7083   -1.8101   -0.6273 H   0  0  0  0  0  0  0  0  0  0  0  0
   -2.5677   -0.8404    0.5121 H   0  0  0  0  0  0  0  0  0  0  0  0
   -2.4860    0.0401   -1.0642 H   0  0  0  0  0  0  0  0  0  0  0  0
   -1.4355    1.0943    1.6158 H   0  0  0  0  0  0  0  0  0  0  0  0
   -2.9851    1.4669    0.8269 H   0  0  0  0  0  0  0  0  0  0  0  0
   -1.5062    1.9798   -0.0055 H   0  0  0  0  0  0  0  0  0  0  0  0
  1  2  3  0
  2  3  1  0
  3  4  1  0
  4  5  1  0
  5  6  1  0
  6  7  1  0
  7  8  1  0
  8  9  1  0
  6  3  1  0
  7  4  1  0
  1 10  1  0
  3 11  1  0
  4 12  1  0
  6 13  1  0
  7 14  1  0
  8 15  1  0
  8 16  1  0
  9 17  1  0
  9 18  1  0
  9 19  1  0
M  END
