
     RDKit          3D

 20 19  0  0  0  0  0  0  0  0999 V2000
    2.9175   -0.7038   -0.8461 C   0  0  0  0  0  0  0  0  0  0  0  0
    2.0097   -0.6704   -0.0775 C   0  0  0  0  0  0  0  0  0  0  0  0
    0.8956   -0.6040    0.8650 C   0  0  0  0  0  0  0  0  0  0  0  0
   -0.3153   -0.0970    0.1200 C   0  0  0  0  0  0  0  0  0  0  0  0
   -1.4860   -0.0177    1.0718 C   0  0  0  0  0  0  0  0  0  0  0  0
   -0.7145   -1.0353   -1.0050 C   0  0  0  0  0  0  0  0  0  0  0  0
   -0.1049    1.2661   -0.4745 C   0  0  0  0  0  0  0  0  0  0  0  0
    0.1866    2.2210    0.5008 O   0  0  0  0  0  0  0  0  0  0  0  0
    3.7278   -0.7459   -1.5472 H   0  0  0  0  0  0  0  0  0  0  0  0
    0.6645   -1.6190    1.2419 H   0  0  0  0  0  0  0  0  0  0  0  0
    1.0827    0.0649    1.7115 H   0  0  0  0  0  0  0  0  0  0  0  0
   -2.4639   -0.0634    0.5418 H   0  0  0  0  0  0  0  0  0  0  0  0
   -1.4575    0.9136    1.6857 H   0  0  0  0  0  0  0  0  0  0  0  0
   -1.4876   -0.8593    1.8026 H   0  0  0  0  0  0  0  0  0  0  0  0
   -1.1658   -0.4574   -1.8375 H   0  0  0  0  0  0  0  0  0  0  0  0
   -1.5198   -1.7471   -0.6734 H   0  0  0  0  0  0  0  0  0  0  0  0
    0.1362   -1.6290   -1.3820 H   0  0  0  0  0  0  0  0  0  0  0  0
   -1.0593    1.5749   -0.9476 H   0  0  0  0  0  0  0  0  0  0  0  0
    0.6568    1.2640   -1.2899 H   0  0  0  0  0  0  0  0  0  0  0  0
   -0.5028    2.9449    0.5395 H   0  0  0  0  0  0  0  0  0  0  0  0
  1  2  3  0
  2  3  1  0
  3  4  1  0
  4  5  1  0
  4  6  1  0
  4  7  1  0
  7  8  1  0
  1  9  1  0
  3 10  1  0
  3 11  1  0
  5 12  1  0
  5 13  1  0
  5 14  1  0
  6 15  1  0
  6 16  1  0
  6 17  1  0
  7 18  1  0
  7 19  1  0
  8 20  1  0
M  END
