
     RDKit          3D

 23 23  0  0  0  0  0  0  0  0999 V2000
    1.9549    1.9555   -2.2545 C   0  0  0  0  0  0  0  0  0  0  0  0
    1.2691    1.5021   -1.4071 C   0  0  0  0  0  0  0  0  0  0  0  0
    0.4257    0.9657   -0.3509 C   0  0  0  0  0  0  0  0  0  0  0  0
   -0.9067    0.4656   -0.8630 C   0  0  0  0  0  0  0  0  0  0  0  0
   -1.4247   -0.2636    0.3619 C   0  0  0  0  0  0  0  0  0  0  0  0
   -2.5561   -1.1893    0.0613 C   0  0  0  0  0  0  0  0  0  0  0  0
   -0.1858   -0.9715    0.8548 C   0  0  0  0  0  0  0  0  0  0  0  0
    0.9993   -0.3008    0.2498 C   0  0  0  0  0  0  0  0  0  0  0  0
    2.0799    0.0200    1.2535 C   0  0  0  0  0  0  0  0  0  0  0  0
    2.5620    2.3684   -3.0339 H   0  0  0  0  0  0  0  0  0  0  0  0
    0.1999    1.7257    0.4255 H   0  0  0  0  0  0  0  0  0  0  0  0
   -1.5724    1.2625   -1.2061 H   0  0  0  0  0  0  0  0  0  0  0  0
   -0.6776   -0.2909   -1.6483 H   0  0  0  0  0  0  0  0  0  0  0  0
   -1.6849    0.5293    1.1070 H   0  0  0  0  0  0  0  0  0  0  0  0
   -3.4912   -0.7169    0.4614 H   0  0  0  0  0  0  0  0  0  0  0  0
   -2.6867   -1.4069   -1.0101 H   0  0  0  0  0  0  0  0  0  0  0  0
   -2.4218   -2.1197    0.6694 H   0  0  0  0  0  0  0  0  0  0  0  0
   -0.1153   -0.9130    1.9490 H   0  0  0  0  0  0  0  0  0  0  0  0
   -0.2574   -2.0351    0.5393 H   0  0  0  0  0  0  0  0  0  0  0  0
    1.4466   -0.8774   -0.5965 H   0  0  0  0  0  0  0  0  0  0  0  0
    2.8050   -0.8119    1.2773 H   0  0  0  0  0  0  0  0  0  0  0  0
    1.6447    0.1651    2.2666 H   0  0  0  0  0  0  0  0  0  0  0  0
    2.5935    0.9373    0.8937 H   0  0  0  0  0  0  0  0  0  0  0  0
  1  2  3  0
  2  3  1  0
  3  4  1  0
  4  5  1  0
  5  6  1  0
  5  7  1  0
  7  8  1  0
  8  9  1  0
  8  3  1  0
  1 10  1  0
  3 11  1  0
  4 12  1  0
  4 13  1  0
  5 14  1  0
  6 15  1  0
  6 16  1  0
  6 17  1  0
  7 18  1  0
  7 19  1  0
  8 20  1  0
  9 21  1  0
  9 22  1  0
  9 23  1  0
M  END
