
     RDKit          3D

 17 17  0  0  0  0  0  0  0  0999 V2000
    3.4443   -0.0128   -0.1316 C   0  0  0  0  0  0  0  0  0  0  0  0
    2.3164   -0.4114    0.2354 C   0  0  0  0  0  0  0  0  0  0  0  0
    1.3210   -0.7669    0.5453 C   0  0  0  0  0  0  0  0  0  0  0  0
    0.2424   -0.3258   -0.5435 C   0  0  0  0  0  0  0  0  0  0  0  0
    0.6513   -0.5189   -1.6854 O   0  0  0  0  0  0  0  0  0  0  0  0
   -1.0635    0.2214   -0.2822 C   0  0  0  0  0  0  0  0  0  0  0  0
   -1.1760    1.6123    0.2381 C   0  0  0  0  0  0  0  0  0  0  0  0
   -2.0353   -0.8399    0.2280 C   0  0  0  0  0  0  0  0  0  0  0  0
   -2.1562   -0.2523   -1.0327 O   0  0  0  0  0  0  0  0  0  0  0  0
    4.4992    0.3412   -0.4648 H   0  0  0  0  0  0  0  0  0  0  0  0
    0.7627   -0.5485    1.5566 H   0  0  0  0  0  0  0  0  0  0  0  0
    1.1346   -1.9597    0.5195 H   0  0  0  0  0  0  0  0  0  0  0  0
   -0.7062    2.2979   -0.5279 H   0  0  0  0  0  0  0  0  0  0  0  0
   -2.2292    1.9589    0.3819 H   0  0  0  0  0  0  0  0  0  0  0  0
   -0.5736    1.6705    1.1632 H   0  0  0  0  0  0  0  0  0  0  0  0
   -2.7191   -0.5685    1.0317 H   0  0  0  0  0  0  0  0  0  0  0  0
   -1.7126   -1.8976    0.1740 H   0  0  0  0  0  0  0  0  0  0  0  0
  1  2  3  0
  2  3  1  0
  3  4  1  0
  4  5  2  0
  4  6  1  0
  6  7  1  0
  6  8  1  0
  8  9  1  0
  9  6  1  0
  1 10  1  0
  3 11  1  0
  3 12  1  0
  7 13  1  0
  7 14  1  0
  7 15  1  0
  8 16  1  0
  8 17  1  0
M  END
