
     RDKit          3D

 21 22  0  0  0  0  0  0  0  0999 V2000
   -3.1474   -0.2783    0.8121 C   0  0  0  0  0  0  0  0  0  0  0  0
   -1.9902   -0.4759    0.5968 C   0  0  0  0  0  0  0  0  0  0  0  0
   -0.6951   -0.6738    0.3521 C   0  0  0  0  0  0  0  0  0  0  0  0
   -0.0461   -1.0259   -0.9221 C   0  0  0  0  0  0  0  0  0  0  0  0
    1.0774   -1.0172    0.0374 C   0  0  0  0  0  0  0  0  0  0  0  0
    0.1111   -1.8429    0.9240 C   0  0  0  0  0  0  0  0  0  0  0  0
    0.4569    0.1356    0.7367 C   0  0  0  0  0  0  0  0  0  0  0  0
    0.6942    1.5137    0.3107 C   0  0  0  0  0  0  0  0  0  0  0  0
    0.8461    1.8540   -1.1143 C   0  0  0  0  0  0  0  0  0  0  0  0
   -4.1945   -0.0806    1.0049 H   0  0  0  0  0  0  0  0  0  0  0  0
   -0.0840   -0.3729   -1.7788 H   0  0  0  0  0  0  0  0  0  0  0  0
   -0.2684   -2.1242   -1.1977 H   0  0  0  0  0  0  0  0  0  0  0  0
    2.0374   -1.2554   -0.0792 H   0  0  0  0  0  0  0  0  0  0  0  0
    0.2751   -1.7263    1.9919 H   0  0  0  0  0  0  0  0  0  0  0  0
   -0.0959   -2.8190    0.4968 H   0  0  0  0  0  0  0  0  0  0  0  0
    0.5962    0.0286    1.8896 H   0  0  0  0  0  0  0  0  0  0  0  0
    1.6698    1.8412    0.8102 H   0  0  0  0  0  0  0  0  0  0  0  0
   -0.0383    2.2452    0.7466 H   0  0  0  0  0  0  0  0  0  0  0  0
    1.2556    2.9323   -1.1193 H   0  0  0  0  0  0  0  0  0  0  0  0
    1.5879    1.2134   -1.6532 H   0  0  0  0  0  0  0  0  0  0  0  0
   -0.0477    1.9286   -1.7299 H   0  0  0  0  0  0  0  0  0  0  0  0
  1  2  3  0
  2  3  1  0
  3  4  1  0
  4  5  1  0
  5  6  1  0
  5  7  1  0
  7  8  1  0
  8  9  1  0
  6  3  1  0
  7  3  1  0
  1 10  1  0
  4 11  1  0
  4 12  1  0
  5 13  1  0
  6 14  1  0
  6 15  1  0
  7 16  1  0
  8 17  1  0
  8 18  1  0
  9 19  1  0
  9 20  1  0
  9 21  1  0
M  END
