
     RDKit          3D

 19 19  0  0  0  0  0  0  0  0999 V2000
    2.8794   -0.6759    1.0152 C   0  0  0  0  0  0  0  0  0  0  0  0
    1.9803   -0.5516    0.1304 C   0  0  0  0  0  0  0  0  0  0  0  0
    1.0057   -0.3931   -0.8465 C   0  0  0  0  0  0  0  0  0  0  0  0
   -0.0075    0.5683   -0.1631 C   0  0  0  0  0  0  0  0  0  0  0  0
   -1.0929    1.1687   -0.9709 C   0  0  0  0  0  0  0  0  0  0  0  0
   -0.5459    1.9797   -1.9887 O   0  0  0  0  0  0  0  0  0  0  0  0
   -0.6957   -0.1866    1.0037 C   0  0  0  0  0  0  0  0  0  0  0  0
   -1.5202   -1.3194    0.8704 C   0  0  0  0  0  0  0  0  0  0  0  0
   -0.0574   -1.5423    1.1281 O   0  0  0  0  0  0  0  0  0  0  0  0
    3.7624   -0.7856    1.8835 H   0  0  0  0  0  0  0  0  0  0  0  0
    0.4851   -1.4044   -0.9084 H   0  0  0  0  0  0  0  0  0  0  0  0
    1.2859   -0.0680   -1.7780 H   0  0  0  0  0  0  0  0  0  0  0  0
    0.5880    1.3620    0.3656 H   0  0  0  0  0  0  0  0  0  0  0  0
   -1.7464    1.8209   -0.3057 H   0  0  0  0  0  0  0  0  0  0  0  0
   -1.7376    0.4233   -1.5117 H   0  0  0  0  0  0  0  0  0  0  0  0
   -0.2485    2.8683   -1.6348 H   0  0  0  0  0  0  0  0  0  0  0  0
   -0.5319    0.3076    1.9785 H   0  0  0  0  0  0  0  0  0  0  0  0
   -2.0438   -1.6641    1.7619 H   0  0  0  0  0  0  0  0  0  0  0  0
   -1.7589   -1.9076   -0.0294 H   0  0  0  0  0  0  0  0  0  0  0  0
  1  2  3  0
  2  3  1  0
  3  4  1  0
  4  5  1  0
  5  6  1  0
  4  7  1  0
  7  8  1  0
  8  9  1  0
  9  7  1  0
  1 10  1  0
  3 11  1  0
  3 12  1  0
  4 13  1  0
  5 14  1  0
  5 15  1  0
  6 16  1  0
  7 17  1  0
  8 18  1  0
  8 19  1  0
M  END
