
     RDKit          3D

 19 20  0  0  0  0  0  0  0  0999 V2000
    3.3702   -0.1288    0.3282 C   0  0  0  0  0  0  0  0  0  0  0  0
    2.1727   -0.0597    0.2438 C   0  0  0  0  0  0  0  0  0  0  0  0
    0.7485    0.0476    0.1427 C   0  0  0  0  0  0  0  0  0  0  0  0
    0.1128    1.2980    0.5701 C   0  0  0  0  0  0  0  0  0  0  0  0
   -1.1679    1.4877    0.2556 C   0  0  0  0  0  0  0  0  0  0  0  0
   -1.9500    0.2856   -0.1259 C   0  0  0  0  0  0  0  0  0  0  0  0
   -1.0235   -0.8633   -0.4276 C   0  0  0  0  0  0  0  0  0  0  0  0
    0.1955   -0.3574   -1.2044 C   0  0  0  0  0  0  0  0  0  0  0  0
   -0.0496   -1.1187    0.7274 C   0  0  0  0  0  0  0  0  0  0  0  0
    4.4443   -0.1784    0.4129 H   0  0  0  0  0  0  0  0  0  0  0  0
    0.6935    2.0230    1.1219 H   0  0  0  0  0  0  0  0  0  0  0  0
   -1.6005    2.4827    0.2830 H   0  0  0  0  0  0  0  0  0  0  0  0
   -2.5475    0.4783   -1.0171 H   0  0  0  0  0  0  0  0  0  0  0  0
   -2.5977    0.0271    0.7388 H   0  0  0  0  0  0  0  0  0  0  0  0
   -1.4644   -1.7454   -0.8720 H   0  0  0  0  0  0  0  0  0  0  0  0
   -0.1212    0.4630   -1.8576 H   0  0  0  0  0  0  0  0  0  0  0  0
    0.7807   -1.1702   -1.6374 H   0  0  0  0  0  0  0  0  0  0  0  0
    0.4790   -2.0621    0.5968 H   0  0  0  0  0  0  0  0  0  0  0  0
   -0.4747   -0.9088    1.7209 H   0  0  0  0  0  0  0  0  0  0  0  0
  1  2  3  0
  2  3  1  0
  3  4  1  0
  4  5  2  0
  5  6  1  0
  6  7  1  0
  7  8  1  0
  7  9  1  0
  8  3  1  0
  9  3  1  0
  1 10  1  0
  4 11  1  0
  5 12  1  0
  6 13  1  0
  6 14  1  0
  7 15  1  0
  8 16  1  0
  8 17  1  0
  9 18  1  0
  9 19  1  0
M  END
