
     RDKit          3D

 21 20  0  0  0  0  0  0  0  0999 V2000
    1.0177   -0.7901    3.3874 C   0  0  0  0  0  0  0  0  0  0  0  0
    0.5367   -0.2667    2.3660 C   0  0  0  0  0  0  0  0  0  0  0  0
   -0.0126    0.3325    1.1539 C   0  0  0  0  0  0  0  0  0  0  0  0
    1.0581    0.7449    0.2741 C   0  0  0  0  0  0  0  0  0  0  0  0
    1.9279    1.0715   -0.4227 C   0  0  0  0  0  0  0  0  0  0  0  0
    3.0587    1.4699   -1.3287 C   0  0  0  0  0  0  0  0  0  0  0  0
   -0.9586   -0.6251    0.4666 C   0  0  0  0  0  0  0  0  0  0  0  0
   -1.5742   -0.0626   -0.7940 C   0  0  0  0  0  0  0  0  0  0  0  0
   -2.5239   -1.0957   -1.4095 C   0  0  0  0  0  0  0  0  0  0  0  0
    1.4170   -1.2484    4.2448 H   0  0  0  0  0  0  0  0  0  0  0  0
   -0.6369    1.1951    1.4963 H   0  0  0  0  0  0  0  0  0  0  0  0
    2.7292    2.2670   -2.0160 H   0  0  0  0  0  0  0  0  0  0  0  0
    3.8773    1.8879   -0.7083 H   0  0  0  0  0  0  0  0  0  0  0  0
    3.4362    0.6113   -1.8949 H   0  0  0  0  0  0  0  0  0  0  0  0
   -0.4014   -1.5826    0.2383 H   0  0  0  0  0  0  0  0  0  0  0  0
   -1.7429   -0.8969    1.1996 H   0  0  0  0  0  0  0  0  0  0  0  0
   -2.1294    0.8526   -0.5137 H   0  0  0  0  0  0  0  0  0  0  0  0
   -0.8033    0.1300   -1.5721 H   0  0  0  0  0  0  0  0  0  0  0  0
   -2.2549   -2.0991   -1.0310 H   0  0  0  0  0  0  0  0  0  0  0  0
   -3.5849   -0.8201   -1.1386 H   0  0  0  0  0  0  0  0  0  0  0  0
   -2.4356   -1.0753   -2.4937 H   0  0  0  0  0  0  0  0  0  0  0  0
  1  2  3  0
  2  3  1  0
  3  4  1  0
  4  5  3  0
  5  6  1  0
  3  7  1  0
  7  8  1  0
  8  9  1  0
  1 10  1  0
  3 11  1  0
  6 12  1  0
  6 13  1  0
  6 14  1  0
  7 15  1  0
  7 16  1  0
  8 17  1  0
  8 18  1  0
  9 19  1  0
  9 20  1  0
  9 21  1  0
M  END
