
     RDKit          3D

 19 19  0  0  0  0  0  0  0  0999 V2000
    2.0977   -0.1796    2.2500 C   0  0  0  0  0  0  0  0  0  0  0  0
    1.6569    0.0703    1.1446 C   0  0  0  0  0  0  0  0  0  0  0  0
    1.1034    0.3758   -0.1755 C   0  0  0  0  0  0  0  0  0  0  0  0
    1.5517   -0.6170   -1.0778 O   0  0  0  0  0  0  0  0  0  0  0  0
    0.5263   -1.4176   -0.5710 C   0  0  0  0  0  0  0  0  0  0  0  0
   -0.2745   -0.1589   -0.3917 C   0  0  0  0  0  0  0  0  0  0  0  0
   -0.8676    0.2422   -1.5551 O   0  0  0  0  0  0  0  0  0  0  0  0
   -1.1854   -0.1260    0.8083 C   0  0  0  0  0  0  0  0  0  0  0  0
   -1.2898    1.3536    1.1982 C   0  0  0  0  0  0  0  0  0  0  0  0
    2.4927   -0.3823    3.2141 H   0  0  0  0  0  0  0  0  0  0  0  0
    1.2835    1.4061   -0.5275 H   0  0  0  0  0  0  0  0  0  0  0  0
    0.7720   -1.9367    0.3798 H   0  0  0  0  0  0  0  0  0  0  0  0
    0.1584   -2.1196   -1.3325 H   0  0  0  0  0  0  0  0  0  0  0  0
   -1.1303   -0.5443   -2.1026 H   0  0  0  0  0  0  0  0  0  0  0  0
   -0.7707   -0.6506    1.6788 H   0  0  0  0  0  0  0  0  0  0  0  0
   -2.2068   -0.4730    0.5546 H   0  0  0  0  0  0  0  0  0  0  0  0
   -2.0030    1.8602    0.5124 H   0  0  0  0  0  0  0  0  0  0  0  0
   -0.2809    1.8195    1.0824 H   0  0  0  0  0  0  0  0  0  0  0  0
   -1.6337    1.4780    2.2287 H   0  0  0  0  0  0  0  0  0  0  0  0
  1  2  3  0
  2  3  1  0
  3  4  1  0
  4  5  1  0
  5  6  1  0
  6  7  1  0
  6  8  1  0
  8  9  1  0
  6  3  1  0
  1 10  1  0
  3 11  1  0
  5 12  1  0
  5 13  1  0
  7 14  1  0
  8 15  1  0
  8 16  1  0
  9 17  1  0
  9 18  1  0
  9 19  1  0
M  END
