
     RDKit          3D

 23 23  0  0  0  0  0  0  0  0999 V2000
    2.1046   -0.1384   -2.5073 C   0  0  0  0  0  0  0  0  0  0  0  0
    1.2014   -0.7505   -1.8338 C   0  0  0  0  0  0  0  0  0  0  0  0
    0.1634   -1.4352   -1.0901 C   0  0  0  0  0  0  0  0  0  0  0  0
   -0.6422   -0.4749   -0.2287 C   0  0  0  0  0  0  0  0  0  0  0  0
   -1.7537   -1.1624    0.5205 C   0  0  0  0  0  0  0  0  0  0  0  0
   -0.7903    0.9270   -0.6697 C   0  0  0  0  0  0  0  0  0  0  0  0
    0.0169    0.6133    0.5631 C   0  0  0  0  0  0  0  0  0  0  0  0
    1.4970    0.7719    0.5000 C   0  0  0  0  0  0  0  0  0  0  0  0
   -0.5474    0.9943    1.9371 C   0  0  0  0  0  0  0  0  0  0  0  0
    2.8582    0.3542   -3.0498 H   0  0  0  0  0  0  0  0  0  0  0  0
   -0.4936   -1.9580   -1.8449 H   0  0  0  0  0  0  0  0  0  0  0  0
    0.5953   -2.2822   -0.5024 H   0  0  0  0  0  0  0  0  0  0  0  0
   -1.9150   -2.1978    0.1101 H   0  0  0  0  0  0  0  0  0  0  0  0
   -2.6944   -0.5558    0.5067 H   0  0  0  0  0  0  0  0  0  0  0  0
   -1.5228   -1.3103    1.6169 H   0  0  0  0  0  0  0  0  0  0  0  0
   -1.6996    1.5193   -0.5395 H   0  0  0  0  0  0  0  0  0  0  0  0
   -0.2317    1.2119   -1.6041 H   0  0  0  0  0  0  0  0  0  0  0  0
    1.9207    1.1461    1.4939 H   0  0  0  0  0  0  0  0  0  0  0  0
    2.0373   -0.1789    0.2882 H   0  0  0  0  0  0  0  0  0  0  0  0
    1.7648    1.5205   -0.2480 H   0  0  0  0  0  0  0  0  0  0  0  0
   -1.6169    0.8904    2.0249 H   0  0  0  0  0  0  0  0  0  0  0  0
    0.0547    0.4341    2.7069 H   0  0  0  0  0  0  0  0  0  0  0  0
   -0.3065    2.0617    2.1065 H   0  0  0  0  0  0  0  0  0  0  0  0
  1  2  3  0
  2  3  1  0
  3  4  1  0
  4  5  1  0
  4  6  1  0
  6  7  1  0
  7  8  1  0
  7  9  1  0
  7  4  1  0
  1 10  1  0
  3 11  1  0
  3 12  1  0
  5 13  1  0
  5 14  1  0
  5 15  1  0
  6 16  1  0
  6 17  1  0
  8 18  1  0
  8 19  1  0
  8 20  1  0
  9 21  1  0
  9 22  1  0
  9 23  1  0
M  END
