
     RDKit          3D

 19 19  0  0  0  0  0  0  0  0999 V2000
    3.3290   -0.2313   -1.2343 C   0  0  0  0  0  0  0  0  0  0  0  0
    1.9183   -0.7485   -0.8181 C   0  0  0  0  0  0  0  0  0  0  0  0
    0.8049   -1.1791   -0.4906 C   0  0  0  0  0  0  0  0  0  0  0  0
   -0.0926    0.2807   -0.4555 C   0  0  0  0  0  0  0  0  0  0  0  0
   -1.5166    0.2709   -0.0323 C   0  0  0  0  0  0  0  0  0  0  0  0
   -1.7979   -0.3572    1.2845 C   0  0  0  0  0  0  0  0  0  0  0  0
   -1.0202    0.0683    2.3363 O   0  0  0  0  0  0  0  0  0  0  0  0
    0.6844    1.5099   -0.7023 C   0  0  0  0  0  0  0  0  0  0  0  0
   -0.0639    0.8906   -1.7878 O   0  0  0  0  0  0  0  0  0  0  0  0
    4.0486    0.0263   -1.4452 H   0  0  0  0  0  0  0  0  0  0  0  0
    0.8718   -1.2160    0.7772 H   0  0  0  0  0  0  0  0  0  0  0  0
    0.1068   -1.8888   -0.7216 H   0  0  0  0  0  0  0  0  0  0  0  0
   -2.1732   -0.2922   -0.7922 H   0  0  0  0  0  0  0  0  0  0  0  0
   -1.8801    1.2973    0.0032 H   0  0  0  0  0  0  0  0  0  0  0  0
   -2.8909   -0.0835    1.5328 H   0  0  0  0  0  0  0  0  0  0  0  0
   -1.8528   -1.5133    1.2541 H   0  0  0  0  0  0  0  0  0  0  0  0
   -0.5089   -0.8349    2.6225 H   0  0  0  0  0  0  0  0  0  0  0  0
    0.2789    2.5070   -0.4295 H   0  0  0  0  0  0  0  0  0  0  0  0
    1.7545    1.4938   -0.9012 H   0  0  0  0  0  0  0  0  0  0  0  0
  1  2  3  0
  2  3  1  0
  3  4  1  0
  4  5  1  0
  5  6  1  0
  6  7  1  0
  4  8  1  0
  8  9  1  0
  9  4  1  0
  1 10  1  0
  3 11  1  0
  3 12  1  0
  5 13  1  0
  5 14  1  0
  6 15  1  0
  6 16  1  0
  7 17  1  0
  8 18  1  0
  8 19  1  0
M  END
