
     RDKit          3D

 19 19  0  0  0  0  0  0  0  0999 V2000
    3.0556    0.6467   -0.5056 C   0  0  0  0  0  0  0  0  0  0  0  0
    2.0838   -0.1546   -0.4628 C   0  0  0  0  0  0  0  0  0  0  0  0
    0.9549   -1.0833   -0.4254 C   0  0  0  0  0  0  0  0  0  0  0  0
   -0.2468   -0.5392   -1.2370 C   0  0  0  0  0  0  0  0  0  0  0  0
   -1.0600   -0.6134   -0.0069 C   0  0  0  0  0  0  0  0  0  0  0  0
   -1.7338    0.6257    0.5217 C   0  0  0  0  0  0  0  0  0  0  0  0
   -0.8294    1.7331    0.8616 C   0  0  0  0  0  0  0  0  0  0  0  0
   -0.0148    2.0751    0.0176 O   0  0  0  0  0  0  0  0  0  0  0  0
    0.1444   -0.9794    0.8315 C   0  0  0  0  0  0  0  0  0  0  0  0
    3.8840    1.3226   -0.5599 H   0  0  0  0  0  0  0  0  0  0  0  0
    1.2169   -2.1199   -0.6434 H   0  0  0  0  0  0  0  0  0  0  0  0
    0.0051    0.4510   -1.6552 H   0  0  0  0  0  0  0  0  0  0  0  0
   -0.4760   -1.2848   -2.0629 H   0  0  0  0  0  0  0  0  0  0  0  0
   -1.7754   -1.4851   -0.0901 H   0  0  0  0  0  0  0  0  0  0  0  0
   -2.4910    0.9081   -0.2512 H   0  0  0  0  0  0  0  0  0  0  0  0
   -2.3662    0.3444    1.4083 H   0  0  0  0  0  0  0  0  0  0  0  0
   -0.8326    2.2589    1.7956 H   0  0  0  0  0  0  0  0  0  0  0  0
    0.0200   -1.9362    1.3648 H   0  0  0  0  0  0  0  0  0  0  0  0
    0.4614   -0.1698    1.5307 H   0  0  0  0  0  0  0  0  0  0  0  0
  1  2  3  0
  2  3  1  0
  3  4  1  0
  4  5  1  0
  5  6  1  0
  6  7  1  0
  7  8  2  0
  5  9  1  0
  9  3  1  0
  1 10  1  0
  3 11  1  0
  4 12  1  0
  4 13  1  0
  5 14  1  0
  6 15  1  0
  6 16  1  0
  7 17  1  0
  9 18  1  0
  9 19  1  0
M  END
