
     RDKit          3D

 18 18  0  0  0  0  0  0  0  0999 V2000
   -2.5693    1.3988   -0.3816 C   0  0  0  0  0  0  0  0  0  0  0  0
   -1.6904    0.5908   -0.1323 C   0  0  0  0  0  0  0  0  0  0  0  0
   -0.6580   -0.3887    0.1531 C   0  0  0  0  0  0  0  0  0  0  0  0
   -1.1852   -1.7165    0.6344 C   0  0  0  0  0  0  0  0  0  0  0  0
    0.3950   -0.5353   -0.9310 C   0  0  0  0  0  0  0  0  0  0  0  0
    0.8411    0.7370   -0.2241 C   0  0  0  0  0  0  0  0  0  0  0  0
    2.3310    0.9294   -0.2651 C   0  0  0  0  0  0  0  0  0  0  0  0
    0.3426    0.1760    0.9437 O   0  0  0  0  0  0  0  0  0  0  0  0
   -3.3398    2.0977   -0.5816 H   0  0  0  0  0  0  0  0  0  0  0  0
   -1.8575   -2.1121   -0.1373 H   0  0  0  0  0  0  0  0  0  0  0  0
   -1.7386   -1.6183    1.5715 H   0  0  0  0  0  0  0  0  0  0  0  0
   -0.2999   -2.4065    0.7119 H   0  0  0  0  0  0  0  0  0  0  0  0
    1.0384   -1.4071   -0.7550 H   0  0  0  0  0  0  0  0  0  0  0  0
    0.0460   -0.3818   -1.9583 H   0  0  0  0  0  0  0  0  0  0  0  0
    0.2685    1.6061   -0.5598 H   0  0  0  0  0  0  0  0  0  0  0  0
    2.5686    1.4144   -1.2392 H   0  0  0  0  0  0  0  0  0  0  0  0
    2.6333    1.6277    0.5349 H   0  0  0  0  0  0  0  0  0  0  0  0
    2.8740   -0.0116   -0.1772 H   0  0  0  0  0  0  0  0  0  0  0  0
  1  2  3  0
  2  3  1  0
  3  4  1  0
  3  5  1  0
  5  6  1  0
  6  7  1  0
  6  8  1  0
  8  3  1  0
  1  9  1  0
  4 10  1  0
  4 11  1  0
  4 12  1  0
  5 13  1  0
  5 14  1  0
  6 15  1  0
  7 16  1  0
  7 17  1  0
  7 18  1  0
M  END
