
     RDKit          3D

 17 17  0  0  0  0  0  0  0  0999 V2000
    3.2888    1.3134    0.0468 C   0  0  0  0  0  0  0  0  0  0  0  0
    2.1779    0.8352   -0.1040 C   0  0  0  0  0  0  0  0  0  0  0  0
    0.8818    0.2611   -0.2999 C   0  0  0  0  0  0  0  0  0  0  0  0
   -0.1480    0.8196    0.2689 C   0  0  0  0  0  0  0  0  0  0  0  0
   -1.4956    0.2478    0.0831 C   0  0  0  0  0  0  0  0  0  0  0  0
   -2.0993    0.2502    1.3549 O   0  0  0  0  0  0  0  0  0  0  0  0
   -1.4668   -1.1317   -0.5100 C   0  0  0  0  0  0  0  0  0  0  0  0
   -0.5793   -1.0640   -1.6072 O   0  0  0  0  0  0  0  0  0  0  0  0
    0.7158   -0.9403   -1.1288 C   0  0  0  0  0  0  0  0  0  0  0  0
    4.2432    1.7238    0.1944 H   0  0  0  0  0  0  0  0  0  0  0  0
   -0.0971    1.7065    0.8936 H   0  0  0  0  0  0  0  0  0  0  0  0
   -2.1030    0.8730   -0.6307 H   0  0  0  0  0  0  0  0  0  0  0  0
   -2.0174    1.1693    1.6857 H   0  0  0  0  0  0  0  0  0  0  0  0
   -2.4512   -1.4094   -0.9331 H   0  0  0  0  0  0  0  0  0  0  0  0
   -1.1730   -1.9167    0.1972 H   0  0  0  0  0  0  0  0  0  0  0  0
    1.3860   -0.8637   -2.0363 H   0  0  0  0  0  0  0  0  0  0  0  0
    0.9373   -1.8740   -0.5686 H   0  0  0  0  0  0  0  0  0  0  0  0
  1  2  3  0
  2  3  1  0
  3  4  2  0
  4  5  1  0
  5  6  1  0
  5  7  1  0
  7  8  1  0
  8  9  1  0
  9  3  1  0
  1 10  1  0
  4 11  1  0
  5 12  1  0
  6 13  1  0
  7 14  1  0
  7 15  1  0
  9 16  1  0
  9 17  1  0
M  END
