
     RDKit          3D

 19 19  0  0  0  0  0  0  0  0999 V2000
   -0.0773    2.6816   -1.0479 C   0  0  0  0  0  0  0  0  0  0  0  0
    0.3113    1.5227   -1.1069 C   0  0  0  0  0  0  0  0  0  0  0  0
    0.7459    0.2863   -1.1592 C   0  0  0  0  0  0  0  0  0  0  0  0
    1.7095   -0.2184    0.0266 C   0  0  0  0  0  0  0  0  0  0  0  0
    1.8138   -1.6185    0.1149 O   0  0  0  0  0  0  0  0  0  0  0  0
   -0.6962   -0.2826   -0.4187 C   0  0  0  0  0  0  0  0  0  0  0  0
   -1.4909   -1.3259   -0.0264 C   0  0  0  0  0  0  0  0  0  0  0  0
   -2.1644   -0.1851    0.8670 O   0  0  0  0  0  0  0  0  0  0  0  0
   -0.7472   -0.0159    1.2169 C   0  0  0  0  0  0  0  0  0  0  0  0
   -0.4790    3.8431   -0.9708 H   0  0  0  0  0  0  0  0  0  0  0  0
    0.9284   -0.2472   -1.9261 H   0  0  0  0  0  0  0  0  0  0  0  0
    1.7066    0.2384    1.0354 H   0  0  0  0  0  0  0  0  0  0  0  0
    2.6923    0.0776   -0.4505 H   0  0  0  0  0  0  0  0  0  0  0  0
    1.5715   -2.0274    0.9738 H   0  0  0  0  0  0  0  0  0  0  0  0
   -1.4070    0.6844   -0.6722 H   0  0  0  0  0  0  0  0  0  0  0  0
   -1.1738   -1.8598    0.9670 H   0  0  0  0  0  0  0  0  0  0  0  0
   -2.3426   -1.7005   -0.5448 H   0  0  0  0  0  0  0  0  0  0  0  0
   -0.5865    0.9701    1.4213 H   0  0  0  0  0  0  0  0  0  0  0  0
   -0.3143   -0.8228    1.7006 H   0  0  0  0  0  0  0  0  0  0  0  0
  1  2  3  0
  2  3  1  0
  3  4  1  0
  4  5  1  0
  3  6  1  0
  6  7  1  0
  7  8  1  0
  8  9  1  0
  9  6  1  0
  1 10  1  0
  3 11  1  0
  4 12  1  0
  4 13  1  0
  5 14  1  0
  6 15  1  0
  7 16  1  0
  7 17  1  0
  9 18  1  0
  9 19  1  0
M  END
