
     RDKit          3D

 21 21  0  0  0  0  0  0  0  0999 V2000
    1.5186    2.3795    1.0696 C   0  0  0  0  0  0  0  0  0  0  0  0
    0.6599    1.6234    0.5800 C   0  0  0  0  0  0  0  0  0  0  0  0
   -0.3219    0.7273    0.0018 C   0  0  0  0  0  0  0  0  0  0  0  0
   -0.5815    1.0732   -1.4534 C   0  0  0  0  0  0  0  0  0  0  0  0
   -1.5392    0.5762    0.8458 C   0  0  0  0  0  0  0  0  0  0  0  0
   -1.4046   -0.9439    0.7497 C   0  0  0  0  0  0  0  0  0  0  0  0
   -0.0198   -0.7460    0.2488 C   0  0  0  0  0  0  0  0  0  0  0  0
    0.4289   -1.4343   -0.8426 O   0  0  0  0  0  0  0  0  0  0  0  0
    1.6921   -1.9869   -0.6060 C   0  0  0  0  0  0  0  0  0  0  0  0
    2.2534    3.0081    1.4925 H   0  0  0  0  0  0  0  0  0  0  0  0
    0.1237    1.8689   -1.7813 H   0  0  0  0  0  0  0  0  0  0  0  0
   -1.6050    1.5150   -1.5294 H   0  0  0  0  0  0  0  0  0  0  0  0
   -0.5549    0.2148   -2.1236 H   0  0  0  0  0  0  0  0  0  0  0  0
   -1.4727    1.0004    1.8606 H   0  0  0  0  0  0  0  0  0  0  0  0
   -2.4590    0.9589    0.3233 H   0  0  0  0  0  0  0  0  0  0  0  0
   -2.0959   -1.3646   -0.0180 H   0  0  0  0  0  0  0  0  0  0  0  0
   -1.5337   -1.4617    1.7203 H   0  0  0  0  0  0  0  0  0  0  0  0
    0.7173   -0.7976    1.1018 H   0  0  0  0  0  0  0  0  0  0  0  0
    1.7010   -2.6879    0.2239 H   0  0  0  0  0  0  0  0  0  0  0  0
    2.1334   -2.4059   -1.5404 H   0  0  0  0  0  0  0  0  0  0  0  0
    2.3599   -1.1168   -0.3233 H   0  0  0  0  0  0  0  0  0  0  0  0
  1  2  3  0
  2  3  1  0
  3  4  1  0
  3  5  1  0
  5  6  1  0
  6  7  1  0
  7  8  1  0
  8  9  1  0
  7  3  1  0
  1 10  1  0
  4 11  1  0
  4 12  1  0
  4 13  1  0
  5 14  1  0
  5 15  1  0
  6 16  1  0
  6 17  1  0
  7 18  1  0
  9 19  1  0
  9 20  1  0
  9 21  1  0
M  END
