
     RDKit          3D

 13 12  0  0  0  0  0  0  0  0999 V2000
    3.6738    0.6840    2.9409 C   0  0  0  0  0  0  0  0  0  0  0  0
    3.1512    0.5058    2.4678 C   0  0  0  0  0  0  0  0  0  0  0  0
    2.0165    0.1462    1.4592 C   0  0  0  0  0  0  0  0  0  0  0  0
    1.1766   -0.1361    0.7256 C   0  0  0  0  0  0  0  0  0  0  0  0
    0.4424   -0.3794    0.1070 C   0  0  0  0  0  0  0  0  0  0  0  0
   -0.6477   -0.7320   -0.8289 C   0  0  0  0  0  0  0  0  0  0  0  0
   -1.9024   -1.1146   -1.8927 C   0  0  0  0  0  0  0  0  0  0  0  0
   -2.4819    0.2771   -1.8633 C   0  0  0  0  0  0  0  0  0  0  0  0
   -1.9447   -2.1517   -2.2430 O   0  0  0  0  0  0  0  0  0  0  0  0
    4.5271    0.9576    3.7256 H   0  0  0  0  0  0  0  0  0  0  0  0
   -3.0354    0.3436   -0.7794 H   0  0  0  0  0  0  0  0  0  0  0  0
   -1.7495    1.1378   -1.7547 H   0  0  0  0  0  0  0  0  0  0  0  0
   -3.2259    0.4618   -2.5846 H   0  0  0  0  0  0  0  0  0  0  0  0
  1  2  3  0
  2  3  1  0
  3  4  3  0
  4  5  1  0
  5  6  3  0
  6  7  1  0
  7  8  1  0
  7  9  2  0
  1 10  1  0
  8 11  1  0
  8 12  1  0
  8 13  1  0
M  END
