
     RDKit          3D

 17 17  0  0  0  0  0  0  0  0999 V2000
   -2.4598    0.2858    2.0476 C   0  0  0  0  0  0  0  0  0  0  0  0
   -1.3855   -0.1116    1.0741 C   0  0  0  0  0  0  0  0  0  0  0  0
   -0.4731   -0.4648    0.2611 C   0  0  0  0  0  0  0  0  0  0  0  0
   -0.7287   -1.7183   -0.5892 C   0  0  0  0  0  0  0  0  0  0  0  0
    0.4584    0.4803   -0.3591 C   0  0  0  0  0  0  0  0  0  0  0  0
    1.5466    1.1338    0.6586 C   0  0  0  0  0  0  0  0  0  0  0  0
    2.3151    1.5756    1.3617 C   0  0  0  0  0  0  0  0  0  0  0  0
    0.8264    0.6810   -1.7208 C   0  0  0  0  0  0  0  0  0  0  0  0
   -0.0771    1.5735   -1.0772 O   0  0  0  0  0  0  0  0  0  0  0  0
   -3.0315    0.4888    2.5610 H   0  0  0  0  0  0  0  0  0  0  0  0
    0.3524   -1.0408    1.0793 H   0  0  0  0  0  0  0  0  0  0  0  0
   -1.7823   -1.9818   -0.6717 H   0  0  0  0  0  0  0  0  0  0  0  0
   -0.1847   -2.6109   -0.2410 H   0  0  0  0  0  0  0  0  0  0  0  0
   -0.3701   -1.4864   -1.6486 H   0  0  0  0  0  0  0  0  0  0  0  0
    2.8703    1.8868    1.8513 H   0  0  0  0  0  0  0  0  0  0  0  0
    1.7524    1.1972   -2.0103 H   0  0  0  0  0  0  0  0  0  0  0  0
    0.3711    0.1117   -2.5768 H   0  0  0  0  0  0  0  0  0  0  0  0
  1  2  3  0
  2  3  1  0
  3  4  1  0
  3  5  1  0
  5  6  1  0
  6  7  3  0
  5  8  1  0
  8  9  1  0
  9  5  1  0
  1 10  1  0
  3 11  1  0
  4 12  1  0
  4 13  1  0
  4 14  1  0
  7 15  1  0
  8 16  1  0
  8 17  1  0
M  END
