
     RDKit          3D

 15 14  0  0  0  0  0  0  0  0999 V2000
    3.7927    1.1825   -1.9296 C   0  0  0  0  0  0  0  0  0  0  0  0
    2.8468    0.4722   -1.6082 C   0  0  0  0  0  0  0  0  0  0  0  0
    1.7426   -0.3489   -1.2592 C   0  0  0  0  0  0  0  0  0  0  0  0
    1.7211   -1.5397   -1.6250 O   0  0  0  0  0  0  0  0  0  0  0  0
    0.6444    0.1800   -0.4852 C   0  0  0  0  0  0  0  0  0  0  0  0
    0.6915    1.3887   -0.1278 O   0  0  0  0  0  0  0  0  0  0  0  0
   -0.4605   -0.5740   -0.1144 O   0  0  0  0  0  0  0  0  0  0  0  0
   -1.4683    0.0643    0.6443 C   0  0  0  0  0  0  0  0  0  0  0  0
   -2.6006   -0.8535    0.9782 C   0  0  0  0  0  0  0  0  0  0  0  0
    4.6142    1.7784   -2.2111 H   0  0  0  0  0  0  0  0  0  0  0  0
   -1.8169    0.9361    0.0266 H   0  0  0  0  0  0  0  0  0  0  0  0
   -0.9879    0.5089    1.5339 H   0  0  0  0  0  0  0  0  0  0  0  0
   -2.9875   -0.5528    1.9838 H   0  0  0  0  0  0  0  0  0  0  0  0
   -3.4353   -0.7314    0.2527 H   0  0  0  0  0  0  0  0  0  0  0  0
   -2.2964   -1.9110    1.0786 H   0  0  0  0  0  0  0  0  0  0  0  0
  1  2  3  0
  2  3  1  0
  3  4  2  0
  3  5  1  0
  5  6  2  0
  5  7  1  0
  7  8  1  0
  8  9  1  0
  1 10  1  0
  8 11  1  0
  8 12  1  0
  9 13  1  0
  9 14  1  0
  9 15  1  0
M  END
