
     RDKit          3D

 17 17  0  0  0  0  0  0  0  0999 V2000
   -0.7466    2.2945    1.1190 C   0  0  0  0  0  0  0  0  0  0  0  0
   -0.7973    1.1387    0.7186 C   0  0  0  0  0  0  0  0  0  0  0  0
   -0.8349   -0.2473    0.2477 C   0  0  0  0  0  0  0  0  0  0  0  0
   -2.0722   -0.6352   -0.2627 O   0  0  0  0  0  0  0  0  0  0  0  0
   -0.1742   -1.2293    1.1713 C   0  0  0  0  0  0  0  0  0  0  0  0
    1.0180   -1.3159    0.3079 C   0  0  0  0  0  0  0  0  0  0  0  0
    2.1050   -1.8299    0.4215 O   0  0  0  0  0  0  0  0  0  0  0  0
    0.2919   -0.5149   -0.7154 C   0  0  0  0  0  0  0  0  0  0  0  0
    1.0334    0.7252   -1.1801 C   0  0  0  0  0  0  0  0  0  0  0  0
   -0.7157    3.2993    1.4531 H   0  0  0  0  0  0  0  0  0  0  0  0
   -2.0861   -0.5818   -1.2608 H   0  0  0  0  0  0  0  0  0  0  0  0
   -0.7311   -2.2046    1.1864 H   0  0  0  0  0  0  0  0  0  0  0  0
   -0.0021   -0.8847    2.2111 H   0  0  0  0  0  0  0  0  0  0  0  0
   -0.0040   -1.1696   -1.5617 H   0  0  0  0  0  0  0  0  0  0  0  0
    1.2977    0.6735   -2.2561 H   0  0  0  0  0  0  0  0  0  0  0  0
    0.4366    1.6483   -0.9864 H   0  0  0  0  0  0  0  0  0  0  0  0
    1.9816    0.8335   -0.6135 H   0  0  0  0  0  0  0  0  0  0  0  0
  1  2  3  0
  2  3  1  0
  3  4  1  0
  3  5  1  0
  5  6  1  0
  6  7  2  0
  6  8  1  0
  8  9  1  0
  8  3  1  0
  1 10  1  0
  4 11  1  0
  5 12  1  0
  5 13  1  0
  8 14  1  0
  9 15  1  0
  9 16  1  0
  9 17  1  0
M  END
