
     RDKit          3D

 20 19  0  0  0  0  0  0  0  0999 V2000
   -3.6032    1.0479    1.1049 C   0  0  0  0  0  0  0  0  0  0  0  0
   -2.5989    0.4033    0.5615 C   0  0  0  0  0  0  0  0  0  0  0  0
   -1.5311   -0.2866    0.0039 C   0  0  0  0  0  0  0  0  0  0  0  0
   -1.3085   -1.5629    0.5897 O   0  0  0  0  0  0  0  0  0  0  0  0
   -0.2550    0.5527    0.1006 C   0  0  0  0  0  0  0  0  0  0  0  0
    0.9434   -0.0346   -0.5473 C   0  0  0  0  0  0  0  0  0  0  0  0
    2.1183    0.9507   -0.4553 C   0  0  0  0  0  0  0  0  0  0  0  0
    1.3939   -1.3205    0.1778 C   0  0  0  0  0  0  0  0  0  0  0  0
   -4.3962    1.5517    1.5191 H   0  0  0  0  0  0  0  0  0  0  0  0
   -1.7068   -0.4733   -1.0975 H   0  0  0  0  0  0  0  0  0  0  0  0
   -1.1806   -1.3611    1.5782 H   0  0  0  0  0  0  0  0  0  0  0  0
   -0.4246    1.6227   -0.0529 H   0  0  0  0  0  0  0  0  0  0  0  0
   -0.0362    0.5161    1.2608 H   0  0  0  0  0  0  0  0  0  0  0  0
    0.7732   -0.3302   -1.6163 H   0  0  0  0  0  0  0  0  0  0  0  0
    3.0841    0.4150   -0.3514 H   0  0  0  0  0  0  0  0  0  0  0  0
    1.9674    1.7055    0.2799 H   0  0  0  0  0  0  0  0  0  0  0  0
    2.1641    1.4434   -1.5079 H   0  0  0  0  0  0  0  0  0  0  0  0
    1.3976   -1.1744    1.2574 H   0  0  0  0  0  0  0  0  0  0  0  0
    2.4655   -1.5351   -0.1915 H   0  0  0  0  0  0  0  0  0  0  0  0
    0.7337   -2.1303   -0.1512 H   0  0  0  0  0  0  0  0  0  0  0  0
  1  2  3  0
  2  3  1  0
  3  4  1  0
  3  5  1  0
  5  6  1  0
  6  7  1  0
  6  8  1  0
  1  9  1  0
  3 10  1  0
  4 11  1  0
  5 12  1  0
  5 13  1  0
  6 14  1  0
  7 15  1  0
  7 16  1  0
  7 17  1  0
  8 18  1  0
  8 19  1  0
  8 20  1  0
M  END
