
     RDKit          3D

 19 20  0  0  0  0  0  0  0  0999 V2000
    1.5816    1.7823    1.6119 C   0  0  0  0  0  0  0  0  0  0  0  0
    0.7547    1.1191    1.0010 C   0  0  0  0  0  0  0  0  0  0  0  0
   -0.2418    0.3288    0.2753 C   0  0  0  0  0  0  0  0  0  0  0  0
   -0.8061    0.8770   -1.0048 C   0  0  0  0  0  0  0  0  0  0  0  0
   -0.0831    2.0047   -1.3968 O   0  0  0  0  0  0  0  0  0  0  0  0
   -0.3145   -0.3751   -1.7051 C   0  0  0  0  0  0  0  0  0  0  0  0
    0.2640   -0.9372   -0.4514 C   0  0  0  0  0  0  0  0  0  0  0  0
   -0.5756   -1.0258    0.7497 C   0  0  0  0  0  0  0  0  0  0  0  0
    0.0942   -1.4709    2.0220 C   0  0  0  0  0  0  0  0  0  0  0  0
    2.2957    2.3670    2.1287 H   0  0  0  0  0  0  0  0  0  0  0  0
   -1.9101    0.9963   -1.0218 H   0  0  0  0  0  0  0  0  0  0  0  0
   -0.7084    2.7548   -1.5840 H   0  0  0  0  0  0  0  0  0  0  0  0
   -1.1709   -0.9707   -2.0630 H   0  0  0  0  0  0  0  0  0  0  0  0
    0.4806   -0.1940   -2.4720 H   0  0  0  0  0  0  0  0  0  0  0  0
    1.3626   -1.1175   -0.3956 H   0  0  0  0  0  0  0  0  0  0  0  0
   -1.6302   -1.3828    0.6667 H   0  0  0  0  0  0  0  0  0  0  0  0
    1.1281   -1.1198    2.1153 H   0  0  0  0  0  0  0  0  0  0  0  0
   -0.5199   -1.0504    2.8671 H   0  0  0  0  0  0  0  0  0  0  0  0
   -0.0007   -2.5858    2.1342 H   0  0  0  0  0  0  0  0  0  0  0  0
  1  2  3  0
  2  3  1  0
  3  4  1  0
  4  5  1  0
  4  6  1  0
  6  7  1  0
  7  8  1  0
  8  9  1  0
  7  3  1  0
  8  3  1  0
  1 10  1  0
  4 11  1  0
  5 12  1  0
  6 13  1  0
  6 14  1  0
  7 15  1  0
  8 16  1  0
  9 17  1  0
  9 18  1  0
  9 19  1  0
M  END
