
     RDKit          3D

 16 15  0  0  0  0  0  0  0  0999 V2000
    3.1314    0.0451    0.2893 C   0  0  0  0  0  0  0  0  0  0  0  0
    2.0966    0.2859   -0.2801 C   0  0  0  0  0  0  0  0  0  0  0  0
    0.8642    0.5822   -0.9471 C   0  0  0  0  0  0  0  0  0  0  0  0
    0.8500    1.1605   -2.0617 O   0  0  0  0  0  0  0  0  0  0  0  0
   -0.4400    0.2139   -0.3400 C   0  0  0  0  0  0  0  0  0  0  0  0
   -1.3488    1.4190   -0.2063 C   0  0  0  0  0  0  0  0  0  0  0  0
   -0.2099   -0.4060    0.8721 O   0  0  0  0  0  0  0  0  0  0  0  0
   -0.7032   -1.7208    0.8503 C   0  0  0  0  0  0  0  0  0  0  0  0
    4.0611   -0.1680    0.7798 H   0  0  0  0  0  0  0  0  0  0  0  0
   -0.9618   -0.5038   -1.0185 H   0  0  0  0  0  0  0  0  0  0  0  0
   -2.4001    1.1275   -0.1106 H   0  0  0  0  0  0  0  0  0  0  0  0
   -1.0612    1.9442    0.7219 H   0  0  0  0  0  0  0  0  0  0  0  0
   -1.2366    2.1198   -1.0434 H   0  0  0  0  0  0  0  0  0  0  0  0
   -1.8085   -1.6095    0.6476 H   0  0  0  0  0  0  0  0  0  0  0  0
   -0.6219   -2.2190    1.8130 H   0  0  0  0  0  0  0  0  0  0  0  0
   -0.2112   -2.2711    0.0336 H   0  0  0  0  0  0  0  0  0  0  0  0
  1  2  3  0
  2  3  1  0
  3  4  2  0
  3  5  1  0
  5  6  1  0
  5  7  1  0
  7  8  1  0
  1  9  1  0
  5 10  1  0
  6 11  1  0
  6 12  1  0
  6 13  1  0
  8 14  1  0
  8 15  1  0
  8 16  1  0
M  END
