
     RDKit          3D

 18 18  0  0  0  0  0  0  0  0999 V2000
   -1.0735    1.4579    2.3595 C   0  0  0  0  0  0  0  0  0  0  0  0
    0.1492    1.0468    1.2915 C   0  0  0  0  0  0  0  0  0  0  0  0
    0.7128    0.8584    0.7843 C   0  0  0  0  0  0  0  0  0  0  0  0
    1.3808   -0.7339    0.6704 C   0  0  0  0  0  0  0  0  0  0  0  0
    0.0259   -1.1841    0.1985 C   0  0  0  0  0  0  0  0  0  0  0  0
    0.1156   -0.3176   -1.1170 C   0  0  0  0  0  0  0  0  0  0  0  0
   -1.2056   -0.2840   -1.7626 C   0  0  0  0  0  0  0  0  0  0  0  0
    0.6468    0.8739   -0.7425 O   0  0  0  0  0  0  0  0  0  0  0  0
   -1.7467    1.6858    2.9691 H   0  0  0  0  0  0  0  0  0  0  0  0
    1.9776    1.3105    0.6870 H   0  0  0  0  0  0  0  0  0  0  0  0
    1.9926   -0.6035   -0.2415 H   0  0  0  0  0  0  0  0  0  0  0  0
    1.7786   -0.8481    1.5959 H   0  0  0  0  0  0  0  0  0  0  0  0
   -0.8075   -0.7236    0.8040 H   0  0  0  0  0  0  0  0  0  0  0  0
   -0.1362   -2.2174   -0.0245 H   0  0  0  0  0  0  0  0  0  0  0  0
    0.8848   -0.8733   -1.7142 H   0  0  0  0  0  0  0  0  0  0  0  0
   -1.3243    0.6739   -2.3736 H   0  0  0  0  0  0  0  0  0  0  0  0
   -1.3691   -1.1029   -2.4240 H   0  0  0  0  0  0  0  0  0  0  0  0
   -2.0018   -0.2384   -0.9602 H   0  0  0  0  0  0  0  0  0  0  0  0
  1  2  3  0
  2  3  1  0
  3  4  1  0
  4  5  1  0
  5  6  1  0
  6  7  1  0
  6  8  1  0
  8  3  1  0
  1  9  1  0
  3 10  1  0
  4 11  1  0
  4 12  1  0
  5 13  1  0
  5 14  1  0
  6 15  1  0
  7 16  1  0
  7 17  1  0
  7 18  1  0
M  END
