
     RDKit          3D

 19 18  0  0  0  0  0  0  0  0999 V2000
   -3.1547   -0.1976   -0.8924 C   0  0  0  0  0  0  0  0  0  0  0  0
   -2.1134    0.1249   -0.5873 C   0  0  0  0  0  0  0  0  0  0  0  0
   -0.9687    0.4761   -0.2297 C   0  0  0  0  0  0  0  0  0  0  0  0
   -1.1718    0.3521    1.4681 C   0  0  0  0  0  0  0  0  0  0  0  0
    0.1530   -0.6402   -0.2985 C   0  0  0  0  0  0  0  0  0  0  0  0
    1.4708    0.1370   -0.2073 C   0  0  0  0  0  0  0  0  0  0  0  0
    1.6951    0.8184    1.0521 O   0  0  0  0  0  0  0  0  0  0  0  0
    2.2117    0.1309   -1.0061 C   0  0  0  0  0  0  0  0  0  0  0  0
    2.9065    0.1297   -1.7811 C   0  0  0  0  0  0  0  0  0  0  0  0
   -4.3808   -0.5940   -1.2354 H   0  0  0  0  0  0  0  0  0  0  0  0
   -0.4324    1.4062   -0.1618 H   0  0  0  0  0  0  0  0  0  0  0  0
   -0.4102    0.8640    1.9114 H   0  0  0  0  0  0  0  0  0  0  0  0
   -2.1341    0.8651    1.5244 H   0  0  0  0  0  0  0  0  0  0  0  0
   -1.3940   -0.7088    1.5131 H   0  0  0  0  0  0  0  0  0  0  0  0
   -0.0113   -1.3327   -1.0042 H   0  0  0  0  0  0  0  0  0  0  0  0
   -0.0322   -1.2470    0.7378 H   0  0  0  0  0  0  0  0  0  0  0  0
    2.0338   -1.0403    0.5005 H   0  0  0  0  0  0  0  0  0  0  0  0
    1.6340    0.3067    1.8413 H   0  0  0  0  0  0  0  0  0  0  0  0
    4.0986    0.1494   -3.1450 H   0  0  0  0  0  0  0  0  0  0  0  0
  1  2  3  0
  2  3  1  0
  3  4  1  0
  3  5  1  0
  5  6  1  0
  6  7  1  0
  6  8  1  0
  8  9  3  0
  1 10  1  0
  3 11  1  0
  4 12  1  0
  4 13  1  0
  4 14  1  0
  5 15  1  0
  5 16  1  0
  6 17  1  0
  7 18  1  0
  9 19  1  0
M  END
