
     RDKit          3D

 19 19  0  0  0  0  0  0  0  0999 V2000
    3.7861    0.7879    0.4086 C   0  0  0  0  0  0  0  0  0  0  0  0
    2.6785    0.3237    0.4177 C   0  0  0  0  0  0  0  0  0  0  0  0
    1.3342   -0.2231    0.4263 C   0  0  0  0  0  0  0  0  0  0  0  0
    0.2622    0.4158    0.8562 C   0  0  0  0  0  0  0  0  0  0  0  0
   -0.8568   -0.5501    0.6630 C   0  0  0  0  0  0  0  0  0  0  0  0
   -1.5516   -0.2445   -0.6192 C   0  0  0  0  0  0  0  0  0  0  0  0
   -2.0853    1.1697   -0.5354 C   0  0  0  0  0  0  0  0  0  0  0  0
   -0.2371   -1.7947    0.6934 O   0  0  0  0  0  0  0  0  0  0  0  0
    0.9245   -1.5475   -0.0304 C   0  0  0  0  0  0  0  0  0  0  0  0
    4.7665    1.2131    0.3884 H   0  0  0  0  0  0  0  0  0  0  0  0
    0.1847    1.4026    1.2571 H   0  0  0  0  0  0  0  0  0  0  0  0
   -1.5630   -0.4017    1.4889 H   0  0  0  0  0  0  0  0  0  0  0  0
   -0.9302   -0.3146   -1.5207 H   0  0  0  0  0  0  0  0  0  0  0  0
   -2.3894   -0.9743   -0.7334 H   0  0  0  0  0  0  0  0  0  0  0  0
   -2.0118    1.5709    0.5137 H   0  0  0  0  0  0  0  0  0  0  0  0
   -1.5110    1.8381   -1.1902 H   0  0  0  0  0  0  0  0  0  0  0  0
   -3.1707    1.1616   -0.7717 H   0  0  0  0  0  0  0  0  0  0  0  0
    1.6916   -2.3322    0.1223 H   0  0  0  0  0  0  0  0  0  0  0  0
    0.6785   -1.5008   -1.1269 H   0  0  0  0  0  0  0  0  0  0  0  0
  1  2  3  0
  2  3  1  0
  3  4  2  0
  4  5  1  0
  5  6  1  0
  6  7  1  0
  5  8  1  0
  8  9  1  0
  9  3  1  0
  1 10  1  0
  4 11  1  0
  5 12  1  0
  6 13  1  0
  6 14  1  0
  7 15  1  0
  7 16  1  0
  7 17  1  0
  9 18  1  0
  9 19  1  0
M  END
