
     RDKit          3D

 17 17  0  0  0  0  0  0  0  0999 V2000
   -1.5231    1.7180    1.6042 C   0  0  0  0  0  0  0  0  0  0  0  0
   -0.7769    1.0225    1.0191 C   0  0  0  0  0  0  0  0  0  0  0  0
    0.1211    0.1999    0.3449 C   0  0  0  0  0  0  0  0  0  0  0  0
    0.4318   -1.0734    0.8856 O   0  0  0  0  0  0  0  0  0  0  0  0
   -0.6549   -1.9466    1.0796 C   0  0  0  0  0  0  0  0  0  0  0  0
   -1.8274   -1.6867    0.8416 O   0  0  0  0  0  0  0  0  0  0  0  0
    1.3467    0.8618   -0.2778 C   0  0  0  0  0  0  0  0  0  0  0  0
    1.1258   -0.1076   -1.4519 C   0  0  0  0  0  0  0  0  0  0  0  0
   -0.3411   -0.0430   -1.1157 C   0  0  0  0  0  0  0  0  0  0  0  0
   -2.2553    2.3961    2.1997 H   0  0  0  0  0  0  0  0  0  0  0  0
   -0.4004   -2.9525    1.4825 H   0  0  0  0  0  0  0  0  0  0  0  0
    1.1439    1.8951   -0.5427 H   0  0  0  0  0  0  0  0  0  0  0  0
    2.3025    0.7095    0.2162 H   0  0  0  0  0  0  0  0  0  0  0  0
    1.4422    0.2557   -2.4211 H   0  0  0  0  0  0  0  0  0  0  0  0
    1.5754   -1.0825   -1.1518 H   0  0  0  0  0  0  0  0  0  0  0  0
   -0.8834    0.8489   -1.4488 H   0  0  0  0  0  0  0  0  0  0  0  0
   -0.8267   -1.0153   -1.2636 H   0  0  0  0  0  0  0  0  0  0  0  0
  1  2  3  0
  2  3  1  0
  3  4  1  0
  4  5  1  0
  5  6  2  0
  3  7  1  0
  7  8  1  0
  8  9  1  0
  9  3  1  0
  1 10  1  0
  5 11  1  0
  7 12  1  0
  7 13  1  0
  8 14  1  0
  8 15  1  0
  9 16  1  0
  9 17  1  0
M  END
