
     RDKit          3D

 21 22  0  0  0  0  0  0  0  0999 V2000
    0.6394    3.1270   -0.1318 C   0  0  0  0  0  0  0  0  0  0  0  0
    0.3340    1.9952    0.0325 C   0  0  0  0  0  0  0  0  0  0  0  0
   -0.0296    0.6109    0.2279 C   0  0  0  0  0  0  0  0  0  0  0  0
   -1.4227    0.3792    0.7563 C   0  0  0  0  0  0  0  0  0  0  0  0
   -1.8003   -1.0367    0.4044 C   0  0  0  0  0  0  0  0  0  0  0  0
   -1.1216   -1.2132   -0.9399 C   0  0  0  0  0  0  0  0  0  0  0  0
    0.1028   -0.3591   -0.8866 C   0  0  0  0  0  0  0  0  0  0  0  0
    0.9245   -0.4773    0.3731 C   0  0  0  0  0  0  0  0  0  0  0  0
    2.4006   -0.3331    0.1761 C   0  0  0  0  0  0  0  0  0  0  0  0
    0.9259    4.1284   -0.2743 H   0  0  0  0  0  0  0  0  0  0  0  0
   -1.5032    0.5858    1.8483 H   0  0  0  0  0  0  0  0  0  0  0  0
   -2.1054    1.0568    0.2263 H   0  0  0  0  0  0  0  0  0  0  0  0
   -1.4522   -1.7799    1.1490 H   0  0  0  0  0  0  0  0  0  0  0  0
   -2.8953   -1.1275    0.2520 H   0  0  0  0  0  0  0  0  0  0  0  0
   -1.7903   -0.8728   -1.7656 H   0  0  0  0  0  0  0  0  0  0  0  0
   -0.8578   -2.2770   -1.0872 H   0  0  0  0  0  0  0  0  0  0  0  0
    0.5814   -0.0148   -1.8208 H   0  0  0  0  0  0  0  0  0  0  0  0
    0.6535   -1.2965    1.0911 H   0  0  0  0  0  0  0  0  0  0  0  0
    2.6781    0.2186   -0.7409 H   0  0  0  0  0  0  0  0  0  0  0  0
    2.9298    0.0619    1.0826 H   0  0  0  0  0  0  0  0  0  0  0  0
    2.8084   -1.3758    0.0277 H   0  0  0  0  0  0  0  0  0  0  0  0
  1  2  3  0
  2  3  1  0
  3  4  1  0
  4  5  1  0
  5  6  1  0
  6  7  1  0
  7  8  1  0
  8  9  1  0
  7  3  1  0
  8  3  1  0
  1 10  1  0
  4 11  1  0
  4 12  1  0
  5 13  1  0
  5 14  1  0
  6 15  1  0
  6 16  1  0
  7 17  1  0
  8 18  1  0
  9 19  1  0
  9 20  1  0
  9 21  1  0
M  END
