
     RDKit          3D

 19 19  0  0  0  0  0  0  0  0999 V2000
   -0.5787    3.0571   -0.6808 C   0  0  0  0  0  0  0  0  0  0  0  0
   -0.2092    1.9297   -0.9105 C   0  0  0  0  0  0  0  0  0  0  0  0
    0.2313    0.5407   -1.1706 C   0  0  0  0  0  0  0  0  0  0  0  0
    1.5906    0.3549   -0.6062 C   0  0  0  0  0  0  0  0  0  0  0  0
    1.6804    0.5641    0.7596 O   0  0  0  0  0  0  0  0  0  0  0  0
   -0.7908   -0.4428   -0.7096 C   0  0  0  0  0  0  0  0  0  0  0  0
   -2.0383   -0.2790   -1.3569 O   0  0  0  0  0  0  0  0  0  0  0  0
   -0.8120   -1.0415    0.6229 C   0  0  0  0  0  0  0  0  0  0  0  0
   -0.3402   -1.8843   -0.5566 C   0  0  0  0  0  0  0  0  0  0  0  0
   -0.9056    4.0424   -0.4618 H   0  0  0  0  0  0  0  0  0  0  0  0
    0.3195    0.4164   -2.2794 H   0  0  0  0  0  0  0  0  0  0  0  0
    2.2564    1.1203   -1.0821 H   0  0  0  0  0  0  0  0  0  0  0  0
    2.0191   -0.6247   -0.9138 H   0  0  0  0  0  0  0  0  0  0  0  0
    2.4920    0.0459    1.0598 H   0  0  0  0  0  0  0  0  0  0  0  0
   -2.6956   -0.8747   -0.9187 H   0  0  0  0  0  0  0  0  0  0  0  0
   -0.0944   -0.8019    1.4249 H   0  0  0  0  0  0  0  0  0  0  0  0
   -1.8159   -1.3181    1.0394 H   0  0  0  0  0  0  0  0  0  0  0  0
   -1.0270   -2.6656   -0.9401 H   0  0  0  0  0  0  0  0  0  0  0  0
    0.7184   -2.1392   -0.5070 H   0  0  0  0  0  0  0  0  0  0  0  0
  1  2  3  0
  2  3  1  0
  3  4  1  0
  4  5  1  0
  3  6  1  0
  6  7  1  0
  6  8  1  0
  8  9  1  0
  9  6  1  0
  1 10  1  0
  3 11  1  0
  4 12  1  0
  4 13  1  0
  5 14  1  0
  7 15  1  0
  8 16  1  0
  8 17  1  0
  9 18  1  0
  9 19  1  0
M  END
