
     RDKit          3D

 19 18  0  0  0  0  0  0  0  0999 V2000
   -1.0726    1.0195   -2.1311 C   0  0  0  0  0  0  0  0  0  0  0  0
   -0.7577    0.3007   -1.2470 C   0  0  0  0  0  0  0  0  0  0  0  0
   -0.3713   -0.5478   -0.1646 C   0  0  0  0  0  0  0  0  0  0  0  0
   -1.7051   -1.1813    0.3801 C   0  0  0  0  0  0  0  0  0  0  0  0
    0.4938   -1.6332   -0.6833 C   0  0  0  0  0  0  0  0  0  0  0  0
    0.0816    0.2124    0.8791 O   0  0  0  0  0  0  0  0  0  0  0  0
    1.0677    1.1458    0.5858 C   0  0  0  0  0  0  0  0  0  0  0  0
    1.4526    1.8058    1.8120 C   0  0  0  0  0  0  0  0  0  0  0  0
    2.0137    2.9589    1.7604 O   0  0  0  0  0  0  0  0  0  0  0  0
   -1.3772    1.7190   -3.0208 H   0  0  0  0  0  0  0  0  0  0  0  0
   -2.3692   -0.2992    0.5483 H   0  0  0  0  0  0  0  0  0  0  0  0
   -2.0630   -1.9026   -0.3435 H   0  0  0  0  0  0  0  0  0  0  0  0
   -1.4287   -1.5947    1.3689 H   0  0  0  0  0  0  0  0  0  0  0  0
   -0.0633   -2.6253   -0.5350 H   0  0  0  0  0  0  0  0  0  0  0  0
    0.6577   -1.5923   -1.7937 H   0  0  0  0  0  0  0  0  0  0  0  0
    1.4791   -1.8136   -0.2076 H   0  0  0  0  0  0  0  0  0  0  0  0
    0.6459    1.8806   -0.1496 H   0  0  0  0  0  0  0  0  0  0  0  0
    1.9809    0.6747    0.1334 H   0  0  0  0  0  0  0  0  0  0  0  0
    1.3350    1.4725    2.8079 H   0  0  0  0  0  0  0  0  0  0  0  0
  1  2  3  0
  2  3  1  0
  3  4  1  0
  3  5  1  0
  3  6  1  0
  6  7  1  0
  7  8  1  0
  8  9  2  0
  1 10  1  0
  4 11  1  0
  4 12  1  0
  4 13  1  0
  5 14  1  0
  5 15  1  0
  5 16  1  0
  7 17  1  0
  7 18  1  0
  8 19  1  0
M  END
