
     RDKit          3D

 16 16  0  0  0  0  0  0  0  0999 V2000
   -1.7769    1.9889    1.8425 C   0  0  0  0  0  0  0  0  0  0  0  0
   -1.3190    1.2624    0.6512 C   0  0  0  0  0  0  0  0  0  0  0  0
   -0.9337    0.6810   -0.3217 C   0  0  0  0  0  0  0  0  0  0  0  0
    0.4711    0.2032   -0.1991 C   0  0  0  0  0  0  0  0  0  0  0  0
    1.8515   -0.2796   -0.0904 C   0  0  0  0  0  0  0  0  0  0  0  0
    3.1534   -0.7215    0.0324 C   0  0  0  0  0  0  0  0  0  0  0  0
   -1.5964   -0.8919   -0.2012 C   0  0  0  0  0  0  0  0  0  0  0  0
   -1.7592   -0.0122   -1.3521 C   0  0  0  0  0  0  0  0  0  0  0  0
   -2.0913    2.4995    2.7038 H   0  0  0  0  0  0  0  0  0  0  0  0
    3.7593   -0.9819   -0.9521 H   0  0  0  0  0  0  0  0  0  0  0  0
    3.4273   -1.4013    0.9018 H   0  0  0  0  0  0  0  0  0  0  0  0
    3.8451    0.2337    0.2854 H   0  0  0  0  0  0  0  0  0  0  0  0
   -1.9163   -0.9172    0.7667 H   0  0  0  0  0  0  0  0  0  0  0  0
   -0.8022   -1.7240   -0.3648 H   0  0  0  0  0  0  0  0  0  0  0  0
   -1.4804   -0.3729   -2.2733 H   0  0  0  0  0  0  0  0  0  0  0  0
   -2.8324    0.4336   -1.4291 H   0  0  0  0  0  0  0  0  0  0  0  0
  1  2  3  0
  2  3  1  0
  3  4  1  0
  4  5  3  0
  5  6  1  0
  3  7  1  0
  7  8  1  0
  8  3  1  0
  1  9  1  0
  6 10  1  0
  6 11  1  0
  6 12  1  0
  7 13  1  0
  7 14  1  0
  8 15  1  0
  8 16  1  0
M  END
