
     RDKit          3D

 19 19  0  0  0  0  0  0  0  0999 V2000
    3.0296   -0.9701    0.4505 C   0  0  0  0  0  0  0  0  0  0  0  0
    2.1984   -0.1601    0.0432 C   0  0  0  0  0  0  0  0  0  0  0  0
    1.2173    0.8145   -0.4654 C   0  0  0  0  0  0  0  0  0  0  0  0
    0.4882    0.1975   -1.6509 O   0  0  0  0  0  0  0  0  0  0  0  0
   -0.1772    0.6247   -0.4808 C   0  0  0  0  0  0  0  0  0  0  0  0
   -1.0015    1.8953   -0.8356 C   0  0  0  0  0  0  0  0  0  0  0  0
   -0.9998   -0.3360    0.2945 C   0  0  0  0  0  0  0  0  0  0  0  0
   -0.2774   -1.4024    1.0421 C   0  0  0  0  0  0  0  0  0  0  0  0
   -2.0657   -0.9032   -0.4524 O   0  0  0  0  0  0  0  0  0  0  0  0
    3.7532   -1.6973    0.7997 H   0  0  0  0  0  0  0  0  0  0  0  0
    1.6475    1.7931   -0.7328 H   0  0  0  0  0  0  0  0  0  0  0  0
   -1.8220    2.0616   -0.0855 H   0  0  0  0  0  0  0  0  0  0  0  0
   -0.3539    2.7645   -0.9492 H   0  0  0  0  0  0  0  0  0  0  0  0
   -1.5052    1.6826   -1.8252 H   0  0  0  0  0  0  0  0  0  0  0  0
   -1.5662    0.3025    1.0547 H   0  0  0  0  0  0  0  0  0  0  0  0
    0.4875   -0.8722    1.6819 H   0  0  0  0  0  0  0  0  0  0  0  0
   -0.9430   -1.9968    1.7091 H   0  0  0  0  0  0  0  0  0  0  0  0
    0.2840   -2.0825    0.3791 H   0  0  0  0  0  0  0  0  0  0  0  0
   -2.3937   -1.7157    0.0232 H   0  0  0  0  0  0  0  0  0  0  0  0
  1  2  3  0
  2  3  1  0
  3  4  1  0
  4  5  1  0
  5  6  1  0
  5  7  1  0
  7  8  1  0
  7  9  1  0
  5  3  1  0
  1 10  1  0
  3 11  1  0
  6 12  1  0
  6 13  1  0
  6 14  1  0
  7 15  1  0
  8 16  1  0
  8 17  1  0
  8 18  1  0
  9 19  1  0
M  END
