
     RDKit          3D

 15 18  0  0  0  0  0  0  0  0999 V2000
    1.4359   -0.0993   -2.5004 C   0  0  0  0  0  0  0  0  0  0  0  0
    0.7994   -0.0871   -1.5325 C   0  0  0  0  0  0  0  0  0  0  0  0
    0.0939   -0.0724   -0.4776 C   0  0  0  0  0  0  0  0  0  0  0  0
   -1.2426   -0.2440    0.2118 C   0  0  0  0  0  0  0  0  0  0  0  0
   -0.6630    0.2195    1.6471 C   0  0  0  0  0  0  0  0  0  0  0  0
    0.7951    0.5430    0.9226 C   0  0  0  0  0  0  0  0  0  0  0  0
    0.1474   -0.4186    1.0710 C   0  0  0  0  0  0  0  0  0  0  0  0
    0.2393   -1.6908    0.5913 O   0  0  0  0  0  0  0  0  0  0  0  0
   -0.6348    0.7646    0.1413 C   0  0  0  0  0  0  0  0  0  0  0  0
    2.1962   -0.1242   -3.6537 H   0  0  0  0  0  0  0  0  0  0  0  0
   -1.8957   -1.0703    0.1779 H   0  0  0  0  0  0  0  0  0  0  0  0
   -1.1479    1.1331    2.0281 H   0  0  0  0  0  0  0  0  0  0  0  0
    0.9993    1.6165    0.8128 H   0  0  0  0  0  0  0  0  0  0  0  0
   -0.5277   -2.2450    0.9960 H   0  0  0  0  0  0  0  0  0  0  0  0
   -0.5948    1.7749    0.4646 H   0  0  0  0  0  0  0  0  0  0  0  0
  1  2  3  0
  2  3  1  0
  3  4  1  0
  4  5  1  0
  5  6  1  0
  6  7  1  0
  7  8  1  0
  7  9  1  0
  6  3  1  0
  9  3  1  0
  9  4  1  0
  7  5  1  0
  1 10  1  0
  4 11  1  0
  5 12  1  0
  6 13  1  0
  8 14  1  0
  9 15  1  0
M  END
