
     RDKit          3D

 21 21  0  0  0  0  0  0  0  0999 V2000
   -3.1439    1.5778   -0.0386 C   0  0  0  0  0  0  0  0  0  0  0  0
   -2.3599    0.4846   -0.2554 C   0  0  0  0  0  0  0  0  0  0  0  0
   -1.5565   -0.5975   -0.4672 C   0  0  0  0  0  0  0  0  0  0  0  0
   -0.5294   -0.8422    0.5761 C   0  0  0  0  0  0  0  0  0  0  0  0
    0.5837   -0.2766   -0.2669 C   0  0  0  0  0  0  0  0  0  0  0  0
    1.6527   -1.3568   -0.3964 C   0  0  0  0  0  0  0  0  0  0  0  0
    1.0185    0.9695   -0.1543 O   0  0  0  0  0  0  0  0  0  0  0  0
    1.5395    1.5533    0.9072 C   0  0  0  0  0  0  0  0  0  0  0  0
   -0.4154   -0.3450   -1.4504 C   0  0  0  0  0  0  0  0  0  0  0  0
   -3.7406    2.4297    0.1140 H   0  0  0  0  0  0  0  0  0  0  0  0
   -2.0985   -1.5523   -0.7871 H   0  0  0  0  0  0  0  0  0  0  0  0
   -0.4009   -1.9391    0.8285 H   0  0  0  0  0  0  0  0  0  0  0  0
   -0.6835   -0.2681    1.5420 H   0  0  0  0  0  0  0  0  0  0  0  0
    2.6023   -0.9898   -0.8277 H   0  0  0  0  0  0  0  0  0  0  0  0
    1.7783   -1.8223    0.6313 H   0  0  0  0  0  0  0  0  0  0  0  0
    1.2392   -2.1370   -1.0495 H   0  0  0  0  0  0  0  0  0  0  0  0
    2.4602    1.1315    1.3849 H   0  0  0  0  0  0  0  0  0  0  0  0
    0.8328    1.8552    1.7263 H   0  0  0  0  0  0  0  0  0  0  0  0
    1.9310    2.5875    0.5574 H   0  0  0  0  0  0  0  0  0  0  0  0
   -0.1521   -1.1256   -2.1575 H   0  0  0  0  0  0  0  0  0  0  0  0
   -0.5574    0.6635   -1.9519 H   0  0  0  0  0  0  0  0  0  0  0  0
  1  2  3  0
  2  3  1  0
  3  4  1  0
  4  5  1  0
  5  6  1  0
  5  7  1  0
  7  8  1  0
  5  9  1  0
  9  3  1  0
  1 10  1  0
  3 11  1  0
  4 12  1  0
  4 13  1  0
  6 14  1  0
  6 15  1  0
  6 16  1  0
  8 17  1  0
  8 18  1  0
  8 19  1  0
  9 20  1  0
  9 21  1  0
M  END
