
     RDKit          3D

 17 17  0  0  0  0  0  0  0  0999 V2000
   -1.8758    2.1659   -1.2216 C   0  0  0  0  0  0  0  0  0  0  0  0
   -1.4296    1.0436   -1.1395 C   0  0  0  0  0  0  0  0  0  0  0  0
   -0.8769   -0.3106   -1.0294 C   0  0  0  0  0  0  0  0  0  0  0  0
   -1.2522   -0.9456    0.2744 C   0  0  0  0  0  0  0  0  0  0  0  0
   -0.1317   -0.6378    1.1754 C   0  0  0  0  0  0  0  0  0  0  0  0
    0.9038   -0.2799    0.4568 C   0  0  0  0  0  0  0  0  0  0  0  0
    2.2360    0.1084    1.0388 C   0  0  0  0  0  0  0  0  0  0  0  0
    0.5962   -0.3014   -0.9486 C   0  0  0  0  0  0  0  0  0  0  0  0
    1.4087   -0.3103   -1.8858 O   0  0  0  0  0  0  0  0  0  0  0  0
   -2.2697    3.1632   -1.2760 H   0  0  0  0  0  0  0  0  0  0  0  0
   -1.2588   -0.9135   -1.8785 H   0  0  0  0  0  0  0  0  0  0  0  0
   -2.2221   -0.5399    0.6319 H   0  0  0  0  0  0  0  0  0  0  0  0
   -1.3330   -2.0517    0.0722 H   0  0  0  0  0  0  0  0  0  0  0  0
   -0.2224   -0.7181    2.2686 H   0  0  0  0  0  0  0  0  0  0  0  0
    2.4545    1.1692    0.8022 H   0  0  0  0  0  0  0  0  0  0  0  0
    2.9853   -0.5372    0.5394 H   0  0  0  0  0  0  0  0  0  0  0  0
    2.2877   -0.1044    2.1199 H   0  0  0  0  0  0  0  0  0  0  0  0
  1  2  3  0
  2  3  1  0
  3  4  1  0
  4  5  1  0
  5  6  2  0
  6  7  1  0
  6  8  1  0
  8  9  2  0
  8  3  1  0
  1 10  1  0
  3 11  1  0
  4 12  1  0
  4 13  1  0
  5 14  1  0
  7 15  1  0
  7 16  1  0
  7 17  1  0
M  END
