
     RDKit          3D

 21 20  0  0  0  0  0  0  0  0999 V2000
   -2.5352   -0.3202    0.8799 C   0  0  0  0  0  0  0  0  0  0  0  0
   -1.4357    0.0764    0.5786 C   0  0  0  0  0  0  0  0  0  0  0  0
   -0.0757    0.5438    0.2216 C   0  0  0  0  0  0  0  0  0  0  0  0
   -0.0725    2.0291    0.4810 C   0  0  0  0  0  0  0  0  0  0  0  0
    0.8731   -0.0803    1.2172 C   0  0  0  0  0  0  0  0  0  0  0  0
    0.9070   -1.4448    1.2192 O   0  0  0  0  0  0  0  0  0  0  0  0
    1.2739   -2.0883    0.0790 C   0  0  0  0  0  0  0  0  0  0  0  0
    0.3094    0.1781   -1.0180 O   0  0  0  0  0  0  0  0  0  0  0  0
   -0.4451    0.6114   -2.0731 C   0  0  0  0  0  0  0  0  0  0  0  0
   -3.5017   -0.6865    1.1464 H   0  0  0  0  0  0  0  0  0  0  0  0
   -0.9179    2.5518   -0.0055 H   0  0  0  0  0  0  0  0  0  0  0  0
   -0.2092    2.1639    1.5784 H   0  0  0  0  0  0  0  0  0  0  0  0
    0.8977    2.5090    0.2285 H   0  0  0  0  0  0  0  0  0  0  0  0
    1.9274    0.2801    1.0389 H   0  0  0  0  0  0  0  0  0  0  0  0
    0.6436    0.2648    2.2576 H   0  0  0  0  0  0  0  0  0  0  0  0
    2.3049   -1.7425   -0.1988 H   0  0  0  0  0  0  0  0  0  0  0  0
    0.5761   -2.0656   -0.7670 H   0  0  0  0  0  0  0  0  0  0  0  0
    1.3955   -3.1833    0.3898 H   0  0  0  0  0  0  0  0  0  0  0  0
   -1.4808    0.2506   -1.9965 H   0  0  0  0  0  0  0  0  0  0  0  0
   -0.0159    0.1370   -3.0002 H   0  0  0  0  0  0  0  0  0  0  0  0
   -0.4190    1.6942   -2.2569 H   0  0  0  0  0  0  0  0  0  0  0  0
  1  2  3  0
  2  3  1  0
  3  4  1  0
  3  5  1  0
  5  6  1  0
  6  7  1  0
  3  8  1  0
  8  9  1  0
  1 10  1  0
  4 11  1  0
  4 12  1  0
  4 13  1  0
  5 14  1  0
  5 15  1  0
  7 16  1  0
  7 17  1  0
  7 18  1  0
  9 19  1  0
  9 20  1  0
  9 21  1  0
M  END
