
     RDKit          3D

 19 18  0  0  0  0  0  0  0  0999 V2000
    0.4873   -0.0132   -3.6814 C   0  0  0  0  0  0  0  0  0  0  0  0
    0.4971    0.3185   -2.5229 C   0  0  0  0  0  0  0  0  0  0  0  0
    0.5340    0.7195   -1.0969 C   0  0  0  0  0  0  0  0  0  0  0  0
    0.1042   -0.5091   -0.2910 C   0  0  0  0  0  0  0  0  0  0  0  0
    0.1323   -0.1289    1.1730 C   0  0  0  0  0  0  0  0  0  0  0  0
   -0.2727   -1.2599    2.0651 C   0  0  0  0  0  0  0  0  0  0  0  0
   -0.6788    1.1146    1.4437 C   0  0  0  0  0  0  0  0  0  0  0  0
    0.4927   -0.2933   -4.7033 H   0  0  0  0  0  0  0  0  0  0  0  0
   -0.1254    1.5692   -0.9251 H   0  0  0  0  0  0  0  0  0  0  0  0
    1.6005    0.9219   -0.8616 H   0  0  0  0  0  0  0  0  0  0  0  0
   -0.8724   -0.8620   -0.6369 H   0  0  0  0  0  0  0  0  0  0  0  0
    0.8376   -1.3216   -0.4653 H   0  0  0  0  0  0  0  0  0  0  0  0
    1.1955    0.1313    1.4067 H   0  0  0  0  0  0  0  0  0  0  0  0
    0.4033   -1.3320    2.9643 H   0  0  0  0  0  0  0  0  0  0  0  0
   -1.2963   -1.0536    2.4819 H   0  0  0  0  0  0  0  0  0  0  0  0
   -0.2767   -2.2459    1.5607 H   0  0  0  0  0  0  0  0  0  0  0  0
   -1.5830    1.1678    0.7723 H   0  0  0  0  0  0  0  0  0  0  0  0
   -1.0852    1.0339    2.4745 H   0  0  0  0  0  0  0  0  0  0  0  0
   -0.0940    2.0429    1.2793 H   0  0  0  0  0  0  0  0  0  0  0  0
  1  2  3  0
  2  3  1  0
  3  4  1  0
  4  5  1  0
  5  6  1  0
  5  7  1  0
  1  8  1  0
  3  9  1  0
  3 10  1  0
  4 11  1  0
  4 12  1  0
  5 13  1  0
  6 14  1  0
  6 15  1  0
  6 16  1  0
  7 17  1  0
  7 18  1  0
  7 19  1  0
M  END
