
     RDKit          3D

 19 20  0  0  0  0  0  0  0  0999 V2000
    2.9664    0.5733    0.9570 C   0  0  0  0  0  0  0  0  0  0  0  0
    1.9941    0.1680    0.5722 C   0  0  0  0  0  0  0  0  0  0  0  0
    0.7173   -0.3472    0.0903 C   0  0  0  0  0  0  0  0  0  0  0  0
    0.7055   -1.8884    0.2649 C   0  0  0  0  0  0  0  0  0  0  0  0
   -0.0771    0.3452   -0.8291 C   0  0  0  0  0  0  0  0  0  0  0  0
   -0.8516    1.5968   -0.9395 C   0  0  0  0  0  0  0  0  0  0  0  0
   -2.1340    1.1894   -0.4943 O   0  0  0  0  0  0  0  0  0  0  0  0
   -1.9129    0.0203    0.2690 C   0  0  0  0  0  0  0  0  0  0  0  0
   -0.4902    0.2024    0.6769 C   0  0  0  0  0  0  0  0  0  0  0  0
    4.1399    1.0502    1.4325 H   0  0  0  0  0  0  0  0  0  0  0  0
    0.8549   -2.3771   -0.7226 H   0  0  0  0  0  0  0  0  0  0  0  0
   -0.2731   -2.2484    0.6702 H   0  0  0  0  0  0  0  0  0  0  0  0
    1.4845   -2.2340    1.0149 H   0  0  0  0  0  0  0  0  0  0  0  0
   -0.5846   -0.3705   -1.5772 H   0  0  0  0  0  0  0  0  0  0  0  0
   -0.5200    2.4603   -0.2980 H   0  0  0  0  0  0  0  0  0  0  0  0
   -1.0147    1.9054   -2.0179 H   0  0  0  0  0  0  0  0  0  0  0  0
   -2.6311   -0.1500    1.0959 H   0  0  0  0  0  0  0  0  0  0  0  0
   -2.0145   -0.8941   -0.4436 H   0  0  0  0  0  0  0  0  0  0  0  0
   -0.3589    0.9983    1.3858 H   0  0  0  0  0  0  0  0  0  0  0  0
  1  2  3  0
  2  3  1  0
  3  4  1  0
  3  5  1  0
  5  6  1  0
  6  7  1  0
  7  8  1  0
  8  9  1  0
  9  3  1  0
  9  5  1  0
  1 10  1  0
  4 11  1  0
  4 12  1  0
  4 13  1  0
  5 14  1  0
  6 15  1  0
  6 16  1  0
  8 17  1  0
  8 18  1  0
  9 19  1  0
M  END
