
     RDKit          3D

 17 17  0  0  0  0  0  0  0  0999 V2000
    0.3274   -2.7699    0.3938 C   0  0  0  0  0  0  0  0  0  0  0  0
    0.3233   -1.5811    0.1810 C   0  0  0  0  0  0  0  0  0  0  0  0
    0.3048   -0.1862   -0.0898 C   0  0  0  0  0  0  0  0  0  0  0  0
    1.4075    0.2261   -0.9889 C   0  0  0  0  0  0  0  0  0  0  0  0
    2.2899    0.5565   -1.7252 C   0  0  0  0  0  0  0  0  0  0  0  0
    0.4290    0.6288    1.1656 C   0  0  0  0  0  0  0  0  0  0  0  0
   -0.9748    0.8778    1.5798 C   0  0  0  0  0  0  0  0  0  0  0  0
   -1.7607    0.6941    0.5578 C   0  0  0  0  0  0  0  0  0  0  0  0
   -1.0015    0.3013   -0.6601 C   0  0  0  0  0  0  0  0  0  0  0  0
    0.3208   -3.8672    0.5735 H   0  0  0  0  0  0  0  0  0  0  0  0
    3.0854    0.8689   -2.3767 H   0  0  0  0  0  0  0  0  0  0  0  0
    0.9380    0.0935    1.9712 H   0  0  0  0  0  0  0  0  0  0  0  0
    0.8672    1.6382    0.9732 H   0  0  0  0  0  0  0  0  0  0  0  0
   -1.2341    1.1665    2.5985 H   0  0  0  0  0  0  0  0  0  0  0  0
   -2.8486    0.8012    0.5409 H   0  0  0  0  0  0  0  0  0  0  0  0
   -0.9414    1.1217   -1.3624 H   0  0  0  0  0  0  0  0  0  0  0  0
   -1.5322   -0.5702   -1.1470 H   0  0  0  0  0  0  0  0  0  0  0  0
  1  2  3  0
  2  3  1  0
  3  4  1  0
  4  5  3  0
  3  6  1  0
  6  7  1  0
  7  8  2  0
  8  9  1  0
  9  3  1  0
  1 10  1  0
  5 11  1  0
  6 12  1  0
  6 13  1  0
  7 14  1  0
  8 15  1  0
  9 16  1  0
  9 17  1  0
M  END
