
     RDKit          3D

 17 19  0  0  0  0  0  0  0  0999 V2000
    2.7392   -0.4255   -0.0206 C   0  0  0  0  0  0  0  0  0  0  0  0
    1.5049   -0.0485    0.3212 C   0  0  0  0  0  0  0  0  0  0  0  0
    0.3489    0.3180    0.6382 C   0  0  0  0  0  0  0  0  0  0  0  0
    0.0719    1.7724    0.6182 C   0  0  0  0  0  0  0  0  0  0  0  0
   -0.4128    1.1198   -0.5582 C   0  0  0  0  0  0  0  0  0  0  0  0
   -0.0916   -0.3585   -0.9499 C   0  0  0  0  0  0  0  0  0  0  0  0
   -1.1136   -1.3390   -0.9510 C   0  0  0  0  0  0  0  0  0  0  0  0
   -2.1820   -1.0363   -1.8003 O   0  0  0  0  0  0  0  0  0  0  0  0
   -0.8425   -0.6409    0.2897 C   0  0  0  0  0  0  0  0  0  0  0  0
    4.0146   -0.7895   -0.3757 H   0  0  0  0  0  0  0  0  0  0  0  0
    0.9347    2.4211    0.6538 H   0  0  0  0  0  0  0  0  0  0  0  0
   -0.6587    2.1482    1.4333 H   0  0  0  0  0  0  0  0  0  0  0  0
   -1.5638    1.1725   -0.4461 H   0  0  0  0  0  0  0  0  0  0  0  0
    0.8729   -0.5622   -1.3223 H   0  0  0  0  0  0  0  0  0  0  0  0
   -0.7455   -2.4109   -1.1767 H   0  0  0  0  0  0  0  0  0  0  0  0
   -1.8032   -0.1335   -2.2501 H   0  0  0  0  0  0  0  0  0  0  0  0
   -1.0736   -1.2074    1.0775 H   0  0  0  0  0  0  0  0  0  0  0  0
  1  2  3  0
  2  3  1  0
  3  4  1  0
  4  5  1  0
  5  6  1  0
  6  7  1  0
  7  8  1  0
  7  9  1  0
  5  3  1  0
  9  6  1  0
  9  3  1  0
  1 10  1  0
  4 11  1  0
  4 12  1  0
  5 13  1  0
  6 14  1  0
  7 15  1  0
  8 16  1  0
  9 17  1  0
M  END
