
     RDKit          3D

 17 17  0  0  0  0  0  0  0  0999 V2000
   -1.9188    1.6962   -1.0064 C   0  0  0  0  0  0  0  0  0  0  0  0
   -1.2257    0.7807   -0.6364 C   0  0  0  0  0  0  0  0  0  0  0  0
   -0.3863   -0.3368   -0.1595 C   0  0  0  0  0  0  0  0  0  0  0  0
   -0.6931   -1.5420   -1.0205 C   0  0  0  0  0  0  0  0  0  0  0  0
    1.0771    0.0157   -0.2832 C   0  0  0  0  0  0  0  0  0  0  0  0
    1.4193    0.5972    1.0774 C   0  0  0  0  0  0  0  0  0  0  0  0
    0.3274    0.1509    1.9382 C   0  0  0  0  0  0  0  0  0  0  0  0
    0.2453    0.3888    3.1683 O   0  0  0  0  0  0  0  0  0  0  0  0
   -0.6038   -0.5715    1.2055 O   0  0  0  0  0  0  0  0  0  0  0  0
   -2.5483    2.5069   -1.3232 H   0  0  0  0  0  0  0  0  0  0  0  0
   -0.6866   -2.4585   -0.4025 H   0  0  0  0  0  0  0  0  0  0  0  0
    0.0093   -1.6154   -1.8721 H   0  0  0  0  0  0  0  0  0  0  0  0
   -1.7302   -1.4842   -1.4518 H   0  0  0  0  0  0  0  0  0  0  0  0
    1.1297    0.8096   -1.0827 H   0  0  0  0  0  0  0  0  0  0  0  0
    1.6898   -0.8572   -0.5315 H   0  0  0  0  0  0  0  0  0  0  0  0
    2.4151    0.2166    1.3523 H   0  0  0  0  0  0  0  0  0  0  0  0
    1.4800    1.7030    1.0279 H   0  0  0  0  0  0  0  0  0  0  0  0
  1  2  3  0
  2  3  1  0
  3  4  1  0
  3  5  1  0
  5  6  1  0
  6  7  1  0
  7  8  2  0
  7  9  1  0
  9  3  1  0
  1 10  1  0
  4 11  1  0
  4 12  1  0
  4 13  1  0
  5 14  1  0
  5 15  1  0
  6 16  1  0
  6 17  1  0
M  END
