
     RDKit          3D

 16 16  0  0  0  0  0  0  0  0999 V2000
    2.8308   -0.0294   -0.2975 C   0  0  0  0  0  0  0  0  0  0  0  0
    1.6315    0.0635   -0.1892 C   0  0  0  0  0  0  0  0  0  0  0  0
    0.1608    0.1730   -0.0604 C   0  0  0  0  0  0  0  0  0  0  0  0
   -0.2671    1.4461    0.6198 C   0  0  0  0  0  0  0  0  0  0  0  0
   -1.6232    1.5795    0.7554 O   0  0  0  0  0  0  0  0  0  0  0  0
   -0.6723   -0.3905   -1.1872 C   0  0  0  0  0  0  0  0  0  0  0  0
   -0.6283   -1.0565    0.1371 C   0  0  0  0  0  0  0  0  0  0  0  0
    0.0990   -2.2365    0.2739 O   0  0  0  0  0  0  0  0  0  0  0  0
    3.8871   -0.1229   -0.3968 H   0  0  0  0  0  0  0  0  0  0  0  0
    0.1884    2.2850    0.0510 H   0  0  0  0  0  0  0  0  0  0  0  0
    0.1895    1.4543    1.6328 H   0  0  0  0  0  0  0  0  0  0  0  0
   -2.1426    1.5245   -0.0601 H   0  0  0  0  0  0  0  0  0  0  0  0
   -0.0762   -0.9090   -1.9825 H   0  0  0  0  0  0  0  0  0  0  0  0
   -1.4979    0.2424   -1.5096 H   0  0  0  0  0  0  0  0  0  0  0  0
   -1.5869   -1.0049    0.7136 H   0  0  0  0  0  0  0  0  0  0  0  0
   -0.4928   -3.0188    0.3835 H   0  0  0  0  0  0  0  0  0  0  0  0
  1  2  3  0
  2  3  1  0
  3  4  1  0
  4  5  1  0
  3  6  1  0
  6  7  1  0
  7  8  1  0
  7  3  1  0
  1  9  1  0
  4 10  1  0
  4 11  1  0
  5 12  1  0
  6 13  1  0
  6 14  1  0
  7 15  1  0
  8 16  1  0
M  END
