
     RDKit          3D

 15 15  0  0  0  0  0  0  0  0999 V2000
    2.6749   -1.1724    0.6093 C   0  0  0  0  0  0  0  0  0  0  0  0
    1.6532   -0.6338    0.2565 C   0  0  0  0  0  0  0  0  0  0  0  0
    0.4039    0.0450   -0.1782 C   0  0  0  0  0  0  0  0  0  0  0  0
   -0.7551   -0.1859    0.7315 C   0  0  0  0  0  0  0  0  0  0  0  0
   -0.5823    0.6694    1.8469 O   0  0  0  0  0  0  0  0  0  0  0  0
   -2.0373    0.1254    0.0771 C   0  0  0  0  0  0  0  0  0  0  0  0
   -2.4914   -0.4554   -0.8917 O   0  0  0  0  0  0  0  0  0  0  0  0
    0.2041    0.3118   -1.5633 C   0  0  0  0  0  0  0  0  0  0  0  0
    0.6234    1.3097   -0.6949 O   0  0  0  0  0  0  0  0  0  0  0  0
    3.5717   -1.6391    0.9366 H   0  0  0  0  0  0  0  0  0  0  0  0
   -0.7794   -1.2233    1.1422 H   0  0  0  0  0  0  0  0  0  0  0  0
   -0.0119    1.4467    1.6156 H   0  0  0  0  0  0  0  0  0  0  0  0
   -2.6731    0.9439    0.4609 H   0  0  0  0  0  0  0  0  0  0  0  0
   -0.7509    0.5443   -2.0355 H   0  0  0  0  0  0  0  0  0  0  0  0
    0.9502   -0.0861   -2.3132 H   0  0  0  0  0  0  0  0  0  0  0  0
  1  2  3  0
  2  3  1  0
  3  4  1  0
  4  5  1  0
  4  6  1  0
  6  7  2  0
  3  8  1  0
  8  9  1  0
  9  3  1  0
  1 10  1  0
  4 11  1  0
  5 12  1  0
  6 13  1  0
  8 14  1  0
  8 15  1  0
M  END
