
     RDKit          3D

 19 20  0  0  0  0  0  0  0  0999 V2000
    2.8317    0.2381   -2.5785 C   0  0  0  0  0  0  0  0  0  0  0  0
    2.2054   -0.4143   -1.8215 C   0  0  0  0  0  0  0  0  0  0  0  0
    1.4469   -1.2365   -0.9008 C   0  0  0  0  0  0  0  0  0  0  0  0
   -0.0327   -0.7867   -0.9091 C   0  0  0  0  0  0  0  0  0  0  0  0
   -0.2969    0.5605   -0.5495 C   0  0  0  0  0  0  0  0  0  0  0  0
   -0.4575    1.1692    0.8407 C   0  0  0  0  0  0  0  0  0  0  0  0
   -1.7714    0.3661    0.7378 C   0  0  0  0  0  0  0  0  0  0  0  0
   -2.3390    0.0869    1.9699 O   0  0  0  0  0  0  0  0  0  0  0  0
   -0.7478   -0.6875    0.3135 C   0  0  0  0  0  0  0  0  0  0  0  0
    3.4090    0.8649   -3.3034 H   0  0  0  0  0  0  0  0  0  0  0  0
    1.8177   -1.1594    0.1636 H   0  0  0  0  0  0  0  0  0  0  0  0
    1.5684   -2.2869   -1.1687 H   0  0  0  0  0  0  0  0  0  0  0  0
   -0.5448   -1.3078   -1.7617 H   0  0  0  0  0  0  0  0  0  0  0  0
   -1.1331    1.0165   -1.1770 H   0  0  0  0  0  0  0  0  0  0  0  0
    0.2310    0.7914    1.5926 H   0  0  0  0  0  0  0  0  0  0  0  0
   -0.6025    2.2644    0.7896 H   0  0  0  0  0  0  0  0  0  0  0  0
   -2.4140    0.7332   -0.0574 H   0  0  0  0  0  0  0  0  0  0  0  0
   -3.0623    0.6789    2.2262 H   0  0  0  0  0  0  0  0  0  0  0  0
   -0.1083   -0.8910    1.2156 H   0  0  0  0  0  0  0  0  0  0  0  0
  1  2  3  0
  2  3  1  0
  3  4  1  0
  4  5  1  0
  5  6  1  0
  6  7  1  0
  7  8  1  0
  7  9  1  0
  9  4  1  0
  9  5  1  0
  1 10  1  0
  3 11  1  0
  3 12  1  0
  4 13  1  0
  5 14  1  0
  6 15  1  0
  6 16  1  0
  7 17  1  0
  8 18  1  0
  9 19  1  0
M  END
