
     RDKit          3D

 21 20  0  0  0  0  0  0  0  0999 V2000
    3.2442    1.0734    0.9467 C   0  0  0  0  0  0  0  0  0  0  0  0
    2.6272    0.1169    0.5319 C   0  0  0  0  0  0  0  0  0  0  0  0
    1.8910   -1.0583    0.0307 C   0  0  0  0  0  0  0  0  0  0  0  0
    0.5935   -0.6084   -0.5980 C   0  0  0  0  0  0  0  0  0  0  0  0
   -0.1752   -1.7446   -1.1121 C   0  0  0  0  0  0  0  0  0  0  0  0
   -0.9253   -2.4304   -0.4094 O   0  0  0  0  0  0  0  0  0  0  0  0
   -0.2713    0.1593    0.3856 C   0  0  0  0  0  0  0  0  0  0  0  0
   -1.5339    0.5560   -0.3503 C   0  0  0  0  0  0  0  0  0  0  0  0
   -2.4777    1.3336    0.5412 C   0  0  0  0  0  0  0  0  0  0  0  0
    3.7729    1.9153    1.3214 H   0  0  0  0  0  0  0  0  0  0  0  0
    2.5048   -1.5014   -0.7808 H   0  0  0  0  0  0  0  0  0  0  0  0
    1.7484   -1.7986    0.8302 H   0  0  0  0  0  0  0  0  0  0  0  0
    0.8518    0.0765   -1.4317 H   0  0  0  0  0  0  0  0  0  0  0  0
   -0.0926   -2.0105   -2.1618 H   0  0  0  0  0  0  0  0  0  0  0  0
    0.2261    1.0411    0.8003 H   0  0  0  0  0  0  0  0  0  0  0  0
   -0.5728   -0.4796    1.2397 H   0  0  0  0  0  0  0  0  0  0  0  0
   -1.9831   -0.3737   -0.7466 H   0  0  0  0  0  0  0  0  0  0  0  0
   -1.2183    1.1775   -1.2368 H   0  0  0  0  0  0  0  0  0  0  0  0
   -2.7887    2.2473   -0.0037 H   0  0  0  0  0  0  0  0  0  0  0  0
   -3.4030    0.7244    0.6851 H   0  0  0  0  0  0  0  0  0  0  0  0
   -2.0181    1.5842    1.5186 H   0  0  0  0  0  0  0  0  0  0  0  0
  1  2  3  0
  2  3  1  0
  3  4  1  0
  4  5  1  0
  5  6  2  0
  4  7  1  0
  7  8  1  0
  8  9  1  0
  1 10  1  0
  3 11  1  0
  3 12  1  0
  4 13  1  0
  5 14  1  0
  7 15  1  0
  7 16  1  0
  8 17  1  0
  8 18  1  0
  9 19  1  0
  9 20  1  0
  9 21  1  0
M  END
