
     RDKit          3D

 13 13  0  0  0  0  0  0  0  0999 V2000
    2.2661   -1.3701    0.1815 C   0  0  0  0  0  0  0  0  0  0  0  0
    1.3150   -0.6365    0.1253 C   0  0  0  0  0  0  0  0  0  0  0  0
    0.1436    0.2348    0.0573 C   0  0  0  0  0  0  0  0  0  0  0  0
   -1.0730   -0.3966   -0.5217 C   0  0  0  0  0  0  0  0  0  0  0  0
   -1.8903   -0.9995    0.4419 O   0  0  0  0  0  0  0  0  0  0  0  0
    0.3774    1.6954   -0.2740 C   0  0  0  0  0  0  0  0  0  0  0  0
    0.0812    1.2359    0.9809 O   0  0  0  0  0  0  0  0  0  0  0  0
    3.1035   -2.0338    0.2437 H   0  0  0  0  0  0  0  0  0  0  0  0
   -1.6984    0.3819   -1.0046 H   0  0  0  0  0  0  0  0  0  0  0  0
   -0.7891   -1.1342   -1.2933 H   0  0  0  0  0  0  0  0  0  0  0  0
   -2.7729   -1.1512    0.0189 H   0  0  0  0  0  0  0  0  0  0  0  0
   -0.4697    2.2470   -0.7629 H   0  0  0  0  0  0  0  0  0  0  0  0
    1.4064    1.9269   -0.5832 H   0  0  0  0  0  0  0  0  0  0  0  0
  1  2  3  0
  2  3  1  0
  3  4  1  0
  4  5  1  0
  3  6  1  0
  6  7  1  0
  7  3  1  0
  1  8  1  0
  4  9  1  0
  4 10  1  0
  5 11  1  0
  6 12  1  0
  6 13  1  0
M  END
