
     RDKit          3D

 21 22  0  0  0  0  0  0  0  0999 V2000
    2.8363    1.2424   -0.6452 C   0  0  0  0  0  0  0  0  0  0  0  0
    1.9051    0.4906   -0.6175 C   0  0  0  0  0  0  0  0  0  0  0  0
    0.8070   -0.4268   -0.5913 C   0  0  0  0  0  0  0  0  0  0  0  0
   -0.5613    0.1370   -0.8783 C   0  0  0  0  0  0  0  0  0  0  0  0
   -1.3722   -1.1540   -0.9059 C   0  0  0  0  0  0  0  0  0  0  0  0
   -0.7977   -1.8203    0.3629 C   0  0  0  0  0  0  0  0  0  0  0  0
    0.2017   -0.7362    0.7554 C   0  0  0  0  0  0  0  0  0  0  0  0
   -0.6447    0.4939    0.5820 C   0  0  0  0  0  0  0  0  0  0  0  0
   -0.0987    1.7872    1.0107 C   0  0  0  0  0  0  0  0  0  0  0  0
    3.6600    1.9180   -0.6865 H   0  0  0  0  0  0  0  0  0  0  0  0
    0.9464   -1.3594   -1.1879 H   0  0  0  0  0  0  0  0  0  0  0  0
   -0.7050    0.8591   -1.6250 H   0  0  0  0  0  0  0  0  0  0  0  0
   -2.4437   -0.9914   -0.8295 H   0  0  0  0  0  0  0  0  0  0  0  0
   -1.0535   -1.7427   -1.7912 H   0  0  0  0  0  0  0  0  0  0  0  0
   -0.2994   -2.7544    0.1042 H   0  0  0  0  0  0  0  0  0  0  0  0
   -1.6066   -1.9184    1.1135 H   0  0  0  0  0  0  0  0  0  0  0  0
    0.8069   -0.8700    1.6022 H   0  0  0  0  0  0  0  0  0  0  0  0
   -1.6649    0.3044    0.9721 H   0  0  0  0  0  0  0  0  0  0  0  0
   -0.0083    2.4544    0.1091 H   0  0  0  0  0  0  0  0  0  0  0  0
    0.9090    1.7684    1.4566 H   0  0  0  0  0  0  0  0  0  0  0  0
   -0.8163    2.3180    1.6896 H   0  0  0  0  0  0  0  0  0  0  0  0
  1  2  3  0
  2  3  1  0
  3  4  1  0
  4  5  1  0
  5  6  1  0
  6  7  1  0
  7  8  1  0
  8  9  1  0
  7  3  1  0
  8  4  1  0
  1 10  1  0
  3 11  1  0
  4 12  1  0
  5 13  1  0
  5 14  1  0
  6 15  1  0
  6 16  1  0
  7 17  1  0
  8 18  1  0
  9 19  1  0
  9 20  1  0
  9 21  1  0
M  END
