
     RDKit          3D

 17 17  0  0  0  0  0  0  0  0999 V2000
   -3.4760    1.4003    0.1920 C   0  0  0  0  0  0  0  0  0  0  0  0
   -2.5063    0.8335   -0.1944 C   0  0  0  0  0  0  0  0  0  0  0  0
   -1.3146    0.1151   -0.6647 C   0  0  0  0  0  0  0  0  0  0  0  0
   -0.0761    0.6721    0.0056 C   0  0  0  0  0  0  0  0  0  0  0  0
    1.0843   -0.1524   -0.5639 C   0  0  0  0  0  0  0  0  0  0  0  0
    0.8448   -1.5010   -0.2280 O   0  0  0  0  0  0  0  0  0  0  0  0
    1.7867   -1.3494    0.7948 C   0  0  0  0  0  0  0  0  0  0  0  0
    2.3201   -0.1166    0.1890 C   0  0  0  0  0  0  0  0  0  0  0  0
    3.3084    0.5434    0.3084 O   0  0  0  0  0  0  0  0  0  0  0  0
   -4.3651    1.8986    0.5464 H   0  0  0  0  0  0  0  0  0  0  0  0
   -1.1641    0.2616   -1.7656 H   0  0  0  0  0  0  0  0  0  0  0  0
   -1.3609   -0.9690   -0.4442 H   0  0  0  0  0  0  0  0  0  0  0  0
   -0.1253    0.4844    1.1021 H   0  0  0  0  0  0  0  0  0  0  0  0
    0.0950    1.7284   -0.2018 H   0  0  0  0  0  0  0  0  0  0  0  0
    1.1365    0.0456   -1.6515 H   0  0  0  0  0  0  0  0  0  0  0  0
    1.3524   -1.1149    1.7955 H   0  0  0  0  0  0  0  0  0  0  0  0
    2.4602   -2.2360    0.7801 H   0  0  0  0  0  0  0  0  0  0  0  0
  1  2  3  0
  2  3  1  0
  3  4  1  0
  4  5  1  0
  5  6  1  0
  6  7  1  0
  7  8  1  0
  8  9  2  0
  8  5  1  0
  1 10  1  0
  3 11  1  0
  3 12  1  0
  4 13  1  0
  4 14  1  0
  5 15  1  0
  7 16  1  0
  7 17  1  0
M  END
