
     RDKit          3D

 19 18  0  0  0  0  0  0  0  0999 V2000
    1.8447   -2.3167    0.4598 C   0  0  0  0  0  0  0  0  0  0  0  0
    0.9607   -1.5388    0.8142 C   0  0  0  0  0  0  0  0  0  0  0  0
   -0.0840   -0.6026    1.2274 C   0  0  0  0  0  0  0  0  0  0  0  0
   -0.3020    0.3852    0.1310 C   0  0  0  0  0  0  0  0  0  0  0  0
   -1.3789    1.3530    0.5700 C   0  0  0  0  0  0  0  0  0  0  0  0
    0.9314    1.1748   -0.0942 C   0  0  0  0  0  0  0  0  0  0  0  0
    1.8921    1.8136   -0.2684 C   0  0  0  0  0  0  0  0  0  0  0  0
   -0.7376   -0.2494   -1.1617 C   0  0  0  0  0  0  0  0  0  0  0  0
    0.1730   -1.1548   -1.6699 O   0  0  0  0  0  0  0  0  0  0  0  0
    2.5928   -2.9949    0.1444 H   0  0  0  0  0  0  0  0  0  0  0  0
   -1.0301   -1.1958    1.3573 H   0  0  0  0  0  0  0  0  0  0  0  0
    0.1674   -0.0967    2.1822 H   0  0  0  0  0  0  0  0  0  0  0  0
   -1.9306    0.9160    1.4027 H   0  0  0  0  0  0  0  0  0  0  0  0
   -2.0643    1.5742   -0.2850 H   0  0  0  0  0  0  0  0  0  0  0  0
   -0.9186    2.3389    0.8723 H   0  0  0  0  0  0  0  0  0  0  0  0
    2.7653    2.3973   -0.4278 H   0  0  0  0  0  0  0  0  0  0  0  0
   -0.8447    0.5829   -1.9115 H   0  0  0  0  0  0  0  0  0  0  0  0
   -1.7334   -0.7173   -0.9673 H   0  0  0  0  0  0  0  0  0  0  0  0
   -0.3030   -1.6689   -2.3755 H   0  0  0  0  0  0  0  0  0  0  0  0
  1  2  3  0
  2  3  1  0
  3  4  1  0
  4  5  1  0
  4  6  1  0
  6  7  3  0
  4  8  1  0
  8  9  1  0
  1 10  1  0
  3 11  1  0
  3 12  1  0
  5 13  1  0
  5 14  1  0
  5 15  1  0
  7 16  1  0
  8 17  1  0
  8 18  1  0
  9 19  1  0
M  END
