
     RDKit          3D

 14 14  0  0  0  0  0  0  0  0999 V2000
    2.4246    1.1197   -0.4978 C   0  0  0  0  0  0  0  0  0  0  0  0
    1.7531    0.2561    0.0497 C   0  0  0  0  0  0  0  0  0  0  0  0
    0.9397   -0.7601    0.7206 C   0  0  0  0  0  0  0  0  0  0  0  0
   -0.5064   -0.4393    0.6088 C   0  0  0  0  0  0  0  0  0  0  0  0
   -1.1042   -0.3386   -0.7454 C   0  0  0  0  0  0  0  0  0  0  0  0
   -1.8161    0.8388   -0.1760 C   0  0  0  0  0  0  0  0  0  0  0  0
   -2.8900    1.4200   -0.4919 O   0  0  0  0  0  0  0  0  0  0  0  0
   -0.7987    0.9341    0.7581 O   0  0  0  0  0  0  0  0  0  0  0  0
    2.9949    1.8807   -0.9653 H   0  0  0  0  0  0  0  0  0  0  0  0
    1.1956   -0.8590    1.7934 H   0  0  0  0  0  0  0  0  0  0  0  0
    1.1992   -1.7317    0.2160 H   0  0  0  0  0  0  0  0  0  0  0  0
   -1.1135   -1.0992    1.2807 H   0  0  0  0  0  0  0  0  0  0  0  0
   -0.4351   -0.0892   -1.5855 H   0  0  0  0  0  0  0  0  0  0  0  0
   -1.8432   -1.1322   -0.9654 H   0  0  0  0  0  0  0  0  0  0  0  0
  1  2  3  0
  2  3  1  0
  3  4  1  0
  4  5  1  0
  5  6  1  0
  6  7  2  0
  6  8  1  0
  8  4  1  0
  1  9  1  0
  3 10  1  0
  3 11  1  0
  4 12  1  0
  5 13  1  0
  5 14  1  0
M  END
