
     RDKit          3D

 16 15  0  0  0  0  0  0  0  0999 V2000
    0.2469    2.6755    0.1389 C   0  0  0  0  0  0  0  0  0  0  0  0
    0.0973    1.2481    0.3095 C   0  0  0  0  0  0  0  0  0  0  0  0
   -0.0276    0.0031    0.4497 C   0  0  0  0  0  0  0  0  0  0  0  0
   -0.1848   -0.6543    1.6100 O   0  0  0  0  0  0  0  0  0  0  0  0
   -1.0892   -0.4743   -0.6697 C   0  0  0  0  0  0  0  0  0  0  0  0
   -2.3635   -0.5642   -0.2123 O   0  0  0  0  0  0  0  0  0  0  0  0
    1.2804   -0.6917   -0.2502 C   0  0  0  0  0  0  0  0  0  0  0  0
    2.3034   -0.3536    0.6652 O   0  0  0  0  0  0  0  0  0  0  0  0
    0.3737    3.7420    0.0122 H   0  0  0  0  0  0  0  0  0  0  0  0
   -0.9057   -1.3634    1.6259 H   0  0  0  0  0  0  0  0  0  0  0  0
   -0.7199   -1.0221   -1.4842 H   0  0  0  0  0  0  0  0  0  0  0  0
   -1.1882    0.6475   -1.2163 H   0  0  0  0  0  0  0  0  0  0  0  0
   -2.9667    0.1382   -0.5781 H   0  0  0  0  0  0  0  0  0  0  0  0
    1.0264   -1.7888   -0.1295 H   0  0  0  0  0  0  0  0  0  0  0  0
    1.4621   -0.3288   -1.2223 H   0  0  0  0  0  0  0  0  0  0  0  0
    2.6555   -1.2132    0.9511 H   0  0  0  0  0  0  0  0  0  0  0  0
  1  2  3  0
  2  3  1  0
  3  4  1  0
  3  5  1  0
  5  6  1  0
  3  7  1  0
  7  8  1  0
  1  9  1  0
  4 10  1  0
  5 11  1  0
  5 12  1  0
  6 13  1  0
  7 14  1  0
  7 15  1  0
  8 16  1  0
M  END
