
     RDKit          3D

 20 20  0  0  0  0  0  0  0  0999 V2000
    3.1815   -1.6023   -0.6113 C   0  0  0  0  0  0  0  0  0  0  0  0
    2.0221   -1.3935   -0.4678 C   0  0  0  0  0  0  0  0  0  0  0  0
    0.6061   -1.1198   -0.2796 C   0  0  0  0  0  0  0  0  0  0  0  0
    0.2909   -0.7012    1.1551 C   0  0  0  0  0  0  0  0  0  0  0  0
   -1.1381   -0.2131    0.9999 C   0  0  0  0  0  0  0  0  0  0  0  0
   -1.1385    0.4876   -0.3648 C   0  0  0  0  0  0  0  0  0  0  0  0
   -1.3542    1.9744   -0.1613 C   0  0  0  0  0  0  0  0  0  0  0  0
    0.1956    0.1688   -1.0014 C   0  0  0  0  0  0  0  0  0  0  0  0
    4.2542   -1.8070   -0.7287 H   0  0  0  0  0  0  0  0  0  0  0  0
    0.0397   -1.9943   -0.5956 H   0  0  0  0  0  0  0  0  0  0  0  0
    0.4463   -1.4645    1.9010 H   0  0  0  0  0  0  0  0  0  0  0  0
    0.9746    0.1623    1.3849 H   0  0  0  0  0  0  0  0  0  0  0  0
   -1.3546    0.5056    1.8018 H   0  0  0  0  0  0  0  0  0  0  0  0
   -1.7815   -1.1141    1.0046 H   0  0  0  0  0  0  0  0  0  0  0  0
   -1.9444    0.0882   -0.9986 H   0  0  0  0  0  0  0  0  0  0  0  0
   -1.7046    2.4454   -1.1008 H   0  0  0  0  0  0  0  0  0  0  0  0
   -2.1966    2.0901    0.5853 H   0  0  0  0  0  0  0  0  0  0  0  0
   -0.4762    2.4813    0.2417 H   0  0  0  0  0  0  0  0  0  0  0  0
    0.1609    0.0564   -2.0844 H   0  0  0  0  0  0  0  0  0  0  0  0
    0.9168    0.9499   -0.6799 H   0  0  0  0  0  0  0  0  0  0  0  0
  1  2  3  0
  2  3  1  0
  3  4  1  0
  4  5  1  0
  5  6  1  0
  6  7  1  0
  6  8  1  0
  8  3  1  0
  1  9  1  0
  3 10  1  0
  4 11  1  0
  4 12  1  0
  5 13  1  0
  5 14  1  0
  6 15  1  0
  7 16  1  0
  7 17  1  0
  7 18  1  0
  8 19  1  0
  8 20  1  0
M  END
