
     RDKit          3D

 19 19  0  0  0  0  0  0  0  0999 V2000
   -0.4068    2.6344    0.6909 C   0  0  0  0  0  0  0  0  0  0  0  0
   -0.0347    1.5467    0.3885 C   0  0  0  0  0  0  0  0  0  0  0  0
    0.4071    0.2239    0.0323 C   0  0  0  0  0  0  0  0  0  0  0  0
    0.9988   -0.5453    1.1907 C   0  0  0  0  0  0  0  0  0  0  0  0
    1.4076   -1.8135    0.7886 O   0  0  0  0  0  0  0  0  0  0  0  0
    1.1123    0.0705   -1.2820 C   0  0  0  0  0  0  0  0  0  0  0  0
   -0.1576    0.0973   -1.9024 O   0  0  0  0  0  0  0  0  0  0  0  0
   -0.6310   -0.5701   -0.7527 C   0  0  0  0  0  0  0  0  0  0  0  0
   -2.0423   -0.2690   -0.3820 C   0  0  0  0  0  0  0  0  0  0  0  0
   -0.7307    3.6220    0.9783 H   0  0  0  0  0  0  0  0  0  0  0  0
    0.1977   -0.6694    1.9529 H   0  0  0  0  0  0  0  0  0  0  0  0
    1.8250    0.0530    1.5986 H   0  0  0  0  0  0  0  0  0  0  0  0
    2.3268   -1.9513    1.1333 H   0  0  0  0  0  0  0  0  0  0  0  0
    1.7690    0.8875   -1.5868 H   0  0  0  0  0  0  0  0  0  0  0  0
    1.5267   -0.9578   -1.3766 H   0  0  0  0  0  0  0  0  0  0  0  0
   -0.3331   -1.6503   -0.7151 H   0  0  0  0  0  0  0  0  0  0  0  0
   -2.6122    0.1013   -1.2494 H   0  0  0  0  0  0  0  0  0  0  0  0
   -2.5035   -1.2309   -0.0124 H   0  0  0  0  0  0  0  0  0  0  0  0
   -2.1191    0.4208    0.5052 H   0  0  0  0  0  0  0  0  0  0  0  0
  1  2  3  0
  2  3  1  0
  3  4  1  0
  4  5  1  0
  3  6  1  0
  6  7  1  0
  7  8  1  0
  8  9  1  0
  8  3  1  0
  1 10  1  0
  4 11  1  0
  4 12  1  0
  5 13  1  0
  6 14  1  0
  6 15  1  0
  8 16  1  0
  9 17  1  0
  9 18  1  0
  9 19  1  0
M  END
