
     RDKit          3D

 15 15  0  0  0  0  0  0  0  0999 V2000
    3.1543    0.3635   -0.5410 C   0  0  0  0  0  0  0  0  0  0  0  0
    1.9862    0.4445   -0.2517 C   0  0  0  0  0  0  0  0  0  0  0  0
    0.5877    0.5397    0.1207 C   0  0  0  0  0  0  0  0  0  0  0  0
    0.0329   -0.8702    0.3698 C   0  0  0  0  0  0  0  0  0  0  0  0
   -1.4586   -0.5782    0.3006 C   0  0  0  0  0  0  0  0  0  0  0  0
   -1.4962    0.5523   -0.6916 C   0  0  0  0  0  0  0  0  0  0  0  0
   -0.2103    0.9654   -0.9243 O   0  0  0  0  0  0  0  0  0  0  0  0
    4.1843    0.2967   -0.7778 H   0  0  0  0  0  0  0  0  0  0  0  0
    0.4385    1.1382    1.0510 H   0  0  0  0  0  0  0  0  0  0  0  0
    0.3813   -1.4768   -0.4818 H   0  0  0  0  0  0  0  0  0  0  0  0
    0.3209   -1.2501    1.3537 H   0  0  0  0  0  0  0  0  0  0  0  0
   -1.7440   -0.2127    1.3160 H   0  0  0  0  0  0  0  0  0  0  0  0
   -2.0387   -1.4613   -0.0126 H   0  0  0  0  0  0  0  0  0  0  0  0
   -2.1613    1.3351   -0.2727 H   0  0  0  0  0  0  0  0  0  0  0  0
   -1.9770    0.2141   -1.6420 H   0  0  0  0  0  0  0  0  0  0  0  0
  1  2  3  0
  2  3  1  0
  3  4  1  0
  4  5  1  0
  5  6  1  0
  6  7  1  0
  7  3  1  0
  1  8  1  0
  3  9  1  0
  4 10  1  0
  4 11  1  0
  5 12  1  0
  5 13  1  0
  6 14  1  0
  6 15  1  0
M  END
