
     RDKit          3D

 15 15  0  0  0  0  0  0  0  0999 V2000
    2.9677   -0.5696    0.6789 C   0  0  0  0  0  0  0  0  0  0  0  0
    1.9774   -0.1173    0.2575 C   0  0  0  0  0  0  0  0  0  0  0  0
    0.9697    0.3487   -0.1507 C   0  0  0  0  0  0  0  0  0  0  0  0
    0.9399    1.6733   -0.4914 O   0  0  0  0  0  0  0  0  0  0  0  0
   -0.4381   -0.1627   -0.3696 C   0  0  0  0  0  0  0  0  0  0  0  0
   -1.3631    0.0440    0.7596 C   0  0  0  0  0  0  0  0  0  0  0  0
   -0.9292    1.1848    1.4786 O   0  0  0  0  0  0  0  0  0  0  0  0
   -0.9176   -0.2433   -1.7907 C   0  0  0  0  0  0  0  0  0  0  0  0
   -0.6098   -1.3805   -1.0341 O   0  0  0  0  0  0  0  0  0  0  0  0
    4.1321   -1.0881    1.1940 H   0  0  0  0  0  0  0  0  0  0  0  0
   -1.5016   -0.8450    1.3247 H   0  0  0  0  0  0  0  0  0  0  0  0
   -2.3975    0.3895    0.3755 H   0  0  0  0  0  0  0  0  0  0  0  0
   -0.5202    0.8988    2.3464 H   0  0  0  0  0  0  0  0  0  0  0  0
   -2.0444   -0.0513   -1.9113 H   0  0  0  0  0  0  0  0  0  0  0  0
   -0.2653   -0.0813   -2.6675 H   0  0  0  0  0  0  0  0  0  0  0  0
  1  2  3  0
  2  3  1  0
  3  4  2  0
  3  5  1  0
  5  6  1  0
  6  7  1  0
  5  8  1  0
  8  9  1  0
  9  5  1  0
  1 10  1  0
  6 11  1  0
  6 12  1  0
  7 13  1  0
  8 14  1  0
  8 15  1  0
M  END
