
     RDKit          3D

 19 20  0  0  0  0  0  0  0  0999 V2000
    2.2329   -0.0417   -2.0586 C   0  0  0  0  0  0  0  0  0  0  0  0
    1.0436   -0.0737   -1.5749 C   0  0  0  0  0  0  0  0  0  0  0  0
   -0.1491   -0.1244   -1.0765 C   0  0  0  0  0  0  0  0  0  0  0  0
   -0.9443    1.0245   -0.6065 C   0  0  0  0  0  0  0  0  0  0  0  0
    0.0772    1.3590    0.3690 C   0  0  0  0  0  0  0  0  0  0  0  0
   -0.0854   -0.1721    0.5193 C   0  0  0  0  0  0  0  0  0  0  0  0
    0.7991   -0.9030    1.2402 C   0  0  0  0  0  0  0  0  0  0  0  0
   -1.5199    0.0577    0.4758 C   0  0  0  0  0  0  0  0  0  0  0  0
   -2.3337   -0.9100   -0.0650 O   0  0  0  0  0  0  0  0  0  0  0  0
    3.3286    0.0070   -2.5068 H   0  0  0  0  0  0  0  0  0  0  0  0
   -0.7844   -1.0933   -1.2174 H   0  0  0  0  0  0  0  0  0  0  0  0
   -1.6171    1.5662   -1.1698 H   0  0  0  0  0  0  0  0  0  0  0  0
   -0.3284    1.8256    1.3225 H   0  0  0  0  0  0  0  0  0  0  0  0
    1.0865    1.6819    0.1103 H   0  0  0  0  0  0  0  0  0  0  0  0
    1.8517   -0.8548    0.8375 H   0  0  0  0  0  0  0  0  0  0  0  0
    0.5645   -1.9098    1.5323 H   0  0  0  0  0  0  0  0  0  0  0  0
    0.9678   -0.3510    2.2620 H   0  0  0  0  0  0  0  0  0  0  0  0
   -1.9635    0.7167    1.2631 H   0  0  0  0  0  0  0  0  0  0  0  0
   -2.2261   -1.8049    0.3434 H   0  0  0  0  0  0  0  0  0  0  0  0
  1  2  3  0
  2  3  1  0
  3  4  1  0
  4  5  1  0
  5  6  1  0
  6  7  1  0
  6  8  1  0
  8  9  1  0
  6  3  1  0
  8  4  1  0
  1 10  1  0
  3 11  1  0
  4 12  1  0
  5 13  1  0
  5 14  1  0
  7 15  1  0
  7 16  1  0
  7 17  1  0
  8 18  1  0
  9 19  1  0
M  END
