
     RDKit          3D

 17 18  0  0  0  0  0  0  0  0999 V2000
    2.9110    0.5486   -1.7604 C   0  0  0  0  0  0  0  0  0  0  0  0
    1.8481    0.4530   -1.1939 C   0  0  0  0  0  0  0  0  0  0  0  0
    0.6083    0.3218   -0.5149 C   0  0  0  0  0  0  0  0  0  0  0  0
   -0.5401    0.8463   -0.9000 C   0  0  0  0  0  0  0  0  0  0  0  0
   -1.5924    0.4483    0.1107 C   0  0  0  0  0  0  0  0  0  0  0  0
   -0.7098    0.4996    1.3740 C   0  0  0  0  0  0  0  0  0  0  0  0
    0.3560   -0.4088    0.7285 C   0  0  0  0  0  0  0  0  0  0  0  0
   -0.5866   -1.5457    0.3559 C   0  0  0  0  0  0  0  0  0  0  0  0
   -1.7648   -0.9045   -0.0392 O   0  0  0  0  0  0  0  0  0  0  0  0
    3.8477    0.6514   -2.2625 H   0  0  0  0  0  0  0  0  0  0  0  0
   -0.6976    1.4487   -1.7761 H   0  0  0  0  0  0  0  0  0  0  0  0
   -2.4457    1.0633    0.1436 H   0  0  0  0  0  0  0  0  0  0  0  0
   -0.3419    1.5049    1.5452 H   0  0  0  0  0  0  0  0  0  0  0  0
   -1.1969    0.0057    2.2165 H   0  0  0  0  0  0  0  0  0  0  0  0
    1.1670   -0.6558    1.3541 H   0  0  0  0  0  0  0  0  0  0  0  0
   -0.1206   -2.0203   -0.5527 H   0  0  0  0  0  0  0  0  0  0  0  0
   -0.7419   -2.2565    1.1714 H   0  0  0  0  0  0  0  0  0  0  0  0
  1  2  3  0
  2  3  1  0
  3  4  2  0
  4  5  1  0
  5  6  1  0
  6  7  1  0
  7  8  1  0
  8  9  1  0
  7  3  1  0
  9  5  1  0
  1 10  1  0
  4 11  1  0
  5 12  1  0
  6 13  1  0
  6 14  1  0
  7 15  1  0
  8 16  1  0
  8 17  1  0
M  END
