
     RDKit          3D

 19 19  0  0  0  0  0  0  0  0999 V2000
    2.7227    1.3607   -2.5589 C   0  0  0  0  0  0  0  0  0  0  0  0
    2.0899    0.7626   -1.7629 C   0  0  0  0  0  0  0  0  0  0  0  0
    1.2983    0.0328   -0.7496 C   0  0  0  0  0  0  0  0  0  0  0  0
   -0.0395   -0.3190   -1.2990 C   0  0  0  0  0  0  0  0  0  0  0  0
   -0.2785   -0.0233   -2.4498 O   0  0  0  0  0  0  0  0  0  0  0  0
   -1.0830   -1.0155   -0.4902 C   0  0  0  0  0  0  0  0  0  0  0  0
   -0.7108   -1.1344    0.9457 C   0  0  0  0  0  0  0  0  0  0  0  0
   -0.4782    0.0327    1.8040 C   0  0  0  0  0  0  0  0  0  0  0  0
   -1.7526   -0.7603    1.9732 C   0  0  0  0  0  0  0  0  0  0  0  0
    3.2952    1.9178   -3.3098 H   0  0  0  0  0  0  0  0  0  0  0  0
    1.2265    0.7474    0.1040 H   0  0  0  0  0  0  0  0  0  0  0  0
    1.9038   -0.8751   -0.4851 H   0  0  0  0  0  0  0  0  0  0  0  0
   -2.0708   -0.5176   -0.6572 H   0  0  0  0  0  0  0  0  0  0  0  0
   -1.1550   -2.0630   -0.9145 H   0  0  0  0  0  0  0  0  0  0  0  0
   -0.1289   -2.0677    1.1844 H   0  0  0  0  0  0  0  0  0  0  0  0
    0.2845   -0.1405    2.6164 H   0  0  0  0  0  0  0  0  0  0  0  0
   -0.6017    1.0795    1.4950 H   0  0  0  0  0  0  0  0  0  0  0  0
   -2.6644   -0.2524    1.6658 H   0  0  0  0  0  0  0  0  0  0  0  0
   -1.8576   -1.3948    2.8885 H   0  0  0  0  0  0  0  0  0  0  0  0
  1  2  3  0
  2  3  1  0
  3  4  1  0
  4  5  2  0
  4  6  1  0
  6  7  1  0
  7  8  1  0
  8  9  1  0
  9  7  1  0
  1 10  1  0
  3 11  1  0
  3 12  1  0
  6 13  1  0
  6 14  1  0
  7 15  1  0
  8 16  1  0
  8 17  1  0
  9 18  1  0
  9 19  1  0
M  END
