
     RDKit          3D

 19 18  0  0  0  0  0  0  0  0999 V2000
   -1.0625   -1.7475    2.7856 C   0  0  0  0  0  0  0  0  0  0  0  0
   -0.6247   -1.3049    1.8502 C   0  0  0  0  0  0  0  0  0  0  0  0
   -0.0889   -0.7304    0.6860 C   0  0  0  0  0  0  0  0  0  0  0  0
   -0.6635   -0.9898   -0.6335 C   0  0  0  0  0  0  0  0  0  0  0  0
    0.2901   -0.2666   -1.6407 C   0  0  0  0  0  0  0  0  0  0  0  0
   -0.1694    0.9546   -2.2134 C   0  0  0  0  0  0  0  0  0  0  0  0
    1.3220   -0.8488   -1.8026 O   0  0  0  0  0  0  0  0  0  0  0  0
   -0.1501    0.7040    0.8165 O   0  0  0  0  0  0  0  0  0  0  0  0
    1.0256    1.3243    1.0645 C   0  0  0  0  0  0  0  0  0  0  0  0
   -1.5298   -2.2264    3.8290 H   0  0  0  0  0  0  0  0  0  0  0  0
    1.0586   -0.9470    0.6718 H   0  0  0  0  0  0  0  0  0  0  0  0
   -1.6220   -0.4770   -0.7410 H   0  0  0  0  0  0  0  0  0  0  0  0
   -0.7565   -2.0267   -0.9714 H   0  0  0  0  0  0  0  0  0  0  0  0
   -0.8520    0.7035   -3.0853 H   0  0  0  0  0  0  0  0  0  0  0  0
    0.6513    1.6340   -2.5769 H   0  0  0  0  0  0  0  0  0  0  0  0
   -0.7769    1.6254   -1.5282 H   0  0  0  0  0  0  0  0  0  0  0  0
    1.4602    0.9152    2.0107 H   0  0  0  0  0  0  0  0  0  0  0  0
    0.8083    2.3995    1.2876 H   0  0  0  0  0  0  0  0  0  0  0  0
    1.6802    1.3047    0.1911 H   0  0  0  0  0  0  0  0  0  0  0  0
  1  2  3  0
  2  3  1  0
  3  4  1  0
  4  5  1  0
  5  6  1  0
  5  7  2  0
  3  8  1  0
  8  9  1  0
  1 10  1  0
  3 11  1  0
  4 12  1  0
  4 13  1  0
  6 14  1  0
  6 15  1  0
  6 16  1  0
  9 17  1  0
  9 18  1  0
  9 19  1  0
M  END
