
     RDKit          3D

 15 15  0  0  0  0  0  0  0  0999 V2000
   -2.6346   -1.4066    0.5775 C   0  0  0  0  0  0  0  0  0  0  0  0
   -1.6151   -0.7773    0.4452 C   0  0  0  0  0  0  0  0  0  0  0  0
   -0.3658   -0.0023    0.3084 C   0  0  0  0  0  0  0  0  0  0  0  0
   -0.5637    1.4068    0.6010 C   0  0  0  0  0  0  0  0  0  0  0  0
   -0.7252    2.5824    0.8631 C   0  0  0  0  0  0  0  0  0  0  0  0
    0.0994   -0.2182   -1.0936 C   0  0  0  0  0  0  0  0  0  0  0  0
    1.3904   -0.5020   -1.0393 C   0  0  0  0  0  0  0  0  0  0  0  0
    1.8071   -0.4806    0.3849 C   0  0  0  0  0  0  0  0  0  0  0  0
    0.6369   -0.5843    1.0758 O   0  0  0  0  0  0  0  0  0  0  0  0
   -3.5109   -1.9618    0.6786 H   0  0  0  0  0  0  0  0  0  0  0  0
   -0.8702    3.6017    1.1084 H   0  0  0  0  0  0  0  0  0  0  0  0
   -0.4716   -0.1644   -2.0146 H   0  0  0  0  0  0  0  0  0  0  0  0
    2.0358   -0.7164   -1.9146 H   0  0  0  0  0  0  0  0  0  0  0  0
    2.5289   -1.2944    0.6028 H   0  0  0  0  0  0  0  0  0  0  0  0
    2.2586    0.5176    0.6298 H   0  0  0  0  0  0  0  0  0  0  0  0
  1  2  3  0
  2  3  1  0
  3  4  1  0
  4  5  3  0
  3  6  1  0
  6  7  2  0
  7  8  1  0
  8  9  1  0
  9  3  1  0
  1 10  1  0
  5 11  1  0
  6 12  1  0
  7 13  1  0
  8 14  1  0
  8 15  1  0
M  END
