
     RDKit          3D

 21 21  0  0  0  0  0  0  0  0999 V2000
    0.2374    1.2053   -2.9763 C   0  0  0  0  0  0  0  0  0  0  0  0
   -0.4350    0.5228   -1.8718 C   0  0  0  0  0  0  0  0  0  0  0  0
   -0.9580   -0.0340   -0.9838 C   0  0  0  0  0  0  0  0  0  0  0  0
   -0.6010   -1.2243   -0.0970 C   0  0  0  0  0  0  0  0  0  0  0  0
    0.5174   -2.0466   -0.6985 C   0  0  0  0  0  0  0  0  0  0  0  0
   -0.3496    0.0889    0.5071 C   0  0  0  0  0  0  0  0  0  0  0  0
   -1.4438    0.5543    1.4866 C   0  0  0  0  0  0  0  0  0  0  0  0
    0.7567    0.8018    0.4645 O   0  0  0  0  0  0  0  0  0  0  0  0
    1.6639    1.1670    1.3148 C   0  0  0  0  0  0  0  0  0  0  0  0
    0.7687    1.7301   -3.8260 H   0  0  0  0  0  0  0  0  0  0  0  0
   -2.1840    0.0951   -0.8808 H   0  0  0  0  0  0  0  0  0  0  0  0
   -1.4389   -1.8805    0.2953 H   0  0  0  0  0  0  0  0  0  0  0  0
    1.2572   -2.3253    0.1176 H   0  0  0  0  0  0  0  0  0  0  0  0
    1.0228   -1.5408   -1.5325 H   0  0  0  0  0  0  0  0  0  0  0  0
    0.0589   -2.9815   -1.1163 H   0  0  0  0  0  0  0  0  0  0  0  0
   -2.3438    0.7856    0.8956 H   0  0  0  0  0  0  0  0  0  0  0  0
   -1.0938    1.4280    2.0605 H   0  0  0  0  0  0  0  0  0  0  0  0
   -1.6074   -0.2857    2.1836 H   0  0  0  0  0  0  0  0  0  0  0  0
    2.3878    1.8808    0.7520 H   0  0  0  0  0  0  0  0  0  0  0  0
    2.4225    0.3708    1.6233 H   0  0  0  0  0  0  0  0  0  0  0  0
    1.3620    1.6883    2.2821 H   0  0  0  0  0  0  0  0  0  0  0  0
  1  2  3  0
  2  3  1  0
  3  4  1  0
  4  5  1  0
  4  6  1  0
  6  7  1  0
  6  8  1  0
  8  9  1  0
  6  3  1  0
  1 10  1  0
  3 11  1  0
  4 12  1  0
  5 13  1  0
  5 14  1  0
  5 15  1  0
  7 16  1  0
  7 17  1  0
  7 18  1  0
  9 19  1  0
  9 20  1  0
  9 21  1  0
M  END
