
     RDKit          3D

 19 19  0  0  0  0  0  0  0  0999 V2000
    3.5406   -0.7574   -1.1243 C   0  0  0  0  0  0  0  0  0  0  0  0
    2.3943   -1.0090   -0.8291 C   0  0  0  0  0  0  0  0  0  0  0  0
    0.9907   -1.2922   -0.4661 C   0  0  0  0  0  0  0  0  0  0  0  0
    0.1407   -0.7421   -1.5607 C   0  0  0  0  0  0  0  0  0  0  0  0
   -0.9460   -0.2705   -0.9552 C   0  0  0  0  0  0  0  0  0  0  0  0
   -0.7745   -0.5243    0.5016 C   0  0  0  0  0  0  0  0  0  0  0  0
   -1.4365    0.5458    1.3279 C   0  0  0  0  0  0  0  0  0  0  0  0
   -0.9074    1.9121    1.0842 C   0  0  0  0  0  0  0  0  0  0  0  0
    0.6077   -0.5301    0.6354 O   0  0  0  0  0  0  0  0  0  0  0  0
    4.5498   -0.5196   -1.3752 H   0  0  0  0  0  0  0  0  0  0  0  0
    0.8043   -2.3523   -0.2959 H   0  0  0  0  0  0  0  0  0  0  0  0
    0.3051   -0.7023   -2.6140 H   0  0  0  0  0  0  0  0  0  0  0  0
   -1.8130    0.2130   -1.3996 H   0  0  0  0  0  0  0  0  0  0  0  0
   -1.1831   -1.5301    0.7179 H   0  0  0  0  0  0  0  0  0  0  0  0
   -2.5173    0.5405    1.0517 H   0  0  0  0  0  0  0  0  0  0  0  0
   -1.3955    0.2615    2.3939 H   0  0  0  0  0  0  0  0  0  0  0  0
   -1.0989    2.5445    1.9625 H   0  0  0  0  0  0  0  0  0  0  0  0
    0.1827    1.8723    0.8942 H   0  0  0  0  0  0  0  0  0  0  0  0
   -1.4436    2.3401    0.1940 H   0  0  0  0  0  0  0  0  0  0  0  0
  1  2  3  0
  2  3  1  0
  3  4  1  0
  4  5  2  0
  5  6  1  0
  6  7  1  0
  7  8  1  0
  6  9  1  0
  9  3  1  0
  1 10  1  0
  3 11  1  0
  4 12  1  0
  5 13  1  0
  6 14  1  0
  7 15  1  0
  7 16  1  0
  8 17  1  0
  8 18  1  0
  8 19  1  0
M  END
