
     RDKit          3D

 17 16  0  0  0  0  0  0  0  0999 V2000
    2.3014   -0.5965    1.8003 C   0  0  0  0  0  0  0  0  0  0  0  0
    1.2494   -0.4461    0.9884 C   0  0  0  0  0  0  0  0  0  0  0  0
    0.1530   -0.2879    0.1463 C   0  0  0  0  0  0  0  0  0  0  0  0
    0.5216   -0.9328   -1.1946 C   0  0  0  0  0  0  0  0  0  0  0  0
    0.4224    1.1654   -0.1877 C   0  0  0  0  0  0  0  0  0  0  0  0
    0.6498    2.5243   -0.5057 C   0  0  0  0  0  0  0  0  0  0  0  0
   -1.1108   -0.3166    0.7654 C   0  0  0  0  0  0  0  0  0  0  0  0
   -2.1764   -0.1177   -0.4876 C   0  0  0  0  0  0  0  0  0  0  0  0
   -2.0551    0.2011   -1.4443 O   0  0  0  0  0  0  0  0  0  0  0  0
    3.2965   -0.7398    2.5411 H   0  0  0  0  0  0  0  0  0  0  0  0
    0.5014   -2.0548   -0.9631 H   0  0  0  0  0  0  0  0  0  0  0  0
    1.5473   -0.5886   -1.4691 H   0  0  0  0  0  0  0  0  0  0  0  0
   -0.1670   -0.6347   -1.9569 H   0  0  0  0  0  0  0  0  0  0  0  0
    0.8672    3.7641   -0.7803 H   0  0  0  0  0  0  0  0  0  0  0  0
   -1.4393   -1.1274    1.3637 H   0  0  0  0  0  0  0  0  0  0  0  0
   -1.4000    0.6691    1.3008 H   0  0  0  0  0  0  0  0  0  0  0  0
   -3.1614   -0.4811    0.0832 H   0  0  0  0  0  0  0  0  0  0  0  0
  1  2  3  0
  2  3  1  0
  3  4  1  0
  3  5  1  0
  5  6  3  0
  3  7  1  0
  7  8  1  0
  8  9  2  0
  1 10  1  0
  4 11  1  0
  4 12  1  0
  4 13  1  0
  6 14  1  0
  7 15  1  0
  7 16  1  0
  8 17  1  0
M  END
