
     RDKit          3D

 21 20  0  0  0  0  0  0  0  0999 V2000
    4.3152   -0.7419   -0.4570 C   0  0  0  0  0  0  0  0  0  0  0  0
    3.3957    0.2931   -0.1562 C   0  0  0  0  0  0  0  0  0  0  0  0
    2.4761    1.3611    0.1519 C   0  0  0  0  0  0  0  0  0  0  0  0
    1.3243    0.6008    0.3748 C   0  0  0  0  0  0  0  0  0  0  0  0
    0.0961   -0.2080    0.6256 C   0  0  0  0  0  0  0  0  0  0  0  0
   -1.1769   -1.0400    0.8755 C   0  0  0  0  0  0  0  0  0  0  0  0
   -1.3317   -1.4419   -0.6778 C   0  0  0  0  0  0  0  0  0  0  0  0
   -2.0642    0.2197    0.9525 C   0  0  0  0  0  0  0  0  0  0  0  0
   -1.8510    0.9149   -0.4358 C   0  0  0  0  0  0  0  0  0  0  0  0
    5.1581   -1.6945   -0.7413 H   0  0  0  0  0  0  0  0  0  0  0  0
    2.3267    2.1521   -0.5356 H   0  0  0  0  0  0  0  0  0  0  0  0
    2.7799    1.7370    1.1614 H   0  0  0  0  0  0  0  0  0  0  0  0
   -1.0617   -1.7626    1.5520 H   0  0  0  0  0  0  0  0  0  0  0  0
   -1.5926   -2.4957   -0.8762 H   0  0  0  0  0  0  0  0  0  0  0  0
   -0.4371   -1.0961   -1.2231 H   0  0  0  0  0  0  0  0  0  0  0  0
   -2.2161   -0.8691   -1.0704 H   0  0  0  0  0  0  0  0  0  0  0  0
   -3.0705   -0.0259    1.1069 H   0  0  0  0  0  0  0  0  0  0  0  0
   -1.6011    0.8200    1.7362 H   0  0  0  0  0  0  0  0  0  0  0  0
   -1.5057    1.9581   -0.3064 H   0  0  0  0  0  0  0  0  0  0  0  0
   -1.1073    0.3871   -1.0265 H   0  0  0  0  0  0  0  0  0  0  0  0
   -2.8564    0.9317   -1.0305 H   0  0  0  0  0  0  0  0  0  0  0  0
  1  2  3  0
  2  3  1  0
  3  4  1  0
  4  5  3  0
  5  6  1  0
  6  7  1  0
  6  8  1  0
  8  9  1  0
  1 10  1  0
  3 11  1  0
  3 12  1  0
  6 13  1  0
  7 14  1  0
  7 15  1  0
  7 16  1  0
  8 17  1  0
  8 18  1  0
  9 19  1  0
  9 20  1  0
  9 21  1  0
M  END
