
     RDKit          3D

 19 18  0  0  0  0  0  0  0  0999 V2000
    2.0493    2.8448   -1.2539 C   0  0  0  0  0  0  0  0  0  0  0  0
    2.7558    1.1443   -1.3224 C   0  0  0  0  0  0  0  0  0  0  0  0
    3.1360    0.2438   -1.3580 C   0  0  0  0  0  0  0  0  0  0  0  0
    1.8046   -0.7691   -1.6028 O   0  0  0  0  0  0  0  0  0  0  0  0
    1.0852   -0.3028   -0.5699 C   0  0  0  0  0  0  0  0  0  0  0  0
   -0.1229   -0.5954   -0.1547 C   0  0  0  0  0  0  0  0  0  0  0  0
   -1.3125   -0.8735    0.2632 C   0  0  0  0  0  0  0  0  0  0  0  0
   -2.6409   -1.2004    0.7118 C   0  0  0  0  0  0  0  0  0  0  0  0
   -3.0504   -0.3079    1.8962 C   0  0  0  0  0  0  0  0  0  0  0  0
    1.7852    3.4755   -1.2403 H   0  0  0  0  0  0  0  0  0  0  0  0
    3.4097   -0.5184   -0.4274 H   0  0  0  0  0  0  0  0  0  0  0  0
    3.7255   -0.3073   -2.2439 H   0  0  0  0  0  0  0  0  0  0  0  0
    1.1267    0.8993   -0.6512 H   0  0  0  0  0  0  0  0  0  0  0  0
    1.8764   -0.4653    0.3658 H   0  0  0  0  0  0  0  0  0  0  0  0
   -2.8990   -2.2096    0.9118 H   0  0  0  0  0  0  0  0  0  0  0  0
   -3.3834   -0.8951   -0.1614 H   0  0  0  0  0  0  0  0  0  0  0  0
   -4.1664   -0.1336    1.8496 H   0  0  0  0  0  0  0  0  0  0  0  0
   -2.5392    0.6932    1.7174 H   0  0  0  0  0  0  0  0  0  0  0  0
   -2.6398   -0.7225    2.7577 H   0  0  0  0  0  0  0  0  0  0  0  0
  1  2  3  0
  2  3  1  0
  3  4  1  0
  4  5  1  0
  5  6  1  0
  6  7  3  0
  7  8  1  0
  8  9  1  0
  1 10  1  0
  3 11  1  0
  3 12  1  0
  5 13  1  0
  5 14  1  0
  8 15  1  0
  8 16  1  0
  9 17  1  0
  9 18  1  0
  9 19  1  0
M  END
