
     RDKit          3D

 12 11  0  0  0  0  0  0  0  0999 V2000
    0.5333   -1.9830    1.4856 C   0  0  0  0  0  0  0  0  0  0  0  0
   -0.0514   -1.0620    0.8194 C   0  0  0  0  0  0  0  0  0  0  0  0
   -0.7149   -0.0388    0.1002 C   0  0  0  0  0  0  0  0  0  0  0  0
   -1.0365   -0.4789   -1.2014 O   0  0  0  0  0  0  0  0  0  0  0  0
    0.1447    1.2094    0.0132 C   0  0  0  0  0  0  0  0  0  0  0  0
    1.3301    1.0203   -0.6624 O   0  0  0  0  0  0  0  0  0  0  0  0
    1.0148   -2.7129    2.0307 H   0  0  0  0  0  0  0  0  0  0  0  0
   -1.6485    0.2738    0.6467 H   0  0  0  0  0  0  0  0  0  0  0  0
   -0.8321   -1.4429   -1.3024 H   0  0  0  0  0  0  0  0  0  0  0  0
    0.3642    1.5335    1.0519 H   0  0  0  0  0  0  0  0  0  0  0  0
   -0.4607    2.0299   -0.4731 H   0  0  0  0  0  0  0  0  0  0  0  0
    1.3571    1.6515   -1.4500 H   0  0  0  0  0  0  0  0  0  0  0  0
  1  2  3  0
  2  3  1  0
  3  4  1  0
  3  5  1  0
  5  6  1  0
  1  7  1  0
  3  8  1  0
  4  9  1  0
  5 10  1  0
  5 11  1  0
  6 12  1  0
M  END
