
     RDKit          3D

 19 19  0  0  0  0  0  0  0  0999 V2000
    2.8622   -0.5758   -0.3630 C   0  0  0  0  0  0  0  0  0  0  0  0
    1.8377   -0.2557   -0.9639 C   0  0  0  0  0  0  0  0  0  0  0  0
    0.6225    0.1109   -1.6870 C   0  0  0  0  0  0  0  0  0  0  0  0
   -0.4966    0.4637   -0.7427 C   0  0  0  0  0  0  0  0  0  0  0  0
   -1.0152   -0.4857    0.2397 C   0  0  0  0  0  0  0  0  0  0  0  0
   -0.4600   -1.8915    0.3328 C   0  0  0  0  0  0  0  0  0  0  0  0
   -0.1979    0.6726    0.7167 C   0  0  0  0  0  0  0  0  0  0  0  0
   -0.9603    1.7746    1.3737 C   0  0  0  0  0  0  0  0  0  0  0  0
   -1.5745    2.6505    1.8765 C   0  0  0  0  0  0  0  0  0  0  0  0
    3.7488   -0.8444    0.1405 H   0  0  0  0  0  0  0  0  0  0  0  0
    0.9150    1.0103   -2.3074 H   0  0  0  0  0  0  0  0  0  0  0  0
    0.3582   -0.7008   -2.3862 H   0  0  0  0  0  0  0  0  0  0  0  0
   -1.2192    1.1972   -1.1987 H   0  0  0  0  0  0  0  0  0  0  0  0
   -2.1052   -0.4340    0.4556 H   0  0  0  0  0  0  0  0  0  0  0  0
   -1.0870   -2.4785    1.0646 H   0  0  0  0  0  0  0  0  0  0  0  0
    0.5581   -1.9115    0.7680 H   0  0  0  0  0  0  0  0  0  0  0  0
   -0.5042   -2.3315   -0.6828 H   0  0  0  0  0  0  0  0  0  0  0  0
    0.8523    0.5757    1.0061 H   0  0  0  0  0  0  0  0  0  0  0  0
   -2.1348    3.4536    2.3576 H   0  0  0  0  0  0  0  0  0  0  0  0
  1  2  3  0
  2  3  1  0
  3  4  1  0
  4  5  1  0
  5  6  1  0
  5  7  1  0
  7  8  1  0
  8  9  3  0
  7  4  1  0
  1 10  1  0
  3 11  1  0
  3 12  1  0
  4 13  1  0
  5 14  1  0
  6 15  1  0
  6 16  1  0
  6 17  1  0
  7 18  1  0
  9 19  1  0
M  END
