
     RDKit          3D

 19 18  0  0  0  0  0  0  0  0999 V2000
    2.6269    0.2969    1.5496 C   0  0  0  0  0  0  0  0  0  0  0  0
    1.0497    0.3984    1.3414 C   0  0  0  0  0  0  0  0  0  0  0  0
   -0.4987    0.5017    1.1643 C   0  0  0  0  0  0  0  0  0  0  0  0
   -0.3343   -0.1461   -0.2705 C   0  0  0  0  0  0  0  0  0  0  0  0
    0.7999    0.4169   -0.9788 C   0  0  0  0  0  0  0  0  0  0  0  0
   -0.5635   -1.5244    0.0669 C   0  0  0  0  0  0  0  0  0  0  0  0
   -1.6229    0.5795   -0.9372 C   0  0  0  0  0  0  0  0  0  0  0  0
    3.8605    0.2301    1.7051 H   0  0  0  0  0  0  0  0  0  0  0  0
   -0.3896    1.6467    0.9674 H   0  0  0  0  0  0  0  0  0  0  0  0
   -0.7841    0.0549    1.9573 H   0  0  0  0  0  0  0  0  0  0  0  0
    1.7425   -0.2899   -0.6685 H   0  0  0  0  0  0  0  0  0  0  0  0
    0.7602    0.4513   -2.0571 H   0  0  0  0  0  0  0  0  0  0  0  0
    1.2118    1.4179   -0.5125 H   0  0  0  0  0  0  0  0  0  0  0  0
   -1.2277   -2.0669   -0.7655 H   0  0  0  0  0  0  0  0  0  0  0  0
   -1.2675   -1.6121    1.0070 H   0  0  0  0  0  0  0  0  0  0  0  0
    0.2982   -2.2043    0.2907 H   0  0  0  0  0  0  0  0  0  0  0  0
   -1.8891   -0.1698   -1.7629 H   0  0  0  0  0  0  0  0  0  0  0  0
   -2.4434    0.4885   -0.2483 H   0  0  0  0  0  0  0  0  0  0  0  0
   -1.3287    1.5307   -1.3311 H   0  0  0  0  0  0  0  0  0  0  0  0
  1  2  3  0
  2  3  1  0
  3  4  1  0
  4  5  1  0
  4  6  1  0
  4  7  1  0
  1  8  1  0
  3  9  1  0
  3 10  1  0
  5 11  1  0
  5 12  1  0
  5 13  1  0
  6 14  1  0
  6 15  1  0
  6 16  1  0
  7 17  1  0
  7 18  1  0
  7 19  1  0
M  END
