
     RDKit          3D

 17 17  0  0  0  0  0  0  0  0999 V2000
    0.6996    2.9069   -1.4419 C   0  0  0  0  0  0  0  0  0  0  0  0
    0.3527    2.0484   -0.5277 C   0  0  0  0  0  0  0  0  0  0  0  0
   -0.0519    1.1064    0.4695 C   0  0  0  0  0  0  0  0  0  0  0  0
    1.0837    0.2972    0.9383 C   0  0  0  0  0  0  0  0  0  0  0  0
    1.0321   -0.9209    0.4493 C   0  0  0  0  0  0  0  0  0  0  0  0
   -0.1516   -1.0587   -0.4263 C   0  0  0  0  0  0  0  0  0  0  0  0
   -0.8399   -2.3557   -0.2811 C   0  0  0  0  0  0  0  0  0  0  0  0
   -0.4219   -3.1253    0.6289 O   0  0  0  0  0  0  0  0  0  0  0  0
   -1.0087    0.1179   -0.0973 C   0  0  0  0  0  0  0  0  0  0  0  0
    0.9706    3.6077   -2.1640 H   0  0  0  0  0  0  0  0  0  0  0  0
   -0.5477    1.6681    1.3379 H   0  0  0  0  0  0  0  0  0  0  0  0
    1.8492    0.6983    1.6041 H   0  0  0  0  0  0  0  0  0  0  0  0
    1.7378   -1.7483    0.6562 H   0  0  0  0  0  0  0  0  0  0  0  0
    0.2380   -0.9762   -1.4745 H   0  0  0  0  0  0  0  0  0  0  0  0
   -1.6410   -2.7118   -0.8518 H   0  0  0  0  0  0  0  0  0  0  0  0
   -1.7404   -0.1104    0.7226 H   0  0  0  0  0  0  0  0  0  0  0  0
   -1.5605    0.5565   -0.9727 H   0  0  0  0  0  0  0  0  0  0  0  0
  1  2  3  0
  2  3  1  0
  3  4  1  0
  4  5  2  0
  5  6  1  0
  6  7  1  0
  7  8  2  0
  6  9  1  0
  9  3  1  0
  1 10  1  0
  3 11  1  0
  4 12  1  0
  5 13  1  0
  6 14  1  0
  7 15  1  0
  9 16  1  0
  9 17  1  0
M  END
