
     RDKit          3D

 21 21  0  0  0  0  0  0  0  0999 V2000
   -2.6050    0.2277    2.6681 C   0  0  0  0  0  0  0  0  0  0  0  0
   -1.9090    0.0093    1.7086 C   0  0  0  0  0  0  0  0  0  0  0  0
   -1.0547   -0.2718    0.5031 C   0  0  0  0  0  0  0  0  0  0  0  0
   -1.6774    0.5764   -0.5936 C   0  0  0  0  0  0  0  0  0  0  0  0
    0.3292    0.1412    0.8364 C   0  0  0  0  0  0  0  0  0  0  0  0
    1.4122   -0.0353   -0.1243 C   0  0  0  0  0  0  0  0  0  0  0  0
    2.6689    0.4211    0.3766 O   0  0  0  0  0  0  0  0  0  0  0  0
    1.5511   -1.1899   -1.0334 C   0  0  0  0  0  0  0  0  0  0  0  0
    1.2846    0.2026   -1.5941 C   0  0  0  0  0  0  0  0  0  0  0  0
   -3.2227    0.4328    3.5022 H   0  0  0  0  0  0  0  0  0  0  0  0
   -1.1564   -1.3532    0.3364 H   0  0  0  0  0  0  0  0  0  0  0  0
   -1.8491   -0.0517   -1.4856 H   0  0  0  0  0  0  0  0  0  0  0  0
   -2.7302    0.9022   -0.3012 H   0  0  0  0  0  0  0  0  0  0  0  0
   -1.1528    1.5178   -0.7819 H   0  0  0  0  0  0  0  0  0  0  0  0
    0.6067   -0.4524    1.7702 H   0  0  0  0  0  0  0  0  0  0  0  0
    0.3539    1.1951    1.2309 H   0  0  0  0  0  0  0  0  0  0  0  0
    3.3514    0.2623   -0.3045 H   0  0  0  0  0  0  0  0  0  0  0  0
    2.5540   -1.6074   -1.2375 H   0  0  0  0  0  0  0  0  0  0  0  0
    0.7414   -1.9195   -1.1954 H   0  0  0  0  0  0  0  0  0  0  0  0
    0.3539    0.3480   -2.1268 H   0  0  0  0  0  0  0  0  0  0  0  0
    2.1502    0.6447   -2.1542 H   0  0  0  0  0  0  0  0  0  0  0  0
  1  2  3  0
  2  3  1  0
  3  4  1  0
  3  5  1  0
  5  6  1  0
  6  7  1  0
  6  8  1  0
  8  9  1  0
  9  6  1  0
  1 10  1  0
  3 11  1  0
  4 12  1  0
  4 13  1  0
  4 14  1  0
  5 15  1  0
  5 16  1  0
  7 17  1  0
  8 18  1  0
  8 19  1  0
  9 20  1  0
  9 21  1  0
M  END
