
     RDKit          3D

 17 18  0  0  0  0  0  0  0  0999 V2000
    2.8557    1.0214    0.7873 C   0  0  0  0  0  0  0  0  0  0  0  0
    1.8142    0.8938    0.2198 C   0  0  0  0  0  0  0  0  0  0  0  0
    0.5423    0.7574   -0.4731 C   0  0  0  0  0  0  0  0  0  0  0  0
   -0.6159    1.1263    0.3914 C   0  0  0  0  0  0  0  0  0  0  0  0
   -0.8033    2.1729    0.9362 O   0  0  0  0  0  0  0  0  0  0  0  0
   -1.4233   -0.0838    0.3921 C   0  0  0  0  0  0  0  0  0  0  0  0
   -0.3492   -1.1422    0.6934 C   0  0  0  0  0  0  0  0  0  0  0  0
    0.1905   -0.6917   -0.6701 C   0  0  0  0  0  0  0  0  0  0  0  0
   -1.2912   -0.5922   -1.0482 C   0  0  0  0  0  0  0  0  0  0  0  0
    3.7853    1.1319    1.3146 H   0  0  0  0  0  0  0  0  0  0  0  0
    0.5006    1.2688   -1.4351 H   0  0  0  0  0  0  0  0  0  0  0  0
   -2.3518   -0.1658    0.8736 H   0  0  0  0  0  0  0  0  0  0  0  0
   -0.7324   -2.1604    0.6982 H   0  0  0  0  0  0  0  0  0  0  0  0
    0.2743   -0.8212    1.5501 H   0  0  0  0  0  0  0  0  0  0  0  0
    0.8114   -1.3444   -1.2130 H   0  0  0  0  0  0  0  0  0  0  0  0
   -1.7751   -1.5658   -1.2300 H   0  0  0  0  0  0  0  0  0  0  0  0
   -1.4323    0.1950   -1.7873 H   0  0  0  0  0  0  0  0  0  0  0  0
  1  2  3  0
  2  3  1  0
  3  4  1  0
  4  5  2  0
  4  6  1  0
  6  7  1  0
  7  8  1  0
  8  9  1  0
  8  3  1  0
  9  6  1  0
  1 10  1  0
  3 11  1  0
  6 12  1  0
  7 13  1  0
  7 14  1  0
  8 15  1  0
  9 16  1  0
  9 17  1  0
M  END
