
     RDKit          3D

 21 21  0  0  0  0  0  0  0  0999 V2000
    2.3111   -1.3793    2.0817 C   0  0  0  0  0  0  0  0  0  0  0  0
    1.6186   -0.9793    1.1794 C   0  0  0  0  0  0  0  0  0  0  0  0
    0.7919   -0.4820    0.0622 C   0  0  0  0  0  0  0  0  0  0  0  0
    1.5915   -0.3358   -1.1931 C   0  0  0  0  0  0  0  0  0  0  0  0
   -0.2946   -1.3411   -0.1120 O   0  0  0  0  0  0  0  0  0  0  0  0
   -1.1047   -0.4131    0.5485 C   0  0  0  0  0  0  0  0  0  0  0  0
   -2.4157   -0.2614   -0.1289 C   0  0  0  0  0  0  0  0  0  0  0  0
   -0.1058    0.6732    0.4144 C   0  0  0  0  0  0  0  0  0  0  0  0
   -0.3189    1.7021   -0.6403 C   0  0  0  0  0  0  0  0  0  0  0  0
    2.9308   -1.7346    2.8635 H   0  0  0  0  0  0  0  0  0  0  0  0
    0.8881   -0.5089   -2.0551 H   0  0  0  0  0  0  0  0  0  0  0  0
    2.0790    0.6357   -1.3166 H   0  0  0  0  0  0  0  0  0  0  0  0
    2.3012   -1.1960   -1.2359 H   0  0  0  0  0  0  0  0  0  0  0  0
   -1.2034   -0.7175    1.6303 H   0  0  0  0  0  0  0  0  0  0  0  0
   -3.2118   -0.1167    0.6588 H   0  0  0  0  0  0  0  0  0  0  0  0
   -2.6961   -1.2483   -0.6036 H   0  0  0  0  0  0  0  0  0  0  0  0
   -2.5124    0.5714   -0.8181 H   0  0  0  0  0  0  0  0  0  0  0  0
    0.2566    1.1476    1.3522 H   0  0  0  0  0  0  0  0  0  0  0  0
   -0.7706    1.3275   -1.5639 H   0  0  0  0  0  0  0  0  0  0  0  0
   -0.8356    2.5666   -0.1904 H   0  0  0  0  0  0  0  0  0  0  0  0
    0.7009    2.0900   -0.9329 H   0  0  0  0  0  0  0  0  0  0  0  0
  1  2  3  0
  2  3  1  0
  3  4  1  0
  3  5  1  0
  5  6  1  0
  6  7  1  0
  6  8  1  0
  8  9  1  0
  8  3  1  0
  1 10  1  0
  4 11  1  0
  4 12  1  0
  4 13  1  0
  6 14  1  0
  7 15  1  0
  7 16  1  0
  7 17  1  0
  8 18  1  0
  9 19  1  0
  9 20  1  0
  9 21  1  0
M  END
