
     RDKit          3D

 23 23  0  0  0  0  0  0  0  0999 V2000
    1.7314   -0.2275   -2.6140 C   0  0  0  0  0  0  0  0  0  0  0  0
    0.9387   -0.5091   -1.6665 C   0  0  0  0  0  0  0  0  0  0  0  0
    0.0314   -0.8494   -0.5752 C   0  0  0  0  0  0  0  0  0  0  0  0
   -1.3601   -0.6294   -1.0540 C   0  0  0  0  0  0  0  0  0  0  0  0
   -2.0342    0.1203    0.0761 C   0  0  0  0  0  0  0  0  0  0  0  0
   -0.9125    0.9428    0.6798 C   0  0  0  0  0  0  0  0  0  0  0  0
    0.2895    0.0932    0.5338 C   0  0  0  0  0  0  0  0  0  0  0  0
    0.6119   -0.6763    1.8067 C   0  0  0  0  0  0  0  0  0  0  0  0
    1.4897    0.9934    0.2902 C   0  0  0  0  0  0  0  0  0  0  0  0
    2.3576   -0.0015   -3.3901 H   0  0  0  0  0  0  0  0  0  0  0  0
    0.2068   -1.9258   -0.2778 H   0  0  0  0  0  0  0  0  0  0  0  0
   -1.3819   -0.0218   -2.0055 H   0  0  0  0  0  0  0  0  0  0  0  0
   -1.9050   -1.5590   -1.2932 H   0  0  0  0  0  0  0  0  0  0  0  0
   -2.4811   -0.5511    0.8313 H   0  0  0  0  0  0  0  0  0  0  0  0
   -2.8317    0.7501   -0.3497 H   0  0  0  0  0  0  0  0  0  0  0  0
   -0.8006    1.8534    0.0581 H   0  0  0  0  0  0  0  0  0  0  0  0
   -1.1358    1.2462    1.7216 H   0  0  0  0  0  0  0  0  0  0  0  0
    0.9569   -0.0400    2.6219 H   0  0  0  0  0  0  0  0  0  0  0  0
   -0.3679   -1.1093    2.1355 H   0  0  0  0  0  0  0  0  0  0  0  0
    1.2535   -1.5404    1.5665 H   0  0  0  0  0  0  0  0  0  0  0  0
    1.2205    1.8547   -0.3297 H   0  0  0  0  0  0  0  0  0  0  0  0
    2.3438    0.3974   -0.0608 H   0  0  0  0  0  0  0  0  0  0  0  0
    1.7790    1.3891    1.2951 H   0  0  0  0  0  0  0  0  0  0  0  0
  1  2  3  0
  2  3  1  0
  3  4  1  0
  4  5  1  0
  5  6  1  0
  6  7  1  0
  7  8  1  0
  7  9  1  0
  7  3  1  0
  1 10  1  0
  3 11  1  0
  4 12  1  0
  4 13  1  0
  5 14  1  0
  5 15  1  0
  6 16  1  0
  6 17  1  0
  8 18  1  0
  8 19  1  0
  8 20  1  0
  9 21  1  0
  9 22  1  0
  9 23  1  0
M  END
