
     RDKit          3D

 14 13  0  0  0  0  0  0  0  0999 V2000
    1.7062    1.5505   -0.9675 C   0  0  0  0  0  0  0  0  0  0  0  0
    0.9640    0.8664   -0.2767 C   0  0  0  0  0  0  0  0  0  0  0  0
    0.0982    0.0347    0.5529 C   0  0  0  0  0  0  0  0  0  0  0  0
   -1.2753    0.5990    0.4871 C   0  0  0  0  0  0  0  0  0  0  0  0
    0.2265   -1.4040    0.2115 C   0  0  0  0  0  0  0  0  0  0  0  0
   -0.1236   -1.6380   -1.1220 O   0  0  0  0  0  0  0  0  0  0  0  0
    2.3422    2.1341   -1.5364 H   0  0  0  0  0  0  0  0  0  0  0  0
    0.4648    0.1296    1.6348 H   0  0  0  0  0  0  0  0  0  0  0  0
   -1.3742    1.2858   -0.3971 H   0  0  0  0  0  0  0  0  0  0  0  0
   -2.0251   -0.2133    0.3661 H   0  0  0  0  0  0  0  0  0  0  0  0
   -1.5622    1.2058    1.3911 H   0  0  0  0  0  0  0  0  0  0  0  0
   -0.3486   -2.0826    0.8854 H   0  0  0  0  0  0  0  0  0  0  0  0
    1.2992   -1.6678    0.3545 H   0  0  0  0  0  0  0  0  0  0  0  0
   -0.3921   -0.8003   -1.5838 H   0  0  0  0  0  0  0  0  0  0  0  0
  1  2  3  0
  2  3  1  0
  3  4  1  0
  3  5  1  0
  5  6  1  0
  1  7  1  0
  3  8  1  0
  4  9  1  0
  4 10  1  0
  4 11  1  0
  5 12  1  0
  5 13  1  0
  6 14  1  0
M  END
