
     RDKit          3D

 17 19  0  0  0  0  0  0  0  0999 V2000
    3.7599    0.0396    0.1248 C   0  0  0  0  0  0  0  0  0  0  0  0
    2.5116   -0.1158    0.0387 C   0  0  0  0  0  0  0  0  0  0  0  0
    1.0903   -0.3180   -0.0562 C   0  0  0  0  0  0  0  0  0  0  0  0
    0.3948   -1.3981   -0.3647 C   0  0  0  0  0  0  0  0  0  0  0  0
   -1.0044   -0.8828   -0.4156 C   0  0  0  0  0  0  0  0  0  0  0  0
   -0.9390    0.4974   -0.9100 C   0  0  0  0  0  0  0  0  0  0  0  0
   -1.9820    0.8518    0.1196 C   0  0  0  0  0  0  0  0  0  0  0  0
   -1.0392   -0.0627    0.8514 C   0  0  0  0  0  0  0  0  0  0  0  0
    0.0533    0.7051    0.1976 C   0  0  0  0  0  0  0  0  0  0  0  0
    4.8384    0.1578    0.1888 H   0  0  0  0  0  0  0  0  0  0  0  0
    0.7195   -2.4138   -0.5325 H   0  0  0  0  0  0  0  0  0  0  0  0
   -1.7973   -1.5520   -0.6239 H   0  0  0  0  0  0  0  0  0  0  0  0
   -0.8929    0.8523   -1.8454 H   0  0  0  0  0  0  0  0  0  0  0  0
   -2.9916    0.4726   -0.0570 H   0  0  0  0  0  0  0  0  0  0  0  0
   -1.9064    1.9128    0.4174 H   0  0  0  0  0  0  0  0  0  0  0  0
   -1.1256   -0.4258    1.7791 H   0  0  0  0  0  0  0  0  0  0  0  0
    0.3105    1.6796    0.5251 H   0  0  0  0  0  0  0  0  0  0  0  0
  1  2  3  0
  2  3  1  0
  3  4  2  0
  4  5  1  0
  5  6  1  0
  6  7  1  0
  7  8  1  0
  8  9  1  0
  9  3  1  0
  8  5  1  0
  9  6  1  0
  1 10  1  0
  4 11  1  0
  5 12  1  0
  6 13  1  0
  7 14  1  0
  7 15  1  0
  8 16  1  0
  9 17  1  0
M  END
