
     RDKit          3D

 11 11  0  0  0  0  0  0  0  0999 V2000
    2.4476    0.0961   -0.4750 C   0  0  0  0  0  0  0  0  0  0  0  0
    1.2897    0.1504   -0.1262 C   0  0  0  0  0  0  0  0  0  0  0  0
   -0.1109    0.2057    0.2836 C   0  0  0  0  0  0  0  0  0  0  0  0
   -0.9458   -0.9374   -0.2973 C   0  0  0  0  0  0  0  0  0  0  0  0
   -1.0042   -0.1076   -1.4667 O   0  0  0  0  0  0  0  0  0  0  0  0
   -0.9970    0.9762   -0.6093 C   0  0  0  0  0  0  0  0  0  0  0  0
   -1.5471    2.0905   -0.6677 O   0  0  0  0  0  0  0  0  0  0  0  0
    3.4745    0.0304   -0.7779 H   0  0  0  0  0  0  0  0  0  0  0  0
   -0.2387    0.3535    1.3556 H   0  0  0  0  0  0  0  0  0  0  0  0
   -0.4211   -1.8832   -0.4223 H   0  0  0  0  0  0  0  0  0  0  0  0
   -1.9469   -0.9745    0.1677 H   0  0  0  0  0  0  0  0  0  0  0  0
  1  2  3  0
  2  3  1  0
  3  4  1  0
  4  5  1  0
  5  6  1  0
  6  7  2  0
  6  3  1  0
  1  8  1  0
  3  9  1  0
  4 10  1  0
  4 11  1  0
M  END
