
     RDKit          3D

 21 20  0  0  0  0  0  0  0  0999 V2000
    0.6485    2.3108   -1.5480 C   0  0  0  0  0  0  0  0  0  0  0  0
    0.4132    1.2383   -1.4906 C   0  0  0  0  0  0  0  0  0  0  0  0
    0.1061   -0.2884   -1.4036 C   0  0  0  0  0  0  0  0  0  0  0  0
   -0.0806   -0.5813    0.0247 C   0  0  0  0  0  0  0  0  0  0  0  0
   -1.2877    0.1674    0.5656 C   0  0  0  0  0  0  0  0  0  0  0  0
   -2.5146   -0.3447   -0.1316 C   0  0  0  0  0  0  0  0  0  0  0  0
    1.0874   -0.1499    0.8489 C   0  0  0  0  0  0  0  0  0  0  0  0
    2.3283   -0.7197    0.4732 C   0  0  0  0  0  0  0  0  0  0  0  0
    3.4858   -1.2423    0.1445 C   0  0  0  0  0  0  0  0  0  0  0  0
    0.8771    3.3957   -1.6211 H   0  0  0  0  0  0  0  0  0  0  0  0
   -0.8061   -0.3789   -1.9980 H   0  0  0  0  0  0  0  0  0  0  0  0
    0.9285   -0.8032   -1.9255 H   0  0  0  0  0  0  0  0  0  0  0  0
   -0.2195   -1.6865    0.1792 H   0  0  0  0  0  0  0  0  0  0  0  0
   -1.3834    0.1235    1.6666 H   0  0  0  0  0  0  0  0  0  0  0  0
   -1.1584    1.2629    0.3265 H   0  0  0  0  0  0  0  0  0  0  0  0
   -3.1512    0.5502   -0.4065 H   0  0  0  0  0  0  0  0  0  0  0  0
   -3.2060   -0.9140    0.5639 H   0  0  0  0  0  0  0  0  0  0  0  0
   -2.2788   -0.9326   -1.0123 H   0  0  0  0  0  0  0  0  0  0  0  0
    0.8264   -0.3944    1.9196 H   0  0  0  0  0  0  0  0  0  0  0  0
    1.1370    0.9825    0.9051 H   0  0  0  0  0  0  0  0  0  0  0  0
    4.2480   -1.5956   -0.0802 H   0  0  0  0  0  0  0  0  0  0  0  0
  1  2  3  0
  2  3  1  0
  3  4  1  0
  4  5  1  0
  5  6  1  0
  4  7  1  0
  7  8  1  0
  8  9  3  0
  1 10  1  0
  3 11  1  0
  3 12  1  0
  4 13  1  0
  5 14  1  0
  5 15  1  0
  6 16  1  0
  6 17  1  0
  6 18  1  0
  7 19  1  0
  7 20  1  0
  9 21  1  0
M  END
