
     RDKit          3D

 17 18  0  0  0  0  0  0  0  0999 V2000
    1.9196   -1.9579    0.0217 C   0  0  0  0  0  0  0  0  0  0  0  0
    1.4023   -0.8339    0.0096 C   0  0  0  0  0  0  0  0  0  0  0  0
    0.7928    0.5390   -0.0219 C   0  0  0  0  0  0  0  0  0  0  0  0
    1.6306    1.5751    0.5844 C   0  0  0  0  0  0  0  0  0  0  0  0
    2.4733    2.2635   -0.0583 O   0  0  0  0  0  0  0  0  0  0  0  0
   -0.4041    0.7264   -0.8391 C   0  0  0  0  0  0  0  0  0  0  0  0
   -1.4108   -0.3656   -1.0324 C   0  0  0  0  0  0  0  0  0  0  0  0
   -1.3888   -0.7787    0.4293 C   0  0  0  0  0  0  0  0  0  0  0  0
   -0.5567    0.4848    0.6594 C   0  0  0  0  0  0  0  0  0  0  0  0
    2.3432   -2.9143    0.0425 H   0  0  0  0  0  0  0  0  0  0  0  0
    1.5666    1.8578    1.6802 H   0  0  0  0  0  0  0  0  0  0  0  0
   -0.6664    1.6871   -1.2927 H   0  0  0  0  0  0  0  0  0  0  0  0
   -1.0769   -1.1684   -1.7721 H   0  0  0  0  0  0  0  0  0  0  0  0
   -2.4260   -0.0141   -1.2827 H   0  0  0  0  0  0  0  0  0  0  0  0
   -2.3361   -0.6980    0.9541 H   0  0  0  0  0  0  0  0  0  0  0  0
   -0.9366   -1.7298    0.6869 H   0  0  0  0  0  0  0  0  0  0  0  0
   -0.9262    1.3273    1.2310 H   0  0  0  0  0  0  0  0  0  0  0  0
  1  2  3  0
  2  3  1  0
  3  4  1  0
  4  5  2  0
  3  6  1  0
  6  7  1  0
  7  8  1  0
  8  9  1  0
  9  3  1  0
  9  6  1  0
  1 10  1  0
  4 11  1  0
  6 12  1  0
  7 13  1  0
  7 14  1  0
  8 15  1  0
  8 16  1  0
  9 17  1  0
M  END
