
     RDKit          3D

 16 16  0  0  0  0  0  0  0  0999 V2000
    2.6158   -0.7338    2.1288 C   0  0  0  0  0  0  0  0  0  0  0  0
    1.6799   -0.4551    1.4203 C   0  0  0  0  0  0  0  0  0  0  0  0
    0.5718   -0.1286    0.5513 C   0  0  0  0  0  0  0  0  0  0  0  0
   -0.5166    0.5703    0.8157 C   0  0  0  0  0  0  0  0  0  0  0  0
   -1.3853    0.6517   -0.3837 C   0  0  0  0  0  0  0  0  0  0  0  0
   -2.1842   -0.4911   -0.4746 O   0  0  0  0  0  0  0  0  0  0  0  0
   -0.2962    0.5661   -1.4698 C   0  0  0  0  0  0  0  0  0  0  0  0
    0.4962   -0.5727   -0.8668 C   0  0  0  0  0  0  0  0  0  0  0  0
    3.4396   -0.9982    2.7532 H   0  0  0  0  0  0  0  0  0  0  0  0
   -0.7302    1.0115    1.7675 H   0  0  0  0  0  0  0  0  0  0  0  0
   -1.9455    1.5759   -0.4649 H   0  0  0  0  0  0  0  0  0  0  0  0
   -2.6407   -0.6794    0.3865 H   0  0  0  0  0  0  0  0  0  0  0  0
    0.2821    1.5160   -1.4289 H   0  0  0  0  0  0  0  0  0  0  0  0
   -0.7226    0.3495   -2.4417 H   0  0  0  0  0  0  0  0  0  0  0  0
    1.4865   -0.6987   -1.3247 H   0  0  0  0  0  0  0  0  0  0  0  0
   -0.1504   -1.4835   -0.9684 H   0  0  0  0  0  0  0  0  0  0  0  0
  1  2  3  0
  2  3  1  0
  3  4  2  0
  4  5  1  0
  5  6  1  0
  5  7  1  0
  7  8  1  0
  8  3  1  0
  1  9  1  0
  4 10  1  0
  5 11  1  0
  6 12  1  0
  7 13  1  0
  7 14  1  0
  8 15  1  0
  8 16  1  0
M  END
