
     RDKit          3D

 15 15  0  0  0  0  0  0  0  0999 V2000
    3.1962    0.5281   -0.1326 C   0  0  0  0  0  0  0  0  0  0  0  0
    1.9970    0.4148   -0.0484 C   0  0  0  0  0  0  0  0  0  0  0  0
    0.5701    0.2797    0.0555 C   0  0  0  0  0  0  0  0  0  0  0  0
   -0.1391    1.3536    0.3243 C   0  0  0  0  0  0  0  0  0  0  0  0
   -1.5727    1.2085    0.4269 C   0  0  0  0  0  0  0  0  0  0  0  0
   -2.2832    2.2089    0.6818 O   0  0  0  0  0  0  0  0  0  0  0  0
   -2.1565   -0.0071    0.2487 O   0  0  0  0  0  0  0  0  0  0  0  0
   -1.4340   -1.2163    0.1690 C   0  0  0  0  0  0  0  0  0  0  0  0
    0.0035   -1.0589   -0.1482 C   0  0  0  0  0  0  0  0  0  0  0  0
    4.2538    0.6467   -0.2085 H   0  0  0  0  0  0  0  0  0  0  0  0
    0.3029    2.3454    0.4728 H   0  0  0  0  0  0  0  0  0  0  0  0
   -1.6428   -1.7905    1.1010 H   0  0  0  0  0  0  0  0  0  0  0  0
   -1.9169   -1.8153   -0.6516 H   0  0  0  0  0  0  0  0  0  0  0  0
    0.2161   -1.3354   -1.2227 H   0  0  0  0  0  0  0  0  0  0  0  0
    0.6056   -1.7620    0.4980 H   0  0  0  0  0  0  0  0  0  0  0  0
  1  2  3  0
  2  3  1  0
  3  4  2  0
  4  5  1  0
  5  6  2  0
  5  7  1  0
  7  8  1  0
  8  9  1  0
  9  3  1  0
  1 10  1  0
  4 11  1  0
  8 12  1  0
  8 13  1  0
  9 14  1  0
  9 15  1  0
M  END
