
     RDKit          3D

 15 16  0  0  0  0  0  0  0  0999 V2000
    2.7878    0.3292   -0.8134 C   0  0  0  0  0  0  0  0  0  0  0  0
    1.6354   -0.0831   -0.7651 C   0  0  0  0  0  0  0  0  0  0  0  0
    0.2748   -0.5880   -0.6890 C   0  0  0  0  0  0  0  0  0  0  0  0
    0.1219   -1.5140    0.4983 C   0  0  0  0  0  0  0  0  0  0  0  0
    0.3793   -2.6725    0.6632 O   0  0  0  0  0  0  0  0  0  0  0  0
   -0.4583   -0.3536    1.2823 C   0  0  0  0  0  0  0  0  0  0  0  0
   -0.6881    0.3165   -0.0183 C   0  0  0  0  0  0  0  0  0  0  0  0
   -1.4047    1.3954   -0.4015 C   0  0  0  0  0  0  0  0  0  0  0  0
   -2.0728    0.1115   -0.5350 O   0  0  0  0  0  0  0  0  0  0  0  0
    3.7749    0.7003   -0.8624 H   0  0  0  0  0  0  0  0  0  0  0  0
   -0.0337   -1.0390   -1.6466 H   0  0  0  0  0  0  0  0  0  0  0  0
    0.3044    0.0776    1.9407 H   0  0  0  0  0  0  0  0  0  0  0  0
   -1.3775   -0.6274    1.8332 H   0  0  0  0  0  0  0  0  0  0  0  0
   -1.9308    2.0494    0.3509 H   0  0  0  0  0  0  0  0  0  0  0  0
   -1.3127    1.8977   -1.3781 H   0  0  0  0  0  0  0  0  0  0  0  0
  1  2  3  0
  2  3  1  0
  3  4  1  0
  4  5  2  0
  4  6  1  0
  6  7  1  0
  7  8  1  0
  8  9  1  0
  7  3  1  0
  9  7  1  0
  1 10  1  0
  3 11  1  0
  6 12  1  0
  6 13  1  0
  8 14  1  0
  8 15  1  0
M  END
