
     RDKit          3D

 21 20  0  0  0  0  0  0  0  0999 V2000
   -0.9349    1.8212    1.6891 C   0  0  0  0  0  0  0  0  0  0  0  0
   -0.4183    1.0915    0.7497 C   0  0  0  0  0  0  0  0  0  0  0  0
    0.1163    0.2958   -0.2548 C   0  0  0  0  0  0  0  0  0  0  0  0
   -0.3174    0.9310   -1.6260 C   0  0  0  0  0  0  0  0  0  0  0  0
   -1.5652    0.6148   -1.8746 O   0  0  0  0  0  0  0  0  0  0  0  0
    1.5647    0.2220   -0.2678 C   0  0  0  0  0  0  0  0  0  0  0  0
    2.2418   -0.3310    0.9744 C   0  0  0  0  0  0  0  0  0  0  0  0
   -0.5522   -1.0984   -0.2211 C   0  0  0  0  0  0  0  0  0  0  0  0
   -2.0775   -0.9843   -0.3710 C   0  0  0  0  0  0  0  0  0  0  0  0
   -1.4236    2.5503    2.6138 H   0  0  0  0  0  0  0  0  0  0  0  0
    0.2819    1.4723   -2.1707 H   0  0  0  0  0  0  0  0  0  0  0  0
    1.9203   -0.2177   -1.2158 H   0  0  0  0  0  0  0  0  0  0  0  0
    1.8730    1.3490   -0.3570 H   0  0  0  0  0  0  0  0  0  0  0  0
    1.5432   -0.7356    1.7490 H   0  0  0  0  0  0  0  0  0  0  0  0
    2.9091    0.4268    1.4124 H   0  0  0  0  0  0  0  0  0  0  0  0
    2.9201   -1.1553    0.5588 H   0  0  0  0  0  0  0  0  0  0  0  0
   -0.3961   -1.6241    0.7636 H   0  0  0  0  0  0  0  0  0  0  0  0
   -0.1837   -1.7645   -1.0094 H   0  0  0  0  0  0  0  0  0  0  0  0
   -2.4825    0.0637   -0.1832 H   0  0  0  0  0  0  0  0  0  0  0  0
   -2.5882   -1.6326    0.4159 H   0  0  0  0  0  0  0  0  0  0  0  0
   -2.4310   -1.2949   -1.3753 H   0  0  0  0  0  0  0  0  0  0  0  0
  1  2  3  0
  2  3  1  0
  3  4  1  0
  4  5  2  0
  3  6  1  0
  6  7  1  0
  3  8  1  0
  8  9  1  0
  1 10  1  0
  4 11  1  0
  6 12  1  0
  6 13  1  0
  7 14  1  0
  7 15  1  0
  7 16  1  0
  8 17  1  0
  8 18  1  0
  9 19  1  0
  9 20  1  0
  9 21  1  0
M  END
