
     RDKit          3D

 16 17  0  0  0  0  0  0  0  0999 V2000
    3.0794    0.1962   -1.2025 C   0  0  0  0  0  0  0  0  0  0  0  0
    1.7955    0.0657   -0.8198 C   0  0  0  0  0  0  0  0  0  0  0  0
    0.4862   -0.0845   -0.4301 C   0  0  0  0  0  0  0  0  0  0  0  0
   -0.2949    1.1983   -0.2344 C   0  0  0  0  0  0  0  0  0  0  0  0
   -1.6243    0.5370    0.0883 C   0  0  0  0  0  0  0  0  0  0  0  0
   -1.2367   -0.8757   -0.2357 C   0  0  0  0  0  0  0  0  0  0  0  0
    0.0648   -1.1135    0.5375 C   0  0  0  0  0  0  0  0  0  0  0  0
   -0.3506   -0.7708   -1.3618 O   0  0  0  0  0  0  0  0  0  0  0  0
    4.1392    0.3091   -1.5313 H   0  0  0  0  0  0  0  0  0  0  0  0
    0.0830    1.8453    0.5301 H   0  0  0  0  0  0  0  0  0  0  0  0
   -0.3356    1.7175   -1.2390 H   0  0  0  0  0  0  0  0  0  0  0  0
   -1.8038    0.6674    1.1822 H   0  0  0  0  0  0  0  0  0  0  0  0
   -2.4295    0.9222   -0.5250 H   0  0  0  0  0  0  0  0  0  0  0  0
   -1.9782   -1.6220   -0.2495 H   0  0  0  0  0  0  0  0  0  0  0  0
    0.4409   -2.1077    0.2427 H   0  0  0  0  0  0  0  0  0  0  0  0
   -0.0354   -0.8847    1.5895 H   0  0  0  0  0  0  0  0  0  0  0  0
  1  2  3  0
  2  3  1  0
  3  4  1  0
  4  5  1  0
  5  6  1  0
  6  7  1  0
  6  8  1  0
  7  3  1  0
  8  3  1  0
  1  9  1  0
  4 10  1  0
  4 11  1  0
  5 12  1  0
  5 13  1  0
  6 14  1  0
  7 15  1  0
  7 16  1  0
M  END
