
     RDKit          3D

 12 11  0  0  0  0  0  0  0  0999 V2000
    2.6855   -0.4192    0.3165 C   0  0  0  0  0  0  0  0  0  0  0  0
    1.3345   -0.4249    0.7854 C   0  0  0  0  0  0  0  0  0  0  0  0
    0.4764   -0.4268    1.0666 C   0  0  0  0  0  0  0  0  0  0  0  0
   -0.2607   -0.6132    2.0578 O   0  0  0  0  0  0  0  0  0  0  0  0
   -0.4661    0.0018   -0.2646 C   0  0  0  0  0  0  0  0  0  0  0  0
   -1.7138    0.5100    0.2386 C   0  0  0  0  0  0  0  0  0  0  0  0
    4.4523   -0.3793   -0.2936 H   0  0  0  0  0  0  0  0  0  0  0  0
   -0.5828   -1.0186   -0.7895 H   0  0  0  0  0  0  0  0  0  0  0  0
    0.2190    0.6784   -0.8206 H   0  0  0  0  0  0  0  0  0  0  0  0
   -1.5162    1.1139    1.1286 H   0  0  0  0  0  0  0  0  0  0  0  0
   -2.4805   -0.2830    0.4540 H   0  0  0  0  0  0  0  0  0  0  0  0
   -2.1477    1.2609   -0.5486 H   0  0  0  0  0  0  0  0  0  0  0  0
  1  2  3  0
  2  3  1  0
  3  4  2  0
  3  5  1  0
  5  6  1  0
  1  7  1  0
  5  8  1  0
  5  9  1  0
  6 10  1  0
  6 11  1  0
  6 12  1  0
M  END
