
     RDKit          3D

 13 13  0  0  0  0  0  0  0  0999 V2000
    2.5213   -1.5736    0.3254 C   0  0  0  0  0  0  0  0  0  0  0  0
    1.3115   -1.1058    0.3404 C   0  0  0  0  0  0  0  0  0  0  0  0
   -0.0305   -0.5853    0.3774 C   0  0  0  0  0  0  0  0  0  0  0  0
   -0.8499   -0.5118   -0.8569 C   0  0  0  0  0  0  0  0  0  0  0  0
   -0.2904    0.7676   -0.3533 C   0  0  0  0  0  0  0  0  0  0  0  0
   -1.0652    1.6987    0.4587 C   0  0  0  0  0  0  0  0  0  0  0  0
   -0.6650    2.8391    0.6143 O   0  0  0  0  0  0  0  0  0  0  0  0
    3.4448   -1.9474    0.3068 H   0  0  0  0  0  0  0  0  0  0  0  0
   -0.6273   -0.8157    1.2815 H   0  0  0  0  0  0  0  0  0  0  0  0
   -0.4319   -0.8344   -1.8355 H   0  0  0  0  0  0  0  0  0  0  0  0
   -1.9372   -0.5740   -0.8171 H   0  0  0  0  0  0  0  0  0  0  0  0
    0.6259    1.1602   -0.8120 H   0  0  0  0  0  0  0  0  0  0  0  0
   -2.0062    1.4823    0.9704 H   0  0  0  0  0  0  0  0  0  0  0  0
  1  2  3  0
  2  3  1  0
  3  4  1  0
  4  5  1  0
  5  6  1  0
  6  7  2  0
  5  3  1  0
  1  8  1  0
  3  9  1  0
  4 10  1  0
  4 11  1  0
  5 12  1  0
  6 13  1  0
M  END
