
     RDKit          3D

 19 18  0  0  0  0  0  0  0  0999 V2000
   -1.3282    2.6802    0.8057 C   0  0  0  0  0  0  0  0  0  0  0  0
   -1.3055    1.5009    1.0214 C   0  0  0  0  0  0  0  0  0  0  0  0
   -1.3001    0.0654    1.2968 C   0  0  0  0  0  0  0  0  0  0  0  0
   -0.7148   -0.7347    0.1514 C   0  0  0  0  0  0  0  0  0  0  0  0
   -0.7705   -2.1710    0.5633 C   0  0  0  0  0  0  0  0  0  0  0  0
    0.2196   -2.8810    0.6331 O   0  0  0  0  0  0  0  0  0  0  0  0
    0.5936   -0.4225   -0.1084 O   0  0  0  0  0  0  0  0  0  0  0  0
    0.8448    0.0286   -1.3777 C   0  0  0  0  0  0  0  0  0  0  0  0
    2.3235    0.3281   -1.5049 C   0  0  0  0  0  0  0  0  0  0  0  0
   -1.3670    3.7342    0.6136 H   0  0  0  0  0  0  0  0  0  0  0  0
   -2.3554   -0.2282    1.4680 H   0  0  0  0  0  0  0  0  0  0  0  0
   -0.7206   -0.1862    2.2039 H   0  0  0  0  0  0  0  0  0  0  0  0
   -1.3848   -0.5728   -0.7184 H   0  0  0  0  0  0  0  0  0  0  0  0
   -1.7194   -2.6494    0.8229 H   0  0  0  0  0  0  0  0  0  0  0  0
    0.5182   -0.6831   -2.1799 H   0  0  0  0  0  0  0  0  0  0  0  0
    0.3020    1.0108   -1.4886 H   0  0  0  0  0  0  0  0  0  0  0  0
    2.5249    1.4114   -1.4479 H   0  0  0  0  0  0  0  0  0  0  0  0
    2.7599   -0.0963   -2.4282 H   0  0  0  0  0  0  0  0  0  0  0  0
    2.8798   -0.1341   -0.6411 H   0  0  0  0  0  0  0  0  0  0  0  0
  1  2  3  0
  2  3  1  0
  3  4  1  0
  4  5  1  0
  5  6  2  0
  4  7  1  0
  7  8  1  0
  8  9  1  0
  1 10  1  0
  3 11  1  0
  3 12  1  0
  4 13  1  0
  5 14  1  0
  8 15  1  0
  8 16  1  0
  9 17  1  0
  9 18  1  0
  9 19  1  0
M  END
