
     RDKit          3D

 17 18  0  0  0  0  0  0  0  0999 V2000
    2.8901    1.9188   -0.3246 C   0  0  0  0  0  0  0  0  0  0  0  0
    2.0047    1.0679   -0.5572 C   0  0  0  0  0  0  0  0  0  0  0  0
    0.9883    0.0566   -0.8237 C   0  0  0  0  0  0  0  0  0  0  0  0
    0.3759   -0.6106    0.2601 C   0  0  0  0  0  0  0  0  0  0  0  0
   -0.6533   -1.6623    0.3738 C   0  0  0  0  0  0  0  0  0  0  0  0
   -1.8686   -0.9355    0.4922 O   0  0  0  0  0  0  0  0  0  0  0  0
   -1.6809    0.2822    1.1443 C   0  0  0  0  0  0  0  0  0  0  0  0
   -0.9901    1.2119    0.3202 O   0  0  0  0  0  0  0  0  0  0  0  0
   -0.3757    0.4503   -0.6193 C   0  0  0  0  0  0  0  0  0  0  0  0
    3.6368    2.6318   -0.1373 H   0  0  0  0  0  0  0  0  0  0  0  0
    1.2313   -0.5146   -1.7399 H   0  0  0  0  0  0  0  0  0  0  0  0
    0.6940   -0.2691    1.2902 H   0  0  0  0  0  0  0  0  0  0  0  0
   -0.7224   -2.2076   -0.5889 H   0  0  0  0  0  0  0  0  0  0  0  0
   -0.5350   -2.3363    1.2551 H   0  0  0  0  0  0  0  0  0  0  0  0
   -2.6908    0.6835    1.3408 H   0  0  0  0  0  0  0  0  0  0  0  0
   -1.1843    0.1737    2.1290 H   0  0  0  0  0  0  0  0  0  0  0  0
   -1.1201    0.0593   -1.3591 H   0  0  0  0  0  0  0  0  0  0  0  0
  1  2  3  0
  2  3  1  0
  3  4  1  0
  4  5  1  0
  5  6  1  0
  6  7  1  0
  7  8  1  0
  8  9  1  0
  9  3  1  0
  9  4  1  0
  1 10  1  0
  3 11  1  0
  4 12  1  0
  5 13  1  0
  5 14  1  0
  7 15  1  0
  7 16  1  0
  9 17  1  0
M  END
