
     RDKit          3D

 15 15  0  0  0  0  0  0  0  0999 V2000
    2.9902   -0.4440    0.0381 C   0  0  0  0  0  0  0  0  0  0  0  0
    1.7932   -0.4180   -0.2132 C   0  0  0  0  0  0  0  0  0  0  0  0
    0.3575   -0.3682   -0.4991 C   0  0  0  0  0  0  0  0  0  0  0  0
    0.0090    0.9608   -0.9987 C   0  0  0  0  0  0  0  0  0  0  0  0
    0.7190    1.6697   -1.7499 O   0  0  0  0  0  0  0  0  0  0  0  0
   -1.2961    1.3157   -0.4764 C   0  0  0  0  0  0  0  0  0  0  0  0
   -1.5593    0.5397    0.5543 C   0  0  0  0  0  0  0  0  0  0  0  0
   -0.4447   -0.4049    0.8081 C   0  0  0  0  0  0  0  0  0  0  0  0
   -0.9233   -1.6631    1.0765 O   0  0  0  0  0  0  0  0  0  0  0  0
    4.0289   -0.4669    0.2439 H   0  0  0  0  0  0  0  0  0  0  0  0
    0.0447   -1.2019   -1.1451 H   0  0  0  0  0  0  0  0  0  0  0  0
   -1.9937    2.0751   -0.8192 H   0  0  0  0  0  0  0  0  0  0  0  0
   -2.4549    0.5532    1.1643 H   0  0  0  0  0  0  0  0  0  0  0  0
    0.1988   -0.0935    1.6561 H   0  0  0  0  0  0  0  0  0  0  0  0
   -1.4694   -2.0536    0.3602 H   0  0  0  0  0  0  0  0  0  0  0  0
  1  2  3  0
  2  3  1  0
  3  4  1  0
  4  5  2  0
  4  6  1  0
  6  7  2  0
  7  8  1  0
  8  9  1  0
  8  3  1  0
  1 10  1  0
  3 11  1  0
  6 12  1  0
  7 13  1  0
  8 14  1  0
  9 15  1  0
M  END
