
     RDKit          3D

 15 16  0  0  0  0  0  0  0  0999 V2000
   -2.1735    1.4154    0.1999 C   0  0  0  0  0  0  0  0  0  0  0  0
   -1.2929    0.5415    0.1309 C   0  0  0  0  0  0  0  0  0  0  0  0
   -0.2626   -0.4880    0.0539 C   0  0  0  0  0  0  0  0  0  0  0  0
   -0.2790   -1.6357    1.0197 C   0  0  0  0  0  0  0  0  0  0  0  0
    0.8742   -1.0979    1.5959 O   0  0  0  0  0  0  0  0  0  0  0  0
    1.0293   -0.0442    0.7357 C   0  0  0  0  0  0  0  0  0  0  0  0
    0.9826   -0.2393   -0.7266 C   0  0  0  0  0  0  0  0  0  0  0  0
    0.9590    0.9326   -1.6107 C   0  0  0  0  0  0  0  0  0  0  0  0
    0.5020    2.0275   -1.2542 O   0  0  0  0  0  0  0  0  0  0  0  0
   -2.9011    2.1551    0.2445 H   0  0  0  0  0  0  0  0  0  0  0  0
   -1.1796   -1.5808    1.6562 H   0  0  0  0  0  0  0  0  0  0  0  0
   -0.1336   -2.6114    0.5023 H   0  0  0  0  0  0  0  0  0  0  0  0
    1.0889    0.9530    1.2046 H   0  0  0  0  0  0  0  0  0  0  0  0
    1.4326   -1.1710   -1.1386 H   0  0  0  0  0  0  0  0  0  0  0  0
    1.3536    0.8433   -2.6135 H   0  0  0  0  0  0  0  0  0  0  0  0
  1  2  3  0
  2  3  1  0
  3  4  1  0
  4  5  1  0
  5  6  1  0
  6  7  1  0
  7  8  1  0
  8  9  2  0
  6  3  1  0
  7  3  1  0
  1 10  1  0
  4 11  1  0
  4 12  1  0
  6 13  1  0
  7 14  1  0
  8 15  1  0
M  END
