
     RDKit          3D

 19 19  0  0  0  0  0  0  0  0999 V2000
    1.5229    1.8903   -2.8705 C   0  0  0  0  0  0  0  0  0  0  0  0
    1.3733    1.1878   -2.0709 C   0  0  0  0  0  0  0  0  0  0  0  0
    1.1923    0.2173   -0.9655 C   0  0  0  0  0  0  0  0  0  0  0  0
   -0.1030    0.4554   -0.2476 C   0  0  0  0  0  0  0  0  0  0  0  0
   -1.1653    0.2904   -1.1413 O   0  0  0  0  0  0  0  0  0  0  0  0
   -0.2139   -0.3029    1.0206 C   0  0  0  0  0  0  0  0  0  0  0  0
    0.8759   -0.0434    1.8915 O   0  0  0  0  0  0  0  0  0  0  0  0
   -0.9870   -1.5074    1.2747 C   0  0  0  0  0  0  0  0  0  0  0  0
   -1.5888   -0.1656    1.7028 C   0  0  0  0  0  0  0  0  0  0  0  0
    1.6691    2.6740   -3.7659 H   0  0  0  0  0  0  0  0  0  0  0  0
    2.0292    0.2488   -0.2553 H   0  0  0  0  0  0  0  0  0  0  0  0
    1.2145   -0.8379   -1.3663 H   0  0  0  0  0  0  0  0  0  0  0  0
   -0.1299    1.5717    0.0065 H   0  0  0  0  0  0  0  0  0  0  0  0
   -0.8048   -0.3098   -1.8784 H   0  0  0  0  0  0  0  0  0  0  0  0
    1.2898   -0.9193    2.1308 H   0  0  0  0  0  0  0  0  0  0  0  0
   -0.5777   -2.1433    2.1243 H   0  0  0  0  0  0  0  0  0  0  0  0
   -1.5280   -2.1118    0.5529 H   0  0  0  0  0  0  0  0  0  0  0  0
   -2.4539    0.1715    1.0781 H   0  0  0  0  0  0  0  0  0  0  0  0
   -1.6147    0.0959    2.7795 H   0  0  0  0  0  0  0  0  0  0  0  0
  1  2  3  0
  2  3  1  0
  3  4  1  0
  4  5  1  0
  4  6  1  0
  6  7  1  0
  6  8  1  0
  8  9  1  0
  9  6  1  0
  1 10  1  0
  3 11  1  0
  3 12  1  0
  4 13  1  0
  5 14  1  0
  7 15  1  0
  8 16  1  0
  8 17  1  0
  9 18  1  0
  9 19  1  0
M  END
