
     RDKit          3D

 15 15  0  0  0  0  0  0  0  0999 V2000
    4.1561   -0.5705   -0.2455 C   0  0  0  0  0  0  0  0  0  0  0  0
    2.6419   -0.3071   -0.4466 C   0  0  0  0  0  0  0  0  0  0  0  0
    1.4864   -0.1028   -0.6034 C   0  0  0  0  0  0  0  0  0  0  0  0
    0.3485    0.1092   -0.7652 C   0  0  0  0  0  0  0  0  0  0  0  0
   -0.8808    0.3530   -0.9574 C   0  0  0  0  0  0  0  0  0  0  0  0
   -1.2553    1.2573    0.4815 C   0  0  0  0  0  0  0  0  0  0  0  0
   -1.3880    0.3051    1.4919 O   0  0  0  0  0  0  0  0  0  0  0  0
   -1.5481   -1.1249   -0.4122 C   0  0  0  0  0  0  0  0  0  0  0  0
   -2.1432   -0.1645   -1.0679 O   0  0  0  0  0  0  0  0  0  0  0  0
    5.4359   -0.7738   -0.0886 H   0  0  0  0  0  0  0  0  0  0  0  0
   -0.4910    1.9198    0.4689 H   0  0  0  0  0  0  0  0  0  0  0  0
   -2.3285    1.5644    0.2619 H   0  0  0  0  0  0  0  0  0  0  0  0
   -1.5297    0.7324    2.3600 H   0  0  0  0  0  0  0  0  0  0  0  0
   -1.4001   -1.2893    0.6320 H   0  0  0  0  0  0  0  0  0  0  0  0
   -1.1044   -1.9083   -1.1096 H   0  0  0  0  0  0  0  0  0  0  0  0
  1  2  3  0
  2  3  1  0
  3  4  3  0
  4  5  1  0
  5  6  1  0
  6  7  1  0
  5  8  1  0
  8  9  1  0
  9  5  1  0
  1 10  1  0
  6 11  1  0
  6 12  1  0
  7 13  1  0
  8 14  1  0
  8 15  1  0
M  END
