
     RDKit          3D

 17 19  0  0  0  0  0  0  0  0999 V2000
    2.3582    1.3893    2.6795 C   0  0  0  0  0  0  0  0  0  0  0  0
    1.3831    0.9613    1.7531 C   0  0  0  0  0  0  0  0  0  0  0  0
    0.3489    0.4954    0.7460 C   0  0  0  0  0  0  0  0  0  0  0  0
   -0.7029    0.3716    0.5334 C   0  0  0  0  0  0  0  0  0  0  0  0
   -2.0988    0.0970   -0.0123 C   0  0  0  0  0  0  0  0  0  0  0  0
   -1.1912   -1.1760   -0.6052 C   0  0  0  0  0  0  0  0  0  0  0  0
    0.1909   -1.0786   -1.0139 C   0  0  0  0  0  0  0  0  0  0  0  0
    1.3119   -0.2836   -0.3116 C   0  0  0  0  0  0  0  0  0  0  0  0
   -0.6002    0.1274   -1.1515 C   0  0  0  0  0  0  0  0  0  0  0  0
    3.0794    1.7000    3.3666 H   0  0  0  0  0  0  0  0  0  0  0  0
   -2.3795    0.6973   -0.7950 H   0  0  0  0  0  0  0  0  0  0  0  0
   -2.7968   -0.4657    0.5843 H   0  0  0  0  0  0  0  0  0  0  0  0
   -1.8974   -1.6556   -1.3959 H   0  0  0  0  0  0  0  0  0  0  0  0
    0.4927   -1.6288   -1.9518 H   0  0  0  0  0  0  0  0  0  0  0  0
    1.6700    0.5887   -0.9124 H   0  0  0  0  0  0  0  0  0  0  0  0
    1.9211   -0.8514    0.2871 H   0  0  0  0  0  0  0  0  0  0  0  0
   -1.0895    0.7119   -1.8003 H   0  0  0  0  0  0  0  0  0  0  0  0
  1  2  3  0
  2  3  1  0
  3  4  2  0
  4  5  1  0
  5  6  1  0
  6  7  1  0
  7  8  1  0
  7  9  1  0
  8  3  1  0
  9  4  1  0
  9  6  1  0
  1 10  1  0
  5 11  1  0
  5 12  1  0
  6 13  1  0
  7 14  1  0
  8 15  1  0
  8 16  1  0
  9 17  1  0
M  END
