
     RDKit          3D

 19 20  0  0  0  0  0  0  0  0999 V2000
    3.0782   -1.0916    0.0704 C   0  0  0  0  0  0  0  0  0  0  0  0
    2.1787   -0.2928   -0.1469 C   0  0  0  0  0  0  0  0  0  0  0  0
    1.1074    0.6786   -0.3870 C   0  0  0  0  0  0  0  0  0  0  0  0
    1.4097    1.8249    0.3741 O   0  0  0  0  0  0  0  0  0  0  0  0
   -0.1313    0.1789   -0.0987 C   0  0  0  0  0  0  0  0  0  0  0  0
   -0.8005   -1.0193   -0.7249 C   0  0  0  0  0  0  0  0  0  0  0  0
   -1.8245   -0.4898    0.2395 C   0  0  0  0  0  0  0  0  0  0  0  0
   -1.4601    0.8769   -0.2821 C   0  0  0  0  0  0  0  0  0  0  0  0
   -0.6806   -0.2914    1.1961 C   0  0  0  0  0  0  0  0  0  0  0  0
    3.8544   -1.7710    0.2734 H   0  0  0  0  0  0  0  0  0  0  0  0
    1.2127    1.0116   -1.4494 H   0  0  0  0  0  0  0  0  0  0  0  0
    0.7557    1.9494    1.1132 H   0  0  0  0  0  0  0  0  0  0  0  0
   -0.3527   -1.9957   -0.4841 H   0  0  0  0  0  0  0  0  0  0  0  0
   -1.0916   -0.8595   -1.7611 H   0  0  0  0  0  0  0  0  0  0  0  0
   -2.7361   -0.8466    0.4334 H   0  0  0  0  0  0  0  0  0  0  0  0
   -1.5921    1.6428    0.4913 H   0  0  0  0  0  0  0  0  0  0  0  0
   -1.7542    1.1123   -1.3018 H   0  0  0  0  0  0  0  0  0  0  0  0
   -0.9125    0.5630    1.8921 H   0  0  0  0  0  0  0  0  0  0  0  0
   -0.2607   -1.1809    1.6582 H   0  0  0  0  0  0  0  0  0  0  0  0
  1  2  3  0
  2  3  1  0
  3  4  1  0
  3  5  1  0
  5  6  1  0
  6  7  1  0
  7  8  1  0
  7  9  1  0
  8  5  1  0
  9  5  1  0
  1 10  1  0
  3 11  1  0
  4 12  1  0
  6 13  1  0
  6 14  1  0
  7 15  1  0
  8 16  1  0
  8 17  1  0
  9 18  1  0
  9 19  1  0
M  END
