
     RDKit          3D

 10  9  0  0  0  0  0  0  0  0999 V2000
    0.7601    1.9562   -1.7021 C   0  0  0  0  0  0  0  0  0  0  0  0
    0.5620    1.0832   -1.1832 C   0  0  0  0  0  0  0  0  0  0  0  0
    0.2964   -0.1551   -0.4708 C   0  0  0  0  0  0  0  0  0  0  0  0
    0.5767   -1.2639   -1.0323 O   0  0  0  0  0  0  0  0  0  0  0  0
   -0.3079   -0.1686    0.8829 C   0  0  0  0  0  0  0  0  0  0  0  0
   -0.3051    1.0324    1.4627 O   0  0  0  0  0  0  0  0  0  0  0  0
   -0.8173   -1.2670    1.4701 C   0  0  0  0  0  0  0  0  0  0  0  0
   -0.3983   -2.4083    0.6466 O   0  0  0  0  0  0  0  0  0  0  0  0
    1.0024    3.0284   -2.3136 H   0  0  0  0  0  0  0  0  0  0  0  0
   -1.3691   -1.8374    2.2081 H   0  0  0  0  0  0  0  0  0  0  0  0
  1  2  3  0
  2  3  1  0
  3  4  2  0
  3  5  1  0
  5  6  2  0
  5  7  1  0
  7  8  2  0
  1  9  1  0
  7 10  1  0
M  END
