
     RDKit          3D

 15 15  0  0  0  0  0  0  0  0999 V2000
    2.8577    0.9819   -0.2076 C   0  0  0  0  0  0  0  0  0  0  0  0
    1.9736    0.6569   -0.0424 C   0  0  0  0  0  0  0  0  0  0  0  0
    0.8896    0.2545    0.1810 C   0  0  0  0  0  0  0  0  0  0  0  0
   -0.2456    0.7442    0.9029 O   0  0  0  0  0  0  0  0  0  0  0  0
   -1.5082    0.8446    0.3564 C   0  0  0  0  0  0  0  0  0  0  0  0
   -2.0794   -0.4513    0.2646 O   0  0  0  0  0  0  0  0  0  0  0  0
   -1.1313   -1.4634    0.0396 C   0  0  0  0  0  0  0  0  0  0  0  0
   -0.1026   -0.5043   -0.8432 C   0  0  0  0  0  0  0  0  0  0  0  0
   -0.2129   -0.5349   -1.9129 O   0  0  0  0  0  0  0  0  0  0  0  0
    4.3012    1.4921   -0.4731 H   0  0  0  0  0  0  0  0  0  0  0  0
    0.9500   -0.7599    1.0059 H   0  0  0  0  0  0  0  0  0  0  0  0
   -2.1395    1.3892    1.0861 H   0  0  0  0  0  0  0  0  0  0  0  0
   -1.5718    1.3211   -0.6158 H   0  0  0  0  0  0  0  0  0  0  0  0
   -0.6226   -1.7129    0.9029 H   0  0  0  0  0  0  0  0  0  0  0  0
   -1.3583   -2.2578   -0.6444 H   0  0  0  0  0  0  0  0  0  0  0  0
  1  2  3  0
  2  3  1  0
  3  4  1  0
  4  5  1  0
  5  6  1  0
  6  7  1  0
  7  8  1  0
  8  9  2  0
  8  3  1  0
  1 10  1  0
  3 11  1  0
  5 12  1  0
  5 13  1  0
  7 14  1  0
  7 15  1  0
M  END
