
     RDKit          3D

 12 11  0  0  0  0  0  0  0  0999 V2000
    3.6332   -1.0548    0.4524 C   0  0  0  0  0  0  0  0  0  0  0  0
    2.4754   -0.7982    0.2982 C   0  0  0  0  0  0  0  0  0  0  0  0
    1.1114   -0.5075    0.1373 C   0  0  0  0  0  0  0  0  0  0  0  0
   -0.0935   -0.2473   -0.0266 C   0  0  0  0  0  0  0  0  0  0  0  0
   -1.5123    0.0456   -0.2222 C   0  0  0  0  0  0  0  0  0  0  0  0
   -1.9811   -0.5341   -1.4218 O   0  0  0  0  0  0  0  0  0  0  0  0
   -1.6481    1.5043   -0.3504 C   0  0  0  0  0  0  0  0  0  0  0  0
   -1.2634    2.2064    0.5698 O   0  0  0  0  0  0  0  0  0  0  0  0
    4.6766   -1.2856    0.6040 H   0  0  0  0  0  0  0  0  0  0  0  0
   -2.1461   -0.3745    0.5622 H   0  0  0  0  0  0  0  0  0  0  0  0
   -1.1823   -0.9210   -1.9259 H   0  0  0  0  0  0  0  0  0  0  0  0
   -2.0698    1.9667   -1.2136 H   0  0  0  0  0  0  0  0  0  0  0  0
  1  2  3  0
  2  3  1  0
  3  4  3  0
  4  5  1  0
  5  6  1  0
  5  7  1  0
  7  8  2  0
  1  9  1  0
  5 10  1  0
  6 11  1  0
  7 12  1  0
M  END
