
     RDKit          3D

 13 13  0  0  0  0  0  0  0  0999 V2000
    2.7004    0.7001    0.6629 C   0  0  0  0  0  0  0  0  0  0  0  0
    1.5592    0.4462    0.3694 C   0  0  0  0  0  0  0  0  0  0  0  0
    0.1876    0.1411   -0.0095 C   0  0  0  0  0  0  0  0  0  0  0  0
   -0.8352    0.9394    0.6859 C   0  0  0  0  0  0  0  0  0  0  0  0
   -1.6608    1.6105    1.2553 C   0  0  0  0  0  0  0  0  0  0  0  0
   -0.0455    0.1270   -1.3784 O   0  0  0  0  0  0  0  0  0  0  0  0
   -0.8129   -1.0074   -1.2043 C   0  0  0  0  0  0  0  0  0  0  0  0
   -0.0529   -1.3072    0.0190 C   0  0  0  0  0  0  0  0  0  0  0  0
    0.2157   -2.2596    0.6792 O   0  0  0  0  0  0  0  0  0  0  0  0
    3.7206    0.9125    0.9362 H   0  0  0  0  0  0  0  0  0  0  0  0
   -2.4062    2.2095    1.7473 H   0  0  0  0  0  0  0  0  0  0  0  0
   -0.6859   -1.8105   -1.9539 H   0  0  0  0  0  0  0  0  0  0  0  0
   -1.8839   -0.7017   -1.0331 H   0  0  0  0  0  0  0  0  0  0  0  0
  1  2  3  0
  2  3  1  0
  3  4  1  0
  4  5  3  0
  3  6  1  0
  6  7  1  0
  7  8  1  0
  8  9  2  0
  8  3  1  0
  1 10  1  0
  5 11  1  0
  7 12  1  0
  7 13  1  0
M  END
