
     RDKit          3D

 19 20  0  0  0  0  0  0  0  0999 V2000
    3.2220   -1.9843   -0.1414 C   0  0  0  0  0  0  0  0  0  0  0  0
    2.3588   -1.1351   -0.1684 C   0  0  0  0  0  0  0  0  0  0  0  0
    1.3363   -0.1440   -0.1840 C   0  0  0  0  0  0  0  0  0  0  0  0
    1.4812    1.1105    0.1725 C   0  0  0  0  0  0  0  0  0  0  0  0
    0.2382    1.8895    0.0452 C   0  0  0  0  0  0  0  0  0  0  0  0
   -0.7974    0.9145   -0.4066 C   0  0  0  0  0  0  0  0  0  0  0  0
   -1.0728   -0.2921    0.4777 C   0  0  0  0  0  0  0  0  0  0  0  0
   -2.4407   -0.8816    0.3095 C   0  0  0  0  0  0  0  0  0  0  0  0
   -0.0631   -0.3512   -0.6020 C   0  0  0  0  0  0  0  0  0  0  0  0
    3.9856   -2.7207   -0.1087 H   0  0  0  0  0  0  0  0  0  0  0  0
    2.4038    1.6041    0.5392 H   0  0  0  0  0  0  0  0  0  0  0  0
    0.3262    2.6792   -0.7256 H   0  0  0  0  0  0  0  0  0  0  0  0
   -0.0512    2.3345    1.0398 H   0  0  0  0  0  0  0  0  0  0  0  0
   -1.5953    1.2397   -1.1084 H   0  0  0  0  0  0  0  0  0  0  0  0
   -0.7155   -0.2785    1.5238 H   0  0  0  0  0  0  0  0  0  0  0  0
   -2.7164   -1.0345   -0.7610 H   0  0  0  0  0  0  0  0  0  0  0  0
   -3.1713   -0.1513    0.7070 H   0  0  0  0  0  0  0  0  0  0  0  0
   -2.5453   -1.8207    0.8909 H   0  0  0  0  0  0  0  0  0  0  0  0
   -0.1830   -0.9779   -1.4994 H   0  0  0  0  0  0  0  0  0  0  0  0
  1  2  3  0
  2  3  1  0
  3  4  2  0
  4  5  1  0
  5  6  1  0
  6  7  1  0
  7  8  1  0
  7  9  1  0
  9  3  1  0
  9  6  1  0
  1 10  1  0
  4 11  1  0
  5 12  1  0
  5 13  1  0
  6 14  1  0
  7 15  1  0
  8 16  1  0
  8 17  1  0
  8 18  1  0
  9 19  1  0
M  END
