
     RDKit          3D

 21 21  0  0  0  0  0  0  0  0999 V2000
   -3.0933    2.1819    0.1800 C   0  0  0  0  0  0  0  0  0  0  0  0
   -1.9203    1.8634   -0.2519 C   0  0  0  0  0  0  0  0  0  0  0  0
   -0.5961    1.4877   -0.7195 C   0  0  0  0  0  0  0  0  0  0  0  0
    0.5157    1.4815    0.3614 C   0  0  0  0  0  0  0  0  0  0  0  0
   -0.0306    0.1859   -0.2805 C   0  0  0  0  0  0  0  0  0  0  0  0
   -0.8888   -0.6099    0.6670 C   0  0  0  0  0  0  0  0  0  0  0  0
    0.9229   -0.5834   -1.1270 C   0  0  0  0  0  0  0  0  0  0  0  0
    1.3502   -1.8510   -0.4722 C   0  0  0  0  0  0  0  0  0  0  0  0
    1.9596   -1.6705    0.7646 O   0  0  0  0  0  0  0  0  0  0  0  0
   -3.9934    2.4087    0.5073 H   0  0  0  0  0  0  0  0  0  0  0  0
   -0.2507    1.9842   -1.6419 H   0  0  0  0  0  0  0  0  0  0  0  0
    1.5343    1.7238    0.0789 H   0  0  0  0  0  0  0  0  0  0  0  0
    0.2144    1.7407    1.3783 H   0  0  0  0  0  0  0  0  0  0  0  0
   -0.5649   -0.4602    1.7287 H   0  0  0  0  0  0  0  0  0  0  0  0
   -0.8988   -1.6877    0.4800 H   0  0  0  0  0  0  0  0  0  0  0  0
   -1.9370   -0.2555    0.5218 H   0  0  0  0  0  0  0  0  0  0  0  0
    1.7886    0.0111   -1.4821 H   0  0  0  0  0  0  0  0  0  0  0  0
    0.3798   -0.8599   -2.0639 H   0  0  0  0  0  0  0  0  0  0  0  0
    2.1201   -2.3646   -1.1271 H   0  0  0  0  0  0  0  0  0  0  0  0
    0.5454   -2.5961   -0.3994 H   0  0  0  0  0  0  0  0  0  0  0  0
    2.8429   -2.1301    0.8308 H   0  0  0  0  0  0  0  0  0  0  0  0
  1  2  3  0
  2  3  1  0
  3  4  1  0
  4  5  1  0
  5  6  1  0
  5  7  1  0
  7  8  1  0
  8  9  1  0
  5  3  1  0
  1 10  1  0
  3 11  1  0
  4 12  1  0
  4 13  1  0
  6 14  1  0
  6 15  1  0
  6 16  1  0
  7 17  1  0
  7 18  1  0
  8 19  1  0
  8 20  1  0
  9 21  1  0
M  END
