
     RDKit          3D

 12 12  0  0  0  0  0  0  0  0999 V2000
    1.8752    0.1971    1.0685 C   0  0  0  0  0  0  0  0  0  0  0  0
    1.5397   -0.0185    0.7131 C   0  0  0  0  0  0  0  0  0  0  0  0
    0.5072   -0.6865   -0.4208 C   0  0  0  0  0  0  0  0  0  0  0  0
   -0.8466   -0.2208    0.4121 C   0  0  0  0  0  0  0  0  0  0  0  0
   -0.4945    0.3150   -0.9131 C   0  0  0  0  0  0  0  0  0  0  0  0
   -1.4022    0.0325   -1.9509 O   0  0  0  0  0  0  0  0  0  0  0  0
    2.8139    0.7779    2.0712 H   0  0  0  0  0  0  0  0  0  0  0  0
    0.5535   -1.7072   -0.5008 H   0  0  0  0  0  0  0  0  0  0  0  0
   -0.6159    0.4619    1.3069 H   0  0  0  0  0  0  0  0  0  0  0  0
   -1.5519   -0.9589    0.7534 H   0  0  0  0  0  0  0  0  0  0  0  0
   -0.0922    1.3860   -0.8920 H   0  0  0  0  0  0  0  0  0  0  0  0
   -2.2861    0.4214   -1.6475 H   0  0  0  0  0  0  0  0  0  0  0  0
  1  2  3  0
  2  3  1  0
  3  4  1  0
  4  5  1  0
  5  6  1  0
  5  3  1  0
  1  7  1  0
  3  8  1  0
  4  9  1  0
  4 10  1  0
  5 11  1  0
  6 12  1  0
M  END
