
     RDKit          3D

 17 18  0  0  0  0  0  0  0  0999 V2000
    1.5904    1.8067   -2.0346 C   0  0  0  0  0  0  0  0  0  0  0  0
    1.2056    1.2154   -1.0387 C   0  0  0  0  0  0  0  0  0  0  0  0
    0.7233    0.5209    0.1608 C   0  0  0  0  0  0  0  0  0  0  0  0
    1.1076   -0.9343    0.1335 C   0  0  0  0  0  0  0  0  0  0  0  0
    0.0470   -1.6584   -0.3273 O   0  0  0  0  0  0  0  0  0  0  0  0
   -1.0801   -0.8852   -0.3525 C   0  0  0  0  0  0  0  0  0  0  0  0
   -1.5600   -0.4236    0.9770 C   0  0  0  0  0  0  0  0  0  0  0  0
   -0.9330   -0.9379    2.1319 O   0  0  0  0  0  0  0  0  0  0  0  0
   -0.7808    0.4846    0.0929 C   0  0  0  0  0  0  0  0  0  0  0  0
    1.9288    2.3354   -2.8898 H   0  0  0  0  0  0  0  0  0  0  0  0
    1.1171    0.9847    1.0625 H   0  0  0  0  0  0  0  0  0  0  0  0
    1.9529   -1.0574   -0.5737 H   0  0  0  0  0  0  0  0  0  0  0  0
    1.4579   -1.2773    1.1480 H   0  0  0  0  0  0  0  0  0  0  0  0
   -1.7744   -0.9785   -1.2096 H   0  0  0  0  0  0  0  0  0  0  0  0
   -2.6257   -0.2376    1.0918 H   0  0  0  0  0  0  0  0  0  0  0  0
   -1.1030   -0.3178    2.8788 H   0  0  0  0  0  0  0  0  0  0  0  0
   -1.2734    1.3602   -0.3381 H   0  0  0  0  0  0  0  0  0  0  0  0
  1  2  3  0
  2  3  1  0
  3  4  1  0
  4  5  1  0
  5  6  1  0
  6  7  1  0
  7  8  1  0
  7  9  1  0
  9  3  1  0
  9  6  1  0
  1 10  1  0
  3 11  1  0
  4 12  1  0
  4 13  1  0
  6 14  1  0
  7 15  1  0
  8 16  1  0
  9 17  1  0
M  END
