
     RDKit          3D

 19 19  0  0  0  0  0  0  0  0999 V2000
   -2.4020    2.4829    0.2565 C   0  0  0  0  0  0  0  0  0  0  0  0
   -2.0603    1.3397    0.0469 C   0  0  0  0  0  0  0  0  0  0  0  0
   -1.6449   -0.0410   -0.2248 C   0  0  0  0  0  0  0  0  0  0  0  0
   -2.2987   -0.5376   -1.3434 O   0  0  0  0  0  0  0  0  0  0  0  0
   -0.1517   -0.0206   -0.4355 C   0  0  0  0  0  0  0  0  0  0  0  0
    0.4577   -1.4038   -0.7354 C   0  0  0  0  0  0  0  0  0  0  0  0
    0.7584   -0.7005    0.5135 C   0  0  0  0  0  0  0  0  0  0  0  0
    2.1853   -0.1740    0.6658 C   0  0  0  0  0  0  0  0  0  0  0  0
    2.8775   -0.9405    1.5969 O   0  0  0  0  0  0  0  0  0  0  0  0
   -2.7048    3.4892    0.4599 H   0  0  0  0  0  0  0  0  0  0  0  0
   -1.8563   -0.7100    0.6513 H   0  0  0  0  0  0  0  0  0  0  0  0
   -3.2469   -0.3133   -1.3726 H   0  0  0  0  0  0  0  0  0  0  0  0
    0.1902    0.8116   -1.0798 H   0  0  0  0  0  0  0  0  0  0  0  0
   -0.2307   -2.2700   -0.7594 H   0  0  0  0  0  0  0  0  0  0  0  0
    1.2367   -1.4295   -1.5433 H   0  0  0  0  0  0  0  0  0  0  0  0
    0.3384   -1.0408    1.4748 H   0  0  0  0  0  0  0  0  0  0  0  0
    2.7111   -0.2384   -0.3169 H   0  0  0  0  0  0  0  0  0  0  0  0
    2.1788    0.9080    0.9372 H   0  0  0  0  0  0  0  0  0  0  0  0
    3.6622   -1.3797    1.2083 H   0  0  0  0  0  0  0  0  0  0  0  0
  1  2  3  0
  2  3  1  0
  3  4  1  0
  3  5  1  0
  5  6  1  0
  6  7  1  0
  7  8  1  0
  8  9  1  0
  7  5  1  0
  1 10  1  0
  3 11  1  0
  4 12  1  0
  5 13  1  0
  6 14  1  0
  6 15  1  0
  7 16  1  0
  8 17  1  0
  8 18  1  0
  9 19  1  0
M  END
