
     RDKit          3D

 23 23  0  0  0  0  0  0  0  0999 V2000
   -0.0154   -2.5259    2.1827 C   0  0  0  0  0  0  0  0  0  0  0  0
   -0.2174   -2.1015    1.1716 C   0  0  0  0  0  0  0  0  0  0  0  0
   -0.5247   -1.5133   -0.2863 C   0  0  0  0  0  0  0  0  0  0  0  0
   -0.0281   -0.0464   -0.1912 C   0  0  0  0  0  0  0  0  0  0  0  0
   -0.6605    0.5950    0.9463 C   0  0  0  0  0  0  0  0  0  0  0  0
   -0.3330    1.9578    1.3822 C   0  0  0  0  0  0  0  0  0  0  0  0
    1.3378    0.1152   -0.6670 C   0  0  0  0  0  0  0  0  0  0  0  0
    0.8111   -0.0823   -2.1097 C   0  0  0  0  0  0  0  0  0  0  0  0
   -0.4449    0.6365   -1.5390 C   0  0  0  0  0  0  0  0  0  0  0  0
    0.1667   -2.9132    3.0631 H   0  0  0  0  0  0  0  0  0  0  0  0
   -1.4979   -1.6125   -0.4824 H   0  0  0  0  0  0  0  0  0  0  0  0
    0.2204   -2.0521   -0.9159 H   0  0  0  0  0  0  0  0  0  0  0  0
   -1.7941    0.5362    0.7572 H   0  0  0  0  0  0  0  0  0  0  0  0
   -0.5419   -0.0758    1.8688 H   0  0  0  0  0  0  0  0  0  0  0  0
    0.4867    2.5011    0.9117 H   0  0  0  0  0  0  0  0  0  0  0  0
   -1.2296    2.6165    1.3828 H   0  0  0  0  0  0  0  0  0  0  0  0
   -0.0205    1.9578    2.4998 H   0  0  0  0  0  0  0  0  0  0  0  0
    1.7304    1.1807   -0.6538 H   0  0  0  0  0  0  0  0  0  0  0  0
    2.1285   -0.6011   -0.4205 H   0  0  0  0  0  0  0  0  0  0  0  0
    1.3631    0.5397   -2.8653 H   0  0  0  0  0  0  0  0  0  0  0  0
    0.6342   -1.0685   -2.4708 H   0  0  0  0  0  0  0  0  0  0  0  0
   -1.3594    0.2579   -1.9730 H   0  0  0  0  0  0  0  0  0  0  0  0
   -0.2115    1.6983   -1.5912 H   0  0  0  0  0  0  0  0  0  0  0  0
  1  2  3  0
  2  3  1  0
  3  4  1  0
  4  5  1  0
  5  6  1  0
  4  7  1  0
  7  8  1  0
  8  9  1  0
  9  4  1  0
  1 10  1  0
  3 11  1  0
  3 12  1  0
  5 13  1  0
  5 14  1  0
  6 15  1  0
  6 16  1  0
  6 17  1  0
  7 18  1  0
  7 19  1  0
  8 20  1  0
  8 21  1  0
  9 22  1  0
  9 23  1  0
M  END
