
     RDKit          3D

 18 18  0  0  0  0  0  0  0  0999 V2000
    2.5047   -0.7415    1.3511 C   0  0  0  0  0  0  0  0  0  0  0  0
    1.5327   -0.3245    0.7451 C   0  0  0  0  0  0  0  0  0  0  0  0
    0.3535    0.1850    0.0382 C   0  0  0  0  0  0  0  0  0  0  0  0
    0.4137    1.6838   -0.0647 C   0  0  0  0  0  0  0  0  0  0  0  0
    0.1442   -0.4535   -1.3187 C   0  0  0  0  0  0  0  0  0  0  0  0
   -1.2004   -0.9490   -0.8719 C   0  0  0  0  0  0  0  0  0  0  0  0
   -0.9525   -0.3911    0.5077 C   0  0  0  0  0  0  0  0  0  0  0  0
   -1.8903    0.5190    0.9682 O   0  0  0  0  0  0  0  0  0  0  0  0
    3.3479   -1.1191    1.8688 H   0  0  0  0  0  0  0  0  0  0  0  0
    0.4827    2.1350    0.9462 H   0  0  0  0  0  0  0  0  0  0  0  0
   -0.4812    2.0469   -0.6229 H   0  0  0  0  0  0  0  0  0  0  0  0
    1.2889    1.9726   -0.6693 H   0  0  0  0  0  0  0  0  0  0  0  0
    0.8732   -1.2916   -1.4774 H   0  0  0  0  0  0  0  0  0  0  0  0
    0.1070    0.2811   -2.1415 H   0  0  0  0  0  0  0  0  0  0  0  0
   -2.0514   -0.4288   -1.3711 H   0  0  0  0  0  0  0  0  0  0  0  0
   -1.3304   -2.0362   -0.8665 H   0  0  0  0  0  0  0  0  0  0  0  0
   -0.7574   -1.2053    1.2525 H   0  0  0  0  0  0  0  0  0  0  0  0
   -2.3849    0.1172    1.7262 H   0  0  0  0  0  0  0  0  0  0  0  0
  1  2  3  0
  2  3  1  0
  3  4  1  0
  3  5  1  0
  5  6  1  0
  6  7  1  0
  7  8  1  0
  7  3  1  0
  1  9  1  0
  4 10  1  0
  4 11  1  0
  4 12  1  0
  5 13  1  0
  5 14  1  0
  6 15  1  0
  6 16  1  0
  7 17  1  0
  8 18  1  0
M  END
