
     RDKit          3D

 23 23  0  0  0  0  0  0  0  0999 V2000
    3.3018   -1.8848    0.9290 C   0  0  0  0  0  0  0  0  0  0  0  0
    2.7809   -0.9144    0.4397 C   0  0  0  0  0  0  0  0  0  0  0  0
    2.1601    0.2764   -0.1539 C   0  0  0  0  0  0  0  0  0  0  0  0
    0.8601   -0.1249   -0.8025 C   0  0  0  0  0  0  0  0  0  0  0  0
   -0.0885   -0.7220    0.2120 C   0  0  0  0  0  0  0  0  0  0  0  0
   -1.1428    0.3093   -0.2066 C   0  0  0  0  0  0  0  0  0  0  0  0
   -1.8170    1.0099    0.9338 C   0  0  0  0  0  0  0  0  0  0  0  0
   -2.1525   -0.3554   -1.0968 C   0  0  0  0  0  0  0  0  0  0  0  0
   -0.0658    1.0979   -0.8972 C   0  0  0  0  0  0  0  0  0  0  0  0
    3.7523   -2.7603    1.3739 H   0  0  0  0  0  0  0  0  0  0  0  0
    2.8349    0.7711   -0.8776 H   0  0  0  0  0  0  0  0  0  0  0  0
    1.9808    0.9844    0.6800 H   0  0  0  0  0  0  0  0  0  0  0  0
    0.9229   -0.6121   -1.7696 H   0  0  0  0  0  0  0  0  0  0  0  0
   -0.3774   -1.7676    0.0410 H   0  0  0  0  0  0  0  0  0  0  0  0
    0.2451   -0.5927    1.2758 H   0  0  0  0  0  0  0  0  0  0  0  0
   -1.7178    0.4405    1.8895 H   0  0  0  0  0  0  0  0  0  0  0  0
   -2.9242    1.1038    0.7510 H   0  0  0  0  0  0  0  0  0  0  0  0
   -1.4311    2.0307    1.1125 H   0  0  0  0  0  0  0  0  0  0  0  0
   -1.6027   -0.8892   -1.9254 H   0  0  0  0  0  0  0  0  0  0  0  0
   -2.6434   -1.1520   -0.4809 H   0  0  0  0  0  0  0  0  0  0  0  0
   -2.8840    0.3527   -1.5326 H   0  0  0  0  0  0  0  0  0  0  0  0
    0.2744    1.9560   -0.2700 H   0  0  0  0  0  0  0  0  0  0  0  0
   -0.2659    1.4428   -1.9119 H   0  0  0  0  0  0  0  0  0  0  0  0
  1  2  3  0
  2  3  1  0
  3  4  1  0
  4  5  1  0
  5  6  1  0
  6  7  1  0
  6  8  1  0
  6  9  1  0
  9  4  1  0
  1 10  1  0
  3 11  1  0
  3 12  1  0
  4 13  1  0
  5 14  1  0
  5 15  1  0
  7 16  1  0
  7 17  1  0
  7 18  1  0
  8 19  1  0
  8 20  1  0
  8 21  1  0
  9 22  1  0
  9 23  1  0
M  END
