
     RDKit          3D

 17 18  0  0  0  0  0  0  0  0999 V2000
   -2.7801    0.6636    0.2330 C   0  0  0  0  0  0  0  0  0  0  0  0
   -1.6854    0.2424   -0.0551 C   0  0  0  0  0  0  0  0  0  0  0  0
   -0.3485   -0.2610   -0.3831 C   0  0  0  0  0  0  0  0  0  0  0  0
   -0.2837   -1.2023   -1.5053 C   0  0  0  0  0  0  0  0  0  0  0  0
   -1.0682   -2.1370   -1.5192 O   0  0  0  0  0  0  0  0  0  0  0  0
    0.4605   -0.5984    0.8349 C   0  0  0  0  0  0  0  0  0  0  0  0
    0.4193    0.8919    1.1342 C   0  0  0  0  0  0  0  0  0  0  0  0
    0.6903    0.8137   -0.3448 C   0  0  0  0  0  0  0  0  0  0  0  0
    1.6665   -0.2850    0.0102 C   0  0  0  0  0  0  0  0  0  0  0  0
   -3.7597    1.0219    0.4964 H   0  0  0  0  0  0  0  0  0  0  0  0
    0.4309   -1.0899   -2.3077 H   0  0  0  0  0  0  0  0  0  0  0  0
    0.3181   -1.3335    1.4905 H   0  0  0  0  0  0  0  0  0  0  0  0
    1.2855    1.2960    1.6614 H   0  0  0  0  0  0  0  0  0  0  0  0
   -0.5781    1.2805    1.4185 H   0  0  0  0  0  0  0  0  0  0  0  0
    0.8384    1.5672   -0.9796 H   0  0  0  0  0  0  0  0  0  0  0  0
    1.9074   -0.9913   -0.7920 H   0  0  0  0  0  0  0  0  0  0  0  0
    2.4867    0.1213    0.6077 H   0  0  0  0  0  0  0  0  0  0  0  0
  1  2  3  0
  2  3  1  0
  3  4  1  0
  4  5  2  0
  3  6  1  0
  6  7  1  0
  7  8  1  0
  8  9  1  0
  8  3  1  0
  9  6  1  0
  1 10  1  0
  4 11  1  0
  6 12  1  0
  7 13  1  0
  7 14  1  0
  8 15  1  0
  9 16  1  0
  9 17  1  0
M  END
