
     RDKit          3D

 18 18  0  0  0  0  0  0  0  0999 V2000
    2.3561   -1.3054    0.0569 C   0  0  0  0  0  0  0  0  0  0  0  0
    1.1311   -1.2388    0.0111 C   0  0  0  0  0  0  0  0  0  0  0  0
   -0.3634   -1.1605   -0.0208 C   0  0  0  0  0  0  0  0  0  0  0  0
   -0.6978   -0.2645    1.1727 C   0  0  0  0  0  0  0  0  0  0  0  0
    0.2139    0.9559    0.8293 C   0  0  0  0  0  0  0  0  0  0  0  0
    0.0940    1.0762   -0.6513 C   0  0  0  0  0  0  0  0  0  0  0  0
   -0.6516   -0.1218   -1.1265 C   0  0  0  0  0  0  0  0  0  0  0  0
   -2.0305    0.0808   -1.1892 O   0  0  0  0  0  0  0  0  0  0  0  0
    3.4666   -1.3618    0.1174 H   0  0  0  0  0  0  0  0  0  0  0  0
   -0.8649   -2.0684   -0.0824 H   0  0  0  0  0  0  0  0  0  0  0  0
   -1.7148    0.1104    1.0903 H   0  0  0  0  0  0  0  0  0  0  0  0
   -0.4284   -0.6883    2.1240 H   0  0  0  0  0  0  0  0  0  0  0  0
    1.2348    0.6394    1.1459 H   0  0  0  0  0  0  0  0  0  0  0  0
   -0.1004    1.8564    1.3452 H   0  0  0  0  0  0  0  0  0  0  0  0
   -0.3724    2.0430   -0.9641 H   0  0  0  0  0  0  0  0  0  0  0  0
    1.1300    0.9993   -1.0745 H   0  0  0  0  0  0  0  0  0  0  0  0
   -0.2194   -0.5263   -2.0436 H   0  0  0  0  0  0  0  0  0  0  0  0
   -2.1829    0.9743   -0.7403 H   0  0  0  0  0  0  0  0  0  0  0  0
  1  2  3  0
  2  3  1  0
  3  4  1  0
  4  5  1  0
  5  6  1  0
  6  7  1  0
  7  8  1  0
  7  3  1  0
  1  9  1  0
  3 10  1  0
  4 11  1  0
  4 12  1  0
  5 13  1  0
  5 14  1  0
  6 15  1  0
  6 16  1  0
  7 17  1  0
  8 18  1  0
M  END
