
     RDKit          3D

 19 20  0  0  0  0  0  0  0  0999 V2000
    3.3724    2.2163    0.0780 C   0  0  0  0  0  0  0  0  0  0  0  0
    2.6296    1.3779    0.3337 C   0  0  0  0  0  0  0  0  0  0  0  0
    1.6616    0.2787    0.6923 C   0  0  0  0  0  0  0  0  0  0  0  0
    1.0589   -0.3930   -0.4831 C   0  0  0  0  0  0  0  0  0  0  0  0
    0.1501   -1.5289   -0.1893 C   0  0  0  0  0  0  0  0  0  0  0  0
   -0.8447   -0.4643    0.4483 C   0  0  0  0  0  0  0  0  0  0  0  0
   -1.8698   -0.3686   -0.2588 O   0  0  0  0  0  0  0  0  0  0  0  0
   -2.8921   -0.2815   -0.9373 C   0  0  0  0  0  0  0  0  0  0  0  0
    0.2290    0.5811    0.2985 C   0  0  0  0  0  0  0  0  0  0  0  0
    4.1043    3.0623   -0.1784 H   0  0  0  0  0  0  0  0  0  0  0  0
    1.7983   -0.2656    1.6075 H   0  0  0  0  0  0  0  0  0  0  0  0
    1.3037   -0.0949   -1.5230 H   0  0  0  0  0  0  0  0  0  0  0  0
   -0.3331   -2.0176   -1.0704 H   0  0  0  0  0  0  0  0  0  0  0  0
    0.5101   -2.2073    0.5636 H   0  0  0  0  0  0  0  0  0  0  0  0
   -0.9245   -0.7697    1.5546 H   0  0  0  0  0  0  0  0  0  0  0  0
   -3.7616    0.3940   -0.5947 H   0  0  0  0  0  0  0  0  0  0  0  0
   -2.7350    0.1919   -2.0092 H   0  0  0  0  0  0  0  0  0  0  0  0
   -3.4229   -1.2584   -1.2504 H   0  0  0  0  0  0  0  0  0  0  0  0
   -0.0342    1.5477   -0.1854 H   0  0  0  0  0  0  0  0  0  0  0  0
  1  2  3  0
  2  3  1  0
  3  4  1  0
  4  5  1  0
  5  6  1  0
  6  7  1  0
  7  8  1  0
  6  9  1  0
  9  3  1  0
  9  4  1  0
  1 10  1  0
  3 11  1  0
  4 12  1  0
  5 13  1  0
  5 14  1  0
  6 15  1  0
  8 16  1  0
  8 17  1  0
  8 18  1  0
  9 19  1  0
M  END
