
     RDKit          3D

 17 18  0  0  0  0  0  0  0  0999 V2000
    1.6076    2.2665   -0.5220 C   0  0  0  0  0  0  0  0  0  0  0  0
    0.8409    1.4214    0.0251 C   0  0  0  0  0  0  0  0  0  0  0  0
   -0.0085    0.5099    0.6420 C   0  0  0  0  0  0  0  0  0  0  0  0
   -0.7232    0.8336    1.7746 O   0  0  0  0  0  0  0  0  0  0  0  0
   -0.9733   -0.0938   -0.4297 C   0  0  0  0  0  0  0  0  0  0  0  0
    0.0677   -0.4226   -1.4569 C   0  0  0  0  0  0  0  0  0  0  0  0
    1.0076   -1.0936   -0.6508 O   0  0  0  0  0  0  0  0  0  0  0  0
    0.4887   -0.9610    0.6175 C   0  0  0  0  0  0  0  0  0  0  0  0
   -0.9565   -1.3183    0.4412 C   0  0  0  0  0  0  0  0  0  0  0  0
    2.2445    2.9789   -0.9846 H   0  0  0  0  0  0  0  0  0  0  0  0
   -0.1922    0.7336    2.6185 H   0  0  0  0  0  0  0  0  0  0  0  0
   -1.8607    0.4223   -0.6240 H   0  0  0  0  0  0  0  0  0  0  0  0
   -0.3795   -1.0320   -2.2514 H   0  0  0  0  0  0  0  0  0  0  0  0
    0.5262    0.5021   -1.8900 H   0  0  0  0  0  0  0  0  0  0  0  0
    1.0108   -1.2792    1.4732 H   0  0  0  0  0  0  0  0  0  0  0  0
   -1.5534   -1.2036    1.3522 H   0  0  0  0  0  0  0  0  0  0  0  0
   -1.1470   -2.2641   -0.1349 H   0  0  0  0  0  0  0  0  0  0  0  0
  1  2  3  0
  2  3  1  0
  3  4  1  0
  3  5  1  0
  5  6  1  0
  6  7  1  0
  7  8  1  0
  8  9  1  0
  8  3  1  0
  9  5  1  0
  1 10  1  0
  4 11  1  0
  5 12  1  0
  6 13  1  0
  6 14  1  0
  8 15  1  0
  9 16  1  0
  9 17  1  0
M  END
