
     RDKit          3D

 21 21  0  0  0  0  0  0  0  0999 V2000
   -1.1198    1.2344   -1.7224 C   0  0  0  0  0  0  0  0  0  0  0  0
   -0.6307    0.7553   -0.8751 C   0  0  0  0  0  0  0  0  0  0  0  0
   -0.0785    0.2354    0.0842 C   0  0  0  0  0  0  0  0  0  0  0  0
    1.0984    1.0740    0.6552 C   0  0  0  0  0  0  0  0  0  0  0  0
    2.2046    1.2028   -0.3806 C   0  0  0  0  0  0  0  0  0  0  0  0
    0.2570   -1.2148    0.0989 C   0  0  0  0  0  0  0  0  0  0  0  0
   -1.1701   -1.6856   -0.1126 C   0  0  0  0  0  0  0  0  0  0  0  0
   -1.7657   -0.9436    1.1391 C   0  0  0  0  0  0  0  0  0  0  0  0
   -1.0614    0.2326    1.2417 O   0  0  0  0  0  0  0  0  0  0  0  0
   -1.8238    1.9158   -2.8929 H   0  0  0  0  0  0  0  0  0  0  0  0
    1.4312    0.9020    1.6471 H   0  0  0  0  0  0  0  0  0  0  0  0
    0.6010    2.1137    0.6871 H   0  0  0  0  0  0  0  0  0  0  0  0
    2.6062    0.1691   -0.5957 H   0  0  0  0  0  0  0  0  0  0  0  0
    3.0263    1.7881    0.0746 H   0  0  0  0  0  0  0  0  0  0  0  0
    1.9840    1.6707   -1.3434 H   0  0  0  0  0  0  0  0  0  0  0  0
    1.0011   -1.4265   -0.6586 H   0  0  0  0  0  0  0  0  0  0  0  0
    0.6004   -1.6933    1.0896 H   0  0  0  0  0  0  0  0  0  0  0  0
   -1.5801   -1.1813   -1.0324 H   0  0  0  0  0  0  0  0  0  0  0  0
   -1.2446   -2.7468   -0.0913 H   0  0  0  0  0  0  0  0  0  0  0  0
   -1.5060   -1.5979    1.9949 H   0  0  0  0  0  0  0  0  0  0  0  0
   -2.8293   -0.8040    0.9926 H   0  0  0  0  0  0  0  0  0  0  0  0
  1  2  3  0
  2  3  1  0
  3  4  1  0
  4  5  1  0
  3  6  1  0
  6  7  1  0
  7  8  1  0
  8  9  1  0
  9  3  1  0
  1 10  1  0
  4 11  1  0
  4 12  1  0
  5 13  1  0
  5 14  1  0
  5 15  1  0
  6 16  1  0
  6 17  1  0
  7 18  1  0
  7 19  1  0
  8 20  1  0
  8 21  1  0
M  END
