
     RDKit          3D

 19 18  0  0  0  0  0  0  0  0999 V2000
   -2.5611    1.4653    0.9681 C   0  0  0  0  0  0  0  0  0  0  0  0
   -2.0575    0.6184    0.2728 C   0  0  0  0  0  0  0  0  0  0  0  0
   -1.4152   -0.4164   -0.5728 C   0  0  0  0  0  0  0  0  0  0  0  0
   -0.1448   -0.9049    0.0789 C   0  0  0  0  0  0  0  0  0  0  0  0
    0.4615   -1.9531   -0.8257 C   0  0  0  0  0  0  0  0  0  0  0  0
    0.8194    0.2259    0.3566 C   0  0  0  0  0  0  0  0  0  0  0  0
    1.1251    0.8238   -0.9023 O   0  0  0  0  0  0  0  0  0  0  0  0
    1.9953    1.9062   -0.9997 C   0  0  0  0  0  0  0  0  0  0  0  0
    2.4796    2.3014    0.1120 O   0  0  0  0  0  0  0  0  0  0  0  0
   -3.0148    2.2053    1.5776 H   0  0  0  0  0  0  0  0  0  0  0  0
   -2.1007   -1.2884   -0.6395 H   0  0  0  0  0  0  0  0  0  0  0  0
   -1.2378    0.0742   -1.5499 H   0  0  0  0  0  0  0  0  0  0  0  0
   -0.4453   -1.4240    1.0142 H   0  0  0  0  0  0  0  0  0  0  0  0
    1.1747   -2.6122   -0.2882 H   0  0  0  0  0  0  0  0  0  0  0  0
    0.9752   -1.5060   -1.7018 H   0  0  0  0  0  0  0  0  0  0  0  0
   -0.3760   -2.5983   -1.1788 H   0  0  0  0  0  0  0  0  0  0  0  0
    0.3468    0.9347    1.0427 H   0  0  0  0  0  0  0  0  0  0  0  0
    1.7283   -0.2326    0.8029 H   0  0  0  0  0  0  0  0  0  0  0  0
    2.2473    2.3806   -1.9336 H   0  0  0  0  0  0  0  0  0  0  0  0
  1  2  3  0
  2  3  1  0
  3  4  1  0
  4  5  1  0
  4  6  1  0
  6  7  1  0
  7  8  1  0
  8  9  2  0
  1 10  1  0
  3 11  1  0
  3 12  1  0
  4 13  1  0
  5 14  1  0
  5 15  1  0
  5 16  1  0
  6 17  1  0
  6 18  1  0
  8 19  1  0
M  END
