
     RDKit          3D

 21 22  0  0  0  0  0  0  0  0999 V2000
   -2.4318    1.7222    1.5814 C   0  0  0  0  0  0  0  0  0  0  0  0
   -1.8380    0.3836    0.8135 C   0  0  0  0  0  0  0  0  0  0  0  0
   -1.3810   -0.6162    0.2441 C   0  0  0  0  0  0  0  0  0  0  0  0
    0.2544   -0.6511    0.4306 C   0  0  0  0  0  0  0  0  0  0  0  0
    0.8013    0.7984    0.1079 C   0  0  0  0  0  0  0  0  0  0  0  0
    1.4170   -0.2813    1.0837 C   0  0  0  0  0  0  0  0  0  0  0  0
    2.7457   -0.7998    0.3057 C   0  0  0  0  0  0  0  0  0  0  0  0
   -1.4600   -1.0842   -1.1765 C   0  0  0  0  0  0  0  0  0  0  0  0
   -1.4781    0.3925   -1.2314 C   0  0  0  0  0  0  0  0  0  0  0  0
   -2.8407    2.6215    2.1121 H   0  0  0  0  0  0  0  0  0  0  0  0
    0.5645   -1.2321   -0.6572 H   0  0  0  0  0  0  0  0  0  0  0  0
    1.3413    0.9590   -0.8328 H   0  0  0  0  0  0  0  0  0  0  0  0
    0.4221    1.6429    0.6338 H   0  0  0  0  0  0  0  0  0  0  0  0
    1.6673    0.0806    2.0533 H   0  0  0  0  0  0  0  0  0  0  0  0
    3.6027   -0.4178    0.7173 H   0  0  0  0  0  0  0  0  0  0  0  0
    2.4950   -0.4979   -0.7764 H   0  0  0  0  0  0  0  0  0  0  0  0
    2.6990   -1.9213    0.3247 H   0  0  0  0  0  0  0  0  0  0  0  0
   -0.6340   -1.4415   -1.7803 H   0  0  0  0  0  0  0  0  0  0  0  0
   -2.4429   -1.5837   -1.5321 H   0  0  0  0  0  0  0  0  0  0  0  0
   -0.8691    1.2525   -1.1097 H   0  0  0  0  0  0  0  0  0  0  0  0
   -2.6346    0.6736   -1.3117 H   0  0  0  0  0  0  0  0  0  0  0  0
  1  2  3  0
  2  3  1  0
  3  4  1  0
  4  5  1  0
  5  6  1  0
  6  7  1  0
  3  8  1  0
  8  9  1  0
  9  3  1  0
  6  4  1  0
  1 10  1  0
  4 11  1  0
  5 12  1  0
  5 13  1  0
  6 14  1  0
  7 15  1  0
  7 16  1  0
  7 17  1  0
  8 18  1  0
  8 19  1  0
  9 20  1  0
  9 21  1  0
M  END
