
     RDKit          3D

 14 14  0  0  0  0  0  0  0  0999 V2000
   -1.9375    1.7325    1.3727 C   0  0  0  0  0  0  0  0  0  0  0  0
   -1.8708    0.3188    0.3245 C   0  0  0  0  0  0  0  0  0  0  0  0
   -1.8086   -0.6378   -0.3979 C   0  0  0  0  0  0  0  0  0  0  0  0
   -0.1519   -0.7118   -0.6302 C   0  0  0  0  0  0  0  0  0  0  0  0
    0.2275    0.7813   -0.7243 O   0  0  0  0  0  0  0  0  0  0  0  0
    0.7306   -0.3195    0.2467 C   0  0  0  0  0  0  0  0  0  0  0  0
    2.2723   -0.1627    0.0078 C   0  0  0  0  0  0  0  0  0  0  0  0
    3.3280   -0.0704   -0.1568 C   0  0  0  0  0  0  0  0  0  0  0  0
   -1.9786    2.4379    1.9089 H   0  0  0  0  0  0  0  0  0  0  0  0
   -2.2655   -0.6679   -1.3635 H   0  0  0  0  0  0  0  0  0  0  0  0
   -1.8196   -1.6928    0.1133 H   0  0  0  0  0  0  0  0  0  0  0  0
   -0.0206   -1.0328   -1.6791 H   0  0  0  0  0  0  0  0  0  0  0  0
    0.5737   -0.0126    1.3450 H   0  0  0  0  0  0  0  0  0  0  0  0
    4.7210    0.0376   -0.3672 H   0  0  0  0  0  0  0  0  0  0  0  0
  1  2  3  0
  2  3  1  0
  3  4  1  0
  4  5  1  0
  5  6  1  0
  6  7  1  0
  7  8  3  0
  6  4  1  0
  1  9  1  0
  3 10  1  0
  3 11  1  0
  4 12  1  0
  6 13  1  0
  8 14  1  0
M  END
