
     RDKit          3D

 18 19  0  0  0  0  0  0  0  0999 V2000
    2.3555   -1.7815   -1.8749 C   0  0  0  0  0  0  0  0  0  0  0  0
    1.5473   -1.1918   -1.2237 C   0  0  0  0  0  0  0  0  0  0  0  0
    0.6305   -0.5433   -0.5121 C   0  0  0  0  0  0  0  0  0  0  0  0
    0.8877    0.5323    0.5027 C   0  0  0  0  0  0  0  0  0  0  0  0
   -0.6155    0.3663    0.4987 C   0  0  0  0  0  0  0  0  0  0  0  0
   -1.5453    1.0295    1.2349 C   0  0  0  0  0  0  0  0  0  0  0  0
   -0.3377   -1.1255    0.4602 C   0  0  0  0  0  0  0  0  0  0  0  0
   -0.4741    0.3081   -1.0083 C   0  0  0  0  0  0  0  0  0  0  0  0
    3.1032   -2.3091   -2.4561 H   0  0  0  0  0  0  0  0  0  0  0  0
    1.3708    0.2245    1.4316 H   0  0  0  0  0  0  0  0  0  0  0  0
    1.2413    1.4844    0.0606 H   0  0  0  0  0  0  0  0  0  0  0  0
   -2.2164    0.3664    1.8574 H   0  0  0  0  0  0  0  0  0  0  0  0
   -2.2817    1.6389    0.6309 H   0  0  0  0  0  0  0  0  0  0  0  0
   -1.1418    1.7652    1.9796 H   0  0  0  0  0  0  0  0  0  0  0  0
    0.0733   -1.5528    1.3763 H   0  0  0  0  0  0  0  0  0  0  0  0
   -1.1676   -1.7161    0.0287 H   0  0  0  0  0  0  0  0  0  0  0  0
   -1.3148   -0.1674   -1.5196 H   0  0  0  0  0  0  0  0  0  0  0  0
   -0.1148    1.2685   -1.4670 H   0  0  0  0  0  0  0  0  0  0  0  0
  1  2  3  0
  2  3  1  0
  3  4  1  0
  4  5  1  0
  5  6  1  0
  5  7  1  0
  5  8  1  0
  7  3  1  0
  8  3  1  0
  1  9  1  0
  4 10  1  0
  4 11  1  0
  6 12  1  0
  6 13  1  0
  6 14  1  0
  7 15  1  0
  7 16  1  0
  8 17  1  0
  8 18  1  0
M  END
