
     RDKit          3D

 19 19  0  0  0  0  0  0  0  0999 V2000
    2.5059   -1.8190   -0.2189 C   0  0  0  0  0  0  0  0  0  0  0  0
    1.7743   -0.9153    0.0515 C   0  0  0  0  0  0  0  0  0  0  0  0
    0.8894    0.1626    0.3995 C   0  0  0  0  0  0  0  0  0  0  0  0
    0.6346    1.1205   -0.7576 C   0  0  0  0  0  0  0  0  0  0  0  0
   -0.4888    1.9171   -0.2226 C   0  0  0  0  0  0  0  0  0  0  0  0
   -0.6535    3.1032   -0.3352 O   0  0  0  0  0  0  0  0  0  0  0  0
   -1.3691    0.9629    0.4785 C   0  0  0  0  0  0  0  0  0  0  0  0
   -0.5144   -0.2821    0.7311 C   0  0  0  0  0  0  0  0  0  0  0  0
   -1.0173   -1.3556   -0.1704 C   0  0  0  0  0  0  0  0  0  0  0  0
    3.1798   -2.6216   -0.4626 H   0  0  0  0  0  0  0  0  0  0  0  0
    1.2683    0.7964    1.2344 H   0  0  0  0  0  0  0  0  0  0  0  0
    0.3682    0.5299   -1.6592 H   0  0  0  0  0  0  0  0  0  0  0  0
    1.5190    1.7536   -0.9639 H   0  0  0  0  0  0  0  0  0  0  0  0
   -2.2593    0.7357   -0.1157 H   0  0  0  0  0  0  0  0  0  0  0  0
   -1.7212    1.3351    1.4637 H   0  0  0  0  0  0  0  0  0  0  0  0
   -0.5669   -0.5935    1.7913 H   0  0  0  0  0  0  0  0  0  0  0  0
   -0.5594   -2.3424   -0.0142 H   0  0  0  0  0  0  0  0  0  0  0  0
   -2.1238   -1.4481    0.0067 H   0  0  0  0  0  0  0  0  0  0  0  0
   -0.8658   -1.0396   -1.2363 H   0  0  0  0  0  0  0  0  0  0  0  0
  1  2  3  0
  2  3  1  0
  3  4  1  0
  4  5  1  0
  5  6  2  0
  5  7  1  0
  7  8  1  0
  8  9  1  0
  8  3  1  0
  1 10  1  0
  3 11  1  0
  4 12  1  0
  4 13  1  0
  7 14  1  0
  7 15  1  0
  8 16  1  0
  9 17  1  0
  9 18  1  0
  9 19  1  0
M  END
