
     RDKit          3D

 16 17  0  0  0  0  0  0  0  0999 V2000
    2.9414   -1.6815   -0.8120 C   0  0  0  0  0  0  0  0  0  0  0  0
    1.9187   -1.0923   -0.6657 C   0  0  0  0  0  0  0  0  0  0  0  0
    0.6901   -0.3705   -0.5112 C   0  0  0  0  0  0  0  0  0  0  0  0
   -0.0674    0.2003   -1.4700 C   0  0  0  0  0  0  0  0  0  0  0  0
   -1.1814    0.7596   -0.7204 C   0  0  0  0  0  0  0  0  0  0  0  0
   -1.4948   -0.3771    0.2639 C   0  0  0  0  0  0  0  0  0  0  0  0
   -0.0617   -0.0648    0.7213 C   0  0  0  0  0  0  0  0  0  0  0  0
   -0.4586    1.3793    0.4860 C   0  0  0  0  0  0  0  0  0  0  0  0
    3.8609   -2.1945   -0.9310 H   0  0  0  0  0  0  0  0  0  0  0  0
    0.0907    0.2453   -2.5352 H   0  0  0  0  0  0  0  0  0  0  0  0
   -1.9741    1.2831   -1.1551 H   0  0  0  0  0  0  0  0  0  0  0  0
   -1.5404   -1.3688   -0.2216 H   0  0  0  0  0  0  0  0  0  0  0  0
   -2.2668   -0.1394    0.9997 H   0  0  0  0  0  0  0  0  0  0  0  0
    0.2522   -0.3885    1.6645 H   0  0  0  0  0  0  0  0  0  0  0  0
   -1.1073    1.8320    1.2293 H   0  0  0  0  0  0  0  0  0  0  0  0
    0.3985    1.9776    0.1283 H   0  0  0  0  0  0  0  0  0  0  0  0
  1  2  3  0
  2  3  1  0
  3  4  2  0
  4  5  1  0
  5  6  1  0
  6  7  1  0
  7  8  1  0
  7  3  1  0
  8  5  1  0
  1  9  1  0
  4 10  1  0
  5 11  1  0
  6 12  1  0
  6 13  1  0
  7 14  1  0
  8 15  1  0
  8 16  1  0
M  END
