
     RDKit          3D

 21 21  0  0  0  0  0  0  0  0999 V2000
    0.6891    1.7325   -2.4122 C   0  0  0  0  0  0  0  0  0  0  0  0
    0.2648    0.9159   -1.6594 C   0  0  0  0  0  0  0  0  0  0  0  0
   -0.2843   -0.0956   -0.7375 C   0  0  0  0  0  0  0  0  0  0  0  0
   -1.7628    0.0693   -0.4809 C   0  0  0  0  0  0  0  0  0  0  0  0
   -2.0821    1.4232    0.1318 C   0  0  0  0  0  0  0  0  0  0  0  0
    0.1165   -1.5278   -0.9730 C   0  0  0  0  0  0  0  0  0  0  0  0
    0.5824   -0.7043    0.2709 C   0  0  0  0  0  0  0  0  0  0  0  0
    1.9457   -0.5173    0.2850 O   0  0  0  0  0  0  0  0  0  0  0  0
    2.4080   -0.7626    1.5754 C   0  0  0  0  0  0  0  0  0  0  0  0
    1.0923    2.4677   -3.0950 H   0  0  0  0  0  0  0  0  0  0  0  0
   -2.2038   -0.7202    0.1313 H   0  0  0  0  0  0  0  0  0  0  0  0
   -2.2292    0.0581   -1.5084 H   0  0  0  0  0  0  0  0  0  0  0  0
   -1.9041    1.3422    1.2218 H   0  0  0  0  0  0  0  0  0  0  0  0
   -1.5142    2.2445   -0.3506 H   0  0  0  0  0  0  0  0  0  0  0  0
   -3.1675    1.6352   -0.0990 H   0  0  0  0  0  0  0  0  0  0  0  0
    0.8340   -1.6882   -1.7791 H   0  0  0  0  0  0  0  0  0  0  0  0
   -0.5836   -2.3468   -0.7347 H   0  0  0  0  0  0  0  0  0  0  0  0
    0.1162   -0.9963    1.2298 H   0  0  0  0  0  0  0  0  0  0  0  0
    2.1820   -1.8048    1.9120 H   0  0  0  0  0  0  0  0  0  0  0  0
    3.5240   -0.6439    1.5868 H   0  0  0  0  0  0  0  0  0  0  0  0
    1.9767   -0.0809    2.3307 H   0  0  0  0  0  0  0  0  0  0  0  0
  1  2  3  0
  2  3  1  0
  3  4  1  0
  4  5  1  0
  3  6  1  0
  6  7  1  0
  7  8  1  0
  8  9  1  0
  7  3  1  0
  1 10  1  0
  4 11  1  0
  4 12  1  0
  5 13  1  0
  5 14  1  0
  5 15  1  0
  6 16  1  0
  6 17  1  0
  7 18  1  0
  9 19  1  0
  9 20  1  0
  9 21  1  0
M  END
