
     RDKit          3D

 14 14  0  0  0  0  0  0  0  0999 V2000
   -2.6022    1.9129   -0.0601 C   0  0  0  0  0  0  0  0  0  0  0  0
   -1.8233    1.0946   -0.3561 C   0  0  0  0  0  0  0  0  0  0  0  0
   -0.8304    0.0321   -0.7322 C   0  0  0  0  0  0  0  0  0  0  0  0
    0.2212   -0.2486    0.1029 C   0  0  0  0  0  0  0  0  0  0  0  0
    1.2497   -0.5326    0.9491 C   0  0  0  0  0  0  0  0  0  0  0  0
    2.3123   -0.8313    1.7960 C   0  0  0  0  0  0  0  0  0  0  0  0
   -0.6294   -0.1042   -2.1840 C   0  0  0  0  0  0  0  0  0  0  0  0
   -1.5095   -1.0410   -1.4884 O   0  0  0  0  0  0  0  0  0  0  0  0
   -3.3256    2.6977    0.2290 H   0  0  0  0  0  0  0  0  0  0  0  0
    3.2446   -0.3413    1.5045 H   0  0  0  0  0  0  0  0  0  0  0  0
    2.4997   -1.9814    1.7904 H   0  0  0  0  0  0  0  0  0  0  0  0
    2.0679   -0.6629    2.9055 H   0  0  0  0  0  0  0  0  0  0  0  0
   -1.1267    0.6209   -2.8635 H   0  0  0  0  0  0  0  0  0  0  0  0
    0.2517   -0.6150   -2.5454 H   0  0  0  0  0  0  0  0  0  0  0  0
  1  2  3  0
  2  3  1  0
  3  4  1  0
  4  5  3  0
  5  6  1  0
  3  7  1  0
  7  8  1  0
  8  3  1  0
  1  9  1  0
  6 10  1  0
  6 11  1  0
  6 12  1  0
  7 13  1  0
  7 14  1  0
M  END
