
     RDKit          3D

 19 18  0  0  0  0  0  0  0  0999 V2000
    2.5418   -1.2136   -1.1947 C   0  0  0  0  0  0  0  0  0  0  0  0
    2.1162   -0.3235   -0.5135 C   0  0  0  0  0  0  0  0  0  0  0  0
    1.6050    0.7635    0.2867 C   0  0  0  0  0  0  0  0  0  0  0  0
    0.5662    0.3475    1.2914 C   0  0  0  0  0  0  0  0  0  0  0  0
   -0.6512   -0.2797    0.6815 C   0  0  0  0  0  0  0  0  0  0  0  0
   -0.3694   -1.4281   -0.0437 O   0  0  0  0  0  0  0  0  0  0  0  0
   -1.3894    0.7270   -0.1438 C   0  0  0  0  0  0  0  0  0  0  0  0
   -2.5873    0.0430   -0.7221 C   0  0  0  0  0  0  0  0  0  0  0  0
   -2.8690   -1.1078   -0.5333 O   0  0  0  0  0  0  0  0  0  0  0  0
    2.9318   -2.0085   -1.7865 H   0  0  0  0  0  0  0  0  0  0  0  0
    2.4092    1.2837    0.8515 H   0  0  0  0  0  0  0  0  0  0  0  0
    1.1973    1.5642   -0.3990 H   0  0  0  0  0  0  0  0  0  0  0  0
    0.2364    1.2789    1.8004 H   0  0  0  0  0  0  0  0  0  0  0  0
    1.0240   -0.2880    2.0524 H   0  0  0  0  0  0  0  0  0  0  0  0
   -1.3174   -0.5805    1.5184 H   0  0  0  0  0  0  0  0  0  0  0  0
    0.2550   -2.0266    0.3921 H   0  0  0  0  0  0  0  0  0  0  0  0
   -1.7336    1.5623    0.4856 H   0  0  0  0  0  0  0  0  0  0  0  0
   -0.7220    1.0489   -0.9663 H   0  0  0  0  0  0  0  0  0  0  0  0
   -3.2436    0.6373   -1.3569 H   0  0  0  0  0  0  0  0  0  0  0  0
  1  2  3  0
  2  3  1  0
  3  4  1  0
  4  5  1  0
  5  6  1  0
  5  7  1  0
  7  8  1  0
  8  9  2  0
  1 10  1  0
  3 11  1  0
  3 12  1  0
  4 13  1  0
  4 14  1  0
  5 15  1  0
  6 16  1  0
  7 17  1  0
  7 18  1  0
  8 19  1  0
M  END
