
     RDKit          3D

 23 22  0  0  0  0  0  0  0  0999 V2000
    2.0836    1.0159    2.1556 C   0  0  0  0  0  0  0  0  0  0  0  0
    1.8471    0.0190    1.0456 C   0  0  0  0  0  0  0  0  0  0  0  0
    1.6569   -0.7093    0.2385 C   0  0  0  0  0  0  0  0  0  0  0  0
    2.3940   -2.0182   -0.0210 C   0  0  0  0  0  0  0  0  0  0  0  0
    0.2052   -1.0667   -0.0821 O   0  0  0  0  0  0  0  0  0  0  0  0
   -0.4125    0.1263   -0.3022 C   0  0  0  0  0  0  0  0  0  0  0  0
   -0.6084    0.4876   -1.7387 C   0  0  0  0  0  0  0  0  0  0  0  0
   -1.7532    0.0219    0.3822 C   0  0  0  0  0  0  0  0  0  0  0  0
   -2.6241    1.2058    0.3385 C   0  0  0  0  0  0  0  0  0  0  0  0
    2.2320    1.7131    2.9415 H   0  0  0  0  0  0  0  0  0  0  0  0
    1.7011   -0.1028   -0.8676 H   0  0  0  0  0  0  0  0  0  0  0  0
    3.1949   -2.1394    0.7581 H   0  0  0  0  0  0  0  0  0  0  0  0
    2.8800   -2.0350   -1.0090 H   0  0  0  0  0  0  0  0  0  0  0  0
    1.6799   -2.8803    0.0041 H   0  0  0  0  0  0  0  0  0  0  0  0
    0.2383    0.9774    0.1413 H   0  0  0  0  0  0  0  0  0  0  0  0
    0.2830    1.0143   -2.1882 H   0  0  0  0  0  0  0  0  0  0  0  0
   -1.4450    1.2905   -1.7904 H   0  0  0  0  0  0  0  0  0  0  0  0
   -0.8916   -0.3671   -2.3508 H   0  0  0  0  0  0  0  0  0  0  0  0
   -2.2584   -0.8508   -0.1415 H   0  0  0  0  0  0  0  0  0  0  0  0
   -1.5822   -0.2761    1.4606 H   0  0  0  0  0  0  0  0  0  0  0  0
   -3.3293    1.2072    1.2374 H   0  0  0  0  0  0  0  0  0  0  0  0
   -3.3271    1.1533   -0.5528 H   0  0  0  0  0  0  0  0  0  0  0  0
   -2.1643    2.2130    0.3408 H   0  0  0  0  0  0  0  0  0  0  0  0
  1  2  3  0
  2  3  1  0
  3  4  1  0
  3  5  1  0
  5  6  1  0
  6  7  1  0
  6  8  1  0
  8  9  1  0
  1 10  1  0
  3 11  1  0
  4 12  1  0
  4 13  1  0
  4 14  1  0
  6 15  1  0
  7 16  1  0
  7 17  1  0
  7 18  1  0
  8 19  1  0
  8 20  1  0
  9 21  1  0
  9 22  1  0
  9 23  1  0
M  END
