
     RDKit          3D

 19 19  0  0  0  0  0  0  0  0999 V2000
   -0.4926    3.1622    0.1786 C   0  0  0  0  0  0  0  0  0  0  0  0
   -0.3267    1.9725    0.0729 C   0  0  0  0  0  0  0  0  0  0  0  0
   -0.1090    0.5106   -0.0403 C   0  0  0  0  0  0  0  0  0  0  0  0
   -1.4901   -0.1600   -0.0800 C   0  0  0  0  0  0  0  0  0  0  0  0
   -1.3451   -1.6415   -0.1941 C   0  0  0  0  0  0  0  0  0  0  0  0
    0.6744    0.0126    1.0984 C   0  0  0  0  0  0  0  0  0  0  0  0
    1.8027   -0.4955    0.6315 C   0  0  0  0  0  0  0  0  0  0  0  0
    1.7944   -0.3451   -0.8422 C   0  0  0  0  0  0  0  0  0  0  0  0
    0.5929    0.2247   -1.1782 O   0  0  0  0  0  0  0  0  0  0  0  0
   -0.6219    4.1999    0.2748 H   0  0  0  0  0  0  0  0  0  0  0  0
   -2.0487    0.3018   -0.9231 H   0  0  0  0  0  0  0  0  0  0  0  0
   -2.0004    0.1689    0.8473 H   0  0  0  0  0  0  0  0  0  0  0  0
   -2.1983   -2.0484   -0.7925 H   0  0  0  0  0  0  0  0  0  0  0  0
   -0.4187   -1.9466   -0.7251 H   0  0  0  0  0  0  0  0  0  0  0  0
   -1.3238   -2.1018    0.8157 H   0  0  0  0  0  0  0  0  0  0  0  0
    0.3437    0.0726    2.1309 H   0  0  0  0  0  0  0  0  0  0  0  0
    2.6058   -0.9457    1.1917 H   0  0  0  0  0  0  0  0  0  0  0  0
    2.5995    0.3909   -1.1155 H   0  0  0  0  0  0  0  0  0  0  0  0
    1.9620   -1.3319   -1.3507 H   0  0  0  0  0  0  0  0  0  0  0  0
  1  2  3  0
  2  3  1  0
  3  4  1  0
  4  5  1  0
  3  6  1  0
  6  7  2  0
  7  8  1  0
  8  9  1  0
  9  3  1  0
  1 10  1  0
  4 11  1  0
  4 12  1  0
  5 13  1  0
  5 14  1  0
  5 15  1  0
  6 16  1  0
  7 17  1  0
  8 18  1  0
  8 19  1  0
M  END
