
     RDKit          3D

 19 18  0  0  0  0  0  0  0  0999 V2000
   -1.1574    2.2120    1.1769 C   0  0  0  0  0  0  0  0  0  0  0  0
   -0.8324    1.2373    0.7827 C   0  0  0  0  0  0  0  0  0  0  0  0
   -0.4120    0.0195    0.2945 C   0  0  0  0  0  0  0  0  0  0  0  0
   -0.8500   -1.2551    0.7685 C   0  0  0  0  0  0  0  0  0  0  0  0
   -0.6906    0.0152   -1.2883 C   0  0  0  0  0  0  0  0  0  0  0  0
    1.1774    0.0728    0.3980 C   0  0  0  0  0  0  0  0  0  0  0  0
    1.5720    1.2531   -0.3543 O   0  0  0  0  0  0  0  0  0  0  0  0
    1.8316   -1.0263   -0.3578 C   0  0  0  0  0  0  0  0  0  0  0  0
    2.2628   -0.7506   -1.4899 O   0  0  0  0  0  0  0  0  0  0  0  0
   -1.5690    3.4021    1.6536 H   0  0  0  0  0  0  0  0  0  0  0  0
   -1.6659   -1.2621    1.5143 H   0  0  0  0  0  0  0  0  0  0  0  0
   -0.0477   -2.0221    0.9828 H   0  0  0  0  0  0  0  0  0  0  0  0
   -1.3408   -1.7690   -0.1719 H   0  0  0  0  0  0  0  0  0  0  0  0
   -1.6988   -0.4981   -1.3151 H   0  0  0  0  0  0  0  0  0  0  0  0
    0.0522   -0.5581   -1.8083 H   0  0  0  0  0  0  0  0  0  0  0  0
   -0.8579    1.0340   -1.6186 H   0  0  0  0  0  0  0  0  0  0  0  0
    1.5363    0.1304    1.3829 H   0  0  0  0  0  0  0  0  0  0  0  0
    0.7528    1.7701   -0.6094 H   0  0  0  0  0  0  0  0  0  0  0  0
    1.9374   -2.0050    0.0591 H   0  0  0  0  0  0  0  0  0  0  0  0
  1  2  3  0
  2  3  1  0
  3  4  1  0
  3  5  1  0
  3  6  1  0
  6  7  1  0
  6  8  1  0
  8  9  2  0
  1 10  1  0
  4 11  1  0
  4 12  1  0
  4 13  1  0
  5 14  1  0
  5 15  1  0
  5 16  1  0
  6 17  1  0
  7 18  1  0
  8 19  1  0
M  END
