
     RDKit          3D

 18 18  0  0  0  0  0  0  0  0999 V2000
    2.6937    1.6473   -0.6064 C   0  0  0  0  0  0  0  0  0  0  0  0
    2.0230    0.0037   -0.2577 C   0  0  0  0  0  0  0  0  0  0  0  0
    1.6624   -0.9010   -0.0521 C   0  0  0  0  0  0  0  0  0  0  0  0
    0.1276   -1.3476    0.1567 C   0  0  0  0  0  0  0  0  0  0  0  0
   -0.9159   -1.6603   -0.7646 C   0  0  0  0  0  0  0  0  0  0  0  0
   -1.0417   -0.3934   -0.1832 C   0  0  0  0  0  0  0  0  0  0  0  0
   -0.6664    0.7809   -0.7771 O   0  0  0  0  0  0  0  0  0  0  0  0
   -1.6032    1.8405   -0.7681 C   0  0  0  0  0  0  0  0  0  0  0  0
    3.0327    2.4858   -0.7911 H   0  0  0  0  0  0  0  0  0  0  0  0
    2.0822   -1.9389   -0.7313 H   0  0  0  0  0  0  0  0  0  0  0  0
    2.1148   -1.4988    1.0262 H   0  0  0  0  0  0  0  0  0  0  0  0
    0.0652   -0.9140    1.3362 H   0  0  0  0  0  0  0  0  0  0  0  0
   -1.2404   -2.7371   -0.8525 H   0  0  0  0  0  0  0  0  0  0  0  0
   -0.9520   -1.3240   -2.0087 H   0  0  0  0  0  0  0  0  0  0  0  0
   -2.0116   -0.4356    0.5344 H   0  0  0  0  0  0  0  0  0  0  0  0
   -1.3244    2.4987   -1.7539 H   0  0  0  0  0  0  0  0  0  0  0  0
   -2.6395    1.3844   -0.8052 H   0  0  0  0  0  0  0  0  0  0  0  0
   -1.4063    2.5095    0.0348 H   0  0  0  0  0  0  0  0  0  0  0  0
  1  2  3  0
  2  3  1  0
  3  4  1  0
  4  5  1  0
  5  6  1  0
  6  7  1  0
  7  8  1  0
  6  4  1  0
  1  9  1  0
  3 10  1  0
  3 11  1  0
  4 12  1  0
  5 13  1  0
  5 14  1  0
  6 15  1  0
  8 16  1  0
  8 17  1  0
  8 18  1  0
M  END
