
     RDKit          3D

 18 19  0  0  0  0  0  0  0  0999 V2000
    2.9084    0.5072   -0.6096 C   0  0  0  0  0  0  0  0  0  0  0  0
    2.0637    0.5550    0.2466 C   0  0  0  0  0  0  0  0  0  0  0  0
    1.0693    0.6057    1.2893 C   0  0  0  0  0  0  0  0  0  0  0  0
   -0.2858    0.1310    0.8540 C   0  0  0  0  0  0  0  0  0  0  0  0
   -0.3790   -1.2751    0.3631 C   0  0  0  0  0  0  0  0  0  0  0  0
   -1.1093   -0.8679   -0.8739 C   0  0  0  0  0  0  0  0  0  0  0  0
   -2.0893    0.2360   -0.8935 C   0  0  0  0  0  0  0  0  0  0  0  0
   -0.7097    0.5940   -0.5242 C   0  0  0  0  0  0  0  0  0  0  0  0
    3.6324    0.4699   -1.3643 H   0  0  0  0  0  0  0  0  0  0  0  0
    1.3543    0.0712    2.2010 H   0  0  0  0  0  0  0  0  0  0  0  0
    0.9515    1.6830    1.5836 H   0  0  0  0  0  0  0  0  0  0  0  0
   -1.0475    0.3539    1.5980 H   0  0  0  0  0  0  0  0  0  0  0  0
    0.6096   -1.7638    0.1401 H   0  0  0  0  0  0  0  0  0  0  0  0
   -0.9650   -1.9752    1.0119 H   0  0  0  0  0  0  0  0  0  0  0  0
   -0.7379   -1.2653   -1.8329 H   0  0  0  0  0  0  0  0  0  0  0  0
   -2.8484    0.3611   -0.0854 H   0  0  0  0  0  0  0  0  0  0  0  0
   -2.4364    0.5560   -1.8883 H   0  0  0  0  0  0  0  0  0  0  0  0
    0.0192    1.0234   -1.2155 H   0  0  0  0  0  0  0  0  0  0  0  0
  1  2  3  0
  2  3  1  0
  3  4  1  0
  4  5  1  0
  5  6  1  0
  6  7  1  0
  7  8  1  0
  8  4  1  0
  8  6  1  0
  1  9  1  0
  3 10  1  0
  3 11  1  0
  4 12  1  0
  5 13  1  0
  5 14  1  0
  6 15  1  0
  7 16  1  0
  7 17  1  0
  8 18  1  0
M  END
