
     RDKit          3D

 14 14  0  0  0  0  0  0  0  0999 V2000
    0.9228    2.1557    0.6511 C   0  0  0  0  0  0  0  0  0  0  0  0
    0.5759    1.0055    0.5952 C   0  0  0  0  0  0  0  0  0  0  0  0
    0.1668   -0.4159    0.5084 C   0  0  0  0  0  0  0  0  0  0  0  0
    1.3545   -1.2286    0.7791 C   0  0  0  0  0  0  0  0  0  0  0  0
    1.5717   -1.8517    1.8032 O   0  0  0  0  0  0  0  0  0  0  0  0
   -0.4327   -0.6327   -0.8516 C   0  0  0  0  0  0  0  0  0  0  0  0
   -1.6477    0.2286   -1.1309 C   0  0  0  0  0  0  0  0  0  0  0  0
   -1.6838   -1.1665   -1.0065 O   0  0  0  0  0  0  0  0  0  0  0  0
    1.2192    3.1749    0.7050 H   0  0  0  0  0  0  0  0  0  0  0  0
   -0.6176   -0.5839    1.2803 H   0  0  0  0  0  0  0  0  0  0  0  0
    2.1237   -1.2944    0.0087 H   0  0  0  0  0  0  0  0  0  0  0  0
    0.2579   -0.8252   -1.6952 H   0  0  0  0  0  0  0  0  0  0  0  0
   -1.6683    0.6850   -2.1282 H   0  0  0  0  0  0  0  0  0  0  0  0
   -2.1424    0.7492   -0.3031 H   0  0  0  0  0  0  0  0  0  0  0  0
  1  2  3  0
  2  3  1  0
  3  4  1  0
  4  5  2  0
  3  6  1  0
  6  7  1  0
  7  8  1  0
  8  6  1  0
  1  9  1  0
  3 10  1  0
  4 11  1  0
  6 12  1  0
  7 13  1  0
  7 14  1  0
M  END
