
     RDKit          3D

 21 21  0  0  0  0  0  0  0  0999 V2000
    3.3560   -1.2999    0.0164 C   0  0  0  0  0  0  0  0  0  0  0  0
    2.3976   -0.5694    0.0710 C   0  0  0  0  0  0  0  0  0  0  0  0
    1.2567    0.3076    0.1606 C   0  0  0  0  0  0  0  0  0  0  0  0
    1.2354    1.0991    1.4637 C   0  0  0  0  0  0  0  0  0  0  0  0
   -0.2915    0.9543    1.4109 C   0  0  0  0  0  0  0  0  0  0  0  0
   -0.0392   -0.3038    0.6050 C   0  0  0  0  0  0  0  0  0  0  0  0
   -1.0329   -0.6121   -0.4604 C   0  0  0  0  0  0  0  0  0  0  0  0
   -1.4426    0.4886   -1.1860 O   0  0  0  0  0  0  0  0  0  0  0  0
   -2.3711    0.0163   -2.1383 C   0  0  0  0  0  0  0  0  0  0  0  0
    4.2042   -1.9641   -0.0264 H   0  0  0  0  0  0  0  0  0  0  0  0
    1.1875    0.9758   -0.7272 H   0  0  0  0  0  0  0  0  0  0  0  0
    1.6169    0.4596    2.2766 H   0  0  0  0  0  0  0  0  0  0  0  0
    1.6064    2.1182    1.3929 H   0  0  0  0  0  0  0  0  0  0  0  0
   -0.8007    1.7251    0.8288 H   0  0  0  0  0  0  0  0  0  0  0  0
   -0.7333    0.6894    2.3954 H   0  0  0  0  0  0  0  0  0  0  0  0
    0.1445   -1.2056    1.2323 H   0  0  0  0  0  0  0  0  0  0  0  0
   -1.9198   -1.0676    0.0019 H   0  0  0  0  0  0  0  0  0  0  0  0
   -0.5807   -1.3463   -1.1540 H   0  0  0  0  0  0  0  0  0  0  0  0
   -3.2161   -0.4496   -1.6138 H   0  0  0  0  0  0  0  0  0  0  0  0
   -2.6750    0.7911   -2.8493 H   0  0  0  0  0  0  0  0  0  0  0  0
   -1.9024   -0.8068   -2.7519 H   0  0  0  0  0  0  0  0  0  0  0  0
  1  2  3  0
  2  3  1  0
  3  4  1  0
  4  5  1  0
  5  6  1  0
  6  7  1  0
  7  8  1  0
  8  9  1  0
  6  3  1  0
  1 10  1  0
  3 11  1  0
  4 12  1  0
  4 13  1  0
  5 14  1  0
  5 15  1  0
  6 16  1  0
  7 17  1  0
  7 18  1  0
  9 19  1  0
  9 20  1  0
  9 21  1  0
M  END
