
     RDKit          3D

 17 18  0  0  0  0  0  0  0  0999 V2000
    4.9334    0.1976    1.8537 C   0  0  0  0  0  0  0  0  0  0  0  0
    3.6895    0.1058    1.1787 C   0  0  0  0  0  0  0  0  0  0  0  0
    2.5115    0.0388    0.5269 C   0  0  0  0  0  0  0  0  0  0  0  0
    1.4019   -0.0184   -0.1123 C   0  0  0  0  0  0  0  0  0  0  0  0
    0.2023   -0.0958   -0.7901 C   0  0  0  0  0  0  0  0  0  0  0  0
   -0.9571    0.7599   -0.5908 C   0  0  0  0  0  0  0  0  0  0  0  0
   -2.3842    0.3816   -0.9275 C   0  0  0  0  0  0  0  0  0  0  0  0
   -2.1809   -1.0423   -0.3521 C   0  0  0  0  0  0  0  0  0  0  0  0
   -0.9079   -0.5225    0.2414 C   0  0  0  0  0  0  0  0  0  0  0  0
    5.8137    0.2705    2.3500 H   0  0  0  0  0  0  0  0  0  0  0  0
    0.1708   -0.7235   -1.7142 H   0  0  0  0  0  0  0  0  0  0  0  0
   -0.8595    1.6993    0.0321 H   0  0  0  0  0  0  0  0  0  0  0  0
   -2.7020    0.2867   -1.9659 H   0  0  0  0  0  0  0  0  0  0  0  0
   -3.0879    0.8988   -0.1811 H   0  0  0  0  0  0  0  0  0  0  0  0
   -2.9601   -1.3787    0.3120 H   0  0  0  0  0  0  0  0  0  0  0  0
   -1.9856   -1.7506   -1.1587 H   0  0  0  0  0  0  0  0  0  0  0  0
   -0.6977   -0.4559    1.2980 H   0  0  0  0  0  0  0  0  0  0  0  0
  1  2  3  0
  2  3  1  0
  3  4  3  0
  4  5  1  0
  5  6  1  0
  6  7  1  0
  7  8  1  0
  8  9  1  0
  9  5  1  0
  9  6  1  0
  1 10  1  0
  5 11  1  0
  6 12  1  0
  7 13  1  0
  7 14  1  0
  8 15  1  0
  8 16  1  0
  9 17  1  0
M  END
