
     RDKit          3D

 19 19  0  0  0  0  0  0  0  0999 V2000
   -1.8128    0.4680   -2.9538 C   0  0  0  0  0  0  0  0  0  0  0  0
   -1.3195    0.9831   -1.8474 C   0  0  0  0  0  0  0  0  0  0  0  0
   -0.8409    1.5109   -0.7614 C   0  0  0  0  0  0  0  0  0  0  0  0
    0.4666    0.8969   -0.1962 C   0  0  0  0  0  0  0  0  0  0  0  0
    0.2033   -0.4842    0.3267 C   0  0  0  0  0  0  0  0  0  0  0  0
    1.4472   -1.1354    0.8709 C   0  0  0  0  0  0  0  0  0  0  0  0
    0.5005   -1.5476    2.0081 C   0  0  0  0  0  0  0  0  0  0  0  0
   -0.0612   -0.2571    1.9354 C   0  0  0  0  0  0  0  0  0  0  0  0
   -0.5474    0.8043    2.2599 O   0  0  0  0  0  0  0  0  0  0  0  0
   -2.2275    0.0178   -3.9239 H   0  0  0  0  0  0  0  0  0  0  0  0
   -1.5603    1.3883    0.1471 H   0  0  0  0  0  0  0  0  0  0  0  0
   -0.6756    2.6343   -0.7527 H   0  0  0  0  0  0  0  0  0  0  0  0
    1.1904    0.8883   -1.0171 H   0  0  0  0  0  0  0  0  0  0  0  0
    0.8829    1.5359    0.5974 H   0  0  0  0  0  0  0  0  0  0  0  0
   -0.5908   -1.0499   -0.0597 H   0  0  0  0  0  0  0  0  0  0  0  0
    1.8513   -1.9916    0.3241 H   0  0  0  0  0  0  0  0  0  0  0  0
    2.1914   -0.3674    1.1965 H   0  0  0  0  0  0  0  0  0  0  0  0
    1.0148   -1.8436    2.9513 H   0  0  0  0  0  0  0  0  0  0  0  0
   -0.1124   -2.4512    1.7018 H   0  0  0  0  0  0  0  0  0  0  0  0
  1  2  3  0
  2  3  1  0
  3  4  1  0
  4  5  1  0
  5  6  1  0
  6  7  1  0
  7  8  1  0
  8  9  2  0
  8  5  1  0
  1 10  1  0
  3 11  1  0
  3 12  1  0
  4 13  1  0
  4 14  1  0
  5 15  1  0
  6 16  1  0
  6 17  1  0
  7 18  1  0
  7 19  1  0
M  END
