
     RDKit          3D

 17 18  0  0  0  0  0  0  0  0999 V2000
    0.9064    3.6370   -0.7221 C   0  0  0  0  0  0  0  0  0  0  0  0
    0.5305    2.8464   -0.2745 C   0  0  0  0  0  0  0  0  0  0  0  0
   -0.0757    1.5351    0.4445 C   0  0  0  0  0  0  0  0  0  0  0  0
   -1.0301    1.0071   -0.7027 O   0  0  0  0  0  0  0  0  0  0  0  0
    0.1798    0.3583   -0.1777 C   0  0  0  0  0  0  0  0  0  0  0  0
   -0.1857   -1.0060    0.2997 C   0  0  0  0  0  0  0  0  0  0  0  0
    0.9808   -2.0019    0.4339 C   0  0  0  0  0  0  0  0  0  0  0  0
   -1.5216   -1.5911    0.0451 C   0  0  0  0  0  0  0  0  0  0  0  0
   -1.1479   -1.1420    1.3024 O   0  0  0  0  0  0  0  0  0  0  0  0
    1.3354    4.5811   -1.2609 H   0  0  0  0  0  0  0  0  0  0  0  0
   -0.8195    1.9346    1.1626 H   0  0  0  0  0  0  0  0  0  0  0  0
    0.9848    0.3278   -1.0109 H   0  0  0  0  0  0  0  0  0  0  0  0
    0.6986   -2.7416    1.2024 H   0  0  0  0  0  0  0  0  0  0  0  0
    1.8846   -1.4597    0.7150 H   0  0  0  0  0  0  0  0  0  0  0  0
    1.1288   -2.5113   -0.5573 H   0  0  0  0  0  0  0  0  0  0  0  0
   -2.3613   -1.0835   -0.3903 H   0  0  0  0  0  0  0  0  0  0  0  0
   -1.4880   -2.6902   -0.1466 H   0  0  0  0  0  0  0  0  0  0  0  0
  1  2  3  0
  2  3  1  0
  3  4  1  0
  4  5  1  0
  5  6  1  0
  6  7  1  0
  6  8  1  0
  8  9  1  0
  5  3  1  0
  9  6  1  0
  1 10  1  0
  3 11  1  0
  5 12  1  0
  7 13  1  0
  7 14  1  0
  7 15  1  0
  8 16  1  0
  8 17  1  0
M  END
