
     RDKit          3D

 18 18  0  0  0  0  0  0  0  0999 V2000
   -1.7677   -0.1096    2.2526 C   0  0  0  0  0  0  0  0  0  0  0  0
   -1.2621    0.0421    1.1280 C   0  0  0  0  0  0  0  0  0  0  0  0
   -0.7360    0.1957   -0.0875 C   0  0  0  0  0  0  0  0  0  0  0  0
    0.6966    0.7864   -0.1901 C   0  0  0  0  0  0  0  0  0  0  0  0
    1.6835   -0.1379    0.4965 C   0  0  0  0  0  0  0  0  0  0  0  0
    2.9349    0.5034    0.3555 O   0  0  0  0  0  0  0  0  0  0  0  0
   -0.9360   -0.9683   -1.0651 C   0  0  0  0  0  0  0  0  0  0  0  0
   -1.5294    0.4164   -1.4003 C   0  0  0  0  0  0  0  0  0  0  0  0
   -2.2531   -0.2609    3.2900 H   0  0  0  0  0  0  0  0  0  0  0  0
    1.0183    0.9053   -1.2130 H   0  0  0  0  0  0  0  0  0  0  0  0
    0.6901    1.7502    0.3112 H   0  0  0  0  0  0  0  0  0  0  0  0
    1.7354   -1.1000   -0.0636 H   0  0  0  0  0  0  0  0  0  0  0  0
    1.5027   -0.3136    1.5361 H   0  0  0  0  0  0  0  0  0  0  0  0
    3.6941   -0.0179    0.6833 H   0  0  0  0  0  0  0  0  0  0  0  0
   -0.1119   -1.3638   -1.6510 H   0  0  0  0  0  0  0  0  0  0  0  0
   -1.6865   -1.6983   -0.7366 H   0  0  0  0  0  0  0  0  0  0  0  0
   -2.6340    0.4922   -1.3611 H   0  0  0  0  0  0  0  0  0  0  0  0
   -1.0388    0.8787   -2.2849 H   0  0  0  0  0  0  0  0  0  0  0  0
  1  2  3  0
  2  3  1  0
  3  4  1  0
  4  5  1  0
  5  6  1  0
  3  7  1  0
  7  8  1  0
  8  3  1  0
  1  9  1  0
  4 10  1  0
  4 11  1  0
  5 12  1  0
  5 13  1  0
  6 14  1  0
  7 15  1  0
  7 16  1  0
  8 17  1  0
  8 18  1  0
M  END
