
     RDKit          3D

 19 19  0  0  0  0  0  0  0  0999 V2000
    3.1480    0.2537    0.3101 C   0  0  0  0  0  0  0  0  0  0  0  0
    2.1178   -0.3227    0.4393 C   0  0  0  0  0  0  0  0  0  0  0  0
    0.8498   -1.0118    0.5799 C   0  0  0  0  0  0  0  0  0  0  0  0
   -0.0924   -0.4361    1.5171 O   0  0  0  0  0  0  0  0  0  0  0  0
   -0.3940   -0.4558    0.1484 C   0  0  0  0  0  0  0  0  0  0  0  0
   -0.5548    0.8908   -0.4964 C   0  0  0  0  0  0  0  0  0  0  0  0
   -0.0931    2.0209    0.3634 C   0  0  0  0  0  0  0  0  0  0  0  0
   -1.5223   -1.4381   -0.1957 C   0  0  0  0  0  0  0  0  0  0  0  0
   -1.7825   -1.4195   -1.5633 O   0  0  0  0  0  0  0  0  0  0  0  0
    4.0865    0.7599    0.2027 H   0  0  0  0  0  0  0  0  0  0  0  0
    0.9417   -2.1225    0.6602 H   0  0  0  0  0  0  0  0  0  0  0  0
    0.0546    0.8970   -1.4219 H   0  0  0  0  0  0  0  0  0  0  0  0
   -1.6174    1.0672   -0.7721 H   0  0  0  0  0  0  0  0  0  0  0  0
   -0.2763    1.8322    1.4567 H   0  0  0  0  0  0  0  0  0  0  0  0
   -0.6941    2.9203    0.1187 H   0  0  0  0  0  0  0  0  0  0  0  0
    0.9671    2.3097    0.1939 H   0  0  0  0  0  0  0  0  0  0  0  0
   -2.4213   -1.0351    0.3097 H   0  0  0  0  0  0  0  0  0  0  0  0
   -1.2554   -2.4561    0.1549 H   0  0  0  0  0  0  0  0  0  0  0  0
   -1.4619   -2.2540   -2.0056 H   0  0  0  0  0  0  0  0  0  0  0  0
  1  2  3  0
  2  3  1  0
  3  4  1  0
  4  5  1  0
  5  6  1  0
  6  7  1  0
  5  8  1  0
  8  9  1  0
  5  3  1  0
  1 10  1  0
  3 11  1  0
  6 12  1  0
  6 13  1  0
  7 14  1  0
  7 15  1  0
  7 16  1  0
  8 17  1  0
  8 18  1  0
  9 19  1  0
M  END
