
     RDKit          3D

 20 19  0  0  0  0  0  0  0  0999 V2000
    2.8528    0.5118   -0.7113 C   0  0  0  0  0  0  0  0  0  0  0  0
    1.9298    0.0898   -0.0581 C   0  0  0  0  0  0  0  0  0  0  0  0
    0.8065   -0.4499    0.7453 C   0  0  0  0  0  0  0  0  0  0  0  0
    0.8485   -1.8365    0.7818 O   0  0  0  0  0  0  0  0  0  0  0  0
   -0.4559    0.0634    0.0971 C   0  0  0  0  0  0  0  0  0  0  0  0
   -1.6209   -0.4755    0.9015 C   0  0  0  0  0  0  0  0  0  0  0  0
   -0.5149    1.5509    0.0270 C   0  0  0  0  0  0  0  0  0  0  0  0
   -0.6124   -0.4832   -1.3064 C   0  0  0  0  0  0  0  0  0  0  0  0
    3.6641    0.8847   -1.2958 H   0  0  0  0  0  0  0  0  0  0  0  0
    0.9046   -0.0498    1.7734 H   0  0  0  0  0  0  0  0  0  0  0  0
    1.7577   -2.0962    1.0567 H   0  0  0  0  0  0  0  0  0  0  0  0
   -1.4110   -1.4573    1.3536 H   0  0  0  0  0  0  0  0  0  0  0  0
   -1.9079    0.2908    1.6706 H   0  0  0  0  0  0  0  0  0  0  0  0
   -2.4916   -0.5345    0.2153 H   0  0  0  0  0  0  0  0  0  0  0  0
   -1.3785    1.8267   -0.6189 H   0  0  0  0  0  0  0  0  0  0  0  0
    0.3793    1.9710   -0.4560 H   0  0  0  0  0  0  0  0  0  0  0  0
   -0.7241    2.0015    1.0193 H   0  0  0  0  0  0  0  0  0  0  0  0
   -1.7147   -0.5062   -1.5158 H   0  0  0  0  0  0  0  0  0  0  0  0
   -0.1562   -1.4865   -1.3113 H   0  0  0  0  0  0  0  0  0  0  0  0
   -0.1554    0.1850   -2.0634 H   0  0  0  0  0  0  0  0  0  0  0  0
  1  2  3  0
  2  3  1  0
  3  4  1  0
  3  5  1  0
  5  6  1  0
  5  7  1  0
  5  8  1  0
  1  9  1  0
  3 10  1  0
  4 11  1  0
  6 12  1  0
  6 13  1  0
  6 14  1  0
  7 15  1  0
  7 16  1  0
  7 17  1  0
  8 18  1  0
  8 19  1  0
  8 20  1  0
M  END
