
     RDKit          3D

 21 20  0  0  0  0  0  0  0  0999 V2000
   -1.9096    2.6272    1.7669 C   0  0  0  0  0  0  0  0  0  0  0  0
   -1.6162    1.4638    1.8245 C   0  0  0  0  0  0  0  0  0  0  0  0
   -1.2430    0.0223    1.8722 C   0  0  0  0  0  0  0  0  0  0  0  0
   -0.7207   -0.3454    0.4754 C   0  0  0  0  0  0  0  0  0  0  0  0
   -0.3222   -1.7888    0.4144 C   0  0  0  0  0  0  0  0  0  0  0  0
    0.4301    0.5872    0.2243 C   0  0  0  0  0  0  0  0  0  0  0  0
    0.9708    0.2817   -1.1021 C   0  0  0  0  0  0  0  0  0  0  0  0
    1.4456    0.0309   -2.2128 C   0  0  0  0  0  0  0  0  0  0  0  0
    2.0269   -0.2568   -3.5105 C   0  0  0  0  0  0  0  0  0  0  0  0
   -2.1819    3.6667    1.7191 H   0  0  0  0  0  0  0  0  0  0  0  0
   -2.0888   -0.5962    2.1826 H   0  0  0  0  0  0  0  0  0  0  0  0
   -0.3937   -0.1273    2.5677 H   0  0  0  0  0  0  0  0  0  0  0  0
   -1.5491   -0.1889   -0.2495 H   0  0  0  0  0  0  0  0  0  0  0  0
   -1.1838   -2.3837    0.0468 H   0  0  0  0  0  0  0  0  0  0  0  0
    0.0412   -2.2023    1.3831 H   0  0  0  0  0  0  0  0  0  0  0  0
    0.4702   -1.8736   -0.3667 H   0  0  0  0  0  0  0  0  0  0  0  0
    0.1148    1.6515    0.3027 H   0  0  0  0  0  0  0  0  0  0  0  0
    1.2206    0.3622    1.0020 H   0  0  0  0  0  0  0  0  0  0  0  0
    1.3082    0.0187   -4.3379 H   0  0  0  0  0  0  0  0  0  0  0  0
    2.9411    0.3792   -3.6949 H   0  0  0  0  0  0  0  0  0  0  0  0
    2.2393   -1.3283   -3.5913 H   0  0  0  0  0  0  0  0  0  0  0  0
  1  2  3  0
  2  3  1  0
  3  4  1  0
  4  5  1  0
  4  6  1  0
  6  7  1  0
  7  8  3  0
  8  9  1  0
  1 10  1  0
  3 11  1  0
  3 12  1  0
  4 13  1  0
  5 14  1  0
  5 15  1  0
  5 16  1  0
  6 17  1  0
  6 18  1  0
  9 19  1  0
  9 20  1  0
  9 21  1  0
M  END
