
     RDKit          3D

 21 20  0  0  0  0  0  0  0  0999 V2000
   -1.5350    1.4698   -2.2046 C   0  0  0  0  0  0  0  0  0  0  0  0
   -1.6740    0.5123   -1.8851 C   0  0  0  0  0  0  0  0  0  0  0  0
   -1.9037   -0.9788   -1.3709 C   0  0  0  0  0  0  0  0  0  0  0  0
   -1.0316   -0.7104   -0.0827 C   0  0  0  0  0  0  0  0  0  0  0  0
   -0.5803   -1.5277    0.9884 C   0  0  0  0  0  0  0  0  0  0  0  0
    0.3536   -0.5505    1.6674 O   0  0  0  0  0  0  0  0  0  0  0  0
    1.3159   -0.2619    0.6886 C   0  0  0  0  0  0  0  0  0  0  0  0
    1.8578    1.1047    0.6024 C   0  0  0  0  0  0  0  0  0  0  0  0
    2.4798    1.6308    1.6901 O   0  0  0  0  0  0  0  0  0  0  0  0
   -1.3529    2.8075   -2.6531 H   0  0  0  0  0  0  0  0  0  0  0  0
   -2.9286   -1.0360   -1.2503 H   0  0  0  0  0  0  0  0  0  0  0  0
   -1.4101   -1.6308   -1.9873 H   0  0  0  0  0  0  0  0  0  0  0  0
   -0.5072    0.3089   -0.2644 H   0  0  0  0  0  0  0  0  0  0  0  0
   -1.9849   -0.0839    0.4775 H   0  0  0  0  0  0  0  0  0  0  0  0
   -0.0225   -2.4335    0.8495 H   0  0  0  0  0  0  0  0  0  0  0  0
   -1.3626   -1.5804    1.8123 H   0  0  0  0  0  0  0  0  0  0  0  0
    2.2374   -0.9616    0.8364 H   0  0  0  0  0  0  0  0  0  0  0  0
    0.9906   -0.6039   -0.3331 H   0  0  0  0  0  0  0  0  0  0  0  0
    2.5324    1.1608   -0.3413 H   0  0  0  0  0  0  0  0  0  0  0  0
    1.0235    1.7956    0.3411 H   0  0  0  0  0  0  0  0  0  0  0  0
    3.5024    1.5691    1.4624 H   0  0  0  0  0  0  0  0  0  0  0  0
  1  2  3  0
  2  3  1  0
  3  4  1  0
  4  5  1  0
  5  6  1  0
  6  7  1  0
  7  8  1  0
  8  9  1  0
  1 10  1  0
  3 11  1  0
  3 12  1  0
  4 13  1  0
  4 14  1  0
  5 15  1  0
  5 16  1  0
  7 17  1  0
  7 18  1  0
  8 19  1  0
  8 20  1  0
  9 21  1  0
M  END
