
     RDKit          3D

 17 17  0  0  0  0  0  0  0  0999 V2000
    2.3381    0.5715    1.3109 C   0  0  0  0  0  0  0  0  0  0  0  0
    1.6318    0.5612    0.3137 C   0  0  0  0  0  0  0  0  0  0  0  0
    0.7910    0.5729   -0.8873 C   0  0  0  0  0  0  0  0  0  0  0  0
   -0.6510    0.7745   -0.7905 C   0  0  0  0  0  0  0  0  0  0  0  0
   -1.3865    0.9282    0.4986 C   0  0  0  0  0  0  0  0  0  0  0  0
   -0.1582   -0.6230   -1.0742 C   0  0  0  0  0  0  0  0  0  0  0  0
   -0.1531   -1.6100    0.0987 C   0  0  0  0  0  0  0  0  0  0  0  0
    2.9384    0.5683    2.1826 H   0  0  0  0  0  0  0  0  0  0  0  0
    1.3231    0.9252   -1.7923 H   0  0  0  0  0  0  0  0  0  0  0  0
   -1.1828    1.2323   -1.6688 H   0  0  0  0  0  0  0  0  0  0  0  0
   -1.8822    1.9091    0.6162 H   0  0  0  0  0  0  0  0  0  0  0  0
   -2.2011    0.1614    0.5143 H   0  0  0  0  0  0  0  0  0  0  0  0
   -0.6957    0.6769    1.3223 H   0  0  0  0  0  0  0  0  0  0  0  0
   -0.2539   -1.0522   -2.0775 H   0  0  0  0  0  0  0  0  0  0  0  0
   -1.1261   -1.6177    0.6094 H   0  0  0  0  0  0  0  0  0  0  0  0
    0.0483   -2.6186   -0.3107 H   0  0  0  0  0  0  0  0  0  0  0  0
    0.6199   -1.3601    0.8382 H   0  0  0  0  0  0  0  0  0  0  0  0
  1  2  3  0
  2  3  1  0
  3  4  1  0
  4  5  1  0
  4  6  1  0
  6  7  1  0
  6  3  1  0
  1  8  1  0
  3  9  1  0
  4 10  1  0
  5 11  1  0
  5 12  1  0
  5 13  1  0
  6 14  1  0
  7 15  1  0
  7 16  1  0
  7 17  1  0
M  END
