
     RDKit          3D

 19 18  0  0  0  0  0  0  0  0999 V2000
    3.9608   -2.0493   -0.4967 C   0  0  0  0  0  0  0  0  0  0  0  0
    2.7871   -2.1892   -0.4962 C   0  0  0  0  0  0  0  0  0  0  0  0
    1.3132   -2.3524   -0.4802 C   0  0  0  0  0  0  0  0  0  0  0  0
    0.7154   -0.9882   -0.4323 C   0  0  0  0  0  0  0  0  0  0  0  0
    1.3837    0.0497   -0.3954 O   0  0  0  0  0  0  0  0  0  0  0  0
   -0.6585   -0.9095   -0.4305 O   0  0  0  0  0  0  0  0  0  0  0  0
   -1.4014    0.2691   -0.3900 C   0  0  0  0  0  0  0  0  0  0  0  0
   -1.1426    1.1118    0.8523 C   0  0  0  0  0  0  0  0  0  0  0  0
   -2.0200    2.3626    0.7615 C   0  0  0  0  0  0  0  0  0  0  0  0
    5.0494   -1.9329   -0.5105 H   0  0  0  0  0  0  0  0  0  0  0  0
    0.9732   -2.8516   -1.4178 H   0  0  0  0  0  0  0  0  0  0  0  0
    0.9752   -2.9561    0.3849 H   0  0  0  0  0  0  0  0  0  0  0  0
   -2.4807    0.0100   -0.3581 H   0  0  0  0  0  0  0  0  0  0  0  0
   -1.2731    0.8899   -1.2999 H   0  0  0  0  0  0  0  0  0  0  0  0
   -1.3846    0.5264    1.7537 H   0  0  0  0  0  0  0  0  0  0  0  0
   -0.0943    1.4589    0.8461 H   0  0  0  0  0  0  0  0  0  0  0  0
   -3.0777    1.9959    0.6482 H   0  0  0  0  0  0  0  0  0  0  0  0
   -1.7597    2.8897   -0.1727 H   0  0  0  0  0  0  0  0  0  0  0  0
   -1.8655    3.0004    1.6335 H   0  0  0  0  0  0  0  0  0  0  0  0
  1  2  3  0
  2  3  1  0
  3  4  1  0
  4  5  2  0
  4  6  1  0
  6  7  1  0
  7  8  1  0
  8  9  1  0
  1 10  1  0
  3 11  1  0
  3 12  1  0
  7 13  1  0
  7 14  1  0
  8 15  1  0
  8 16  1  0
  9 17  1  0
  9 18  1  0
  9 19  1  0
M  END
