
     RDKit          3D

 16 15  0  0  0  0  0  0  0  0999 V2000
   -2.0584   -0.4322    2.3030 C   0  0  0  0  0  0  0  0  0  0  0  0
   -1.1305   -0.6683    1.1021 C   0  0  0  0  0  0  0  0  0  0  0  0
   -0.3708   -0.8393    0.1166 C   0  0  0  0  0  0  0  0  0  0  0  0
   -1.0783   -0.6478   -1.2250 C   0  0  0  0  0  0  0  0  0  0  0  0
   -2.1396   -1.2485   -1.3561 O   0  0  0  0  0  0  0  0  0  0  0  0
    0.4965    0.6442    0.2121 C   0  0  0  0  0  0  0  0  0  0  0  0
    1.3809    0.8617   -0.9310 C   0  0  0  0  0  0  0  0  0  0  0  0
    1.4019    0.2551    1.2782 O   0  0  0  0  0  0  0  0  0  0  0  0
   -2.5382   -0.3156    2.9214 H   0  0  0  0  0  0  0  0  0  0  0  0
    0.5068   -1.3623   -0.0905 H   0  0  0  0  0  0  0  0  0  0  0  0
   -0.8386   -0.0359   -2.1516 H   0  0  0  0  0  0  0  0  0  0  0  0
   -0.1411    1.3460    0.6568 H   0  0  0  0  0  0  0  0  0  0  0  0
    2.2320    0.2061   -1.1626 H   0  0  0  0  0  0  0  0  0  0  0  0
    0.8070    1.0455   -1.9101 H   0  0  0  0  0  0  0  0  0  0  0  0
    1.8200    1.9228   -0.8304 H   0  0  0  0  0  0  0  0  0  0  0  0
    1.6504   -0.7316    1.0672 H   0  0  0  0  0  0  0  0  0  0  0  0
  1  2  3  0
  2  3  1  0
  3  4  1  0
  4  5  2  0
  3  6  1  0
  6  7  1  0
  6  8  1  0
  1  9  1  0
  3 10  1  0
  4 11  1  0
  6 12  1  0
  7 13  1  0
  7 14  1  0
  7 15  1  0
  8 16  1  0
M  END
