
     RDKit          3D

 17 18  0  0  0  0  0  0  0  0999 V2000
    1.7687   -0.5034   -2.3320 C   0  0  0  0  0  0  0  0  0  0  0  0
    0.9545   -0.3436   -1.4804 C   0  0  0  0  0  0  0  0  0  0  0  0
    0.0304   -0.1695   -0.5463 C   0  0  0  0  0  0  0  0  0  0  0  0
   -1.4023   -0.5246   -0.5573 C   0  0  0  0  0  0  0  0  0  0  0  0
   -1.2088    0.2457    0.7389 C   0  0  0  0  0  0  0  0  0  0  0  0
   -0.4285    1.2040   -0.0697 C   0  0  0  0  0  0  0  0  0  0  0  0
    0.0578   -0.5520    0.8772 C   0  0  0  0  0  0  0  0  0  0  0  0
    1.0732    0.0535    1.7427 C   0  0  0  0  0  0  0  0  0  0  0  0
    0.7802    0.9469    2.5058 O   0  0  0  0  0  0  0  0  0  0  0  0
    2.5327   -0.6618   -3.1078 H   0  0  0  0  0  0  0  0  0  0  0  0
   -1.5590   -1.6179   -0.3536 H   0  0  0  0  0  0  0  0  0  0  0  0
   -2.0659   -0.1011   -1.3016 H   0  0  0  0  0  0  0  0  0  0  0  0
   -1.9167    0.4061    1.4286 H   0  0  0  0  0  0  0  0  0  0  0  0
   -0.9350    1.7968   -0.8472 H   0  0  0  0  0  0  0  0  0  0  0  0
    0.3083    1.7731    0.4833 H   0  0  0  0  0  0  0  0  0  0  0  0
   -0.0978   -1.6344    1.1296 H   0  0  0  0  0  0  0  0  0  0  0  0
    2.1081   -0.3179    1.6898 H   0  0  0  0  0  0  0  0  0  0  0  0
  1  2  3  0
  2  3  1  0
  3  4  1  0
  4  5  1  0
  5  6  1  0
  5  7  1  0
  7  8  1  0
  8  9  2  0
  6  3  1  0
  7  3  1  0
  1 10  1  0
  4 11  1  0
  4 12  1  0
  5 13  1  0
  6 14  1  0
  6 15  1  0
  7 16  1  0
  8 17  1  0
M  END
