
     RDKit          3D

 18 18  0  0  0  0  0  0  0  0999 V2000
   -1.2819    1.7861    1.8197 C   0  0  0  0  0  0  0  0  0  0  0  0
   -1.1675    0.8444    1.0559 C   0  0  0  0  0  0  0  0  0  0  0  0
   -1.0118   -0.2695    0.1688 C   0  0  0  0  0  0  0  0  0  0  0  0
   -1.9315   -0.1270   -1.0392 C   0  0  0  0  0  0  0  0  0  0  0  0
    0.3789   -0.4242   -0.3645 C   0  0  0  0  0  0  0  0  0  0  0  0
    1.4728   -0.6309    0.6589 C   0  0  0  0  0  0  0  0  0  0  0  0
    2.2388    0.0304   -0.4967 C   0  0  0  0  0  0  0  0  0  0  0  0
    1.0462    0.7017   -0.7882 O   0  0  0  0  0  0  0  0  0  0  0  0
   -1.3630    2.6062    2.4812 H   0  0  0  0  0  0  0  0  0  0  0  0
   -1.2464   -1.2229    0.7263 H   0  0  0  0  0  0  0  0  0  0  0  0
   -2.9435    0.1735   -0.7450 H   0  0  0  0  0  0  0  0  0  0  0  0
   -1.4512    0.6160   -1.7139 H   0  0  0  0  0  0  0  0  0  0  0  0
   -1.9247   -1.0992   -1.5608 H   0  0  0  0  0  0  0  0  0  0  0  0
    0.4413   -1.2297   -1.1280 H   0  0  0  0  0  0  0  0  0  0  0  0
    1.8153   -1.6459    0.8401 H   0  0  0  0  0  0  0  0  0  0  0  0
    1.4122    0.0295    1.5564 H   0  0  0  0  0  0  0  0  0  0  0  0
    3.0898    0.6354   -0.2081 H   0  0  0  0  0  0  0  0  0  0  0  0
    2.4262   -0.7739   -1.2629 H   0  0  0  0  0  0  0  0  0  0  0  0
  1  2  3  0
  2  3  1  0
  3  4  1  0
  3  5  1  0
  5  6  1  0
  6  7  1  0
  7  8  1  0
  8  5  1  0
  1  9  1  0
  3 10  1  0
  4 11  1  0
  4 12  1  0
  4 13  1  0
  5 14  1  0
  6 15  1  0
  6 16  1  0
  7 17  1  0
  7 18  1  0
M  END
