
     RDKit          3D

 17 18  0  0  0  0  0  0  0  0999 V2000
    3.3261    0.5375    0.9446 C   0  0  0  0  0  0  0  0  0  0  0  0
    2.1473    0.5188    0.7002 C   0  0  0  0  0  0  0  0  0  0  0  0
    0.7172    0.4901    0.4288 C   0  0  0  0  0  0  0  0  0  0  0  0
    0.4727    1.1511   -0.7990 O   0  0  0  0  0  0  0  0  0  0  0  0
   -0.5018    0.3268   -1.4000 C   0  0  0  0  0  0  0  0  0  0  0  0
   -1.7437    0.2434   -0.5442 C   0  0  0  0  0  0  0  0  0  0  0  0
   -1.3387   -0.8167    0.4921 C   0  0  0  0  0  0  0  0  0  0  0  0
    0.1624   -0.8702    0.2114 C   0  0  0  0  0  0  0  0  0  0  0  0
    0.1180   -0.9321   -1.2029 O   0  0  0  0  0  0  0  0  0  0  0  0
    4.3733    0.5481    1.1437 H   0  0  0  0  0  0  0  0  0  0  0  0
    0.1476    1.0856    1.1863 H   0  0  0  0  0  0  0  0  0  0  0  0
   -0.6784    0.5550   -2.4398 H   0  0  0  0  0  0  0  0  0  0  0  0
   -2.6148   -0.0545   -1.1240 H   0  0  0  0  0  0  0  0  0  0  0  0
   -1.8618    1.1826    0.0307 H   0  0  0  0  0  0  0  0  0  0  0  0
   -1.5651   -0.5027    1.5088 H   0  0  0  0  0  0  0  0  0  0  0  0
   -1.8283   -1.7673    0.1954 H   0  0  0  0  0  0  0  0  0  0  0  0
    0.6682   -1.6952    0.6676 H   0  0  0  0  0  0  0  0  0  0  0  0
  1  2  3  0
  2  3  1  0
  3  4  1  0
  4  5  1  0
  5  6  1  0
  6  7  1  0
  7  8  1  0
  8  9  1  0
  8  3  1  0
  9  5  1  0
  1 10  1  0
  3 11  1  0
  5 12  1  0
  6 13  1  0
  6 14  1  0
  7 15  1  0
  7 16  1  0
  8 17  1  0
M  END
