
     RDKit          3D

 19 19  0  0  0  0  0  0  0  0999 V2000
    2.0597   -2.3778   -0.0638 C   0  0  0  0  0  0  0  0  0  0  0  0
    1.2211   -1.5595   -0.0697 C   0  0  0  0  0  0  0  0  0  0  0  0
    0.1295   -0.5177   -0.0977 C   0  0  0  0  0  0  0  0  0  0  0  0
    0.4168    0.6492    0.7893 C   0  0  0  0  0  0  0  0  0  0  0  0
    0.5616    0.1432    2.1156 O   0  0  0  0  0  0  0  0  0  0  0  0
   -0.7073    1.6452    0.9079 C   0  0  0  0  0  0  0  0  0  0  0  0
   -1.0279    2.3152   -0.2418 O   0  0  0  0  0  0  0  0  0  0  0  0
   -1.1945   -0.9665   -0.5170 C   0  0  0  0  0  0  0  0  0  0  0  0
   -0.3828   -0.2189   -1.5146 C   0  0  0  0  0  0  0  0  0  0  0  0
    2.8550   -3.1276   -0.0550 H   0  0  0  0  0  0  0  0  0  0  0  0
    1.3935    1.1214    0.5344 H   0  0  0  0  0  0  0  0  0  0  0  0
    0.8931   -0.7763    2.0065 H   0  0  0  0  0  0  0  0  0  0  0  0
   -0.4095    2.3881    1.6810 H   0  0  0  0  0  0  0  0  0  0  0  0
   -1.5951    1.0872    1.2844 H   0  0  0  0  0  0  0  0  0  0  0  0
   -0.2523    2.8047   -0.6445 H   0  0  0  0  0  0  0  0  0  0  0  0
   -2.1243   -0.5118   -0.1695 H   0  0  0  0  0  0  0  0  0  0  0  0
   -1.2930   -2.0712   -0.7454 H   0  0  0  0  0  0  0  0  0  0  0  0
   -0.6786    0.7684   -1.8237 H   0  0  0  0  0  0  0  0  0  0  0  0
    0.1349   -0.7955   -2.3329 H   0  0  0  0  0  0  0  0  0  0  0  0
  1  2  3  0
  2  3  1  0
  3  4  1  0
  4  5  1  0
  4  6  1  0
  6  7  1  0
  3  8  1  0
  8  9  1  0
  9  3  1  0
  1 10  1  0
  4 11  1  0
  5 12  1  0
  6 13  1  0
  6 14  1  0
  7 15  1  0
  8 16  1  0
  8 17  1  0
  9 18  1  0
  9 19  1  0
M  END
