
     RDKit          3D

 17 17  0  0  0  0  0  0  0  0999 V2000
    2.2229    2.1518   -2.0250 C   0  0  0  0  0  0  0  0  0  0  0  0
    1.8030    1.2259   -1.4385 C   0  0  0  0  0  0  0  0  0  0  0  0
    1.2694    0.1033   -0.7240 C   0  0  0  0  0  0  0  0  0  0  0  0
    1.1595   -0.9976   -1.3199 O   0  0  0  0  0  0  0  0  0  0  0  0
    0.8312    0.1500    0.6916 C   0  0  0  0  0  0  0  0  0  0  0  0
    0.7634   -0.9905    1.4412 O   0  0  0  0  0  0  0  0  0  0  0  0
   -0.4656   -0.5789    0.9644 C   0  0  0  0  0  0  0  0  0  0  0  0
   -1.4085    0.1444    1.8993 C   0  0  0  0  0  0  0  0  0  0  0  0
   -1.0651   -1.4266   -0.1175 C   0  0  0  0  0  0  0  0  0  0  0  0
    2.6103    3.0226   -2.5543 H   0  0  0  0  0  0  0  0  0  0  0  0
    0.9694    1.1518    1.1541 H   0  0  0  0  0  0  0  0  0  0  0  0
   -2.4708    0.0630    1.5680 H   0  0  0  0  0  0  0  0  0  0  0  0
   -1.3763   -0.2866    2.9153 H   0  0  0  0  0  0  0  0  0  0  0  0
   -1.1152    1.2091    1.9038 H   0  0  0  0  0  0  0  0  0  0  0  0
   -1.1550   -0.8602   -1.0853 H   0  0  0  0  0  0  0  0  0  0  0  0
   -0.4727   -2.3360   -0.2206 H   0  0  0  0  0  0  0  0  0  0  0  0
   -2.0999   -1.7454    0.1184 H   0  0  0  0  0  0  0  0  0  0  0  0
  1  2  3  0
  2  3  1  0
  3  4  2  0
  3  5  1  0
  5  6  1  0
  6  7  1  0
  7  8  1  0
  7  9  1  0
  7  5  1  0
  1 10  1  0
  5 11  1  0
  8 12  1  0
  8 13  1  0
  8 14  1  0
  9 15  1  0
  9 16  1  0
  9 17  1  0
M  END
