
     RDKit          3D

 16 16  0  0  0  0  0  0  0  0999 V2000
    2.8224    0.7812    1.5453 C   0  0  0  0  0  0  0  0  0  0  0  0
    1.9652    0.1492    0.9520 C   0  0  0  0  0  0  0  0  0  0  0  0
    0.9442   -0.6202    0.2643 C   0  0  0  0  0  0  0  0  0  0  0  0
    0.7189   -1.7743    1.0498 O   0  0  0  0  0  0  0  0  0  0  0  0
   -0.3630    0.1260    0.2156 C   0  0  0  0  0  0  0  0  0  0  0  0
   -1.4685   -0.6185   -0.4865 C   0  0  0  0  0  0  0  0  0  0  0  0
   -0.8952    0.6635   -1.0593 C   0  0  0  0  0  0  0  0  0  0  0  0
   -1.7538    1.7452   -1.0537 O   0  0  0  0  0  0  0  0  0  0  0  0
    3.5495    1.3309    2.0699 H   0  0  0  0  0  0  0  0  0  0  0  0
    1.2675   -0.9374   -0.7548 H   0  0  0  0  0  0  0  0  0  0  0  0
    0.4051   -1.4520    1.9358 H   0  0  0  0  0  0  0  0  0  0  0  0
   -0.6099    0.6267    1.1894 H   0  0  0  0  0  0  0  0  0  0  0  0
   -1.2135   -1.5229   -1.0842 H   0  0  0  0  0  0  0  0  0  0  0  0
   -2.4405   -0.5927    0.0119 H   0  0  0  0  0  0  0  0  0  0  0  0
   -0.2175    0.5978   -1.9336 H   0  0  0  0  0  0  0  0  0  0  0  0
   -2.7109    1.4975   -0.9874 H   0  0  0  0  0  0  0  0  0  0  0  0
  1  2  3  0
  2  3  1  0
  3  4  1  0
  3  5  1  0
  5  6  1  0
  6  7  1  0
  7  8  1  0
  7  5  1  0
  1  9  1  0
  3 10  1  0
  4 11  1  0
  5 12  1  0
  6 13  1  0
  6 14  1  0
  7 15  1  0
  8 16  1  0
M  END
