
     RDKit          3D

 13 12  0  0  0  0  0  0  0  0999 V2000
    3.5794    0.3379    4.3636 C   0  0  0  0  0  0  0  0  0  0  0  0
    2.8121    0.2736    3.3645 C   0  0  0  0  0  0  0  0  0  0  0  0
    1.7835    0.1828    2.0580 C   0  0  0  0  0  0  0  0  0  0  0  0
    1.5338    0.1588    1.7510 C   0  0  0  0  0  0  0  0  0  0  0  0
    0.4388    0.0473    0.4226 C   0  0  0  0  0  0  0  0  0  0  0  0
   -0.4387   -0.0374   -0.6057 C   0  0  0  0  0  0  0  0  0  0  0  0
   -1.1510   -0.0977   -1.4133 C   0  0  0  0  0  0  0  0  0  0  0  0
   -1.5465   -0.1291   -1.8470 C   0  0  0  0  0  0  0  0  0  0  0  0
   -2.6738   -0.1978   -3.1088 C   0  0  0  0  0  0  0  0  0  0  0  0
    4.1006    0.3927    5.0305 H   0  0  0  0  0  0  0  0  0  0  0  0
   -2.5973   -1.1526   -3.5318 H   0  0  0  0  0  0  0  0  0  0  0  0
   -3.6015    0.0273   -2.7086 H   0  0  0  0  0  0  0  0  0  0  0  0
   -2.2395    0.5839   -3.7750 H   0  0  0  0  0  0  0  0  0  0  0  0
  1  2  3  0
  2  3  1  0
  3  4  3  0
  4  5  1  0
  5  6  3  0
  6  7  1  0
  7  8  3  0
  8  9  1  0
  1 10  1  0
  9 11  1  0
  9 12  1  0
  9 13  1  0
M  END
