
     RDKit          3D

 19 19  0  0  0  0  0  0  0  0999 V2000
    0.8954    1.6225    2.5367 C   0  0  0  0  0  0  0  0  0  0  0  0
    0.5206    0.7585    1.9156 C   0  0  0  0  0  0  0  0  0  0  0  0
    0.0160   -0.4240    1.0365 C   0  0  0  0  0  0  0  0  0  0  0  0
   -1.0804    0.1291    0.2183 C   0  0  0  0  0  0  0  0  0  0  0  0
   -0.7392    0.1180   -1.0632 C   0  0  0  0  0  0  0  0  0  0  0  0
   -1.6710    0.6250   -2.1214 C   0  0  0  0  0  0  0  0  0  0  0  0
    0.6104   -0.4264   -1.2547 C   0  0  0  0  0  0  0  0  0  0  0  0
    1.1196   -0.7354    0.1299 C   0  0  0  0  0  0  0  0  0  0  0  0
    1.4597   -2.0964    0.1792 O   0  0  0  0  0  0  0  0  0  0  0  0
    1.2645    2.4675    3.1680 H   0  0  0  0  0  0  0  0  0  0  0  0
   -0.2544   -1.2103    1.7426 H   0  0  0  0  0  0  0  0  0  0  0  0
   -2.0424    0.4973    0.5951 H   0  0  0  0  0  0  0  0  0  0  0  0
   -2.4568    1.2765   -1.6990 H   0  0  0  0  0  0  0  0  0  0  0  0
   -2.1886   -0.2259   -2.6166 H   0  0  0  0  0  0  0  0  0  0  0  0
   -1.0959    1.1183   -2.9435 H   0  0  0  0  0  0  0  0  0  0  0  0
    0.5897   -1.3198   -1.9065 H   0  0  0  0  0  0  0  0  0  0  0  0
    1.3220    0.3299   -1.6931 H   0  0  0  0  0  0  0  0  0  0  0  0
    2.0671   -0.1622    0.3583 H   0  0  0  0  0  0  0  0  0  0  0  0
    1.6639   -2.3421    1.1226 H   0  0  0  0  0  0  0  0  0  0  0  0
  1  2  3  0
  2  3  1  0
  3  4  1  0
  4  5  2  0
  5  6  1  0
  5  7  1  0
  7  8  1  0
  8  9  1  0
  8  3  1  0
  1 10  1  0
  3 11  1  0
  4 12  1  0
  6 13  1  0
  6 14  1  0
  6 15  1  0
  7 16  1  0
  7 17  1  0
  8 18  1  0
  9 19  1  0
M  END
