
     RDKit          3D

 19 20  0  0  0  0  0  0  0  0999 V2000
    3.5225    1.3693   -0.2393 C   0  0  0  0  0  0  0  0  0  0  0  0
    2.5488    0.6674   -0.2207 C   0  0  0  0  0  0  0  0  0  0  0  0
    1.3722   -0.1602   -0.1835 C   0  0  0  0  0  0  0  0  0  0  0  0
    0.3384    0.0513    0.8860 C   0  0  0  0  0  0  0  0  0  0  0  0
   -0.7553   -0.2198   -0.1046 C   0  0  0  0  0  0  0  0  0  0  0  0
   -1.8865    0.7643   -0.1289 C   0  0  0  0  0  0  0  0  0  0  0  0
   -1.2620   -1.6398    0.0605 C   0  0  0  0  0  0  0  0  0  0  0  0
    0.2872   -0.0517   -1.1837 C   0  0  0  0  0  0  0  0  0  0  0  0
    1.2078   -1.0598   -1.1967 O   0  0  0  0  0  0  0  0  0  0  0  0
    4.3830    1.9902   -0.2372 H   0  0  0  0  0  0  0  0  0  0  0  0
    0.2948    1.1014    1.2233 H   0  0  0  0  0  0  0  0  0  0  0  0
    0.3912   -0.6174    1.7573 H   0  0  0  0  0  0  0  0  0  0  0  0
   -1.5582    1.8031   -0.1968 H   0  0  0  0  0  0  0  0  0  0  0  0
   -2.5722    0.4911   -0.9419 H   0  0  0  0  0  0  0  0  0  0  0  0
   -2.4352    0.6613    0.8389 H   0  0  0  0  0  0  0  0  0  0  0  0
   -1.8446   -1.6396    1.0229 H   0  0  0  0  0  0  0  0  0  0  0  0
   -0.3841   -2.3240    0.2208 H   0  0  0  0  0  0  0  0  0  0  0  0
   -1.8803   -1.9249   -0.7892 H   0  0  0  0  0  0  0  0  0  0  0  0
    0.2327    0.7381   -1.9166 H   0  0  0  0  0  0  0  0  0  0  0  0
  1  2  3  0
  2  3  1  0
  3  4  1  0
  4  5  1  0
  5  6  1  0
  5  7  1  0
  5  8  1  0
  8  9  1  0
  8  3  1  0
  9  3  1  0
  1 10  1  0
  4 11  1  0
  4 12  1  0
  6 13  1  0
  6 14  1  0
  6 15  1  0
  7 16  1  0
  7 17  1  0
  7 18  1  0
  8 19  1  0
M  END
