
     RDKit          3D

 18 17  0  0  0  0  0  0  0  0999 V2000
    0.4617    0.8281    2.4136 C   0  0  0  0  0  0  0  0  0  0  0  0
    0.1204    0.3641    1.3722 C   0  0  0  0  0  0  0  0  0  0  0  0
   -0.2827   -0.2012    0.0717 C   0  0  0  0  0  0  0  0  0  0  0  0
   -0.9310   -1.5576    0.2754 C   0  0  0  0  0  0  0  0  0  0  0  0
   -1.2370    0.7483   -0.5714 C   0  0  0  0  0  0  0  0  0  0  0  0
    0.9496   -0.4502   -0.7838 C   0  0  0  0  0  0  0  0  0  0  0  0
    1.6052    0.8629   -0.9581 C   0  0  0  0  0  0  0  0  0  0  0  0
    2.2998    1.3453   -0.0991 O   0  0  0  0  0  0  0  0  0  0  0  0
    0.7768    1.2380    3.3370 H   0  0  0  0  0  0  0  0  0  0  0  0
   -1.0634   -2.0273   -0.7159 H   0  0  0  0  0  0  0  0  0  0  0  0
   -1.8720   -1.4505    0.8346 H   0  0  0  0  0  0  0  0  0  0  0  0
   -0.1632   -2.1670    0.8338 H   0  0  0  0  0  0  0  0  0  0  0  0
   -1.9560    0.2520   -1.2702 H   0  0  0  0  0  0  0  0  0  0  0  0
   -1.8045    1.2527    0.2531 H   0  0  0  0  0  0  0  0  0  0  0  0
   -0.6988    1.5786   -1.1042 H   0  0  0  0  0  0  0  0  0  0  0  0
    0.6833   -0.8741   -1.7530 H   0  0  0  0  0  0  0  0  0  0  0  0
    1.6647   -1.1286   -0.2549 H   0  0  0  0  0  0  0  0  0  0  0  0
    1.4471    1.3864   -1.8808 H   0  0  0  0  0  0  0  0  0  0  0  0
  1  2  3  0
  2  3  1  0
  3  4  1  0
  3  5  1  0
  3  6  1  0
  6  7  1  0
  7  8  2  0
  1  9  1  0
  4 10  1  0
  4 11  1  0
  4 12  1  0
  5 13  1  0
  5 14  1  0
  5 15  1  0
  6 16  1  0
  6 17  1  0
  7 18  1  0
M  END
