
     RDKit          3D

 19 20  0  0  0  0  0  0  0  0999 V2000
    2.3218   -2.0772   -0.7388 C   0  0  0  0  0  0  0  0  0  0  0  0
    1.2129   -1.6058   -0.7008 C   0  0  0  0  0  0  0  0  0  0  0  0
   -0.1452   -1.0324   -0.6462 C   0  0  0  0  0  0  0  0  0  0  0  0
   -0.5223   -0.8677    0.8404 C   0  0  0  0  0  0  0  0  0  0  0  0
   -0.4614    0.6349    0.9130 C   0  0  0  0  0  0  0  0  0  0  0  0
   -0.7243    1.2688    2.0483 O   0  0  0  0  0  0  0  0  0  0  0  0
   -1.2668    1.0219   -0.3375 C   0  0  0  0  0  0  0  0  0  0  0  0
   -0.0684    0.3879   -1.0552 C   0  0  0  0  0  0  0  0  0  0  0  0
    0.7400    1.0244    0.0857 C   0  0  0  0  0  0  0  0  0  0  0  0
    3.3098   -2.5028   -0.7600 H   0  0  0  0  0  0  0  0  0  0  0  0
   -0.8613   -1.6506   -1.1817 H   0  0  0  0  0  0  0  0  0  0  0  0
    0.2048   -1.3665    1.4892 H   0  0  0  0  0  0  0  0  0  0  0  0
   -1.5490   -1.2418    0.9389 H   0  0  0  0  0  0  0  0  0  0  0  0
   -1.2625    2.1023    1.8593 H   0  0  0  0  0  0  0  0  0  0  0  0
   -1.3174    2.1074   -0.5207 H   0  0  0  0  0  0  0  0  0  0  0  0
   -2.1987    0.4512   -0.4366 H   0  0  0  0  0  0  0  0  0  0  0  0
    0.1408    0.6948   -2.0424 H   0  0  0  0  0  0  0  0  0  0  0  0
    1.6769    0.5263    0.3153 H   0  0  0  0  0  0  0  0  0  0  0  0
    0.7707    2.1252   -0.0702 H   0  0  0  0  0  0  0  0  0  0  0  0
  1  2  3  0
  2  3  1  0
  3  4  1  0
  4  5  1  0
  5  6  1  0
  5  7  1  0
  7  8  1  0
  8  9  1  0
  8  3  1  0
  9  5  1  0
  1 10  1  0
  3 11  1  0
  4 12  1  0
  4 13  1  0
  6 14  1  0
  7 15  1  0
  7 16  1  0
  8 17  1  0
  9 18  1  0
  9 19  1  0
M  END
