
     RDKit          3D

 21 21  0  0  0  0  0  0  0  0999 V2000
    3.1238    1.5971    0.9922 C   0  0  0  0  0  0  0  0  0  0  0  0
    1.9314    1.3273    0.9433 C   0  0  0  0  0  0  0  0  0  0  0  0
    0.4980    1.0287    0.8892 C   0  0  0  0  0  0  0  0  0  0  0  0
   -0.0914    1.8807   -0.2052 C   0  0  0  0  0  0  0  0  0  0  0  0
   -1.3292    1.4581   -0.6269 O   0  0  0  0  0  0  0  0  0  0  0  0
   -1.1820    0.1896   -1.1867 C   0  0  0  0  0  0  0  0  0  0  0  0
   -0.9794   -0.7623   -0.0267 C   0  0  0  0  0  0  0  0  0  0  0  0
   -1.0353   -2.1677   -0.5134 C   0  0  0  0  0  0  0  0  0  0  0  0
    0.3163   -0.4343    0.6782 C   0  0  0  0  0  0  0  0  0  0  0  0
    4.1538    1.8376    1.0175 H   0  0  0  0  0  0  0  0  0  0  0  0
    0.0732    1.3280    1.8738 H   0  0  0  0  0  0  0  0  0  0  0  0
   -0.2143    2.9152    0.1999 H   0  0  0  0  0  0  0  0  0  0  0  0
    0.6126    1.8475   -1.0674 H   0  0  0  0  0  0  0  0  0  0  0  0
   -2.0836   -0.1149   -1.7595 H   0  0  0  0  0  0  0  0  0  0  0  0
   -0.2902    0.1806   -1.8689 H   0  0  0  0  0  0  0  0  0  0  0  0
   -1.7958   -0.5428    0.7108 H   0  0  0  0  0  0  0  0  0  0  0  0
   -1.2966   -2.8156    0.3699 H   0  0  0  0  0  0  0  0  0  0  0  0
   -1.8454   -2.2317   -1.2827 H   0  0  0  0  0  0  0  0  0  0  0  0
   -0.0480   -2.4513   -0.9317 H   0  0  0  0  0  0  0  0  0  0  0  0
    1.1875   -0.8836    0.1270 H   0  0  0  0  0  0  0  0  0  0  0  0
    0.2949   -0.9449    1.6669 H   0  0  0  0  0  0  0  0  0  0  0  0
  1  2  3  0
  2  3  1  0
  3  4  1  0
  4  5  1  0
  5  6  1  0
  6  7  1  0
  7  8  1  0
  7  9  1  0
  9  3  1  0
  1 10  1  0
  3 11  1  0
  4 12  1  0
  4 13  1  0
  6 14  1  0
  6 15  1  0
  7 16  1  0
  8 17  1  0
  8 18  1  0
  8 19  1  0
  9 20  1  0
  9 21  1  0
M  END
