
     RDKit          3D

 18 17  0  0  0  0  0  0  0  0999 V2000
   -2.0677    1.9409    1.0718 C   0  0  0  0  0  0  0  0  0  0  0  0
   -1.4590    0.8787    0.3975 C   0  0  0  0  0  0  0  0  0  0  0  0
   -0.8901   -0.0699   -0.2124 C   0  0  0  0  0  0  0  0  0  0  0  0
   -0.8342    0.1424   -1.7497 C   0  0  0  0  0  0  0  0  0  0  0  0
   -1.4974   -1.3257    0.3059 C   0  0  0  0  0  0  0  0  0  0  0  0
    0.6239   -0.1149    0.0705 C   0  0  0  0  0  0  0  0  0  0  0  0
    1.9423   -0.1533    0.2963 C   0  0  0  0  0  0  0  0  0  0  0  0
    3.3707   -0.2134    0.5588 C   0  0  0  0  0  0  0  0  0  0  0  0
   -2.5409    2.8016    1.6050 H   0  0  0  0  0  0  0  0  0  0  0  0
   -0.4053    1.2692   -1.6990 H   0  0  0  0  0  0  0  0  0  0  0  0
   -0.0221   -0.3652   -2.2021 H   0  0  0  0  0  0  0  0  0  0  0  0
   -1.7858    0.3024   -2.1880 H   0  0  0  0  0  0  0  0  0  0  0  0
   -1.0739   -1.4105    1.4062 H   0  0  0  0  0  0  0  0  0  0  0  0
   -1.8957   -2.1427   -0.1288 H   0  0  0  0  0  0  0  0  0  0  0  0
   -2.5876   -0.8374    0.7475 H   0  0  0  0  0  0  0  0  0  0  0  0
    3.8543   -0.3705   -0.4918 H   0  0  0  0  0  0  0  0  0  0  0  0
    3.7012    0.7292    0.9636 H   0  0  0  0  0  0  0  0  0  0  0  0
    3.5671   -1.0609    1.2486 H   0  0  0  0  0  0  0  0  0  0  0  0
  1  2  3  0
  2  3  1  0
  3  4  1  0
  3  5  1  0
  3  6  1  0
  6  7  3  0
  7  8  1  0
  1  9  1  0
  4 10  1  0
  4 11  1  0
  4 12  1  0
  5 13  1  0
  5 14  1  0
  5 15  1  0
  8 16  1  0
  8 17  1  0
  8 18  1  0
M  END
