
     RDKit          3D

 19 18  0  0  0  0  0  0  0  0999 V2000
    2.2513   -1.7487    1.0131 C   0  0  0  0  0  0  0  0  0  0  0  0
    1.1966   -1.3260    0.5389 C   0  0  0  0  0  0  0  0  0  0  0  0
   -0.0478   -0.8311   -0.0456 C   0  0  0  0  0  0  0  0  0  0  0  0
   -1.0937   -1.6867    0.3667 O   0  0  0  0  0  0  0  0  0  0  0  0
   -0.0005   -0.8312   -1.5331 C   0  0  0  0  0  0  0  0  0  0  0  0
    0.8225   -0.1643   -2.1330 O   0  0  0  0  0  0  0  0  0  0  0  0
   -0.3668    0.5257    0.5023 C   0  0  0  0  0  0  0  0  0  0  0  0
   -1.6346    1.0850   -0.0602 C   0  0  0  0  0  0  0  0  0  0  0  0
    0.7599    1.5152    0.3013 C   0  0  0  0  0  0  0  0  0  0  0  0
    3.1495   -2.1192    1.4356 H   0  0  0  0  0  0  0  0  0  0  0  0
   -1.0071   -2.5542   -0.1442 H   0  0  0  0  0  0  0  0  0  0  0  0
   -0.6904   -1.4194   -2.1237 H   0  0  0  0  0  0  0  0  0  0  0  0
   -0.5030    0.4291    1.6052 H   0  0  0  0  0  0  0  0  0  0  0  0
   -1.6353    2.1981    0.0758 H   0  0  0  0  0  0  0  0  0  0  0  0
   -2.5264    0.7267    0.5234 H   0  0  0  0  0  0  0  0  0  0  0  0
   -1.8024    0.8404   -1.1136 H   0  0  0  0  0  0  0  0  0  0  0  0
    1.7139    1.1484    0.7350 H   0  0  0  0  0  0  0  0  0  0  0  0
    0.8999    1.7507   -0.7704 H   0  0  0  0  0  0  0  0  0  0  0  0
    0.5147    2.4615    0.8268 H   0  0  0  0  0  0  0  0  0  0  0  0
  1  2  3  0
  2  3  1  0
  3  4  1  0
  3  5  1  0
  5  6  2  0
  3  7  1  0
  7  8  1  0
  7  9  1  0
  1 10  1  0
  4 11  1  0
  5 12  1  0
  7 13  1  0
  8 14  1  0
  8 15  1  0
  8 16  1  0
  9 17  1  0
  9 18  1  0
  9 19  1  0
M  END
