
     RDKit          3D

 21 21  0  0  0  0  0  0  0  0999 V2000
    1.5679   -2.8125   -1.1570 C   0  0  0  0  0  0  0  0  0  0  0  0
    0.9402   -1.7892   -1.0833 C   0  0  0  0  0  0  0  0  0  0  0  0
    0.1822   -0.5439   -1.0187 C   0  0  0  0  0  0  0  0  0  0  0  0
    0.8039    0.6370   -0.3081 C   0  0  0  0  0  0  0  0  0  0  0  0
    0.6133    1.9522   -0.9954 C   0  0  0  0  0  0  0  0  0  0  0  0
   -0.2836   -0.1135    0.3213 C   0  0  0  0  0  0  0  0  0  0  0  0
    0.1259   -0.9294    1.5543 C   0  0  0  0  0  0  0  0  0  0  0  0
   -1.6902    0.3850    0.3966 C   0  0  0  0  0  0  0  0  0  0  0  0
   -2.0633    0.7732    1.6845 O   0  0  0  0  0  0  0  0  0  0  0  0
    2.1149   -3.7402   -1.2214 H   0  0  0  0  0  0  0  0  0  0  0  0
   -0.4729   -0.3370   -1.8891 H   0  0  0  0  0  0  0  0  0  0  0  0
    1.8550    0.4565    0.0430 H   0  0  0  0  0  0  0  0  0  0  0  0
    0.5907    1.8353   -2.1127 H   0  0  0  0  0  0  0  0  0  0  0  0
   -0.3499    2.4342   -0.6816 H   0  0  0  0  0  0  0  0  0  0  0  0
    1.4048    2.6623   -0.6802 H   0  0  0  0  0  0  0  0  0  0  0  0
    1.2343   -1.1279    1.5191 H   0  0  0  0  0  0  0  0  0  0  0  0
   -0.0393   -0.3139    2.4612 H   0  0  0  0  0  0  0  0  0  0  0  0
   -0.3977   -1.9033    1.5837 H   0  0  0  0  0  0  0  0  0  0  0  0
   -1.9304    1.2110   -0.2837 H   0  0  0  0  0  0  0  0  0  0  0  0
   -2.3569   -0.4750    0.1227 H   0  0  0  0  0  0  0  0  0  0  0  0
   -1.8489    1.7390    1.7449 H   0  0  0  0  0  0  0  0  0  0  0  0
  1  2  3  0
  2  3  1  0
  3  4  1  0
  4  5  1  0
  4  6  1  0
  6  7  1  0
  6  8  1  0
  8  9  1  0
  6  3  1  0
  1 10  1  0
  3 11  1  0
  4 12  1  0
  5 13  1  0
  5 14  1  0
  5 15  1  0
  7 16  1  0
  7 17  1  0
  7 18  1  0
  8 19  1  0
  8 20  1  0
  9 21  1  0
M  END
