
     RDKit          3D

 21 22  0  0  0  0  0  0  0  0999 V2000
    3.5710    0.5744   -0.5702 C   0  0  0  0  0  0  0  0  0  0  0  0
    2.6666   -0.2239   -0.5567 C   0  0  0  0  0  0  0  0  0  0  0  0
    1.5495   -1.2028   -0.5147 C   0  0  0  0  0  0  0  0  0  0  0  0
    0.3495   -0.5906   -0.2703 C   0  0  0  0  0  0  0  0  0  0  0  0
   -1.0143   -1.1463   -0.1427 C   0  0  0  0  0  0  0  0  0  0  0  0
   -1.2291    0.3419    0.0481 C   0  0  0  0  0  0  0  0  0  0  0  0
   -2.3891    1.0013    0.3004 C   0  0  0  0  0  0  0  0  0  0  0  0
   -0.2748    0.5058   -1.1094 C   0  0  0  0  0  0  0  0  0  0  0  0
    0.0199    0.2834    0.9147 C   0  0  0  0  0  0  0  0  0  0  0  0
    4.3655    1.2769   -0.6004 H   0  0  0  0  0  0  0  0  0  0  0  0
    1.8423   -1.9124    0.3027 H   0  0  0  0  0  0  0  0  0  0  0  0
    1.5824   -1.7963   -1.4415 H   0  0  0  0  0  0  0  0  0  0  0  0
   -1.4919   -1.5746   -1.0428 H   0  0  0  0  0  0  0  0  0  0  0  0
   -1.2400   -1.7481    0.7528 H   0  0  0  0  0  0  0  0  0  0  0  0
   -2.7059    1.7515   -0.4849 H   0  0  0  0  0  0  0  0  0  0  0  0
   -3.3083    0.3494    0.4081 H   0  0  0  0  0  0  0  0  0  0  0  0
   -2.4050    1.6137    1.2519 H   0  0  0  0  0  0  0  0  0  0  0  0
   -0.6240    0.1343   -2.0751 H   0  0  0  0  0  0  0  0  0  0  0  0
    0.2434    1.4706   -1.0835 H   0  0  0  0  0  0  0  0  0  0  0  0
    0.5729    1.2239    0.9937 H   0  0  0  0  0  0  0  0  0  0  0  0
   -0.0805   -0.3320    1.8208 H   0  0  0  0  0  0  0  0  0  0  0  0
  1  2  3  0
  2  3  1  0
  3  4  1  0
  4  5  1  0
  5  6  1  0
  6  7  1  0
  6  8  1  0
  6  9  1  0
  8  4  1  0
  9  4  1  0
  1 10  1  0
  3 11  1  0
  3 12  1  0
  5 13  1  0
  5 14  1  0
  7 15  1  0
  7 16  1  0
  7 17  1  0
  8 18  1  0
  8 19  1  0
  9 20  1  0
  9 21  1  0
M  END
