
     RDKit          3D

 18 18  0  0  0  0  0  0  0  0999 V2000
    3.1891    0.5746   -1.3821 C   0  0  0  0  0  0  0  0  0  0  0  0
    2.0385    0.2688   -1.1064 C   0  0  0  0  0  0  0  0  0  0  0  0
    0.6645   -0.1121   -0.7551 C   0  0  0  0  0  0  0  0  0  0  0  0
    0.7409   -1.1089    0.3210 C   0  0  0  0  0  0  0  0  0  0  0  0
   -0.1385   -0.8624    1.2396 C   0  0  0  0  0  0  0  0  0  0  0  0
   -0.9220    0.3334    0.9011 C   0  0  0  0  0  0  0  0  0  0  0  0
   -2.2091   -0.1209    0.2448 C   0  0  0  0  0  0  0  0  0  0  0  0
   -0.0778    1.0523   -0.1317 C   0  0  0  0  0  0  0  0  0  0  0  0
    4.1816    0.8546   -1.6299 H   0  0  0  0  0  0  0  0  0  0  0  0
    0.1327   -0.4994   -1.6517 H   0  0  0  0  0  0  0  0  0  0  0  0
    1.4423   -1.9362    0.3355 H   0  0  0  0  0  0  0  0  0  0  0  0
   -0.3193   -1.4351    2.1675 H   0  0  0  0  0  0  0  0  0  0  0  0
   -1.1156    0.9751    1.7866 H   0  0  0  0  0  0  0  0  0  0  0  0
   -2.0303   -0.1695   -0.8588 H   0  0  0  0  0  0  0  0  0  0  0  0
   -3.0442    0.5837    0.4378 H   0  0  0  0  0  0  0  0  0  0  0  0
   -2.4242   -1.1364    0.5701 H   0  0  0  0  0  0  0  0  0  0  0  0
   -0.7345    1.5763   -0.8410 H   0  0  0  0  0  0  0  0  0  0  0  0
    0.6260    1.7511    0.3527 H   0  0  0  0  0  0  0  0  0  0  0  0
  1  2  3  0
  2  3  1  0
  3  4  1  0
  4  5  2  0
  5  6  1  0
  6  7  1  0
  6  8  1  0
  8  3  1  0
  1  9  1  0
  3 10  1  0
  4 11  1  0
  5 12  1  0
  6 13  1  0
  7 14  1  0
  7 15  1  0
  7 16  1  0
  8 17  1  0
  8 18  1  0
M  END
