
     RDKit          3D

 11 11  0  0  0  0  0  0  0  0999 V2000
    2.1793    1.3410   -0.7732 C   0  0  0  0  0  0  0  0  0  0  0  0
    1.2407    0.8444   -0.1642 C   0  0  0  0  0  0  0  0  0  0  0  0
    0.1256    0.2345    0.5586 C   0  0  0  0  0  0  0  0  0  0  0  0
   -1.1168    0.7653    0.2269 O   0  0  0  0  0  0  0  0  0  0  0  0
   -1.5785   -0.4469   -0.2520 C   0  0  0  0  0  0  0  0  0  0  0  0
   -0.2598   -1.0802   -0.0247 C   0  0  0  0  0  0  0  0  0  0  0  0
    0.2756   -2.1480   -0.2118 O   0  0  0  0  0  0  0  0  0  0  0  0
    3.0016    1.7620   -1.2927 H   0  0  0  0  0  0  0  0  0  0  0  0
    0.2820    0.1300    1.6508 H   0  0  0  0  0  0  0  0  0  0  0  0
   -1.8049   -0.4450   -1.3409 H   0  0  0  0  0  0  0  0  0  0  0  0
   -2.3446   -0.9570    0.3833 H   0  0  0  0  0  0  0  0  0  0  0  0
  1  2  3  0
  2  3  1  0
  3  4  1  0
  4  5  1  0
  5  6  1  0
  6  7  2  0
  6  3  1  0
  1  8  1  0
  3  9  1  0
  5 10  1  0
  5 11  1  0
M  END
