
     RDKit          3D

 19 20  0  0  0  0  0  0  0  0999 V2000
    3.5682   -0.9529    1.3789 C   0  0  0  0  0  0  0  0  0  0  0  0
    2.6281   -0.4643    0.8029 C   0  0  0  0  0  0  0  0  0  0  0  0
    1.5061    0.1460    0.1012 C   0  0  0  0  0  0  0  0  0  0  0  0
    0.6821   -0.7631   -0.7131 C   0  0  0  0  0  0  0  0  0  0  0  0
   -0.5588   -0.3344   -1.4184 C   0  0  0  0  0  0  0  0  0  0  0  0
   -0.9484    0.5533   -0.2677 C   0  0  0  0  0  0  0  0  0  0  0  0
   -2.3646    0.3791    0.2284 C   0  0  0  0  0  0  0  0  0  0  0  0
   -0.6562    1.8764   -0.5750 O   0  0  0  0  0  0  0  0  0  0  0  0
    0.1143   -0.0849    0.5576 C   0  0  0  0  0  0  0  0  0  0  0  0
    4.3964   -1.4014    1.9020 H   0  0  0  0  0  0  0  0  0  0  0  0
    1.7218    1.1908   -0.2290 H   0  0  0  0  0  0  0  0  0  0  0  0
    0.8601   -1.8435   -0.6682 H   0  0  0  0  0  0  0  0  0  0  0  0
   -1.2894   -1.1642   -1.5968 H   0  0  0  0  0  0  0  0  0  0  0  0
   -0.4141    0.2097   -2.3761 H   0  0  0  0  0  0  0  0  0  0  0  0
   -3.1049    0.5431   -0.5615 H   0  0  0  0  0  0  0  0  0  0  0  0
   -2.4797   -0.6553    0.6465 H   0  0  0  0  0  0  0  0  0  0  0  0
   -2.4910    1.0803    1.0815 H   0  0  0  0  0  0  0  0  0  0  0  0
   -1.0437    2.4706    0.1133 H   0  0  0  0  0  0  0  0  0  0  0  0
   -0.1263   -0.7853    1.3703 H   0  0  0  0  0  0  0  0  0  0  0  0
  1  2  3  0
  2  3  1  0
  3  4  1  0
  4  5  1  0
  5  6  1  0
  6  7  1  0
  6  8  1  0
  6  9  1  0
  9  3  1  0
  9  4  1  0
  1 10  1  0
  3 11  1  0
  4 12  1  0
  5 13  1  0
  5 14  1  0
  7 15  1  0
  7 16  1  0
  7 17  1  0
  8 18  1  0
  9 19  1  0
M  END
