
     RDKit          3D

 19 18  0  0  0  0  0  0  0  0999 V2000
   -2.7154    2.7882    0.8075 C   0  0  0  0  0  0  0  0  0  0  0  0
   -2.3630    1.7288   -0.0837 C   0  0  0  0  0  0  0  0  0  0  0  0
   -2.0504    0.7772   -0.8808 C   0  0  0  0  0  0  0  0  0  0  0  0
   -1.1682   -0.2384   -0.0511 C   0  0  0  0  0  0  0  0  0  0  0  0
   -0.7371   -1.1382   -0.8903 O   0  0  0  0  0  0  0  0  0  0  0  0
    0.1079   -2.1698   -0.5077 C   0  0  0  0  0  0  0  0  0  0  0  0
    1.3515   -1.2785   -0.1280 C   0  0  0  0  0  0  0  0  0  0  0  0
    2.3864   -0.5435    0.2046 C   0  0  0  0  0  0  0  0  0  0  0  0
    3.5844    0.3201    0.6096 C   0  0  0  0  0  0  0  0  0  0  0  0
   -2.9873    3.5902    1.4623 H   0  0  0  0  0  0  0  0  0  0  0  0
   -3.1495    0.0608   -0.9451 H   0  0  0  0  0  0  0  0  0  0  0  0
   -1.7054    0.8550   -1.8888 H   0  0  0  0  0  0  0  0  0  0  0  0
   -2.0111   -0.8225    0.5983 H   0  0  0  0  0  0  0  0  0  0  0  0
   -0.6143    0.2624    0.7284 H   0  0  0  0  0  0  0  0  0  0  0  0
    0.5064   -2.5873   -1.4999 H   0  0  0  0  0  0  0  0  0  0  0  0
   -0.0094   -2.8274    0.3427 H   0  0  0  0  0  0  0  0  0  0  0  0
    4.3634   -0.3982    0.0739 H   0  0  0  0  0  0  0  0  0  0  0  0
    3.7318    0.4656    1.6120 H   0  0  0  0  0  0  0  0  0  0  0  0
    3.4795    1.1555   -0.1872 H   0  0  0  0  0  0  0  0  0  0  0  0
  1  2  3  0
  2  3  1  0
  3  4  1  0
  4  5  1  0
  5  6  1  0
  6  7  1  0
  7  8  3  0
  8  9  1  0
  1 10  1  0
  3 11  1  0
  3 12  1  0
  4 13  1  0
  4 14  1  0
  6 15  1  0
  6 16  1  0
  9 17  1  0
  9 18  1  0
  9 19  1  0
M  END
