
     RDKit          3D

 19 20  0  0  0  0  0  0  0  0999 V2000
    2.3595   -1.9064    0.1244 C   0  0  0  0  0  0  0  0  0  0  0  0
    1.5283   -1.0329    0.0548 C   0  0  0  0  0  0  0  0  0  0  0  0
    0.4978    0.0278   -0.0098 C   0  0  0  0  0  0  0  0  0  0  0  0
    1.0718    1.2632    0.6264 C   0  0  0  0  0  0  0  0  0  0  0  0
    0.1228    0.3065   -1.4283 C   0  0  0  0  0  0  0  0  0  0  0  0
   -1.2212    0.1514   -1.5827 O   0  0  0  0  0  0  0  0  0  0  0  0
   -1.7518   -0.4576   -0.4760 C   0  0  0  0  0  0  0  0  0  0  0  0
   -1.9624    0.3624    0.7473 C   0  0  0  0  0  0  0  0  0  0  0  0
   -0.7574   -0.4543    0.6205 C   0  0  0  0  0  0  0  0  0  0  0  0
    3.1069   -2.6665    0.1915 H   0  0  0  0  0  0  0  0  0  0  0  0
    2.0515    1.4586    0.1361 H   0  0  0  0  0  0  0  0  0  0  0  0
    0.3525    2.0910    0.4481 H   0  0  0  0  0  0  0  0  0  0  0  0
    1.1642    1.1653    1.7267 H   0  0  0  0  0  0  0  0  0  0  0  0
    0.3838    1.3559   -1.7036 H   0  0  0  0  0  0  0  0  0  0  0  0
    0.7135   -0.3562   -2.0970 H   0  0  0  0  0  0  0  0  0  0  0  0
   -2.3686   -1.3494   -0.6931 H   0  0  0  0  0  0  0  0  0  0  0  0
   -2.7538   -0.0246    1.4307 H   0  0  0  0  0  0  0  0  0  0  0  0
   -1.8506    1.4705    0.6922 H   0  0  0  0  0  0  0  0  0  0  0  0
   -0.6868   -1.4048    1.1918 H   0  0  0  0  0  0  0  0  0  0  0  0
  1  2  3  0
  2  3  1  0
  3  4  1  0
  3  5  1  0
  5  6  1  0
  6  7  1  0
  7  8  1  0
  8  9  1  0
  9  3  1  0
  9  7  1  0
  1 10  1  0
  4 11  1  0
  4 12  1  0
  4 13  1  0
  5 14  1  0
  5 15  1  0
  7 16  1  0
  8 17  1  0
  8 18  1  0
  9 19  1  0
M  END
