
     RDKit          3D

 19 18  0  0  0  0  0  0  0  0999 V2000
    3.3615    0.4432    0.2271 C   0  0  0  0  0  0  0  0  0  0  0  0
    2.3691   -0.1679   -0.0753 C   0  0  0  0  0  0  0  0  0  0  0  0
    1.1789   -0.8933   -0.4121 C   0  0  0  0  0  0  0  0  0  0  0  0
    1.0871   -2.0644    0.0726 O   0  0  0  0  0  0  0  0  0  0  0  0
    0.0924   -0.3841   -1.2562 C   0  0  0  0  0  0  0  0  0  0  0  0
   -1.1340    0.0004   -0.4563 C   0  0  0  0  0  0  0  0  0  0  0  0
   -1.7156   -1.1384    0.3198 C   0  0  0  0  0  0  0  0  0  0  0  0
   -0.8254    1.1322    0.5011 C   0  0  0  0  0  0  0  0  0  0  0  0
   -0.3934    2.2499   -0.2225 O   0  0  0  0  0  0  0  0  0  0  0  0
    4.2388    0.9894    0.4788 H   0  0  0  0  0  0  0  0  0  0  0  0
    0.4448    0.5578   -1.7465 H   0  0  0  0  0  0  0  0  0  0  0  0
   -0.2321   -1.1410   -2.0077 H   0  0  0  0  0  0  0  0  0  0  0  0
   -1.9232    0.3498   -1.1722 H   0  0  0  0  0  0  0  0  0  0  0  0
   -2.8231   -1.1630    0.3513 H   0  0  0  0  0  0  0  0  0  0  0  0
   -1.3615   -2.0823   -0.1501 H   0  0  0  0  0  0  0  0  0  0  0  0
   -1.2714   -1.1041    1.3407 H   0  0  0  0  0  0  0  0  0  0  0  0
    0.0299    0.7645    1.1410 H   0  0  0  0  0  0  0  0  0  0  0  0
   -1.7074    1.4096    1.0931 H   0  0  0  0  0  0  0  0  0  0  0  0
    0.5844    2.2416   -0.3817 H   0  0  0  0  0  0  0  0  0  0  0  0
  1  2  3  0
  2  3  1  0
  3  4  2  0
  3  5  1  0
  5  6  1  0
  6  7  1  0
  6  8  1  0
  8  9  1  0
  1 10  1  0
  5 11  1  0
  5 12  1  0
  6 13  1  0
  7 14  1  0
  7 15  1  0
  7 16  1  0
  8 17  1  0
  8 18  1  0
  9 19  1  0
M  END
