
     RDKit          3D

 15 16  0  0  0  0  0  0  0  0999 V2000
    3.0394    1.0570   -0.0962 C   0  0  0  0  0  0  0  0  0  0  0  0
    2.1113    0.2898   -0.1568 C   0  0  0  0  0  0  0  0  0  0  0  0
    0.9556   -0.6462   -0.2103 C   0  0  0  0  0  0  0  0  0  0  0  0
   -0.1952   -0.4422    0.5920 C   0  0  0  0  0  0  0  0  0  0  0  0
   -1.6672   -0.6247    0.2006 C   0  0  0  0  0  0  0  0  0  0  0  0
   -1.3148    0.6731   -0.5659 C   0  0  0  0  0  0  0  0  0  0  0  0
   -0.1523   -0.2410   -0.9841 C   0  0  0  0  0  0  0  0  0  0  0  0
    3.8622    1.7277   -0.0483 H   0  0  0  0  0  0  0  0  0  0  0  0
    1.3512   -1.7070   -0.2628 H   0  0  0  0  0  0  0  0  0  0  0  0
   -0.1624    0.5345    1.1748 H   0  0  0  0  0  0  0  0  0  0  0  0
   -2.3453   -0.4724    1.0438 H   0  0  0  0  0  0  0  0  0  0  0  0
   -1.8684   -1.4541   -0.4731 H   0  0  0  0  0  0  0  0  0  0  0  0
   -1.9946    0.9040   -1.3865 H   0  0  0  0  0  0  0  0  0  0  0  0
   -0.9693    1.4887    0.0629 H   0  0  0  0  0  0  0  0  0  0  0  0
   -0.6501   -1.0872   -1.5621 H   0  0  0  0  0  0  0  0  0  0  0  0
  1  2  3  0
  2  3  1  0
  3  4  1  0
  4  5  1  0
  5  6  1  0
  6  7  1  0
  7  3  1  0
  7  4  1  0
  1  8  1  0
  3  9  1  0
  4 10  1  0
  5 11  1  0
  5 12  1  0
  6 13  1  0
  6 14  1  0
  7 15  1  0
M  END
