
     RDKit          3D

 16 16  0  0  0  0  0  0  0  0999 V2000
    1.6862   -1.2140    2.0568 C   0  0  0  0  0  0  0  0  0  0  0  0
    1.0452   -0.6306    1.2263 C   0  0  0  0  0  0  0  0  0  0  0  0
    0.2348    0.0784    0.2147 C   0  0  0  0  0  0  0  0  0  0  0  0
    1.0002    0.8721   -0.5433 O   0  0  0  0  0  0  0  0  0  0  0  0
    0.7327    2.2243   -0.5462 C   0  0  0  0  0  0  0  0  0  0  0  0
   -0.4601   -1.0392   -0.5890 C   0  0  0  0  0  0  0  0  0  0  0  0
   -1.8479   -1.0898   -0.8534 C   0  0  0  0  0  0  0  0  0  0  0  0
   -1.3226   -1.8550    0.3166 O   0  0  0  0  0  0  0  0  0  0  0  0
    2.2744   -1.7282    2.7918 H   0  0  0  0  0  0  0  0  0  0  0  0
   -0.6222    0.5473    0.7623 H   0  0  0  0  0  0  0  0  0  0  0  0
    0.8690    2.6911    0.4671 H   0  0  0  0  0  0  0  0  0  0  0  0
    1.3499    2.6877   -1.3341 H   0  0  0  0  0  0  0  0  0  0  0  0
   -0.3397    2.3791   -0.8771 H   0  0  0  0  0  0  0  0  0  0  0  0
    0.2371   -1.7593   -1.0344 H   0  0  0  0  0  0  0  0  0  0  0  0
   -2.5974   -0.3890   -0.4517 H   0  0  0  0  0  0  0  0  0  0  0  0
   -2.2395   -1.7750   -1.6064 H   0  0  0  0  0  0  0  0  0  0  0  0
  1  2  3  0
  2  3  1  0
  3  4  1  0
  4  5  1  0
  3  6  1  0
  6  7  1  0
  7  8  1  0
  8  6  1  0
  1  9  1  0
  3 10  1  0
  5 11  1  0
  5 12  1  0
  5 13  1  0
  6 14  1  0
  7 15  1  0
  7 16  1  0
M  END
