
     RDKit          3D

 21 21  0  0  0  0  0  0  0  0999 V2000
   -3.6108    0.7146    0.8229 C   0  0  0  0  0  0  0  0  0  0  0  0
   -2.7194    0.0245    0.3580 C   0  0  0  0  0  0  0  0  0  0  0  0
   -1.6494   -0.7969   -0.2165 C   0  0  0  0  0  0  0  0  0  0  0  0
   -0.8230    0.0226   -1.1486 C   0  0  0  0  0  0  0  0  0  0  0  0
    0.3191   -0.2588   -0.2385 C   0  0  0  0  0  0  0  0  0  0  0  0
    1.3802   -1.1957   -0.7340 C   0  0  0  0  0  0  0  0  0  0  0  0
    0.8391    0.9741    0.4697 C   0  0  0  0  0  0  0  0  0  0  0  0
    2.0028    0.6352    1.3856 C   0  0  0  0  0  0  0  0  0  0  0  0
   -0.5453   -0.9620    0.6212 O   0  0  0  0  0  0  0  0  0  0  0  0
   -4.3837    1.3273    1.2138 H   0  0  0  0  0  0  0  0  0  0  0  0
   -2.0047   -1.7383   -0.6858 H   0  0  0  0  0  0  0  0  0  0  0  0
   -1.0535    1.1054   -1.2061 H   0  0  0  0  0  0  0  0  0  0  0  0
   -0.7685   -0.3840   -2.1735 H   0  0  0  0  0  0  0  0  0  0  0  0
    2.2707   -0.6771   -1.1384 H   0  0  0  0  0  0  0  0  0  0  0  0
    1.6239   -1.9019    0.0919 H   0  0  0  0  0  0  0  0  0  0  0  0
    0.9696   -1.8371   -1.5544 H   0  0  0  0  0  0  0  0  0  0  0  0
    0.0283    1.4490    1.0612 H   0  0  0  0  0  0  0  0  0  0  0  0
    1.1627    1.7403   -0.2654 H   0  0  0  0  0  0  0  0  0  0  0  0
    1.6867    0.0990    2.2827 H   0  0  0  0  0  0  0  0  0  0  0  0
    2.5114    1.6135    1.6280 H   0  0  0  0  0  0  0  0  0  0  0  0
    2.7637    0.0460    0.8340 H   0  0  0  0  0  0  0  0  0  0  0  0
  1  2  3  0
  2  3  1  0
  3  4  1  0
  4  5  1  0
  5  6  1  0
  5  7  1  0
  7  8  1  0
  5  9  1  0
  9  3  1  0
  1 10  1  0
  3 11  1  0
  4 12  1  0
  4 13  1  0
  6 14  1  0
  6 15  1  0
  6 16  1  0
  7 17  1  0
  7 18  1  0
  8 19  1  0
  8 20  1  0
  8 21  1  0
M  END
