
     RDKit          3D

 19 19  0  0  0  0  0  0  0  0999 V2000
    2.9722   -0.8209   -0.8792 C   0  0  0  0  0  0  0  0  0  0  0  0
    2.0802   -0.2376   -0.1500 C   0  0  0  0  0  0  0  0  0  0  0  0
    1.0867    0.3884    0.6353 C   0  0  0  0  0  0  0  0  0  0  0  0
    0.0602   -0.4763    1.3030 C   0  0  0  0  0  0  0  0  0  0  0  0
    0.2106   -1.8775    1.0599 O   0  0  0  0  0  0  0  0  0  0  0  0
   -0.3380    0.4164    0.1775 C   0  0  0  0  0  0  0  0  0  0  0  0
   -1.0984    1.6844    0.4934 C   0  0  0  0  0  0  0  0  0  0  0  0
   -0.6400   -0.2626   -1.1507 C   0  0  0  0  0  0  0  0  0  0  0  0
   -2.0244   -0.1501   -1.3460 O   0  0  0  0  0  0  0  0  0  0  0  0
    3.7414   -1.3068   -1.5175 H   0  0  0  0  0  0  0  0  0  0  0  0
    1.4455    1.2533    1.2501 H   0  0  0  0  0  0  0  0  0  0  0  0
   -0.2627   -0.2497    2.3378 H   0  0  0  0  0  0  0  0  0  0  0  0
   -0.5977   -2.2478    0.6240 H   0  0  0  0  0  0  0  0  0  0  0  0
   -2.1633    1.4291    0.7534 H   0  0  0  0  0  0  0  0  0  0  0  0
   -0.6522    2.1874    1.3639 H   0  0  0  0  0  0  0  0  0  0  0  0
   -1.0902    2.3843   -0.3934 H   0  0  0  0  0  0  0  0  0  0  0  0
   -0.2581   -1.2880   -1.1154 H   0  0  0  0  0  0  0  0  0  0  0  0
   -0.1293    0.2638   -2.0083 H   0  0  0  0  0  0  0  0  0  0  0  0
   -2.3425   -1.0896   -1.4378 H   0  0  0  0  0  0  0  0  0  0  0  0
  1  2  3  0
  2  3  1  0
  3  4  1  0
  4  5  1  0
  4  6  1  0
  6  7  1  0
  6  8  1  0
  8  9  1  0
  6  3  1  0
  1 10  1  0
  3 11  1  0
  4 12  1  0
  5 13  1  0
  7 14  1  0
  7 15  1  0
  7 16  1  0
  8 17  1  0
  8 18  1  0
  9 19  1  0
M  END
