
     RDKit          3D

 17 18  0  0  0  0  0  0  0  0999 V2000
    2.7058   -1.2138   -1.0577 C   0  0  0  0  0  0  0  0  0  0  0  0
    1.4119   -0.5595   -1.1123 C   0  0  0  0  0  0  0  0  0  0  0  0
    0.0854    0.0831   -1.1639 C   0  0  0  0  0  0  0  0  0  0  0  0
    0.2352    1.3934   -0.5706 C   0  0  0  0  0  0  0  0  0  0  0  0
   -0.1294    1.5208    0.6930 C   0  0  0  0  0  0  0  0  0  0  0  0
   -0.7115    0.4454    1.5907 C   0  0  0  0  0  0  0  0  0  0  0  0
   -1.2890   -0.7084    0.8247 C   0  0  0  0  0  0  0  0  0  0  0  0
   -0.3742   -1.7881    0.4600 O   0  0  0  0  0  0  0  0  0  0  0  0
   -0.8493   -0.8634   -0.5064 C   0  0  0  0  0  0  0  0  0  0  0  0
    3.7180   -1.7445   -1.0091 H   0  0  0  0  0  0  0  0  0  0  0  0
   -0.1598    0.0860   -2.2431 H   0  0  0  0  0  0  0  0  0  0  0  0
    0.5644    2.2733   -1.1859 H   0  0  0  0  0  0  0  0  0  0  0  0
    0.0470    2.4818    1.1149 H   0  0  0  0  0  0  0  0  0  0  0  0
   -1.5200    0.9005    2.2395 H   0  0  0  0  0  0  0  0  0  0  0  0
    0.1758    0.1599    2.2231 H   0  0  0  0  0  0  0  0  0  0  0  0
   -2.3926   -1.0244    0.9699 H   0  0  0  0  0  0  0  0  0  0  0  0
   -1.5176   -1.4419   -1.2669 H   0  0  0  0  0  0  0  0  0  0  0  0
  1  2  3  0
  2  3  1  0
  3  4  1  0
  4  5  2  0
  5  6  1  0
  6  7  1  0
  7  8  1  0
  8  9  1  0
  9  3  1  0
  9  7  1  0
  1 10  1  0
  3 11  1  0
  4 12  1  0
  5 13  1  0
  6 14  1  0
  6 15  1  0
  7 16  1  0
  9 17  1  0
M  END
