
     RDKit          3D

 13 13  0  0  0  0  0  0  0  0999 V2000
    2.1630   -1.2558   -0.2300 C   0  0  0  0  0  0  0  0  0  0  0  0
    1.4627   -0.6646   -0.1019 C   0  0  0  0  0  0  0  0  0  0  0  0
    0.1227    0.4783    0.1227 C   0  0  0  0  0  0  0  0  0  0  0  0
   -0.9850   -0.3430    0.7971 C   0  0  0  0  0  0  0  0  0  0  0  0
   -0.8771   -0.5260    2.0073 O   0  0  0  0  0  0  0  0  0  0  0  0
   -1.9574   -0.8045   -0.1468 C   0  0  0  0  0  0  0  0  0  0  0  0
   -2.7678    0.0399   -0.6096 O   0  0  0  0  0  0  0  0  0  0  0  0
    0.4095    1.7502   -0.0608 C   0  0  0  0  0  0  0  0  0  0  0  0
   -0.1630    0.9797   -1.0796 O   0  0  0  0  0  0  0  0  0  0  0  0
    3.4518   -2.3234   -0.4829 H   0  0  0  0  0  0  0  0  0  0  0  0
   -2.0484   -1.8027   -0.5232 H   0  0  0  0  0  0  0  0  0  0  0  0
    1.4456    2.1321   -0.3345 H   0  0  0  0  0  0  0  0  0  0  0  0
   -0.2566    2.3398    0.6423 H   0  0  0  0  0  0  0  0  0  0  0  0
  1  2  3  0
  2  3  1  0
  3  4  1  0
  4  5  2  0
  4  6  1  0
  6  7  2  0
  3  8  1  0
  8  9  1  0
  9  3  1  0
  1 10  1  0
  6 11  1  0
  8 12  1  0
  8 13  1  0
M  END
