
     RDKit          3D

 21 20  0  0  0  0  0  0  0  0999 V2000
    2.0172   -1.9380   -0.7768 C   0  0  0  0  0  0  0  0  0  0  0  0
    1.2528   -1.1716   -0.8025 C   0  0  0  0  0  0  0  0  0  0  0  0
    0.1696   -0.1013   -0.8624 C   0  0  0  0  0  0  0  0  0  0  0  0
    0.7259    1.0206   -1.6665 C   0  0  0  0  0  0  0  0  0  0  0  0
   -0.2068    0.2713    0.5367 C   0  0  0  0  0  0  0  0  0  0  0  0
   -1.2572    1.3163    0.6339 C   0  0  0  0  0  0  0  0  0  0  0  0
    0.9514    0.7690    1.1752 O   0  0  0  0  0  0  0  0  0  0  0  0
   -0.5627   -1.0136    1.2834 C   0  0  0  0  0  0  0  0  0  0  0  0
   -1.7130   -1.4953    0.6620 O   0  0  0  0  0  0  0  0  0  0  0  0
    2.8252   -2.7400   -0.7665 H   0  0  0  0  0  0  0  0  0  0  0  0
   -0.6883   -0.5501   -1.4005 H   0  0  0  0  0  0  0  0  0  0  0  0
    0.6142    2.0142   -1.1545 H   0  0  0  0  0  0  0  0  0  0  0  0
    0.3360    0.9808   -2.6876 H   0  0  0  0  0  0  0  0  0  0  0  0
    1.8457    0.8735   -1.7514 H   0  0  0  0  0  0  0  0  0  0  0  0
   -1.3376    1.7584    1.6554 H   0  0  0  0  0  0  0  0  0  0  0  0
   -2.2546    0.7755    0.4708 H   0  0  0  0  0  0  0  0  0  0  0  0
   -1.1985    2.0873   -0.1374 H   0  0  0  0  0  0  0  0  0  0  0  0
    1.1234    1.6735    0.8090 H   0  0  0  0  0  0  0  0  0  0  0  0
    0.2884   -1.7335    1.1350 H   0  0  0  0  0  0  0  0  0  0  0  0
   -0.6882   -0.7441    2.3374 H   0  0  0  0  0  0  0  0  0  0  0  0
   -2.2430   -2.0531    1.3072 H   0  0  0  0  0  0  0  0  0  0  0  0
  1  2  3  0
  2  3  1  0
  3  4  1  0
  3  5  1  0
  5  6  1  0
  5  7  1  0
  5  8  1  0
  8  9  1  0
  1 10  1  0
  3 11  1  0
  4 12  1  0
  4 13  1  0
  4 14  1  0
  6 15  1  0
  6 16  1  0
  6 17  1  0
  7 18  1  0
  8 19  1  0
  8 20  1  0
  9 21  1  0
M  END
