
     RDKit          3D

 17 18  0  0  0  0  0  0  0  0999 V2000
    1.3484    2.5212    0.7967 C   0  0  0  0  0  0  0  0  0  0  0  0
    0.5029    1.6578    0.5751 C   0  0  0  0  0  0  0  0  0  0  0  0
   -0.4790    0.6524    0.3113 C   0  0  0  0  0  0  0  0  0  0  0  0
   -1.9171    0.8687    0.6798 C   0  0  0  0  0  0  0  0  0  0  0  0
   -1.7254   -0.0948    1.6832 O   0  0  0  0  0  0  0  0  0  0  0  0
   -0.5197   -0.5719    1.2567 C   0  0  0  0  0  0  0  0  0  0  0  0
   -0.1481   -0.7064   -0.1636 C   0  0  0  0  0  0  0  0  0  0  0  0
    1.1598   -0.9573   -0.4748 O   0  0  0  0  0  0  0  0  0  0  0  0
    1.2253   -1.6600   -1.6705 C   0  0  0  0  0  0  0  0  0  0  0  0
    2.0601    3.2735    0.9816 H   0  0  0  0  0  0  0  0  0  0  0  0
   -2.6003    0.4531   -0.0785 H   0  0  0  0  0  0  0  0  0  0  0  0
   -2.1265    1.8842    1.0591 H   0  0  0  0  0  0  0  0  0  0  0  0
    0.3019   -0.6379    1.9890 H   0  0  0  0  0  0  0  0  0  0  0  0
   -0.8879   -1.1019   -0.8948 H   0  0  0  0  0  0  0  0  0  0  0  0
    0.6922   -2.6336   -1.6263 H   0  0  0  0  0  0  0  0  0  0  0  0
    0.8095   -1.0772   -2.5373 H   0  0  0  0  0  0  0  0  0  0  0  0
    2.3041   -1.8699   -1.8867 H   0  0  0  0  0  0  0  0  0  0  0  0
  1  2  3  0
  2  3  1  0
  3  4  1  0
  4  5  1  0
  5  6  1  0
  6  7  1  0
  7  8  1  0
  8  9  1  0
  6  3  1  0
  7  3  1  0
  1 10  1  0
  4 11  1  0
  4 12  1  0
  6 13  1  0
  7 14  1  0
  9 15  1  0
  9 16  1  0
  9 17  1  0
M  END
