
     RDKit          3D

 18 19  0  0  0  0  0  0  0  0999 V2000
    2.4414   -1.1053   -1.2480 C   0  0  0  0  0  0  0  0  0  0  0  0
    1.6668   -0.5306   -0.5333 C   0  0  0  0  0  0  0  0  0  0  0  0
    0.7422    0.1646    0.3476 C   0  0  0  0  0  0  0  0  0  0  0  0
    0.4741    1.6158    0.0867 C   0  0  0  0  0  0  0  0  0  0  0  0
   -0.9977    1.3437    0.2572 C   0  0  0  0  0  0  0  0  0  0  0  0
   -0.6950   -0.1397    0.3329 C   0  0  0  0  0  0  0  0  0  0  0  0
   -1.3228   -1.0846   -0.6322 C   0  0  0  0  0  0  0  0  0  0  0  0
    0.1202   -0.5606    1.4761 C   0  0  0  0  0  0  0  0  0  0  0  0
    3.1473   -1.6058   -1.8926 H   0  0  0  0  0  0  0  0  0  0  0  0
    0.7078    1.8787   -0.9689 H   0  0  0  0  0  0  0  0  0  0  0  0
    0.9157    2.3101    0.8467 H   0  0  0  0  0  0  0  0  0  0  0  0
   -1.4241    1.6679    1.2320 H   0  0  0  0  0  0  0  0  0  0  0  0
   -1.6014    1.6431   -0.6248 H   0  0  0  0  0  0  0  0  0  0  0  0
   -1.6773   -0.4842   -1.5172 H   0  0  0  0  0  0  0  0  0  0  0  0
   -0.6595   -1.8588   -1.0300 H   0  0  0  0  0  0  0  0  0  0  0  0
   -2.2075   -1.6107   -0.1995 H   0  0  0  0  0  0  0  0  0  0  0  0
    0.4762   -1.5929    1.6215 H   0  0  0  0  0  0  0  0  0  0  0  0
   -0.1063   -0.0507    2.4458 H   0  0  0  0  0  0  0  0  0  0  0  0
  1  2  3  0
  2  3  1  0
  3  4  1  0
  4  5  1  0
  5  6  1  0
  6  7  1  0
  6  8  1  0
  6  3  1  0
  8  3  1  0
  1  9  1  0
  4 10  1  0
  4 11  1  0
  5 12  1  0
  5 13  1  0
  7 14  1  0
  7 15  1  0
  7 16  1  0
  8 17  1  0
  8 18  1  0
M  END
