
     RDKit          3D

 21 21  0  0  0  0  0  0  0  0999 V2000
    1.8417    2.6892   -0.4626 C   0  0  0  0  0  0  0  0  0  0  0  0
    1.3694    1.7557    0.1140 C   0  0  0  0  0  0  0  0  0  0  0  0
    0.7962    0.5989    0.8518 C   0  0  0  0  0  0  0  0  0  0  0  0
    0.2962   -0.3452   -0.2165 C   0  0  0  0  0  0  0  0  0  0  0  0
    1.4216   -0.8099   -1.1418 C   0  0  0  0  0  0  0  0  0  0  0  0
   -0.8364   -1.2356   -0.0437 C   0  0  0  0  0  0  0  0  0  0  0  0
   -1.7589   -1.1996    1.1418 C   0  0  0  0  0  0  0  0  0  0  0  0
   -0.9819   -0.0064   -0.9495 C   0  0  0  0  0  0  0  0  0  0  0  0
   -1.7801    1.0280   -0.5345 O   0  0  0  0  0  0  0  0  0  0  0  0
    2.2587    3.5461   -0.9744 H   0  0  0  0  0  0  0  0  0  0  0  0
    0.0421    0.8919    1.5722 H   0  0  0  0  0  0  0  0  0  0  0  0
    1.6415    0.1220    1.3717 H   0  0  0  0  0  0  0  0  0  0  0  0
    1.0844   -1.6112   -1.8192 H   0  0  0  0  0  0  0  0  0  0  0  0
    2.3020   -1.1229   -0.5450 H   0  0  0  0  0  0  0  0  0  0  0  0
    1.7145    0.1092   -1.7199 H   0  0  0  0  0  0  0  0  0  0  0  0
   -0.8307   -2.2354   -0.5635 H   0  0  0  0  0  0  0  0  0  0  0  0
   -1.8879   -2.2249    1.5657 H   0  0  0  0  0  0  0  0  0  0  0  0
   -1.4930   -0.4394    1.8925 H   0  0  0  0  0  0  0  0  0  0  0  0
   -2.7748   -0.9160    0.7549 H   0  0  0  0  0  0  0  0  0  0  0  0
   -1.0453   -0.2329   -2.0317 H   0  0  0  0  0  0  0  0  0  0  0  0
   -1.3791    1.6383    0.1046 H   0  0  0  0  0  0  0  0  0  0  0  0
  1  2  3  0
  2  3  1  0
  3  4  1  0
  4  5  1  0
  4  6  1  0
  6  7  1  0
  6  8  1  0
  8  9  1  0
  8  4  1  0
  1 10  1  0
  3 11  1  0
  3 12  1  0
  5 13  1  0
  5 14  1  0
  5 15  1  0
  6 16  1  0
  7 17  1  0
  7 18  1  0
  7 19  1  0
  8 20  1  0
  9 21  1  0
M  END
