
     RDKit          3D

 13 14  0  0  0  0  0  0  0  0999 V2000
    2.7782   -0.7735    0.6221 C   0  0  0  0  0  0  0  0  0  0  0  0
    1.8816   -0.2137    0.0414 C   0  0  0  0  0  0  0  0  0  0  0  0
    0.7866    0.4888   -0.6503 C   0  0  0  0  0  0  0  0  0  0  0  0
   -0.0192   -0.4143   -1.5092 O   0  0  0  0  0  0  0  0  0  0  0  0
   -0.5330    0.2002   -0.4070 C   0  0  0  0  0  0  0  0  0  0  0  0
   -1.1705   -0.5472    0.7018 C   0  0  0  0  0  0  0  0  0  0  0  0
   -2.0019    0.5819    0.8916 O   0  0  0  0  0  0  0  0  0  0  0  0
   -1.7345    1.0008   -0.4048 C   0  0  0  0  0  0  0  0  0  0  0  0
   -2.3547    1.7696   -1.1752 O   0  0  0  0  0  0  0  0  0  0  0  0
    3.5609   -1.2786    1.1480 H   0  0  0  0  0  0  0  0  0  0  0  0
    1.1384    1.3888   -1.1885 H   0  0  0  0  0  0  0  0  0  0  0  0
   -0.5140   -0.7934    1.5570 H   0  0  0  0  0  0  0  0  0  0  0  0
   -1.8181   -1.4095    0.3732 H   0  0  0  0  0  0  0  0  0  0  0  0
  1  2  3  0
  2  3  1  0
  3  4  1  0
  4  5  1  0
  5  6  1  0
  6  7  1  0
  7  8  1  0
  8  9  2  0
  5  3  1  0
  8  5  1  0
  1 10  1  0
  3 11  1  0
  6 12  1  0
  6 13  1  0
M  END
