
     RDKit          3D

 21 20  0  0  0  0  0  0  0  0999 V2000
   -3.2498    1.9403    0.2754 C   0  0  0  0  0  0  0  0  0  0  0  0
   -2.6480    1.1179    0.9523 C   0  0  0  0  0  0  0  0  0  0  0  0
   -1.9345    0.1155    1.7459 C   0  0  0  0  0  0  0  0  0  0  0  0
   -0.6890   -0.3696    1.0212 C   0  0  0  0  0  0  0  0  0  0  0  0
    0.1974    0.6275    0.7595 O   0  0  0  0  0  0  0  0  0  0  0  0
    1.3205    0.1413    0.1309 C   0  0  0  0  0  0  0  0  0  0  0  0
    1.0733   -0.5039   -1.1906 C   0  0  0  0  0  0  0  0  0  0  0  0
    2.4017   -0.9305   -1.8420 C   0  0  0  0  0  0  0  0  0  0  0  0
    0.4770    0.4597   -2.0355 O   0  0  0  0  0  0  0  0  0  0  0  0
   -3.7660    2.6341   -0.2793 H   0  0  0  0  0  0  0  0  0  0  0  0
   -2.5636   -0.7944    1.9060 H   0  0  0  0  0  0  0  0  0  0  0  0
   -1.7111    0.5052    2.7658 H   0  0  0  0  0  0  0  0  0  0  0  0
   -0.2140   -1.1357    1.6694 H   0  0  0  0  0  0  0  0  0  0  0  0
   -1.0646   -0.8366    0.0921 H   0  0  0  0  0  0  0  0  0  0  0  0
    2.1130    0.9521    0.0412 H   0  0  0  0  0  0  0  0  0  0  0  0
    1.8540   -0.6207    0.7822 H   0  0  0  0  0  0  0  0  0  0  0  0
    0.3940   -1.3411   -1.1043 H   0  0  0  0  0  0  0  0  0  0  0  0
    2.1873   -1.5747   -2.7208 H   0  0  0  0  0  0  0  0  0  0  0  0
    2.8624   -0.0027   -2.2370 H   0  0  0  0  0  0  0  0  0  0  0  0
    3.0580   -1.4034   -1.0932 H   0  0  0  0  0  0  0  0  0  0  0  0
   -0.0979    1.0199   -1.4464 H   0  0  0  0  0  0  0  0  0  0  0  0
  1  2  3  0
  2  3  1  0
  3  4  1  0
  4  5  1  0
  5  6  1  0
  6  7  1  0
  7  8  1  0
  7  9  1  0
  1 10  1  0
  3 11  1  0
  3 12  1  0
  4 13  1  0
  4 14  1  0
  6 15  1  0
  6 16  1  0
  7 17  1  0
  8 18  1  0
  8 19  1  0
  8 20  1  0
  9 21  1  0
M  END
