
     RDKit          3D

 21 21  0  0  0  0  0  0  0  0999 V2000
    3.4457   -0.2553    0.8147 C   0  0  0  0  0  0  0  0  0  0  0  0
    2.2942    0.0524    0.8820 C   0  0  0  0  0  0  0  0  0  0  0  0
    0.8638    0.4566    0.9512 C   0  0  0  0  0  0  0  0  0  0  0  0
    0.5345    1.1921   -0.2221 O   0  0  0  0  0  0  0  0  0  0  0  0
   -0.6629    0.5395   -0.2647 C   0  0  0  0  0  0  0  0  0  0  0  0
   -1.2178    0.2036   -1.6323 C   0  0  0  0  0  0  0  0  0  0  0  0
   -1.7187    1.3586    0.4803 C   0  0  0  0  0  0  0  0  0  0  0  0
   -0.1184   -0.5814    0.5372 C   0  0  0  0  0  0  0  0  0  0  0  0
    0.4886   -1.7231   -0.2562 C   0  0  0  0  0  0  0  0  0  0  0  0
    4.5077   -0.5299    0.7692 H   0  0  0  0  0  0  0  0  0  0  0  0
    0.6503    1.0617    1.8302 H   0  0  0  0  0  0  0  0  0  0  0  0
   -2.2608   -0.1223   -1.5210 H   0  0  0  0  0  0  0  0  0  0  0  0
   -1.2469    1.1545   -2.2183 H   0  0  0  0  0  0  0  0  0  0  0  0
   -0.6769   -0.5639   -2.1769 H   0  0  0  0  0  0  0  0  0  0  0  0
   -2.7260    0.8508    0.4260 H   0  0  0  0  0  0  0  0  0  0  0  0
   -1.4238    1.6042    1.5062 H   0  0  0  0  0  0  0  0  0  0  0  0
   -1.8597    2.3348   -0.0583 H   0  0  0  0  0  0  0  0  0  0  0  0
   -0.7256   -0.9414    1.3926 H   0  0  0  0  0  0  0  0  0  0  0  0
    1.0244   -1.3628   -1.1338 H   0  0  0  0  0  0  0  0  0  0  0  0
    1.1803   -2.2971    0.3929 H   0  0  0  0  0  0  0  0  0  0  0  0
   -0.3518   -2.4318   -0.4991 H   0  0  0  0  0  0  0  0  0  0  0  0
  1  2  3  0
  2  3  1  0
  3  4  1  0
  4  5  1  0
  5  6  1  0
  5  7  1  0
  5  8  1  0
  8  9  1  0
  8  3  1  0
  1 10  1  0
  3 11  1  0
  6 12  1  0
  6 13  1  0
  6 14  1  0
  7 15  1  0
  7 16  1  0
  7 17  1  0
  8 18  1  0
  9 19  1  0
  9 20  1  0
  9 21  1  0
M  END
