
     RDKit          3D

 19 20  0  0  0  0  0  0  0  0999 V2000
    2.6650   -0.8764   -0.6772 C   0  0  0  0  0  0  0  0  0  0  0  0
    1.8353   -0.0809   -0.3126 C   0  0  0  0  0  0  0  0  0  0  0  0
    0.8336    0.9149    0.1394 C   0  0  0  0  0  0  0  0  0  0  0  0
    0.2358    0.3993    1.4111 C   0  0  0  0  0  0  0  0  0  0  0  0
   -0.9863   -0.4575    1.1684 C   0  0  0  0  0  0  0  0  0  0  0  0
   -1.6015   -0.1093   -0.1589 C   0  0  0  0  0  0  0  0  0  0  0  0
   -0.6612   -0.3437   -1.3111 C   0  0  0  0  0  0  0  0  0  0  0  0
   -0.2309    1.0304   -0.9159 C   0  0  0  0  0  0  0  0  0  0  0  0
   -1.4884    1.2781   -0.3373 O   0  0  0  0  0  0  0  0  0  0  0  0
    3.3876   -1.5757   -1.0150 H   0  0  0  0  0  0  0  0  0  0  0  0
    1.3327    1.8987    0.3160 H   0  0  0  0  0  0  0  0  0  0  0  0
    1.0076   -0.2154    1.9460 H   0  0  0  0  0  0  0  0  0  0  0  0
   -0.0270    1.2818    2.0388 H   0  0  0  0  0  0  0  0  0  0  0  0
   -1.7384   -0.1889    1.9512 H   0  0  0  0  0  0  0  0  0  0  0  0
   -0.7672   -1.5434    1.2466 H   0  0  0  0  0  0  0  0  0  0  0  0
   -2.6038   -0.4805   -0.3505 H   0  0  0  0  0  0  0  0  0  0  0  0
    0.0368   -1.1563   -1.1291 H   0  0  0  0  0  0  0  0  0  0  0  0
   -1.2142   -0.3365   -2.2674 H   0  0  0  0  0  0  0  0  0  0  0  0
   -0.0158    1.7347   -1.7426 H   0  0  0  0  0  0  0  0  0  0  0  0
  1  2  3  0
  2  3  1  0
  3  4  1  0
  4  5  1  0
  5  6  1  0
  6  7  1  0
  7  8  1  0
  8  9  1  0
  8  3  1  0
  9  6  1  0
  1 10  1  0
  3 11  1  0
  4 12  1  0
  4 13  1  0
  5 14  1  0
  5 15  1  0
  6 16  1  0
  7 17  1  0
  7 18  1  0
  8 19  1  0
M  END
