
     RDKit          3D

 17 17  0  0  0  0  0  0  0  0999 V2000
    2.3597   -1.9984    2.4374 C   0  0  0  0  0  0  0  0  0  0  0  0
    1.9281   -1.7475    1.3568 C   0  0  0  0  0  0  0  0  0  0  0  0
    1.4187   -1.4273    0.0201 C   0  0  0  0  0  0  0  0  0  0  0  0
    0.0655   -0.8365    0.0733 C   0  0  0  0  0  0  0  0  0  0  0  0
   -0.8150   -1.4391    0.6229 O   0  0  0  0  0  0  0  0  0  0  0  0
   -0.1847    0.4737   -0.5419 C   0  0  0  0  0  0  0  0  0  0  0  0
   -1.6053    0.9451   -0.4872 C   0  0  0  0  0  0  0  0  0  0  0  0
   -1.9208    2.2469   -1.0741 C   0  0  0  0  0  0  0  0  0  0  0  0
   -1.8635    2.0555    0.2938 O   0  0  0  0  0  0  0  0  0  0  0  0
    2.7397   -2.2285    3.4375 H   0  0  0  0  0  0  0  0  0  0  0  0
    2.1543   -0.7466   -0.4559 H   0  0  0  0  0  0  0  0  0  0  0  0
    1.4075   -2.3908   -0.5554 H   0  0  0  0  0  0  0  0  0  0  0  0
    0.4347    1.2208    0.0481 H   0  0  0  0  0  0  0  0  0  0  0  0
    0.2358    0.5480   -1.5815 H   0  0  0  0  0  0  0  0  0  0  0  0
   -2.3634    0.1360   -0.5508 H   0  0  0  0  0  0  0  0  0  0  0  0
   -2.9275    2.4192   -1.4676 H   0  0  0  0  0  0  0  0  0  0  0  0
   -1.0638    2.7694   -1.5756 H   0  0  0  0  0  0  0  0  0  0  0  0
  1  2  3  0
  2  3  1  0
  3  4  1  0
  4  5  2  0
  4  6  1  0
  6  7  1  0
  7  8  1  0
  8  9  1  0
  9  7  1  0
  1 10  1  0
  3 11  1  0
  3 12  1  0
  6 13  1  0
  6 14  1  0
  7 15  1  0
  8 16  1  0
  8 17  1  0
M  END
