
     RDKit          3D

 23 22  0  0  0  0  0  0  0  0999 V2000
    2.1549   -1.5938    2.0508 C   0  0  0  0  0  0  0  0  0  0  0  0
    1.1367   -1.1577    1.5995 C   0  0  0  0  0  0  0  0  0  0  0  0
   -0.1256   -0.6325    1.0650 C   0  0  0  0  0  0  0  0  0  0  0  0
    0.1294    0.4746    0.0841 C   0  0  0  0  0  0  0  0  0  0  0  0
    0.8105    1.5375    0.7156 O   0  0  0  0  0  0  0  0  0  0  0  0
    1.0848   -0.0352   -0.9767 C   0  0  0  0  0  0  0  0  0  0  0  0
    0.5640   -1.2153   -1.7303 C   0  0  0  0  0  0  0  0  0  0  0  0
   -1.1556    0.9649   -0.4946 C   0  0  0  0  0  0  0  0  0  0  0  0
   -2.0639    1.4865    0.5853 C   0  0  0  0  0  0  0  0  0  0  0  0
    3.0829   -1.9746    2.4715 H   0  0  0  0  0  0  0  0  0  0  0  0
   -0.7420   -0.2130    1.8973 H   0  0  0  0  0  0  0  0  0  0  0  0
   -0.7427   -1.4351    0.5894 H   0  0  0  0  0  0  0  0  0  0  0  0
    0.7463    1.3717    1.6877 H   0  0  0  0  0  0  0  0  0  0  0  0
    1.3742    0.8117   -1.6612 H   0  0  0  0  0  0  0  0  0  0  0  0
    2.0020   -0.3426   -0.4348 H   0  0  0  0  0  0  0  0  0  0  0  0
   -0.2915   -0.9764   -2.3692 H   0  0  0  0  0  0  0  0  0  0  0  0
    1.3449   -1.6648   -2.4026 H   0  0  0  0  0  0  0  0  0  0  0  0
    0.3039   -2.0242   -1.0385 H   0  0  0  0  0  0  0  0  0  0  0  0
   -0.9718    1.7546   -1.2587 H   0  0  0  0  0  0  0  0  0  0  0  0
   -1.7016    0.1572   -1.0185 H   0  0  0  0  0  0  0  0  0  0  0  0
   -2.8354    2.1099    0.1096 H   0  0  0  0  0  0  0  0  0  0  0  0
   -2.5515    0.5661    1.0270 H   0  0  0  0  0  0  0  0  0  0  0  0
   -1.5526    2.0305    1.3890 H   0  0  0  0  0  0  0  0  0  0  0  0
  1  2  3  0
  2  3  1  0
  3  4  1  0
  4  5  1  0
  4  6  1  0
  6  7  1  0
  4  8  1  0
  8  9  1  0
  1 10  1  0
  3 11  1  0
  3 12  1  0
  5 13  1  0
  6 14  1  0
  6 15  1  0
  7 16  1  0
  7 17  1  0
  7 18  1  0
  8 19  1  0
  8 20  1  0
  9 21  1  0
  9 22  1  0
  9 23  1  0
M  END
