
     RDKit          3D

 19 20  0  0  0  0  0  0  0  0999 V2000
    3.4217   -0.6258    0.0135 C   0  0  0  0  0  0  0  0  0  0  0  0
    2.2798   -0.2648   -0.1237 C   0  0  0  0  0  0  0  0  0  0  0  0
    0.8864    0.1525   -0.2780 C   0  0  0  0  0  0  0  0  0  0  0  0
    0.5534    1.4174    0.4782 C   0  0  0  0  0  0  0  0  0  0  0  0
   -0.6908    0.7378    1.0090 C   0  0  0  0  0  0  0  0  0  0  0  0
   -1.8488    0.7895    0.0795 C   0  0  0  0  0  0  0  0  0  0  0  0
   -2.0746   -0.3641   -0.4939 C   0  0  0  0  0  0  0  0  0  0  0  0
   -1.0880   -1.3767   -0.0283 C   0  0  0  0  0  0  0  0  0  0  0  0
   -0.0404   -0.5862    0.6869 C   0  0  0  0  0  0  0  0  0  0  0  0
    4.4318   -0.9402    0.1522 H   0  0  0  0  0  0  0  0  0  0  0  0
    0.5080    0.1639   -1.3060 H   0  0  0  0  0  0  0  0  0  0  0  0
    1.2162    1.6793    1.3000 H   0  0  0  0  0  0  0  0  0  0  0  0
    0.2900    2.2787   -0.1521 H   0  0  0  0  0  0  0  0  0  0  0  0
   -0.8948    0.9431    2.0616 H   0  0  0  0  0  0  0  0  0  0  0  0
   -2.4359    1.6834   -0.0995 H   0  0  0  0  0  0  0  0  0  0  0  0
   -2.8602   -0.5923   -1.2133 H   0  0  0  0  0  0  0  0  0  0  0  0
   -1.5320   -2.0913    0.6974 H   0  0  0  0  0  0  0  0  0  0  0  0
   -0.6205   -1.9334   -0.8744 H   0  0  0  0  0  0  0  0  0  0  0  0
    0.4988   -1.0707    1.5011 H   0  0  0  0  0  0  0  0  0  0  0  0
  1  2  3  0
  2  3  1  0
  3  4  1  0
  4  5  1  0
  5  6  1  0
  6  7  2  0
  7  8  1  0
  8  9  1  0
  9  3  1  0
  9  5  1  0
  1 10  1  0
  3 11  1  0
  4 12  1  0
  4 13  1  0
  5 14  1  0
  6 15  1  0
  7 16  1  0
  8 17  1  0
  8 18  1  0
  9 19  1  0
M  END
