
     RDKit          3D

 17 17  0  0  0  0  0  0  0  0999 V2000
    2.5600   -0.5983    0.1346 C   0  0  0  0  0  0  0  0  0  0  0  0
    1.4503   -0.1323   -0.0110 C   0  0  0  0  0  0  0  0  0  0  0  0
    0.1098    0.4573   -0.1953 C   0  0  0  0  0  0  0  0  0  0  0  0
   -0.3558    1.0039    1.1509 C   0  0  0  0  0  0  0  0  0  0  0  0
    0.1580    1.5158   -1.2252 C   0  0  0  0  0  0  0  0  0  0  0  0
    0.5846    2.6162   -0.9722 O   0  0  0  0  0  0  0  0  0  0  0  0
   -0.8477   -0.6081   -0.6106 C   0  0  0  0  0  0  0  0  0  0  0  0
   -1.0624   -1.7430    0.2782 C   0  0  0  0  0  0  0  0  0  0  0  0
   -0.3995   -1.8446   -1.0334 O   0  0  0  0  0  0  0  0  0  0  0  0
    3.5331   -1.0093    0.2439 H   0  0  0  0  0  0  0  0  0  0  0  0
   -1.4350    0.8847    1.2007 H   0  0  0  0  0  0  0  0  0  0  0  0
    0.2108    0.5865    1.9940 H   0  0  0  0  0  0  0  0  0  0  0  0
   -0.1519    2.1096    1.1074 H   0  0  0  0  0  0  0  0  0  0  0  0
   -0.1923    1.3037   -2.2166 H   0  0  0  0  0  0  0  0  0  0  0  0
   -1.7475   -0.2529   -1.1811 H   0  0  0  0  0  0  0  0  0  0  0  0
   -0.3546   -2.0508    1.0529 H   0  0  0  0  0  0  0  0  0  0  0  0
   -2.0600   -2.2384    0.2829 H   0  0  0  0  0  0  0  0  0  0  0  0
  1  2  3  0
  2  3  1  0
  3  4  1  0
  3  5  1  0
  5  6  2  0
  3  7  1  0
  7  8  1  0
  8  9  1  0
  9  7  1  0
  1 10  1  0
  4 11  1  0
  4 12  1  0
  4 13  1  0
  5 14  1  0
  7 15  1  0
  8 16  1  0
  8 17  1  0
M  END
