
     RDKit          3D

 17 19  0  0  0  0  0  0  0  0999 V2000
    3.1366    0.2443    0.6841 C   0  0  0  0  0  0  0  0  0  0  0  0
    1.9529    0.1816    0.5817 C   0  0  0  0  0  0  0  0  0  0  0  0
    0.4982    0.1177    0.4338 C   0  0  0  0  0  0  0  0  0  0  0  0
   -0.2998    1.3845    0.3597 C   0  0  0  0  0  0  0  0  0  0  0  0
   -1.1442    0.7353   -0.7210 C   0  0  0  0  0  0  0  0  0  0  0  0
   -2.1411   -0.0911   -0.2540 O   0  0  0  0  0  0  0  0  0  0  0  0
   -1.6138   -1.2457    0.2366 C   0  0  0  0  0  0  0  0  0  0  0  0
   -0.0985   -1.1852    0.0138 C   0  0  0  0  0  0  0  0  0  0  0  0
    0.0114   -0.1544   -1.0048 C   0  0  0  0  0  0  0  0  0  0  0  0
    4.2036    0.3058    0.7945 H   0  0  0  0  0  0  0  0  0  0  0  0
    0.3077    2.1887   -0.0969 H   0  0  0  0  0  0  0  0  0  0  0  0
   -0.8167    1.7189    1.2499 H   0  0  0  0  0  0  0  0  0  0  0  0
   -1.4507    1.4231   -1.5341 H   0  0  0  0  0  0  0  0  0  0  0  0
   -1.7636   -1.4178    1.3111 H   0  0  0  0  0  0  0  0  0  0  0  0
   -2.0053   -2.0961   -0.3924 H   0  0  0  0  0  0  0  0  0  0  0  0
    0.4947   -2.0760    0.1154 H   0  0  0  0  0  0  0  0  0  0  0  0
    0.7287   -0.0335   -1.7774 H   0  0  0  0  0  0  0  0  0  0  0  0
  1  2  3  0
  2  3  1  0
  3  4  1  0
  4  5  1  0
  5  6  1  0
  6  7  1  0
  7  8  1  0
  8  9  1  0
  8  3  1  0
  9  3  1  0
  9  5  1  0
  1 10  1  0
  4 11  1  0
  4 12  1  0
  5 13  1  0
  7 14  1  0
  7 15  1  0
  8 16  1  0
  9 17  1  0
M  END
