
     RDKit          3D

 17 16  0  0  0  0  0  0  0  0999 V2000
   -2.0936    2.6068   -0.5003 C   0  0  0  0  0  0  0  0  0  0  0  0
   -1.5741    1.5206   -0.5877 C   0  0  0  0  0  0  0  0  0  0  0  0
   -0.9221    0.1999   -0.6765 C   0  0  0  0  0  0  0  0  0  0  0  0
   -1.6956   -0.7732    0.1940 C   0  0  0  0  0  0  0  0  0  0  0  0
    0.4575    0.2824   -0.0824 C   0  0  0  0  0  0  0  0  0  0  0  0
    0.8655    1.3745    0.3809 O   0  0  0  0  0  0  0  0  0  0  0  0
    1.3387   -0.8544   -0.0232 C   0  0  0  0  0  0  0  0  0  0  0  0
    2.6822   -0.7281    0.5694 C   0  0  0  0  0  0  0  0  0  0  0  0
    0.9360   -1.9465   -0.4856 O   0  0  0  0  0  0  0  0  0  0  0  0
   -2.5404    3.5649   -0.4375 H   0  0  0  0  0  0  0  0  0  0  0  0
   -0.8879   -0.1112   -1.7195 H   0  0  0  0  0  0  0  0  0  0  0  0
   -1.4109   -0.7089    1.2558 H   0  0  0  0  0  0  0  0  0  0  0  0
   -1.5277   -1.7840   -0.2376 H   0  0  0  0  0  0  0  0  0  0  0  0
   -2.7890   -0.5851    0.1273 H   0  0  0  0  0  0  0  0  0  0  0  0
    2.6692   -0.1569    1.5357 H   0  0  0  0  0  0  0  0  0  0  0  0
    3.1329   -1.7137    0.8246 H   0  0  0  0  0  0  0  0  0  0  0  0
    3.3594   -0.1870   -0.1373 H   0  0  0  0  0  0  0  0  0  0  0  0
  1  2  3  0
  2  3  1  0
  3  4  1  0
  3  5  1  0
  5  6  2  0
  5  7  1  0
  7  8  1  0
  7  9  2  0
  1 10  1  0
  3 11  1  0
  4 12  1  0
  4 13  1  0
  4 14  1  0
  8 15  1  0
  8 16  1  0
  8 17  1  0
M  END
