
     RDKit          3D

 17 17  0  0  0  0  0  0  0  0999 V2000
   -1.3471    2.8159    0.8197 C   0  0  0  0  0  0  0  0  0  0  0  0
   -1.0098    1.6888    0.4853 C   0  0  0  0  0  0  0  0  0  0  0  0
   -0.5989    0.3713    0.1032 C   0  0  0  0  0  0  0  0  0  0  0  0
    0.6266    0.0811   -0.2780 C   0  0  0  0  0  0  0  0  0  0  0  0
    1.7095    1.0072   -0.3681 C   0  0  0  0  0  0  0  0  0  0  0  0
    2.6472    1.8375   -0.4435 C   0  0  0  0  0  0  0  0  0  0  0  0
    0.7183   -1.3875   -0.6057 C   0  0  0  0  0  0  0  0  0  0  0  0
   -0.3473   -1.9177    0.3573 C   0  0  0  0  0  0  0  0  0  0  0  0
   -1.4455   -0.8779    0.0652 C   0  0  0  0  0  0  0  0  0  0  0  0
   -1.6278    3.7779    1.1211 H   0  0  0  0  0  0  0  0  0  0  0  0
    3.4186    2.5043   -0.4917 H   0  0  0  0  0  0  0  0  0  0  0  0
    0.2899   -1.5360   -1.6229 H   0  0  0  0  0  0  0  0  0  0  0  0
    1.7055   -1.8090   -0.4448 H   0  0  0  0  0  0  0  0  0  0  0  0
   -0.6576   -2.9209    0.0847 H   0  0  0  0  0  0  0  0  0  0  0  0
   -0.0665   -1.7804    1.3992 H   0  0  0  0  0  0  0  0  0  0  0  0
   -2.2385   -0.8716    0.8045 H   0  0  0  0  0  0  0  0  0  0  0  0
   -1.7765   -0.9830   -0.9856 H   0  0  0  0  0  0  0  0  0  0  0  0
  1  2  3  0
  2  3  1  0
  3  4  2  0
  4  5  1  0
  5  6  3  0
  4  7  1  0
  7  8  1  0
  8  9  1  0
  9  3  1  0
  1 10  1  0
  6 11  1  0
  7 12  1  0
  7 13  1  0
  8 14  1  0
  8 15  1  0
  9 16  1  0
  9 17  1  0
M  END
