
     RDKit          3D

 19 19  0  0  0  0  0  0  0  0999 V2000
    2.3988    1.7182    0.0094 C   0  0  0  0  0  0  0  0  0  0  0  0
    2.0142    0.5940    0.0481 C   0  0  0  0  0  0  0  0  0  0  0  0
    1.5616   -0.7812    0.1139 C   0  0  0  0  0  0  0  0  0  0  0  0
    0.0810   -0.8934    0.0569 C   0  0  0  0  0  0  0  0  0  0  0  0
   -0.4395   -0.3071   -1.2211 C   0  0  0  0  0  0  0  0  0  0  0  0
   -1.5135    0.6654   -0.7982 C   0  0  0  0  0  0  0  0  0  0  0  0
   -1.9525    0.0995    0.4995 C   0  0  0  0  0  0  0  0  0  0  0  0
   -3.0850   -0.0244    0.8980 O   0  0  0  0  0  0  0  0  0  0  0  0
   -0.6621   -0.2776    1.1900 C   0  0  0  0  0  0  0  0  0  0  0  0
    2.7528    2.7401   -0.0074 H   0  0  0  0  0  0  0  0  0  0  0  0
    1.9850   -1.3179   -0.7639 H   0  0  0  0  0  0  0  0  0  0  0  0
    1.9826   -1.3155    1.0165 H   0  0  0  0  0  0  0  0  0  0  0  0
   -0.1706   -1.9945    0.0241 H   0  0  0  0  0  0  0  0  0  0  0  0
    0.3724    0.3075   -1.7012 H   0  0  0  0  0  0  0  0  0  0  0  0
   -0.8105   -1.0637   -1.9404 H   0  0  0  0  0  0  0  0  0  0  0  0
   -2.3177    0.6365   -1.5657 H   0  0  0  0  0  0  0  0  0  0  0  0
   -1.0870    1.6648   -0.6404 H   0  0  0  0  0  0  0  0  0  0  0  0
   -0.1893    0.5971    1.6457 H   0  0  0  0  0  0  0  0  0  0  0  0
   -0.9207   -1.0479    1.9478 H   0  0  0  0  0  0  0  0  0  0  0  0
  1  2  3  0
  2  3  1  0
  3  4  1  0
  4  5  1  0
  5  6  1  0
  6  7  1  0
  7  8  2  0
  7  9  1  0
  9  4  1  0
  1 10  1  0
  3 11  1  0
  3 12  1  0
  4 13  1  0
  5 14  1  0
  5 15  1  0
  6 16  1  0
  6 17  1  0
  9 18  1  0
  9 19  1  0
M  END
