
     RDKit          3D

 21 21  0  0  0  0  0  0  0  0999 V2000
    4.6526   -0.0897    0.7035 C   0  0  0  0  0  0  0  0  0  0  0  0
    3.5809    0.0841    0.1812 C   0  0  0  0  0  0  0  0  0  0  0  0
    2.2651    0.2768   -0.4704 C   0  0  0  0  0  0  0  0  0  0  0  0
    1.3159   -0.1728    0.4211 O   0  0  0  0  0  0  0  0  0  0  0  0
    0.0177   -0.0550   -0.0547 C   0  0  0  0  0  0  0  0  0  0  0  0
   -1.0017    0.4080    1.0077 C   0  0  0  0  0  0  0  0  0  0  0  0
   -1.9993    1.4254    0.5226 C   0  0  0  0  0  0  0  0  0  0  0  0
   -0.9896   -0.9743    0.5208 C   0  0  0  0  0  0  0  0  0  0  0  0
   -2.1935   -1.4199   -0.2802 C   0  0  0  0  0  0  0  0  0  0  0  0
    5.6045   -0.2455    1.1562 H   0  0  0  0  0  0  0  0  0  0  0  0
    2.2910   -0.2609   -1.4169 H   0  0  0  0  0  0  0  0  0  0  0  0
    2.1758    1.3806   -0.6207 H   0  0  0  0  0  0  0  0  0  0  0  0
   -0.1032    0.3773   -1.0737 H   0  0  0  0  0  0  0  0  0  0  0  0
   -0.6055    0.6140    2.0283 H   0  0  0  0  0  0  0  0  0  0  0  0
   -1.6545    1.9472   -0.3885 H   0  0  0  0  0  0  0  0  0  0  0  0
   -2.1971    2.2094    1.2905 H   0  0  0  0  0  0  0  0  0  0  0  0
   -2.9819    0.9776    0.2834 H   0  0  0  0  0  0  0  0  0  0  0  0
   -0.6137   -1.7700    1.2027 H   0  0  0  0  0  0  0  0  0  0  0  0
   -2.1699   -1.1003   -1.3230 H   0  0  0  0  0  0  0  0  0  0  0  0
   -3.1036   -1.0673    0.2586 H   0  0  0  0  0  0  0  0  0  0  0  0
   -2.2900   -2.5446   -0.2858 H   0  0  0  0  0  0  0  0  0  0  0  0
  1  2  3  0
  2  3  1  0
  3  4  1  0
  4  5  1  0
  5  6  1  0
  6  7  1  0
  6  8  1  0
  8  9  1  0
  8  5  1  0
  1 10  1  0
  3 11  1  0
  3 12  1  0
  5 13  1  0
  6 14  1  0
  7 15  1  0
  7 16  1  0
  7 17  1  0
  8 18  1  0
  9 19  1  0
  9 20  1  0
  9 21  1  0
M  END
