
     RDKit          3D

 20 20  0  0  0  0  0  0  0  0999 V2000
   -1.3038    2.4042    0.0664 C   0  0  0  0  0  0  0  0  0  0  0  0
   -1.3065    1.2238   -0.2001 C   0  0  0  0  0  0  0  0  0  0  0  0
   -1.2863   -0.2014   -0.5121 C   0  0  0  0  0  0  0  0  0  0  0  0
   -2.2256   -0.9248    0.4159 C   0  0  0  0  0  0  0  0  0  0  0  0
    0.1248   -0.6966   -0.4216 C   0  0  0  0  0  0  0  0  0  0  0  0
    1.0843   -0.0121   -1.3699 C   0  0  0  0  0  0  0  0  0  0  0  0
    1.1415    0.2074    0.1574 C   0  0  0  0  0  0  0  0  0  0  0  0
    2.3892   -0.3027    0.8093 C   0  0  0  0  0  0  0  0  0  0  0  0
   -1.3144    3.4361    0.3130 H   0  0  0  0  0  0  0  0  0  0  0  0
   -1.7056   -0.3151   -1.5419 H   0  0  0  0  0  0  0  0  0  0  0  0
   -2.1398   -0.5576    1.4769 H   0  0  0  0  0  0  0  0  0  0  0  0
   -2.1674   -2.0147    0.3344 H   0  0  0  0  0  0  0  0  0  0  0  0
   -3.2667   -0.6153    0.1089 H   0  0  0  0  0  0  0  0  0  0  0  0
    0.2457   -1.7986   -0.3910 H   0  0  0  0  0  0  0  0  0  0  0  0
    0.7755    0.8510   -1.9559 H   0  0  0  0  0  0  0  0  0  0  0  0
    1.9098   -0.6229   -1.8167 H   0  0  0  0  0  0  0  0  0  0  0  0
    0.8018    1.2035    0.5152 H   0  0  0  0  0  0  0  0  0  0  0  0
    3.2044    0.4388    0.6183 H   0  0  0  0  0  0  0  0  0  0  0  0
    2.7327   -1.2491    0.3330 H   0  0  0  0  0  0  0  0  0  0  0  0
    2.3064   -0.4540    1.8852 H   0  0  0  0  0  0  0  0  0  0  0  0
  1  2  3  0
  2  3  1  0
  3  4  1  0
  3  5  1  0
  5  6  1  0
  6  7  1  0
  7  8  1  0
  7  5  1  0
  1  9  1  0
  3 10  1  0
  4 11  1  0
  4 12  1  0
  4 13  1  0
  5 14  1  0
  6 15  1  0
  6 16  1  0
  7 17  1  0
  8 18  1  0
  8 19  1  0
  8 20  1  0
M  END
