
     RDKit          3D

 13 12  0  0  0  0  0  0  0  0999 V2000
    4.4381    0.6815    0.7551 C   0  0  0  0  0  0  0  0  0  0  0  0
    3.7980    0.5075    0.6704 C   0  0  0  0  0  0  0  0  0  0  0  0
    2.6822    0.2196    0.5223 C   0  0  0  0  0  0  0  0  0  0  0  0
    1.0339   -0.1782    0.2898 C   0  0  0  0  0  0  0  0  0  0  0  0
    0.1233   -0.4073    0.1609 C   0  0  0  0  0  0  0  0  0  0  0  0
   -1.0031   -0.6698    0.0008 C   0  0  0  0  0  0  0  0  0  0  0  0
   -2.8285   -1.0935   -0.2666 C   0  0  0  0  0  0  0  0  0  0  0  0
   -2.8895    0.0592   -0.4818 C   0  0  0  0  0  0  0  0  0  0  0  0
   -2.9304    1.2079   -0.7020 C   0  0  0  0  0  0  0  0  0  0  0  0
    5.5356    0.9987    0.8977 H   0  0  0  0  0  0  0  0  0  0  0  0
   -2.3423   -1.8451   -1.0417 H   0  0  0  0  0  0  0  0  0  0  0  0
   -2.6592   -1.7331    0.6959 H   0  0  0  0  0  0  0  0  0  0  0  0
   -2.9580    2.2527   -0.8871 H   0  0  0  0  0  0  0  0  0  0  0  0
  1  2  3  0
  2  3  1  0
  3  4  3  0
  4  5  1  0
  5  6  3  0
  6  7  1  0
  7  8  1  0
  8  9  3  0
  1 10  1  0
  7 11  1  0
  7 12  1  0
  9 13  1  0
M  END
