
     RDKit          3D

 17 18  0  0  0  0  0  0  0  0999 V2000
    0.9545   -2.9463    0.3291 C   0  0  0  0  0  0  0  0  0  0  0  0
    0.4433   -1.8750    0.5393 C   0  0  0  0  0  0  0  0  0  0  0  0
   -0.2102   -0.5645    0.7956 C   0  0  0  0  0  0  0  0  0  0  0  0
    0.7930    0.4374    1.1783 C   0  0  0  0  0  0  0  0  0  0  0  0
    1.1264    1.1717    0.1490 C   0  0  0  0  0  0  0  0  0  0  0  0
    0.3857    0.7479   -1.0448 C   0  0  0  0  0  0  0  0  0  0  0  0
   -0.5407    1.7151   -1.4472 O   0  0  0  0  0  0  0  0  0  0  0  0
   -1.4773    1.2377   -0.5103 C   0  0  0  0  0  0  0  0  0  0  0  0
   -0.7607   -0.0895   -0.5112 C   0  0  0  0  0  0  0  0  0  0  0  0
    1.4026   -3.8803    0.1271 H   0  0  0  0  0  0  0  0  0  0  0  0
   -0.9868   -0.7354    1.5750 H   0  0  0  0  0  0  0  0  0  0  0  0
    1.1936    0.5296    2.2179 H   0  0  0  0  0  0  0  0  0  0  0  0
    1.8467    1.9827    0.1601 H   0  0  0  0  0  0  0  0  0  0  0  0
    0.9302    0.2389   -1.8418 H   0  0  0  0  0  0  0  0  0  0  0  0
   -2.4728    1.1252   -0.9885 H   0  0  0  0  0  0  0  0  0  0  0  0
   -1.4427    1.7363    0.4604 H   0  0  0  0  0  0  0  0  0  0  0  0
   -1.1847   -0.8314   -1.1882 H   0  0  0  0  0  0  0  0  0  0  0  0
  1  2  3  0
  2  3  1  0
  3  4  1  0
  4  5  2  0
  5  6  1  0
  6  7  1  0
  7  8  1  0
  8  9  1  0
  9  3  1  0
  9  6  1  0
  1 10  1  0
  3 11  1  0
  4 12  1  0
  5 13  1  0
  6 14  1  0
  8 15  1  0
  8 16  1  0
  9 17  1  0
M  END
