
     RDKit          3D

 13 13  0  0  0  0  0  0  0  0999 V2000
    2.5212   -0.3177   -0.4020 C   0  0  0  0  0  0  0  0  0  0  0  0
    1.5110   -0.0159   -0.1127 C   0  0  0  0  0  0  0  0  0  0  0  0
    0.1802    0.3826    0.2560 C   0  0  0  0  0  0  0  0  0  0  0  0
   -0.0068    1.8559   -0.1598 C   0  0  0  0  0  0  0  0  0  0  0  0
   -0.0188    2.6758    0.7824 O   0  0  0  0  0  0  0  0  0  0  0  0
   -0.2613   -0.0304    1.5199 O   0  0  0  0  0  0  0  0  0  0  0  0
   -1.1249   -0.3071    0.4057 C   0  0  0  0  0  0  0  0  0  0  0  0
   -1.3450   -1.6186   -0.1418 C   0  0  0  0  0  0  0  0  0  0  0  0
   -2.3097   -2.2876   -0.3415 O   0  0  0  0  0  0  0  0  0  0  0  0
    3.4926   -0.6096   -0.6965 H   0  0  0  0  0  0  0  0  0  0  0  0
   -0.1213    2.0814   -1.1735 H   0  0  0  0  0  0  0  0  0  0  0  0
   -2.1297    0.3327    0.5342 H   0  0  0  0  0  0  0  0  0  0  0  0
   -0.3874   -2.1416   -0.4704 H   0  0  0  0  0  0  0  0  0  0  0  0
  1  2  3  0
  2  3  1  0
  3  4  1  0
  4  5  2  0
  3  6  1  0
  6  7  1  0
  7  8  1  0
  8  9  2  0
  7  3  1  0
  1 10  1  0
  4 11  1  0
  7 12  1  0
  8 13  1  0
M  END
