
     RDKit          3D

 21 22  0  0  0  0  0  0  0  0999 V2000
    3.5871   -0.4943   -0.5843 C   0  0  0  0  0  0  0  0  0  0  0  0
    2.4514   -0.3068   -0.2172 C   0  0  0  0  0  0  0  0  0  0  0  0
    1.0758   -0.0703    0.2406 C   0  0  0  0  0  0  0  0  0  0  0  0
    0.3271   -1.3687    0.0569 C   0  0  0  0  0  0  0  0  0  0  0  0
   -1.1443   -1.1972    0.3255 C   0  0  0  0  0  0  0  0  0  0  0  0
   -1.7558   -0.0213   -0.3113 C   0  0  0  0  0  0  0  0  0  0  0  0
   -1.8255    1.2337    0.5693 C   0  0  0  0  0  0  0  0  0  0  0  0
   -0.9549    1.1202   -0.6476 C   0  0  0  0  0  0  0  0  0  0  0  0
    0.5120    1.0565   -0.5322 C   0  0  0  0  0  0  0  0  0  0  0  0
    4.5933   -0.6539   -0.9278 H   0  0  0  0  0  0  0  0  0  0  0  0
    1.1038    0.2235    1.3302 H   0  0  0  0  0  0  0  0  0  0  0  0
    0.7169   -2.0731    0.8274 H   0  0  0  0  0  0  0  0  0  0  0  0
    0.5111   -1.7470   -0.9546 H   0  0  0  0  0  0  0  0  0  0  0  0
   -1.6387   -2.1507    0.0432 H   0  0  0  0  0  0  0  0  0  0  0  0
   -1.2856   -1.1233    1.4439 H   0  0  0  0  0  0  0  0  0  0  0  0
   -2.6714   -0.2394   -0.9345 H   0  0  0  0  0  0  0  0  0  0  0  0
   -1.3428    1.2048    1.5598 H   0  0  0  0  0  0  0  0  0  0  0  0
   -2.7861    1.7718    0.5273 H   0  0  0  0  0  0  0  0  0  0  0  0
   -1.3194    1.7714   -1.4977 H   0  0  0  0  0  0  0  0  0  0  0  0
    0.8963    2.0193   -0.0847 H   0  0  0  0  0  0  0  0  0  0  0  0
    0.9497    1.0446   -1.5640 H   0  0  0  0  0  0  0  0  0  0  0  0
  1  2  3  0
  2  3  1  0
  3  4  1  0
  4  5  1  0
  5  6  1  0
  6  7  1  0
  7  8  1  0
  8  9  1  0
  9  3  1  0
  8  6  1  0
  1 10  1  0
  3 11  1  0
  4 12  1  0
  4 13  1  0
  5 14  1  0
  5 15  1  0
  6 16  1  0
  7 17  1  0
  7 18  1  0
  8 19  1  0
  9 20  1  0
  9 21  1  0
M  END
