
     RDKit          3D

 17 18  0  0  0  0  0  0  0  0999 V2000
    3.4606   -0.0845   -0.6668 C   0  0  0  0  0  0  0  0  0  0  0  0
    2.4233    0.4587   -0.3904 C   0  0  0  0  0  0  0  0  0  0  0  0
    1.1538    1.1331   -0.0439 C   0  0  0  0  0  0  0  0  0  0  0  0
    0.3328    1.4182   -1.1975 O   0  0  0  0  0  0  0  0  0  0  0  0
   -0.0434    0.5251   -0.2440 C   0  0  0  0  0  0  0  0  0  0  0  0
   -0.4182   -0.8799   -0.5323 C   0  0  0  0  0  0  0  0  0  0  0  0
   -1.2350   -0.8452    0.7460 C   0  0  0  0  0  0  0  0  0  0  0  0
   -2.4801   -1.4462    0.6680 O   0  0  0  0  0  0  0  0  0  0  0  0
   -1.2638    0.6749    0.5902 C   0  0  0  0  0  0  0  0  0  0  0  0
    4.3796   -0.5769   -0.9284 H   0  0  0  0  0  0  0  0  0  0  0  0
    1.3245    1.9918    0.6403 H   0  0  0  0  0  0  0  0  0  0  0  0
   -1.1261   -1.0157   -1.3910 H   0  0  0  0  0  0  0  0  0  0  0  0
    0.4054   -1.6242   -0.5349 H   0  0  0  0  0  0  0  0  0  0  0  0
   -0.6082   -1.1033    1.5973 H   0  0  0  0  0  0  0  0  0  0  0  0
   -3.0584   -0.8431    0.1172 H   0  0  0  0  0  0  0  0  0  0  0  0
   -1.0526    1.2329    1.5165 H   0  0  0  0  0  0  0  0  0  0  0  0
   -2.1942    0.9843    0.0618 H   0  0  0  0  0  0  0  0  0  0  0  0
  1  2  3  0
  2  3  1  0
  3  4  1  0
  4  5  1  0
  5  6  1  0
  6  7  1  0
  7  8  1  0
  7  9  1  0
  5  3  1  0
  9  5  1  0
  1 10  1  0
  3 11  1  0
  6 12  1  0
  6 13  1  0
  7 14  1  0
  8 15  1  0
  9 16  1  0
  9 17  1  0
M  END
