
     RDKit          3D

 21 21  0  0  0  0  0  0  0  0999 V2000
    3.0731   -0.7805    0.6401 C   0  0  0  0  0  0  0  0  0  0  0  0
    2.0859   -0.1330    0.8404 C   0  0  0  0  0  0  0  0  0  0  0  0
    0.8887    0.6709    1.0880 C   0  0  0  0  0  0  0  0  0  0  0  0
    1.0359    1.8731    0.4624 O   0  0  0  0  0  0  0  0  0  0  0  0
    0.0420    2.0461   -0.4608 C   0  0  0  0  0  0  0  0  0  0  0  0
   -1.0778    1.0962   -0.1211 C   0  0  0  0  0  0  0  0  0  0  0  0
   -0.3507    0.0019    0.6170 C   0  0  0  0  0  0  0  0  0  0  0  0
   -0.1220   -1.1330   -0.3295 C   0  0  0  0  0  0  0  0  0  0  0  0
   -1.4732   -1.7009   -0.7104 C   0  0  0  0  0  0  0  0  0  0  0  0
    3.9489   -1.3740    0.4507 H   0  0  0  0  0  0  0  0  0  0  0  0
    0.7690    0.8623    2.1915 H   0  0  0  0  0  0  0  0  0  0  0  0
   -0.3201    3.0835   -0.4160 H   0  0  0  0  0  0  0  0  0  0  0  0
    0.4455    1.7705   -1.4567 H   0  0  0  0  0  0  0  0  0  0  0  0
   -1.5278    0.7488   -1.0745 H   0  0  0  0  0  0  0  0  0  0  0  0
   -1.8747    1.5510    0.4724 H   0  0  0  0  0  0  0  0  0  0  0  0
   -1.0172   -0.3405    1.4298 H   0  0  0  0  0  0  0  0  0  0  0  0
    0.5595   -1.9137    0.0683 H   0  0  0  0  0  0  0  0  0  0  0  0
    0.3468   -0.7876   -1.2902 H   0  0  0  0  0  0  0  0  0  0  0  0
   -2.2924   -1.0192   -0.4032 H   0  0  0  0  0  0  0  0  0  0  0  0
   -1.5807   -1.8403   -1.8028 H   0  0  0  0  0  0  0  0  0  0  0  0
   -1.5586   -2.6815   -0.1952 H   0  0  0  0  0  0  0  0  0  0  0  0
  1  2  3  0
  2  3  1  0
  3  4  1  0
  4  5  1  0
  5  6  1  0
  6  7  1  0
  7  8  1  0
  8  9  1  0
  7  3  1  0
  1 10  1  0
  3 11  1  0
  5 12  1  0
  5 13  1  0
  6 14  1  0
  6 15  1  0
  7 16  1  0
  8 17  1  0
  8 18  1  0
  9 19  1  0
  9 20  1  0
  9 21  1  0
M  END
