
     RDKit          3D

 15 14  0  0  0  0  0  0  0  0999 V2000
   -2.0760   -1.1539    0.6254 C   0  0  0  0  0  0  0  0  0  0  0  0
   -1.1399   -0.4192    0.4304 C   0  0  0  0  0  0  0  0  0  0  0  0
    0.0014    0.5021    0.1852 C   0  0  0  0  0  0  0  0  0  0  0  0
    1.0532    0.2250    1.1936 C   0  0  0  0  0  0  0  0  0  0  0  0
    2.1862   -0.1116    0.9145 O   0  0  0  0  0  0  0  0  0  0  0  0
   -0.4788    1.8971    0.4067 C   0  0  0  0  0  0  0  0  0  0  0  0
   -0.4611    2.6655   -0.5350 O   0  0  0  0  0  0  0  0  0  0  0  0
    0.3932    0.3438   -1.1116 O   0  0  0  0  0  0  0  0  0  0  0  0
    0.8001   -0.8985   -1.4910 C   0  0  0  0  0  0  0  0  0  0  0  0
   -2.8976   -1.8016    0.8154 H   0  0  0  0  0  0  0  0  0  0  0  0
    0.7812    0.3331    2.2354 H   0  0  0  0  0  0  0  0  0  0  0  0
   -0.8396    2.2419    1.3743 H   0  0  0  0  0  0  0  0  0  0  0  0
    1.6497   -1.3406   -0.9832 H   0  0  0  0  0  0  0  0  0  0  0  0
   -0.0502   -1.6421   -1.4779 H   0  0  0  0  0  0  0  0  0  0  0  0
    1.0782   -0.8409   -2.5821 H   0  0  0  0  0  0  0  0  0  0  0  0
  1  2  3  0
  2  3  1  0
  3  4  1  0
  4  5  2  0
  3  6  1  0
  6  7  2  0
  3  8  1  0
  8  9  1  0
  1 10  1  0
  4 11  1  0
  6 12  1  0
  9 13  1  0
  9 14  1  0
  9 15  1  0
M  END
