
     RDKit          3D

 19 19  0  0  0  0  0  0  0  0999 V2000
    2.9202   -0.0157    1.5051 C   0  0  0  0  0  0  0  0  0  0  0  0
    1.7138    0.2745    1.3740 C   0  0  0  0  0  0  0  0  0  0  0  0
    0.3371    0.6287    1.2183 C   0  0  0  0  0  0  0  0  0  0  0  0
   -0.0416    0.3628   -0.2359 C   0  0  0  0  0  0  0  0  0  0  0  0
   -1.5021    0.7145   -0.5053 C   0  0  0  0  0  0  0  0  0  0  0  0
   -2.2693   -0.2007    0.3735 C   0  0  0  0  0  0  0  0  0  0  0  0
   -2.6384    0.0830    1.5009 O   0  0  0  0  0  0  0  0  0  0  0  0
    0.9049   -0.0531   -1.2544 C   0  0  0  0  0  0  0  0  0  0  0  0
    0.1472   -1.1587   -0.5610 C   0  0  0  0  0  0  0  0  0  0  0  0
    3.9705   -0.2674    1.6188 H   0  0  0  0  0  0  0  0  0  0  0  0
   -0.3434    0.0716    1.8979 H   0  0  0  0  0  0  0  0  0  0  0  0
    0.1500    1.7001    1.3949 H   0  0  0  0  0  0  0  0  0  0  0  0
   -1.7137    1.7703   -0.2284 H   0  0  0  0  0  0  0  0  0  0  0  0
   -1.7572    0.5097   -1.5540 H   0  0  0  0  0  0  0  0  0  0  0  0
   -2.4899   -1.1828   -0.0639 H   0  0  0  0  0  0  0  0  0  0  0  0
    0.6249    0.1839   -2.3142 H   0  0  0  0  0  0  0  0  0  0  0  0
    1.9839    0.0254   -0.9838 H   0  0  0  0  0  0  0  0  0  0  0  0
    0.6373   -1.7837    0.2165 H   0  0  0  0  0  0  0  0  0  0  0  0
   -0.6343   -1.6626   -1.1280 H   0  0  0  0  0  0  0  0  0  0  0  0
  1  2  3  0
  2  3  1  0
  3  4  1  0
  4  5  1  0
  5  6  1  0
  6  7  2  0
  4  8  1  0
  8  9  1  0
  9  4  1  0
  1 10  1  0
  3 11  1  0
  3 12  1  0
  5 13  1  0
  5 14  1  0
  6 15  1  0
  8 16  1  0
  8 17  1  0
  9 18  1  0
  9 19  1  0
M  END
