
     RDKit          3D

 13 12  0  0  0  0  0  0  0  0999 V2000
    1.0128    2.2179    0.3476 C   0  0  0  0  0  0  0  0  0  0  0  0
    0.6575    1.1251   -0.0200 C   0  0  0  0  0  0  0  0  0  0  0  0
    0.2293   -0.2194   -0.4476 C   0  0  0  0  0  0  0  0  0  0  0  0
    0.4762   -1.1351    0.7508 C   0  0  0  0  0  0  0  0  0  0  0  0
   -1.2421   -0.1584   -0.7298 C   0  0  0  0  0  0  0  0  0  0  0  0
    1.3155    3.1989    0.6709 H   0  0  0  0  0  0  0  0  0  0  0  0
    0.8084   -0.5998   -1.2883 H   0  0  0  0  0  0  0  0  0  0  0  0
   -0.2600   -1.9624    0.7510 H   0  0  0  0  0  0  0  0  0  0  0  0
    0.3139   -0.5344    1.6935 H   0  0  0  0  0  0  0  0  0  0  0  0
    1.4961   -1.5561    0.6997 H   0  0  0  0  0  0  0  0  0  0  0  0
   -1.7664    0.1562    0.2141 H   0  0  0  0  0  0  0  0  0  0  0  0
   -1.6355   -1.1311   -1.0975 H   0  0  0  0  0  0  0  0  0  0  0  0
   -1.4056    0.5986   -1.5443 H   0  0  0  0  0  0  0  0  0  0  0  0
  1  2  3  0
  2  3  1  0
  3  4  1  0
  3  5  1  0
  1  6  1  0
  3  7  1  0
  4  8  1  0
  4  9  1  0
  4 10  1  0
  5 11  1  0
  5 12  1  0
  5 13  1  0
M  END
