
     RDKit          3D

 19 19  0  0  0  0  0  0  0  0999 V2000
   -1.3861   -0.8967   -2.6931 C   0  0  0  0  0  0  0  0  0  0  0  0
   -1.0189   -0.4716   -1.6222 C   0  0  0  0  0  0  0  0  0  0  0  0
   -0.5498    0.0356   -0.3271 C   0  0  0  0  0  0  0  0  0  0  0  0
   -1.1910    1.3243    0.0860 C   0  0  0  0  0  0  0  0  0  0  0  0
   -0.2517   -0.9433    0.7784 C   0  0  0  0  0  0  0  0  0  0  0  0
   -0.4430   -0.5496    2.0999 O   0  0  0  0  0  0  0  0  0  0  0  0
    0.8615   -0.2691    0.0307 C   0  0  0  0  0  0  0  0  0  0  0  0
    1.6517    0.8353    0.6566 C   0  0  0  0  0  0  0  0  0  0  0  0
    1.5697   -1.0906   -0.8545 O   0  0  0  0  0  0  0  0  0  0  0  0
   -1.7164   -1.2843   -3.6255 H   0  0  0  0  0  0  0  0  0  0  0  0
   -1.8697    1.7330   -0.6808 H   0  0  0  0  0  0  0  0  0  0  0  0
   -1.8158    1.1497    0.9972 H   0  0  0  0  0  0  0  0  0  0  0  0
   -0.4716    2.1190    0.3422 H   0  0  0  0  0  0  0  0  0  0  0  0
   -0.4838   -1.9994    0.5375 H   0  0  0  0  0  0  0  0  0  0  0  0
    0.2341   -1.0078    2.6732 H   0  0  0  0  0  0  0  0  0  0  0  0
    2.7228    0.5303    0.6735 H   0  0  0  0  0  0  0  0  0  0  0  0
    1.3559    1.0387    1.6886 H   0  0  0  0  0  0  0  0  0  0  0  0
    1.5578    1.7704    0.0391 H   0  0  0  0  0  0  0  0  0  0  0  0
    1.2444   -2.0239   -0.7997 H   0  0  0  0  0  0  0  0  0  0  0  0
  1  2  3  0
  2  3  1  0
  3  4  1  0
  3  5  1  0
  5  6  1  0
  5  7  1  0
  7  8  1  0
  7  9  1  0
  7  3  1  0
  1 10  1  0
  4 11  1  0
  4 12  1  0
  4 13  1  0
  5 14  1  0
  6 15  1  0
  8 16  1  0
  8 17  1  0
  8 18  1  0
  9 19  1  0
M  END
