
     RDKit          3D

 19 19  0  0  0  0  0  0  0  0999 V2000
    2.7719    1.2086   -0.6026 C   0  0  0  0  0  0  0  0  0  0  0  0
    1.6163    0.9073   -0.7441 C   0  0  0  0  0  0  0  0  0  0  0  0
    0.1809    0.5498   -0.8989 C   0  0  0  0  0  0  0  0  0  0  0  0
    0.1392   -0.5901   -1.6335 O   0  0  0  0  0  0  0  0  0  0  0  0
    0.1469   -1.7614   -0.9012 C   0  0  0  0  0  0  0  0  0  0  0  0
   -0.9470   -1.8514    0.1007 C   0  0  0  0  0  0  0  0  0  0  0  0
   -1.0441   -0.5731    0.8465 C   0  0  0  0  0  0  0  0  0  0  0  0
   -0.5196    0.5502    0.3842 C   0  0  0  0  0  0  0  0  0  0  0  0
   -0.6480    1.8327    1.1856 C   0  0  0  0  0  0  0  0  0  0  0  0
    3.7878    1.4895   -0.4731 H   0  0  0  0  0  0  0  0  0  0  0  0
   -0.2384    1.3924   -1.5246 H   0  0  0  0  0  0  0  0  0  0  0  0
    0.1180   -2.6421   -1.5552 H   0  0  0  0  0  0  0  0  0  0  0  0
    1.1288   -1.7863   -0.3543 H   0  0  0  0  0  0  0  0  0  0  0  0
   -0.8792   -2.7292    0.7648 H   0  0  0  0  0  0  0  0  0  0  0  0
   -1.9143   -1.9330   -0.4804 H   0  0  0  0  0  0  0  0  0  0  0  0
   -1.5544   -0.5026    1.8130 H   0  0  0  0  0  0  0  0  0  0  0  0
    0.2903    2.4002    1.1687 H   0  0  0  0  0  0  0  0  0  0  0  0
   -1.0041    1.5712    2.1918 H   0  0  0  0  0  0  0  0  0  0  0  0
   -1.4310    2.4671    0.7125 H   0  0  0  0  0  0  0  0  0  0  0  0
  1  2  3  0
  2  3  1  0
  3  4  1  0
  4  5  1  0
  5  6  1  0
  6  7  1  0
  7  8  2  0
  8  9  1  0
  8  3  1  0
  1 10  1  0
  3 11  1  0
  5 12  1  0
  5 13  1  0
  6 14  1  0
  6 15  1  0
  7 16  1  0
  9 17  1  0
  9 18  1  0
  9 19  1  0
M  END
