
     RDKit          3D

 19 20  0  0  0  0  0  0  0  0999 V2000
    3.0112    0.3019    1.0156 C   0  0  0  0  0  0  0  0  0  0  0  0
    1.8848    0.4129    0.5721 C   0  0  0  0  0  0  0  0  0  0  0  0
    0.5275    0.5344    0.0190 C   0  0  0  0  0  0  0  0  0  0  0  0
   -0.5472    0.5229    1.0518 C   0  0  0  0  0  0  0  0  0  0  0  0
   -1.0143   -0.9373    1.0012 C   0  0  0  0  0  0  0  0  0  0  0  0
   -1.1918   -1.0703   -0.5184 C   0  0  0  0  0  0  0  0  0  0  0  0
    0.1300   -0.5606   -1.0098 C   0  0  0  0  0  0  0  0  0  0  0  0
    0.3146    0.8579   -1.3940 C   0  0  0  0  0  0  0  0  0  0  0  0
   -0.7316    1.6283   -1.8638 O   0  0  0  0  0  0  0  0  0  0  0  0
    3.9936    0.2161    1.3997 H   0  0  0  0  0  0  0  0  0  0  0  0
   -0.1450    0.7697    2.0546 H   0  0  0  0  0  0  0  0  0  0  0  0
   -1.4420    1.1255    0.8052 H   0  0  0  0  0  0  0  0  0  0  0  0
   -1.9621   -1.0735    1.5343 H   0  0  0  0  0  0  0  0  0  0  0  0
   -0.2144   -1.6296    1.3198 H   0  0  0  0  0  0  0  0  0  0  0  0
   -1.9922   -0.3766   -0.8029 H   0  0  0  0  0  0  0  0  0  0  0  0
   -1.3840   -2.1216   -0.8009 H   0  0  0  0  0  0  0  0  0  0  0  0
    0.9222   -1.3098   -1.2530 H   0  0  0  0  0  0  0  0  0  0  0  0
    1.2658    1.0496   -1.9725 H   0  0  0  0  0  0  0  0  0  0  0  0
   -1.4251    1.6602   -1.1581 H   0  0  0  0  0  0  0  0  0  0  0  0
  1  2  3  0
  2  3  1  0
  3  4  1  0
  4  5  1  0
  5  6  1  0
  6  7  1  0
  7  8  1  0
  8  9  1  0
  7  3  1  0
  8  3  1  0
  1 10  1  0
  4 11  1  0
  4 12  1  0
  5 13  1  0
  5 14  1  0
  6 15  1  0
  6 16  1  0
  7 17  1  0
  8 18  1  0
  9 19  1  0
M  END
