
     RDKit          3D

 19 19  0  0  0  0  0  0  0  0999 V2000
   -1.7332    1.9537    1.9265 C   0  0  0  0  0  0  0  0  0  0  0  0
   -1.1071    1.0232    1.0758 C   0  0  0  0  0  0  0  0  0  0  0  0
   -0.5289    0.1698    0.3213 C   0  0  0  0  0  0  0  0  0  0  0  0
   -1.0409   -0.1210   -1.0510 C   0  0  0  0  0  0  0  0  0  0  0  0
   -0.4504   -1.1276   -1.9069 C   0  0  0  0  0  0  0  0  0  0  0  0
    0.8880    0.9867    0.1260 C   0  0  0  0  0  0  0  0  0  0  0  0
    0.8016   -0.3326    0.8974 C   0  0  0  0  0  0  0  0  0  0  0  0
    1.8136   -1.2507    0.4894 C   0  0  0  0  0  0  0  0  0  0  0  0
    2.0618   -1.7338   -0.6254 O   0  0  0  0  0  0  0  0  0  0  0  0
   -2.2820    2.7319    2.6493 H   0  0  0  0  0  0  0  0  0  0  0  0
   -0.7812    0.8759   -1.6311 H   0  0  0  0  0  0  0  0  0  0  0  0
   -2.1251   -0.1563   -0.9899 H   0  0  0  0  0  0  0  0  0  0  0  0
   -1.1104   -1.2360   -2.8314 H   0  0  0  0  0  0  0  0  0  0  0  0
    0.4984   -0.8052   -2.4338 H   0  0  0  0  0  0  0  0  0  0  0  0
   -0.4039   -2.1430   -1.4940 H   0  0  0  0  0  0  0  0  0  0  0  0
    0.9209    1.9147    0.7092 H   0  0  0  0  0  0  0  0  0  0  0  0
    1.1192    1.0711   -0.9029 H   0  0  0  0  0  0  0  0  0  0  0  0
    0.9041   -0.1585    2.0472 H   0  0  0  0  0  0  0  0  0  0  0  0
    2.5555   -1.6624    1.1821 H   0  0  0  0  0  0  0  0  0  0  0  0
  1  2  3  0
  2  3  1  0
  3  4  1  0
  4  5  1  0
  3  6  1  0
  6  7  1  0
  7  8  1  0
  8  9  2  0
  7  3  1  0
  1 10  1  0
  4 11  1  0
  4 12  1  0
  5 13  1  0
  5 14  1  0
  5 15  1  0
  6 16  1  0
  6 17  1  0
  7 18  1  0
  8 19  1  0
M  END
