
     RDKit          3D

 17 17  0  0  0  0  0  0  0  0999 V2000
   -2.4989    2.0867    0.0593 C   0  0  0  0  0  0  0  0  0  0  0  0
   -1.6434    1.2101    0.0538 C   0  0  0  0  0  0  0  0  0  0  0  0
   -0.6173    0.1880    0.0621 C   0  0  0  0  0  0  0  0  0  0  0  0
    0.6401    0.5169    0.7760 C   0  0  0  0  0  0  0  0  0  0  0  0
    0.6402    1.3989    1.6000 O   0  0  0  0  0  0  0  0  0  0  0  0
    1.8913   -0.2235    0.4899 C   0  0  0  0  0  0  0  0  0  0  0  0
    2.8920    0.1693    1.3480 O   0  0  0  0  0  0  0  0  0  0  0  0
   -0.5470   -0.6271   -1.1937 C   0  0  0  0  0  0  0  0  0  0  0  0
   -1.0483   -1.2695    0.0487 C   0  0  0  0  0  0  0  0  0  0  0  0
   -3.2502    2.8636    0.0821 H   0  0  0  0  0  0  0  0  0  0  0  0
    1.7670   -1.3212    0.3543 H   0  0  0  0  0  0  0  0  0  0  0  0
    2.2340    0.1544   -0.5379 H   0  0  0  0  0  0  0  0  0  0  0  0
    2.9460   -0.3829    2.1707 H   0  0  0  0  0  0  0  0  0  0  0  0
   -1.3364   -0.3811   -1.9671 H   0  0  0  0  0  0  0  0  0  0  0  0
    0.4032   -0.8996   -1.6666 H   0  0  0  0  0  0  0  0  0  0  0  0
   -0.3499   -1.9969    0.5321 H   0  0  0  0  0  0  0  0  0  0  0  0
   -2.1223   -1.4862    0.2152 H   0  0  0  0  0  0  0  0  0  0  0  0
  1  2  3  0
  2  3  1  0
  3  4  1  0
  4  5  2  0
  4  6  1  0
  6  7  1  0
  3  8  1  0
  8  9  1  0
  9  3  1  0
  1 10  1  0
  6 11  1  0
  6 12  1  0
  7 13  1  0
  8 14  1  0
  8 15  1  0
  9 16  1  0
  9 17  1  0
M  END
