
     RDKit          3D

 17 18  0  0  0  0  0  0  0  0999 V2000
    2.3300    1.3558   -0.4533 C   0  0  0  0  0  0  0  0  0  0  0  0
    1.6954    0.4060   -0.0015 C   0  0  0  0  0  0  0  0  0  0  0  0
    0.9379   -0.7340    0.5584 C   0  0  0  0  0  0  0  0  0  0  0  0
    0.1200   -1.4104   -0.4730 C   0  0  0  0  0  0  0  0  0  0  0  0
   -0.6304   -0.4213   -1.0875 O   0  0  0  0  0  0  0  0  0  0  0  0
   -1.4073    0.3462   -0.2751 C   0  0  0  0  0  0  0  0  0  0  0  0
   -0.7005    0.8358    1.0005 C   0  0  0  0  0  0  0  0  0  0  0  0
   -0.1538   -0.3864    1.6084 C   0  0  0  0  0  0  0  0  0  0  0  0
    1.0420   -0.8530    1.8553 O   0  0  0  0  0  0  0  0  0  0  0  0
    2.8784    2.1618   -0.8565 H   0  0  0  0  0  0  0  0  0  0  0  0
    0.7834   -1.8427   -1.2499 H   0  0  0  0  0  0  0  0  0  0  0  0
   -0.5019   -2.2219   -0.0463 H   0  0  0  0  0  0  0  0  0  0  0  0
   -2.2814   -0.2416    0.0813 H   0  0  0  0  0  0  0  0  0  0  0  0
   -1.7768    1.2061   -0.8658 H   0  0  0  0  0  0  0  0  0  0  0  0
   -1.4464    1.3814    1.5846 H   0  0  0  0  0  0  0  0  0  0  0  0
    0.0738    1.5798    0.6956 H   0  0  0  0  0  0  0  0  0  0  0  0
   -0.9626   -1.1615    1.7711 H   0  0  0  0  0  0  0  0  0  0  0  0
  1  2  3  0
  2  3  1  0
  3  4  1  0
  4  5  1  0
  5  6  1  0
  6  7  1  0
  7  8  1  0
  8  9  1  0
  8  3  1  0
  9  3  1  0
  1 10  1  0
  4 11  1  0
  4 12  1  0
  6 13  1  0
  6 14  1  0
  7 15  1  0
  7 16  1  0
  8 17  1  0
M  END
