
     RDKit          3D

 17 17  0  0  0  0  0  0  0  0999 V2000
    2.2921    0.5551   -1.9071 C   0  0  0  0  0  0  0  0  0  0  0  0
    1.6819    0.4197   -0.8573 C   0  0  0  0  0  0  0  0  0  0  0  0
    0.9306    0.2656    0.3930 C   0  0  0  0  0  0  0  0  0  0  0  0
    1.6183   -0.6776    1.3219 C   0  0  0  0  0  0  0  0  0  0  0  0
    1.6257   -1.8468    1.0335 O   0  0  0  0  0  0  0  0  0  0  0  0
   -0.3964   -0.3618    0.0343 C   0  0  0  0  0  0  0  0  0  0  0  0
   -1.2456    0.4203   -0.9154 C   0  0  0  0  0  0  0  0  0  0  0  0
   -2.3098   -0.0528    0.0546 C   0  0  0  0  0  0  0  0  0  0  0  0
   -1.3224   -0.1089    1.0391 O   0  0  0  0  0  0  0  0  0  0  0  0
    2.8242    0.6791   -2.8161 H   0  0  0  0  0  0  0  0  0  0  0  0
    0.8128    1.2609    0.8553 H   0  0  0  0  0  0  0  0  0  0  0  0
    2.1096   -0.3343    2.2475 H   0  0  0  0  0  0  0  0  0  0  0  0
   -0.2908   -1.3978   -0.2872 H   0  0  0  0  0  0  0  0  0  0  0  0
   -1.4072   -0.0067   -1.9163 H   0  0  0  0  0  0  0  0  0  0  0  0
   -1.1499    1.5148   -0.8770 H   0  0  0  0  0  0  0  0  0  0  0  0
   -3.0765    0.7340    0.2102 H   0  0  0  0  0  0  0  0  0  0  0  0
   -2.6966   -1.0630   -0.1386 H   0  0  0  0  0  0  0  0  0  0  0  0
  1  2  3  0
  2  3  1  0
  3  4  1  0
  4  5  2  0
  3  6  1  0
  6  7  1  0
  7  8  1  0
  8  9  1  0
  9  6  1  0
  1 10  1  0
  3 11  1  0
  4 12  1  0
  6 13  1  0
  7 14  1  0
  7 15  1  0
  8 16  1  0
  8 17  1  0
M  END
