
     RDKit          3D

 21 21  0  0  0  0  0  0  0  0999 V2000
    3.5800    1.2802    1.0755 C   0  0  0  0  0  0  0  0  0  0  0  0
    2.5146    1.1492    0.7707 C   0  0  0  0  0  0  0  0  0  0  0  0
    1.1013    0.9745    0.3424 C   0  0  0  0  0  0  0  0  0  0  0  0
    0.7727   -0.3689    0.1124 C   0  0  0  0  0  0  0  0  0  0  0  0
   -0.6494   -0.5576   -0.2077 C   0  0  0  0  0  0  0  0  0  0  0  0
   -1.0328   -1.7329    0.7281 C   0  0  0  0  0  0  0  0  0  0  0  0
   -1.0239   -0.8435   -1.6115 C   0  0  0  0  0  0  0  0  0  0  0  0
   -1.2222    0.7403    0.3681 C   0  0  0  0  0  0  0  0  0  0  0  0
   -0.0562    1.7524    0.0999 C   0  0  0  0  0  0  0  0  0  0  0  0
    4.7148    1.4405    1.4039 H   0  0  0  0  0  0  0  0  0  0  0  0
    1.4639   -1.1622    0.0995 H   0  0  0  0  0  0  0  0  0  0  0  0
   -1.5512   -2.5439    0.2341 H   0  0  0  0  0  0  0  0  0  0  0  0
   -1.4777   -1.4401    1.6834 H   0  0  0  0  0  0  0  0  0  0  0  0
   -0.0521   -2.2491    1.0494 H   0  0  0  0  0  0  0  0  0  0  0  0
   -0.1608   -0.5449   -2.2562 H   0  0  0  0  0  0  0  0  0  0  0  0
   -1.0595   -1.9888   -1.6852 H   0  0  0  0  0  0  0  0  0  0  0  0
   -1.9843   -0.4048   -1.8723 H   0  0  0  0  0  0  0  0  0  0  0  0
   -1.2846    0.6860    1.4451 H   0  0  0  0  0  0  0  0  0  0  0  0
   -2.1511    1.0533   -0.1060 H   0  0  0  0  0  0  0  0  0  0  0  0
   -0.2002    2.5895    0.8520 H   0  0  0  0  0  0  0  0  0  0  0  0
   -0.2415    2.1708   -0.9035 H   0  0  0  0  0  0  0  0  0  0  0  0
  1  2  3  0
  2  3  1  0
  3  4  2  0
  4  5  1  0
  5  6  1  0
  5  7  1  0
  5  8  1  0
  8  9  1  0
  9  3  1  0
  1 10  1  0
  4 11  1  0
  6 12  1  0
  6 13  1  0
  6 14  1  0
  7 15  1  0
  7 16  1  0
  7 17  1  0
  8 18  1  0
  8 19  1  0
  9 20  1  0
  9 21  1  0
M  END
