
     RDKit          3D

 17 18  0  0  0  0  0  0  0  0999 V2000
    2.1838   -1.4452    0.6388 C   0  0  0  0  0  0  0  0  0  0  0  0
    1.3169   -0.8871    0.0136 C   0  0  0  0  0  0  0  0  0  0  0  0
    0.2574   -0.2250   -0.7220 C   0  0  0  0  0  0  0  0  0  0  0  0
    0.2783   -0.3791   -2.0786 O   0  0  0  0  0  0  0  0  0  0  0  0
   -1.1283   -0.3333   -0.0718 C   0  0  0  0  0  0  0  0  0  0  0  0
   -0.7908   -0.0416    1.3420 C   0  0  0  0  0  0  0  0  0  0  0  0
    0.0668    0.9898    1.2280 C   0  0  0  0  0  0  0  0  0  0  0  0
    0.1262    1.2138   -0.2217 C   0  0  0  0  0  0  0  0  0  0  0  0
   -1.3527    1.0609   -0.6046 C   0  0  0  0  0  0  0  0  0  0  0  0
    2.9469   -1.9580    1.2026 H   0  0  0  0  0  0  0  0  0  0  0  0
    1.2000   -0.5880   -2.3559 H   0  0  0  0  0  0  0  0  0  0  0  0
   -1.7558   -1.1266   -0.3385 H   0  0  0  0  0  0  0  0  0  0  0  0
   -1.1515   -0.5413    2.2318 H   0  0  0  0  0  0  0  0  0  0  0  0
    0.5894    1.5286    2.0079 H   0  0  0  0  0  0  0  0  0  0  0  0
    0.6923    1.9706   -0.6649 H   0  0  0  0  0  0  0  0  0  0  0  0
   -1.9592    1.6629    0.0723 H   0  0  0  0  0  0  0  0  0  0  0  0
   -1.5195    1.1474   -1.6791 H   0  0  0  0  0  0  0  0  0  0  0  0
  1  2  3  0
  2  3  1  0
  3  4  1  0
  3  5  1  0
  5  6  1  0
  6  7  2  0
  7  8  1  0
  8  9  1  0
  8  3  1  0
  9  5  1  0
  1 10  1  0
  4 11  1  0
  5 12  1  0
  6 13  1  0
  7 14  1  0
  8 15  1  0
  9 16  1  0
  9 17  1  0
M  END
