
     RDKit          3D

 14 14  0  0  0  0  0  0  0  0999 V2000
    3.8773   -0.6432   -0.6819 C   0  0  0  0  0  0  0  0  0  0  0  0
    2.7447   -0.7271   -0.2466 C   0  0  0  0  0  0  0  0  0  0  0  0
    1.4224   -0.8070    0.2793 C   0  0  0  0  0  0  0  0  0  0  0  0
    1.0842   -1.6278    1.1912 O   0  0  0  0  0  0  0  0  0  0  0  0
    0.3950    0.0219   -0.1776 O   0  0  0  0  0  0  0  0  0  0  0  0
   -0.9253   -0.0380    0.3233 C   0  0  0  0  0  0  0  0  0  0  0  0
   -1.6920    1.2106    0.6024 C   0  0  0  0  0  0  0  0  0  0  0  0
   -2.0858    0.2773   -0.5114 C   0  0  0  0  0  0  0  0  0  0  0  0
    4.8839   -0.5619   -1.0740 H   0  0  0  0  0  0  0  0  0  0  0  0
   -1.0526   -0.8194    1.1090 H   0  0  0  0  0  0  0  0  0  0  0  0
   -2.3515    1.2508    1.5178 H   0  0  0  0  0  0  0  0  0  0  0  0
   -1.3653    2.2031    0.2798 H   0  0  0  0  0  0  0  0  0  0  0  0
   -3.0157   -0.3297   -0.3901 H   0  0  0  0  0  0  0  0  0  0  0  0
   -1.9192    0.5904   -1.5646 H   0  0  0  0  0  0  0  0  0  0  0  0
  1  2  3  0
  2  3  1  0
  3  4  2  0
  3  5  1  0
  5  6  1  0
  6  7  1  0
  7  8  1  0
  8  6  1  0
  1  9  1  0
  6 10  1  0
  7 11  1  0
  7 12  1  0
  8 13  1  0
  8 14  1  0
M  END
