
     RDKit          3D

 21 21  0  0  0  0  0  0  0  0999 V2000
    3.4879    0.0692   -0.2813 C   0  0  0  0  0  0  0  0  0  0  0  0
    2.3416    0.4812   -0.3235 C   0  0  0  0  0  0  0  0  0  0  0  0
    0.9660    0.9840   -0.3676 C   0  0  0  0  0  0  0  0  0  0  0  0
    0.1561    0.3268    0.7118 C   0  0  0  0  0  0  0  0  0  0  0  0
    0.0720   -1.1550    0.6159 C   0  0  0  0  0  0  0  0  0  0  0  0
   -0.5333   -1.6959   -0.6339 C   0  0  0  0  0  0  0  0  0  0  0  0
   -1.2219    0.9326    0.8033 C   0  0  0  0  0  0  0  0  0  0  0  0
   -2.1486    0.9340   -0.2745 C   0  0  0  0  0  0  0  0  0  0  0  0
   -1.3623    2.1050    0.0528 O   0  0  0  0  0  0  0  0  0  0  0  0
    4.4910   -0.2818   -0.2548 H   0  0  0  0  0  0  0  0  0  0  0  0
    0.9503    2.0772   -0.1688 H   0  0  0  0  0  0  0  0  0  0  0  0
    0.5169    0.8564   -1.3773 H   0  0  0  0  0  0  0  0  0  0  0  0
    0.6959    0.5653    1.6738 H   0  0  0  0  0  0  0  0  0  0  0  0
   -0.5697   -1.4990    1.4697 H   0  0  0  0  0  0  0  0  0  0  0  0
    1.0752   -1.6264    0.8219 H   0  0  0  0  0  0  0  0  0  0  0  0
   -1.6350   -1.7559   -0.6280 H   0  0  0  0  0  0  0  0  0  0  0  0
   -0.1677   -2.7514   -0.7921 H   0  0  0  0  0  0  0  0  0  0  0  0
   -0.2488   -1.1189   -1.5549 H   0  0  0  0  0  0  0  0  0  0  0  0
   -1.6517    0.9831    1.8500 H   0  0  0  0  0  0  0  0  0  0  0  0
   -3.2477    1.0492   -0.0637 H   0  0  0  0  0  0  0  0  0  0  0  0
   -1.9660    0.5201   -1.2786 H   0  0  0  0  0  0  0  0  0  0  0  0
  1  2  3  0
  2  3  1  0
  3  4  1  0
  4  5  1  0
  5  6  1  0
  4  7  1  0
  7  8  1  0
  8  9  1  0
  9  7  1  0
  1 10  1  0
  3 11  1  0
  3 12  1  0
  4 13  1  0
  5 14  1  0
  5 15  1  0
  6 16  1  0
  6 17  1  0
  6 18  1  0
  7 19  1  0
  8 20  1  0
  8 21  1  0
M  END
