
     RDKit          3D

 21 21  0  0  0  0  0  0  0  0999 V2000
    1.9142    1.9551    1.4043 C   0  0  0  0  0  0  0  0  0  0  0  0
    1.1937    1.4342    0.5683 C   0  0  0  0  0  0  0  0  0  0  0  0
    0.3081    0.8241   -0.4314 C   0  0  0  0  0  0  0  0  0  0  0  0
   -0.1768   -0.5545   -0.0148 C   0  0  0  0  0  0  0  0  0  0  0  0
   -0.9301   -0.3963    1.2745 C   0  0  0  0  0  0  0  0  0  0  0  0
   -1.0747   -1.1746   -1.0554 C   0  0  0  0  0  0  0  0  0  0  0  0
    1.0584   -1.3968    0.2241 C   0  0  0  0  0  0  0  0  0  0  0  0
   -0.5019    1.6894   -1.2635 C   0  0  0  0  0  0  0  0  0  0  0  0
    0.7027    1.0104   -1.7598 O   0  0  0  0  0  0  0  0  0  0  0  0
    2.5461    2.3905    2.1347 H   0  0  0  0  0  0  0  0  0  0  0  0
   -1.6109    0.4727    1.2242 H   0  0  0  0  0  0  0  0  0  0  0  0
   -0.2222   -0.2240    2.1319 H   0  0  0  0  0  0  0  0  0  0  0  0
   -1.5302   -1.2872    1.5347 H   0  0  0  0  0  0  0  0  0  0  0  0
   -0.5835   -1.2334   -2.0385 H   0  0  0  0  0  0  0  0  0  0  0  0
   -2.0332   -0.6503   -1.0660 H   0  0  0  0  0  0  0  0  0  0  0  0
   -1.2649   -2.2196   -0.7334 H   0  0  0  0  0  0  0  0  0  0  0  0
    0.8336   -2.0549    1.0940 H   0  0  0  0  0  0  0  0  0  0  0  0
    1.2460   -1.9723   -0.6920 H   0  0  0  0  0  0  0  0  0  0  0  0
    1.9359   -0.7326    0.4541 H   0  0  0  0  0  0  0  0  0  0  0  0
   -1.4302    1.3449   -1.7564 H   0  0  0  0  0  0  0  0  0  0  0  0
   -0.3803    2.7752   -1.2337 H   0  0  0  0  0  0  0  0  0  0  0  0
  1  2  3  0
  2  3  1  0
  3  4  1  0
  4  5  1  0
  4  6  1  0
  4  7  1  0
  3  8  1  0
  8  9  1  0
  9  3  1  0
  1 10  1  0
  5 11  1  0
  5 12  1  0
  5 13  1  0
  6 14  1  0
  6 15  1  0
  6 16  1  0
  7 17  1  0
  7 18  1  0
  7 19  1  0
  8 20  1  0
  8 21  1  0
M  END
