
     RDKit          3D

 23 22  0  0  0  0  0  0  0  0999 V2000
    2.4673   -1.5623   -1.0754 C   0  0  0  0  0  0  0  0  0  0  0  0
    1.8386   -1.1195   -0.1214 C   0  0  0  0  0  0  0  0  0  0  0  0
    1.1091   -0.5758    1.0184 C   0  0  0  0  0  0  0  0  0  0  0  0
    1.6892    0.5605    1.5442 O   0  0  0  0  0  0  0  0  0  0  0  0
   -0.3289   -0.3718    0.5924 C   0  0  0  0  0  0  0  0  0  0  0  0
   -0.8643   -1.7225    0.1893 C   0  0  0  0  0  0  0  0  0  0  0  0
   -0.4085    0.6426   -0.5107 C   0  0  0  0  0  0  0  0  0  0  0  0
    0.1502    1.9632   -0.0356 C   0  0  0  0  0  0  0  0  0  0  0  0
   -1.7820    0.8766   -1.0364 C   0  0  0  0  0  0  0  0  0  0  0  0
    3.0148   -1.9483   -1.8820 H   0  0  0  0  0  0  0  0  0  0  0  0
    1.0702   -1.4066    1.7800 H   0  0  0  0  0  0  0  0  0  0  0  0
    1.3569    0.7344    2.4435 H   0  0  0  0  0  0  0  0  0  0  0  0
   -0.8849    0.0247    1.4662 H   0  0  0  0  0  0  0  0  0  0  0  0
   -0.0620   -2.4134   -0.1520 H   0  0  0  0  0  0  0  0  0  0  0  0
   -1.3394   -2.2100    1.0664 H   0  0  0  0  0  0  0  0  0  0  0  0
   -1.5932   -1.6651   -0.6371 H   0  0  0  0  0  0  0  0  0  0  0  0
    0.2276    0.3164   -1.3835 H   0  0  0  0  0  0  0  0  0  0  0  0
   -0.1137    2.0840    1.0493 H   0  0  0  0  0  0  0  0  0  0  0  0
    1.2454    2.0416   -0.1987 H   0  0  0  0  0  0  0  0  0  0  0  0
   -0.3984    2.7652   -0.5652 H   0  0  0  0  0  0  0  0  0  0  0  0
   -2.5150    0.9144   -0.2082 H   0  0  0  0  0  0  0  0  0  0  0  0
   -1.7978    1.8949   -1.4995 H   0  0  0  0  0  0  0  0  0  0  0  0
   -2.0812    0.1765   -1.8438 H   0  0  0  0  0  0  0  0  0  0  0  0
  1  2  3  0
  2  3  1  0
  3  4  1  0
  3  5  1  0
  5  6  1  0
  5  7  1  0
  7  8  1  0
  7  9  1  0
  1 10  1  0
  3 11  1  0
  4 12  1  0
  5 13  1  0
  6 14  1  0
  6 15  1  0
  6 16  1  0
  7 17  1  0
  8 18  1  0
  8 19  1  0
  8 20  1  0
  9 21  1  0
  9 22  1  0
  9 23  1  0
M  END
