
     RDKit          3D

 17 17  0  0  0  0  0  0  0  0999 V2000
    4.6633   -0.8558   -1.5796 C   0  0  0  0  0  0  0  0  0  0  0  0
    3.6259   -0.7482   -1.2154 C   0  0  0  0  0  0  0  0  0  0  0  0
    2.4751   -0.6416   -0.7933 C   0  0  0  0  0  0  0  0  0  0  0  0
    0.9152   -0.4813   -0.2333 C   0  0  0  0  0  0  0  0  0  0  0  0
   -0.2229   -0.3464    0.1640 C   0  0  0  0  0  0  0  0  0  0  0  0
   -0.8504   -1.4315    0.8752 O   0  0  0  0  0  0  0  0  0  0  0  0
   -1.1852    0.2354   -1.0017 C   0  0  0  0  0  0  0  0  0  0  0  0
   -0.9929    0.9478    0.2871 C   0  0  0  0  0  0  0  0  0  0  0  0
   -2.2164    1.0087    1.1320 C   0  0  0  0  0  0  0  0  0  0  0  0
    5.8624   -0.9966   -2.0074 H   0  0  0  0  0  0  0  0  0  0  0  0
   -1.4620   -1.9080    0.3081 H   0  0  0  0  0  0  0  0  0  0  0  0
   -0.5411    0.6299   -1.8525 H   0  0  0  0  0  0  0  0  0  0  0  0
   -1.9452   -0.4695   -1.2970 H   0  0  0  0  0  0  0  0  0  0  0  0
   -0.3797    1.8557    0.2821 H   0  0  0  0  0  0  0  0  0  0  0  0
   -2.1172    1.8173    1.9478 H   0  0  0  0  0  0  0  0  0  0  0  0
   -2.5805    0.0069    1.5703 H   0  0  0  0  0  0  0  0  0  0  0  0
   -3.0485    1.3772    0.5471 H   0  0  0  0  0  0  0  0  0  0  0  0
  1  2  3  0
  2  3  1  0
  3  4  3  0
  4  5  1  0
  5  6  1  0
  5  7  1  0
  7  8  1  0
  8  9  1  0
  8  5  1  0
  1 10  1  0
  6 11  1  0
  7 12  1  0
  7 13  1  0
  8 14  1  0
  9 15  1  0
  9 16  1  0
  9 17  1  0
M  END
