
     RDKit          3D

 19 20  0  0  0  0  0  0  0  0999 V2000
   -1.2269    2.6569   -0.4979 C   0  0  0  0  0  0  0  0  0  0  0  0
   -0.6558    1.6334   -0.2029 C   0  0  0  0  0  0  0  0  0  0  0  0
    0.0580    0.4061    0.1538 C   0  0  0  0  0  0  0  0  0  0  0  0
    1.5354    0.7332    0.3516 C   0  0  0  0  0  0  0  0  0  0  0  0
    1.9858    1.2484   -0.8670 O   0  0  0  0  0  0  0  0  0  0  0  0
   -0.5529   -0.3527    1.3095 C   0  0  0  0  0  0  0  0  0  0  0  0
   -0.4146   -1.5981    0.5054 C   0  0  0  0  0  0  0  0  0  0  0  0
   -1.2564   -1.6645   -0.7193 C   0  0  0  0  0  0  0  0  0  0  0  0
   -0.1128   -0.7406   -0.7650 C   0  0  0  0  0  0  0  0  0  0  0  0
   -1.7176    3.5746   -0.7615 H   0  0  0  0  0  0  0  0  0  0  0  0
    1.6827    1.4365    1.1874 H   0  0  0  0  0  0  0  0  0  0  0  0
    2.0432   -0.2253    0.5552 H   0  0  0  0  0  0  0  0  0  0  0  0
    2.5731    0.6081   -1.3407 H   0  0  0  0  0  0  0  0  0  0  0  0
   -1.6113   -0.1121    1.4905 H   0  0  0  0  0  0  0  0  0  0  0  0
    0.0329   -0.3408    2.2462 H   0  0  0  0  0  0  0  0  0  0  0  0
    0.3332   -2.3559    0.7130 H   0  0  0  0  0  0  0  0  0  0  0  0
   -1.1794   -2.6121   -1.2704 H   0  0  0  0  0  0  0  0  0  0  0  0
   -2.2792   -1.2321   -0.7208 H   0  0  0  0  0  0  0  0  0  0  0  0
    0.7627   -1.0630   -1.3670 H   0  0  0  0  0  0  0  0  0  0  0  0
  1  2  3  0
  2  3  1  0
  3  4  1  0
  4  5  1  0
  3  6  1  0
  6  7  1  0
  7  8  1  0
  8  9  1  0
  9  3  1  0
  9  7  1  0
  1 10  1  0
  4 11  1  0
  4 12  1  0
  5 13  1  0
  6 14  1  0
  6 15  1  0
  7 16  1  0
  8 17  1  0
  8 18  1  0
  9 19  1  0
M  END
