
     RDKit          3D

 16 15  0  0  0  0  0  0  0  0999 V2000
    4.8359   -0.5514   -0.3629 C   0  0  0  0  0  0  0  0  0  0  0  0
    3.8488   -0.4644   -0.3140 C   0  0  0  0  0  0  0  0  0  0  0  0
    2.1039   -0.3072   -0.2568 C   0  0  0  0  0  0  0  0  0  0  0  0
    0.9872   -0.2085   -0.2012 C   0  0  0  0  0  0  0  0  0  0  0  0
   -0.1722   -0.1075   -0.1562 C   0  0  0  0  0  0  0  0  0  0  0  0
   -1.4611   -0.8532   -0.0962 C   0  0  0  0  0  0  0  0  0  0  0  0
   -2.5445    0.3249   -0.0629 C   0  0  0  0  0  0  0  0  0  0  0  0
   -1.6459   -1.3013    1.2737 O   0  0  0  0  0  0  0  0  0  0  0  0
    5.6570   -0.6104   -0.3996 H   0  0  0  0  0  0  0  0  0  0  0  0
   -0.5032    0.9614   -0.7965 H   0  0  0  0  0  0  0  0  0  0  0  0
   -0.3633    0.6454    0.9041 H   0  0  0  0  0  0  0  0  0  0  0  0
   -1.7358   -1.4789   -0.8720 H   0  0  0  0  0  0  0  0  0  0  0  0
   -3.3184    0.1109    0.5993 H   0  0  0  0  0  0  0  0  0  0  0  0
   -2.9142    0.4755   -1.1294 H   0  0  0  0  0  0  0  0  0  0  0  0
   -1.9575    1.2694    0.1666 H   0  0  0  0  0  0  0  0  0  0  0  0
   -0.8168   -0.8868    1.7039 H   0  0  0  0  0  0  0  0  0  0  0  0
  1  2  3  0
  2  3  1  0
  3  4  3  0
  4  5  1  0
  5  6  1  0
  6  7  1  0
  6  8  1  0
  1  9  1  0
  5 10  1  0
  5 11  1  0
  6 12  1  0
  7 13  1  0
  7 14  1  0
  7 15  1  0
  8 16  1  0
M  END
