
     RDKit          3D

 23 22  0  0  0  0  0  0  0  0999 V2000
   -1.0977    1.1239    3.0592 C   0  0  0  0  0  0  0  0  0  0  0  0
   -0.2960    0.2199    2.0572 C   0  0  0  0  0  0  0  0  0  0  0  0
    0.3262   -0.5034    1.2453 C   0  0  0  0  0  0  0  0  0  0  0  0
   -1.2116   -0.6332    0.2341 C   0  0  0  0  0  0  0  0  0  0  0  0
    0.1799   -1.9825    1.5686 C   0  0  0  0  0  0  0  0  0  0  0  0
    1.1677   -0.1055    0.1331 C   0  0  0  0  0  0  0  0  0  0  0  0
    0.4094    0.6563   -0.9468 C   0  0  0  0  0  0  0  0  0  0  0  0
    1.3599    0.8921   -1.9845 O   0  0  0  0  0  0  0  0  0  0  0  0
    0.5973    1.5132   -3.0167 C   0  0  0  0  0  0  0  0  0  0  0  0
   -1.6978    1.8068    3.8397 H   0  0  0  0  0  0  0  0  0  0  0  0
   -1.4334    0.3902    0.1442 H   0  0  0  0  0  0  0  0  0  0  0  0
   -1.7690   -1.1605    0.9879 H   0  0  0  0  0  0  0  0  0  0  0  0
   -0.8124   -1.2432   -0.5002 H   0  0  0  0  0  0  0  0  0  0  0  0
   -0.9654   -2.1402    1.9529 H   0  0  0  0  0  0  0  0  0  0  0  0
    0.8318   -2.3965    2.3046 H   0  0  0  0  0  0  0  0  0  0  0  0
    0.1707   -2.5749    0.6442 H   0  0  0  0  0  0  0  0  0  0  0  0
    1.7263   -0.9034   -0.3301 H   0  0  0  0  0  0  0  0  0  0  0  0
    1.8719    0.6955    0.5577 H   0  0  0  0  0  0  0  0  0  0  0  0
    0.1780    1.7168   -0.5995 H   0  0  0  0  0  0  0  0  0  0  0  0
   -0.3683    0.0933   -1.4615 H   0  0  0  0  0  0  0  0  0  0  0  0
   -0.3848    0.8312   -2.9868 H   0  0  0  0  0  0  0  0  0  0  0  0
    0.2951    2.5174   -2.8542 H   0  0  0  0  0  0  0  0  0  0  0  0
    0.9222    1.1866   -4.0486 H   0  0  0  0  0  0  0  0  0  0  0  0
  1  2  3  0
  2  3  1  0
  3  4  1  0
  3  5  1  0
  3  6  1  0
  6  7  1  0
  7  8  1  0
  8  9  1  0
  1 10  1  0
  4 11  1  0
  4 12  1  0
  4 13  1  0
  5 14  1  0
  5 15  1  0
  5 16  1  0
  6 17  1  0
  6 18  1  0
  7 19  1  0
  7 20  1  0
  9 21  1  0
  9 22  1  0
  9 23  1  0
M  END
