
     RDKit          3D

 19 19  0  0  0  0  0  0  0  0999 V2000
   -2.9029    0.9263    0.7390 C   0  0  0  0  0  0  0  0  0  0  0  0
   -1.9499    0.4477    0.1698 C   0  0  0  0  0  0  0  0  0  0  0  0
   -0.8015   -0.1556   -0.5143 C   0  0  0  0  0  0  0  0  0  0  0  0
   -0.7989   -1.6558   -0.2919 C   0  0  0  0  0  0  0  0  0  0  0  0
   -0.0062   -1.8886    0.9280 C   0  0  0  0  0  0  0  0  0  0  0  0
    0.7211   -0.8241    1.2027 C   0  0  0  0  0  0  0  0  0  0  0  0
    0.4845    0.2286    0.1888 C   0  0  0  0  0  0  0  0  0  0  0  0
    1.5606    0.3061   -0.6572 O   0  0  0  0  0  0  0  0  0  0  0  0
    2.0592    1.6028   -0.6426 C   0  0  0  0  0  0  0  0  0  0  0  0
   -3.7407    1.3437    1.2594 H   0  0  0  0  0  0  0  0  0  0  0  0
   -0.7789    0.1082   -1.5869 H   0  0  0  0  0  0  0  0  0  0  0  0
   -1.8231   -2.0223   -0.1313 H   0  0  0  0  0  0  0  0  0  0  0  0
   -0.2895   -2.1461   -1.1408 H   0  0  0  0  0  0  0  0  0  0  0  0
    0.0038   -2.7940    1.5404 H   0  0  0  0  0  0  0  0  0  0  0  0
    1.4157   -0.6577    2.0270 H   0  0  0  0  0  0  0  0  0  0  0  0
    0.3205    1.2239    0.6425 H   0  0  0  0  0  0  0  0  0  0  0  0
    2.3869    1.8986    0.3832 H   0  0  0  0  0  0  0  0  0  0  0  0
    2.8887    1.7391   -1.3682 H   0  0  0  0  0  0  0  0  0  0  0  0
    1.2507    2.3194   -0.9233 H   0  0  0  0  0  0  0  0  0  0  0  0
  1  2  3  0
  2  3  1  0
  3  4  1  0
  4  5  1  0
  5  6  2  0
  6  7  1  0
  7  8  1  0
  8  9  1  0
  7  3  1  0
  1 10  1  0
  3 11  1  0
  4 12  1  0
  4 13  1  0
  5 14  1  0
  6 15  1  0
  7 16  1  0
  9 17  1  0
  9 18  1  0
  9 19  1  0
M  END
