
     RDKit          3D

 17 19  0  0  0  0  0  0  0  0999 V2000
    1.7149   -0.8287    2.8221 C   0  0  0  0  0  0  0  0  0  0  0  0
    1.1742   -0.4677    1.7973 C   0  0  0  0  0  0  0  0  0  0  0  0
    0.5251   -0.0237    0.6014 C   0  0  0  0  0  0  0  0  0  0  0  0
    0.6097    1.3951    0.1692 C   0  0  0  0  0  0  0  0  0  0  0  0
   -0.3875    1.6475   -0.6650 C   0  0  0  0  0  0  0  0  0  0  0  0
   -1.2222    0.4391   -0.8677 C   0  0  0  0  0  0  0  0  0  0  0  0
   -0.4848   -0.5777   -1.7264 C   0  0  0  0  0  0  0  0  0  0  0  0
    0.2344   -1.0186   -0.4581 C   0  0  0  0  0  0  0  0  0  0  0  0
   -0.8500   -0.3922    0.3200 C   0  0  0  0  0  0  0  0  0  0  0  0
    2.2121   -1.1454    3.7251 H   0  0  0  0  0  0  0  0  0  0  0  0
    1.3521    2.1133    0.4748 H   0  0  0  0  0  0  0  0  0  0  0  0
   -0.5572    2.6100   -1.1292 H   0  0  0  0  0  0  0  0  0  0  0  0
   -2.2712    0.5862   -1.0852 H   0  0  0  0  0  0  0  0  0  0  0  0
   -1.2043   -1.3474   -2.1128 H   0  0  0  0  0  0  0  0  0  0  0  0
    0.1159   -0.0532   -2.4691 H   0  0  0  0  0  0  0  0  0  0  0  0
    0.5894   -2.0387   -0.3444 H   0  0  0  0  0  0  0  0  0  0  0  0
   -1.5507   -0.8978    0.9479 H   0  0  0  0  0  0  0  0  0  0  0  0
  1  2  3  0
  2  3  1  0
  3  4  1  0
  4  5  2  0
  5  6  1  0
  6  7  1  0
  7  8  1  0
  8  9  1  0
  8  3  1  0
  9  3  1  0
  9  6  1  0
  1 10  1  0
  4 11  1  0
  5 12  1  0
  6 13  1  0
  7 14  1  0
  7 15  1  0
  8 16  1  0
  9 17  1  0
M  END
