
     RDKit          3D

 21 21  0  0  0  0  0  0  0  0999 V2000
    3.3022   -0.7278    0.0762 C   0  0  0  0  0  0  0  0  0  0  0  0
    2.0950   -0.6777    0.1711 C   0  0  0  0  0  0  0  0  0  0  0  0
    0.6669   -0.6408    0.2913 C   0  0  0  0  0  0  0  0  0  0  0  0
   -0.0513   -1.5478    0.8985 C   0  0  0  0  0  0  0  0  0  0  0  0
   -1.5070   -1.1922    0.8320 C   0  0  0  0  0  0  0  0  0  0  0  0
   -1.5522   -0.2415   -0.3563 C   0  0  0  0  0  0  0  0  0  0  0  0
   -0.2054    0.4141   -0.2366 C   0  0  0  0  0  0  0  0  0  0  0  0
    0.3463    0.8058   -1.5969 C   0  0  0  0  0  0  0  0  0  0  0  0
   -0.2758    1.6225    0.6732 C   0  0  0  0  0  0  0  0  0  0  0  0
    4.3632   -0.7586   -0.0063 H   0  0  0  0  0  0  0  0  0  0  0  0
    0.2556   -2.4608    1.4081 H   0  0  0  0  0  0  0  0  0  0  0  0
   -2.1258   -2.0644    0.6225 H   0  0  0  0  0  0  0  0  0  0  0  0
   -1.8160   -0.6950    1.7685 H   0  0  0  0  0  0  0  0  0  0  0  0
   -1.7298   -0.7490   -1.3051 H   0  0  0  0  0  0  0  0  0  0  0  0
   -2.3452    0.5023   -0.1388 H   0  0  0  0  0  0  0  0  0  0  0  0
    1.4083    1.0801   -1.4552 H   0  0  0  0  0  0  0  0  0  0  0  0
    0.3349   -0.1146   -2.2117 H   0  0  0  0  0  0  0  0  0  0  0  0
   -0.2257    1.6346   -2.0470 H   0  0  0  0  0  0  0  0  0  0  0  0
    0.3132    2.4728    0.2245 H   0  0  0  0  0  0  0  0  0  0  0  0
    0.0740    1.3545    1.6808 H   0  0  0  0  0  0  0  0  0  0  0  0
   -1.3252    1.9834    0.7073 H   0  0  0  0  0  0  0  0  0  0  0  0
  1  2  3  0
  2  3  1  0
  3  4  2  0
  4  5  1  0
  5  6  1  0
  6  7  1  0
  7  8  1  0
  7  9  1  0
  7  3  1  0
  1 10  1  0
  4 11  1  0
  5 12  1  0
  5 13  1  0
  6 14  1  0
  6 15  1  0
  8 16  1  0
  8 17  1  0
  8 18  1  0
  9 19  1  0
  9 20  1  0
  9 21  1  0
M  END
