
     RDKit          3D

 19 19  0  0  0  0  0  0  0  0999 V2000
   -2.1157    2.3615    0.9652 C   0  0  0  0  0  0  0  0  0  0  0  0
   -1.2963    1.5755    0.2813 C   0  0  0  0  0  0  0  0  0  0  0  0
   -0.4912    0.7760   -0.4097 C   0  0  0  0  0  0  0  0  0  0  0  0
    0.0639   -0.3764    0.1990 C   0  0  0  0  0  0  0  0  0  0  0  0
    1.4062   -1.0638   -0.5839 C   0  0  0  0  0  0  0  0  0  0  0  0
    2.2167    0.1995   -0.5861 C   0  0  0  0  0  0  0  0  0  0  0  0
    2.7917    1.1166   -0.5799 C   0  0  0  0  0  0  0  0  0  0  0  0
   -0.7563   -1.6946    0.2890 C   0  0  0  0  0  0  0  0  0  0  0  0
   -0.4914   -0.9262    1.4874 C   0  0  0  0  0  0  0  0  0  0  0  0
   -2.8472    3.0744    1.5582 H   0  0  0  0  0  0  0  0  0  0  0  0
   -0.2227    1.0479   -1.4552 H   0  0  0  0  0  0  0  0  0  0  0  0
   -1.5669    0.1115   -0.9742 H   0  0  0  0  0  0  0  0  0  0  0  0
    1.6591   -1.6090    0.4608 H   0  0  0  0  0  0  0  0  0  0  0  0
    1.0324   -1.3036   -1.3986 H   0  0  0  0  0  0  0  0  0  0  0  0
    3.5615    2.3384   -0.5469 H   0  0  0  0  0  0  0  0  0  0  0  0
   -0.2290   -2.6556    0.1206 H   0  0  0  0  0  0  0  0  0  0  0  0
   -1.7549   -1.6148   -0.1497 H   0  0  0  0  0  0  0  0  0  0  0  0
   -1.3248   -0.2791    1.8868 H   0  0  0  0  0  0  0  0  0  0  0  0
    0.3648   -1.0782    2.1838 H   0  0  0  0  0  0  0  0  0  0  0  0
  1  2  3  0
  2  3  1  0
  3  4  1  0
  4  5  1  0
  5  6  1  0
  6  7  3  0
  4  8  1  0
  8  9  1  0
  9  4  1  0
  1 10  1  0
  3 11  1  0
  3 12  1  0
  5 13  1  0
  5 14  1  0
  7 15  1  0
  8 16  1  0
  8 17  1  0
  9 18  1  0
  9 19  1  0
M  END
