
     RDKit          3D

 19 18  0  0  0  0  0  0  0  0999 V2000
    2.4561    1.5220    0.5272 C   0  0  0  0  0  0  0  0  0  0  0  0
    1.7321    0.4196    0.2340 C   0  0  0  0  0  0  0  0  0  0  0  0
    1.0230   -0.6373   -0.0294 C   0  0  0  0  0  0  0  0  0  0  0  0
    1.3795   -1.8395    0.2559 C   0  0  0  0  0  0  0  0  0  0  0  0
    1.7605   -3.0826    0.5691 C   0  0  0  0  0  0  0  0  0  0  0  0
    0.1473   -0.4380   -1.3506 C   0  0  0  0  0  0  0  0  0  0  0  0
   -0.8406    0.7456   -0.9682 C   0  0  0  0  0  0  0  0  0  0  0  0
   -1.5428    0.1745    0.0529 O   0  0  0  0  0  0  0  0  0  0  0  0
   -2.3036    0.9408    0.8791 C   0  0  0  0  0  0  0  0  0  0  0  0
    3.1115    2.5586    0.7946 H   0  0  0  0  0  0  0  0  0  0  0  0
    0.0543   -0.5357    0.8182 H   0  0  0  0  0  0  0  0  0  0  0  0
    2.0850   -4.2063    0.8604 H   0  0  0  0  0  0  0  0  0  0  0  0
    0.8026   -0.1070   -2.1257 H   0  0  0  0  0  0  0  0  0  0  0  0
   -0.4548   -1.3091   -1.5316 H   0  0  0  0  0  0  0  0  0  0  0  0
   -1.4832    0.8092   -1.8418 H   0  0  0  0  0  0  0  0  0  0  0  0
   -0.2780    1.6646   -0.7510 H   0  0  0  0  0  0  0  0  0  0  0  0
   -2.9834    1.6855    0.4536 H   0  0  0  0  0  0  0  0  0  0  0  0
   -2.9946    0.1939    1.4660 H   0  0  0  0  0  0  0  0  0  0  0  0
   -1.6710    1.4410    1.6873 H   0  0  0  0  0  0  0  0  0  0  0  0
  1  2  3  0
  2  3  1  0
  3  4  1  0
  4  5  3  0
  3  6  1  0
  6  7  1  0
  7  8  1  0
  8  9  1  0
  1 10  1  0
  3 11  1  0
  5 12  1  0
  6 13  1  0
  6 14  1  0
  7 15  1  0
  7 16  1  0
  9 17  1  0
  9 18  1  0
  9 19  1  0
M  END
