
     RDKit          3D

 15 15  0  0  0  0  0  0  0  0999 V2000
    2.4276   -2.2209    0.5837 C   0  0  0  0  0  0  0  0  0  0  0  0
    1.4523   -1.5830    0.5894 C   0  0  0  0  0  0  0  0  0  0  0  0
    0.2362   -0.7781    0.5723 C   0  0  0  0  0  0  0  0  0  0  0  0
    0.4204    0.6890    0.2705 C   0  0  0  0  0  0  0  0  0  0  0  0
   -0.9682    0.4027   -0.3163 C   0  0  0  0  0  0  0  0  0  0  0  0
   -1.3786    1.2566   -1.4623 C   0  0  0  0  0  0  0  0  0  0  0  0
   -0.4476   -0.8672   -0.6631 O   0  0  0  0  0  0  0  0  0  0  0  0
    3.3436   -2.8245    0.5971 H   0  0  0  0  0  0  0  0  0  0  0  0
   -0.4703   -0.9480    1.3950 H   0  0  0  0  0  0  0  0  0  0  0  0
    0.4087    1.3678    1.1363 H   0  0  0  0  0  0  0  0  0  0  0  0
    1.1073    0.9279   -0.5434 H   0  0  0  0  0  0  0  0  0  0  0  0
   -1.6732    0.2572    0.5134 H   0  0  0  0  0  0  0  0  0  0  0  0
   -1.8956    2.1417   -1.0602 H   0  0  0  0  0  0  0  0  0  0  0  0
   -0.4793    1.4916   -2.0652 H   0  0  0  0  0  0  0  0  0  0  0  0
   -2.0835    0.6874   -2.0914 H   0  0  0  0  0  0  0  0  0  0  0  0
  1  2  3  0
  2  3  1  0
  3  4  1  0
  4  5  1  0
  5  6  1  0
  5  7  1  0
  7  3  1  0
  1  8  1  0
  3  9  1  0
  4 10  1  0
  4 11  1  0
  5 12  1  0
  6 13  1  0
  6 14  1  0
  6 15  1  0
M  END
