
     RDKit          3D

 21 21  0  0  0  0  0  0  0  0999 V2000
   -1.3931    2.6181    0.4725 C   0  0  0  0  0  0  0  0  0  0  0  0
   -0.8832    1.5326    0.6137 C   0  0  0  0  0  0  0  0  0  0  0  0
   -0.2510    0.2045    0.7839 C   0  0  0  0  0  0  0  0  0  0  0  0
    0.7488    0.0454   -0.3244 C   0  0  0  0  0  0  0  0  0  0  0  0
    1.4757   -1.2605   -0.2855 C   0  0  0  0  0  0  0  0  0  0  0  0
    1.7914    1.1526   -0.1374 C   0  0  0  0  0  0  0  0  0  0  0  0
   -1.2609   -0.8908    0.8581 C   0  0  0  0  0  0  0  0  0  0  0  0
   -2.2074   -1.1705   -0.2366 C   0  0  0  0  0  0  0  0  0  0  0  0
   -1.0764   -2.0632    0.1065 O   0  0  0  0  0  0  0  0  0  0  0  0
   -1.8473    3.5690    0.3656 H   0  0  0  0  0  0  0  0  0  0  0  0
    0.3335    0.2058    1.7432 H   0  0  0  0  0  0  0  0  0  0  0  0
    0.2997    0.2375   -1.3315 H   0  0  0  0  0  0  0  0  0  0  0  0
    1.2114   -1.9080    0.5628 H   0  0  0  0  0  0  0  0  0  0  0  0
    2.5963   -1.1280   -0.2442 H   0  0  0  0  0  0  0  0  0  0  0  0
    1.2990   -1.7874   -1.2565 H   0  0  0  0  0  0  0  0  0  0  0  0
    1.2551    2.1027   -0.1944 H   0  0  0  0  0  0  0  0  0  0  0  0
    2.3097    1.0448    0.8216 H   0  0  0  0  0  0  0  0  0  0  0  0
    2.5116    1.0230   -0.9918 H   0  0  0  0  0  0  0  0  0  0  0  0
   -1.6549   -1.1162    1.8896 H   0  0  0  0  0  0  0  0  0  0  0  0
   -3.1683   -1.6527   -0.0096 H   0  0  0  0  0  0  0  0  0  0  0  0
   -2.0895   -0.7587   -1.2462 H   0  0  0  0  0  0  0  0  0  0  0  0
  1  2  3  0
  2  3  1  0
  3  4  1  0
  4  5  1  0
  4  6  1  0
  3  7  1  0
  7  8  1  0
  8  9  1  0
  9  7  1  0
  1 10  1  0
  3 11  1  0
  4 12  1  0
  5 13  1  0
  5 14  1  0
  5 15  1  0
  6 16  1  0
  6 17  1  0
  6 18  1  0
  7 19  1  0
  8 20  1  0
  8 21  1  0
M  END
