
     RDKit          3D

 16 15  0  0  0  0  0  0  0  0999 V2000
    4.7198   -0.2994   -1.0629 C   0  0  0  0  0  0  0  0  0  0  0  0
    3.8183   -0.3347   -0.9886 C   0  0  0  0  0  0  0  0  0  0  0  0
    2.3288   -0.4011   -0.8902 C   0  0  0  0  0  0  0  0  0  0  0  0
    0.8092   -0.4559   -0.7641 C   0  0  0  0  0  0  0  0  0  0  0  0
   -0.8468   -0.5372   -0.6417 C   0  0  0  0  0  0  0  0  0  0  0  0
   -0.9416   -0.3644    0.6002 C   0  0  0  0  0  0  0  0  0  0  0  0
   -2.3527    0.3257    0.9620 C   0  0  0  0  0  0  0  0  0  0  0  0
   -2.1988    1.4757   -0.0062 O   0  0  0  0  0  0  0  0  0  0  0  0
    5.8380   -0.2441   -1.1530 H   0  0  0  0  0  0  0  0  0  0  0  0
   -1.0121   -0.7260   -1.7522 H   0  0  0  0  0  0  0  0  0  0  0  0
   -0.6402    0.8061   -1.0846 H   0  0  0  0  0  0  0  0  0  0  0  0
   -1.3946   -1.5997    0.7990 H   0  0  0  0  0  0  0  0  0  0  0  0
   -0.3688   -0.5089    1.6557 H   0  0  0  0  0  0  0  0  0  0  0  0
   -3.0506   -0.2471    0.3680 H   0  0  0  0  0  0  0  0  0  0  0  0
   -2.5842    0.7818    1.8497 H   0  0  0  0  0  0  0  0  0  0  0  0
   -2.1240    2.3292    0.5317 H   0  0  0  0  0  0  0  0  0  0  0  0
  1  2  3  0
  2  3  1  0
  3  4  3  0
  4  5  1  0
  5  6  1  0
  6  7  1  0
  7  8  1  0
  1  9  1  0
  5 10  1  0
  5 11  1  0
  6 12  1  0
  6 13  1  0
  7 14  1  0
  7 15  1  0
  8 16  1  0
M  END
