
     RDKit          3D

 19 19  0  0  0  0  0  0  0  0999 V2000
    3.0993    1.3787    0.5048 C   0  0  0  0  0  0  0  0  0  0  0  0
    2.2243    0.6725    0.0011 C   0  0  0  0  0  0  0  0  0  0  0  0
    1.2079   -0.1546   -0.5832 C   0  0  0  0  0  0  0  0  0  0  0  0
    0.1857   -0.6411    0.3982 C   0  0  0  0  0  0  0  0  0  0  0  0
   -0.8019   -1.4808   -0.4267 C   0  0  0  0  0  0  0  0  0  0  0  0
   -1.6830   -0.4657   -0.9037 O   0  0  0  0  0  0  0  0  0  0  0  0
   -2.0551    0.0659    0.3364 C   0  0  0  0  0  0  0  0  0  0  0  0
   -0.7221    0.4051    0.9467 C   0  0  0  0  0  0  0  0  0  0  0  0
   -0.3281    1.6543    0.4665 O   0  0  0  0  0  0  0  0  0  0  0  0
    3.8810    1.9855    0.9505 H   0  0  0  0  0  0  0  0  0  0  0  0
    1.6936   -1.0883   -0.9885 H   0  0  0  0  0  0  0  0  0  0  0  0
    0.6636    0.3215   -1.4428 H   0  0  0  0  0  0  0  0  0  0  0  0
    0.6041   -1.3447    1.1335 H   0  0  0  0  0  0  0  0  0  0  0  0
   -1.3912   -2.1391    0.2072 H   0  0  0  0  0  0  0  0  0  0  0  0
   -0.3389   -1.9744   -1.2718 H   0  0  0  0  0  0  0  0  0  0  0  0
   -2.5224   -0.8148    0.8758 H   0  0  0  0  0  0  0  0  0  0  0  0
   -2.7346    0.9175    0.2400 H   0  0  0  0  0  0  0  0  0  0  0  0
   -0.7681    0.3824    2.0619 H   0  0  0  0  0  0  0  0  0  0  0  0
   -0.2140    2.3201    1.2038 H   0  0  0  0  0  0  0  0  0  0  0  0
  1  2  3  0
  2  3  1  0
  3  4  1  0
  4  5  1  0
  5  6  1  0
  6  7  1  0
  7  8  1  0
  8  9  1  0
  8  4  1  0
  1 10  1  0
  3 11  1  0
  3 12  1  0
  4 13  1  0
  5 14  1  0
  5 15  1  0
  7 16  1  0
  7 17  1  0
  8 18  1  0
  9 19  1  0
M  END
