
     RDKit          3D

 15 15  0  0  0  0  0  0  0  0999 V2000
    1.7938    2.3642    0.5156 C   0  0  0  0  0  0  0  0  0  0  0  0
    1.3675    1.0557    0.6296 C   0  0  0  0  0  0  0  0  0  0  0  0
    0.9673   -0.1854    0.7375 C   0  0  0  0  0  0  0  0  0  0  0  0
   -0.2819   -0.9310    1.2078 C   0  0  0  0  0  0  0  0  0  0  0  0
   -0.2018   -0.4103   -0.3241 C   0  0  0  0  0  0  0  0  0  0  0  0
   -1.0413    0.4632   -0.5459 C   0  0  0  0  0  0  0  0  0  0  0  0
   -2.1552    1.6634   -0.8504 C   0  0  0  0  0  0  0  0  0  0  0  0
    0.1547   -1.6526   -1.1341 C   0  0  0  0  0  0  0  0  0  0  0  0
    0.5986   -2.4709   -1.5846 O   0  0  0  0  0  0  0  0  0  0  0  0
    2.0355    3.1517    0.4456 H   0  0  0  0  0  0  0  0  0  0  0  0
    1.8264   -0.9432    0.5401 H   0  0  0  0  0  0  0  0  0  0  0  0
   -0.2946   -1.9922    1.3007 H   0  0  0  0  0  0  0  0  0  0  0  0
   -1.0934   -0.3569    1.6773 H   0  0  0  0  0  0  0  0  0  0  0  0
   -2.5272    2.0674   -0.9581 H   0  0  0  0  0  0  0  0  0  0  0  0
   -1.1484   -1.8232   -1.6570 H   0  0  0  0  0  0  0  0  0  0  0  0
  1  2  3  0
  2  3  1  0
  3  4  1  0
  4  5  1  0
  5  6  1  0
  6  7  3  0
  5  8  1  0
  8  9  2  0
  5  3  1  0
  1 10  1  0
  3 11  1  0
  4 12  1  0
  4 13  1  0
  7 14  1  0
  8 15  1  0
M  END
