
     RDKit          3D

 21 22  0  0  0  0  0  0  0  0999 V2000
   -0.9300    2.7929   -0.7494 C   0  0  0  0  0  0  0  0  0  0  0  0
   -0.6183    1.7753   -0.1794 C   0  0  0  0  0  0  0  0  0  0  0  0
   -0.2646    0.5357    0.5063 C   0  0  0  0  0  0  0  0  0  0  0  0
   -0.8753    0.1670    1.7899 C   0  0  0  0  0  0  0  0  0  0  0  0
   -1.4139   -0.4753    0.5879 C   0  0  0  0  0  0  0  0  0  0  0  0
   -0.8685   -1.7283   -0.0016 C   0  0  0  0  0  0  0  0  0  0  0  0
    0.3721   -1.3290   -0.7850 C   0  0  0  0  0  0  0  0  0  0  0  0
    0.9393   -0.2348    0.0726 C   0  0  0  0  0  0  0  0  0  0  0  0
    1.9505    0.5940   -0.6604 C   0  0  0  0  0  0  0  0  0  0  0  0
   -1.2106    3.6802   -1.2644 H   0  0  0  0  0  0  0  0  0  0  0  0
   -0.2108   -0.4099    2.4964 H   0  0  0  0  0  0  0  0  0  0  0  0
   -1.5424    0.8551    2.3488 H   0  0  0  0  0  0  0  0  0  0  0  0
   -2.4234   -0.1331    0.2433 H   0  0  0  0  0  0  0  0  0  0  0  0
   -0.6580   -2.5303    0.7138 H   0  0  0  0  0  0  0  0  0  0  0  0
   -1.5938   -2.1192   -0.7621 H   0  0  0  0  0  0  0  0  0  0  0  0
    1.0681   -2.1658   -0.9344 H   0  0  0  0  0  0  0  0  0  0  0  0
    0.1130   -0.8805   -1.7645 H   0  0  0  0  0  0  0  0  0  0  0  0
    1.4279   -0.6713    0.9716 H   0  0  0  0  0  0  0  0  0  0  0  0
    2.4304    1.2994    0.0402 H   0  0  0  0  0  0  0  0  0  0  0  0
    1.5375    1.0892   -1.5435 H   0  0  0  0  0  0  0  0  0  0  0  0
    2.7707   -0.1112   -0.9769 H   0  0  0  0  0  0  0  0  0  0  0  0
  1  2  3  0
  2  3  1  0
  3  4  1  0
  4  5  1  0
  5  6  1  0
  6  7  1  0
  7  8  1  0
  8  9  1  0
  5  3  1  0
  8  3  1  0
  1 10  1  0
  4 11  1  0
  4 12  1  0
  5 13  1  0
  6 14  1  0
  6 15  1  0
  7 16  1  0
  7 17  1  0
  8 18  1  0
  9 19  1  0
  9 20  1  0
  9 21  1  0
M  END
