
     RDKit          3D

 18 17  0  0  0  0  0  0  0  0999 V2000
    2.7869    0.9792    0.3018 C   0  0  0  0  0  0  0  0  0  0  0  0
    2.1519   -0.0269    0.3351 C   0  0  0  0  0  0  0  0  0  0  0  0
    1.4021   -1.2610    0.3720 C   0  0  0  0  0  0  0  0  0  0  0  0
   -0.0003   -1.1192   -0.0977 C   0  0  0  0  0  0  0  0  0  0  0  0
   -0.6630   -2.1457   -0.0817 O   0  0  0  0  0  0  0  0  0  0  0  0
   -0.6062    0.1284   -0.5589 C   0  0  0  0  0  0  0  0  0  0  0  0
   -0.5428    1.1360    0.5914 C   0  0  0  0  0  0  0  0  0  0  0  0
   -2.0699   -0.1035   -0.8595 C   0  0  0  0  0  0  0  0  0  0  0  0
    3.3419    1.8890    0.2809 H   0  0  0  0  0  0  0  0  0  0  0  0
    1.3663   -1.6052    1.4283 H   0  0  0  0  0  0  0  0  0  0  0  0
    1.8863   -2.0894   -0.1990 H   0  0  0  0  0  0  0  0  0  0  0  0
   -0.1156    0.5458   -1.4719 H   0  0  0  0  0  0  0  0  0  0  0  0
    0.0776    0.7452    1.4185 H   0  0  0  0  0  0  0  0  0  0  0  0
   -1.5487    1.3226    1.0210 H   0  0  0  0  0  0  0  0  0  0  0  0
   -0.1403    2.1050    0.2064 H   0  0  0  0  0  0  0  0  0  0  0  0
   -2.6214    0.8662   -0.7773 H   0  0  0  0  0  0  0  0  0  0  0  0
   -2.4654   -0.7902   -0.0773 H   0  0  0  0  0  0  0  0  0  0  0  0
   -2.2395   -0.5762   -1.8320 H   0  0  0  0  0  0  0  0  0  0  0  0
  1  2  3  0
  2  3  1  0
  3  4  1  0
  4  5  2  0
  4  6  1  0
  6  7  1  0
  6  8  1  0
  1  9  1  0
  3 10  1  0
  3 11  1  0
  6 12  1  0
  7 13  1  0
  7 14  1  0
  7 15  1  0
  8 16  1  0
  8 17  1  0
  8 18  1  0
M  END
