
     RDKit          3D

 21 22  0  0  0  0  0  0  0  0999 V2000
   -1.0155    2.7031    0.3070 C   0  0  0  0  0  0  0  0  0  0  0  0
   -0.6413    1.6042   -0.0952 C   0  0  0  0  0  0  0  0  0  0  0  0
   -0.1820    0.2812   -0.6065 C   0  0  0  0  0  0  0  0  0  0  0  0
    1.3216    0.2467   -0.5329 C   0  0  0  0  0  0  0  0  0  0  0  0
    2.0435   -0.9214   -1.0618 C   0  0  0  0  0  0  0  0  0  0  0  0
    1.0054    0.2292    0.9778 C   0  0  0  0  0  0  0  0  0  0  0  0
    0.0385   -0.8135    0.5162 C   0  0  0  0  0  0  0  0  0  0  0  0
   -1.1347   -0.7321   -0.2863 C   0  0  0  0  0  0  0  0  0  0  0  0
   -2.4297   -0.4646    0.5050 C   0  0  0  0  0  0  0  0  0  0  0  0
   -1.3218    3.6498    0.6409 H   0  0  0  0  0  0  0  0  0  0  0  0
    1.7812    1.2039   -0.8283 H   0  0  0  0  0  0  0  0  0  0  0  0
    1.4172   -1.6154   -1.6985 H   0  0  0  0  0  0  0  0  0  0  0  0
    2.8492   -0.5876   -1.7853 H   0  0  0  0  0  0  0  0  0  0  0  0
    2.6276   -1.5064   -0.2946 H   0  0  0  0  0  0  0  0  0  0  0  0
    0.6448    1.1595    1.3840 H   0  0  0  0  0  0  0  0  0  0  0  0
    1.8123   -0.1681    1.6032 H   0  0  0  0  0  0  0  0  0  0  0  0
    0.6623   -1.7072    0.1870 H   0  0  0  0  0  0  0  0  0  0  0  0
   -1.3832   -1.4348   -1.1396 H   0  0  0  0  0  0  0  0  0  0  0  0
   -2.4871   -1.1612    1.3762 H   0  0  0  0  0  0  0  0  0  0  0  0
   -3.3141   -0.5195   -0.1139 H   0  0  0  0  0  0  0  0  0  0  0  0
   -2.2942    0.5541    0.9456 H   0  0  0  0  0  0  0  0  0  0  0  0
  1  2  3  0
  2  3  1  0
  3  4  1  0
  4  5  1  0
  4  6  1  0
  6  7  1  0
  7  8  1  0
  8  9  1  0
  7  3  1  0
  8  3  1  0
  1 10  1  0
  4 11  1  0
  5 12  1  0
  5 13  1  0
  5 14  1  0
  6 15  1  0
  6 16  1  0
  7 17  1  0
  8 18  1  0
  9 19  1  0
  9 20  1  0
  9 21  1  0
M  END
