
     RDKit          3D

 17 17  0  0  0  0  0  0  0  0999 V2000
    3.1556   -0.3243    0.6387 C   0  0  0  0  0  0  0  0  0  0  0  0
    2.1394   -0.3202   -0.1069 C   0  0  0  0  0  0  0  0  0  0  0  0
    1.0525   -0.3043   -0.9189 C   0  0  0  0  0  0  0  0  0  0  0  0
    0.3484    1.0776   -0.8754 C   0  0  0  0  0  0  0  0  0  0  0  0
   -0.3605   -0.0270   -0.3130 C   0  0  0  0  0  0  0  0  0  0  0  0
   -1.4542   -0.9501   -0.6520 C   0  0  0  0  0  0  0  0  0  0  0  0
   -0.3375    0.1825    1.1856 O   0  0  0  0  0  0  0  0  0  0  0  0
   -1.4802    0.5469    1.7808 C   0  0  0  0  0  0  0  0  0  0  0  0
   -2.5865    0.7301    1.1573 O   0  0  0  0  0  0  0  0  0  0  0  0
    4.1195   -0.3122    1.3616 H   0  0  0  0  0  0  0  0  0  0  0  0
    1.1206   -0.5780   -2.0004 H   0  0  0  0  0  0  0  0  0  0  0  0
    0.8659    1.8349   -0.1709 H   0  0  0  0  0  0  0  0  0  0  0  0
    0.1294    1.5679   -1.8060 H   0  0  0  0  0  0  0  0  0  0  0  0
   -2.1452   -1.1614    0.1829 H   0  0  0  0  0  0  0  0  0  0  0  0
   -0.9789   -2.0116   -0.7821 H   0  0  0  0  0  0  0  0  0  0  0  0
   -2.0256   -0.6687   -1.5424 H   0  0  0  0  0  0  0  0  0  0  0  0
   -1.5629    0.7178    2.8611 H   0  0  0  0  0  0  0  0  0  0  0  0
  1  2  3  0
  2  3  1  0
  3  4  1  0
  4  5  1  0
  5  6  1  0
  5  7  1  0
  7  8  1  0
  8  9  2  0
  5  3  1  0
  1 10  1  0
  3 11  1  0
  4 12  1  0
  4 13  1  0
  6 14  1  0
  6 15  1  0
  6 16  1  0
  8 17  1  0
M  END
