
     RDKit          3D

 17 18  0  0  0  0  0  0  0  0999 V2000
    1.7935    1.5182    2.1352 C   0  0  0  0  0  0  0  0  0  0  0  0
    1.0414    0.9428    1.4075 C   0  0  0  0  0  0  0  0  0  0  0  0
    0.1440    0.2251    0.5177 C   0  0  0  0  0  0  0  0  0  0  0  0
   -0.7397    1.0835   -0.3684 C   0  0  0  0  0  0  0  0  0  0  0  0
   -0.5914   -0.0573   -1.3886 C   0  0  0  0  0  0  0  0  0  0  0  0
    0.8104   -0.2346   -0.7886 C   0  0  0  0  0  0  0  0  0  0  0  0
   -1.3966   -1.1231   -1.0617 O   0  0  0  0  0  0  0  0  0  0  0  0
   -1.0357   -1.7118    0.1348 C   0  0  0  0  0  0  0  0  0  0  0  0
   -0.6383   -0.7572    1.0681 O   0  0  0  0  0  0  0  0  0  0  0  0
    2.4624    2.0357    2.7638 H   0  0  0  0  0  0  0  0  0  0  0  0
   -1.7484    1.2561   -0.0049 H   0  0  0  0  0  0  0  0  0  0  0  0
   -0.1521    1.9643   -0.7034 H   0  0  0  0  0  0  0  0  0  0  0  0
   -0.5146    0.2486   -2.4232 H   0  0  0  0  0  0  0  0  0  0  0  0
    1.1961   -1.2473   -0.7897 H   0  0  0  0  0  0  0  0  0  0  0  0
    1.4839    0.5763   -1.1489 H   0  0  0  0  0  0  0  0  0  0  0  0
   -0.2207   -2.4509    0.0494 H   0  0  0  0  0  0  0  0  0  0  0  0
   -1.8944   -2.2684    0.6011 H   0  0  0  0  0  0  0  0  0  0  0  0
  1  2  3  0
  2  3  1  0
  3  4  1  0
  4  5  1  0
  5  6  1  0
  5  7  1  0
  7  8  1  0
  8  9  1  0
  6  3  1  0
  9  3  1  0
  1 10  1  0
  4 11  1  0
  4 12  1  0
  5 13  1  0
  6 14  1  0
  6 15  1  0
  8 16  1  0
  8 17  1  0
M  END
