
     RDKit          3D

 12 13  0  0  0  0  0  0  0  0999 V2000
    2.4132   -0.5599    1.0914 C   0  0  0  0  0  0  0  0  0  0  0  0
    1.4788   -0.3138    0.4101 C   0  0  0  0  0  0  0  0  0  0  0  0
    0.3423    0.0002   -0.4471 C   0  0  0  0  0  0  0  0  0  0  0  0
   -0.6378    0.9917    0.1105 C   0  0  0  0  0  0  0  0  0  0  0  0
   -0.9698    0.0028    1.0161 O   0  0  0  0  0  0  0  0  0  0  0  0
   -0.8897   -0.7241   -0.1354 C   0  0  0  0  0  0  0  0  0  0  0  0
   -1.6111    0.4049   -0.7853 C   0  0  0  0  0  0  0  0  0  0  0  0
   -2.4673    0.5442   -1.5659 O   0  0  0  0  0  0  0  0  0  0  0  0
    3.2961   -0.8097    1.7505 H   0  0  0  0  0  0  0  0  0  0  0  0
    0.6416    0.1902   -1.4931 H   0  0  0  0  0  0  0  0  0  0  0  0
   -0.4766    1.9750    0.3338 H   0  0  0  0  0  0  0  0  0  0  0  0
   -1.1197   -1.7017   -0.2857 H   0  0  0  0  0  0  0  0  0  0  0  0
  1  2  3  0
  2  3  1  0
  3  4  1  0
  4  5  1  0
  5  6  1  0
  6  7  1  0
  7  8  2  0
  6  3  1  0
  7  4  1  0
  1  9  1  0
  3 10  1  0
  4 11  1  0
  6 12  1  0
M  END
