
     RDKit          3D

 15 16  0  0  0  0  0  0  0  0999 V2000
    1.8256    2.4057    0.5269 C   0  0  0  0  0  0  0  0  0  0  0  0
    1.0831    1.4676    0.3711 C   0  0  0  0  0  0  0  0  0  0  0  0
    0.2134    0.3672    0.1940 C   0  0  0  0  0  0  0  0  0  0  0  0
    0.8402   -0.8622   -0.3619 C   0  0  0  0  0  0  0  0  0  0  0  0
   -0.2017   -1.5642   -0.8616 C   0  0  0  0  0  0  0  0  0  0  0  0
   -1.3870   -0.7086   -0.6176 C   0  0  0  0  0  0  0  0  0  0  0  0
   -1.6518   -0.7491    0.7506 O   0  0  0  0  0  0  0  0  0  0  0  0
   -0.6526    0.0170    1.3731 C   0  0  0  0  0  0  0  0  0  0  0  0
   -0.8039    0.5746   -0.7738 O   0  0  0  0  0  0  0  0  0  0  0  0
    2.4878    3.2244    0.6491 H   0  0  0  0  0  0  0  0  0  0  0  0
    1.8684   -1.1469   -0.3755 H   0  0  0  0  0  0  0  0  0  0  0  0
   -0.1377   -2.5267   -1.3250 H   0  0  0  0  0  0  0  0  0  0  0  0
   -2.2297   -0.8789   -1.2549 H   0  0  0  0  0  0  0  0  0  0  0  0
   -0.1184   -0.5538    2.1524 H   0  0  0  0  0  0  0  0  0  0  0  0
   -1.1357    0.9337    1.7464 H   0  0  0  0  0  0  0  0  0  0  0  0
  1  2  3  0
  2  3  1  0
  3  4  1  0
  4  5  2  0
  5  6  1  0
  6  7  1  0
  7  8  1  0
  6  9  1  0
  8  3  1  0
  9  3  1  0
  1 10  1  0
  4 11  1  0
  5 12  1  0
  6 13  1  0
  8 14  1  0
  8 15  1  0
M  END
