
     RDKit          3D

 17 18  0  0  0  0  0  0  0  0999 V2000
    2.5604    2.1423    0.0260 C   0  0  0  0  0  0  0  0  0  0  0  0
    1.5814    1.4373    0.0131 C   0  0  0  0  0  0  0  0  0  0  0  0
    0.3675    0.5849   -0.0182 C   0  0  0  0  0  0  0  0  0  0  0  0
   -0.7069    0.9674   -0.9235 C   0  0  0  0  0  0  0  0  0  0  0  0
   -1.3048   -0.0617   -1.4695 C   0  0  0  0  0  0  0  0  0  0  0  0
   -0.6947   -1.3069   -0.9897 C   0  0  0  0  0  0  0  0  0  0  0  0
   -1.6408   -1.9624   -0.1684 O   0  0  0  0  0  0  0  0  0  0  0  0
    0.4943   -0.8561   -0.1871 C   0  0  0  0  0  0  0  0  0  0  0  0
    0.1290   -0.3303    1.1666 C   0  0  0  0  0  0  0  0  0  0  0  0
    3.4283    2.7554    0.0503 H   0  0  0  0  0  0  0  0  0  0  0  0
   -1.0011    2.0085   -1.1396 H   0  0  0  0  0  0  0  0  0  0  0  0
   -2.1467   -0.0497   -2.1891 H   0  0  0  0  0  0  0  0  0  0  0  0
   -0.3696   -1.9806   -1.8151 H   0  0  0  0  0  0  0  0  0  0  0  0
   -2.2119   -1.2791    0.2613 H   0  0  0  0  0  0  0  0  0  0  0  0
    1.4752   -1.3603   -0.3450 H   0  0  0  0  0  0  0  0  0  0  0  0
    0.9338   -0.2936    1.9287 H   0  0  0  0  0  0  0  0  0  0  0  0
   -0.8934   -0.4151    1.5605 H   0  0  0  0  0  0  0  0  0  0  0  0
  1  2  3  0
  2  3  1  0
  3  4  1  0
  4  5  2  0
  5  6  1  0
  6  7  1  0
  6  8  1  0
  8  9  1  0
  8  3  1  0
  9  3  1  0
  1 10  1  0
  4 11  1  0
  5 12  1  0
  6 13  1  0
  7 14  1  0
  8 15  1  0
  9 16  1  0
  9 17  1  0
M  END
