
     RDKit          3D

 16 16  0  0  0  0  0  0  0  0999 V2000
    2.0006    1.9096   -0.7434 C   0  0  0  0  0  0  0  0  0  0  0  0
    1.1907    1.0770   -0.4327 C   0  0  0  0  0  0  0  0  0  0  0  0
    0.1974    0.0830   -0.0744 C   0  0  0  0  0  0  0  0  0  0  0  0
   -0.5890    0.3563    1.1737 C   0  0  0  0  0  0  0  0  0  0  0  0
   -1.4847   -0.7302    1.3242 O   0  0  0  0  0  0  0  0  0  0  0  0
    0.6152   -1.3543   -0.2868 C   0  0  0  0  0  0  0  0  0  0  0  0
   -0.6895   -1.6106   -0.7201 O   0  0  0  0  0  0  0  0  0  0  0  0
   -0.7000   -0.3005   -1.2306 C   0  0  0  0  0  0  0  0  0  0  0  0
    2.7218    2.6468   -1.0381 H   0  0  0  0  0  0  0  0  0  0  0  0
    0.0092    0.3869    2.0875 H   0  0  0  0  0  0  0  0  0  0  0  0
   -1.1950    1.2658    0.9916 H   0  0  0  0  0  0  0  0  0  0  0  0
   -2.3968   -0.4078    1.5078 H   0  0  0  0  0  0  0  0  0  0  0  0
    1.3591   -1.3774   -1.1361 H   0  0  0  0  0  0  0  0  0  0  0  0
    0.9381   -1.9049    0.5990 H   0  0  0  0  0  0  0  0  0  0  0  0
   -1.7152    0.1568   -1.1103 H   0  0  0  0  0  0  0  0  0  0  0  0
   -0.2618   -0.1964   -2.2251 H   0  0  0  0  0  0  0  0  0  0  0  0
  1  2  3  0
  2  3  1  0
  3  4  1  0
  4  5  1  0
  3  6  1  0
  6  7  1  0
  7  8  1  0
  8  3  1  0
  1  9  1  0
  4 10  1  0
  4 11  1  0
  5 12  1  0
  6 13  1  0
  6 14  1  0
  8 15  1  0
  8 16  1  0
M  END
