
     RDKit          3D

 19 20  0  0  0  0  0  0  0  0999 V2000
    2.4829   -1.3692   -1.3336 C   0  0  0  0  0  0  0  0  0  0  0  0
    1.7765   -0.5847   -0.7600 C   0  0  0  0  0  0  0  0  0  0  0  0
    0.8938    0.3577   -0.0638 C   0  0  0  0  0  0  0  0  0  0  0  0
    0.1713   -0.1324    1.1394 C   0  0  0  0  0  0  0  0  0  0  0  0
   -1.2745    0.1724    0.8506 C   0  0  0  0  0  0  0  0  0  0  0  0
   -1.9432   -1.0809    0.3579 C   0  0  0  0  0  0  0  0  0  0  0  0
   -1.3045    1.1177   -0.1590 O   0  0  0  0  0  0  0  0  0  0  0  0
   -0.1418    0.9928   -0.8920 C   0  0  0  0  0  0  0  0  0  0  0  0
    1.0219    1.7924   -0.3904 C   0  0  0  0  0  0  0  0  0  0  0  0
    3.0913   -2.0674   -1.8485 H   0  0  0  0  0  0  0  0  0  0  0  0
    0.5262    0.3447    2.0807 H   0  0  0  0  0  0  0  0  0  0  0  0
    0.3503   -1.2212    1.2604 H   0  0  0  0  0  0  0  0  0  0  0  0
   -1.7392    0.5002    1.7908 H   0  0  0  0  0  0  0  0  0  0  0  0
   -1.1869   -1.7544   -0.1040 H   0  0  0  0  0  0  0  0  0  0  0  0
   -2.7197   -0.8533   -0.4166 H   0  0  0  0  0  0  0  0  0  0  0  0
   -2.4236   -1.6716    1.1625 H   0  0  0  0  0  0  0  0  0  0  0  0
   -0.2590    0.8018   -1.9734 H   0  0  0  0  0  0  0  0  0  0  0  0
    0.8457    2.5846    0.3883 H   0  0  0  0  0  0  0  0  0  0  0  0
    1.8325    2.0707   -1.0895 H   0  0  0  0  0  0  0  0  0  0  0  0
  1  2  3  0
  2  3  1  0
  3  4  1  0
  4  5  1  0
  5  6  1  0
  5  7  1  0
  7  8  1  0
  8  9  1  0
  8  3  1  0
  9  3  1  0
  1 10  1  0
  4 11  1  0
  4 12  1  0
  5 13  1  0
  6 14  1  0
  6 15  1  0
  6 16  1  0
  8 17  1  0
  9 18  1  0
  9 19  1  0
M  END
