
     RDKit          3D

 17 17  0  0  0  0  0  0  0  0999 V2000
    3.8973    1.6703    0.8657 C   0  0  0  0  0  0  0  0  0  0  0  0
    2.9571    1.0899    0.3805 C   0  0  0  0  0  0  0  0  0  0  0  0
    1.8321    0.4206   -0.2086 C   0  0  0  0  0  0  0  0  0  0  0  0
    1.4379    0.7244   -1.3706 O   0  0  0  0  0  0  0  0  0  0  0  0
    1.1177   -0.5801    0.4390 O   0  0  0  0  0  0  0  0  0  0  0  0
    0.0003   -1.2274   -0.1771 C   0  0  0  0  0  0  0  0  0  0  0  0
   -1.0936   -0.2781   -0.5225 C   0  0  0  0  0  0  0  0  0  0  0  0
   -1.7852    0.5418    0.4941 C   0  0  0  0  0  0  0  0  0  0  0  0
   -2.4802   -0.6922   -0.0009 C   0  0  0  0  0  0  0  0  0  0  0  0
    4.7328    2.1930    1.2995 H   0  0  0  0  0  0  0  0  0  0  0  0
    0.3016   -1.8107   -1.0530 H   0  0  0  0  0  0  0  0  0  0  0  0
   -0.3408   -1.9834    0.5893 H   0  0  0  0  0  0  0  0  0  0  0  0
   -1.1093    0.0536   -1.5944 H   0  0  0  0  0  0  0  0  0  0  0  0
   -2.2432    1.4873    0.1348 H   0  0  0  0  0  0  0  0  0  0  0  0
   -1.3735    0.5542    1.5093 H   0  0  0  0  0  0  0  0  0  0  0  0
   -3.3284   -0.6404   -0.6778 H   0  0  0  0  0  0  0  0  0  0  0  0
   -2.5224   -1.5229    0.7266 H   0  0  0  0  0  0  0  0  0  0  0  0
  1  2  3  0
  2  3  1  0
  3  4  2  0
  3  5  1  0
  5  6  1  0
  6  7  1  0
  7  8  1  0
  8  9  1  0
  9  7  1  0
  1 10  1  0
  6 11  1  0
  6 12  1  0
  7 13  1  0
  8 14  1  0
  8 15  1  0
  9 16  1  0
  9 17  1  0
M  END
