
     RDKit          3D

 19 19  0  0  0  0  0  0  0  0999 V2000
    2.5211    1.9964   -0.6412 C   0  0  0  0  0  0  0  0  0  0  0  0
    1.8580    1.0199   -0.3583 C   0  0  0  0  0  0  0  0  0  0  0  0
    1.0627   -0.1670   -0.0368 C   0  0  0  0  0  0  0  0  0  0  0  0
    1.0674   -0.9997   -1.1529 O   0  0  0  0  0  0  0  0  0  0  0  0
   -0.3447    0.2027    0.3836 C   0  0  0  0  0  0  0  0  0  0  0  0
   -0.4320    0.9546    1.6937 C   0  0  0  0  0  0  0  0  0  0  0  0
   -1.0674    0.8985   -0.6703 O   0  0  0  0  0  0  0  0  0  0  0  0
   -1.5384   -0.3195   -0.1974 C   0  0  0  0  0  0  0  0  0  0  0  0
   -1.4585   -1.5472   -1.0403 C   0  0  0  0  0  0  0  0  0  0  0  0
    3.1034    2.8687   -0.8755 H   0  0  0  0  0  0  0  0  0  0  0  0
    1.5961   -0.7065    0.7731 H   0  0  0  0  0  0  0  0  0  0  0  0
    1.7346   -1.7052   -1.1148 H   0  0  0  0  0  0  0  0  0  0  0  0
    0.1858    1.8904    1.6626 H   0  0  0  0  0  0  0  0  0  0  0  0
   -1.4758    1.1952    1.9384 H   0  0  0  0  0  0  0  0  0  0  0  0
    0.0009    0.2815    2.4795 H   0  0  0  0  0  0  0  0  0  0  0  0
   -2.4799   -0.2085    0.3912 H   0  0  0  0  0  0  0  0  0  0  0  0
   -2.4706   -1.9838   -1.1515 H   0  0  0  0  0  0  0  0  0  0  0  0
   -0.8011   -2.3417   -0.5973 H   0  0  0  0  0  0  0  0  0  0  0  0
   -1.0614   -1.3287   -2.0552 H   0  0  0  0  0  0  0  0  0  0  0  0
  1  2  3  0
  2  3  1  0
  3  4  1  0
  3  5  1  0
  5  6  1  0
  5  7  1  0
  7  8  1  0
  8  9  1  0
  8  5  1  0
  1 10  1  0
  3 11  1  0
  4 12  1  0
  6 13  1  0
  6 14  1  0
  6 15  1  0
  8 16  1  0
  9 17  1  0
  9 18  1  0
  9 19  1  0
M  END
