
     RDKit          3D

 19 20  0  0  0  0  0  0  0  0999 V2000
    0.5608    2.6927    0.9827 C   0  0  0  0  0  0  0  0  0  0  0  0
    0.3373    1.6074    0.5345 C   0  0  0  0  0  0  0  0  0  0  0  0
    0.0894    0.3790    0.0470 C   0  0  0  0  0  0  0  0  0  0  0  0
    0.0549   -0.7956    0.7452 O   0  0  0  0  0  0  0  0  0  0  0  0
   -0.2593   -1.2262   -0.5538 C   0  0  0  0  0  0  0  0  0  0  0  0
    0.8371   -0.3187   -1.0149 C   0  0  0  0  0  0  0  0  0  0  0  0
    2.2137   -0.7733   -0.6291 C   0  0  0  0  0  0  0  0  0  0  0  0
   -1.1796   -0.0485   -0.6166 C   0  0  0  0  0  0  0  0  0  0  0  0
   -2.3247   -0.1791    0.3361 C   0  0  0  0  0  0  0  0  0  0  0  0
    0.7818    3.6724    1.3878 H   0  0  0  0  0  0  0  0  0  0  0  0
   -0.4409   -2.1743   -0.8319 H   0  0  0  0  0  0  0  0  0  0  0  0
    0.7339    0.0699   -2.0591 H   0  0  0  0  0  0  0  0  0  0  0  0
    2.1970   -1.6147    0.0830 H   0  0  0  0  0  0  0  0  0  0  0  0
    2.7749    0.0964   -0.1952 H   0  0  0  0  0  0  0  0  0  0  0  0
    2.7782   -1.0848   -1.5299 H   0  0  0  0  0  0  0  0  0  0  0  0
   -1.3734    0.3848   -1.5958 H   0  0  0  0  0  0  0  0  0  0  0  0
   -1.9461   -0.6779    1.2535 H   0  0  0  0  0  0  0  0  0  0  0  0
   -2.7300    0.8337    0.5565 H   0  0  0  0  0  0  0  0  0  0  0  0
   -3.1050   -0.8430   -0.1177 H   0  0  0  0  0  0  0  0  0  0  0  0
  1  2  3  0
  2  3  1  0
  3  4  1  0
  4  5  1  0
  5  6  1  0
  6  7  1  0
  5  8  1  0
  8  9  1  0
  6  3  1  0
  8  3  1  0
  1 10  1  0
  5 11  1  0
  6 12  1  0
  7 13  1  0
  7 14  1  0
  7 15  1  0
  8 16  1  0
  9 17  1  0
  9 18  1  0
  9 19  1  0
M  END
