
     RDKit          3D

 17 16  0  0  0  0  0  0  0  0999 V2000
    3.2576    1.0301   -0.2388 C   0  0  0  0  0  0  0  0  0  0  0  0
    2.4759    0.4046    0.4315 C   0  0  0  0  0  0  0  0  0  0  0  0
    1.5362   -0.3485    1.2078 C   0  0  0  0  0  0  0  0  0  0  0  0
    1.8843   -0.8470    2.3329 O   0  0  0  0  0  0  0  0  0  0  0  0
    0.1612   -0.5868    0.7765 C   0  0  0  0  0  0  0  0  0  0  0  0
   -0.1632    0.0294   -0.5627 C   0  0  0  0  0  0  0  0  0  0  0  0
   -1.6202   -0.2943   -0.8920 C   0  0  0  0  0  0  0  0  0  0  0  0
   -2.4399    0.2999    0.1975 C   0  0  0  0  0  0  0  0  0  0  0  0
   -2.5606    1.5116    0.1848 O   0  0  0  0  0  0  0  0  0  0  0  0
    3.9637    1.5718   -0.8378 H   0  0  0  0  0  0  0  0  0  0  0  0
   -0.5243   -0.2565    1.5686 H   0  0  0  0  0  0  0  0  0  0  0  0
    0.0234   -1.6926    0.6881 H   0  0  0  0  0  0  0  0  0  0  0  0
   -0.0147    1.1246   -0.4630 H   0  0  0  0  0  0  0  0  0  0  0  0
    0.4691   -0.3329   -1.3734 H   0  0  0  0  0  0  0  0  0  0  0  0
   -1.7077   -1.4150   -0.8372 H   0  0  0  0  0  0  0  0  0  0  0  0
   -1.8329    0.1097   -1.8837 H   0  0  0  0  0  0  0  0  0  0  0  0
   -2.9079   -0.3081    0.9661 H   0  0  0  0  0  0  0  0  0  0  0  0
  1  2  3  0
  2  3  1  0
  3  4  2  0
  3  5  1  0
  5  6  1  0
  6  7  1  0
  7  8  1  0
  8  9  2  0
  1 10  1  0
  5 11  1  0
  5 12  1  0
  6 13  1  0
  6 14  1  0
  7 15  1  0
  7 16  1  0
  8 17  1  0
M  END
