
     RDKit          3D

 19 20  0  0  0  0  0  0  0  0999 V2000
    2.7446    0.8230   -1.2411 C   0  0  0  0  0  0  0  0  0  0  0  0
    1.5780    0.8067   -0.2885 C   0  0  0  0  0  0  0  0  0  0  0  0
    0.6454    0.7819    0.4963 C   0  0  0  0  0  0  0  0  0  0  0  0
    0.7448   -0.6794    1.2109 C   0  0  0  0  0  0  0  0  0  0  0  0
   -0.6951   -0.6678    1.2858 C   0  0  0  0  0  0  0  0  0  0  0  0
   -0.6507    0.0060   -0.0685 C   0  0  0  0  0  0  0  0  0  0  0  0
   -1.8424    0.7523   -0.3751 C   0  0  0  0  0  0  0  0  0  0  0  0
    0.0809   -0.9310   -0.9174 C   0  0  0  0  0  0  0  0  0  0  0  0
    1.0845   -1.3981   -0.0160 O   0  0  0  0  0  0  0  0  0  0  0  0
    3.6213    0.8466   -1.9369 H   0  0  0  0  0  0  0  0  0  0  0  0
    0.2297    1.5743    1.0840 H   0  0  0  0  0  0  0  0  0  0  0  0
    1.4617   -0.7765    1.9675 H   0  0  0  0  0  0  0  0  0  0  0  0
   -1.1889   -1.6782    1.1905 H   0  0  0  0  0  0  0  0  0  0  0  0
   -1.2410   -0.0001    2.0061 H   0  0  0  0  0  0  0  0  0  0  0  0
   -2.4427    0.8023    0.6295 H   0  0  0  0  0  0  0  0  0  0  0  0
   -2.5209    0.1481   -1.0767 H   0  0  0  0  0  0  0  0  0  0  0  0
   -1.7193    1.7352   -0.7760 H   0  0  0  0  0  0  0  0  0  0  0  0
    0.5670   -0.3751   -1.7854 H   0  0  0  0  0  0  0  0  0  0  0  0
   -0.4568   -1.7701   -1.3888 H   0  0  0  0  0  0  0  0  0  0  0  0
  1  2  3  0
  2  3  1  0
  3  4  1  0
  4  5  1  0
  5  6  1  0
  6  7  1  0
  6  8  1  0
  8  9  1  0
  6  3  1  0
  9  4  1  0
  1 10  1  0
  3 11  1  0
  4 12  1  0
  5 13  1  0
  5 14  1  0
  7 15  1  0
  7 16  1  0
  7 17  1  0
  8 18  1  0
  8 19  1  0
M  END
