
     RDKit          3D

 21 20  0  0  0  0  0  0  0  0999 V2000
   -0.5153    2.6749    0.8689 C   0  0  0  0  0  0  0  0  0  0  0  0
   -0.2298    1.5127    0.6848 C   0  0  0  0  0  0  0  0  0  0  0  0
    0.1413    0.1095    0.4615 C   0  0  0  0  0  0  0  0  0  0  0  0
    0.2319   -0.5105    1.6794 O   0  0  0  0  0  0  0  0  0  0  0  0
    1.4787    0.0982   -0.2438 C   0  0  0  0  0  0  0  0  0  0  0  0
    1.9719   -1.2870   -0.5311 C   0  0  0  0  0  0  0  0  0  0  0  0
   -0.8740   -0.5220   -0.4581 C   0  0  0  0  0  0  0  0  0  0  0  0
   -2.2776   -0.4453    0.0963 C   0  0  0  0  0  0  0  0  0  0  0  0
   -0.8763    0.1912   -1.6601 O   0  0  0  0  0  0  0  0  0  0  0  0
   -0.7530    3.7029    1.0425 H   0  0  0  0  0  0  0  0  0  0  0  0
    0.8158    0.0357    2.2582 H   0  0  0  0  0  0  0  0  0  0  0  0
    1.4349    0.6617   -1.1959 H   0  0  0  0  0  0  0  0  0  0  0  0
    2.2469    0.6127    0.3885 H   0  0  0  0  0  0  0  0  0  0  0  0
    1.3464   -2.0550   -0.0240 H   0  0  0  0  0  0  0  0  0  0  0  0
    1.9702   -1.4908   -1.6332 H   0  0  0  0  0  0  0  0  0  0  0  0
    3.0348   -1.4412   -0.2081 H   0  0  0  0  0  0  0  0  0  0  0  0
   -0.6424   -1.5968   -0.6017 H   0  0  0  0  0  0  0  0  0  0  0  0
   -2.4203   -1.1267    0.9674 H   0  0  0  0  0  0  0  0  0  0  0  0
   -2.5898    0.5951    0.3082 H   0  0  0  0  0  0  0  0  0  0  0  0
   -2.9594   -0.8251   -0.6959 H   0  0  0  0  0  0  0  0  0  0  0  0
   -0.5350    1.1055   -1.5038 H   0  0  0  0  0  0  0  0  0  0  0  0
  1  2  3  0
  2  3  1  0
  3  4  1  0
  3  5  1  0
  5  6  1  0
  3  7  1  0
  7  8  1  0
  7  9  1  0
  1 10  1  0
  4 11  1  0
  5 12  1  0
  5 13  1  0
  6 14  1  0
  6 15  1  0
  6 16  1  0
  7 17  1  0
  8 18  1  0
  8 19  1  0
  8 20  1  0
  9 21  1  0
M  END
