
     RDKit          3D

 16 16  0  0  0  0  0  0  0  0999 V2000
    2.4115   -0.1388   -1.8523 C   0  0  0  0  0  0  0  0  0  0  0  0
    1.3015   -0.0817   -1.4442 C   0  0  0  0  0  0  0  0  0  0  0  0
   -0.0867   -0.0340   -0.9449 C   0  0  0  0  0  0  0  0  0  0  0  0
   -0.5799    1.2867   -1.0758 O   0  0  0  0  0  0  0  0  0  0  0  0
   -1.6681    1.2798   -0.1640 C   0  0  0  0  0  0  0  0  0  0  0  0
   -1.1129    0.5382    0.9901 C   0  0  0  0  0  0  0  0  0  0  0  0
   -0.1590   -0.2504    0.5122 C   0  0  0  0  0  0  0  0  0  0  0  0
    0.6432   -1.1572    1.3738 C   0  0  0  0  0  0  0  0  0  0  0  0
    3.4344   -0.2045   -2.2144 H   0  0  0  0  0  0  0  0  0  0  0  0
   -0.7592   -0.7244   -1.4898 H   0  0  0  0  0  0  0  0  0  0  0  0
   -1.9934    2.2951    0.0770 H   0  0  0  0  0  0  0  0  0  0  0  0
   -2.4540    0.6758   -0.6853 H   0  0  0  0  0  0  0  0  0  0  0  0
   -1.4720    0.6626    2.0233 H   0  0  0  0  0  0  0  0  0  0  0  0
    1.6802   -1.2863    1.0173 H   0  0  0  0  0  0  0  0  0  0  0  0
    0.0857   -2.1035    1.4533 H   0  0  0  0  0  0  0  0  0  0  0  0
    0.7287   -0.7574    2.4236 H   0  0  0  0  0  0  0  0  0  0  0  0
  1  2  3  0
  2  3  1  0
  3  4  1  0
  4  5  1  0
  5  6  1  0
  6  7  2  0
  7  8  1  0
  7  3  1  0
  1  9  1  0
  3 10  1  0
  5 11  1  0
  5 12  1  0
  6 13  1  0
  8 14  1  0
  8 15  1  0
  8 16  1  0
M  END
