
     RDKit          3D

 15 14  0  0  0  0  0  0  0  0999 V2000
    4.2558    1.1513   -0.4763 C   0  0  0  0  0  0  0  0  0  0  0  0
    3.1470    0.6857   -0.3787 C   0  0  0  0  0  0  0  0  0  0  0  0
    1.8332    0.1555   -0.2761 C   0  0  0  0  0  0  0  0  0  0  0  0
    0.7027   -0.2806   -0.1789 C   0  0  0  0  0  0  0  0  0  0  0  0
   -0.6711   -0.7831   -0.0608 C   0  0  0  0  0  0  0  0  0  0  0  0
   -1.4499   -0.2152   -1.1821 C   0  0  0  0  0  0  0  0  0  0  0  0
   -1.6751    0.9939   -1.1414 O   0  0  0  0  0  0  0  0  0  0  0  0
   -1.2501   -0.2492    1.2439 C   0  0  0  0  0  0  0  0  0  0  0  0
   -2.5400   -0.7172    1.3613 O   0  0  0  0  0  0  0  0  0  0  0  0
    5.2378    1.5796   -0.5691 H   0  0  0  0  0  0  0  0  0  0  0  0
   -0.7112   -1.8863   -0.0055 H   0  0  0  0  0  0  0  0  0  0  0  0
   -1.8277   -0.7747   -2.0176 H   0  0  0  0  0  0  0  0  0  0  0  0
   -0.6569   -0.5695    2.1046 H   0  0  0  0  0  0  0  0  0  0  0  0
   -1.2235    0.8635    1.1877 H   0  0  0  0  0  0  0  0  0  0  0  0
   -3.1711    0.0464    1.2536 H   0  0  0  0  0  0  0  0  0  0  0  0
  1  2  3  0
  2  3  1  0
  3  4  3  0
  4  5  1  0
  5  6  1  0
  6  7  2  0
  5  8  1  0
  8  9  1  0
  1 10  1  0
  5 11  1  0
  6 12  1  0
  8 13  1  0
  8 14  1  0
  9 15  1  0
M  END
