
     RDKit          3D

 16 17  0  0  0  0  0  0  0  0999 V2000
    2.9480   -0.2452    0.1157 C   0  0  0  0  0  0  0  0  0  0  0  0
    1.5702   -0.1035   -0.1620 C   0  0  0  0  0  0  0  0  0  0  0  0
    0.4112    0.0315   -0.3873 C   0  0  0  0  0  0  0  0  0  0  0  0
   -0.3079    0.3596    1.1354 C   0  0  0  0  0  0  0  0  0  0  0  0
   -0.2618   -1.0869    1.0059 C   0  0  0  0  0  0  0  0  0  0  0  0
   -0.7782   -0.6274   -0.4029 C   0  0  0  0  0  0  0  0  0  0  0  0
   -1.5185    0.4973    0.2680 C   0  0  0  0  0  0  0  0  0  0  0  0
   -1.7294    1.6938   -0.3283 O   0  0  0  0  0  0  0  0  0  0  0  0
    4.1770   -0.3841    0.3457 H   0  0  0  0  0  0  0  0  0  0  0  0
    0.3686    1.3865   -0.6792 H   0  0  0  0  0  0  0  0  0  0  0  0
    0.1436    1.0276    1.7656 H   0  0  0  0  0  0  0  0  0  0  0  0
    0.7666   -1.5871    0.7558 H   0  0  0  0  0  0  0  0  0  0  0  0
   -0.8313   -1.7274    1.6359 H   0  0  0  0  0  0  0  0  0  0  0  0
   -1.1779   -1.2976   -1.1203 H   0  0  0  0  0  0  0  0  0  0  0  0
   -2.4824    0.1564    0.7636 H   0  0  0  0  0  0  0  0  0  0  0  0
   -1.2976    1.9066   -1.2143 H   0  0  0  0  0  0  0  0  0  0  0  0
  1  2  3  0
  2  3  1  0
  3  4  1  0
  4  5  1  0
  5  6  1  0
  6  7  1  0
  7  8  1  0
  6  3  1  0
  7  4  1  0
  1  9  1  0
  3 10  1  0
  4 11  1  0
  5 12  1  0
  5 13  1  0
  6 14  1  0
  7 15  1  0
  8 16  1  0
M  END
