
     RDKit          3D

 19 19  0  0  0  0  0  0  0  0999 V2000
    1.9664    1.8406   -1.0970 C   0  0  0  0  0  0  0  0  0  0  0  0
    0.8242    0.9413   -1.1315 C   0  0  0  0  0  0  0  0  0  0  0  0
   -0.4696   -0.0486   -1.1612 C   0  0  0  0  0  0  0  0  0  0  0  0
    0.2580   -1.0545   -0.6340 O   0  0  0  0  0  0  0  0  0  0  0  0
    1.6154   -1.2042   -0.6087 C   0  0  0  0  0  0  0  0  0  0  0  0
   -0.9156    0.4994    0.4242 C   0  0  0  0  0  0  0  0  0  0  0  0
   -1.7545    1.6054    0.2267 O   0  0  0  0  0  0  0  0  0  0  0  0
   -1.7326   -0.7074    0.9707 C   0  0  0  0  0  0  0  0  0  0  0  0
   -0.4689   -0.1886    1.5703 C   0  0  0  0  0  0  0  0  0  0  0  0
    2.8847    2.5755   -1.0872 H   0  0  0  0  0  0  0  0  0  0  0  0
   -1.0027    0.7169   -1.5624 H   0  0  0  0  0  0  0  0  0  0  0  0
    2.0876   -0.2703   -0.1441 H   0  0  0  0  0  0  0  0  0  0  0  0
    1.9663   -2.0301    0.0372 H   0  0  0  0  0  0  0  0  0  0  0  0
    1.9650   -1.3901   -1.6711 H   0  0  0  0  0  0  0  0  0  0  0  0
   -2.5752    1.1900   -0.3076 H   0  0  0  0  0  0  0  0  0  0  0  0
   -1.7271   -1.6311    0.4250 H   0  0  0  0  0  0  0  0  0  0  0  0
   -2.7060   -0.3598    1.4201 H   0  0  0  0  0  0  0  0  0  0  0  0
   -0.6403    0.3331    2.6145 H   0  0  0  0  0  0  0  0  0  0  0  0
    0.4249   -0.8174    1.7160 H   0  0  0  0  0  0  0  0  0  0  0  0
  1  2  3  0
  2  3  1  0
  3  4  1  0
  4  5  1  0
  3  6  1  0
  6  7  1  0
  6  8  1  0
  8  9  1  0
  9  6  1  0
  1 10  1  0
  3 11  1  0
  5 12  1  0
  5 13  1  0
  5 14  1  0
  7 15  1  0
  8 16  1  0
  8 17  1  0
  9 18  1  0
  9 19  1  0
M  END
