
     RDKit          3D

 18 19  0  0  0  0  0  0  0  0999 V2000
    0.3508    2.5326    1.1413 C   0  0  0  0  0  0  0  0  0  0  0  0
    0.0052    1.4171    0.8505 C   0  0  0  0  0  0  0  0  0  0  0  0
   -0.4308    0.0784    0.4842 C   0  0  0  0  0  0  0  0  0  0  0  0
   -1.8377   -0.0755    0.0219 C   0  0  0  0  0  0  0  0  0  0  0  0
   -1.4177   -0.8109   -1.2385 C   0  0  0  0  0  0  0  0  0  0  0  0
   -0.0110   -0.3497   -0.9515 C   0  0  0  0  0  0  0  0  0  0  0  0
    0.6099   -0.9417    0.2650 C   0  0  0  0  0  0  0  0  0  0  0  0
    2.0471   -0.4930    0.4903 C   0  0  0  0  0  0  0  0  0  0  0  0
    0.6709    3.5262    1.4016 H   0  0  0  0  0  0  0  0  0  0  0  0
   -2.4687   -0.6564    0.7159 H   0  0  0  0  0  0  0  0  0  0  0  0
   -2.2817    0.9044   -0.2776 H   0  0  0  0  0  0  0  0  0  0  0  0
   -1.5136   -1.9130   -1.1007 H   0  0  0  0  0  0  0  0  0  0  0  0
   -1.8626   -0.4379   -2.1751 H   0  0  0  0  0  0  0  0  0  0  0  0
    0.4813    0.3916   -1.5745 H   0  0  0  0  0  0  0  0  0  0  0  0
    0.4555   -2.0117    0.4652 H   0  0  0  0  0  0  0  0  0  0  0  0
    2.4759   -0.8902    1.4167 H   0  0  0  0  0  0  0  0  0  0  0  0
    2.0904    0.6289    0.4306 H   0  0  0  0  0  0  0  0  0  0  0  0
    2.6368   -0.8989   -0.3652 H   0  0  0  0  0  0  0  0  0  0  0  0
  1  2  3  0
  2  3  1  0
  3  4  1  0
  4  5  1  0
  5  6  1  0
  6  7  1  0
  7  8  1  0
  6  3  1  0
  7  3  1  0
  1  9  1  0
  4 10  1  0
  4 11  1  0
  5 12  1  0
  5 13  1  0
  6 14  1  0
  7 15  1  0
  8 16  1  0
  8 17  1  0
  8 18  1  0
M  END
