
     RDKit          3D

 17 17  0  0  0  0  0  0  0  0999 V2000
    2.1347    1.8351   -0.8139 C   0  0  0  0  0  0  0  0  0  0  0  0
    0.5517    1.2674   -0.6758 C   0  0  0  0  0  0  0  0  0  0  0  0
   -0.3295    0.9553   -0.5945 C   0  0  0  0  0  0  0  0  0  0  0  0
   -1.0987    0.6351   -1.9291 O   0  0  0  0  0  0  0  0  0  0  0  0
   -1.1903    0.4262    0.5602 C   0  0  0  0  0  0  0  0  0  0  0  0
    0.0010   -0.5065    0.8585 C   0  0  0  0  0  0  0  0  0  0  0  0
   -0.2007   -1.5489    1.8355 C   0  0  0  0  0  0  0  0  0  0  0  0
    0.5390   -1.6785    2.8429 O   0  0  0  0  0  0  0  0  0  0  0  0
    0.1127   -0.8529   -0.5699 C   0  0  0  0  0  0  0  0  0  0  0  0
    3.2064    2.2107   -0.8895 H   0  0  0  0  0  0  0  0  0  0  0  0
   -0.4645   -0.0551   -2.3820 H   0  0  0  0  0  0  0  0  0  0  0  0
   -2.1349    0.1024    0.1600 H   0  0  0  0  0  0  0  0  0  0  0  0
   -1.2761    1.2776    1.3330 H   0  0  0  0  0  0  0  0  0  0  0  0
    0.9010    0.1721    1.1271 H   0  0  0  0  0  0  0  0  0  0  0  0
   -1.0115   -2.2903    1.7414 H   0  0  0  0  0  0  0  0  0  0  0  0
   -0.7571   -1.2153   -1.0237 H   0  0  0  0  0  0  0  0  0  0  0  0
    1.0168   -0.7344   -1.1938 H   0  0  0  0  0  0  0  0  0  0  0  0
  1  2  3  0
  2  3  1  0
  3  4  1  0
  3  5  1  0
  5  6  1  0
  6  7  1  0
  7  8  2  0
  6  9  1  0
  9  3  1  0
  1 10  1  0
  4 11  1  0
  5 12  1  0
  5 13  1  0
  6 14  1  0
  7 15  1  0
  9 16  1  0
  9 17  1  0
M  END
