
     RDKit          3D

 21 22  0  0  0  0  0  0  0  0999 V2000
   -2.1233   -2.4221    0.2607 C   0  0  0  0  0  0  0  0  0  0  0  0
   -1.5175   -1.3877    0.4263 C   0  0  0  0  0  0  0  0  0  0  0  0
   -0.7924   -0.1186    0.6481 C   0  0  0  0  0  0  0  0  0  0  0  0
   -1.2467    0.9674   -0.3271 C   0  0  0  0  0  0  0  0  0  0  0  0
   -0.5034    2.2246   -0.3467 C   0  0  0  0  0  0  0  0  0  0  0  0
    0.1196    1.0044   -0.8936 C   0  0  0  0  0  0  0  0  0  0  0  0
    0.5602   -0.0920    0.0423 C   0  0  0  0  0  0  0  0  0  0  0  0
    1.0474   -1.3208   -0.6464 C   0  0  0  0  0  0  0  0  0  0  0  0
    1.5991    0.4134    1.0257 C   0  0  0  0  0  0  0  0  0  0  0  0
   -2.6657   -3.3253    0.1297 H   0  0  0  0  0  0  0  0  0  0  0  0
   -0.8548    0.1995    1.7229 H   0  0  0  0  0  0  0  0  0  0  0  0
   -2.1254    0.7465   -0.9427 H   0  0  0  0  0  0  0  0  0  0  0  0
   -0.8270    2.9715   -1.1164 H   0  0  0  0  0  0  0  0  0  0  0  0
   -0.1808    2.6485    0.6434 H   0  0  0  0  0  0  0  0  0  0  0  0
    0.2894    0.8968   -1.9743 H   0  0  0  0  0  0  0  0  0  0  0  0
    0.7087   -1.4082   -1.7049 H   0  0  0  0  0  0  0  0  0  0  0  0
    2.1700   -1.2788   -0.6913 H   0  0  0  0  0  0  0  0  0  0  0  0
    0.7831   -2.2525   -0.0830 H   0  0  0  0  0  0  0  0  0  0  0  0
    1.9457   -0.4797    1.5922 H   0  0  0  0  0  0  0  0  0  0  0  0
    1.1532    1.1253    1.7322 H   0  0  0  0  0  0  0  0  0  0  0  0
    2.4607    0.8878    0.5030 H   0  0  0  0  0  0  0  0  0  0  0  0
  1  2  3  0
  2  3  1  0
  3  4  1  0
  4  5  1  0
  5  6  1  0
  6  7  1  0
  7  8  1  0
  7  9  1  0
  7  3  1  0
  6  4  1  0
  1 10  1  0
  3 11  1  0
  4 12  1  0
  5 13  1  0
  5 14  1  0
  6 15  1  0
  8 16  1  0
  8 17  1  0
  8 18  1  0
  9 19  1  0
  9 20  1  0
  9 21  1  0
M  END
