
     RDKit          3D

 21 21  0  0  0  0  0  0  0  0999 V2000
    2.6094   -1.5029   -0.2449 C   0  0  0  0  0  0  0  0  0  0  0  0
    1.7014   -0.7638    0.0293 C   0  0  0  0  0  0  0  0  0  0  0  0
    0.5870    0.1116    0.3672 C   0  0  0  0  0  0  0  0  0  0  0  0
   -0.7224   -0.5720    0.2534 C   0  0  0  0  0  0  0  0  0  0  0  0
   -0.9070   -1.0448   -1.1656 C   0  0  0  0  0  0  0  0  0  0  0  0
   -1.8984    0.2361    0.6674 C   0  0  0  0  0  0  0  0  0  0  0  0
    0.6946    1.5098   -0.1478 C   0  0  0  0  0  0  0  0  0  0  0  0
    1.6266    1.7591    0.8886 O   0  0  0  0  0  0  0  0  0  0  0  0
    0.8623    0.8497    1.6587 C   0  0  0  0  0  0  0  0  0  0  0  0
    3.4304   -2.1619   -0.4737 H   0  0  0  0  0  0  0  0  0  0  0  0
   -0.6938   -1.4865    0.8977 H   0  0  0  0  0  0  0  0  0  0  0  0
   -1.1839   -0.2445   -1.8666 H   0  0  0  0  0  0  0  0  0  0  0  0
   -1.7353   -1.7837   -1.1739 H   0  0  0  0  0  0  0  0  0  0  0  0
    0.0301   -1.5284   -1.5307 H   0  0  0  0  0  0  0  0  0  0  0  0
   -2.7955   -0.4445    0.6724 H   0  0  0  0  0  0  0  0  0  0  0  0
   -2.1609    1.0443   -0.0529 H   0  0  0  0  0  0  0  0  0  0  0  0
   -1.8359    0.6587    1.6728 H   0  0  0  0  0  0  0  0  0  0  0  0
    1.0781    1.6520   -1.1570 H   0  0  0  0  0  0  0  0  0  0  0  0
   -0.2200    2.0819    0.0761 H   0  0  0  0  0  0  0  0  0  0  0  0
    0.0231    1.3730    2.1139 H   0  0  0  0  0  0  0  0  0  0  0  0
    1.5100    0.2567    2.3395 H   0  0  0  0  0  0  0  0  0  0  0  0
  1  2  3  0
  2  3  1  0
  3  4  1  0
  4  5  1  0
  4  6  1  0
  3  7  1  0
  7  8  1  0
  8  9  1  0
  9  3  1  0
  1 10  1  0
  4 11  1  0
  5 12  1  0
  5 13  1  0
  5 14  1  0
  6 15  1  0
  6 16  1  0
  6 17  1  0
  7 18  1  0
  7 19  1  0
  9 20  1  0
  9 21  1  0
M  END
