
     RDKit          3D

 17 16  0  0  0  0  0  0  0  0999 V2000
   -2.9192    0.8327    0.2762 C   0  0  0  0  0  0  0  0  0  0  0  0
   -1.9742    0.0874    0.2569 C   0  0  0  0  0  0  0  0  0  0  0  0
   -0.8409   -0.8147    0.2536 C   0  0  0  0  0  0  0  0  0  0  0  0
    0.0723   -0.6011   -0.9441 C   0  0  0  0  0  0  0  0  0  0  0  0
    1.1701   -1.5874   -0.8042 C   0  0  0  0  0  0  0  0  0  0  0  0
    1.6170   -1.9669    0.2537 O   0  0  0  0  0  0  0  0  0  0  0  0
    0.5691    0.7836   -1.0220 C   0  0  0  0  0  0  0  0  0  0  0  0
    1.3737    1.3570    0.0904 C   0  0  0  0  0  0  0  0  0  0  0  0
    0.3164    1.4539   -2.0024 O   0  0  0  0  0  0  0  0  0  0  0  0
   -3.7672    1.4990    0.2827 H   0  0  0  0  0  0  0  0  0  0  0  0
   -1.2131   -1.8757    0.1623 H   0  0  0  0  0  0  0  0  0  0  0  0
   -0.2157   -0.7262    1.1653 H   0  0  0  0  0  0  0  0  0  0  0  0
   -0.5143   -0.8578   -1.8696 H   0  0  0  0  0  0  0  0  0  0  0  0
    1.5985   -1.9935   -1.7035 H   0  0  0  0  0  0  0  0  0  0  0  0
    1.3918    2.4643    0.0759 H   0  0  0  0  0  0  0  0  0  0  0  0
    2.4056    0.9886    0.0337 H   0  0  0  0  0  0  0  0  0  0  0  0
    0.9301    0.9568    1.0379 H   0  0  0  0  0  0  0  0  0  0  0  0
  1  2  3  0
  2  3  1  0
  3  4  1  0
  4  5  1  0
  5  6  2  0
  4  7  1  0
  7  8  1  0
  7  9  2  0
  1 10  1  0
  3 11  1  0
  3 12  1  0
  4 13  1  0
  5 14  1  0
  8 15  1  0
  8 16  1  0
  8 17  1  0
M  END
