
     RDKit          3D

 21 20  0  0  0  0  0  0  0  0999 V2000
   -0.4700   -0.9682    2.4555 C   0  0  0  0  0  0  0  0  0  0  0  0
   -0.2776   -0.5746    1.2561 C   0  0  0  0  0  0  0  0  0  0  0  0
   -0.1259   -0.2350    0.2767 C   0  0  0  0  0  0  0  0  0  0  0  0
   -0.1871   -1.6149   -0.6925 C   0  0  0  0  0  0  0  0  0  0  0  0
    1.2809    0.1874    0.1029 C   0  0  0  0  0  0  0  0  0  0  0  0
    1.8756    0.7238   -1.1686 C   0  0  0  0  0  0  0  0  0  0  0  0
   -1.2054    0.5623   -0.4968 C   0  0  0  0  0  0  0  0  0  0  0  0
   -1.9337    1.3901    0.5001 C   0  0  0  0  0  0  0  0  0  0  0  0
   -2.2246    2.4991    0.5019 O   0  0  0  0  0  0  0  0  0  0  0  0
   -0.6960   -1.4148    3.8497 H   0  0  0  0  0  0  0  0  0  0  0  0
   -0.7508   -2.3290   -0.0276 H   0  0  0  0  0  0  0  0  0  0  0  0
   -0.9101   -1.4042   -1.5516 H   0  0  0  0  0  0  0  0  0  0  0  0
    0.7598   -1.9741   -0.9635 H   0  0  0  0  0  0  0  0  0  0  0  0
    1.4906    0.9694    0.9006 H   0  0  0  0  0  0  0  0  0  0  0  0
    1.9686   -0.6398    0.4532 H   0  0  0  0  0  0  0  0  0  0  0  0
    2.4340    1.6863   -1.0206 H   0  0  0  0  0  0  0  0  0  0  0  0
    2.6284   -0.0057   -1.6142 H   0  0  0  0  0  0  0  0  0  0  0  0
    1.1330    0.9016   -1.9560 H   0  0  0  0  0  0  0  0  0  0  0  0
   -0.6785    1.3574   -1.1132 H   0  0  0  0  0  0  0  0  0  0  0  0
   -1.9174    0.1103   -1.1226 H   0  0  0  0  0  0  0  0  0  0  0  0
   -2.1936    0.7726    1.4304 H   0  0  0  0  0  0  0  0  0  0  0  0
  1  2  3  0
  2  3  1  0
  3  4  1  0
  3  5  1  0
  5  6  1  0
  3  7  1  0
  7  8  1  0
  8  9  2  0
  1 10  1  0
  4 11  1  0
  4 12  1  0
  4 13  1  0
  5 14  1  0
  5 15  1  0
  6 16  1  0
  6 17  1  0
  6 18  1  0
  7 19  1  0
  7 20  1  0
  8 21  1  0
M  END
