
     RDKit          3D

 19 19  0  0  0  0  0  0  0  0999 V2000
   -0.9309   -0.1205    2.9105 C   0  0  0  0  0  0  0  0  0  0  0  0
   -0.3972   -0.8865    2.1583 C   0  0  0  0  0  0  0  0  0  0  0  0
    0.2701   -1.8013    1.2374 C   0  0  0  0  0  0  0  0  0  0  0  0
    0.3737   -1.2638   -0.1593 C   0  0  0  0  0  0  0  0  0  0  0  0
   -0.9507   -0.9577   -0.8192 C   0  0  0  0  0  0  0  0  0  0  0  0
    0.0148    0.1585   -0.3559 C   0  0  0  0  0  0  0  0  0  0  0  0
    0.5335    0.9495   -1.4786 C   0  0  0  0  0  0  0  0  0  0  0  0
    0.6204    2.4257   -1.3453 C   0  0  0  0  0  0  0  0  0  0  0  0
    0.9083    0.4760   -2.5401 O   0  0  0  0  0  0  0  0  0  0  0  0
   -1.3907    0.5469    3.5743 H   0  0  0  0  0  0  0  0  0  0  0  0
   -0.3027   -2.7672    1.2832 H   0  0  0  0  0  0  0  0  0  0  0  0
    1.2670   -2.0255    1.6756 H   0  0  0  0  0  0  0  0  0  0  0  0
    1.1920   -1.6967   -0.7675 H   0  0  0  0  0  0  0  0  0  0  0  0
   -1.8735   -1.0041   -0.2348 H   0  0  0  0  0  0  0  0  0  0  0  0
   -0.9836   -1.2066   -1.8914 H   0  0  0  0  0  0  0  0  0  0  0  0
   -0.2813    0.7346    0.5311 H   0  0  0  0  0  0  0  0  0  0  0  0
    0.8729    2.6283   -0.2650 H   0  0  0  0  0  0  0  0  0  0  0  0
   -0.3337    2.9379   -1.5348 H   0  0  0  0  0  0  0  0  0  0  0  0
    1.3915    2.8726   -1.9785 H   0  0  0  0  0  0  0  0  0  0  0  0
  1  2  3  0
  2  3  1  0
  3  4  1  0
  4  5  1  0
  5  6  1  0
  6  7  1  0
  7  8  1  0
  7  9  2  0
  6  4  1  0
  1 10  1  0
  3 11  1  0
  3 12  1  0
  4 13  1  0
  5 14  1  0
  5 15  1  0
  6 16  1  0
  8 17  1  0
  8 18  1  0
  8 19  1  0
M  END
