
     RDKit          3D

 15 17  0  0  0  0  0  0  0  0999 V2000
    2.1628   -2.2662    1.5594 C   0  0  0  0  0  0  0  0  0  0  0  0
    1.2464   -1.4276    0.8338 C   0  0  0  0  0  0  0  0  0  0  0  0
    0.3710   -0.6469    0.1698 C   0  0  0  0  0  0  0  0  0  0  0  0
    1.0411   -0.0056   -1.0079 O   0  0  0  0  0  0  0  0  0  0  0  0
   -0.2796    0.3324   -1.4602 C   0  0  0  0  0  0  0  0  0  0  0  0
   -0.5132    1.6754   -0.9504 C   0  0  0  0  0  0  0  0  0  0  0  0
   -0.7128    1.6393    0.3699 C   0  0  0  0  0  0  0  0  0  0  0  0
   -0.6404    0.2140    0.7946 C   0  0  0  0  0  0  0  0  0  0  0  0
   -0.8317   -0.5752   -0.4450 C   0  0  0  0  0  0  0  0  0  0  0  0
    2.7491   -2.7854    2.0281 H   0  0  0  0  0  0  0  0  0  0  0  0
   -0.3506    0.1523   -2.5143 H   0  0  0  0  0  0  0  0  0  0  0  0
   -0.4931    2.5848   -1.5315 H   0  0  0  0  0  0  0  0  0  0  0  0
   -0.8882    2.4811    1.0140 H   0  0  0  0  0  0  0  0  0  0  0  0
   -1.2256   -0.0567    1.6978 H   0  0  0  0  0  0  0  0  0  0  0  0
   -1.6351   -1.3158   -0.5581 H   0  0  0  0  0  0  0  0  0  0  0  0
  1  2  3  0
  2  3  1  0
  3  4  1  0
  4  5  1  0
  5  6  1  0
  6  7  2  0
  7  8  1  0
  8  9  1  0
  8  3  1  0
  9  3  1  0
  9  5  1  0
  1 10  1  0
  5 11  1  0
  6 12  1  0
  7 13  1  0
  8 14  1  0
  9 15  1  0
M  END
