
     RDKit          3D

 19 19  0  0  0  0  0  0  0  0999 V2000
   -0.7612    2.1762    1.9259 C   0  0  0  0  0  0  0  0  0  0  0  0
   -0.5856    1.2376    1.1662 C   0  0  0  0  0  0  0  0  0  0  0  0
   -0.3778    0.1236    0.2321 C   0  0  0  0  0  0  0  0  0  0  0  0
    0.6564   -0.6373    0.7186 O   0  0  0  0  0  0  0  0  0  0  0  0
    1.7193   -0.7746   -0.1441 C   0  0  0  0  0  0  0  0  0  0  0  0
    2.3538    0.5576   -0.5171 C   0  0  0  0  0  0  0  0  0  0  0  0
   -1.6768   -0.6905    0.2672 C   0  0  0  0  0  0  0  0  0  0  0  0
   -2.4532   -0.9228   -0.9419 C   0  0  0  0  0  0  0  0  0  0  0  0
   -1.5372   -1.9028   -0.5628 O   0  0  0  0  0  0  0  0  0  0  0  0
   -0.9105    3.0033    2.5718 H   0  0  0  0  0  0  0  0  0  0  0  0
   -0.2246    0.5202   -0.7721 H   0  0  0  0  0  0  0  0  0  0  0  0
    2.5026   -1.3657    0.3949 H   0  0  0  0  0  0  0  0  0  0  0  0
    1.4913   -1.3369   -1.0657 H   0  0  0  0  0  0  0  0  0  0  0  0
    1.6911    1.1263   -1.2054 H   0  0  0  0  0  0  0  0  0  0  0  0
    2.5804    1.1204    0.4098 H   0  0  0  0  0  0  0  0  0  0  0  0
    3.3021    0.2846   -1.0641 H   0  0  0  0  0  0  0  0  0  0  0  0
   -2.0311   -1.0022    1.2552 H   0  0  0  0  0  0  0  0  0  0  0  0
   -3.5390   -1.1372   -0.8054 H   0  0  0  0  0  0  0  0  0  0  0  0
   -2.2001   -0.3798   -1.8631 H   0  0  0  0  0  0  0  0  0  0  0  0
  1  2  3  0
  2  3  1  0
  3  4  1  0
  4  5  1  0
  5  6  1  0
  3  7  1  0
  7  8  1  0
  8  9  1  0
  9  7  1  0
  1 10  1  0
  3 11  1  0
  5 12  1  0
  5 13  1  0
  6 14  1  0
  6 15  1  0
  6 16  1  0
  7 17  1  0
  8 18  1  0
  8 19  1  0
M  END
