
     RDKit          3D

 19 18  0  0  0  0  0  0  0  0999 V2000
    1.8390    1.2080    2.1803 C   0  0  0  0  0  0  0  0  0  0  0  0
    1.2280    0.3501    1.4765 C   0  0  0  0  0  0  0  0  0  0  0  0
    0.5144   -0.6618    0.6413 C   0  0  0  0  0  0  0  0  0  0  0  0
    1.4765   -1.9007    0.5368 C   0  0  0  0  0  0  0  0  0  0  0  0
    0.3697   -0.0449   -0.5538 O   0  0  0  0  0  0  0  0  0  0  0  0
   -0.8562    0.0982   -1.0400 C   0  0  0  0  0  0  0  0  0  0  0  0
   -1.6118    0.9926    0.0900 C   0  0  0  0  0  0  0  0  0  0  0  0
   -1.0840    0.7732   -2.2955 C   0  0  0  0  0  0  0  0  0  0  0  0
   -2.2241    0.9145   -2.7330 O   0  0  0  0  0  0  0  0  0  0  0  0
    2.3619    1.9239    2.7841 H   0  0  0  0  0  0  0  0  0  0  0  0
   -0.3882   -0.8598    1.1528 H   0  0  0  0  0  0  0  0  0  0  0  0
    2.4918   -1.5318    0.9336 H   0  0  0  0  0  0  0  0  0  0  0  0
    1.1890   -2.7122    1.1979 H   0  0  0  0  0  0  0  0  0  0  0  0
    1.6712   -2.1485   -0.5295 H   0  0  0  0  0  0  0  0  0  0  0  0
   -1.5281   -0.7988   -0.8841 H   0  0  0  0  0  0  0  0  0  0  0  0
   -1.9530    0.2083    0.8472 H   0  0  0  0  0  0  0  0  0  0  0  0
   -2.4057    1.4733   -0.4156 H   0  0  0  0  0  0  0  0  0  0  0  0
   -0.8687    1.5670    0.6088 H   0  0  0  0  0  0  0  0  0  0  0  0
   -0.2216    1.1494   -2.8450 H   0  0  0  0  0  0  0  0  0  0  0  0
  1  2  3  0
  2  3  1  0
  3  4  1  0
  3  5  1  0
  5  6  1  0
  6  7  1  0
  6  8  1  0
  8  9  2  0
  1 10  1  0
  3 11  1  0
  4 12  1  0
  4 13  1  0
  4 14  1  0
  6 15  1  0
  7 16  1  0
  7 17  1  0
  7 18  1  0
  8 19  1  0
M  END
