
     RDKit          3D

 15 16  0  0  0  0  0  0  0  0999 V2000
    3.2330    0.2510    0.5544 C   0  0  0  0  0  0  0  0  0  0  0  0
    2.2277   -0.1668    0.0336 C   0  0  0  0  0  0  0  0  0  0  0  0
    1.0005   -0.6849   -0.6025 C   0  0  0  0  0  0  0  0  0  0  0  0
    0.3547   -1.7150    0.1865 O   0  0  0  0  0  0  0  0  0  0  0  0
   -0.2329   -0.5155   -0.0165 C   0  0  0  0  0  0  0  0  0  0  0  0
   -1.5835   -0.3715   -0.6637 C   0  0  0  0  0  0  0  0  0  0  0  0
   -1.5878    0.9957    0.0408 C   0  0  0  0  0  0  0  0  0  0  0  0
   -0.6861    0.3717    1.0504 C   0  0  0  0  0  0  0  0  0  0  0  0
   -0.4252    0.5145    2.2302 O   0  0  0  0  0  0  0  0  0  0  0  0
    4.1197    0.6069    1.0257 H   0  0  0  0  0  0  0  0  0  0  0  0
    1.1328   -0.9463   -1.6784 H   0  0  0  0  0  0  0  0  0  0  0  0
   -2.3379   -1.0646   -0.2036 H   0  0  0  0  0  0  0  0  0  0  0  0
   -1.6167   -0.3264   -1.7508 H   0  0  0  0  0  0  0  0  0  0  0  0
   -2.5629    1.3174    0.4035 H   0  0  0  0  0  0  0  0  0  0  0  0
   -1.0356    1.7336   -0.6096 H   0  0  0  0  0  0  0  0  0  0  0  0
  1  2  3  0
  2  3  1  0
  3  4  1  0
  4  5  1  0
  5  6  1  0
  6  7  1  0
  7  8  1  0
  8  9  2  0
  5  3  1  0
  8  5  1  0
  1 10  1  0
  3 11  1  0
  6 12  1  0
  6 13  1  0
  7 14  1  0
  7 15  1  0
M  END
