
     RDKit          3D

 16 17  0  0  0  0  0  0  0  0999 V2000
    2.5034   -1.3730   -0.0961 C   0  0  0  0  0  0  0  0  0  0  0  0
    1.6935   -0.5101   -0.3298 C   0  0  0  0  0  0  0  0  0  0  0  0
    0.7072    0.5632   -0.5964 C   0  0  0  0  0  0  0  0  0  0  0  0
    1.2583    1.6596   -1.2402 O   0  0  0  0  0  0  0  0  0  0  0  0
   -0.2638    0.8568    0.4606 C   0  0  0  0  0  0  0  0  0  0  0  0
   -0.7705   -0.3804    1.1959 C   0  0  0  0  0  0  0  0  0  0  0  0
   -1.5355   -0.6853   -0.0927 C   0  0  0  0  0  0  0  0  0  0  0  0
   -0.6943    0.2222   -0.8899 C   0  0  0  0  0  0  0  0  0  0  0  0
    3.2288   -2.1189    0.1104 H   0  0  0  0  0  0  0  0  0  0  0  0
    1.3586    2.4365   -0.6015 H   0  0  0  0  0  0  0  0  0  0  0  0
   -0.7203    1.8239    0.6386 H   0  0  0  0  0  0  0  0  0  0  0  0
   -1.3954   -0.1902    2.0644 H   0  0  0  0  0  0  0  0  0  0  0  0
    0.0243   -1.1498    1.3070 H   0  0  0  0  0  0  0  0  0  0  0  0
   -1.5948   -1.7412   -0.3542 H   0  0  0  0  0  0  0  0  0  0  0  0
   -2.5819   -0.2864    0.0288 H   0  0  0  0  0  0  0  0  0  0  0  0
   -1.2176    0.8732   -1.6049 H   0  0  0  0  0  0  0  0  0  0  0  0
  1  2  3  0
  2  3  1  0
  3  4  1  0
  3  5  1  0
  5  6  1  0
  6  7  1  0
  7  8  1  0
  8  3  1  0
  8  5  1  0
  1  9  1  0
  4 10  1  0
  5 11  1  0
  6 12  1  0
  6 13  1  0
  7 14  1  0
  7 15  1  0
  8 16  1  0
M  END
