
     RDKit          3D

 21 22  0  0  0  0  0  0  0  0999 V2000
    2.6484   -0.3413    1.3608 C   0  0  0  0  0  0  0  0  0  0  0  0
    1.7385   -0.4695    0.5608 C   0  0  0  0  0  0  0  0  0  0  0  0
    0.6490   -0.6008   -0.3780 C   0  0  0  0  0  0  0  0  0  0  0  0
   -0.0024    0.7083   -0.7255 C   0  0  0  0  0  0  0  0  0  0  0  0
    0.4969    1.7100   -1.5150 C   0  0  0  0  0  0  0  0  0  0  0  0
   -0.4053    0.7854    0.7189 C   0  0  0  0  0  0  0  0  0  0  0  0
   -0.6728   -0.6513    0.3395 C   0  0  0  0  0  0  0  0  0  0  0  0
   -1.1683   -1.6468    1.1293 C   0  0  0  0  0  0  0  0  0  0  0  0
   -1.2474   -0.1008   -0.9378 C   0  0  0  0  0  0  0  0  0  0  0  0
    3.4507   -0.2243    2.0430 H   0  0  0  0  0  0  0  0  0  0  0  0
    0.7882   -1.3166   -1.1991 H   0  0  0  0  0  0  0  0  0  0  0  0
    0.1817    2.7367   -1.1829 H   0  0  0  0  0  0  0  0  0  0  0  0
    0.2010    1.6531   -2.5805 H   0  0  0  0  0  0  0  0  0  0  0  0
    1.6217    1.7598   -1.5015 H   0  0  0  0  0  0  0  0  0  0  0  0
   -1.3259    1.3639    0.8560 H   0  0  0  0  0  0  0  0  0  0  0  0
    0.4125    0.9455    1.4312 H   0  0  0  0  0  0  0  0  0  0  0  0
   -1.1168   -1.4278    2.2383 H   0  0  0  0  0  0  0  0  0  0  0  0
   -2.2665   -1.8634    0.9681 H   0  0  0  0  0  0  0  0  0  0  0  0
   -0.6801   -2.6400    1.0287 H   0  0  0  0  0  0  0  0  0  0  0  0
   -1.1067   -0.8050   -1.7779 H   0  0  0  0  0  0  0  0  0  0  0  0
   -2.1962    0.4248   -0.8765 H   0  0  0  0  0  0  0  0  0  0  0  0
  1  2  3  0
  2  3  1  0
  3  4  1  0
  4  5  1  0
  4  6  1  0
  6  7  1  0
  7  8  1  0
  7  9  1  0
  7  3  1  0
  9  4  1  0
  1 10  1  0
  3 11  1  0
  5 12  1  0
  5 13  1  0
  5 14  1  0
  6 15  1  0
  6 16  1  0
  8 17  1  0
  8 18  1  0
  8 19  1  0
  9 20  1  0
  9 21  1  0
M  END
