
     RDKit          3D

 15 16  0  0  0  0  0  0  0  0999 V2000
    2.6809   -0.9899   -0.2890 C   0  0  0  0  0  0  0  0  0  0  0  0
    1.7005   -0.4084   -0.2806 C   0  0  0  0  0  0  0  0  0  0  0  0
    0.5618    0.2498   -0.2873 C   0  0  0  0  0  0  0  0  0  0  0  0
    0.8140    1.6822    0.1608 C   0  0  0  0  0  0  0  0  0  0  0  0
    0.8072    2.6945   -0.3562 O   0  0  0  0  0  0  0  0  0  0  0  0
   -0.7011   -0.1307   -0.7805 C   0  0  0  0  0  0  0  0  0  0  0  0
   -2.1124   -0.3679   -0.0472 C   0  0  0  0  0  0  0  0  0  0  0  0
   -1.3580   -1.4147    0.4209 O   0  0  0  0  0  0  0  0  0  0  0  0
   -0.4700   -0.4243    0.6703 C   0  0  0  0  0  0  0  0  0  0  0  0
    4.0175   -1.7555   -0.3142 H   0  0  0  0  0  0  0  0  0  0  0  0
    1.0333    1.7566    1.3958 H   0  0  0  0  0  0  0  0  0  0  0  0
   -0.6882   -0.9617   -1.5597 H   0  0  0  0  0  0  0  0  0  0  0  0
   -2.9641   -0.5973   -0.7766 H   0  0  0  0  0  0  0  0  0  0  0  0
   -2.3837    0.4230    0.5930 H   0  0  0  0  0  0  0  0  0  0  0  0
   -0.9378    0.2442    1.4506 H   0  0  0  0  0  0  0  0  0  0  0  0
  1  2  3  0
  2  3  1  0
  3  4  1  0
  4  5  2  0
  3  6  1  0
  6  7  1  0
  7  8  1  0
  8  9  1  0
  9  3  1  0
  9  6  1  0
  1 10  1  0
  4 11  1  0
  6 12  1  0
  7 13  1  0
  7 14  1  0
  9 15  1  0
M  END
