
     RDKit          3D

 17 19  0  0  0  0  0  0  0  0999 V2000
    3.0156   -0.2162    0.9957 C   0  0  0  0  0  0  0  0  0  0  0  0
    1.9461   -0.1060    0.4587 C   0  0  0  0  0  0  0  0  0  0  0  0
    0.6684    0.0145   -0.1968 C   0  0  0  0  0  0  0  0  0  0  0  0
    0.2035   -1.2307   -0.9503 C   0  0  0  0  0  0  0  0  0  0  0  0
   -1.1930   -0.9152   -0.4300 C   0  0  0  0  0  0  0  0  0  0  0  0
   -1.5887    0.4892   -0.1743 C   0  0  0  0  0  0  0  0  0  0  0  0
   -0.7901    1.6205   -0.7871 C   0  0  0  0  0  0  0  0  0  0  0  0
    0.4725    1.1228   -0.9831 O   0  0  0  0  0  0  0  0  0  0  0  0
   -0.5524   -0.1616    0.6433 C   0  0  0  0  0  0  0  0  0  0  0  0
    3.9517   -0.3019    1.4821 H   0  0  0  0  0  0  0  0  0  0  0  0
    0.2847   -1.1678   -2.0443 H   0  0  0  0  0  0  0  0  0  0  0  0
    0.5992   -2.1822   -0.5509 H   0  0  0  0  0  0  0  0  0  0  0  0
   -1.9223   -1.7069   -0.2941 H   0  0  0  0  0  0  0  0  0  0  0  0
   -2.5611    0.6534    0.2670 H   0  0  0  0  0  0  0  0  0  0  0  0
   -0.7066    2.4006    0.0270 H   0  0  0  0  0  0  0  0  0  0  0  0
   -1.2599    2.0340   -1.6914 H   0  0  0  0  0  0  0  0  0  0  0  0
   -0.5678   -0.3465    1.6856 H   0  0  0  0  0  0  0  0  0  0  0  0
  1  2  3  0
  2  3  1  0
  3  4  1  0
  4  5  1  0
  5  6  1  0
  6  7  1  0
  7  8  1  0
  6  9  1  0
  8  3  1  0
  9  3  1  0
  9  5  1  0
  1 10  1  0
  4 11  1  0
  4 12  1  0
  5 13  1  0
  6 14  1  0
  7 15  1  0
  7 16  1  0
  9 17  1  0
M  END
