
     RDKit          3D

 21 21  0  0  0  0  0  0  0  0999 V2000
   -1.9077   -2.4280    1.6404 C   0  0  0  0  0  0  0  0  0  0  0  0
   -1.5920   -1.8928    0.5636 C   0  0  0  0  0  0  0  0  0  0  0  0
   -1.2871   -1.4047   -0.4331 C   0  0  0  0  0  0  0  0  0  0  0  0
    0.3601   -1.2939   -0.4008 C   0  0  0  0  0  0  0  0  0  0  0  0
    0.8578    0.0373   -0.6387 C   0  0  0  0  0  0  0  0  0  0  0  0
    2.0737    0.5477   -1.2725 C   0  0  0  0  0  0  0  0  0  0  0  0
   -0.0640    0.8867   -0.0425 C   0  0  0  0  0  0  0  0  0  0  0  0
    0.1432    2.3847   -0.0788 C   0  0  0  0  0  0  0  0  0  0  0  0
   -1.0932    0.2015    0.5575 C   0  0  0  0  0  0  0  0  0  0  0  0
   -2.2851   -3.0992    3.0195 H   0  0  0  0  0  0  0  0  0  0  0  0
   -1.7315   -0.7755   -1.1355 H   0  0  0  0  0  0  0  0  0  0  0  0
    0.5462   -1.3381    0.8667 H   0  0  0  0  0  0  0  0  0  0  0  0
    0.8560   -2.1701   -0.6310 H   0  0  0  0  0  0  0  0  0  0  0  0
    2.8911    0.4580   -0.4722 H   0  0  0  0  0  0  0  0  0  0  0  0
    2.0187    1.6257   -1.5189 H   0  0  0  0  0  0  0  0  0  0  0  0
    2.3816   -0.0474   -2.1599 H   0  0  0  0  0  0  0  0  0  0  0  0
   -0.6209    2.8184    0.6676 H   0  0  0  0  0  0  0  0  0  0  0  0
    0.1226    2.9033   -0.9829 H   0  0  0  0  0  0  0  0  0  0  0  0
    1.1485    2.5904    0.4015 H   0  0  0  0  0  0  0  0  0  0  0  0
   -2.1224    0.3439    0.5649 H   0  0  0  0  0  0  0  0  0  0  0  0
   -0.6955   -0.3479    1.4853 H   0  0  0  0  0  0  0  0  0  0  0  0
  1  2  3  0
  2  3  1  0
  3  4  1  0
  4  5  1  0
  5  6  1  0
  5  7  2  0
  7  8  1  0
  7  9  1  0
  9  3  1  0
  1 10  1  0
  3 11  1  0
  4 12  1  0
  4 13  1  0
  6 14  1  0
  6 15  1  0
  6 16  1  0
  8 17  1  0
  8 18  1  0
  8 19  1  0
  9 20  1  0
  9 21  1  0
M  END
