
     RDKit          3D

 19 20  0  0  0  0  0  0  0  0999 V2000
    2.9595    0.2689    1.5311 C   0  0  0  0  0  0  0  0  0  0  0  0
    1.9275   -0.1524    1.4173 C   0  0  0  0  0  0  0  0  0  0  0  0
    0.5912   -0.6730    1.2807 C   0  0  0  0  0  0  0  0  0  0  0  0
    0.0130   -0.1248    0.1032 C   0  0  0  0  0  0  0  0  0  0  0  0
    0.5027   -0.0857   -1.2691 C   0  0  0  0  0  0  0  0  0  0  0  0
   -0.9622    0.3282   -1.3934 C   0  0  0  0  0  0  0  0  0  0  0  0
   -0.7678    1.0880   -0.1486 C   0  0  0  0  0  0  0  0  0  0  0  0
   -1.2219   -0.8548   -0.5144 C   0  0  0  0  0  0  0  0  0  0  0  0
   -2.3621   -0.8264    0.2343 O   0  0  0  0  0  0  0  0  0  0  0  0
    4.1635    0.7748    1.6488 H   0  0  0  0  0  0  0  0  0  0  0  0
    0.5666   -1.7038    1.4532 H   0  0  0  0  0  0  0  0  0  0  0  0
    0.0438   -0.1603    2.1713 H   0  0  0  0  0  0  0  0  0  0  0  0
    1.1425    0.8586   -1.4026 H   0  0  0  0  0  0  0  0  0  0  0  0
    0.7680   -0.9207   -1.8970 H   0  0  0  0  0  0  0  0  0  0  0  0
   -1.3813    0.5512   -2.2701 H   0  0  0  0  0  0  0  0  0  0  0  0
   -0.1981    2.0020   -0.3164 H   0  0  0  0  0  0  0  0  0  0  0  0
   -1.6907    1.1846    0.5308 H   0  0  0  0  0  0  0  0  0  0  0  0
   -0.9253   -1.8300   -0.8749 H   0  0  0  0  0  0  0  0  0  0  0  0
   -3.1689   -1.2045   -0.2840 H   0  0  0  0  0  0  0  0  0  0  0  0
  1  2  3  0
  2  3  1  0
  3  4  1  0
  4  5  1  0
  5  6  1  0
  6  7  1  0
  6  8  1  0
  8  9  1  0
  7  4  1  0
  8  4  1  0
  1 10  1  0
  3 11  1  0
  3 12  1  0
  5 13  1  0
  5 14  1  0
  6 15  1  0
  7 16  1  0
  7 17  1  0
  8 18  1  0
  9 19  1  0
M  END
