
     RDKit          3D

 19 19  0  0  0  0  0  0  0  0999 V2000
    3.2912   -0.2568    0.4135 C   0  0  0  0  0  0  0  0  0  0  0  0
    2.3416   -0.5957   -0.3332 C   0  0  0  0  0  0  0  0  0  0  0  0
    1.1746   -0.9950   -1.2732 C   0  0  0  0  0  0  0  0  0  0  0  0
    0.0721    0.0181   -0.7472 C   0  0  0  0  0  0  0  0  0  0  0  0
   -0.2829    0.1054    0.7164 C   0  0  0  0  0  0  0  0  0  0  0  0
   -0.5436    1.4608    1.2782 C   0  0  0  0  0  0  0  0  0  0  0  0
   -1.1631   -0.6882   -0.0915 C   0  0  0  0  0  0  0  0  0  0  0  0
   -2.5265   -0.3318   -0.4851 C   0  0  0  0  0  0  0  0  0  0  0  0
   -2.9330    0.8570   -0.4306 O   0  0  0  0  0  0  0  0  0  0  0  0
    4.1912    0.0849    1.1202 H   0  0  0  0  0  0  0  0  0  0  0  0
    1.4691   -0.7760   -2.2865 H   0  0  0  0  0  0  0  0  0  0  0  0
    0.7827   -1.9008   -1.1290 H   0  0  0  0  0  0  0  0  0  0  0  0
   -0.1859    0.8025   -1.4508 H   0  0  0  0  0  0  0  0  0  0  0  0
    0.4364   -0.4742    1.3470 H   0  0  0  0  0  0  0  0  0  0  0  0
   -1.0904    1.3606    2.2467 H   0  0  0  0  0  0  0  0  0  0  0  0
    0.4227    2.0413    1.4209 H   0  0  0  0  0  0  0  0  0  0  0  0
   -1.1567    2.1241    0.6384 H   0  0  0  0  0  0  0  0  0  0  0  0
   -1.0245   -1.8200   -0.1163 H   0  0  0  0  0  0  0  0  0  0  0  0
   -3.2750   -1.0161   -0.8378 H   0  0  0  0  0  0  0  0  0  0  0  0
  1  2  3  0
  2  3  1  0
  3  4  1  0
  4  5  1  0
  5  6  1  0
  5  7  1  0
  7  8  1  0
  8  9  2  0
  7  4  1  0
  1 10  1  0
  3 11  1  0
  3 12  1  0
  4 13  1  0
  5 14  1  0
  6 15  1  0
  6 16  1  0
  6 17  1  0
  7 18  1  0
  8 19  1  0
M  END
