
     RDKit          3D

 18 18  0  0  0  0  0  0  0  0999 V2000
    0.8995    2.4339    0.5632 C   0  0  0  0  0  0  0  0  0  0  0  0
    0.6602    1.2600    0.4031 C   0  0  0  0  0  0  0  0  0  0  0  0
    0.3822   -0.1568    0.1888 C   0  0  0  0  0  0  0  0  0  0  0  0
   -0.0869   -0.4497   -1.2040 C   0  0  0  0  0  0  0  0  0  0  0  0
   -1.3676    0.3494   -1.4231 C   0  0  0  0  0  0  0  0  0  0  0  0
    1.3290   -1.1193    0.8023 C   0  0  0  0  0  0  0  0  0  0  0  0
    0.2569   -1.8521    1.2931 O   0  0  0  0  0  0  0  0  0  0  0  0
   -0.5025   -0.6840    1.2814 C   0  0  0  0  0  0  0  0  0  0  0  0
    1.1108    3.4635    0.7219 H   0  0  0  0  0  0  0  0  0  0  0  0
    0.6695   -0.0511   -1.9142 H   0  0  0  0  0  0  0  0  0  0  0  0
   -0.2431   -1.5233   -1.3626 H   0  0  0  0  0  0  0  0  0  0  0  0
   -1.6283    0.4253   -2.4923 H   0  0  0  0  0  0  0  0  0  0  0  0
   -1.1565    1.3710   -1.0040 H   0  0  0  0  0  0  0  0  0  0  0  0
   -2.1745   -0.1579   -0.8434 H   0  0  0  0  0  0  0  0  0  0  0  0
    1.9638   -1.7116    0.1210 H   0  0  0  0  0  0  0  0  0  0  0  0
    1.8889   -0.6563    1.6551 H   0  0  0  0  0  0  0  0  0  0  0  0
   -0.4332   -0.1058    2.2306 H   0  0  0  0  0  0  0  0  0  0  0  0
   -1.5682   -0.8353    0.9831 H   0  0  0  0  0  0  0  0  0  0  0  0
  1  2  3  0
  2  3  1  0
  3  4  1  0
  4  5  1  0
  3  6  1  0
  6  7  1  0
  7  8  1  0
  8  3  1  0
  1  9  1  0
  4 10  1  0
  4 11  1  0
  5 12  1  0
  5 13  1  0
  5 14  1  0
  6 15  1  0
  6 16  1  0
  8 17  1  0
  8 18  1  0
M  END
