
     RDKit          3D

 19 20  0  0  0  0  0  0  0  0999 V2000
    0.8855   -2.2877    2.5038 C   0  0  0  0  0  0  0  0  0  0  0  0
    0.6075   -1.6103    1.2413 C   0  0  0  0  0  0  0  0  0  0  0  0
    0.4026   -1.0672    0.2247 C   0  0  0  0  0  0  0  0  0  0  0  0
    1.5934   -1.3549   -0.7852 C   0  0  0  0  0  0  0  0  0  0  0  0
   -0.8550   -0.6771   -0.2167 C   0  0  0  0  0  0  0  0  0  0  0  0
   -0.8723    0.1446    1.0215 O   0  0  0  0  0  0  0  0  0  0  0  0
    0.3524    0.5277    0.2860 C   0  0  0  0  0  0  0  0  0  0  0  0
   -0.4948    0.5524   -0.8806 C   0  0  0  0  0  0  0  0  0  0  0  0
   -1.7286    1.5458   -0.6744 C   0  0  0  0  0  0  0  0  0  0  0  0
    1.1359   -2.8467    3.5417 H   0  0  0  0  0  0  0  0  0  0  0  0
    2.4862   -1.0719   -0.0856 H   0  0  0  0  0  0  0  0  0  0  0  0
    1.6268   -0.5333   -1.4952 H   0  0  0  0  0  0  0  0  0  0  0  0
    1.5626   -2.3401   -1.1304 H   0  0  0  0  0  0  0  0  0  0  0  0
   -1.7347   -1.2435   -0.3992 H   0  0  0  0  0  0  0  0  0  0  0  0
    1.0489    1.0974    0.6868 H   0  0  0  0  0  0  0  0  0  0  0  0
   -0.1256    0.5936   -1.9520 H   0  0  0  0  0  0  0  0  0  0  0  0
   -2.4168    1.2873   -1.5074 H   0  0  0  0  0  0  0  0  0  0  0  0
   -1.3037    2.5567   -0.6612 H   0  0  0  0  0  0  0  0  0  0  0  0
   -2.1704    1.2209    0.2821 H   0  0  0  0  0  0  0  0  0  0  0  0
  1  2  3  0
  2  3  1  0
  3  4  1  0
  3  5  1  0
  5  6  1  0
  6  7  1  0
  7  8  1  0
  8  9  1  0
  7  3  1  0
  8  5  1  0
  1 10  1  0
  4 11  1  0
  4 12  1  0
  4 13  1  0
  5 14  1  0
  7 15  1  0
  8 16  1  0
  9 17  1  0
  9 18  1  0
  9 19  1  0
M  END
