
     RDKit          3D

 21 21  0  0  0  0  0  0  0  0999 V2000
    2.9026    1.6825   -0.2914 C   0  0  0  0  0  0  0  0  0  0  0  0
    1.8872    1.1496   -0.6694 C   0  0  0  0  0  0  0  0  0  0  0  0
    0.6773    0.4869   -1.1283 C   0  0  0  0  0  0  0  0  0  0  0  0
   -0.4546    1.3156   -1.0206 O   0  0  0  0  0  0  0  0  0  0  0  0
   -0.7708    0.7946    0.2151 C   0  0  0  0  0  0  0  0  0  0  0  0
   -2.2330    0.5246    0.4660 C   0  0  0  0  0  0  0  0  0  0  0  0
    0.0823   -0.3860   -0.0784 C   0  0  0  0  0  0  0  0  0  0  0  0
    0.9499   -0.7709    1.0722 C   0  0  0  0  0  0  0  0  0  0  0  0
   -0.6084   -1.5832   -0.6806 C   0  0  0  0  0  0  0  0  0  0  0  0
    3.8046    2.1704    0.0346 H   0  0  0  0  0  0  0  0  0  0  0  0
    0.7799    0.0095   -2.1467 H   0  0  0  0  0  0  0  0  0  0  0  0
   -0.3443    1.4280    1.0309 H   0  0  0  0  0  0  0  0  0  0  0  0
   -2.8158    1.2556   -0.1338 H   0  0  0  0  0  0  0  0  0  0  0  0
   -2.5551   -0.4785    0.1196 H   0  0  0  0  0  0  0  0  0  0  0  0
   -2.5083    0.6930    1.5487 H   0  0  0  0  0  0  0  0  0  0  0  0
    0.4072   -1.5336    1.6704 H   0  0  0  0  0  0  0  0  0  0  0  0
    1.9158   -1.1491    0.6948 H   0  0  0  0  0  0  0  0  0  0  0  0
    1.1378    0.0922    1.7762 H   0  0  0  0  0  0  0  0  0  0  0  0
    0.1850   -2.2509   -1.0791 H   0  0  0  0  0  0  0  0  0  0  0  0
   -1.2752   -1.3213   -1.5042 H   0  0  0  0  0  0  0  0  0  0  0  0
   -1.1640   -2.1292    0.1042 H   0  0  0  0  0  0  0  0  0  0  0  0
  1  2  3  0
  2  3  1  0
  3  4  1  0
  4  5  1  0
  5  6  1  0
  5  7  1  0
  7  8  1  0
  7  9  1  0
  7  3  1  0
  1 10  1  0
  3 11  1  0
  5 12  1  0
  6 13  1  0
  6 14  1  0
  6 15  1  0
  8 16  1  0
  8 17  1  0
  8 18  1  0
  9 19  1  0
  9 20  1  0
  9 21  1  0
M  END
