
     RDKit          3D

 19 20  0  0  0  0  0  0  0  0999 V2000
    2.3496    1.3817   -0.6754 C   0  0  0  0  0  0  0  0  0  0  0  0
    1.4324    0.9367   -0.0358 C   0  0  0  0  0  0  0  0  0  0  0  0
    0.3419    0.4064    0.7535 C   0  0  0  0  0  0  0  0  0  0  0  0
    0.8210   -0.9315    1.3258 C   0  0  0  0  0  0  0  0  0  0  0  0
    0.2761   -1.8720    0.2428 C   0  0  0  0  0  0  0  0  0  0  0  0
   -1.0185   -1.3747    0.1036 O   0  0  0  0  0  0  0  0  0  0  0  0
   -0.8163   -0.0363   -0.1086 C   0  0  0  0  0  0  0  0  0  0  0  0
   -1.9255    0.9377   -0.2164 C   0  0  0  0  0  0  0  0  0  0  0  0
   -1.1096    0.5860   -1.4058 C   0  0  0  0  0  0  0  0  0  0  0  0
    3.1797    1.7868   -1.2328 H   0  0  0  0  0  0  0  0  0  0  0  0
    0.0419    1.0312    1.5933 H   0  0  0  0  0  0  0  0  0  0  0  0
    0.2706   -1.1436    2.2487 H   0  0  0  0  0  0  0  0  0  0  0  0
    1.9093   -0.9745    1.4028 H   0  0  0  0  0  0  0  0  0  0  0  0
    0.8311   -1.6859   -0.6759 H   0  0  0  0  0  0  0  0  0  0  0  0
    0.2900   -2.9198    0.5900 H   0  0  0  0  0  0  0  0  0  0  0  0
   -2.9568    0.5683   -0.0835 H   0  0  0  0  0  0  0  0  0  0  0  0
   -1.7841    1.9625    0.1992 H   0  0  0  0  0  0  0  0  0  0  0  0
   -1.6441   -0.0370   -2.1646 H   0  0  0  0  0  0  0  0  0  0  0  0
   -0.4887    1.3783   -1.8609 H   0  0  0  0  0  0  0  0  0  0  0  0
  1  2  3  0
  2  3  1  0
  3  4  1  0
  4  5  1  0
  5  6  1  0
  6  7  1  0
  7  8  1  0
  8  9  1  0
  7  3  1  0
  9  7  1  0
  1 10  1  0
  3 11  1  0
  4 12  1  0
  4 13  1  0
  5 14  1  0
  5 15  1  0
  8 16  1  0
  8 17  1  0
  9 18  1  0
  9 19  1  0
M  END
