
     RDKit          3D

 17 19  0  0  0  0  0  0  0  0999 V2000
    2.7362   -0.7291   -0.5688 C   0  0  0  0  0  0  0  0  0  0  0  0
    1.7104   -0.1725   -0.8567 C   0  0  0  0  0  0  0  0  0  0  0  0
    0.4872    0.4967   -1.2128 C   0  0  0  0  0  0  0  0  0  0  0  0
   -0.1849    1.2376   -0.1087 C   0  0  0  0  0  0  0  0  0  0  0  0
   -1.3977    0.8536   -0.7351 O   0  0  0  0  0  0  0  0  0  0  0  0
   -0.7432   -0.3547   -1.0080 C   0  0  0  0  0  0  0  0  0  0  0  0
   -0.6122   -0.9725    0.3636 C   0  0  0  0  0  0  0  0  0  0  0  0
   -1.4850   -0.4259    1.4258 C   0  0  0  0  0  0  0  0  0  0  0  0
   -0.2031    0.3514    1.1063 C   0  0  0  0  0  0  0  0  0  0  0  0
    3.6504   -1.2179   -0.2949 H   0  0  0  0  0  0  0  0  0  0  0  0
    0.4440    1.0367   -2.1531 H   0  0  0  0  0  0  0  0  0  0  0  0
   -0.0219    2.2906    0.0138 H   0  0  0  0  0  0  0  0  0  0  0  0
   -1.0998   -0.9531   -1.8163 H   0  0  0  0  0  0  0  0  0  0  0  0
    0.0459   -1.8254    0.5286 H   0  0  0  0  0  0  0  0  0  0  0  0
   -2.4322    0.0841    1.1024 H   0  0  0  0  0  0  0  0  0  0  0  0
   -1.5329   -0.8391    2.4292 H   0  0  0  0  0  0  0  0  0  0  0  0
    0.6388    0.2880    1.7847 H   0  0  0  0  0  0  0  0  0  0  0  0
  1  2  3  0
  2  3  1  0
  3  4  1  0
  4  5  1  0
  5  6  1  0
  6  7  1  0
  7  8  1  0
  8  9  1  0
  6  3  1  0
  9  7  1  0
  9  4  1  0
  1 10  1  0
  3 11  1  0
  4 12  1  0
  6 13  1  0
  7 14  1  0
  8 15  1  0
  8 16  1  0
  9 17  1  0
M  END
