
     RDKit          3D

 19 20  0  0  0  0  0  0  0  0999 V2000
    2.8265    1.9133   -0.2828 C   0  0  0  0  0  0  0  0  0  0  0  0
    1.4044    0.3950   -0.1296 C   0  0  0  0  0  0  0  0  0  0  0  0
    0.6981   -0.3505   -0.0537 C   0  0  0  0  0  0  0  0  0  0  0  0
    1.1505   -1.6456   -0.1996 O   0  0  0  0  0  0  0  0  0  0  0  0
    0.0103   -0.3034   -1.7095 C   0  0  0  0  0  0  0  0  0  0  0  0
   -0.9666   -0.9365   -0.7746 C   0  0  0  0  0  0  0  0  0  0  0  0
   -0.6983    0.2192    0.1418 C   0  0  0  0  0  0  0  0  0  0  0  0
   -1.7397    0.0903    1.1334 C   0  0  0  0  0  0  0  0  0  0  0  0
   -0.6069    0.7954    1.4021 C   0  0  0  0  0  0  0  0  0  0  0  0
    3.6601    2.7979   -0.3523 H   0  0  0  0  0  0  0  0  0  0  0  0
    1.8633   -2.0249    0.3282 H   0  0  0  0  0  0  0  0  0  0  0  0
    0.0841    0.6425   -2.0317 H   0  0  0  0  0  0  0  0  0  0  0  0
    0.7013   -1.1781   -2.1581 H   0  0  0  0  0  0  0  0  0  0  0  0
   -0.6170   -2.0013   -0.3804 H   0  0  0  0  0  0  0  0  0  0  0  0
   -1.9710   -1.0687   -1.0400 H   0  0  0  0  0  0  0  0  0  0  0  0
   -2.0957   -0.7836    1.7454 H   0  0  0  0  0  0  0  0  0  0  0  0
   -2.6525    0.6599    0.5908 H   0  0  0  0  0  0  0  0  0  0  0  0
   -0.4035    0.7776    2.5377 H   0  0  0  0  0  0  0  0  0  0  0  0
   -0.6472    2.0017    1.2328 H   0  0  0  0  0  0  0  0  0  0  0  0
  1  2  3  0
  2  3  1  0
  3  4  1  0
  3  5  1  0
  5  6  1  0
  6  7  1  0
  7  8  1  0
  8  9  1  0
  7  3  1  0
  9  7  1  0
  1 10  1  0
  4 11  1  0
  5 12  1  0
  5 13  1  0
  6 14  1  0
  6 15  1  0
  8 16  1  0
  8 17  1  0
  9 18  1  0
  9 19  1  0
M  END
