
     RDKit          3D

 14 13  0  0  0  0  0  0  0  0999 V2000
    4.1410   -1.7626   -1.3311 C   0  0  0  0  0  0  0  0  0  0  0  0
    3.1875   -1.3594   -0.9640 C   0  0  0  0  0  0  0  0  0  0  0  0
    1.8604   -0.7809   -0.4729 C   0  0  0  0  0  0  0  0  0  0  0  0
    0.8494   -0.3265   -0.1121 C   0  0  0  0  0  0  0  0  0  0  0  0
   -0.3714    0.2156    0.3189 C   0  0  0  0  0  0  0  0  0  0  0  0
   -1.0540   -0.6721    1.1264 O   0  0  0  0  0  0  0  0  0  0  0  0
   -1.0690    1.4669    0.1053 C   0  0  0  0  0  0  0  0  0  0  0  0
   -2.4451    1.3984    0.7828 C   0  0  0  0  0  0  0  0  0  0  0  0
    5.0599   -2.1313   -1.6795 H   0  0  0  0  0  0  0  0  0  0  0  0
   -1.3584    1.6202   -1.0092 H   0  0  0  0  0  0  0  0  0  0  0  0
   -0.4853    2.3484    0.3440 H   0  0  0  0  0  0  0  0  0  0  0  0
   -2.3430    1.7751    1.8335 H   0  0  0  0  0  0  0  0  0  0  0  0
   -3.1267    2.0696    0.2538 H   0  0  0  0  0  0  0  0  0  0  0  0
   -2.8453    0.3477    0.8041 H   0  0  0  0  0  0  0  0  0  0  0  0
  1  2  3  0
  2  3  1  0
  3  4  3  0
  4  5  1  0
  5  6  2  0
  5  7  1  0
  7  8  1  0
  1  9  1  0
  7 10  1  0
  7 11  1  0
  8 12  1  0
  8 13  1  0
  8 14  1  0
M  END
