
     RDKit          3D

 17 18  0  0  0  0  0  0  0  0999 V2000
    2.0525   -0.4064   -1.9692 C   0  0  0  0  0  0  0  0  0  0  0  0
    1.6895   -0.5664   -0.8267 C   0  0  0  0  0  0  0  0  0  0  0  0
    1.2576   -0.7353    0.5297 C   0  0  0  0  0  0  0  0  0  0  0  0
   -0.1684   -0.3935    0.7737 C   0  0  0  0  0  0  0  0  0  0  0  0
   -0.6178   -0.5493    2.0966 O   0  0  0  0  0  0  0  0  0  0  0  0
   -1.1384    0.7551    2.1474 C   0  0  0  0  0  0  0  0  0  0  0  0
   -0.7217    0.9589    0.7308 C   0  0  0  0  0  0  0  0  0  0  0  0
   -1.1163   -0.0603   -0.2913 C   0  0  0  0  0  0  0  0  0  0  0  0
   -0.6026    0.0805   -1.5708 O   0  0  0  0  0  0  0  0  0  0  0  0
    2.3645   -0.2488   -2.9870 H   0  0  0  0  0  0  0  0  0  0  0  0
    1.3928   -1.8096    0.8477 H   0  0  0  0  0  0  0  0  0  0  0  0
    1.8738   -0.1456    1.2412 H   0  0  0  0  0  0  0  0  0  0  0  0
   -0.5621    1.4135    2.8300 H   0  0  0  0  0  0  0  0  0  0  0  0
   -2.2034    0.7114    2.3737 H   0  0  0  0  0  0  0  0  0  0  0  0
   -0.1459    1.8480    0.4144 H   0  0  0  0  0  0  0  0  0  0  0  0
   -2.1348   -0.5229   -0.1921 H   0  0  0  0  0  0  0  0  0  0  0  0
   -1.2192   -0.3293   -2.2267 H   0  0  0  0  0  0  0  0  0  0  0  0
  1  2  3  0
  2  3  1  0
  3  4  1  0
  4  5  1  0
  5  6  1  0
  6  7  1  0
  7  8  1  0
  8  9  1  0
  7  4  1  0
  8  4  1  0
  1 10  1  0
  3 11  1  0
  3 12  1  0
  6 13  1  0
  6 14  1  0
  7 15  1  0
  8 16  1  0
  9 17  1  0
M  END
