
     RDKit          3D

 20 19  0  0  0  0  0  0  0  0999 V2000
   -2.6976    1.3983   -1.4823 C   0  0  0  0  0  0  0  0  0  0  0  0
   -2.4452    0.2461   -1.1963 C   0  0  0  0  0  0  0  0  0  0  0  0
   -2.1221   -1.1358   -0.8356 C   0  0  0  0  0  0  0  0  0  0  0  0
   -1.1224   -1.1351    0.2844 C   0  0  0  0  0  0  0  0  0  0  0  0
    0.0607   -0.4959   -0.0492 O   0  0  0  0  0  0  0  0  0  0  0  0
    0.9157   -0.5467    1.0421 C   0  0  0  0  0  0  0  0  0  0  0  0
    2.2344    0.1433    0.7279 C   0  0  0  0  0  0  0  0  0  0  0  0
    2.0386    1.5968    0.3715 C   0  0  0  0  0  0  0  0  0  0  0  0
   -2.9164    2.4195   -1.7169 H   0  0  0  0  0  0  0  0  0  0  0  0
   -1.7341   -1.7156   -1.6935 H   0  0  0  0  0  0  0  0  0  0  0  0
   -3.0215   -1.6826   -0.4715 H   0  0  0  0  0  0  0  0  0  0  0  0
   -0.8458   -2.2173    0.4579 H   0  0  0  0  0  0  0  0  0  0  0  0
   -1.5759   -0.7627    1.2138 H   0  0  0  0  0  0  0  0  0  0  0  0
    0.4950   -0.0650    1.9350 H   0  0  0  0  0  0  0  0  0  0  0  0
    1.1796   -1.5993    1.3051 H   0  0  0  0  0  0  0  0  0  0  0  0
    2.8552    0.0844    1.6441 H   0  0  0  0  0  0  0  0  0  0  0  0
    2.7722   -0.4088   -0.0844 H   0  0  0  0  0  0  0  0  0  0  0  0
    1.9878    2.2006    1.3189 H   0  0  0  0  0  0  0  0  0  0  0  0
    2.8855    1.9335   -0.2744 H   0  0  0  0  0  0  0  0  0  0  0  0
    1.0561    1.7423   -0.1345 H   0  0  0  0  0  0  0  0  0  0  0  0
  1  2  3  0
  2  3  1  0
  3  4  1  0
  4  5  1  0
  5  6  1  0
  6  7  1  0
  7  8  1  0
  1  9  1  0
  3 10  1  0
  3 11  1  0
  4 12  1  0
  4 13  1  0
  6 14  1  0
  6 15  1  0
  7 16  1  0
  7 17  1  0
  8 18  1  0
  8 19  1  0
  8 20  1  0
M  END
