
     RDKit          3D

 15 15  0  0  0  0  0  0  0  0999 V2000
   -1.9534   -1.7966    0.2973 C   0  0  0  0  0  0  0  0  0  0  0  0
   -1.0402   -1.0090    0.2987 C   0  0  0  0  0  0  0  0  0  0  0  0
    0.0805   -0.0697    0.3154 C   0  0  0  0  0  0  0  0  0  0  0  0
   -0.4450    1.3381    0.0828 C   0  0  0  0  0  0  0  0  0  0  0  0
   -1.2721    1.3055   -1.0462 O   0  0  0  0  0  0  0  0  0  0  0  0
    1.2253   -0.4263   -0.6072 C   0  0  0  0  0  0  0  0  0  0  0  0
    2.0092    0.0492    0.5584 C   0  0  0  0  0  0  0  0  0  0  0  0
    3.1787    0.4757    0.6729 O   0  0  0  0  0  0  0  0  0  0  0  0
    0.9334   -0.1722    1.4335 O   0  0  0  0  0  0  0  0  0  0  0  0
   -2.7607   -2.4835    0.2978 H   0  0  0  0  0  0  0  0  0  0  0  0
   -1.1123    1.6150    0.9345 H   0  0  0  0  0  0  0  0  0  0  0  0
    0.3764    2.0463   -0.0165 H   0  0  0  0  0  0  0  0  0  0  0  0
   -1.8314    0.4859   -0.9534 H   0  0  0  0  0  0  0  0  0  0  0  0
    1.2949    0.1685   -1.5207 H   0  0  0  0  0  0  0  0  0  0  0  0
    1.3166   -1.5270   -0.7473 H   0  0  0  0  0  0  0  0  0  0  0  0
  1  2  3  0
  2  3  1  0
  3  4  1  0
  4  5  1  0
  3  6  1  0
  6  7  1  0
  7  8  2  0
  7  9  1  0
  9  3  1  0
  1 10  1  0
  4 11  1  0
  4 12  1  0
  5 13  1  0
  6 14  1  0
  6 15  1  0
M  END
