
     RDKit          3D

 17 16  0  0  0  0  0  0  0  0999 V2000
    2.9062   -0.2299    2.7218 C   0  0  0  0  0  0  0  0  0  0  0  0
    1.6945   -0.2569    1.8057 C   0  0  0  0  0  0  0  0  0  0  0  0
    0.6951   -0.2757    1.0755 C   0  0  0  0  0  0  0  0  0  0  0  0
    1.3600   -0.0896   -0.1679 O   0  0  0  0  0  0  0  0  0  0  0  0
   -0.6557   -0.3883    0.9819 O   0  0  0  0  0  0  0  0  0  0  0  0
   -1.4541   -0.2395   -0.0492 C   0  0  0  0  0  0  0  0  0  0  0  0
   -0.6151   -1.4252   -0.9956 C   0  0  0  0  0  0  0  0  0  0  0  0
   -0.5947    1.1620   -0.6159 C   0  0  0  0  0  0  0  0  0  0  0  0
   -1.4442    1.7364   -1.5854 O   0  0  0  0  0  0  0  0  0  0  0  0
    3.5550   -0.2066    3.1986 H   0  0  0  0  0  0  0  0  0  0  0  0
   -2.0124   -0.0944   -0.8844 H   0  0  0  0  0  0  0  0  0  0  0  0
    0.1444   -1.7930   -0.3678 H   0  0  0  0  0  0  0  0  0  0  0  0
   -1.4879   -2.1821   -0.9378 H   0  0  0  0  0  0  0  0  0  0  0  0
   -0.4306   -0.9695   -1.9065 H   0  0  0  0  0  0  0  0  0  0  0  0
    0.2255    0.7439   -1.1327 H   0  0  0  0  0  0  0  0  0  0  0  0
   -0.4757    1.7603    0.2226 H   0  0  0  0  0  0  0  0  0  0  0  0
   -1.4102    2.7481   -1.3628 H   0  0  0  0  0  0  0  0  0  0  0  0
  1  2  3  0
  2  3  1  0
  3  4  2  0
  3  5  1  0
  5  6  1  0
  6  7  1  0
  6  8  1  0
  8  9  1  0
  1 10  1  0
  6 11  1  0
  7 12  1  0
  7 13  1  0
  7 14  1  0
  8 15  1  0
  8 16  1  0
  9 17  1  0
M  END
