
     RDKit          3D

 15 15  0  0  0  0  0  0  0  0999 V2000
    4.2400    0.7426    0.1914 C   0  0  0  0  0  0  0  0  0  0  0  0
    3.1430    0.5895    0.3084 C   0  0  0  0  0  0  0  0  0  0  0  0
    1.5720    0.3632    0.5027 C   0  0  0  0  0  0  0  0  0  0  0  0
    0.4134    0.1949    0.6325 C   0  0  0  0  0  0  0  0  0  0  0  0
   -0.6496    0.0576    0.7502 C   0  0  0  0  0  0  0  0  0  0  0  0
   -1.0014   -0.1639   -1.0953 C   0  0  0  0  0  0  0  0  0  0  0  0
   -2.2569    0.1016   -0.4385 C   0  0  0  0  0  0  0  0  0  0  0  0
   -3.2791    0.7083   -0.2477 O   0  0  0  0  0  0  0  0  0  0  0  0
   -1.6899   -1.1636    0.2859 C   0  0  0  0  0  0  0  0  0  0  0  0
    5.3402    0.8961    0.0753 H   0  0  0  0  0  0  0  0  0  0  0  0
   -1.5764    0.8969    0.8440 H   0  0  0  0  0  0  0  0  0  0  0  0
   -0.3236    0.5523   -1.4264 H   0  0  0  0  0  0  0  0  0  0  0  0
   -0.5304   -1.2098   -1.0935 H   0  0  0  0  0  0  0  0  0  0  0  0
   -1.1790   -1.8100   -0.3889 H   0  0  0  0  0  0  0  0  0  0  0  0
   -2.2224   -1.5957    1.1001 H   0  0  0  0  0  0  0  0  0  0  0  0
  1  2  3  0
  2  3  1  0
  3  4  3  0
  4  5  1  0
  5  6  1  0
  6  7  1  0
  7  8  2  0
  7  9  1  0
  9  5  1  0
  1 10  1  0
  5 11  1  0
  6 12  1  0
  6 13  1  0
  9 14  1  0
  9 15  1  0
M  END
