
     RDKit          3D

 17 17  0  0  0  0  0  0  0  0999 V2000
   -3.7232   -0.8122   -0.6180 C   0  0  0  0  0  0  0  0  0  0  0  0
   -2.5650   -0.6409   -0.3262 C   0  0  0  0  0  0  0  0  0  0  0  0
   -1.1963   -0.4201    0.0368 C   0  0  0  0  0  0  0  0  0  0  0  0
   -0.7420   -0.4631    1.2783 C   0  0  0  0  0  0  0  0  0  0  0  0
    0.7310   -0.1853    1.2824 C   0  0  0  0  0  0  0  0  0  0  0  0
    0.8684    0.6454    0.0261 C   0  0  0  0  0  0  0  0  0  0  0  0
    2.2412    0.5805   -0.4580 C   0  0  0  0  0  0  0  0  0  0  0  0
    3.3867    0.5399   -0.8793 C   0  0  0  0  0  0  0  0  0  0  0  0
   -0.0888   -0.1131   -0.9047 C   0  0  0  0  0  0  0  0  0  0  0  0
   -4.7459   -0.9820   -0.8794 H   0  0  0  0  0  0  0  0  0  0  0  0
   -1.2775   -0.6592    2.1934 H   0  0  0  0  0  0  0  0  0  0  0  0
    1.0502    0.3374    2.1851 H   0  0  0  0  0  0  0  0  0  0  0  0
    1.2549   -1.1342    1.1273 H   0  0  0  0  0  0  0  0  0  0  0  0
    0.4907    1.6679    0.1407 H   0  0  0  0  0  0  0  0  0  0  0  0
    4.3762    0.5050   -1.2590 H   0  0  0  0  0  0  0  0  0  0  0  0
    0.3521   -1.0881   -1.2074 H   0  0  0  0  0  0  0  0  0  0  0  0
   -0.4128    0.5098   -1.7382 H   0  0  0  0  0  0  0  0  0  0  0  0
  1  2  3  0
  2  3  1  0
  3  4  2  0
  4  5  1  0
  5  6  1  0
  6  7  1  0
  7  8  3  0
  6  9  1  0
  9  3  1  0
  1 10  1  0
  4 11  1  0
  5 12  1  0
  5 13  1  0
  6 14  1  0
  8 15  1  0
  9 16  1  0
  9 17  1  0
M  END
