
     RDKit          3D

 15 15  0  0  0  0  0  0  0  0999 V2000
    4.7130    1.0784   -0.3084 C   0  0  0  0  0  0  0  0  0  0  0  0
    3.5304    0.8357   -0.2439 C   0  0  0  0  0  0  0  0  0  0  0  0
    2.1483    0.5317   -0.1616 C   0  0  0  0  0  0  0  0  0  0  0  0
    0.9610    0.2563   -0.1069 C   0  0  0  0  0  0  0  0  0  0  0  0
   -0.4255   -0.0741   -0.0195 C   0  0  0  0  0  0  0  0  0  0  0  0
   -1.2866   -0.0567   -1.0200 C   0  0  0  0  0  0  0  0  0  0  0  0
   -2.6182   -0.4717   -0.4732 C   0  0  0  0  0  0  0  0  0  0  0  0
   -2.4847   -0.1489    0.8784 O   0  0  0  0  0  0  0  0  0  0  0  0
   -1.1770   -0.4980    1.1874 C   0  0  0  0  0  0  0  0  0  0  0  0
    5.7542    1.2874   -0.3742 H   0  0  0  0  0  0  0  0  0  0  0  0
   -1.0240    0.2161   -2.0323 H   0  0  0  0  0  0  0  0  0  0  0  0
   -2.7692   -1.5669   -0.5895 H   0  0  0  0  0  0  0  0  0  0  0  0
   -3.4496    0.0627   -0.9325 H   0  0  0  0  0  0  0  0  0  0  0  0
   -0.8190    0.1170    2.0335 H   0  0  0  0  0  0  0  0  0  0  0  0
   -1.0530   -1.5689    1.4211 H   0  0  0  0  0  0  0  0  0  0  0  0
  1  2  3  0
  2  3  1  0
  3  4  3  0
  4  5  1  0
  5  6  2  0
  6  7  1  0
  7  8  1  0
  8  9  1  0
  9  5  1  0
  1 10  1  0
  6 11  1  0
  7 12  1  0
  7 13  1  0
  9 14  1  0
  9 15  1  0
M  END
