
     RDKit          3D

 17 17  0  0  0  0  0  0  0  0999 V2000
   -2.4382    2.0616    0.4596 C   0  0  0  0  0  0  0  0  0  0  0  0
   -1.4655    0.8976    0.2254 C   0  0  0  0  0  0  0  0  0  0  0  0
   -0.6226   -0.0923    0.0438 C   0  0  0  0  0  0  0  0  0  0  0  0
   -1.5455   -1.3143   -0.1091 O   0  0  0  0  0  0  0  0  0  0  0  0
    0.1431   -0.3550    1.3638 C   0  0  0  0  0  0  0  0  0  0  0  0
    0.1812    0.0296    2.4818 O   0  0  0  0  0  0  0  0  0  0  0  0
    0.8215   -1.4025    0.4663 C   0  0  0  0  0  0  0  0  0  0  0  0
    0.4838   -0.4051   -0.7099 C   0  0  0  0  0  0  0  0  0  0  0  0
    1.5423    0.6738   -0.7774 C   0  0  0  0  0  0  0  0  0  0  0  0
   -3.1707    2.9633    0.6519 H   0  0  0  0  0  0  0  0  0  0  0  0
   -1.5116   -1.2515   -1.1978 H   0  0  0  0  0  0  0  0  0  0  0  0
    0.0826   -2.2057    0.4396 H   0  0  0  0  0  0  0  0  0  0  0  0
    1.8924   -1.5719    0.5960 H   0  0  0  0  0  0  0  0  0  0  0  0
    0.3980   -0.9358   -1.7000 H   0  0  0  0  0  0  0  0  0  0  0  0
    2.5625    0.3041   -0.6562 H   0  0  0  0  0  0  0  0  0  0  0  0
    1.2050    1.3324    0.1563 H   0  0  0  0  0  0  0  0  0  0  0  0
    1.4416    1.2715   -1.7340 H   0  0  0  0  0  0  0  0  0  0  0  0
  1  2  3  0
  2  3  1  0
  3  4  1  0
  3  5  1  0
  5  6  2  0
  5  7  1  0
  7  8  1  0
  8  9  1  0
  8  3  1  0
  1 10  1  0
  4 11  1  0
  7 12  1  0
  7 13  1  0
  8 14  1  0
  9 15  1  0
  9 16  1  0
  9 17  1  0
M  END
