
     RDKit          3D

 15 14  0  0  0  0  0  0  0  0999 V2000
    2.3106   -2.3526    1.2503 C   0  0  0  0  0  0  0  0  0  0  0  0
    2.1265   -1.2623    0.7350 C   0  0  0  0  0  0  0  0  0  0  0  0
    1.8819    0.0385    0.1107 C   0  0  0  0  0  0  0  0  0  0  0  0
    2.6592    0.1818   -1.0596 O   0  0  0  0  0  0  0  0  0  0  0  0
    0.4529    0.0796   -0.2080 C   0  0  0  0  0  0  0  0  0  0  0  0
   -0.7446    0.1061   -0.4547 C   0  0  0  0  0  0  0  0  0  0  0  0
   -2.1771    0.1202   -0.7609 C   0  0  0  0  0  0  0  0  0  0  0  0
   -2.7718    1.3167   -0.1110 C   0  0  0  0  0  0  0  0  0  0  0  0
   -2.0987    2.0947    0.5456 O   0  0  0  0  0  0  0  0  0  0  0  0
    2.4815   -3.3051    1.6952 H   0  0  0  0  0  0  0  0  0  0  0  0
    2.1791    0.8798    0.7719 H   0  0  0  0  0  0  0  0  0  0  0  0
    2.5696    1.1298   -1.3157 H   0  0  0  0  0  0  0  0  0  0  0  0
   -2.3615    0.2470   -1.8611 H   0  0  0  0  0  0  0  0  0  0  0  0
   -2.6750   -0.8180   -0.4607 H   0  0  0  0  0  0  0  0  0  0  0  0
   -3.8325    1.5439   -0.1969 H   0  0  0  0  0  0  0  0  0  0  0  0
  1  2  3  0
  2  3  1  0
  3  4  1  0
  3  5  1  0
  5  6  3  0
  6  7  1  0
  7  8  1  0
  8  9  2  0
  1 10  1  0
  3 11  1  0
  4 12  1  0
  7 13  1  0
  7 14  1  0
  8 15  1  0
M  END
