
     RDKit          3D

 15 16  0  0  0  0  0  0  0  0999 V2000
    0.1566   -1.1747    2.2060 C   0  0  0  0  0  0  0  0  0  0  0  0
    0.5069   -0.6263    1.2600 C   0  0  0  0  0  0  0  0  0  0  0  0
    0.9920    0.0898    0.0227 C   0  0  0  0  0  0  0  0  0  0  0  0
    0.9317    1.5034    0.1513 C   0  0  0  0  0  0  0  0  0  0  0  0
   -0.1177    1.0157   -0.6392 C   0  0  0  0  0  0  0  0  0  0  0  0
   -1.1333   -0.0653   -0.5258 C   0  0  0  0  0  0  0  0  0  0  0  0
   -0.3237   -1.1586   -1.2186 C   0  0  0  0  0  0  0  0  0  0  0  0
   -0.8396   -2.1327   -1.8115 O   0  0  0  0  0  0  0  0  0  0  0  0
    1.0071   -0.7970   -1.0218 O   0  0  0  0  0  0  0  0  0  0  0  0
   -0.2046   -1.7188    3.1278 H   0  0  0  0  0  0  0  0  0  0  0  0
    1.7563    2.1055   -0.2655 H   0  0  0  0  0  0  0  0  0  0  0  0
    0.6547    1.9322    1.1598 H   0  0  0  0  0  0  0  0  0  0  0  0
    0.0313    1.2144   -1.7520 H   0  0  0  0  0  0  0  0  0  0  0  0
   -2.0068    0.1580   -1.1742 H   0  0  0  0  0  0  0  0  0  0  0  0
   -1.4111   -0.3457    0.4810 H   0  0  0  0  0  0  0  0  0  0  0  0
  1  2  3  0
  2  3  1  0
  3  4  1  0
  4  5  1  0
  5  6  1  0
  6  7  1  0
  7  8  2  0
  7  9  1  0
  5  3  1  0
  9  3  1  0
  1 10  1  0
  4 11  1  0
  4 12  1  0
  5 13  1  0
  6 14  1  0
  6 15  1  0
M  END
