
     RDKit          3D

 17 16  0  0  0  0  0  0  0  0999 V2000
    4.1583    1.0942   -1.8702 C   0  0  0  0  0  0  0  0  0  0  0  0
    3.1352    0.4457   -1.4249 C   0  0  0  0  0  0  0  0  0  0  0  0
    1.9140   -0.3118   -0.8722 C   0  0  0  0  0  0  0  0  0  0  0  0
    1.1250   -0.8204   -0.5084 C   0  0  0  0  0  0  0  0  0  0  0  0
   -0.1115   -1.6198    0.0331 C   0  0  0  0  0  0  0  0  0  0  0  0
   -0.8416   -1.7609    0.3947 O   0  0  0  0  0  0  0  0  0  0  0  0
   -0.8097    0.2978    0.6758 C   0  0  0  0  0  0  0  0  0  0  0  0
   -1.2019    0.5668   -0.6253 C   0  0  0  0  0  0  0  0  0  0  0  0
   -1.9468   -0.3130    1.5152 C   0  0  0  0  0  0  0  0  0  0  0  0
    5.0221    1.6250   -2.2306 H   0  0  0  0  0  0  0  0  0  0  0  0
    0.0742    0.1705    1.2369 H   0  0  0  0  0  0  0  0  0  0  0  0
   -0.4062    0.2621   -1.3557 H   0  0  0  0  0  0  0  0  0  0  0  0
   -2.1501   -0.0421   -0.9730 H   0  0  0  0  0  0  0  0  0  0  0  0
   -1.4596    1.6078   -0.8444 H   0  0  0  0  0  0  0  0  0  0  0  0
   -1.5291   -0.3152    2.5636 H   0  0  0  0  0  0  0  0  0  0  0  0
   -2.7688    0.4085    1.5899 H   0  0  0  0  0  0  0  0  0  0  0  0
   -2.2034   -1.2951    1.0916 H   0  0  0  0  0  0  0  0  0  0  0  0
  1  2  3  0
  2  3  1  0
  3  4  3  0
  4  5  1  0
  5  6  2  0
  5  7  1  0
  7  8  1  0
  7  9  1  0
  1 10  1  0
  7 11  1  0
  8 12  1  0
  8 13  1  0
  8 14  1  0
  9 15  1  0
  9 16  1  0
  9 17  1  0
M  END
