
     RDKit          3D

 19 19  0  0  0  0  0  0  0  0999 V2000
    3.2045    1.3609    0.6656 C   0  0  0  0  0  0  0  0  0  0  0  0
    2.2613    0.7158    0.2345 C   0  0  0  0  0  0  0  0  0  0  0  0
    1.0661   -0.1099   -0.2870 C   0  0  0  0  0  0  0  0  0  0  0  0
    1.2727   -0.7501   -1.3879 O   0  0  0  0  0  0  0  0  0  0  0  0
   -0.1518    0.7639   -0.2472 C   0  0  0  0  0  0  0  0  0  0  0  0
   -1.1531    0.0922    0.3079 C   0  0  0  0  0  0  0  0  0  0  0  0
   -2.5175    0.7281    0.4609 C   0  0  0  0  0  0  0  0  0  0  0  0
   -0.7181   -1.2282    0.7829 C   0  0  0  0  0  0  0  0  0  0  0  0
    0.7821   -1.0315    0.9598 C   0  0  0  0  0  0  0  0  0  0  0  0
    4.0416    1.9554    1.0468 H   0  0  0  0  0  0  0  0  0  0  0  0
    0.4325   -1.0594   -1.8175 H   0  0  0  0  0  0  0  0  0  0  0  0
   -0.1029    1.7906   -0.6059 H   0  0  0  0  0  0  0  0  0  0  0  0
   -2.6268    1.1748    1.4656 H   0  0  0  0  0  0  0  0  0  0  0  0
   -3.3179   -0.0016    0.2040 H   0  0  0  0  0  0  0  0  0  0  0  0
   -2.6000    1.5777   -0.2719 H   0  0  0  0  0  0  0  0  0  0  0  0
   -0.8601   -1.9582   -0.0197 H   0  0  0  0  0  0  0  0  0  0  0  0
   -1.1777   -1.5235    1.7633 H   0  0  0  0  0  0  0  0  0  0  0  0
    0.9060   -0.5042    1.9400 H   0  0  0  0  0  0  0  0  0  0  0  0
    1.2588   -1.9927    0.9149 H   0  0  0  0  0  0  0  0  0  0  0  0
  1  2  3  0
  2  3  1  0
  3  4  1  0
  3  5  1  0
  5  6  2  0
  6  7  1  0
  6  8  1  0
  8  9  1  0
  9  3  1  0
  1 10  1  0
  4 11  1  0
  5 12  1  0
  7 13  1  0
  7 14  1  0
  7 15  1  0
  8 16  1  0
  8 17  1  0
  9 18  1  0
  9 19  1  0
M  END
