
     RDKit          3D

 15 17  0  0  0  0  0  0  0  0999 V2000
    3.1807    0.3602   -0.0732 C   0  0  0  0  0  0  0  0  0  0  0  0
    1.9787    0.3334   -0.1536 C   0  0  0  0  0  0  0  0  0  0  0  0
    0.5091    0.3247   -0.2607 C   0  0  0  0  0  0  0  0  0  0  0  0
   -0.0904    1.3462   -0.9624 O   0  0  0  0  0  0  0  0  0  0  0  0
   -0.3275    1.0988    0.4846 C   0  0  0  0  0  0  0  0  0  0  0  0
   -1.6699    0.3647    0.6055 C   0  0  0  0  0  0  0  0  0  0  0  0
   -1.2636   -1.0790    0.3664 C   0  0  0  0  0  0  0  0  0  0  0  0
   -0.1936   -1.5873    1.0631 O   0  0  0  0  0  0  0  0  0  0  0  0
   -0.0721   -1.0785   -0.3491 C   0  0  0  0  0  0  0  0  0  0  0  0
    4.2550    0.3865    0.0174 H   0  0  0  0  0  0  0  0  0  0  0  0
   -0.1975    1.9919    1.1019 H   0  0  0  0  0  0  0  0  0  0  0  0
   -2.3767    0.6746   -0.1676 H   0  0  0  0  0  0  0  0  0  0  0  0
   -2.0806    0.5182    1.6210 H   0  0  0  0  0  0  0  0  0  0  0  0
   -2.0942   -1.7993    0.1124 H   0  0  0  0  0  0  0  0  0  0  0  0
    0.4426   -1.8552   -0.9103 H   0  0  0  0  0  0  0  0  0  0  0  0
  1  2  3  0
  2  3  1  0
  3  4  1  0
  4  5  1  0
  5  6  1  0
  6  7  1  0
  7  8  1  0
  8  9  1  0
  5  3  1  0
  9  7  1  0
  9  3  1  0
  1 10  1  0
  5 11  1  0
  6 12  1  0
  6 13  1  0
  7 14  1  0
  9 15  1  0
M  END
