
     RDKit          3D

 17 17  0  0  0  0  0  0  0  0999 V2000
    2.1144    0.3913   -3.1432 C   0  0  0  0  0  0  0  0  0  0  0  0
    1.1962   -0.0840   -2.1792 C   0  0  0  0  0  0  0  0  0  0  0  0
    0.3779   -0.5147   -1.3063 C   0  0  0  0  0  0  0  0  0  0  0  0
   -0.1037    0.5274   -0.2826 C   0  0  0  0  0  0  0  0  0  0  0  0
   -0.9904    0.0713    0.7644 C   0  0  0  0  0  0  0  0  0  0  0  0
   -0.6268   -0.9791    1.7677 C   0  0  0  0  0  0  0  0  0  0  0  0
    0.3181    0.0084    2.2429 O   0  0  0  0  0  0  0  0  0  0  0  0
   -0.6907    0.9278    2.0097 C   0  0  0  0  0  0  0  0  0  0  0  0
   -1.1236    1.9322    2.5547 O   0  0  0  0  0  0  0  0  0  0  0  0
    2.7805    0.7480   -3.8667 H   0  0  0  0  0  0  0  0  0  0  0  0
    0.9024   -1.3140   -0.5907 H   0  0  0  0  0  0  0  0  0  0  0  0
   -0.5017   -1.1540   -1.6200 H   0  0  0  0  0  0  0  0  0  0  0  0
   -0.6953    1.2583   -0.9313 H   0  0  0  0  0  0  0  0  0  0  0  0
    0.7999    1.1066    0.0175 H   0  0  0  0  0  0  0  0  0  0  0  0
   -2.0745    0.0268    0.5046 H   0  0  0  0  0  0  0  0  0  0  0  0
   -1.4618   -1.0156    2.5535 H   0  0  0  0  0  0  0  0  0  0  0  0
   -0.2207   -1.9368    1.5050 H   0  0  0  0  0  0  0  0  0  0  0  0
  1  2  3  0
  2  3  1  0
  3  4  1  0
  4  5  1  0
  5  6  1  0
  6  7  1  0
  7  8  1  0
  8  9  2  0
  8  5  1  0
  1 10  1  0
  3 11  1  0
  3 12  1  0
  4 13  1  0
  4 14  1  0
  5 15  1  0
  6 16  1  0
  6 17  1  0
M  END
