
     RDKit          3D

 17 17  0  0  0  0  0  0  0  0999 V2000
    2.3643   -1.0263    3.0174 C   0  0  0  0  0  0  0  0  0  0  0  0
    1.4774   -0.8710    2.2140 C   0  0  0  0  0  0  0  0  0  0  0  0
    0.4240   -0.7068    1.2513 C   0  0  0  0  0  0  0  0  0  0  0  0
   -0.7290   -1.0777    1.5899 O   0  0  0  0  0  0  0  0  0  0  0  0
    0.7309   -0.1175   -0.0798 C   0  0  0  0  0  0  0  0  0  0  0  0
   -0.5166   -0.0470   -0.9062 C   0  0  0  0  0  0  0  0  0  0  0  0
   -1.1163   -1.2918   -1.1395 O   0  0  0  0  0  0  0  0  0  0  0  0
   -0.7333    1.0283   -1.9007 C   0  0  0  0  0  0  0  0  0  0  0  0
   -1.4131    1.1290   -0.5815 C   0  0  0  0  0  0  0  0  0  0  0  0
    3.1436   -1.1714    3.7467 H   0  0  0  0  0  0  0  0  0  0  0  0
    1.1688    0.8863    0.1044 H   0  0  0  0  0  0  0  0  0  0  0  0
    1.5062   -0.7959   -0.5369 H   0  0  0  0  0  0  0  0  0  0  0  0
   -1.5445   -1.2546   -2.0307 H   0  0  0  0  0  0  0  0  0  0  0  0
   -1.3449    0.7739   -2.7861 H   0  0  0  0  0  0  0  0  0  0  0  0
    0.0809    1.7386   -2.1170 H   0  0  0  0  0  0  0  0  0  0  0  0
   -1.0284    1.9182    0.1016 H   0  0  0  0  0  0  0  0  0  0  0  0
   -2.4699    0.8857   -0.4508 H   0  0  0  0  0  0  0  0  0  0  0  0
  1  2  3  0
  2  3  1  0
  3  4  2  0
  3  5  1  0
  5  6  1  0
  6  7  1  0
  6  8  1  0
  8  9  1  0
  9  6  1  0
  1 10  1  0
  5 11  1  0
  5 12  1  0
  7 13  1  0
  8 14  1  0
  8 15  1  0
  9 16  1  0
  9 17  1  0
M  END
