
     RDKit          3D

 17 17  0  0  0  0  0  0  0  0999 V2000
    3.1687   -0.4011    0.9361 C   0  0  0  0  0  0  0  0  0  0  0  0
    1.7763   -0.0991    0.6147 C   0  0  0  0  0  0  0  0  0  0  0  0
    0.4724    0.1814    0.2975 C   0  0  0  0  0  0  0  0  0  0  0  0
    0.2151    1.4021    0.1341 C   0  0  0  0  0  0  0  0  0  0  0  0
   -0.0478    2.7193   -0.0559 C   0  0  0  0  0  0  0  0  0  0  0  0
    0.2293   -0.2760   -1.3333 C   0  0  0  0  0  0  0  0  0  0  0  0
   -1.0287   -0.6484   -1.3057 C   0  0  0  0  0  0  0  0  0  0  0  0
   -1.7398   -0.6879   -0.1292 C   0  0  0  0  0  0  0  0  0  0  0  0
   -0.5643   -0.7217    0.9494 C   0  0  0  0  0  0  0  0  0  0  0  0
    4.1035   -0.5862    1.1567 H   0  0  0  0  0  0  0  0  0  0  0  0
   -0.3054    4.0838   -0.2296 H   0  0  0  0  0  0  0  0  0  0  0  0
    1.0066   -0.1332   -1.9908 H   0  0  0  0  0  0  0  0  0  0  0  0
   -1.4610   -0.8937   -2.2849 H   0  0  0  0  0  0  0  0  0  0  0  0
   -2.2583   -1.7577   -0.1487 H   0  0  0  0  0  0  0  0  0  0  0  0
   -2.5188   -0.0883    0.2849 H   0  0  0  0  0  0  0  0  0  0  0  0
   -0.8445   -0.2824    1.8848 H   0  0  0  0  0  0  0  0  0  0  0  0
   -0.2032   -1.8110    1.0103 H   0  0  0  0  0  0  0  0  0  0  0  0
  1  2  3  0
  2  3  1  0
  3  4  1  0
  4  5  3  0
  3  6  1  0
  6  7  2  0
  7  8  1  0
  8  9  1  0
  9  3  1  0
  1 10  1  0
  5 11  1  0
  6 12  1  0
  7 13  1  0
  8 14  1  0
  8 15  1  0
  9 16  1  0
  9 17  1  0
M  END
