
     RDKit          3D

 23 23  0  0  0  0  0  0  0  0999 V2000
    3.0890    1.0939    0.6481 C   0  0  0  0  0  0  0  0  0  0  0  0
    2.3333    0.5738    0.2812 C   0  0  0  0  0  0  0  0  0  0  0  0
    1.1053   -0.2480   -0.3249 C   0  0  0  0  0  0  0  0  0  0  0  0
    1.6184   -1.5836   -0.7506 C   0  0  0  0  0  0  0  0  0  0  0  0
    0.1233   -0.3207    0.8145 C   0  0  0  0  0  0  0  0  0  0  0  0
   -0.2329    1.0819    1.3250 C   0  0  0  0  0  0  0  0  0  0  0  0
   -1.2609    0.1841    0.7416 C   0  0  0  0  0  0  0  0  0  0  0  0
   -1.9643    0.6517   -0.4855 C   0  0  0  0  0  0  0  0  0  0  0  0
   -2.1547   -0.3637   -1.5605 C   0  0  0  0  0  0  0  0  0  0  0  0
    4.0058    1.6996    1.0892 H   0  0  0  0  0  0  0  0  0  0  0  0
    0.7436    0.3789   -1.1042 H   0  0  0  0  0  0  0  0  0  0  0  0
    2.4915   -1.4176   -1.4272 H   0  0  0  0  0  0  0  0  0  0  0  0
    1.8432   -2.2460    0.0997 H   0  0  0  0  0  0  0  0  0  0  0  0
    0.7603   -2.0272   -1.3530 H   0  0  0  0  0  0  0  0  0  0  0  0
    0.3564   -1.0553    1.5997 H   0  0  0  0  0  0  0  0  0  0  0  0
   -0.1510    1.2222    2.4429 H   0  0  0  0  0  0  0  0  0  0  0  0
    0.1549    1.9556    0.7876 H   0  0  0  0  0  0  0  0  0  0  0  0
   -1.9772   -0.2825    1.4834 H   0  0  0  0  0  0  0  0  0  0  0  0
   -2.9295    1.1514   -0.2255 H   0  0  0  0  0  0  0  0  0  0  0  0
   -1.3400    1.4738   -0.9604 H   0  0  0  0  0  0  0  0  0  0  0  0
   -2.7139    0.0735   -2.4364 H   0  0  0  0  0  0  0  0  0  0  0  0
   -1.1947   -0.7088   -1.9804 H   0  0  0  0  0  0  0  0  0  0  0  0
   -2.7060   -1.2871   -1.2436 H   0  0  0  0  0  0  0  0  0  0  0  0
  1  2  3  0
  2  3  1  0
  3  4  1  0
  3  5  1  0
  5  6  1  0
  6  7  1  0
  7  8  1  0
  8  9  1  0
  7  5  1  0
  1 10  1  0
  3 11  1  0
  4 12  1  0
  4 13  1  0
  4 14  1  0
  5 15  1  0
  6 16  1  0
  6 17  1  0
  7 18  1  0
  8 19  1  0
  8 20  1  0
  9 21  1  0
  9 22  1  0
  9 23  1  0
M  END
