
     RDKit          3D

 19 19  0  0  0  0  0  0  0  0999 V2000
   -1.5668    0.9949    2.3552 C   0  0  0  0  0  0  0  0  0  0  0  0
   -1.0108    0.5470    1.2750 C   0  0  0  0  0  0  0  0  0  0  0  0
   -0.4960    0.1045    0.2489 C   0  0  0  0  0  0  0  0  0  0  0  0
    0.7807    0.5250   -0.4611 C   0  0  0  0  0  0  0  0  0  0  0  0
    2.0325    0.0521    0.1727 C   0  0  0  0  0  0  0  0  0  0  0  0
    0.7498    0.3471   -1.8027 O   0  0  0  0  0  0  0  0  0  0  0  0
   -0.5709   -1.4544    0.0819 C   0  0  0  0  0  0  0  0  0  0  0  0
   -1.8781   -1.3383   -0.2314 O   0  0  0  0  0  0  0  0  0  0  0  0
   -1.6343   -0.0693   -0.9393 C   0  0  0  0  0  0  0  0  0  0  0  0
   -2.0981    1.4331    3.4357 H   0  0  0  0  0  0  0  0  0  0  0  0
    0.8692    1.7553   -0.3858 H   0  0  0  0  0  0  0  0  0  0  0  0
    2.7417    0.7706    0.5314 H   0  0  0  0  0  0  0  0  0  0  0  0
    2.5241   -0.5952   -0.7207 H   0  0  0  0  0  0  0  0  0  0  0  0
    1.8855   -0.8675    0.8514 H   0  0  0  0  0  0  0  0  0  0  0  0
    1.4790    0.8606   -2.2773 H   0  0  0  0  0  0  0  0  0  0  0  0
   -0.3578   -1.7500    1.2197 H   0  0  0  0  0  0  0  0  0  0  0  0
    0.1849   -1.8303   -0.6244 H   0  0  0  0  0  0  0  0  0  0  0  0
   -2.4402    0.6695   -0.8587 H   0  0  0  0  0  0  0  0  0  0  0  0
   -1.1945   -0.1545   -1.8703 H   0  0  0  0  0  0  0  0  0  0  0  0
  1  2  3  0
  2  3  1  0
  3  4  1  0
  4  5  1  0
  4  6  1  0
  3  7  1  0
  7  8  1  0
  8  9  1  0
  9  3  1  0
  1 10  1  0
  4 11  1  0
  5 12  1  0
  5 13  1  0
  5 14  1  0
  6 15  1  0
  7 16  1  0
  7 17  1  0
  9 18  1  0
  9 19  1  0
M  END
