
     RDKit          3D

 23 23  0  0  0  0  0  0  0  0999 V2000
    3.3086   -2.8442    0.2034 C   0  0  0  0  0  0  0  0  0  0  0  0
    2.1759   -2.7275   -0.2184 C   0  0  0  0  0  0  0  0  0  0  0  0
    0.8449   -2.5878   -0.7402 C   0  0  0  0  0  0  0  0  0  0  0  0
    0.1181   -1.4313   -0.0939 C   0  0  0  0  0  0  0  0  0  0  0  0
   -1.2974   -1.2249   -0.5977 C   0  0  0  0  0  0  0  0  0  0  0  0
   -0.2634   -0.2520   -0.9141 C   0  0  0  0  0  0  0  0  0  0  0  0
   -0.2024    1.1331   -0.3718 C   0  0  0  0  0  0  0  0  0  0  0  0
   -1.0505    1.3984    0.8215 C   0  0  0  0  0  0  0  0  0  0  0  0
   -0.8309    2.8693    1.2011 C   0  0  0  0  0  0  0  0  0  0  0  0
    4.2852   -2.9471    0.5866 H   0  0  0  0  0  0  0  0  0  0  0  0
    0.9187   -2.3357   -1.8363 H   0  0  0  0  0  0  0  0  0  0  0  0
    0.2372   -3.5187   -0.6527 H   0  0  0  0  0  0  0  0  0  0  0  0
    0.3256   -1.3136    0.9826 H   0  0  0  0  0  0  0  0  0  0  0  0
   -1.6700   -1.9087   -1.4123 H   0  0  0  0  0  0  0  0  0  0  0  0
   -2.0369   -1.1212    0.2090 H   0  0  0  0  0  0  0  0  0  0  0  0
    0.1432   -0.3080   -1.9713 H   0  0  0  0  0  0  0  0  0  0  0  0
   -0.5747    1.8198   -1.1889 H   0  0  0  0  0  0  0  0  0  0  0  0
    0.8273    1.4856   -0.1489 H   0  0  0  0  0  0  0  0  0  0  0  0
   -0.8134    0.7947    1.7026 H   0  0  0  0  0  0  0  0  0  0  0  0
   -2.1366    1.3106    0.6348 H   0  0  0  0  0  0  0  0  0  0  0  0
    0.2395    3.1068    1.1360 H   0  0  0  0  0  0  0  0  0  0  0  0
   -1.1669    3.0893    2.2203 H   0  0  0  0  0  0  0  0  0  0  0  0
   -1.3809    3.4833    0.4487 H   0  0  0  0  0  0  0  0  0  0  0  0
  1  2  3  0
  2  3  1  0
  3  4  1  0
  4  5  1  0
  5  6  1  0
  6  7  1  0
  7  8  1  0
  8  9  1  0
  6  4  1  0
  1 10  1  0
  3 11  1  0
  3 12  1  0
  4 13  1  0
  5 14  1  0
  5 15  1  0
  6 16  1  0
  7 17  1  0
  7 18  1  0
  8 19  1  0
  8 20  1  0
  9 21  1  0
  9 22  1  0
  9 23  1  0
M  END
