
     RDKit          3D

 15 15  0  0  0  0  0  0  0  0999 V2000
    3.3102   -0.8459    1.4973 C   0  0  0  0  0  0  0  0  0  0  0  0
    2.0141   -0.6275    1.2081 C   0  0  0  0  0  0  0  0  0  0  0  0
    0.6672   -0.3773    0.9148 C   0  0  0  0  0  0  0  0  0  0  0  0
    0.2914   -1.4085   -0.1779 O   0  0  0  0  0  0  0  0  0  0  0  0
    0.1112    0.0864   -0.3165 C   0  0  0  0  0  0  0  0  0  0  0  0
   -1.3704    0.1927   -0.6412 C   0  0  0  0  0  0  0  0  0  0  0  0
   -1.5759   -0.5179   -1.8219 O   0  0  0  0  0  0  0  0  0  0  0  0
   -1.7784    1.6260   -0.8898 C   0  0  0  0  0  0  0  0  0  0  0  0
   -2.1964    2.0229   -1.8600 O   0  0  0  0  0  0  0  0  0  0  0  0
    4.1780   -0.9776    1.6963 H   0  0  0  0  0  0  0  0  0  0  0  0
   -0.0514   -0.5928    1.7801 H   0  0  0  0  0  0  0  0  0  0  0  0
    0.7590    0.4427   -1.1353 H   0  0  0  0  0  0  0  0  0  0  0  0
   -2.0176   -0.2623    0.1246 H   0  0  0  0  0  0  0  0  0  0  0  0
   -0.7298   -0.9956   -2.0642 H   0  0  0  0  0  0  0  0  0  0  0  0
   -1.6114    2.2349    0.0334 H   0  0  0  0  0  0  0  0  0  0  0  0
  1  2  3  0
  2  3  1  0
  3  4  1  0
  4  5  1  0
  5  6  1  0
  6  7  1  0
  6  8  1  0
  8  9  2  0
  5  3  1  0
  1 10  1  0
  3 11  1  0
  5 12  1  0
  6 13  1  0
  7 14  1  0
  8 15  1  0
M  END
