
     RDKit          3D

 16 17  0  0  0  0  0  0  0  0999 V2000
    2.4221    0.9376   -0.5396 C   0  0  0  0  0  0  0  0  0  0  0  0
    1.5654    0.4408    0.1800 C   0  0  0  0  0  0  0  0  0  0  0  0
    0.5282   -0.1457    1.0217 C   0  0  0  0  0  0  0  0  0  0  0  0
   -0.8477    0.2113    0.5347 C   0  0  0  0  0  0  0  0  0  0  0  0
   -0.9049    1.2113   -0.5914 C   0  0  0  0  0  0  0  0  0  0  0  0
   -0.9849   -1.2423    0.0763 C   0  0  0  0  0  0  0  0  0  0  0  0
   -0.9474   -2.1641    1.1060 O   0  0  0  0  0  0  0  0  0  0  0  0
    0.2064   -1.5922    0.6362 C   0  0  0  0  0  0  0  0  0  0  0  0
    3.1665    1.3804   -1.1496 H   0  0  0  0  0  0  0  0  0  0  0  0
    0.7128   -0.0432    2.1025 H   0  0  0  0  0  0  0  0  0  0  0  0
   -1.5105    0.4343    1.3689 H   0  0  0  0  0  0  0  0  0  0  0  0
   -0.0272    1.1438   -1.2562 H   0  0  0  0  0  0  0  0  0  0  0  0
   -1.7946    0.9256   -1.2150 H   0  0  0  0  0  0  0  0  0  0  0  0
   -1.1071    2.2096   -0.2064 H   0  0  0  0  0  0  0  0  0  0  0  0
   -1.5188   -1.4730   -0.8400 H   0  0  0  0  0  0  0  0  0  0  0  0
    1.0416   -2.2342    0.3450 H   0  0  0  0  0  0  0  0  0  0  0  0
  1  2  3  0
  2  3  1  0
  3  4  1  0
  4  5  1  0
  4  6  1  0
  6  7  1  0
  7  8  1  0
  8  3  1  0
  8  6  1  0
  1  9  1  0
  3 10  1  0
  4 11  1  0
  5 12  1  0
  5 13  1  0
  5 14  1  0
  6 15  1  0
  8 16  1  0
M  END
