
     RDKit          3D

 19 20  0  0  0  0  0  0  0  0999 V2000
   -1.3563    2.0157   -1.1454 C   0  0  0  0  0  0  0  0  0  0  0  0
   -1.0046    0.8782   -0.9934 C   0  0  0  0  0  0  0  0  0  0  0  0
   -0.5844   -0.5264   -0.8112 C   0  0  0  0  0  0  0  0  0  0  0  0
   -1.7202   -1.3932   -0.3746 C   0  0  0  0  0  0  0  0  0  0  0  0
    0.5081   -0.6053    0.1905 C   0  0  0  0  0  0  0  0  0  0  0  0
    1.7706    0.1867   -0.1822 C   0  0  0  0  0  0  0  0  0  0  0  0
    1.5741    0.9165    1.1566 C   0  0  0  0  0  0  0  0  0  0  0  0
    1.6122    0.0355    2.2335 O   0  0  0  0  0  0  0  0  0  0  0  0
    0.4075    0.2776    1.3864 C   0  0  0  0  0  0  0  0  0  0  0  0
   -1.6728    3.0375   -1.3009 H   0  0  0  0  0  0  0  0  0  0  0  0
   -0.1648   -0.9116   -1.7875 H   0  0  0  0  0  0  0  0  0  0  0  0
   -2.0912   -1.9457   -1.2611 H   0  0  0  0  0  0  0  0  0  0  0  0
   -1.3348   -2.1638    0.3443 H   0  0  0  0  0  0  0  0  0  0  0  0
   -2.5545   -0.8333    0.0924 H   0  0  0  0  0  0  0  0  0  0  0  0
    0.7941   -1.6646    0.4143 H   0  0  0  0  0  0  0  0  0  0  0  0
    2.6840   -0.4263   -0.2120 H   0  0  0  0  0  0  0  0  0  0  0  0
    1.6159    0.8632   -1.0458 H   0  0  0  0  0  0  0  0  0  0  0  0
    1.9616    1.9300    1.2598 H   0  0  0  0  0  0  0  0  0  0  0  0
   -0.4447    0.3292    2.0359 H   0  0  0  0  0  0  0  0  0  0  0  0
  1  2  3  0
  2  3  1  0
  3  4  1  0
  3  5  1  0
  5  6  1  0
  6  7  1  0
  7  8  1  0
  8  9  1  0
  9  5  1  0
  9  7  1  0
  1 10  1  0
  3 11  1  0
  4 12  1  0
  4 13  1  0
  4 14  1  0
  5 15  1  0
  6 16  1  0
  6 17  1  0
  7 18  1  0
  9 19  1  0
M  END
