
     RDKit          3D

 19 19  0  0  0  0  0  0  0  0999 V2000
    0.9991   -2.1210    2.2908 C   0  0  0  0  0  0  0  0  0  0  0  0
    0.4178   -1.3162    1.5683 C   0  0  0  0  0  0  0  0  0  0  0  0
   -0.2946   -0.3242    0.7114 C   0  0  0  0  0  0  0  0  0  0  0  0
    0.3419   -0.0599   -0.6013 C   0  0  0  0  0  0  0  0  0  0  0  0
    1.7499    0.4676   -0.3519 C   0  0  0  0  0  0  0  0  0  0  0  0
   -0.3472    0.9384   -1.4634 C   0  0  0  0  0  0  0  0  0  0  0  0
   -1.6282    0.5969   -1.8142 O   0  0  0  0  0  0  0  0  0  0  0  0
   -1.7783   -0.2263    0.9539 C   0  0  0  0  0  0  0  0  0  0  0  0
   -0.8842    0.7541    1.3239 O   0  0  0  0  0  0  0  0  0  0  0  0
    1.4972   -2.8069    2.9299 H   0  0  0  0  0  0  0  0  0  0  0  0
    0.4867   -1.0437   -1.1074 H   0  0  0  0  0  0  0  0  0  0  0  0
    2.3428   -0.2391    0.2655 H   0  0  0  0  0  0  0  0  0  0  0  0
    1.7386    1.4376    0.1472 H   0  0  0  0  0  0  0  0  0  0  0  0
    2.3091    0.5865   -1.3122 H   0  0  0  0  0  0  0  0  0  0  0  0
    0.2499    1.1455   -2.3992 H   0  0  0  0  0  0  0  0  0  0  0  0
   -0.4048    1.9111   -0.9067 H   0  0  0  0  0  0  0  0  0  0  0  0
   -2.1826    1.3295   -2.1519 H   0  0  0  0  0  0  0  0  0  0  0  0
   -2.1652   -0.8693    1.8084 H   0  0  0  0  0  0  0  0  0  0  0  0
   -2.4477   -0.1607    0.1089 H   0  0  0  0  0  0  0  0  0  0  0  0
  1  2  3  0
  2  3  1  0
  3  4  1  0
  4  5  1  0
  4  6  1  0
  6  7  1  0
  3  8  1  0
  8  9  1  0
  9  3  1  0
  1 10  1  0
  4 11  1  0
  5 12  1  0
  5 13  1  0
  5 14  1  0
  6 15  1  0
  6 16  1  0
  7 17  1  0
  8 18  1  0
  8 19  1  0
M  END
