
     RDKit          3D

 21 21  0  0  0  0  0  0  0  0999 V2000
    4.1552   -0.8869   -1.2265 C   0  0  0  0  0  0  0  0  0  0  0  0
    2.9372   -1.0067   -1.2199 C   0  0  0  0  0  0  0  0  0  0  0  0
    1.4794   -1.1453   -1.1917 C   0  0  0  0  0  0  0  0  0  0  0  0
    0.8623    0.1004   -0.5517 C   0  0  0  0  0  0  0  0  0  0  0  0
    1.3986    0.1607    0.7486 O   0  0  0  0  0  0  0  0  0  0  0  0
   -0.6175   -0.1494   -0.4455 C   0  0  0  0  0  0  0  0  0  0  0  0
   -1.3658    0.9890    0.1663 C   0  0  0  0  0  0  0  0  0  0  0  0
   -2.8473    0.7882    0.2944 C   0  0  0  0  0  0  0  0  0  0  0  0
   -1.9494    0.9129    1.5174 C   0  0  0  0  0  0  0  0  0  0  0  0
    5.2081   -0.7727   -1.2171 H   0  0  0  0  0  0  0  0  0  0  0  0
    1.1056   -1.3011   -2.2225 H   0  0  0  0  0  0  0  0  0  0  0  0
    1.2358   -2.0524   -0.5978 H   0  0  0  0  0  0  0  0  0  0  0  0
    1.1357    0.9727   -1.1423 H   0  0  0  0  0  0  0  0  0  0  0  0
    0.9242   -0.5024    1.3038 H   0  0  0  0  0  0  0  0  0  0  0  0
   -1.0478   -0.3483   -1.4517 H   0  0  0  0  0  0  0  0  0  0  0  0
   -0.7583   -1.0854    0.1339 H   0  0  0  0  0  0  0  0  0  0  0  0
   -1.0822    2.0084   -0.1928 H   0  0  0  0  0  0  0  0  0  0  0  0
   -3.2700   -0.2015    0.0381 H   0  0  0  0  0  0  0  0  0  0  0  0
   -3.5388    1.6427    0.1343 H   0  0  0  0  0  0  0  0  0  0  0  0
   -2.0460    1.8609    2.1135 H   0  0  0  0  0  0  0  0  0  0  0  0
   -1.9191    0.0160    2.1468 H   0  0  0  0  0  0  0  0  0  0  0  0
  1  2  3  0
  2  3  1  0
  3  4  1  0
  4  5  1  0
  4  6  1  0
  6  7  1  0
  7  8  1  0
  8  9  1  0
  9  7  1  0
  1 10  1  0
  3 11  1  0
  3 12  1  0
  4 13  1  0
  5 14  1  0
  6 15  1  0
  6 16  1  0
  7 17  1  0
  8 18  1  0
  8 19  1  0
  9 20  1  0
  9 21  1  0
M  END
