
     RDKit          3D

 23 22  0  0  0  0  0  0  0  0999 V2000
    1.9875    2.7380    0.6678 C   0  0  0  0  0  0  0  0  0  0  0  0
    1.9229    1.6454   -0.0132 C   0  0  0  0  0  0  0  0  0  0  0  0
    1.8313    0.3559   -0.8425 C   0  0  0  0  0  0  0  0  0  0  0  0
    2.7248   -0.4880    0.0568 C   0  0  0  0  0  0  0  0  0  0  0  0
    0.5807    0.0272   -0.5761 O   0  0  0  0  0  0  0  0  0  0  0  0
   -0.6204    0.4033   -0.7935 C   0  0  0  0  0  0  0  0  0  0  0  0
   -1.8038   -0.4815   -0.2968 C   0  0  0  0  0  0  0  0  0  0  0  0
   -1.6739   -1.8651   -0.7712 C   0  0  0  0  0  0  0  0  0  0  0  0
   -2.1272   -0.2459    1.1168 C   0  0  0  0  0  0  0  0  0  0  0  0
    2.0667    3.8609    1.3688 H   0  0  0  0  0  0  0  0  0  0  0  0
    2.1002    0.8450   -1.7472 H   0  0  0  0  0  0  0  0  0  0  0  0
    2.4641   -1.6040    0.1626 H   0  0  0  0  0  0  0  0  0  0  0  0
    2.5847   -0.1503    1.1765 H   0  0  0  0  0  0  0  0  0  0  0  0
    3.7546   -0.4968   -0.1558 H   0  0  0  0  0  0  0  0  0  0  0  0
   -0.7058    1.0979    0.3467 H   0  0  0  0  0  0  0  0  0  0  0  0
   -0.9219    1.2812   -1.3598 H   0  0  0  0  0  0  0  0  0  0  0  0
   -2.6954   -0.0320   -0.8656 H   0  0  0  0  0  0  0  0  0  0  0  0
   -2.0555   -2.5132    0.1055 H   0  0  0  0  0  0  0  0  0  0  0  0
   -2.1250   -2.2769   -1.6349 H   0  0  0  0  0  0  0  0  0  0  0  0
   -0.5139   -2.0971   -0.7794 H   0  0  0  0  0  0  0  0  0  0  0  0
   -2.5441   -0.9992    1.7319 H   0  0  0  0  0  0  0  0  0  0  0  0
   -2.9317    0.6629    1.0973 H   0  0  0  0  0  0  0  0  0  0  0  0
   -1.2989    0.3323    1.6563 H   0  0  0  0  0  0  0  0  0  0  0  0
  1  2  3  0
  2  3  1  0
  3  4  1  0
  3  5  1  0
  5  6  1  0
  6  7  1  0
  7  8  1  0
  7  9  1  0
  1 10  1  0
  3 11  1  0
  4 12  1  0
  4 13  1  0
  4 14  1  0
  6 15  1  0
  6 16  1  0
  7 17  1  0
  8 18  1  0
  8 19  1  0
  8 20  1  0
  9 21  1  0
  9 22  1  0
  9 23  1  0
M  END
