
     RDKit          3D

 25 24  0  0  0  0  0  0  0  0999 V2000
    1.4047    2.3845   -0.6688 C   0  0  0  0  0  0  0  0  0  0  0  0
    0.9406    1.4207   -0.5162 C   0  0  0  0  0  0  0  0  0  0  0  0
    0.2918    0.0798   -0.2774 C   0  0  0  0  0  0  0  0  0  0  0  0
   -0.0809   -0.3086   -1.7542 C   0  0  0  0  0  0  0  0  0  0  0  0
    1.3423   -0.8755    0.1249 C   0  0  0  0  0  0  0  0  0  0  0  0
    2.0636   -0.4366    1.4005 C   0  0  0  0  0  0  0  0  0  0  0  0
   -0.9407    0.1733    0.5217 C   0  0  0  0  0  0  0  0  0  0  0  0
   -1.5503   -1.2302    0.7379 C   0  0  0  0  0  0  0  0  0  0  0  0
   -2.0655    0.9398   -0.1683 C   0  0  0  0  0  0  0  0  0  0  0  0
    1.9035    3.3909   -0.8139 H   0  0  0  0  0  0  0  0  0  0  0  0
    0.2200   -1.3320   -1.9964 H   0  0  0  0  0  0  0  0  0  0  0  0
    0.5020    0.3314   -2.4746 H   0  0  0  0  0  0  0  0  0  0  0  0
   -1.1460   -0.0727   -1.9391 H   0  0  0  0  0  0  0  0  0  0  0  0
    1.0021   -1.9151    0.3288 H   0  0  0  0  0  0  0  0  0  0  0  0
    2.1679   -0.9963   -0.6422 H   0  0  0  0  0  0  0  0  0  0  0  0
    2.6982   -1.2597    1.7756 H   0  0  0  0  0  0  0  0  0  0  0  0
    2.7401    0.3898    1.0963 H   0  0  0  0  0  0  0  0  0  0  0  0
    1.3127   -0.1624    2.1569 H   0  0  0  0  0  0  0  0  0  0  0  0
   -0.7671    0.6416    1.4883 H   0  0  0  0  0  0  0  0  0  0  0  0
   -1.0074   -1.6950    1.5666 H   0  0  0  0  0  0  0  0  0  0  0  0
   -2.6061   -1.1589    0.9900 H   0  0  0  0  0  0  0  0  0  0  0  0
   -1.3059   -1.7725   -0.1810 H   0  0  0  0  0  0  0  0  0  0  0  0
   -1.6833    1.8175   -0.7151 H   0  0  0  0  0  0  0  0  0  0  0  0
   -2.6947    1.3597    0.6731 H   0  0  0  0  0  0  0  0  0  0  0  0
   -2.7415    0.2862   -0.7133 H   0  0  0  0  0  0  0  0  0  0  0  0
  1  2  3  0
  2  3  1  0
  3  4  1  0
  3  5  1  0
  5  6  1  0
  3  7  1  0
  7  8  1  0
  7  9  1  0
  1 10  1  0
  4 11  1  0
  4 12  1  0
  4 13  1  0
  5 14  1  0
  5 15  1  0
  6 16  1  0
  6 17  1  0
  6 18  1  0
  7 19  1  0
  8 20  1  0
  8 21  1  0
  8 22  1  0
  9 23  1  0
  9 24  1  0
  9 25  1  0
M  END
