
     RDKit          3D

 17 18  0  0  0  0  0  0  0  0999 V2000
    2.9540    1.2048    0.4562 C   0  0  0  0  0  0  0  0  0  0  0  0
    2.1072    0.3672    0.2540 C   0  0  0  0  0  0  0  0  0  0  0  0
    1.0942   -0.6490    0.0325 C   0  0  0  0  0  0  0  0  0  0  0  0
    0.5677   -1.4474    1.2120 C   0  0  0  0  0  0  0  0  0  0  0  0
   -0.2357   -0.3685    0.6503 C   0  0  0  0  0  0  0  0  0  0  0  0
   -1.4209   -0.5613   -0.2317 C   0  0  0  0  0  0  0  0  0  0  0  0
   -1.6517    0.7793   -0.6296 O   0  0  0  0  0  0  0  0  0  0  0  0
   -1.6024    1.3836    0.6483 C   0  0  0  0  0  0  0  0  0  0  0  0
   -0.4948    0.8206    1.2859 O   0  0  0  0  0  0  0  0  0  0  0  0
    3.6947    1.9633    0.6325 H   0  0  0  0  0  0  0  0  0  0  0  0
    1.1857   -1.2161   -0.8949 H   0  0  0  0  0  0  0  0  0  0  0  0
    1.0863   -1.2341    2.1673 H   0  0  0  0  0  0  0  0  0  0  0  0
    0.2766   -2.5188    1.0181 H   0  0  0  0  0  0  0  0  0  0  0  0
   -1.1917   -1.2038   -1.1000 H   0  0  0  0  0  0  0  0  0  0  0  0
   -2.3312   -0.8839    0.3242 H   0  0  0  0  0  0  0  0  0  0  0  0
   -2.5523    1.0991    1.1708 H   0  0  0  0  0  0  0  0  0  0  0  0
   -1.4856    2.4650    0.5223 H   0  0  0  0  0  0  0  0  0  0  0  0
  1  2  3  0
  2  3  1  0
  3  4  1  0
  4  5  1  0
  5  6  1  0
  6  7  1  0
  7  8  1  0
  8  9  1  0
  5  3  1  0
  9  5  1  0
  1 10  1  0
  3 11  1  0
  4 12  1  0
  4 13  1  0
  6 14  1  0
  6 15  1  0
  8 16  1  0
  8 17  1  0
M  END
