
     RDKit          3D

 18 18  0  0  0  0  0  0  0  0999 V2000
    2.3808    1.6663   -1.7404 C   0  0  0  0  0  0  0  0  0  0  0  0
    1.6106    0.9827   -1.2101 C   0  0  0  0  0  0  0  0  0  0  0  0
    0.5779    0.0990   -0.5191 C   0  0  0  0  0  0  0  0  0  0  0  0
    0.2405   -0.9325   -1.4829 O   0  0  0  0  0  0  0  0  0  0  0  0
   -0.7403    1.1270   -0.7160 C   0  0  0  0  0  0  0  0  0  0  0  0
   -0.3585    0.4820    0.5092 C   0  0  0  0  0  0  0  0  0  0  0  0
   -1.2976   -0.6502    0.9830 C   0  0  0  0  0  0  0  0  0  0  0  0
   -0.3743   -1.6947    1.6308 C   0  0  0  0  0  0  0  0  0  0  0  0
    3.0777    2.3052   -2.2393 H   0  0  0  0  0  0  0  0  0  0  0  0
    0.6085   -0.6460   -2.3690 H   0  0  0  0  0  0  0  0  0  0  0  0
   -0.3098    2.2423   -0.7923 H   0  0  0  0  0  0  0  0  0  0  0  0
   -1.2623    0.9936   -1.6379 H   0  0  0  0  0  0  0  0  0  0  0  0
    0.0774    1.0571    1.3681 H   0  0  0  0  0  0  0  0  0  0  0  0
   -1.7198   -1.1259    0.0161 H   0  0  0  0  0  0  0  0  0  0  0  0
   -2.0555   -0.3600    1.6326 H   0  0  0  0  0  0  0  0  0  0  0  0
    0.1105   -1.1014    2.4707 H   0  0  0  0  0  0  0  0  0  0  0  0
   -0.9859   -2.4832    2.0237 H   0  0  0  0  0  0  0  0  0  0  0  0
    0.4200   -1.9612    0.9167 H   0  0  0  0  0  0  0  0  0  0  0  0
  1  2  3  0
  2  3  1  0
  3  4  1  0
  3  5  1  0
  5  6  1  0
  6  7  1  0
  7  8  1  0
  6  3  1  0
  1  9  1  0
  4 10  1  0
  5 11  1  0
  5 12  1  0
  6 13  1  0
  7 14  1  0
  7 15  1  0
  8 16  1  0
  8 17  1  0
  8 18  1  0
M  END
