
     RDKit          3D

 21 21  0  0  0  0  0  0  0  0999 V2000
   -1.3946    3.0270    0.1108 C   0  0  0  0  0  0  0  0  0  0  0  0
   -1.2652    1.8736   -0.2244 C   0  0  0  0  0  0  0  0  0  0  0  0
   -1.1057    0.4714   -0.6510 C   0  0  0  0  0  0  0  0  0  0  0  0
   -1.4950   -0.5823    0.4000 C   0  0  0  0  0  0  0  0  0  0  0  0
   -2.2244   -1.8061   -0.1128 C   0  0  0  0  0  0  0  0  0  0  0  0
   -0.0747   -0.3494    0.0326 C   0  0  0  0  0  0  0  0  0  0  0  0
    0.7434    0.3353    0.9107 O   0  0  0  0  0  0  0  0  0  0  0  0
    2.0662   -0.0296    0.8821 C   0  0  0  0  0  0  0  0  0  0  0  0
    2.7079    0.1862   -0.4785 C   0  0  0  0  0  0  0  0  0  0  0  0
   -1.4899    4.0421    0.4065 H   0  0  0  0  0  0  0  0  0  0  0  0
   -1.4459    0.2377   -1.6820 H   0  0  0  0  0  0  0  0  0  0  0  0
   -1.7769   -0.2062    1.4049 H   0  0  0  0  0  0  0  0  0  0  0  0
   -1.5382   -2.3081   -0.8220 H   0  0  0  0  0  0  0  0  0  0  0  0
   -2.4370   -2.5191    0.7030 H   0  0  0  0  0  0  0  0  0  0  0  0
   -3.1501   -1.5631   -0.6458 H   0  0  0  0  0  0  0  0  0  0  0  0
    0.3935   -1.1276   -0.6125 H   0  0  0  0  0  0  0  0  0  0  0  0
    2.2371   -1.0882    1.1631 H   0  0  0  0  0  0  0  0  0  0  0  0
    2.6194    0.6070    1.5915 H   0  0  0  0  0  0  0  0  0  0  0  0
    2.7449    1.2817   -0.6409 H   0  0  0  0  0  0  0  0  0  0  0  0
    2.1350   -0.3091   -1.2667 H   0  0  0  0  0  0  0  0  0  0  0  0
    3.7503   -0.1733   -0.4686 H   0  0  0  0  0  0  0  0  0  0  0  0
  1  2  3  0
  2  3  1  0
  3  4  1  0
  4  5  1  0
  4  6  1  0
  6  7  1  0
  7  8  1  0
  8  9  1  0
  6  3  1  0
  1 10  1  0
  3 11  1  0
  4 12  1  0
  5 13  1  0
  5 14  1  0
  5 15  1  0
  6 16  1  0
  8 17  1  0
  8 18  1  0
  9 19  1  0
  9 20  1  0
  9 21  1  0
M  END
