
     RDKit          3D

 19 20  0  0  0  0  0  0  0  0999 V2000
    3.0978    0.9463   -0.5172 C   0  0  0  0  0  0  0  0  0  0  0  0
    2.1938    0.1467   -0.5198 C   0  0  0  0  0  0  0  0  0  0  0  0
    1.1035   -0.8372   -0.5440 C   0  0  0  0  0  0  0  0  0  0  0  0
    0.4965   -1.1393    0.7617 C   0  0  0  0  0  0  0  0  0  0  0  0
    0.3782   -0.0472    1.6454 O   0  0  0  0  0  0  0  0  0  0  0  0
   -0.7081    0.3643    0.8969 C   0  0  0  0  0  0  0  0  0  0  0  0
   -0.8444    1.8351    0.6590 C   0  0  0  0  0  0  0  0  0  0  0  0
   -0.2659   -0.4049   -0.3178 C   0  0  0  0  0  0  0  0  0  0  0  0
   -1.3989   -1.1888   -0.9745 C   0  0  0  0  0  0  0  0  0  0  0  0
    3.9013    1.6638   -0.5099 H   0  0  0  0  0  0  0  0  0  0  0  0
    1.2584   -1.6964   -1.2295 H   0  0  0  0  0  0  0  0  0  0  0  0
    0.1802   -2.1317    1.0832 H   0  0  0  0  0  0  0  0  0  0  0  0
   -1.6449   -0.0508    1.3737 H   0  0  0  0  0  0  0  0  0  0  0  0
    0.0958    2.3965    0.8138 H   0  0  0  0  0  0  0  0  0  0  0  0
   -1.6839    2.2564    1.2736 H   0  0  0  0  0  0  0  0  0  0  0  0
   -1.1566    1.9880   -0.4031 H   0  0  0  0  0  0  0  0  0  0  0  0
   -1.0671   -1.3795   -2.0179 H   0  0  0  0  0  0  0  0  0  0  0  0
   -1.6123   -2.1298   -0.4552 H   0  0  0  0  0  0  0  0  0  0  0  0
   -2.3234   -0.5916   -1.0183 H   0  0  0  0  0  0  0  0  0  0  0  0
  1  2  3  0
  2  3  1  0
  3  4  1  0
  4  5  1  0
  5  6  1  0
  6  7  1  0
  6  8  1  0
  8  9  1  0
  8  3  1  0
  8  4  1  0
  1 10  1  0
  3 11  1  0
  4 12  1  0
  6 13  1  0
  7 14  1  0
  7 15  1  0
  7 16  1  0
  9 17  1  0
  9 18  1  0
  9 19  1  0
M  END
