
     RDKit          3D

 17 17  0  0  0  0  0  0  0  0999 V2000
    2.7787   -1.2764    1.7368 C   0  0  0  0  0  0  0  0  0  0  0  0
    1.6345   -1.5384    0.6747 C   0  0  0  0  0  0  0  0  0  0  0  0
    0.8138   -1.7145   -0.0765 C   0  0  0  0  0  0  0  0  0  0  0  0
   -0.3994   -0.6112    0.6800 C   0  0  0  0  0  0  0  0  0  0  0  0
   -1.6141   -0.3997    0.3105 O   0  0  0  0  0  0  0  0  0  0  0  0
   -0.5299    0.6370   -0.1936 C   0  0  0  0  0  0  0  0  0  0  0  0
   -0.7995    0.3589   -1.7164 C   0  0  0  0  0  0  0  0  0  0  0  0
   -0.7075    1.7103    0.2791 C   0  0  0  0  0  0  0  0  0  0  0  0
   -0.9260    2.9452    0.8329 C   0  0  0  0  0  0  0  0  0  0  0  0
    3.5649   -1.0823    2.4673 H   0  0  0  0  0  0  0  0  0  0  0  0
    0.6306   -1.3841   -1.1068 H   0  0  0  0  0  0  0  0  0  0  0  0
    0.0418   -2.5854    0.0791 H   0  0  0  0  0  0  0  0  0  0  0  0
   -0.0703   -0.4251    1.6785 H   0  0  0  0  0  0  0  0  0  0  0  0
   -2.0700    0.4080   -1.7392 H   0  0  0  0  0  0  0  0  0  0  0  0
   -0.5558    1.2816   -2.1846 H   0  0  0  0  0  0  0  0  0  0  0  0
   -0.6372   -0.5737   -2.0849 H   0  0  0  0  0  0  0  0  0  0  0  0
   -1.1548    4.2498    1.3998 H   0  0  0  0  0  0  0  0  0  0  0  0
  1  2  3  0
  2  3  1  0
  3  4  1  0
  4  5  1  0
  5  6  1  0
  6  7  1  0
  6  8  1  0
  8  9  3  0
  6  4  1  0
  1 10  1  0
  3 11  1  0
  3 12  1  0
  4 13  1  0
  7 14  1  0
  7 15  1  0
  7 16  1  0
  9 17  1  0
M  END
