
     RDKit          3D

 19 19  0  0  0  0  0  0  0  0999 V2000
    2.9242    1.3159   -0.8070 C   0  0  0  0  0  0  0  0  0  0  0  0
    2.2864    0.7697    0.0237 C   0  0  0  0  0  0  0  0  0  0  0  0
    1.4954    0.0611    1.0841 C   0  0  0  0  0  0  0  0  0  0  0  0
    0.9662   -1.2094    0.5352 C   0  0  0  0  0  0  0  0  0  0  0  0
   -0.3148   -1.4009    0.2388 C   0  0  0  0  0  0  0  0  0  0  0  0
   -1.2503   -0.2664    0.4784 C   0  0  0  0  0  0  0  0  0  0  0  0
   -2.3937   -0.2541   -0.5090 C   0  0  0  0  0  0  0  0  0  0  0  0
   -0.4062    0.9969    0.3645 C   0  0  0  0  0  0  0  0  0  0  0  0
    0.4842    0.9404    1.4548 O   0  0  0  0  0  0  0  0  0  0  0  0
    3.5163    1.8259   -1.5539 H   0  0  0  0  0  0  0  0  0  0  0  0
    2.2077   -0.1665    1.9028 H   0  0  0  0  0  0  0  0  0  0  0  0
    1.6377   -2.0226    0.3635 H   0  0  0  0  0  0  0  0  0  0  0  0
   -0.6546   -2.3301   -0.1542 H   0  0  0  0  0  0  0  0  0  0  0  0
   -1.6285   -0.3467    1.5197 H   0  0  0  0  0  0  0  0  0  0  0  0
   -2.8158    0.7686   -0.5547 H   0  0  0  0  0  0  0  0  0  0  0  0
   -2.0889   -0.6158   -1.5057 H   0  0  0  0  0  0  0  0  0  0  0  0
   -3.1886   -0.9108   -0.0824 H   0  0  0  0  0  0  0  0  0  0  0  0
    0.2466    0.9502   -0.5483 H   0  0  0  0  0  0  0  0  0  0  0  0
   -1.0232    1.8946    0.3628 H   0  0  0  0  0  0  0  0  0  0  0  0
  1  2  3  0
  2  3  1  0
  3  4  1  0
  4  5  2  0
  5  6  1  0
  6  7  1  0
  6  8  1  0
  8  9  1  0
  9  3  1  0
  1 10  1  0
  3 11  1  0
  4 12  1  0
  5 13  1  0
  6 14  1  0
  7 15  1  0
  7 16  1  0
  7 17  1  0
  8 18  1  0
  8 19  1  0
M  END
