
     RDKit          3D

 16 16  0  0  0  0  0  0  0  0999 V2000
    0.7081    2.4532    0.9682 C   0  0  0  0  0  0  0  0  0  0  0  0
    0.9247    1.2631    0.6757 C   0  0  0  0  0  0  0  0  0  0  0  0
    1.1700   -0.1150    0.3231 C   0  0  0  0  0  0  0  0  0  0  0  0
    0.3392   -1.1077    1.1273 C   0  0  0  0  0  0  0  0  0  0  0  0
    0.2224   -0.9548   -0.3578 C   0  0  0  0  0  0  0  0  0  0  0  0
   -1.0845   -0.5777   -0.9654 C   0  0  0  0  0  0  0  0  0  0  0  0
   -0.9901    0.4388   -2.0417 C   0  0  0  0  0  0  0  0  0  0  0  0
   -0.2519    1.4426   -1.9010 O   0  0  0  0  0  0  0  0  0  0  0  0
    0.5400    3.4544    1.2262 H   0  0  0  0  0  0  0  0  0  0  0  0
    2.2792   -0.3754    0.2302 H   0  0  0  0  0  0  0  0  0  0  0  0
   -0.5708   -0.7660    1.6518 H   0  0  0  0  0  0  0  0  0  0  0  0
    0.9289   -1.9009    1.5874 H   0  0  0  0  0  0  0  0  0  0  0  0
    0.6761   -1.8526   -0.9221 H   0  0  0  0  0  0  0  0  0  0  0  0
   -1.5135   -1.5149   -1.4438 H   0  0  0  0  0  0  0  0  0  0  0  0
   -1.8516   -0.2782   -0.2105 H   0  0  0  0  0  0  0  0  0  0  0  0
   -1.5263    0.3912   -2.9810 H   0  0  0  0  0  0  0  0  0  0  0  0
  1  2  3  0
  2  3  1  0
  3  4  1  0
  4  5  1  0
  5  6  1  0
  6  7  1  0
  7  8  2  0
  5  3  1  0
  1  9  1  0
  3 10  1  0
  4 11  1  0
  4 12  1  0
  5 13  1  0
  6 14  1  0
  6 15  1  0
  7 16  1  0
M  END
