
     RDKit          3D

 16 15  0  0  0  0  0  0  0  0999 V2000
   -1.0892    2.5924   -0.3948 C   0  0  0  0  0  0  0  0  0  0  0  0
   -0.5300    1.4494   -0.0256 C   0  0  0  0  0  0  0  0  0  0  0  0
    0.0955    0.1331    0.3759 C   0  0  0  0  0  0  0  0  0  0  0  0
   -0.6609   -0.8637   -0.0179 O   0  0  0  0  0  0  0  0  0  0  0  0
   -1.7365   -1.1660    0.8269 C   0  0  0  0  0  0  0  0  0  0  0  0
    1.4924    0.1542    0.0544 C   0  0  0  0  0  0  0  0  0  0  0  0
    1.9728   -0.7652   -1.1110 C   0  0  0  0  0  0  0  0  0  0  0  0
    2.3487    0.8131    0.5826 O   0  0  0  0  0  0  0  0  0  0  0  0
   -1.5986    3.6205   -0.7161 H   0  0  0  0  0  0  0  0  0  0  0  0
   -0.0660    0.3132    1.5410 H   0  0  0  0  0  0  0  0  0  0  0  0
   -2.2488   -2.1120    0.6769 H   0  0  0  0  0  0  0  0  0  0  0  0
   -2.5582   -0.4747    0.2736 H   0  0  0  0  0  0  0  0  0  0  0  0
   -1.7310   -0.7598    1.8625 H   0  0  0  0  0  0  0  0  0  0  0  0
    3.0698   -0.5298   -1.2218 H   0  0  0  0  0  0  0  0  0  0  0  0
    1.8230   -1.8187   -0.7258 H   0  0  0  0  0  0  0  0  0  0  0  0
    1.4169   -0.5861   -1.9807 H   0  0  0  0  0  0  0  0  0  0  0  0
  1  2  3  0
  2  3  1  0
  3  4  1  0
  4  5  1  0
  3  6  1  0
  6  7  1  0
  6  8  2  0
  1  9  1  0
  3 10  1  0
  5 11  1  0
  5 12  1  0
  5 13  1  0
  7 14  1  0
  7 15  1  0
  7 16  1  0
M  END
