
     RDKit          3D

 19 19  0  0  0  0  0  0  0  0999 V2000
    3.1490   -1.0530    0.1858 C   0  0  0  0  0  0  0  0  0  0  0  0
    2.1876   -0.2991    0.1781 C   0  0  0  0  0  0  0  0  0  0  0  0
    1.0261    0.5922    0.1485 C   0  0  0  0  0  0  0  0  0  0  0  0
    0.1474    0.2380    1.3149 C   0  0  0  0  0  0  0  0  0  0  0  0
   -1.1703    0.2146    1.3257 C   0  0  0  0  0  0  0  0  0  0  0  0
   -2.1183    0.5173    0.2402 C   0  0  0  0  0  0  0  0  0  0  0  0
   -1.9992   -0.3334   -0.8532 O   0  0  0  0  0  0  0  0  0  0  0  0
   -0.7026   -0.7476   -1.0797 C   0  0  0  0  0  0  0  0  0  0  0  0
    0.3058    0.3415   -1.1565 C   0  0  0  0  0  0  0  0  0  0  0  0
    3.9826   -1.7043    0.1771 H   0  0  0  0  0  0  0  0  0  0  0  0
    1.3113    1.6540    0.2028 H   0  0  0  0  0  0  0  0  0  0  0  0
    0.6889   -0.0194    2.2244 H   0  0  0  0  0  0  0  0  0  0  0  0
   -1.6088   -0.0659    2.2616 H   0  0  0  0  0  0  0  0  0  0  0  0
   -1.8727    1.5508   -0.1438 H   0  0  0  0  0  0  0  0  0  0  0  0
   -3.1375    0.5476    0.6428 H   0  0  0  0  0  0  0  0  0  0  0  0
   -0.4315   -1.4577   -0.2493 H   0  0  0  0  0  0  0  0  0  0  0  0
   -0.6759   -1.3337   -2.0208 H   0  0  0  0  0  0  0  0  0  0  0  0
   -0.1551    1.2903   -1.4907 H   0  0  0  0  0  0  0  0  0  0  0  0
    1.0732    0.0677   -1.9077 H   0  0  0  0  0  0  0  0  0  0  0  0
  1  2  3  0
  2  3  1  0
  3  4  1  0
  4  5  2  0
  5  6  1  0
  6  7  1  0
  7  8  1  0
  8  9  1  0
  9  3  1  0
  1 10  1  0
  3 11  1  0
  4 12  1  0
  5 13  1  0
  6 14  1  0
  6 15  1  0
  8 16  1  0
  8 17  1  0
  9 18  1  0
  9 19  1  0
M  END
