
     RDKit          3D

 13 13  0  0  0  0  0  0  0  0999 V2000
   -0.6789    2.6207    1.5088 C   0  0  0  0  0  0  0  0  0  0  0  0
   -0.3658    1.5225    1.0699 C   0  0  0  0  0  0  0  0  0  0  0  0
    0.0231    0.2094    0.5485 C   0  0  0  0  0  0  0  0  0  0  0  0
   -1.0034   -0.8569    0.6113 C   0  0  0  0  0  0  0  0  0  0  0  0
   -1.8366   -1.7292    0.6563 C   0  0  0  0  0  0  0  0  0  0  0  0
    1.3235   -0.2559    0.8485 O   0  0  0  0  0  0  0  0  0  0  0  0
    0.9410    0.1702   -0.5458 C   0  0  0  0  0  0  0  0  0  0  0  0
    1.1693   -0.9607   -1.4445 C   0  0  0  0  0  0  0  0  0  0  0  0
    0.6678   -2.0612   -1.2869 O   0  0  0  0  0  0  0  0  0  0  0  0
   -0.9546    3.5766    1.8719 H   0  0  0  0  0  0  0  0  0  0  0  0
   -2.5647   -2.5027    0.7127 H   0  0  0  0  0  0  0  0  0  0  0  0
    1.4645    1.1106   -0.8159 H   0  0  0  0  0  0  0  0  0  0  0  0
    1.8148   -0.8435   -2.3055 H   0  0  0  0  0  0  0  0  0  0  0  0
  1  2  3  0
  2  3  1  0
  3  4  1  0
  4  5  3  0
  3  6  1  0
  6  7  1  0
  7  8  1  0
  8  9  2  0
  7  3  1  0
  1 10  1  0
  5 11  1  0
  7 12  1  0
  8 13  1  0
M  END
