
     RDKit          3D

 17 18  0  0  0  0  0  0  0  0999 V2000
    3.2959   -0.4777   -0.0316 C   0  0  0  0  0  0  0  0  0  0  0  0
    2.1100   -0.3318    0.0425 C   0  0  0  0  0  0  0  0  0  0  0  0
    0.6592   -0.1302    0.1219 C   0  0  0  0  0  0  0  0  0  0  0  0
    0.1742    1.2579    0.1694 C   0  0  0  0  0  0  0  0  0  0  0  0
   -1.0388    1.5210   -0.2658 C   0  0  0  0  0  0  0  0  0  0  0  0
   -1.9093    0.4571   -0.7944 C   0  0  0  0  0  0  0  0  0  0  0  0
   -1.2781   -0.6525   -1.2315 O   0  0  0  0  0  0  0  0  0  0  0  0
   -0.2231   -1.1120   -0.5026 C   0  0  0  0  0  0  0  0  0  0  0  0
   -0.1577   -1.0944    0.9673 C   0  0  0  0  0  0  0  0  0  0  0  0
    4.3631   -0.6205   -0.0834 H   0  0  0  0  0  0  0  0  0  0  0  0
    0.8502    2.0113    0.5672 H   0  0  0  0  0  0  0  0  0  0  0  0
   -1.3790    2.5501   -0.2229 H   0  0  0  0  0  0  0  0  0  0  0  0
   -2.4644    0.9111   -1.6688 H   0  0  0  0  0  0  0  0  0  0  0  0
   -2.7243    0.2697   -0.0376 H   0  0  0  0  0  0  0  0  0  0  0  0
    0.2961   -1.9902   -0.9838 H   0  0  0  0  0  0  0  0  0  0  0  0
   -1.0274   -0.7171    1.5233 H   0  0  0  0  0  0  0  0  0  0  0  0
    0.4535   -1.8517    1.4965 H   0  0  0  0  0  0  0  0  0  0  0  0
  1  2  3  0
  2  3  1  0
  3  4  1  0
  4  5  2  0
  5  6  1  0
  6  7  1  0
  7  8  1  0
  8  9  1  0
  8  3  1  0
  9  3  1  0
  1 10  1  0
  4 11  1  0
  5 12  1  0
  6 13  1  0
  6 14  1  0
  8 15  1  0
  9 16  1  0
  9 17  1  0
M  END
