
     RDKit          3D

 21 20  0  0  0  0  0  0  0  0999 V2000
   -1.7808    1.8848    1.2746 C   0  0  0  0  0  0  0  0  0  0  0  0
   -1.3666    0.7660    0.8822 C   0  0  0  0  0  0  0  0  0  0  0  0
   -0.8938   -0.5150    0.4065 C   0  0  0  0  0  0  0  0  0  0  0  0
    0.5741   -0.7357    0.8257 C   0  0  0  0  0  0  0  0  0  0  0  0
    1.4124    0.3525    0.2344 C   0  0  0  0  0  0  0  0  0  0  0  0
    1.3310    0.3821   -1.1730 O   0  0  0  0  0  0  0  0  0  0  0  0
    2.1774    1.4627   -1.5268 C   0  0  0  0  0  0  0  0  0  0  0  0
   -1.6827   -1.5654    0.8849 O   0  0  0  0  0  0  0  0  0  0  0  0
   -2.2374   -2.3007   -0.1760 C   0  0  0  0  0  0  0  0  0  0  0  0
   -2.1335    2.8191    1.6212 H   0  0  0  0  0  0  0  0  0  0  0  0
   -0.9089   -0.5106   -0.7097 H   0  0  0  0  0  0  0  0  0  0  0  0
    0.9365   -1.7338    0.5825 H   0  0  0  0  0  0  0  0  0  0  0  0
    0.5905   -0.6097    1.9541 H   0  0  0  0  0  0  0  0  0  0  0  0
    1.0967    1.3457    0.5910 H   0  0  0  0  0  0  0  0  0  0  0  0
    2.4902    0.1731    0.5068 H   0  0  0  0  0  0  0  0  0  0  0  0
    1.8348    2.3926   -1.0785 H   0  0  0  0  0  0  0  0  0  0  0  0
    3.1567    1.2057   -1.0355 H   0  0  0  0  0  0  0  0  0  0  0  0
    2.3558    1.4914   -2.6088 H   0  0  0  0  0  0  0  0  0  0  0  0
   -2.8824   -1.6575   -0.8199 H   0  0  0  0  0  0  0  0  0  0  0  0
   -1.3472   -2.5736   -0.8115 H   0  0  0  0  0  0  0  0  0  0  0  0
   -2.7227   -3.2170    0.1758 H   0  0  0  0  0  0  0  0  0  0  0  0
  1  2  3  0
  2  3  1  0
  3  4  1  0
  4  5  1  0
  5  6  1  0
  6  7  1  0
  3  8  1  0
  8  9  1  0
  1 10  1  0
  3 11  1  0
  4 12  1  0
  4 13  1  0
  5 14  1  0
  5 15  1  0
  7 16  1  0
  7 17  1  0
  7 18  1  0
  9 19  1  0
  9 20  1  0
  9 21  1  0
M  END
