
     RDKit          3D

 19 20  0  0  0  0  0  0  0  0999 V2000
    3.5129    0.4239    0.3610 C   0  0  0  0  0  0  0  0  0  0  0  0
    2.7240   -0.1801    0.2338 C   0  0  0  0  0  0  0  0  0  0  0  0
    1.5514   -1.0726    0.0191 C   0  0  0  0  0  0  0  0  0  0  0  0
    0.2616   -0.4001    0.4237 C   0  0  0  0  0  0  0  0  0  0  0  0
   -0.0593    0.8416   -0.3778 C   0  0  0  0  0  0  0  0  0  0  0  0
   -1.4678    0.2994   -0.5894 C   0  0  0  0  0  0  0  0  0  0  0  0
   -2.1726    0.4861   -1.7253 O   0  0  0  0  0  0  0  0  0  0  0  0
   -2.2205   -0.1860    0.6167 C   0  0  0  0  0  0  0  0  0  0  0  0
   -1.0756   -0.9377    0.0522 C   0  0  0  0  0  0  0  0  0  0  0  0
    4.6115    1.2607    0.5583 H   0  0  0  0  0  0  0  0  0  0  0  0
    1.6723   -1.8471    0.9143 H   0  0  0  0  0  0  0  0  0  0  0  0
    1.5539   -1.5368   -0.9158 H   0  0  0  0  0  0  0  0  0  0  0  0
    0.2286   -0.0758    1.5186 H   0  0  0  0  0  0  0  0  0  0  0  0
    0.5189    0.7595   -1.3443 H   0  0  0  0  0  0  0  0  0  0  0  0
   -0.0015    1.7880    0.1400 H   0  0  0  0  0  0  0  0  0  0  0  0
   -3.1132    0.6541   -1.4778 H   0  0  0  0  0  0  0  0  0  0  0  0
   -2.1067    0.4805    1.5422 H   0  0  0  0  0  0  0  0  0  0  0  0
   -3.1966   -0.6633    0.4686 H   0  0  0  0  0  0  0  0  0  0  0  0
   -1.2213   -1.9416   -0.4181 H   0  0  0  0  0  0  0  0  0  0  0  0
  1  2  3  0
  2  3  1  0
  3  4  1  0
  4  5  1  0
  5  6  1  0
  6  7  1  0
  6  8  1  0
  8  9  1  0
  9  4  1  0
  9  6  1  0
  1 10  1  0
  3 11  1  0
  3 12  1  0
  4 13  1  0
  5 14  1  0
  5 15  1  0
  7 16  1  0
  8 17  1  0
  8 18  1  0
  9 19  1  0
M  END
