
     RDKit          3D

 17 16  0  0  0  0  0  0  0  0999 V2000
    2.2129   -0.0763   -2.4004 C   0  0  0  0  0  0  0  0  0  0  0  0
    1.3224   -0.1653   -1.5536 C   0  0  0  0  0  0  0  0  0  0  0  0
    0.2968   -0.2679   -0.5435 C   0  0  0  0  0  0  0  0  0  0  0  0
   -1.0654    0.1452   -0.9842 C   0  0  0  0  0  0  0  0  0  0  0  0
   -2.0068   -0.0328    0.0625 O   0  0  0  0  0  0  0  0  0  0  0  0
    0.6810    0.5678    0.6805 C   0  0  0  0  0  0  0  0  0  0  0  0
    1.5303    1.3675    0.6641 O   0  0  0  0  0  0  0  0  0  0  0  0
   -0.0725    0.3592    1.9833 C   0  0  0  0  0  0  0  0  0  0  0  0
   -0.7934   -0.8071    1.9824 O   0  0  0  0  0  0  0  0  0  0  0  0
    2.9819    0.0147   -3.1499 H   0  0  0  0  0  0  0  0  0  0  0  0
    0.2923   -1.3364   -0.1539 H   0  0  0  0  0  0  0  0  0  0  0  0
   -1.0645    1.2880   -1.0580 H   0  0  0  0  0  0  0  0  0  0  0  0
   -1.3943   -0.3442   -1.8968 H   0  0  0  0  0  0  0  0  0  0  0  0
   -2.5229   -0.8673   -0.1203 H   0  0  0  0  0  0  0  0  0  0  0  0
    0.6400    0.4343    2.7954 H   0  0  0  0  0  0  0  0  0  0  0  0
   -0.7759    1.2699    1.9719 H   0  0  0  0  0  0  0  0  0  0  0  0
   -0.2618   -1.5494    2.3545 H   0  0  0  0  0  0  0  0  0  0  0  0
  1  2  3  0
  2  3  1  0
  3  4  1  0
  4  5  1  0
  3  6  1  0
  6  7  2  0
  6  8  1  0
  8  9  1  0
  1 10  1  0
  3 11  1  0
  4 12  1  0
  4 13  1  0
  5 14  1  0
  8 15  1  0
  8 16  1  0
  9 17  1  0
M  END
