
     RDKit          3D

 17 18  0  0  0  0  0  0  0  0999 V2000
    3.1006    0.8634   -1.0392 C   0  0  0  0  0  0  0  0  0  0  0  0
    1.8865    0.3546   -0.8641 C   0  0  0  0  0  0  0  0  0  0  0  0
    0.6140   -0.1737   -0.6780 C   0  0  0  0  0  0  0  0  0  0  0  0
    0.3001   -0.8444    0.6166 C   0  0  0  0  0  0  0  0  0  0  0  0
   -0.8057    0.0025    1.1314 C   0  0  0  0  0  0  0  0  0  0  0  0
   -1.2195    0.6251   -0.1551 C   0  0  0  0  0  0  0  0  0  0  0  0
   -1.4716   -0.3286   -1.3177 C   0  0  0  0  0  0  0  0  0  0  0  0
   -0.1350   -0.8721   -1.5022 O   0  0  0  0  0  0  0  0  0  0  0  0
   -0.0858    1.1321   -0.7200 O   0  0  0  0  0  0  0  0  0  0  0  0
    4.1540    1.3130   -1.2007 H   0  0  0  0  0  0  0  0  0  0  0  0
    0.0238   -1.9282    0.3710 H   0  0  0  0  0  0  0  0  0  0  0  0
    1.2502   -0.9165    1.2427 H   0  0  0  0  0  0  0  0  0  0  0  0
   -0.3155    0.7702    1.8320 H   0  0  0  0  0  0  0  0  0  0  0  0
   -1.5722   -0.6856    1.6036 H   0  0  0  0  0  0  0  0  0  0  0  0
   -1.9754    1.3811    0.0033 H   0  0  0  0  0  0  0  0  0  0  0  0
   -2.2698   -1.0062   -1.2272 H   0  0  0  0  0  0  0  0  0  0  0  0
   -1.4787    0.3133   -2.3123 H   0  0  0  0  0  0  0  0  0  0  0  0
  1  2  3  0
  2  3  1  0
  3  4  1  0
  4  5  1  0
  5  6  1  0
  6  7  1  0
  7  8  1  0
  6  9  1  0
  8  3  1  0
  9  3  1  0
  1 10  1  0
  4 11  1  0
  4 12  1  0
  5 13  1  0
  5 14  1  0
  6 15  1  0
  7 16  1  0
  7 17  1  0
M  END
