
     RDKit          3D

 19 18  0  0  0  0  0  0  0  0999 V2000
    4.0066    0.1525   -2.4449 C   0  0  0  0  0  0  0  0  0  0  0  0
    3.1003   -0.2831   -1.8458 C   0  0  0  0  0  0  0  0  0  0  0  0
    1.9651   -0.8054   -1.0861 C   0  0  0  0  0  0  0  0  0  0  0  0
    0.9912   -1.2342   -0.4540 C   0  0  0  0  0  0  0  0  0  0  0  0
   -0.1488   -1.7195    0.2590 C   0  0  0  0  0  0  0  0  0  0  0  0
   -1.3615   -0.7957    0.0514 C   0  0  0  0  0  0  0  0  0  0  0  0
   -0.9509    0.5380    0.6193 C   0  0  0  0  0  0  0  0  0  0  0  0
   -2.0398    1.5797    0.5136 C   0  0  0  0  0  0  0  0  0  0  0  0
    0.2102    0.9768   -0.0077 O   0  0  0  0  0  0  0  0  0  0  0  0
    4.8353    0.5515   -3.0020 H   0  0  0  0  0  0  0  0  0  0  0  0
   -0.3887   -2.7651    0.0889 H   0  0  0  0  0  0  0  0  0  0  0  0
    0.1397   -1.6595    1.3599 H   0  0  0  0  0  0  0  0  0  0  0  0
   -1.4245   -0.6935   -1.0764 H   0  0  0  0  0  0  0  0  0  0  0  0
   -2.2839   -1.1903    0.4560 H   0  0  0  0  0  0  0  0  0  0  0  0
   -0.7228    0.3724    1.6824 H   0  0  0  0  0  0  0  0  0  0  0  0
   -1.8736    2.2982    1.3490 H   0  0  0  0  0  0  0  0  0  0  0  0
   -1.8489    2.1451   -0.4110 H   0  0  0  0  0  0  0  0  0  0  0  0
   -3.0496    1.1656    0.5858 H   0  0  0  0  0  0  0  0  0  0  0  0
    0.8448    1.3664    0.6380 H   0  0  0  0  0  0  0  0  0  0  0  0
  1  2  3  0
  2  3  1  0
  3  4  3  0
  4  5  1  0
  5  6  1  0
  6  7  1  0
  7  8  1  0
  7  9  1  0
  1 10  1  0
  5 11  1  0
  5 12  1  0
  6 13  1  0
  6 14  1  0
  7 15  1  0
  8 16  1  0
  8 17  1  0
  8 18  1  0
  9 19  1  0
M  END
