
     RDKit          3D

 19 19  0  0  0  0  0  0  0  0999 V2000
    2.0434   -0.8524   -2.1701 C   0  0  0  0  0  0  0  0  0  0  0  0
    1.7845   -0.4026   -1.0816 C   0  0  0  0  0  0  0  0  0  0  0  0
    1.4677    0.1452    0.2400 C   0  0  0  0  0  0  0  0  0  0  0  0
    2.5394    0.4653    1.0255 O   0  0  0  0  0  0  0  0  0  0  0  0
    0.3533    1.2013    0.2117 C   0  0  0  0  0  0  0  0  0  0  0  0
   -0.5752    0.0185    0.0472 C   0  0  0  0  0  0  0  0  0  0  0  0
   -1.8293    0.1180    0.5128 O   0  0  0  0  0  0  0  0  0  0  0  0
   -2.8348   -0.2225   -0.3786 C   0  0  0  0  0  0  0  0  0  0  0  0
    0.4240   -0.7678    0.8960 C   0  0  0  0  0  0  0  0  0  0  0  0
    2.2869   -1.2663   -3.1363 H   0  0  0  0  0  0  0  0  0  0  0  0
    2.4827    1.4575    1.2073 H   0  0  0  0  0  0  0  0  0  0  0  0
    0.2858    1.6993    1.1908 H   0  0  0  0  0  0  0  0  0  0  0  0
    0.4918    1.8390   -0.6640 H   0  0  0  0  0  0  0  0  0  0  0  0
   -0.5364   -0.3290   -1.0035 H   0  0  0  0  0  0  0  0  0  0  0  0
   -2.7205    0.4867   -1.2515 H   0  0  0  0  0  0  0  0  0  0  0  0
   -2.7492   -1.2257   -0.7961 H   0  0  0  0  0  0  0  0  0  0  0  0
   -3.8355    0.0045    0.0367 H   0  0  0  0  0  0  0  0  0  0  0  0
    0.3912   -0.5402    1.9669 H   0  0  0  0  0  0  0  0  0  0  0  0
    0.5302   -1.8290    0.6154 H   0  0  0  0  0  0  0  0  0  0  0  0
  1  2  3  0
  2  3  1  0
  3  4  1  0
  3  5  1  0
  5  6  1  0
  6  7  1  0
  7  8  1  0
  6  9  1  0
  9  3  1  0
  1 10  1  0
  4 11  1  0
  5 12  1  0
  5 13  1  0
  6 14  1  0
  8 15  1  0
  8 16  1  0
  8 17  1  0
  9 18  1  0
  9 19  1  0
M  END
