
     RDKit          3D

 13 12  0  0  0  0  0  0  0  0999 V2000
    3.4652    1.3100   -0.6370 C   0  0  0  0  0  0  0  0  0  0  0  0
    2.3781    0.5488   -0.3167 C   0  0  0  0  0  0  0  0  0  0  0  0
    1.5956    0.0165   -0.0796 C   0  0  0  0  0  0  0  0  0  0  0  0
    0.3607   -0.7926    0.2985 C   0  0  0  0  0  0  0  0  0  0  0  0
   -0.8729   -1.5731    0.6591 C   0  0  0  0  0  0  0  0  0  0  0  0
   -1.9059   -0.7651   -0.1638 O   0  0  0  0  0  0  0  0  0  0  0  0
   -2.0026    0.6002   -0.2081 C   0  0  0  0  0  0  0  0  0  0  0  0
    4.5282    2.0327   -0.9459 H   0  0  0  0  0  0  0  0  0  0  0  0
   -0.8103   -2.0195    1.4286 H   0  0  0  0  0  0  0  0  0  0  0  0
   -0.6224   -2.3124   -0.2304 H   0  0  0  0  0  0  0  0  0  0  0  0
   -1.1267    1.1400   -0.6774 H   0  0  0  0  0  0  0  0  0  0  0  0
   -2.8255    0.8152   -0.9100 H   0  0  0  0  0  0  0  0  0  0  0  0
   -2.1615    0.9992    0.8330 H   0  0  0  0  0  0  0  0  0  0  0  0
  1  2  3  0
  2  3  1  0
  3  4  3  0
  4  5  1  0
  5  6  1  0
  6  7  1  0
  1  8  1  0
  5  9  1  0
  5 10  1  0
  7 11  1  0
  7 12  1  0
  7 13  1  0
M  END
