
     RDKit          3D

 23 22  0  0  0  0  0  0  0  0999 V2000
    3.1360   -1.1946    2.7848 C   0  0  0  0  0  0  0  0  0  0  0  0
    2.1591   -1.1507    2.0356 C   0  0  0  0  0  0  0  0  0  0  0  0
    0.9765   -1.1204    1.1342 C   0  0  0  0  0  0  0  0  0  0  0  0
    0.8674    0.2737    0.4994 C   0  0  0  0  0  0  0  0  0  0  0  0
   -0.3071    0.3650   -0.4141 C   0  0  0  0  0  0  0  0  0  0  0  0
   -1.5552    0.0952    0.3857 C   0  0  0  0  0  0  0  0  0  0  0  0
   -0.3849    1.7680   -0.9675 C   0  0  0  0  0  0  0  0  0  0  0  0
   -0.1745   -0.5123   -1.4874 O   0  0  0  0  0  0  0  0  0  0  0  0
   -1.2659   -0.4464   -2.3504 C   0  0  0  0  0  0  0  0  0  0  0  0
    3.9711   -1.2235    3.4054 H   0  0  0  0  0  0  0  0  0  0  0  0
    1.2027   -1.8754    0.3558 H   0  0  0  0  0  0  0  0  0  0  0  0
    0.0846   -1.3606    1.7419 H   0  0  0  0  0  0  0  0  0  0  0  0
    1.8395    0.4715    0.0052 H   0  0  0  0  0  0  0  0  0  0  0  0
    0.7751    1.0321    1.3083 H   0  0  0  0  0  0  0  0  0  0  0  0
   -1.5047    0.5651    1.3896 H   0  0  0  0  0  0  0  0  0  0  0  0
   -1.6258   -1.0124    0.5978 H   0  0  0  0  0  0  0  0  0  0  0  0
   -2.4844    0.4057   -0.0918 H   0  0  0  0  0  0  0  0  0  0  0  0
   -0.1124    2.4396   -0.1290 H   0  0  0  0  0  0  0  0  0  0  0  0
   -1.3919    2.0212   -1.3468 H   0  0  0  0  0  0  0  0  0  0  0  0
    0.3906    1.8583   -1.7804 H   0  0  0  0  0  0  0  0  0  0  0  0
   -2.2166   -0.7007   -1.8453 H   0  0  0  0  0  0  0  0  0  0  0  0
   -1.1002   -1.2267   -3.1315 H   0  0  0  0  0  0  0  0  0  0  0  0
   -1.2791    0.5282   -2.8784 H   0  0  0  0  0  0  0  0  0  0  0  0
  1  2  3  0
  2  3  1  0
  3  4  1  0
  4  5  1  0
  5  6  1  0
  5  7  1  0
  5  8  1  0
  8  9  1  0
  1 10  1  0
  3 11  1  0
  3 12  1  0
  4 13  1  0
  4 14  1  0
  6 15  1  0
  6 16  1  0
  6 17  1  0
  7 18  1  0
  7 19  1  0
  7 20  1  0
  9 21  1  0
  9 22  1  0
  9 23  1  0
M  END
