
     RDKit          3D

 19 18  0  0  0  0  0  0  0  0999 V2000
   -1.8119    2.5589   -0.1400 C   0  0  0  0  0  0  0  0  0  0  0  0
   -1.9301    1.5137    0.1878 C   0  0  0  0  0  0  0  0  0  0  0  0
   -2.1411   -0.1207    0.7120 C   0  0  0  0  0  0  0  0  0  0  0  0
   -2.1807   -0.6250   -0.9655 C   0  0  0  0  0  0  0  0  0  0  0  0
   -0.8073   -0.3626    0.7707 O   0  0  0  0  0  0  0  0  0  0  0  0
    0.0617    0.3385    0.0273 C   0  0  0  0  0  0  0  0  0  0  0  0
    1.3979   -0.2307    0.3849 C   0  0  0  0  0  0  0  0  0  0  0  0
    2.4978   -0.6944    0.6995 C   0  0  0  0  0  0  0  0  0  0  0  0
    3.7881   -1.2628    1.0830 C   0  0  0  0  0  0  0  0  0  0  0  0
   -1.6870    3.6242   -0.4542 H   0  0  0  0  0  0  0  0  0  0  0  0
   -3.0609    0.0467    0.6711 H   0  0  0  0  0  0  0  0  0  0  0  0
   -3.1758   -1.0175   -1.0083 H   0  0  0  0  0  0  0  0  0  0  0  0
   -1.4183   -1.3894   -0.9631 H   0  0  0  0  0  0  0  0  0  0  0  0
   -2.0114    0.2775   -1.4809 H   0  0  0  0  0  0  0  0  0  0  0  0
   -0.1045    0.1358   -1.0739 H   0  0  0  0  0  0  0  0  0  0  0  0
    0.1130    1.4119    0.3023 H   0  0  0  0  0  0  0  0  0  0  0  0
    4.4992   -0.4314    1.2816 H   0  0  0  0  0  0  0  0  0  0  0  0
    3.7034   -1.9004    2.0108 H   0  0  0  0  0  0  0  0  0  0  0  0
    4.2681   -1.8724    0.2549 H   0  0  0  0  0  0  0  0  0  0  0  0
  1  2  3  0
  2  3  1  0
  3  4  1  0
  3  5  1  0
  5  6  1  0
  6  7  1  0
  7  8  3  0
  8  9  1  0
  1 10  1  0
  3 11  1  0
  4 12  1  0
  4 13  1  0
  4 14  1  0
  6 15  1  0
  6 16  1  0
  9 17  1  0
  9 18  1  0
  9 19  1  0
M  END
