
     RDKit          3D

 17 18  0  0  0  0  0  0  0  0999 V2000
    3.7067   -0.3329    1.0732 C   0  0  0  0  0  0  0  0  0  0  0  0
    2.5614   -0.1208    0.6947 C   0  0  0  0  0  0  0  0  0  0  0  0
    1.2300    0.1302    0.2643 C   0  0  0  0  0  0  0  0  0  0  0  0
    0.7638    1.3041   -0.0890 C   0  0  0  0  0  0  0  0  0  0  0  0
   -0.6536    1.1805   -0.4751 C   0  0  0  0  0  0  0  0  0  0  0  0
   -1.0234   -0.2109   -0.0442 C   0  0  0  0  0  0  0  0  0  0  0  0
   -2.3356   -0.7390   -0.5679 C   0  0  0  0  0  0  0  0  0  0  0  0
   -0.7888   -0.6101    1.2900 O   0  0  0  0  0  0  0  0  0  0  0  0
    0.1626   -0.8844    0.1527 C   0  0  0  0  0  0  0  0  0  0  0  0
    4.6948   -0.5059    1.4132 H   0  0  0  0  0  0  0  0  0  0  0  0
    1.3028    2.2613   -0.1118 H   0  0  0  0  0  0  0  0  0  0  0  0
   -0.7283    1.1785   -1.6025 H   0  0  0  0  0  0  0  0  0  0  0  0
   -1.2984    1.9597   -0.0337 H   0  0  0  0  0  0  0  0  0  0  0  0
   -2.2432   -1.0008   -1.6270 H   0  0  0  0  0  0  0  0  0  0  0  0
   -2.6237   -1.6844   -0.0325 H   0  0  0  0  0  0  0  0  0  0  0  0
   -3.1198    0.0226   -0.3706 H   0  0  0  0  0  0  0  0  0  0  0  0
    0.3927   -1.9477    0.0662 H   0  0  0  0  0  0  0  0  0  0  0  0
  1  2  3  0
  2  3  1  0
  3  4  2  0
  4  5  1  0
  5  6  1  0
  6  7  1  0
  6  8  1  0
  8  9  1  0
  9  3  1  0
  9  6  1  0
  1 10  1  0
  4 11  1  0
  5 12  1  0
  5 13  1  0
  7 14  1  0
  7 15  1  0
  7 16  1  0
  9 17  1  0
M  END
