
     RDKit          3D

 19 18  0  0  0  0  0  0  0  0999 V2000
    3.7871    0.3827    0.1477 C   0  0  0  0  0  0  0  0  0  0  0  0
    2.8779   -0.3792   -0.0602 C   0  0  0  0  0  0  0  0  0  0  0  0
    1.7933   -1.3146   -0.3265 C   0  0  0  0  0  0  0  0  0  0  0  0
    2.0725   -2.3750   -0.9425 O   0  0  0  0  0  0  0  0  0  0  0  0
    0.4170   -1.0703    0.0886 C   0  0  0  0  0  0  0  0  0  0  0  0
   -0.3936   -2.1092   -0.2891 O   0  0  0  0  0  0  0  0  0  0  0  0
   -0.1472    0.2281   -0.4515 C   0  0  0  0  0  0  0  0  0  0  0  0
   -1.5736    0.3208    0.0738 C   0  0  0  0  0  0  0  0  0  0  0  0
   -2.2632    1.5815   -0.3929 C   0  0  0  0  0  0  0  0  0  0  0  0
    4.5886    1.0651    0.3265 H   0  0  0  0  0  0  0  0  0  0  0  0
    0.3974   -0.9841    1.1940 H   0  0  0  0  0  0  0  0  0  0  0  0
   -0.7691   -1.9590   -1.1767 H   0  0  0  0  0  0  0  0  0  0  0  0
   -0.2088    0.2396   -1.5536 H   0  0  0  0  0  0  0  0  0  0  0  0
    0.3940    1.1015   -0.0556 H   0  0  0  0  0  0  0  0  0  0  0  0
   -2.1003   -0.5998   -0.2892 H   0  0  0  0  0  0  0  0  0  0  0  0
   -1.5827    0.2529    1.1859 H   0  0  0  0  0  0  0  0  0  0  0  0
   -3.2267    1.3109   -0.8626 H   0  0  0  0  0  0  0  0  0  0  0  0
   -1.5926    2.0955   -1.0932 H   0  0  0  0  0  0  0  0  0  0  0  0
   -2.4701    2.2124    0.4836 H   0  0  0  0  0  0  0  0  0  0  0  0
  1  2  3  0
  2  3  1  0
  3  4  2  0
  3  5  1  0
  5  6  1  0
  5  7  1  0
  7  8  1  0
  8  9  1  0
  1 10  1  0
  5 11  1  0
  6 12  1  0
  7 13  1  0
  7 14  1  0
  8 15  1  0
  8 16  1  0
  9 17  1  0
  9 18  1  0
  9 19  1  0
M  END
