
     RDKit          3D

 23 23  0  0  0  0  0  0  0  0999 V2000
    2.6581   -2.9024   -0.1515 C   0  0  0  0  0  0  0  0  0  0  0  0
    1.9410   -1.9946   -0.3328 C   0  0  0  0  0  0  0  0  0  0  0  0
    1.0120   -0.8556   -0.5509 C   0  0  0  0  0  0  0  0  0  0  0  0
    1.8988    0.3788   -0.4324 C   0  0  0  0  0  0  0  0  0  0  0  0
   -0.0199   -0.9512    0.5051 C   0  0  0  0  0  0  0  0  0  0  0  0
   -1.0922    0.0356    0.5773 C   0  0  0  0  0  0  0  0  0  0  0  0
   -0.8272    1.4833    0.7750 C   0  0  0  0  0  0  0  0  0  0  0  0
   -2.1924    1.7161    0.0866 C   0  0  0  0  0  0  0  0  0  0  0  0
   -1.8364    0.4292   -0.6846 C   0  0  0  0  0  0  0  0  0  0  0  0
    3.3480   -3.7806    0.0037 H   0  0  0  0  0  0  0  0  0  0  0  0
    0.6739   -0.9199   -1.5858 H   0  0  0  0  0  0  0  0  0  0  0  0
    1.9317    0.8161    0.5607 H   0  0  0  0  0  0  0  0  0  0  0  0
    2.9680    0.0502   -0.6381 H   0  0  0  0  0  0  0  0  0  0  0  0
    1.5813    1.0875   -1.2217 H   0  0  0  0  0  0  0  0  0  0  0  0
   -0.4694   -1.9887    0.4896 H   0  0  0  0  0  0  0  0  0  0  0  0
    0.5292   -0.9479    1.4983 H   0  0  0  0  0  0  0  0  0  0  0  0
   -1.8891   -0.2957    1.3191 H   0  0  0  0  0  0  0  0  0  0  0  0
   -0.0801    1.9859    0.1630 H   0  0  0  0  0  0  0  0  0  0  0  0
   -0.9460    1.8743    1.8153 H   0  0  0  0  0  0  0  0  0  0  0  0
   -2.2196    2.6255   -0.5338 H   0  0  0  0  0  0  0  0  0  0  0  0
   -3.0392    1.5836    0.7827 H   0  0  0  0  0  0  0  0  0  0  0  0
   -2.7268   -0.1676   -0.9028 H   0  0  0  0  0  0  0  0  0  0  0  0
   -1.2040    0.7382   -1.5421 H   0  0  0  0  0  0  0  0  0  0  0  0
  1  2  3  0
  2  3  1  0
  3  4  1  0
  3  5  1  0
  5  6  1  0
  6  7  1  0
  7  8  1  0
  8  9  1  0
  9  6  1  0
  1 10  1  0
  3 11  1  0
  4 12  1  0
  4 13  1  0
  4 14  1  0
  5 15  1  0
  5 16  1  0
  6 17  1  0
  7 18  1  0
  7 19  1  0
  8 20  1  0
  8 21  1  0
  9 22  1  0
  9 23  1  0
M  END
