
     RDKit          3D

 16 15  0  0  0  0  0  0  0  0999 V2000
    1.5512   -2.5153    1.7241 C   0  0  0  0  0  0  0  0  0  0  0  0
    0.8397   -1.7848    0.7559 C   0  0  0  0  0  0  0  0  0  0  0  0
    0.1979   -1.1101   -0.1370 C   0  0  0  0  0  0  0  0  0  0  0  0
    0.0353    0.3927    0.0808 C   0  0  0  0  0  0  0  0  0  0  0  0
   -0.6450    0.7639    1.3415 C   0  0  0  0  0  0  0  0  0  0  0  0
   -1.0228    0.7332   -0.9181 O   0  0  0  0  0  0  0  0  0  0  0  0
   -0.9091    1.4750   -1.9212 C   0  0  0  0  0  0  0  0  0  0  0  0
    0.4569    1.9841   -1.9809 O   0  0  0  0  0  0  0  0  0  0  0  0
    2.0572   -3.0441    2.4402 H   0  0  0  0  0  0  0  0  0  0  0  0
   -0.5969   -1.4969   -0.7844 H   0  0  0  0  0  0  0  0  0  0  0  0
    1.0473   -1.0199   -1.1005 H   0  0  0  0  0  0  0  0  0  0  0  0
    0.9317    0.9456   -0.1634 H   0  0  0  0  0  0  0  0  0  0  0  0
   -1.6884    0.3545    1.2881 H   0  0  0  0  0  0  0  0  0  0  0  0
   -0.7320    1.9025    1.4180 H   0  0  0  0  0  0  0  0  0  0  0  0
   -0.2185    0.4645    2.2835 H   0  0  0  0  0  0  0  0  0  0  0  0
   -1.3045    1.9551   -2.8301 H   0  0  0  0  0  0  0  0  0  0  0  0
  1  2  3  0
  2  3  1  0
  3  4  1  0
  4  5  1  0
  4  6  1  0
  6  7  1  0
  7  8  2  0
  1  9  1  0
  3 10  1  0
  3 11  1  0
  4 12  1  0
  5 13  1  0
  5 14  1  0
  5 15  1  0
  7 16  1  0
M  END
