
     RDKit          3D

 15 15  0  0  0  0  0  0  0  0999 V2000
    1.7579    2.3871    0.8644 C   0  0  0  0  0  0  0  0  0  0  0  0
    0.9324    1.5268    0.9762 C   0  0  0  0  0  0  0  0  0  0  0  0
   -0.0878    0.4494    1.1003 C   0  0  0  0  0  0  0  0  0  0  0  0
    0.3128   -0.6189    1.8323 O   0  0  0  0  0  0  0  0  0  0  0  0
   -0.4889    0.1247   -0.2926 C   0  0  0  0  0  0  0  0  0  0  0  0
   -1.6081   -0.7163   -0.4765 O   0  0  0  0  0  0  0  0  0  0  0  0
   -0.9673   -1.3707   -1.5742 C   0  0  0  0  0  0  0  0  0  0  0  0
    0.3218   -0.9857   -0.9573 C   0  0  0  0  0  0  0  0  0  0  0  0
    1.4774   -1.2518   -0.8779 O   0  0  0  0  0  0  0  0  0  0  0  0
    2.4754    3.1483    0.7770 H   0  0  0  0  0  0  0  0  0  0  0  0
   -1.0112    0.9243    1.6026 H   0  0  0  0  0  0  0  0  0  0  0  0
   -0.2545   -1.4199    1.6489 H   0  0  0  0  0  0  0  0  0  0  0  0
   -0.4590    0.9993   -0.9746 H   0  0  0  0  0  0  0  0  0  0  0  0
   -1.1423   -2.4303   -1.6777 H   0  0  0  0  0  0  0  0  0  0  0  0
   -1.2585   -0.7664   -2.4667 H   0  0  0  0  0  0  0  0  0  0  0  0
  1  2  3  0
  2  3  1  0
  3  4  1  0
  3  5  1  0
  5  6  1  0
  6  7  1  0
  7  8  1  0
  8  9  2  0
  8  5  1  0
  1 10  1  0
  3 11  1  0
  4 12  1  0
  5 13  1  0
  7 14  1  0
  7 15  1  0
M  END
