
     RDKit          3D

 17 18  0  0  0  0  0  0  0  0999 V2000
    2.0111    2.7878   -0.7943 C   0  0  0  0  0  0  0  0  0  0  0  0
    1.4478    1.7908   -0.3610 C   0  0  0  0  0  0  0  0  0  0  0  0
    0.7722    0.6093    0.1799 C   0  0  0  0  0  0  0  0  0  0  0  0
    1.3160    0.0948    1.3347 O   0  0  0  0  0  0  0  0  0  0  0  0
   -0.6991    0.6094    0.0730 C   0  0  0  0  0  0  0  0  0  0  0  0
   -1.5900   -0.3550    0.6848 C   0  0  0  0  0  0  0  0  0  0  0  0
   -1.3361   -1.6113    0.4083 C   0  0  0  0  0  0  0  0  0  0  0  0
   -0.1694   -1.6938   -0.4819 C   0  0  0  0  0  0  0  0  0  0  0  0
    0.1531   -0.2812   -0.8429 C   0  0  0  0  0  0  0  0  0  0  0  0
    2.5108    3.6489   -1.1555 H   0  0  0  0  0  0  0  0  0  0  0  0
    0.6063   -0.0760    2.0077 H   0  0  0  0  0  0  0  0  0  0  0  0
   -1.2269    1.4347   -0.4779 H   0  0  0  0  0  0  0  0  0  0  0  0
   -2.4327   -0.0477    1.3450 H   0  0  0  0  0  0  0  0  0  0  0  0
   -1.9273   -2.4935    0.7971 H   0  0  0  0  0  0  0  0  0  0  0  0
   -0.3569   -2.3313   -1.3786 H   0  0  0  0  0  0  0  0  0  0  0  0
    0.7187   -2.0740    0.0886 H   0  0  0  0  0  0  0  0  0  0  0  0
    0.2022   -0.0118   -1.9189 H   0  0  0  0  0  0  0  0  0  0  0  0
  1  2  3  0
  2  3  1  0
  3  4  1  0
  3  5  1  0
  5  6  1  0
  6  7  2  0
  7  8  1  0
  8  9  1  0
  9  3  1  0
  9  5  1  0
  1 10  1  0
  4 11  1  0
  5 12  1  0
  6 13  1  0
  7 14  1  0
  8 15  1  0
  8 16  1  0
  9 17  1  0
M  END
