
     RDKit          3D

 17 17  0  0  0  0  0  0  0  0999 V2000
    3.0513   -0.8604   -0.4291 C   0  0  0  0  0  0  0  0  0  0  0  0
    2.0493   -0.4115    0.0672 C   0  0  0  0  0  0  0  0  0  0  0  0
    0.8349    0.1512    0.6760 C   0  0  0  0  0  0  0  0  0  0  0  0
    0.3010    1.2315   -0.2667 C   0  0  0  0  0  0  0  0  0  0  0  0
   -0.8820    0.5730   -0.9433 C   0  0  0  0  0  0  0  0  0  0  0  0
   -1.4665   -0.1863    0.2580 C   0  0  0  0  0  0  0  0  0  0  0  0
   -2.4643   -1.0548   -0.1159 O   0  0  0  0  0  0  0  0  0  0  0  0
   -0.2473   -0.8608    0.7684 C   0  0  0  0  0  0  0  0  0  0  0  0
   -0.2017   -2.0031    1.1657 O   0  0  0  0  0  0  0  0  0  0  0  0
    3.9575   -1.2470   -0.8674 H   0  0  0  0  0  0  0  0  0  0  0  0
    1.0441    0.5392    1.6733 H   0  0  0  0  0  0  0  0  0  0  0  0
   -0.0423    2.0915    0.3217 H   0  0  0  0  0  0  0  0  0  0  0  0
    1.0635    1.5752   -0.9675 H   0  0  0  0  0  0  0  0  0  0  0  0
   -0.5614   -0.1677   -1.6996 H   0  0  0  0  0  0  0  0  0  0  0  0
   -1.6060    1.2942   -1.3412 H   0  0  0  0  0  0  0  0  0  0  0  0
   -1.8109    0.5555    1.0050 H   0  0  0  0  0  0  0  0  0  0  0  0
   -3.0194   -1.2196    0.6954 H   0  0  0  0  0  0  0  0  0  0  0  0
  1  2  3  0
  2  3  1  0
  3  4  1  0
  4  5  1  0
  5  6  1  0
  6  7  1  0
  6  8  1  0
  8  9  2  0
  8  3  1  0
  1 10  1  0
  3 11  1  0
  4 12  1  0
  4 13  1  0
  5 14  1  0
  5 15  1  0
  6 16  1  0
  7 17  1  0
M  END
