
     RDKit          3D

 16 17  0  0  0  0  0  0  0  0999 V2000
    3.1357   -0.8564    0.9146 C   0  0  0  0  0  0  0  0  0  0  0  0
    2.5218   -0.5037    0.5827 C   0  0  0  0  0  0  0  0  0  0  0  0
    1.2250    0.2098   -0.1102 C   0  0  0  0  0  0  0  0  0  0  0  0
    0.0581   -0.0211   -0.6933 C   0  0  0  0  0  0  0  0  0  0  0  0
   -0.5796    1.3341   -0.9121 O   0  0  0  0  0  0  0  0  0  0  0  0
   -1.8187    0.9135   -0.5221 C   0  0  0  0  0  0  0  0  0  0  0  0
   -2.3382   -0.4578   -0.3854 C   0  0  0  0  0  0  0  0  0  0  0  0
   -1.0887   -0.1477    0.3025 C   0  0  0  0  0  0  0  0  0  0  0  0
    4.4045   -1.6025    1.5778 H   0  0  0  0  0  0  0  0  0  0  0  0
    1.4053    1.3389    0.1734 H   0  0  0  0  0  0  0  0  0  0  0  0
    1.9658    0.4471   -1.2405 H   0  0  0  0  0  0  0  0  0  0  0  0
   -0.0776   -0.5081   -1.6305 H   0  0  0  0  0  0  0  0  0  0  0  0
   -2.4234    1.7025    0.1210 H   0  0  0  0  0  0  0  0  0  0  0  0
   -3.2055   -0.6234    0.3112 H   0  0  0  0  0  0  0  0  0  0  0  0
   -2.2508   -1.2070   -1.2488 H   0  0  0  0  0  0  0  0  0  0  0  0
   -0.9336   -0.0182    1.3765 H   0  0  0  0  0  0  0  0  0  0  0  0
  1  2  3  0
  2  3  1  0
  3  4  1  0
  4  5  1  0
  5  6  1  0
  6  7  1  0
  7  8  1  0
  8  4  1  0
  8  6  1  0
  1  9  1  0
  3 10  1  0
  3 11  1  0
  4 12  1  0
  6 13  1  0
  7 14  1  0
  7 15  1  0
  8 16  1  0
M  END
