
     RDKit          3D

 19 21  0  0  0  0  0  0  0  0999 V2000
    2.7414   -0.0476   -1.7593 C   0  0  0  0  0  0  0  0  0  0  0  0
    1.7270   -0.0264   -1.1137 C   0  0  0  0  0  0  0  0  0  0  0  0
    0.5571   -0.0075   -0.3524 C   0  0  0  0  0  0  0  0  0  0  0  0
    0.6263    0.6399    1.0052 C   0  0  0  0  0  0  0  0  0  0  0  0
   -0.8407    0.4265    1.4246 C   0  0  0  0  0  0  0  0  0  0  0  0
   -1.2594   -0.8367    0.7977 C   0  0  0  0  0  0  0  0  0  0  0  0
   -0.0544   -1.3519   -0.0074 C   0  0  0  0  0  0  0  0  0  0  0  0
   -1.6355    0.4597    0.1870 C   0  0  0  0  0  0  0  0  0  0  0  0
   -0.6328    0.7030   -0.9522 C   0  0  0  0  0  0  0  0  0  0  0  0
    3.6538   -0.0490   -2.3330 H   0  0  0  0  0  0  0  0  0  0  0  0
    0.8037    1.7290    0.9685 H   0  0  0  0  0  0  0  0  0  0  0  0
    1.3019    0.1017    1.6982 H   0  0  0  0  0  0  0  0  0  0  0  0
   -1.1725    0.8009    2.3807 H   0  0  0  0  0  0  0  0  0  0  0  0
   -1.9615   -1.5417    1.2184 H   0  0  0  0  0  0  0  0  0  0  0  0
    0.6104   -1.9711    0.6275 H   0  0  0  0  0  0  0  0  0  0  0  0
   -0.3909   -1.8895   -0.9178 H   0  0  0  0  0  0  0  0  0  0  0  0
   -2.6521    0.8096    0.0950 H   0  0  0  0  0  0  0  0  0  0  0  0
   -0.9854    0.2478   -1.8966 H   0  0  0  0  0  0  0  0  0  0  0  0
   -0.4361    1.8032   -1.0704 H   0  0  0  0  0  0  0  0  0  0  0  0
  1  2  3  0
  2  3  1  0
  3  4  1  0
  4  5  1  0
  5  6  1  0
  6  7  1  0
  6  8  1  0
  8  9  1  0
  7  3  1  0
  9  3  1  0
  8  5  1  0
  1 10  1  0
  4 11  1  0
  4 12  1  0
  5 13  1  0
  6 14  1  0
  7 15  1  0
  7 16  1  0
  8 17  1  0
  9 18  1  0
  9 19  1  0
M  END
