
     RDKit          3D

 19 19  0  0  0  0  0  0  0  0999 V2000
    1.2293    2.6970   -1.2486 C   0  0  0  0  0  0  0  0  0  0  0  0
    0.8203    1.4819   -0.6459 C   0  0  0  0  0  0  0  0  0  0  0  0
    0.4539    0.3766   -0.1162 C   0  0  0  0  0  0  0  0  0  0  0  0
    1.5570   -0.7173   -0.0035 C   0  0  0  0  0  0  0  0  0  0  0  0
   -0.0387    0.4977    1.3141 C   0  0  0  0  0  0  0  0  0  0  0  0
   -0.8452   -0.5198    1.5423 C   0  0  0  0  0  0  0  0  0  0  0  0
   -0.9656   -1.3962    0.3205 C   0  0  0  0  0  0  0  0  0  0  0  0
   -0.8222   -0.2756   -0.7382 C   0  0  0  0  0  0  0  0  0  0  0  0
   -1.8675    0.6275   -0.4952 O   0  0  0  0  0  0  0  0  0  0  0  0
    1.5673    3.6716   -1.7431 H   0  0  0  0  0  0  0  0  0  0  0  0
    1.4626   -1.4531   -0.8091 H   0  0  0  0  0  0  0  0  0  0  0  0
    2.5191   -0.1272   -0.1379 H   0  0  0  0  0  0  0  0  0  0  0  0
    1.5795   -1.1341    1.0082 H   0  0  0  0  0  0  0  0  0  0  0  0
    0.2431    1.2819    2.0250 H   0  0  0  0  0  0  0  0  0  0  0  0
   -1.3870   -0.7447    2.4890 H   0  0  0  0  0  0  0  0  0  0  0  0
   -1.9106   -1.8343    0.1394 H   0  0  0  0  0  0  0  0  0  0  0  0
   -0.1641   -2.1199    0.3064 H   0  0  0  0  0  0  0  0  0  0  0  0
   -0.6828   -0.5787   -1.7500 H   0  0  0  0  0  0  0  0  0  0  0  0
   -2.7486    0.2667   -0.8272 H   0  0  0  0  0  0  0  0  0  0  0  0
  1  2  3  0
  2  3  1  0
  3  4  1  0
  3  5  1  0
  5  6  2  0
  6  7  1  0
  7  8  1  0
  8  9  1  0
  8  3  1  0
  1 10  1  0
  4 11  1  0
  4 12  1  0
  4 13  1  0
  5 14  1  0
  6 15  1  0
  7 16  1  0
  7 17  1  0
  8 18  1  0
  9 19  1  0
M  END
