
     RDKit          3D

 21 21  0  0  0  0  0  0  0  0999 V2000
   -1.8356    1.9316    1.4626 C   0  0  0  0  0  0  0  0  0  0  0  0
   -1.4881    1.2103    0.9498 C   0  0  0  0  0  0  0  0  0  0  0  0
   -0.9373    0.0310    0.0895 C   0  0  0  0  0  0  0  0  0  0  0  0
   -0.5220   -0.9347    1.1474 C   0  0  0  0  0  0  0  0  0  0  0  0
    0.0987   -2.2333    0.7855 C   0  0  0  0  0  0  0  0  0  0  0  0
    0.0329    0.6267   -0.8102 C   0  0  0  0  0  0  0  0  0  0  0  0
    0.9039   -0.1711   -1.7248 C   0  0  0  0  0  0  0  0  0  0  0  0
    1.4777    0.8562   -0.7503 C   0  0  0  0  0  0  0  0  0  0  0  0
    1.9659    2.0022   -1.4672 O   0  0  0  0  0  0  0  0  0  0  0  0
   -2.3488    2.9603    2.2209 H   0  0  0  0  0  0  0  0  0  0  0  0
   -1.8216   -0.3539   -0.4749 H   0  0  0  0  0  0  0  0  0  0  0  0
   -1.4532   -1.0746    1.8269 H   0  0  0  0  0  0  0  0  0  0  0  0
    0.2074   -0.4740    1.9008 H   0  0  0  0  0  0  0  0  0  0  0  0
   -0.1853   -2.6806   -0.1742 H   0  0  0  0  0  0  0  0  0  0  0  0
   -0.0193   -2.9449    1.6642 H   0  0  0  0  0  0  0  0  0  0  0  0
    1.2514   -2.1210    0.7498 H   0  0  0  0  0  0  0  0  0  0  0  0
   -0.4931    1.5258   -1.3831 H   0  0  0  0  0  0  0  0  0  0  0  0
    0.8789    0.0530   -2.8103 H   0  0  0  0  0  0  0  0  0  0  0  0
    1.0522   -1.2396   -1.4767 H   0  0  0  0  0  0  0  0  0  0  0  0
    2.1501    0.5963    0.0396 H   0  0  0  0  0  0  0  0  0  0  0  0
    1.0851    2.4344   -1.7652 H   0  0  0  0  0  0  0  0  0  0  0  0
  1  2  3  0
  2  3  1  0
  3  4  1  0
  4  5  1  0
  3  6  1  0
  6  7  1  0
  7  8  1  0
  8  9  1  0
  8  6  1  0
  1 10  1  0
  3 11  1  0
  4 12  1  0
  4 13  1  0
  5 14  1  0
  5 15  1  0
  5 16  1  0
  6 17  1  0
  7 18  1  0
  7 19  1  0
  8 20  1  0
  9 21  1  0
M  END
