
     RDKit          3D

 13 12  0  0  0  0  0  0  0  0999 V2000
    4.7776   -1.3277   -0.0707 C   0  0  0  0  0  0  0  0  0  0  0  0
    3.3369   -1.1093   -0.1010 C   0  0  0  0  0  0  0  0  0  0  0  0
    1.7670   -0.8846   -0.1504 C   0  0  0  0  0  0  0  0  0  0  0  0
    0.6177   -0.7136   -0.1987 C   0  0  0  0  0  0  0  0  0  0  0  0
   -0.4424   -0.5711   -0.2338 C   0  0  0  0  0  0  0  0  0  0  0  0
   -1.3284    0.1165    0.0090 C   0  0  0  0  0  0  0  0  0  0  0  0
   -2.3398    0.8891    0.2938 C   0  0  0  0  0  0  0  0  0  0  0  0
   -3.4549    1.7580    0.6273 C   0  0  0  0  0  0  0  0  0  0  0  0
   -4.5854    1.9490    0.7298 O   0  0  0  0  0  0  0  0  0  0  0  0
    6.0169   -1.5341   -0.0553 H   0  0  0  0  0  0  0  0  0  0  0  0
    0.1905    0.9873   -0.2281 H   0  0  0  0  0  0  0  0  0  0  0  0
   -0.3304    0.0326   -1.7130 H   0  0  0  0  0  0  0  0  0  0  0  0
   -4.2252    0.4079    0.2118 H   0  0  0  0  0  0  0  0  0  0  0  0
  1  2  3  0
  2  3  1  0
  3  4  3  0
  4  5  1  0
  5  6  1  0
  6  7  3  0
  7  8  1  0
  8  9  2  0
  1 10  1  0
  5 11  1  0
  5 12  1  0
  8 13  1  0
M  END
