
     RDKit          3D

 19 19  0  0  0  0  0  0  0  0999 V2000
    4.5552   -0.9004    0.0795 C   0  0  0  0  0  0  0  0  0  0  0  0
    3.3899   -0.5395    0.1427 C   0  0  0  0  0  0  0  0  0  0  0  0
    2.0583   -0.1024    0.2085 C   0  0  0  0  0  0  0  0  0  0  0  0
    0.8898    0.2627    0.2542 C   0  0  0  0  0  0  0  0  0  0  0  0
   -0.5018    0.7138    0.2896 C   0  0  0  0  0  0  0  0  0  0  0  0
   -0.7887    2.1526   -0.1296 C   0  0  0  0  0  0  0  0  0  0  0  0
   -1.3917    0.1620    1.3067 C   0  0  0  0  0  0  0  0  0  0  0  0
   -1.5755   -0.3290   -0.1315 C   0  0  0  0  0  0  0  0  0  0  0  0
   -1.0504   -1.7390   -0.3689 C   0  0  0  0  0  0  0  0  0  0  0  0
    5.5681   -1.2192    0.0424 H   0  0  0  0  0  0  0  0  0  0  0  0
   -1.0985    2.7328    0.7696 H   0  0  0  0  0  0  0  0  0  0  0  0
   -1.5719    2.2218   -0.8822 H   0  0  0  0  0  0  0  0  0  0  0  0
    0.1687    2.6250   -0.4741 H   0  0  0  0  0  0  0  0  0  0  0  0
   -1.0939   -0.5760    2.0675 H   0  0  0  0  0  0  0  0  0  0  0  0
   -2.2744    0.7753    1.6473 H   0  0  0  0  0  0  0  0  0  0  0  0
   -2.4133    0.0295   -0.7211 H   0  0  0  0  0  0  0  0  0  0  0  0
   -1.0725   -2.3032    0.5855 H   0  0  0  0  0  0  0  0  0  0  0  0
   -0.0232   -1.7368   -0.7606 H   0  0  0  0  0  0  0  0  0  0  0  0
   -1.7744   -2.2301   -1.0537 H   0  0  0  0  0  0  0  0  0  0  0  0
  1  2  3  0
  2  3  1  0
  3  4  3  0
  4  5  1  0
  5  6  1  0
  5  7  1  0
  7  8  1  0
  8  9  1  0
  8  5  1  0
  1 10  1  0
  6 11  1  0
  6 12  1  0
  6 13  1  0
  7 14  1  0
  7 15  1  0
  8 16  1  0
  9 17  1  0
  9 18  1  0
  9 19  1  0
M  END
