
     RDKit          3D

 14 14  0  0  0  0  0  0  0  0999 V2000
    2.4263    0.3057    1.6833 C   0  0  0  0  0  0  0  0  0  0  0  0
    1.5956    0.1187    0.8310 C   0  0  0  0  0  0  0  0  0  0  0  0
    0.5869   -0.1044   -0.2066 C   0  0  0  0  0  0  0  0  0  0  0  0
   -0.3308   -1.2387    0.1826 C   0  0  0  0  0  0  0  0  0  0  0  0
   -1.5721   -0.7072    0.4388 O   0  0  0  0  0  0  0  0  0  0  0  0
   -1.7112    0.4643   -0.2620 C   0  0  0  0  0  0  0  0  0  0  0  0
   -0.3500    1.0283   -0.3401 C   0  0  0  0  0  0  0  0  0  0  0  0
   -0.0762    2.1921   -0.4851 O   0  0  0  0  0  0  0  0  0  0  0  0
    3.1568    0.4728    2.4599 H   0  0  0  0  0  0  0  0  0  0  0  0
    1.0580   -0.2977   -1.1982 H   0  0  0  0  0  0  0  0  0  0  0  0
   -0.3672   -1.9653   -0.6528 H   0  0  0  0  0  0  0  0  0  0  0  0
    0.0096   -1.7606    1.0995 H   0  0  0  0  0  0  0  0  0  0  0  0
   -2.3381    1.1620    0.3311 H   0  0  0  0  0  0  0  0  0  0  0  0
   -2.0875    0.3300   -1.2943 H   0  0  0  0  0  0  0  0  0  0  0  0
  1  2  3  0
  2  3  1  0
  3  4  1  0
  4  5  1  0
  5  6  1  0
  6  7  1  0
  7  8  2  0
  7  3  1  0
  1  9  1  0
  3 10  1  0
  4 11  1  0
  4 12  1  0
  6 13  1  0
  6 14  1  0
M  END
