
     RDKit          3D

 19 20  0  0  0  0  0  0  0  0999 V2000
    3.1122   -0.4599    1.0640 C   0  0  0  0  0  0  0  0  0  0  0  0
    1.9501   -0.7674    1.0898 C   0  0  0  0  0  0  0  0  0  0  0  0
    0.5169   -1.1337    1.1247 C   0  0  0  0  0  0  0  0  0  0  0  0
   -0.1925   -0.2005    0.1933 C   0  0  0  0  0  0  0  0  0  0  0  0
   -1.6671   -0.2828   -0.0217 C   0  0  0  0  0  0  0  0  0  0  0  0
   -1.8395    0.5155   -1.3108 C   0  0  0  0  0  0  0  0  0  0  0  0
   -0.6618    0.3769   -2.0104 O   0  0  0  0  0  0  0  0  0  0  0  0
    0.3693    0.2571   -1.0689 C   0  0  0  0  0  0  0  0  0  0  0  0
    0.3813    1.1945    0.0726 C   0  0  0  0  0  0  0  0  0  0  0  0
    4.1479   -0.1705    1.0523 H   0  0  0  0  0  0  0  0  0  0  0  0
    0.1449   -1.0921    2.1621 H   0  0  0  0  0  0  0  0  0  0  0  0
    0.3528   -2.1696    0.7646 H   0  0  0  0  0  0  0  0  0  0  0  0
   -2.1606    0.2202    0.8406 H   0  0  0  0  0  0  0  0  0  0  0  0
   -2.0476   -1.2941   -0.1895 H   0  0  0  0  0  0  0  0  0  0  0  0
   -2.0850    1.5674   -1.0487 H   0  0  0  0  0  0  0  0  0  0  0  0
   -2.6936    0.1077   -1.8831 H   0  0  0  0  0  0  0  0  0  0  0  0
    1.3133   -0.1194   -1.4886 H   0  0  0  0  0  0  0  0  0  0  0  0
    1.3785    1.4110    0.5076 H   0  0  0  0  0  0  0  0  0  0  0  0
   -0.3197    2.0397    0.1501 H   0  0  0  0  0  0  0  0  0  0  0  0
  1  2  3  0
  2  3  1  0
  3  4  1  0
  4  5  1  0
  5  6  1  0
  6  7  1  0
  7  8  1  0
  8  9  1  0
  8  4  1  0
  9  4  1  0
  1 10  1  0
  3 11  1  0
  3 12  1  0
  5 13  1  0
  5 14  1  0
  6 15  1  0
  6 16  1  0
  8 17  1  0
  9 18  1  0
  9 19  1  0
M  END
