
     RDKit          3D

 17 19  0  0  0  0  0  0  0  0999 V2000
    3.1703    0.0774   -0.5751 C   0  0  0  0  0  0  0  0  0  0  0  0
    1.9838   -0.0870   -0.4586 C   0  0  0  0  0  0  0  0  0  0  0  0
    0.5088   -0.3046   -0.3087 C   0  0  0  0  0  0  0  0  0  0  0  0
   -0.2298   -0.5976   -1.6102 C   0  0  0  0  0  0  0  0  0  0  0  0
   -0.1027    0.8724    0.4241 C   0  0  0  0  0  0  0  0  0  0  0  0
   -1.5576    0.8663    0.7507 C   0  0  0  0  0  0  0  0  0  0  0  0
   -1.9530    0.7122    2.0567 O   0  0  0  0  0  0  0  0  0  0  0  0
   -1.4832   -0.3787    1.3527 C   0  0  0  0  0  0  0  0  0  0  0  0
   -0.0149   -0.5175    1.0219 C   0  0  0  0  0  0  0  0  0  0  0  0
    4.2267    0.2054   -0.6814 H   0  0  0  0  0  0  0  0  0  0  0  0
    0.4749   -0.7466   -2.4436 H   0  0  0  0  0  0  0  0  0  0  0  0
   -0.9501   -1.4094   -1.4543 H   0  0  0  0  0  0  0  0  0  0  0  0
   -0.8284    0.3289   -1.9174 H   0  0  0  0  0  0  0  0  0  0  0  0
    0.5261    1.6872    0.7471 H   0  0  0  0  0  0  0  0  0  0  0  0
   -2.2925    1.2345   -0.0073 H   0  0  0  0  0  0  0  0  0  0  0  0
   -2.1021   -1.2725    1.2012 H   0  0  0  0  0  0  0  0  0  0  0  0
    0.6239   -0.6704    1.9023 H   0  0  0  0  0  0  0  0  0  0  0  0
  1  2  3  0
  2  3  1  0
  3  4  1  0
  3  5  1  0
  5  6  1  0
  6  7  1  0
  7  8  1  0
  8  9  1  0
  9  3  1  0
  9  5  1  0
  8  6  1  0
  1 10  1  0
  4 11  1  0
  4 12  1  0
  4 13  1  0
  5 14  1  0
  6 15  1  0
  8 16  1  0
  9 17  1  0
M  END
