
     RDKit          3D

 21 21  0  0  0  0  0  0  0  0999 V2000
    3.5365    0.0692    0.6059 C   0  0  0  0  0  0  0  0  0  0  0  0
    2.3690   -0.2046    0.7176 C   0  0  0  0  0  0  0  0  0  0  0  0
    0.9355   -0.5660    0.8480 C   0  0  0  0  0  0  0  0  0  0  0  0
    0.2993   -0.2831   -0.4836 C   0  0  0  0  0  0  0  0  0  0  0  0
    0.5008    1.2163   -0.7494 C   0  0  0  0  0  0  0  0  0  0  0  0
   -0.7948    1.8153   -0.3867 C   0  0  0  0  0  0  0  0  0  0  0  0
   -1.7562    0.9246   -0.2548 C   0  0  0  0  0  0  0  0  0  0  0  0
   -1.1669   -0.4010   -0.5282 C   0  0  0  0  0  0  0  0  0  0  0  0
   -1.7590   -1.4818    0.3321 C   0  0  0  0  0  0  0  0  0  0  0  0
    4.5559    0.3205    0.4942 H   0  0  0  0  0  0  0  0  0  0  0  0
    0.9416   -1.6560    1.0899 H   0  0  0  0  0  0  0  0  0  0  0  0
    0.5536    0.0524    1.6643 H   0  0  0  0  0  0  0  0  0  0  0  0
    0.8168   -0.8951   -1.2421 H   0  0  0  0  0  0  0  0  0  0  0  0
    0.7536    1.3649   -1.8286 H   0  0  0  0  0  0  0  0  0  0  0  0
    1.3444    1.6117   -0.1606 H   0  0  0  0  0  0  0  0  0  0  0  0
   -0.9550    2.8796   -0.2400 H   0  0  0  0  0  0  0  0  0  0  0  0
   -2.7917    1.1057    0.0046 H   0  0  0  0  0  0  0  0  0  0  0  0
   -1.4610   -0.6568   -1.5901 H   0  0  0  0  0  0  0  0  0  0  0  0
   -1.0842   -1.8956    1.0773 H   0  0  0  0  0  0  0  0  0  0  0  0
   -2.6159   -1.0130    0.8874 H   0  0  0  0  0  0  0  0  0  0  0  0
   -2.2223   -2.3073   -0.2569 H   0  0  0  0  0  0  0  0  0  0  0  0
  1  2  3  0
  2  3  1  0
  3  4  1  0
  4  5  1  0
  5  6  1  0
  6  7  2  0
  7  8  1  0
  8  9  1  0
  8  4  1  0
  1 10  1  0
  3 11  1  0
  3 12  1  0
  4 13  1  0
  5 14  1  0
  5 15  1  0
  6 16  1  0
  7 17  1  0
  8 18  1  0
  9 19  1  0
  9 20  1  0
  9 21  1  0
M  END
