
     RDKit          3D

 18 17  0  0  0  0  0  0  0  0999 V2000
   -1.7477    2.0943    0.5427 C   0  0  0  0  0  0  0  0  0  0  0  0
   -1.2670    0.9173   -0.0379 C   0  0  0  0  0  0  0  0  0  0  0  0
   -0.8194   -0.2286   -0.5842 C   0  0  0  0  0  0  0  0  0  0  0  0
   -1.7621   -1.3394   -0.0996 C   0  0  0  0  0  0  0  0  0  0  0  0
    0.5493   -0.6188   -0.2171 C   0  0  0  0  0  0  0  0  0  0  0  0
    1.4966    0.5690   -0.3248 C   0  0  0  0  0  0  0  0  0  0  0  0
    2.4062    0.4611    0.8728 C   0  0  0  0  0  0  0  0  0  0  0  0
    3.1479    1.3537    1.1609 O   0  0  0  0  0  0  0  0  0  0  0  0
   -2.0713    2.8455    0.9171 H   0  0  0  0  0  0  0  0  0  0  0  0
   -0.9641   -0.0470   -1.6747 H   0  0  0  0  0  0  0  0  0  0  0  0
   -1.1850   -2.2661    0.1289 H   0  0  0  0  0  0  0  0  0  0  0  0
   -2.5931   -1.5769   -0.8181 H   0  0  0  0  0  0  0  0  0  0  0  0
   -2.3247   -1.0311    0.8334 H   0  0  0  0  0  0  0  0  0  0  0  0
    0.8567   -1.4043   -0.9809 H   0  0  0  0  0  0  0  0  0  0  0  0
    0.5206   -1.0987    0.7209 H   0  0  0  0  0  0  0  0  0  0  0  0
    1.0814    1.4804   -0.5948 H   0  0  0  0  0  0  0  0  0  0  0  0
    2.2867    0.3011   -1.1574 H   0  0  0  0  0  0  0  0  0  0  0  0
    2.3888   -0.4115    1.4538 H   0  0  0  0  0  0  0  0  0  0  0  0
  1  2  3  0
  2  3  1  0
  3  4  1  0
  3  5  1  0
  5  6  1  0
  6  7  1  0
  7  8  2  0
  1  9  1  0
  3 10  1  0
  4 11  1  0
  4 12  1  0
  4 13  1  0
  5 14  1  0
  5 15  1  0
  6 16  1  0
  6 17  1  0
  7 18  1  0
M  END
