
     RDKit          3D

 21 21  0  0  0  0  0  0  0  0999 V2000
   -2.4774    2.0644   -0.3706 C   0  0  0  0  0  0  0  0  0  0  0  0
   -1.5330    1.5469   -0.1117 C   0  0  0  0  0  0  0  0  0  0  0  0
   -0.2712    0.8516    0.2083 C   0  0  0  0  0  0  0  0  0  0  0  0
    0.8422    1.8460    0.3463 C   0  0  0  0  0  0  0  0  0  0  0  0
    0.1153    0.0073   -1.0946 C   0  0  0  0  0  0  0  0  0  0  0  0
    0.7037   -0.9634   -0.1042 C   0  0  0  0  0  0  0  0  0  0  0  0
    0.4427   -2.3822   -0.5103 C   0  0  0  0  0  0  0  0  0  0  0  0
   -0.3041   -0.4148    0.9138 C   0  0  0  0  0  0  0  0  0  0  0  0
    0.1130   -0.4775    2.2391 O   0  0  0  0  0  0  0  0  0  0  0  0
   -3.5253    2.6566   -0.6708 H   0  0  0  0  0  0  0  0  0  0  0  0
    0.5602    2.8868   -0.0362 H   0  0  0  0  0  0  0  0  0  0  0  0
    1.7250    1.5098   -0.3016 H   0  0  0  0  0  0  0  0  0  0  0  0
    1.2459    1.9595    1.3544 H   0  0  0  0  0  0  0  0  0  0  0  0
    0.8607    0.5686   -1.7081 H   0  0  0  0  0  0  0  0  0  0  0  0
   -0.7849   -0.3058   -1.5683 H   0  0  0  0  0  0  0  0  0  0  0  0
    1.7378   -0.7927    0.1943 H   0  0  0  0  0  0  0  0  0  0  0  0
    0.2991   -3.0409    0.3871 H   0  0  0  0  0  0  0  0  0  0  0  0
    1.3086   -2.7656   -1.0683 H   0  0  0  0  0  0  0  0  0  0  0  0
   -0.4542   -2.4765   -1.1585 H   0  0  0  0  0  0  0  0  0  0  0  0
   -1.2835   -0.9507    0.7721 H   0  0  0  0  0  0  0  0  0  0  0  0
    0.6794   -1.3275    2.2880 H   0  0  0  0  0  0  0  0  0  0  0  0
  1  2  3  0
  2  3  1  0
  3  4  1  0
  3  5  1  0
  5  6  1  0
  6  7  1  0
  6  8  1  0
  8  9  1  0
  8  3  1  0
  1 10  1  0
  4 11  1  0
  4 12  1  0
  4 13  1  0
  5 14  1  0
  5 15  1  0
  6 16  1  0
  7 17  1  0
  7 18  1  0
  7 19  1  0
  8 20  1  0
  9 21  1  0
M  END
