
     RDKit          3D

 15 16  0  0  0  0  0  0  0  0999 V2000
    1.0678    1.7936    1.8930 C   0  0  0  0  0  0  0  0  0  0  0  0
    1.2592    0.7569    1.2684 C   0  0  0  0  0  0  0  0  0  0  0  0
    1.4679   -0.4916    0.5345 C   0  0  0  0  0  0  0  0  0  0  0  0
    0.3638   -0.7449   -0.4449 C   0  0  0  0  0  0  0  0  0  0  0  0
   -1.0441   -0.8850   -0.0197 C   0  0  0  0  0  0  0  0  0  0  0  0
   -1.9530   -1.2623   -1.0364 O   0  0  0  0  0  0  0  0  0  0  0  0
   -1.7705   -0.0051   -1.5971 C   0  0  0  0  0  0  0  0  0  0  0  0
   -2.4404    0.5702   -2.5203 O   0  0  0  0  0  0  0  0  0  0  0  0
   -0.6107    0.3357   -0.7669 C   0  0  0  0  0  0  0  0  0  0  0  0
    0.9179    2.6863    2.4417 H   0  0  0  0  0  0  0  0  0  0  0  0
    2.4348   -0.4614   -0.0436 H   0  0  0  0  0  0  0  0  0  0  0  0
    1.6098   -1.3389    1.2561 H   0  0  0  0  0  0  0  0  0  0  0  0
    0.6644   -1.4226   -1.2939 H   0  0  0  0  0  0  0  0  0  0  0  0
   -1.3807   -0.7958    1.0140 H   0  0  0  0  0  0  0  0  0  0  0  0
   -0.5864    1.2651   -0.1740 H   0  0  0  0  0  0  0  0  0  0  0  0
  1  2  3  0
  2  3  1  0
  3  4  1  0
  4  5  1  0
  5  6  1  0
  6  7  1  0
  7  8  2  0
  7  9  1  0
  9  4  1  0
  9  5  1  0
  1 10  1  0
  3 11  1  0
  3 12  1  0
  4 13  1  0
  5 14  1  0
  9 15  1  0
M  END
