
     RDKit          3D

 19 20  0  0  0  0  0  0  0  0999 V2000
    3.4208   -0.0072   -0.3785 C   0  0  0  0  0  0  0  0  0  0  0  0
    2.2377   -0.2524   -0.3280 C   0  0  0  0  0  0  0  0  0  0  0  0
    0.8294   -0.5245   -0.2766 C   0  0  0  0  0  0  0  0  0  0  0  0
    0.1314   -0.0340    1.0457 C   0  0  0  0  0  0  0  0  0  0  0  0
    0.5094    1.2035    1.4511 O   0  0  0  0  0  0  0  0  0  0  0  0
   -1.0544    0.0317    0.0923 C   0  0  0  0  0  0  0  0  0  0  0  0
   -1.5511   -1.3834   -0.3177 C   0  0  0  0  0  0  0  0  0  0  0  0
   -1.3473    1.0628   -0.8353 C   0  0  0  0  0  0  0  0  0  0  0  0
    0.0245    0.6095   -0.9457 C   0  0  0  0  0  0  0  0  0  0  0  0
    4.4528    0.2225   -0.4326 H   0  0  0  0  0  0  0  0  0  0  0  0
    0.4600   -1.4813   -0.5391 H   0  0  0  0  0  0  0  0  0  0  0  0
    0.0511   -0.8302    1.7862 H   0  0  0  0  0  0  0  0  0  0  0  0
   -0.1867    1.9068    1.3806 H   0  0  0  0  0  0  0  0  0  0  0  0
   -2.6599   -1.3803   -0.1546 H   0  0  0  0  0  0  0  0  0  0  0  0
   -1.1255   -2.1368    0.3413 H   0  0  0  0  0  0  0  0  0  0  0  0
   -1.2879   -1.5295   -1.3648 H   0  0  0  0  0  0  0  0  0  0  0  0
   -1.5700    2.0839   -0.4199 H   0  0  0  0  0  0  0  0  0  0  0  0
   -1.9847    0.8751   -1.7417 H   0  0  0  0  0  0  0  0  0  0  0  0
    0.6506    1.5638   -0.5574 H   0  0  0  0  0  0  0  0  0  0  0  0
  1  2  3  0
  2  3  1  0
  3  4  1  0
  4  5  1  0
  4  6  1  0
  6  7  1  0
  6  8  1  0
  8  9  1  0
  9  3  1  0
  9  6  1  0
  1 10  1  0
  3 11  1  0
  4 12  1  0
  5 13  1  0
  7 14  1  0
  7 15  1  0
  7 16  1  0
  8 17  1  0
  8 18  1  0
  9 19  1  0
M  END
