
     RDKit          3D

 21 22  0  0  0  0  0  0  0  0999 V2000
    3.4140    0.8756   -0.3478 C   0  0  0  0  0  0  0  0  0  0  0  0
    2.4997    0.2929   -0.6579 C   0  0  0  0  0  0  0  0  0  0  0  0
    1.2854   -0.4533   -1.0773 C   0  0  0  0  0  0  0  0  0  0  0  0
    0.2524   -0.3191   -0.0286 C   0  0  0  0  0  0  0  0  0  0  0  0
   -0.1673    1.1144    0.2577 C   0  0  0  0  0  0  0  0  0  0  0  0
   -1.6338    1.1170    0.5201 C   0  0  0  0  0  0  0  0  0  0  0  0
   -2.1403   -0.2859    0.3708 C   0  0  0  0  0  0  0  0  0  0  0  0
   -0.9776   -1.1499   -0.0224 C   0  0  0  0  0  0  0  0  0  0  0  0
    0.0776   -1.3477    1.0101 C   0  0  0  0  0  0  0  0  0  0  0  0
    4.3302    1.4666   -0.0163 H   0  0  0  0  0  0  0  0  0  0  0  0
    1.5466   -1.5352   -1.2041 H   0  0  0  0  0  0  0  0  0  0  0  0
    0.9531   -0.0922   -2.0763 H   0  0  0  0  0  0  0  0  0  0  0  0
    0.4418    1.4396    1.1253 H   0  0  0  0  0  0  0  0  0  0  0  0
    0.1254    1.7712   -0.5799 H   0  0  0  0  0  0  0  0  0  0  0  0
   -1.8125    1.5516    1.5119 H   0  0  0  0  0  0  0  0  0  0  0  0
   -2.1470    1.7538   -0.2335 H   0  0  0  0  0  0  0  0  0  0  0  0
   -2.5381   -0.6614    1.3367 H   0  0  0  0  0  0  0  0  0  0  0  0
   -2.9751   -0.3651   -0.3591 H   0  0  0  0  0  0  0  0  0  0  0  0
   -1.0863   -1.8520   -0.8768 H   0  0  0  0  0  0  0  0  0  0  0  0
   -0.1557   -1.0659    2.0792 H   0  0  0  0  0  0  0  0  0  0  0  0
    0.7076   -2.2549    0.9477 H   0  0  0  0  0  0  0  0  0  0  0  0
  1  2  3  0
  2  3  1  0
  3  4  1  0
  4  5  1  0
  5  6  1  0
  6  7  1  0
  7  8  1  0
  8  9  1  0
  8  4  1  0
  9  4  1  0
  1 10  1  0
  3 11  1  0
  3 12  1  0
  5 13  1  0
  5 14  1  0
  6 15  1  0
  6 16  1  0
  7 17  1  0
  7 18  1  0
  8 19  1  0
  9 20  1  0
  9 21  1  0
M  END
