
     RDKit          3D

 19 19  0  0  0  0  0  0  0  0999 V2000
    2.8627   -0.0196    0.8350 C   0  0  0  0  0  0  0  0  0  0  0  0
    1.9033   -0.6406    0.4046 C   0  0  0  0  0  0  0  0  0  0  0  0
    0.7880   -1.3919   -0.1067 C   0  0  0  0  0  0  0  0  0  0  0  0
   -0.4994   -1.0231    0.5308 C   0  0  0  0  0  0  0  0  0  0  0  0
   -0.4859   -1.2351    1.9260 O   0  0  0  0  0  0  0  0  0  0  0  0
   -1.0729    0.3010    0.2119 C   0  0  0  0  0  0  0  0  0  0  0  0
   -0.4377    1.5955    0.4614 C   0  0  0  0  0  0  0  0  0  0  0  0
   -0.5698    1.0746   -0.9753 C   0  0  0  0  0  0  0  0  0  0  0  0
   -1.4670    1.7661   -1.7841 O   0  0  0  0  0  0  0  0  0  0  0  0
    3.7076    0.5059    1.2091 H   0  0  0  0  0  0  0  0  0  0  0  0
    0.9458   -2.4913    0.0874 H   0  0  0  0  0  0  0  0  0  0  0  0
    0.6677   -1.3118   -1.2028 H   0  0  0  0  0  0  0  0  0  0  0  0
   -1.2434   -1.8032    0.1729 H   0  0  0  0  0  0  0  0  0  0  0  0
   -0.3532   -2.2068    2.0515 H   0  0  0  0  0  0  0  0  0  0  0  0
   -2.2026    0.3260    0.2832 H   0  0  0  0  0  0  0  0  0  0  0  0
    0.5961    1.7635    0.7523 H   0  0  0  0  0  0  0  0  0  0  0  0
   -1.0827    2.4908    0.7083 H   0  0  0  0  0  0  0  0  0  0  0  0
    0.3341    0.7476   -1.5038 H   0  0  0  0  0  0  0  0  0  0  0  0
   -2.3906    1.5525   -1.4667 H   0  0  0  0  0  0  0  0  0  0  0  0
  1  2  3  0
  2  3  1  0
  3  4  1  0
  4  5  1  0
  4  6  1  0
  6  7  1  0
  7  8  1  0
  8  9  1  0
  8  6  1  0
  1 10  1  0
  3 11  1  0
  3 12  1  0
  4 13  1  0
  5 14  1  0
  6 15  1  0
  7 16  1  0
  7 17  1  0
  8 18  1  0
  9 19  1  0
M  END
