
     RDKit          3D

 21 20  0  0  0  0  0  0  0  0999 V2000
    2.9163    1.3491   -0.0854 C   0  0  0  0  0  0  0  0  0  0  0  0
    2.1459    0.5581    0.4068 C   0  0  0  0  0  0  0  0  0  0  0  0
    1.2078   -0.3777    0.9921 C   0  0  0  0  0  0  0  0  0  0  0  0
    0.1157   -0.7792    0.0434 C   0  0  0  0  0  0  0  0  0  0  0  0
    0.7166   -1.4300   -1.1622 C   0  0  0  0  0  0  0  0  0  0  0  0
   -0.8210    0.3410   -0.3036 C   0  0  0  0  0  0  0  0  0  0  0  0
   -1.7761   -0.1810   -1.1876 O   0  0  0  0  0  0  0  0  0  0  0  0
   -1.5662    0.7968    0.9234 C   0  0  0  0  0  0  0  0  0  0  0  0
   -2.4972    1.7791    0.5438 O   0  0  0  0  0  0  0  0  0  0  0  0
    3.6118    2.0378   -0.5280 H   0  0  0  0  0  0  0  0  0  0  0  0
    1.7727   -1.3013    1.2478 H   0  0  0  0  0  0  0  0  0  0  0  0
    0.8213    0.0103    1.9585 H   0  0  0  0  0  0  0  0  0  0  0  0
   -0.4955   -1.5612    0.5656 H   0  0  0  0  0  0  0  0  0  0  0  0
    1.8402   -1.4401   -1.1285 H   0  0  0  0  0  0  0  0  0  0  0  0
    0.3955   -0.8694   -2.0710 H   0  0  0  0  0  0  0  0  0  0  0  0
    0.3574   -2.4717   -1.3148 H   0  0  0  0  0  0  0  0  0  0  0  0
   -0.3422    1.1858   -0.8070 H   0  0  0  0  0  0  0  0  0  0  0  0
   -2.6071   -0.4522   -0.7186 H   0  0  0  0  0  0  0  0  0  0  0  0
   -2.0988   -0.0851    1.3305 H   0  0  0  0  0  0  0  0  0  0  0  0
   -0.9299    1.2270    1.6947 H   0  0  0  0  0  0  0  0  0  0  0  0
   -2.7672    1.6640   -0.4001 H   0  0  0  0  0  0  0  0  0  0  0  0
  1  2  3  0
  2  3  1  0
  3  4  1  0
  4  5  1  0
  4  6  1  0
  6  7  1  0
  6  8  1  0
  8  9  1  0
  1 10  1  0
  3 11  1  0
  3 12  1  0
  4 13  1  0
  5 14  1  0
  5 15  1  0
  5 16  1  0
  6 17  1  0
  7 18  1  0
  8 19  1  0
  8 20  1  0
  9 21  1  0
M  END
