
     RDKit          3D

 19 20  0  0  0  0  0  0  0  0999 V2000
    1.6372   -1.9657   -2.3229 C   0  0  0  0  0  0  0  0  0  0  0  0
    1.5915   -1.3057   -1.2389 C   0  0  0  0  0  0  0  0  0  0  0  0
    1.5370   -0.5909   -0.0181 C   0  0  0  0  0  0  0  0  0  0  0  0
    0.3926    0.3703    0.0049 C   0  0  0  0  0  0  0  0  0  0  0  0
   -0.9927   -0.1647   -0.1337 C   0  0  0  0  0  0  0  0  0  0  0  0
   -1.1026   -1.5440    0.1484 O   0  0  0  0  0  0  0  0  0  0  0  0
   -1.4968    0.7080    0.9874 C   0  0  0  0  0  0  0  0  0  0  0  0
   -0.9571    2.0500    1.2723 C   0  0  0  0  0  0  0  0  0  0  0  0
    0.0004    0.9192    1.3471 C   0  0  0  0  0  0  0  0  0  0  0  0
    1.6823   -2.4786   -3.1936 H   0  0  0  0  0  0  0  0  0  0  0  0
    2.4685    0.0479    0.0736 H   0  0  0  0  0  0  0  0  0  0  0  0
    1.5354   -1.2232    0.8967 H   0  0  0  0  0  0  0  0  0  0  0  0
    0.5453    1.1895   -0.7594 H   0  0  0  0  0  0  0  0  0  0  0  0
   -1.5191    0.1171   -1.0790 H   0  0  0  0  0  0  0  0  0  0  0  0
   -1.4387   -2.0253   -0.6717 H   0  0  0  0  0  0  0  0  0  0  0  0
   -2.1422    0.2068    1.7167 H   0  0  0  0  0  0  0  0  0  0  0  0
   -1.2180    2.4964    2.2428 H   0  0  0  0  0  0  0  0  0  0  0  0
   -0.7927    2.7835    0.4378 H   0  0  0  0  0  0  0  0  0  0  0  0
    0.2696    0.4093    2.2726 H   0  0  0  0  0  0  0  0  0  0  0  0
  1  2  3  0
  2  3  1  0
  3  4  1  0
  4  5  1  0
  5  6  1  0
  5  7  1  0
  7  8  1  0
  8  9  1  0
  9  4  1  0
  9  7  1  0
  1 10  1  0
  3 11  1  0
  3 12  1  0
  4 13  1  0
  5 14  1  0
  6 15  1  0
  7 16  1  0
  8 17  1  0
  8 18  1  0
  9 19  1  0
M  END
