
     RDKit          3D

 19 18  0  0  0  0  0  0  0  0999 V2000
   -0.8019    1.6679    2.1744 C   0  0  0  0  0  0  0  0  0  0  0  0
   -0.2649    1.5214    1.1367 C   0  0  0  0  0  0  0  0  0  0  0  0
    0.4521    1.3027   -0.2270 C   0  0  0  0  0  0  0  0  0  0  0  0
   -0.5537    1.6244   -1.2700 C   0  0  0  0  0  0  0  0  0  0  0  0
    0.9128   -0.1290   -0.1735 C   0  0  0  0  0  0  0  0  0  0  0  0
   -0.2157   -1.1113   -0.0182 C   0  0  0  0  0  0  0  0  0  0  0  0
    0.3212   -2.5307    0.0803 C   0  0  0  0  0  0  0  0  0  0  0  0
   -1.3139    1.7954    3.1500 H   0  0  0  0  0  0  0  0  0  0  0  0
    1.3168    1.9716   -0.2162 H   0  0  0  0  0  0  0  0  0  0  0  0
   -1.4613    2.1058   -0.7975 H   0  0  0  0  0  0  0  0  0  0  0  0
   -0.2007    2.3630   -2.0140 H   0  0  0  0  0  0  0  0  0  0  0  0
   -0.9655    0.7444   -1.7970 H   0  0  0  0  0  0  0  0  0  0  0  0
    1.5375   -0.3536   -1.0217 H   0  0  0  0  0  0  0  0  0  0  0  0
    1.5743   -0.2576    0.7489 H   0  0  0  0  0  0  0  0  0  0  0  0
   -0.8964   -0.9256    0.8148 H   0  0  0  0  0  0  0  0  0  0  0  0
   -0.7935   -1.0916   -0.9851 H   0  0  0  0  0  0  0  0  0  0  0  0
    0.8797   -2.6951    1.0326 H   0  0  0  0  0  0  0  0  0  0  0  0
    1.0083   -2.7620   -0.7405 H   0  0  0  0  0  0  0  0  0  0  0  0
   -0.5352   -3.2400    0.1229 H   0  0  0  0  0  0  0  0  0  0  0  0
  1  2  3  0
  2  3  1  0
  3  4  1  0
  3  5  1  0
  5  6  1  0
  6  7  1  0
  1  8  1  0
  3  9  1  0
  4 10  1  0
  4 11  1  0
  4 12  1  0
  5 13  1  0
  5 14  1  0
  6 15  1  0
  6 16  1  0
  7 17  1  0
  7 18  1  0
  7 19  1  0
M  END
