
     RDKit          3D

 20 20  0  0  0  0  0  0  0  0999 V2000
    3.5522    0.3997    0.0771 C   0  0  0  0  0  0  0  0  0  0  0  0
    2.4960    0.0185   -0.3748 C   0  0  0  0  0  0  0  0  0  0  0  0
    1.2184   -0.4544   -0.9108 C   0  0  0  0  0  0  0  0  0  0  0  0
    0.4229   -1.1329    0.2060 C   0  0  0  0  0  0  0  0  0  0  0  0
    0.0141    0.2707    0.6067 C   0  0  0  0  0  0  0  0  0  0  0  0
   -1.3396    0.3843    1.2266 C   0  0  0  0  0  0  0  0  0  0  0  0
   -2.4636   -0.0697    0.3620 C   0  0  0  0  0  0  0  0  0  0  0  0
    0.1620    0.6585   -0.8204 C   0  0  0  0  0  0  0  0  0  0  0  0
    4.4798    0.7489    0.4679 H   0  0  0  0  0  0  0  0  0  0  0  0
    1.2532   -0.9849   -1.8532 H   0  0  0  0  0  0  0  0  0  0  0  0
    1.0572   -1.6657    0.9449 H   0  0  0  0  0  0  0  0  0  0  0  0
   -0.3909   -1.7145   -0.2414 H   0  0  0  0  0  0  0  0  0  0  0  0
    0.7841    0.7264    1.2522 H   0  0  0  0  0  0  0  0  0  0  0  0
   -1.3744   -0.2005    2.1694 H   0  0  0  0  0  0  0  0  0  0  0  0
   -1.5107    1.4409    1.5157 H   0  0  0  0  0  0  0  0  0  0  0  0
   -2.6876    0.7399   -0.3702 H   0  0  0  0  0  0  0  0  0  0  0  0
   -3.3639   -0.1668    1.0331 H   0  0  0  0  0  0  0  0  0  0  0  0
   -2.3141   -1.0488   -0.0998 H   0  0  0  0  0  0  0  0  0  0  0  0
    0.6709    1.6115   -1.0401 H   0  0  0  0  0  0  0  0  0  0  0  0
   -0.6660    0.4389   -1.4933 H   0  0  0  0  0  0  0  0  0  0  0  0
  1  2  3  0
  2  3  1  0
  3  4  1  0
  4  5  1  0
  5  6  1  0
  6  7  1  0
  5  8  1  0
  8  3  1  0
  1  9  1  0
  3 10  1  0
  4 11  1  0
  4 12  1  0
  5 13  1  0
  6 14  1  0
  6 15  1  0
  7 16  1  0
  7 17  1  0
  7 18  1  0
  8 19  1  0
  8 20  1  0
M  END
