
     RDKit          3D

 19 20  0  0  0  0  0  0  0  0999 V2000
    2.5921    1.7639   -0.3552 C   0  0  0  0  0  0  0  0  0  0  0  0
    1.3511    1.1441   -0.3473 C   0  0  0  0  0  0  0  0  0  0  0  0
    0.1333    0.5147   -0.3243 C   0  0  0  0  0  0  0  0  0  0  0  0
    0.2371   -0.9575    0.0526 C   0  0  0  0  0  0  0  0  0  0  0  0
    0.8430   -1.0916    1.4719 C   0  0  0  0  0  0  0  0  0  0  0  0
   -0.5421   -1.6145    1.0795 C   0  0  0  0  0  0  0  0  0  0  0  0
   -0.7015    0.7820   -1.5482 C   0  0  0  0  0  0  0  0  0  0  0  0
   -1.7785    0.7253   -0.4909 C   0  0  0  0  0  0  0  0  0  0  0  0
   -0.8430    1.2023    0.4212 O   0  0  0  0  0  0  0  0  0  0  0  0
    3.4340    2.2027   -0.3641 H   0  0  0  0  0  0  0  0  0  0  0  0
    0.7663   -1.5686   -0.7002 H   0  0  0  0  0  0  0  0  0  0  0  0
    1.6420   -1.8562    1.6130 H   0  0  0  0  0  0  0  0  0  0  0  0
    0.9589   -0.2116    2.0868 H   0  0  0  0  0  0  0  0  0  0  0  0
   -1.3435   -1.2300    1.6907 H   0  0  0  0  0  0  0  0  0  0  0  0
   -0.5762   -2.7550    1.0018 H   0  0  0  0  0  0  0  0  0  0  0  0
   -0.6173    1.7643   -2.0080 H   0  0  0  0  0  0  0  0  0  0  0  0
   -0.8080   -0.0755   -2.2429 H   0  0  0  0  0  0  0  0  0  0  0  0
   -2.1976   -0.2559   -0.2896 H   0  0  0  0  0  0  0  0  0  0  0  0
   -2.5502    1.5169   -0.7468 H   0  0  0  0  0  0  0  0  0  0  0  0
  1  2  3  0
  2  3  1  0
  3  4  1  0
  4  5  1  0
  5  6  1  0
  3  7  1  0
  7  8  1  0
  8  9  1  0
  9  3  1  0
  6  4  1  0
  1 10  1  0
  4 11  1  0
  5 12  1  0
  5 13  1  0
  6 14  1  0
  6 15  1  0
  7 16  1  0
  7 17  1  0
  8 18  1  0
  8 19  1  0
M  END
