
     RDKit          3D

 17 18  0  0  0  0  0  0  0  0999 V2000
    2.9830    0.1866   -0.5775 C   0  0  0  0  0  0  0  0  0  0  0  0
    1.8492    0.1675   -0.1750 C   0  0  0  0  0  0  0  0  0  0  0  0
    0.4801    0.1361    0.3310 C   0  0  0  0  0  0  0  0  0  0  0  0
    0.1121   -0.8304    1.3777 C   0  0  0  0  0  0  0  0  0  0  0  0
   -0.4271   -0.9671    0.0127 C   0  0  0  0  0  0  0  0  0  0  0  0
   -0.1217   -2.0051   -0.8239 O   0  0  0  0  0  0  0  0  0  0  0  0
   -1.5396    0.0067   -0.3471 C   0  0  0  0  0  0  0  0  0  0  0  0
   -0.4807    1.1091   -0.2530 C   0  0  0  0  0  0  0  0  0  0  0  0
   -0.8535    2.1737    0.5467 O   0  0  0  0  0  0  0  0  0  0  0  0
    4.0012    0.1952   -0.9351 H   0  0  0  0  0  0  0  0  0  0  0  0
    0.8995   -1.5042    1.7277 H   0  0  0  0  0  0  0  0  0  0  0  0
   -0.5358   -0.4498    2.2184 H   0  0  0  0  0  0  0  0  0  0  0  0
   -0.9027   -2.6001   -0.9189 H   0  0  0  0  0  0  0  0  0  0  0  0
   -2.3145    0.0617    0.4492 H   0  0  0  0  0  0  0  0  0  0  0  0
   -1.9324   -0.1553   -1.3719 H   0  0  0  0  0  0  0  0  0  0  0  0
   -0.1503    1.4916   -1.2488 H   0  0  0  0  0  0  0  0  0  0  0  0
   -1.0668    2.9839   -0.0121 H   0  0  0  0  0  0  0  0  0  0  0  0
  1  2  3  0
  2  3  1  0
  3  4  1  0
  4  5  1  0
  5  6  1  0
  5  7  1  0
  7  8  1  0
  8  9  1  0
  5  3  1  0
  8  3  1  0
  1 10  1  0
  4 11  1  0
  4 12  1  0
  6 13  1  0
  7 14  1  0
  7 15  1  0
  8 16  1  0
  9 17  1  0
M  END
