
     RDKit          3D

 15 14  0  0  0  0  0  0  0  0999 V2000
   -1.8023    1.8876    1.9640 C   0  0  0  0  0  0  0  0  0  0  0  0
   -1.4178    0.8779    1.4220 C   0  0  0  0  0  0  0  0  0  0  0  0
   -0.9477   -0.3454    0.7359 C   0  0  0  0  0  0  0  0  0  0  0  0
   -1.0600   -1.3770    1.6354 O   0  0  0  0  0  0  0  0  0  0  0  0
   -1.7812   -0.5789   -0.4662 C   0  0  0  0  0  0  0  0  0  0  0  0
   -2.4608   -0.7893   -1.4414 C   0  0  0  0  0  0  0  0  0  0  0  0
    0.4209   -0.1695    0.2443 C   0  0  0  0  0  0  0  0  0  0  0  0
    1.5695   -0.0429   -0.1623 C   0  0  0  0  0  0  0  0  0  0  0  0
    2.9493    0.1219   -0.6276 C   0  0  0  0  0  0  0  0  0  0  0  0
   -2.1461    2.7734    2.4527 H   0  0  0  0  0  0  0  0  0  0  0  0
   -0.2033   -1.8598    1.7351 H   0  0  0  0  0  0  0  0  0  0  0  0
   -3.0698   -0.9588   -2.2997 H   0  0  0  0  0  0  0  0  0  0  0  0
    3.4605   -0.8436   -0.4262 H   0  0  0  0  0  0  0  0  0  0  0  0
    3.4897    0.8944   -0.0239 H   0  0  0  0  0  0  0  0  0  0  0  0
    2.9989    0.4100   -1.6960 H   0  0  0  0  0  0  0  0  0  0  0  0
  1  2  3  0
  2  3  1  0
  3  4  1  0
  3  5  1  0
  5  6  3  0
  3  7  1  0
  7  8  3  0
  8  9  1  0
  1 10  1  0
  4 11  1  0
  6 12  1  0
  9 13  1  0
  9 14  1  0
  9 15  1  0
M  END
