
     RDKit          3D

 12 11  0  0  0  0  0  0  0  0999 V2000
    3.0719   -2.1309   -2.1501 C   0  0  0  0  0  0  0  0  0  0  0  0
    2.1589   -1.6831   -1.4190 C   0  0  0  0  0  0  0  0  0  0  0  0
    1.1481   -1.1631   -0.5923 C   0  0  0  0  0  0  0  0  0  0  0  0
    0.3146   -0.7277    0.0755 C   0  0  0  0  0  0  0  0  0  0  0  0
   -0.7504   -0.1699    0.9612 C   0  0  0  0  0  0  0  0  0  0  0  0
   -0.9955   -0.6927    2.0715 O   0  0  0  0  0  0  0  0  0  0  0  0
   -1.4683    1.0013    0.4580 C   0  0  0  0  0  0  0  0  0  0  0  0
   -2.3328    1.5689    1.3681 O   0  0  0  0  0  0  0  0  0  0  0  0
    3.8339   -2.5058   -2.7384 H   0  0  0  0  0  0  0  0  0  0  0  0
   -0.7374    1.7665    0.1057 H   0  0  0  0  0  0  0  0  0  0  0  0
   -2.1084    0.6902   -0.4224 H   0  0  0  0  0  0  0  0  0  0  0  0
   -2.1348    1.2601    2.2822 H   0  0  0  0  0  0  0  0  0  0  0  0
  1  2  3  0
  2  3  1  0
  3  4  3  0
  4  5  1  0
  5  6  2  0
  5  7  1  0
  7  8  1  0
  1  9  1  0
  7 10  1  0
  7 11  1  0
  8 12  1  0
M  END
