
     RDKit          3D

 18 18  0  0  0  0  0  0  0  0999 V2000
    0.5324    1.6277   -3.7838 C   0  0  0  0  0  0  0  0  0  0  0  0
    0.1597    0.7768   -2.9184 C   0  0  0  0  0  0  0  0  0  0  0  0
   -0.2525   -0.1655   -1.9270 C   0  0  0  0  0  0  0  0  0  0  0  0
    0.8199   -0.8540   -1.1809 O   0  0  0  0  0  0  0  0  0  0  0  0
    0.0674    0.1484   -0.5118 C   0  0  0  0  0  0  0  0  0  0  0  0
   -0.9035   -0.3207    0.5081 C   0  0  0  0  0  0  0  0  0  0  0  0
   -0.4563   -0.0043    1.9179 C   0  0  0  0  0  0  0  0  0  0  0  0
    0.8374   -0.7144    2.2458 C   0  0  0  0  0  0  0  0  0  0  0  0
    0.8442    2.3176   -4.4682 H   0  0  0  0  0  0  0  0  0  0  0  0
   -1.1198   -0.8632   -2.0843 H   0  0  0  0  0  0  0  0  0  0  0  0
    0.5991    1.1136   -0.3484 H   0  0  0  0  0  0  0  0  0  0  0  0
   -1.8220    0.3475    0.3718 H   0  0  0  0  0  0  0  0  0  0  0  0
   -1.2594   -1.3373    0.4602 H   0  0  0  0  0  0  0  0  0  0  0  0
   -1.2290   -0.3264    2.6016 H   0  0  0  0  0  0  0  0  0  0  0  0
   -0.2970    1.0862    1.9752 H   0  0  0  0  0  0  0  0  0  0  0  0
    0.6084   -1.4937    2.9943 H   0  0  0  0  0  0  0  0  0  0  0  0
    1.2608   -1.2720    1.3745 H   0  0  0  0  0  0  0  0  0  0  0  0
    1.6102   -0.0666    2.6911 H   0  0  0  0  0  0  0  0  0  0  0  0
  1  2  3  0
  2  3  1  0
  3  4  1  0
  4  5  1  0
  5  6  1  0
  6  7  1  0
  7  8  1  0
  5  3  1  0
  1  9  1  0
  3 10  1  0
  5 11  1  0
  6 12  1  0
  6 13  1  0
  7 14  1  0
  7 15  1  0
  8 16  1  0
  8 17  1  0
  8 18  1  0
M  END
