
     RDKit          3D

 15 14  0  0  0  0  0  0  0  0999 V2000
   -1.8786   -0.5091   -1.6307 C   0  0  0  0  0  0  0  0  0  0  0  0
   -1.2477   -0.7257   -0.6250 C   0  0  0  0  0  0  0  0  0  0  0  0
   -0.4938   -0.9784    0.6189 C   0  0  0  0  0  0  0  0  0  0  0  0
   -1.2965   -0.7556    1.7301 O   0  0  0  0  0  0  0  0  0  0  0  0
    0.7234   -0.0803    0.6534 C   0  0  0  0  0  0  0  0  0  0  0  0
    0.3336    1.3201    0.6136 C   0  0  0  0  0  0  0  0  0  0  0  0
    0.0224    2.5004    0.5670 C   0  0  0  0  0  0  0  0  0  0  0  0
    1.6023   -0.3972   -0.4728 C   0  0  0  0  0  0  0  0  0  0  0  0
    2.3281   -0.6386   -1.4020 C   0  0  0  0  0  0  0  0  0  0  0  0
   -2.4280   -0.3012   -2.5226 H   0  0  0  0  0  0  0  0  0  0  0  0
   -0.1934   -2.0459    0.6474 H   0  0  0  0  0  0  0  0  0  0  0  0
   -1.4364    0.2085    1.9143 H   0  0  0  0  0  0  0  0  0  0  0  0
    1.2362   -0.2543    1.6372 H   0  0  0  0  0  0  0  0  0  0  0  0
   -0.2371    3.5246    0.5114 H   0  0  0  0  0  0  0  0  0  0  0  0
    2.9654   -0.8673   -2.2402 H   0  0  0  0  0  0  0  0  0  0  0  0
  1  2  3  0
  2  3  1  0
  3  4  1  0
  3  5  1  0
  5  6  1  0
  6  7  3  0
  5  8  1  0
  8  9  3  0
  1 10  1  0
  3 11  1  0
  4 12  1  0
  5 13  1  0
  7 14  1  0
  9 15  1  0
M  END
