
     RDKit          3D

 16 16  0  0  0  0  0  0  0  0999 V2000
    3.0938    1.2198    0.5334 C   0  0  0  0  0  0  0  0  0  0  0  0
    1.9805    0.7762    0.2596 C   0  0  0  0  0  0  0  0  0  0  0  0
    0.6864    0.2613   -0.0817 C   0  0  0  0  0  0  0  0  0  0  0  0
   -0.0192   -0.2451    0.9483 C   0  0  0  0  0  0  0  0  0  0  0  0
   -1.3438   -0.8046    0.7957 C   0  0  0  0  0  0  0  0  0  0  0  0
   -1.3938   -1.3823   -0.4942 O   0  0  0  0  0  0  0  0  0  0  0  0
   -1.3005   -0.3062   -1.3837 C   0  0  0  0  0  0  0  0  0  0  0  0
    0.1478    0.2004   -1.4480 C   0  0  0  0  0  0  0  0  0  0  0  0
    4.0581    1.5862    0.7603 H   0  0  0  0  0  0  0  0  0  0  0  0
    0.4216   -0.2571    1.9370 H   0  0  0  0  0  0  0  0  0  0  0  0
   -1.6236   -1.5681    1.5453 H   0  0  0  0  0  0  0  0  0  0  0  0
   -2.1659   -0.0212    0.7949 H   0  0  0  0  0  0  0  0  0  0  0  0
   -1.6781   -0.5624   -2.3740 H   0  0  0  0  0  0  0  0  0  0  0  0
   -1.8303    0.5507   -0.8754 H   0  0  0  0  0  0  0  0  0  0  0  0
    0.2605    1.1484   -1.9508 H   0  0  0  0  0  0  0  0  0  0  0  0
    0.7066   -0.5961   -2.0133 H   0  0  0  0  0  0  0  0  0  0  0  0
  1  2  3  0
  2  3  1  0
  3  4  2  0
  4  5  1  0
  5  6  1  0
  6  7  1  0
  7  8  1  0
  8  3  1  0
  1  9  1  0
  4 10  1  0
  5 11  1  0
  5 12  1  0
  7 13  1  0
  7 14  1  0
  8 15  1  0
  8 16  1  0
M  END
