
     RDKit          3D

 19 19  0  0  0  0  0  0  0  0999 V2000
    3.4696    0.3539    0.2042 C   0  0  0  0  0  0  0  0  0  0  0  0
    2.2988    0.5791    0.3871 C   0  0  0  0  0  0  0  0  0  0  0  0
    0.8672    0.8557    0.6110 C   0  0  0  0  0  0  0  0  0  0  0  0
    0.1295    0.3578   -0.5881 C   0  0  0  0  0  0  0  0  0  0  0  0
   -1.3992    0.5215   -0.6196 C   0  0  0  0  0  0  0  0  0  0  0  0
   -1.8861    1.2716    0.4278 O   0  0  0  0  0  0  0  0  0  0  0  0
   -0.7730   -0.8022   -0.4344 C   0  0  0  0  0  0  0  0  0  0  0  0
   -0.9603   -1.4859    0.8776 C   0  0  0  0  0  0  0  0  0  0  0  0
   -0.8264   -1.6528   -1.5412 O   0  0  0  0  0  0  0  0  0  0  0  0
    4.4996    0.1571    0.0245 H   0  0  0  0  0  0  0  0  0  0  0  0
    0.7509    1.9785    0.6321 H   0  0  0  0  0  0  0  0  0  0  0  0
    0.5505    0.3976    1.5579 H   0  0  0  0  0  0  0  0  0  0  0  0
    0.6325    0.5278   -1.5725 H   0  0  0  0  0  0  0  0  0  0  0  0
   -1.8697    0.7542   -1.5948 H   0  0  0  0  0  0  0  0  0  0  0  0
   -1.7966    2.2412    0.3239 H   0  0  0  0  0  0  0  0  0  0  0  0
   -1.5972   -0.8683    1.5199 H   0  0  0  0  0  0  0  0  0  0  0  0
   -1.4168   -2.4998    0.7552 H   0  0  0  0  0  0  0  0  0  0  0  0
    0.0325   -1.5659    1.4035 H   0  0  0  0  0  0  0  0  0  0  0  0
   -0.7058   -1.1212   -2.3742 H   0  0  0  0  0  0  0  0  0  0  0  0
  1  2  3  0
  2  3  1  0
  3  4  1  0
  4  5  1  0
  5  6  1  0
  5  7  1  0
  7  8  1  0
  7  9  1  0
  7  4  1  0
  1 10  1  0
  3 11  1  0
  3 12  1  0
  4 13  1  0
  5 14  1  0
  6 15  1  0
  8 16  1  0
  8 17  1  0
  8 18  1  0
  9 19  1  0
M  END
