
     RDKit          3D

 21 21  0  0  0  0  0  0  0  0999 V2000
    0.1390    2.8477    0.0013 C   0  0  0  0  0  0  0  0  0  0  0  0
    0.2806    1.7383   -0.1406 C   0  0  0  0  0  0  0  0  0  0  0  0
    0.4983    0.1618   -0.3387 C   0  0  0  0  0  0  0  0  0  0  0  0
    1.4160   -0.0220   -1.5199 C   0  0  0  0  0  0  0  0  0  0  0  0
    1.4443   -1.4389   -1.9486 C   0  0  0  0  0  0  0  0  0  0  0  0
    1.0784   -0.3557    0.8404 O   0  0  0  0  0  0  0  0  0  0  0  0
   -0.2396   -0.7724    0.3437 C   0  0  0  0  0  0  0  0  0  0  0  0
   -1.4890   -0.4908    1.0307 C   0  0  0  0  0  0  0  0  0  0  0  0
   -1.6809    0.3346    2.2296 C   0  0  0  0  0  0  0  0  0  0  0  0
   -0.0006    4.1160    0.1609 H   0  0  0  0  0  0  0  0  0  0  0  0
    2.4871    0.1244   -1.0660 H   0  0  0  0  0  0  0  0  0  0  0  0
    1.3901    0.6927   -2.3271 H   0  0  0  0  0  0  0  0  0  0  0  0
    0.7139   -1.5143   -2.8057 H   0  0  0  0  0  0  0  0  0  0  0  0
    2.4715   -1.7078   -2.3369 H   0  0  0  0  0  0  0  0  0  0  0  0
    1.1784   -2.0784   -1.1367 H   0  0  0  0  0  0  0  0  0  0  0  0
   -0.1253   -1.8847   -0.0001 H   0  0  0  0  0  0  0  0  0  0  0  0
   -2.2333   -1.3772    0.9532 H   0  0  0  0  0  0  0  0  0  0  0  0
   -2.0175    0.2221    0.1669 H   0  0  0  0  0  0  0  0  0  0  0  0
   -2.3119   -0.3574    2.9606 H   0  0  0  0  0  0  0  0  0  0  0  0
   -2.2568    1.2693    2.1295 H   0  0  0  0  0  0  0  0  0  0  0  0
   -0.7425    0.4927    2.8034 H   0  0  0  0  0  0  0  0  0  0  0  0
  1  2  3  0
  2  3  1  0
  3  4  1  0
  4  5  1  0
  3  6  1  0
  6  7  1  0
  7  8  1  0
  8  9  1  0
  7  3  1  0
  1 10  1  0
  4 11  1  0
  4 12  1  0
  5 13  1  0
  5 14  1  0
  5 15  1  0
  7 16  1  0
  8 17  1  0
  8 18  1  0
  9 19  1  0
  9 20  1  0
  9 21  1  0
M  END
