
     RDKit          3D

 21 20  0  0  0  0  0  0  0  0999 V2000
   -0.4158    2.1374   -2.3699 C   0  0  0  0  0  0  0  0  0  0  0  0
   -0.8428    1.2438   -1.7236 C   0  0  0  0  0  0  0  0  0  0  0  0
   -1.3523    0.1328   -0.9457 C   0  0  0  0  0  0  0  0  0  0  0  0
   -0.4063   -0.3840    0.1022 C   0  0  0  0  0  0  0  0  0  0  0  0
    0.8769   -0.8788   -0.5147 C   0  0  0  0  0  0  0  0  0  0  0  0
    1.6317    0.1158   -1.0738 O   0  0  0  0  0  0  0  0  0  0  0  0
    2.0476    1.0856   -0.1819 C   0  0  0  0  0  0  0  0  0  0  0  0
   -1.0359   -1.5455    0.6248 O   0  0  0  0  0  0  0  0  0  0  0  0
   -1.1934   -1.4621    1.9980 C   0  0  0  0  0  0  0  0  0  0  0  0
    0.0012    2.9655   -2.9737 H   0  0  0  0  0  0  0  0  0  0  0  0
   -2.3370    0.3649   -0.4615 H   0  0  0  0  0  0  0  0  0  0  0  0
   -1.5192   -0.7236   -1.6607 H   0  0  0  0  0  0  0  0  0  0  0  0
   -0.1953    0.3126    0.9126 H   0  0  0  0  0  0  0  0  0  0  0  0
    0.5550   -1.6489   -1.2664 H   0  0  0  0  0  0  0  0  0  0  0  0
    1.5118   -1.3996    0.2606 H   0  0  0  0  0  0  0  0  0  0  0  0
    2.6599    1.8012   -0.7885 H   0  0  0  0  0  0  0  0  0  0  0  0
    1.1993    1.6284    0.2650 H   0  0  0  0  0  0  0  0  0  0  0  0
    2.6472    0.6803    0.6745 H   0  0  0  0  0  0  0  0  0  0  0  0
   -1.8164   -0.5713    2.2391 H   0  0  0  0  0  0  0  0  0  0  0  0
   -0.2208   -1.4749    2.5229 H   0  0  0  0  0  0  0  0  0  0  0  0
   -1.7953   -2.3795    2.2818 H   0  0  0  0  0  0  0  0  0  0  0  0
  1  2  3  0
  2  3  1  0
  3  4  1  0
  4  5  1  0
  5  6  1  0
  6  7  1  0
  4  8  1  0
  8  9  1  0
  1 10  1  0
  3 11  1  0
  3 12  1  0
  4 13  1  0
  5 14  1  0
  5 15  1  0
  7 16  1  0
  7 17  1  0
  7 18  1  0
  9 19  1  0
  9 20  1  0
  9 21  1  0
M  END
