
     RDKit          3D

 15 15  0  0  0  0  0  0  0  0999 V2000
   -1.7905    1.4700    1.8915 C   0  0  0  0  0  0  0  0  0  0  0  0
   -1.1207    0.7466    1.0097 C   0  0  0  0  0  0  0  0  0  0  0  0
   -0.4289   -0.0091    0.0897 C   0  0  0  0  0  0  0  0  0  0  0  0
   -0.8814   -1.3058   -0.1996 O   0  0  0  0  0  0  0  0  0  0  0  0
   -1.2420   -1.6407   -1.5408 C   0  0  0  0  0  0  0  0  0  0  0  0
   -1.1766   -0.6616   -2.3453 O   0  0  0  0  0  0  0  0  0  0  0  0
    1.0326   -0.1660    0.5846 C   0  0  0  0  0  0  0  0  0  0  0  0
    2.1166    0.4701   -0.1836 C   0  0  0  0  0  0  0  0  0  0  0  0
    1.5364    1.1139    0.8889 O   0  0  0  0  0  0  0  0  0  0  0  0
   -2.3231    2.0373    2.6047 H   0  0  0  0  0  0  0  0  0  0  0  0
   -0.3120    0.5242   -0.9339 H   0  0  0  0  0  0  0  0  0  0  0  0
   -1.5463   -2.6114   -1.8705 H   0  0  0  0  0  0  0  0  0  0  0  0
    1.2033   -0.9566    1.3098 H   0  0  0  0  0  0  0  0  0  0  0  0
    3.1652    0.1780   -0.0862 H   0  0  0  0  0  0  0  0  0  0  0  0
    1.7672    0.8109   -1.2191 H   0  0  0  0  0  0  0  0  0  0  0  0
  1  2  3  0
  2  3  1  0
  3  4  1  0
  4  5  1  0
  5  6  2  0
  3  7  1  0
  7  8  1  0
  8  9  1  0
  9  7  1  0
  1 10  1  0
  3 11  1  0
  5 12  1  0
  7 13  1  0
  8 14  1  0
  8 15  1  0
M  END
