
     RDKit          3D

 14 14  0  0  0  0  0  0  0  0999 V2000
    2.3682    0.8324   -0.6929 C   0  0  0  0  0  0  0  0  0  0  0  0
    1.2178    0.6133   -0.3776 C   0  0  0  0  0  0  0  0  0  0  0  0
   -0.1736    0.3492    0.0164 C   0  0  0  0  0  0  0  0  0  0  0  0
   -1.2082    1.1146   -0.7112 C   0  0  0  0  0  0  0  0  0  0  0  0
   -2.3889    0.9618   -0.4525 O   0  0  0  0  0  0  0  0  0  0  0  0
   -0.4047   -0.1483    1.3949 C   0  0  0  0  0  0  0  0  0  0  0  0
   -0.5714   -1.1070    0.2558 C   0  0  0  0  0  0  0  0  0  0  0  0
    0.4336   -2.0235   -0.0321 O   0  0  0  0  0  0  0  0  0  0  0  0
    3.3755    1.0310   -0.9625 H   0  0  0  0  0  0  0  0  0  0  0  0
   -0.9506    1.8283   -1.4894 H   0  0  0  0  0  0  0  0  0  0  0  0
    0.5036   -0.3427    2.0166 H   0  0  0  0  0  0  0  0  0  0  0  0
   -1.2670    0.1970    1.9680 H   0  0  0  0  0  0  0  0  0  0  0  0
   -1.6061   -1.4154    0.0612 H   0  0  0  0  0  0  0  0  0  0  0  0
    0.6716   -1.8907   -0.9946 H   0  0  0  0  0  0  0  0  0  0  0  0
  1  2  3  0
  2  3  1  0
  3  4  1  0
  4  5  2  0
  3  6  1  0
  6  7  1  0
  7  8  1  0
  7  3  1  0
  1  9  1  0
  4 10  1  0
  6 11  1  0
  6 12  1  0
  7 13  1  0
  8 14  1  0
M  END
