
     RDKit          3D

 21 22  0  0  0  0  0  0  0  0999 V2000
    3.0363    0.5265    0.5844 C   0  0  0  0  0  0  0  0  0  0  0  0
    2.0560    0.1283    0.0264 C   0  0  0  0  0  0  0  0  0  0  0  0
    0.8526   -0.3661   -0.6317 C   0  0  0  0  0  0  0  0  0  0  0  0
    0.7068   -0.3889   -2.0855 C   0  0  0  0  0  0  0  0  0  0  0  0
   -0.0870    0.5717   -1.2765 C   0  0  0  0  0  0  0  0  0  0  0  0
   -1.2239   -0.0213   -0.4938 C   0  0  0  0  0  0  0  0  0  0  0  0
   -1.8859    0.9804    0.4263 C   0  0  0  0  0  0  0  0  0  0  0  0
   -0.2337   -0.9503    0.2176 C   0  0  0  0  0  0  0  0  0  0  0  0
   -0.1175   -0.7177    1.6928 C   0  0  0  0  0  0  0  0  0  0  0  0
    3.9147    0.9032    1.0846 H   0  0  0  0  0  0  0  0  0  0  0  0
    0.1994   -1.2731   -2.5228 H   0  0  0  0  0  0  0  0  0  0  0  0
    1.5816   -0.0484   -2.6806 H   0  0  0  0  0  0  0  0  0  0  0  0
    0.0882    1.6514   -1.2986 H   0  0  0  0  0  0  0  0  0  0  0  0
   -1.9584   -0.5921   -1.0720 H   0  0  0  0  0  0  0  0  0  0  0  0
   -2.3424    0.4811    1.3145 H   0  0  0  0  0  0  0  0  0  0  0  0
   -1.2196    1.8060    0.7073 H   0  0  0  0  0  0  0  0  0  0  0  0
   -2.7352    1.4209   -0.1365 H   0  0  0  0  0  0  0  0  0  0  0  0
   -0.3958   -2.0259    0.0013 H   0  0  0  0  0  0  0  0  0  0  0  0
   -0.2446    0.3511    1.9533 H   0  0  0  0  0  0  0  0  0  0  0  0
   -0.8923   -1.3389    2.1895 H   0  0  0  0  0  0  0  0  0  0  0  0
    0.9006   -1.0979    1.9999 H   0  0  0  0  0  0  0  0  0  0  0  0
  1  2  3  0
  2  3  1  0
  3  4  1  0
  4  5  1  0
  5  6  1  0
  6  7  1  0
  6  8  1  0
  8  9  1  0
  5  3  1  0
  8  3  1  0
  1 10  1  0
  4 11  1  0
  4 12  1  0
  5 13  1  0
  6 14  1  0
  7 15  1  0
  7 16  1  0
  7 17  1  0
  8 18  1  0
  9 19  1  0
  9 20  1  0
  9 21  1  0
M  END
