
     RDKit          3D

 15 16  0  0  0  0  0  0  0  0999 V2000
   -2.5210   -0.1320    1.3220 C   0  0  0  0  0  0  0  0  0  0  0  0
   -1.6737   -0.1609    0.4470 C   0  0  0  0  0  0  0  0  0  0  0  0
   -0.6508   -0.2031   -0.5791 C   0  0  0  0  0  0  0  0  0  0  0  0
    0.1095    1.1064   -0.6870 C   0  0  0  0  0  0  0  0  0  0  0  0
    1.2641    0.9261    0.2665 C   0  0  0  0  0  0  0  0  0  0  0  0
    1.7953    1.8431    0.8566 O   0  0  0  0  0  0  0  0  0  0  0  0
    1.5332   -0.5292    0.2747 C   0  0  0  0  0  0  0  0  0  0  0  0
    1.5445   -1.1327   -1.0880 O   0  0  0  0  0  0  0  0  0  0  0  0
    0.4506   -1.1976   -0.2506 C   0  0  0  0  0  0  0  0  0  0  0  0
   -3.2514   -0.0981    2.0883 H   0  0  0  0  0  0  0  0  0  0  0  0
   -1.1229   -0.4904   -1.5431 H   0  0  0  0  0  0  0  0  0  0  0  0
    0.5643    1.2303   -1.6894 H   0  0  0  0  0  0  0  0  0  0  0  0
   -0.4893    1.9744   -0.3722 H   0  0  0  0  0  0  0  0  0  0  0  0
    2.3624   -0.9571    0.8308 H   0  0  0  0  0  0  0  0  0  0  0  0
    0.0851   -2.1793    0.1233 H   0  0  0  0  0  0  0  0  0  0  0  0
  1  2  3  0
  2  3  1  0
  3  4  1  0
  4  5  1  0
  5  6  2  0
  5  7  1  0
  7  8  1  0
  8  9  1  0
  9  3  1  0
  9  7  1  0
  1 10  1  0
  3 11  1  0
  4 12  1  0
  4 13  1  0
  7 14  1  0
  9 15  1  0
M  END
