
     RDKit          3D

 14 13  0  0  0  0  0  0  0  0999 V2000
    2.7383    0.3792    1.9673 C   0  0  0  0  0  0  0  0  0  0  0  0
    2.0408   -0.0856    1.0952 C   0  0  0  0  0  0  0  0  0  0  0  0
    1.2118   -0.6505    0.0192 C   0  0  0  0  0  0  0  0  0  0  0  0
   -0.0530    0.1003   -0.1321 C   0  0  0  0  0  0  0  0  0  0  0  0
   -0.2763    1.0748    0.6173 O   0  0  0  0  0  0  0  0  0  0  0  0
   -0.9912   -0.3240   -1.1485 C   0  0  0  0  0  0  0  0  0  0  0  0
   -2.2562    0.4286   -1.2976 C   0  0  0  0  0  0  0  0  0  0  0  0
   -0.7666   -1.3016   -1.9002 O   0  0  0  0  0  0  0  0  0  0  0  0
    3.3459    0.7720    2.7406 H   0  0  0  0  0  0  0  0  0  0  0  0
    1.7754   -0.5628   -0.9291 H   0  0  0  0  0  0  0  0  0  0  0  0
    0.9320   -1.7145    0.2290 H   0  0  0  0  0  0  0  0  0  0  0  0
   -3.0267    0.0489   -0.6055 H   0  0  0  0  0  0  0  0  0  0  0  0
   -2.0720    1.5261   -1.1255 H   0  0  0  0  0  0  0  0  0  0  0  0
   -2.6021    0.3091   -2.3443 H   0  0  0  0  0  0  0  0  0  0  0  0
  1  2  3  0
  2  3  1  0
  3  4  1  0
  4  5  2  0
  4  6  1  0
  6  7  1  0
  6  8  2  0
  1  9  1  0
  3 10  1  0
  3 11  1  0
  7 12  1  0
  7 13  1  0
  7 14  1  0
M  END
