
     RDKit          3D

 14 13  0  0  0  0  0  0  0  0999 V2000
    2.1555    1.1410   -0.9824 C   0  0  0  0  0  0  0  0  0  0  0  0
    1.5014    0.1782   -1.1412 C   0  0  0  0  0  0  0  0  0  0  0  0
    0.6781   -1.0213   -1.3150 C   0  0  0  0  0  0  0  0  0  0  0  0
   -0.7819   -0.6738   -1.1299 C   0  0  0  0  0  0  0  0  0  0  0  0
   -0.9457   -0.1373    0.2392 C   0  0  0  0  0  0  0  0  0  0  0  0
   -1.0621    0.3047    1.3393 C   0  0  0  0  0  0  0  0  0  0  0  0
   -1.2031    0.8426    2.6931 C   0  0  0  0  0  0  0  0  0  0  0  0
   -0.3914    1.6889    3.1337 O   0  0  0  0  0  0  0  0  0  0  0  0
    2.7662    2.0249   -0.8529 H   0  0  0  0  0  0  0  0  0  0  0  0
    0.7965   -1.4330   -2.3402 H   0  0  0  0  0  0  0  0  0  0  0  0
    0.9587   -1.8279   -0.6103 H   0  0  0  0  0  0  0  0  0  0  0  0
   -1.1303    0.0206   -1.9089 H   0  0  0  0  0  0  0  0  0  0  0  0
   -1.3456   -1.6352   -1.2505 H   0  0  0  0  0  0  0  0  0  0  0  0
   -1.9964    0.5276    3.3309 H   0  0  0  0  0  0  0  0  0  0  0  0
  1  2  3  0
  2  3  1  0
  3  4  1  0
  4  5  1  0
  5  6  3  0
  6  7  1  0
  7  8  2  0
  1  9  1  0
  3 10  1  0
  3 11  1  0
  4 12  1  0
  4 13  1  0
  7 14  1  0
M  END
