
     RDKit          3D

 19 20  0  0  0  0  0  0  0  0999 V2000
    0.5707    2.0997   -2.4961 C   0  0  0  0  0  0  0  0  0  0  0  0
    0.6829    1.0685   -1.9065 C   0  0  0  0  0  0  0  0  0  0  0  0
    0.8402   -0.1790   -1.1968 C   0  0  0  0  0  0  0  0  0  0  0  0
    0.4856    0.1002    0.2578 C   0  0  0  0  0  0  0  0  0  0  0  0
    1.3165    1.0579    0.7914 O   0  0  0  0  0  0  0  0  0  0  0  0
   -0.9712    0.5719    0.2897 C   0  0  0  0  0  0  0  0  0  0  0  0
   -1.1002   -0.3234    1.5316 C   0  0  0  0  0  0  0  0  0  0  0  0
   -1.0785   -1.7607    1.2033 C   0  0  0  0  0  0  0  0  0  0  0  0
    0.2071   -1.0463    1.1374 C   0  0  0  0  0  0  0  0  0  0  0  0
    0.4548    3.0775   -3.0420 H   0  0  0  0  0  0  0  0  0  0  0  0
    0.1153   -0.9413   -1.5354 H   0  0  0  0  0  0  0  0  0  0  0  0
    1.8879   -0.5662   -1.2525 H   0  0  0  0  0  0  0  0  0  0  0  0
    2.1566    0.6953    1.1504 H   0  0  0  0  0  0  0  0  0  0  0  0
   -1.0728    1.6467    0.4864 H   0  0  0  0  0  0  0  0  0  0  0  0
   -1.5541    0.1408   -0.5244 H   0  0  0  0  0  0  0  0  0  0  0  0
   -1.0843    0.1048    2.5247 H   0  0  0  0  0  0  0  0  0  0  0  0
   -1.2638   -2.4305    2.0603 H   0  0  0  0  0  0  0  0  0  0  0  0
   -1.5458   -2.0711    0.2288 H   0  0  0  0  0  0  0  0  0  0  0  0
    0.9532   -1.2448    1.9310 H   0  0  0  0  0  0  0  0  0  0  0  0
  1  2  3  0
  2  3  1  0
  3  4  1  0
  4  5  1  0
  4  6  1  0
  6  7  1  0
  7  8  1  0
  8  9  1  0
  9  4  1  0
  9  7  1  0
  1 10  1  0
  3 11  1  0
  3 12  1  0
  5 13  1  0
  6 14  1  0
  6 15  1  0
  7 16  1  0
  8 17  1  0
  8 18  1  0
  9 19  1  0
M  END
