
     RDKit          3D

 21 21  0  0  0  0  0  0  0  0999 V2000
    0.7882   -1.1937   -2.6085 C   0  0  0  0  0  0  0  0  0  0  0  0
    0.8451   -0.8685   -1.4170 C   0  0  0  0  0  0  0  0  0  0  0  0
    0.8866   -0.5015   -0.0486 C   0  0  0  0  0  0  0  0  0  0  0  0
    1.7205   -1.2919    0.7739 O   0  0  0  0  0  0  0  0  0  0  0  0
    0.6462    0.8780    0.4318 C   0  0  0  0  0  0  0  0  0  0  0  0
    0.4494    2.0314   -0.5157 C   0  0  0  0  0  0  0  0  0  0  0  0
   -0.4425   -0.0798    0.5915 C   0  0  0  0  0  0  0  0  0  0  0  0
   -0.6901   -0.6138    1.9968 C   0  0  0  0  0  0  0  0  0  0  0  0
   -1.6396   -0.1785   -0.2943 C   0  0  0  0  0  0  0  0  0  0  0  0
    0.7238   -1.4687   -3.6563 H   0  0  0  0  0  0  0  0  0  0  0  0
    2.2969   -1.8446    0.1925 H   0  0  0  0  0  0  0  0  0  0  0  0
    1.1951    1.1972    1.3638 H   0  0  0  0  0  0  0  0  0  0  0  0
    0.0253    2.8709    0.1005 H   0  0  0  0  0  0  0  0  0  0  0  0
   -0.1471    1.8128   -1.3992 H   0  0  0  0  0  0  0  0  0  0  0  0
    1.4595    2.3822   -0.8811 H   0  0  0  0  0  0  0  0  0  0  0  0
   -1.7048   -0.3668    2.3244 H   0  0  0  0  0  0  0  0  0  0  0  0
   -0.6118   -1.7272    1.9436 H   0  0  0  0  0  0  0  0  0  0  0  0
    0.1003   -0.2383    2.6757 H   0  0  0  0  0  0  0  0  0  0  0  0
   -2.5792   -0.0358    0.2785 H   0  0  0  0  0  0  0  0  0  0  0  0
   -1.6636   -1.2353   -0.6913 H   0  0  0  0  0  0  0  0  0  0  0  0
   -1.6579    0.4719   -1.1613 H   0  0  0  0  0  0  0  0  0  0  0  0
  1  2  3  0
  2  3  1  0
  3  4  1  0
  3  5  1  0
  5  6  1  0
  5  7  1  0
  7  8  1  0
  7  9  1  0
  7  3  1  0
  1 10  1  0
  4 11  1  0
  5 12  1  0
  6 13  1  0
  6 14  1  0
  6 15  1  0
  8 16  1  0
  8 17  1  0
  8 18  1  0
  9 19  1  0
  9 20  1  0
  9 21  1  0
M  END
