
     RDKit          3D

 17 17  0  0  0  0  0  0  0  0999 V2000
    3.6061    0.5097   -0.0605 C   0  0  0  0  0  0  0  0  0  0  0  0
    2.4241    0.3513   -0.0591 C   0  0  0  0  0  0  0  0  0  0  0  0
    1.0110    0.1850   -0.0493 C   0  0  0  0  0  0  0  0  0  0  0  0
    0.3687    0.7778    0.9651 C   0  0  0  0  0  0  0  0  0  0  0  0
   -1.0587    0.7926    1.2513 C   0  0  0  0  0  0  0  0  0  0  0  0
   -1.9817    0.0710    0.6373 C   0  0  0  0  0  0  0  0  0  0  0  0
   -1.8234   -0.8962   -0.4495 C   0  0  0  0  0  0  0  0  0  0  0  0
   -0.5670   -1.4436   -0.5473 O   0  0  0  0  0  0  0  0  0  0  0  0
    0.3674   -0.6056   -1.1248 C   0  0  0  0  0  0  0  0  0  0  0  0
    4.6721    0.6349   -0.0565 H   0  0  0  0  0  0  0  0  0  0  0  0
    1.0214    1.2942    1.6248 H   0  0  0  0  0  0  0  0  0  0  0  0
   -1.3787    1.4593    2.0403 H   0  0  0  0  0  0  0  0  0  0  0  0
   -2.9787    0.2432    1.0142 H   0  0  0  0  0  0  0  0  0  0  0  0
   -2.5335   -1.7490   -0.2420 H   0  0  0  0  0  0  0  0  0  0  0  0
   -2.1956   -0.4615   -1.4137 H   0  0  0  0  0  0  0  0  0  0  0  0
    1.1292   -1.2303   -1.6212 H   0  0  0  0  0  0  0  0  0  0  0  0
   -0.0825    0.0673   -1.9092 H   0  0  0  0  0  0  0  0  0  0  0  0
  1  2  3  0
  2  3  1  0
  3  4  2  0
  4  5  1  0
  5  6  2  0
  6  7  1  0
  7  8  1  0
  8  9  1  0
  9  3  1  0
  1 10  1  0
  4 11  1  0
  5 12  1  0
  6 13  1  0
  7 14  1  0
  7 15  1  0
  9 16  1  0
  9 17  1  0
M  END
