
     RDKit          3D

 19 20  0  0  0  0  0  0  0  0999 V2000
    3.6193   -0.5258   -0.3626 C   0  0  0  0  0  0  0  0  0  0  0  0
    2.5201   -0.0331   -0.4382 C   0  0  0  0  0  0  0  0  0  0  0  0
    1.1913    0.5413   -0.5436 C   0  0  0  0  0  0  0  0  0  0  0  0
    0.7323    1.0311    0.8351 C   0  0  0  0  0  0  0  0  0  0  0  0
   -0.7847    0.9793    0.5885 C   0  0  0  0  0  0  0  0  0  0  0  0
   -0.8697   -0.2757   -0.2366 C   0  0  0  0  0  0  0  0  0  0  0  0
   -1.6418   -1.3908    0.3476 C   0  0  0  0  0  0  0  0  0  0  0  0
   -2.1144   -0.7099   -0.8780 C   0  0  0  0  0  0  0  0  0  0  0  0
    0.3121   -0.4429   -0.9009 O   0  0  0  0  0  0  0  0  0  0  0  0
    4.5985   -0.9462   -0.2894 H   0  0  0  0  0  0  0  0  0  0  0  0
    1.1411    1.4255   -1.2017 H   0  0  0  0  0  0  0  0  0  0  0  0
    1.0108    0.3186    1.6240 H   0  0  0  0  0  0  0  0  0  0  0  0
    1.0629    2.0429    1.0511 H   0  0  0  0  0  0  0  0  0  0  0  0
   -1.0894    1.8894    0.0174 H   0  0  0  0  0  0  0  0  0  0  0  0
   -1.3471    0.9323    1.5257 H   0  0  0  0  0  0  0  0  0  0  0  0
   -2.1540   -1.2178    1.3253 H   0  0  0  0  0  0  0  0  0  0  0  0
   -1.2144   -2.4030    0.2577 H   0  0  0  0  0  0  0  0  0  0  0  0
   -2.0208   -1.2317   -1.8547 H   0  0  0  0  0  0  0  0  0  0  0  0
   -2.9523    0.0163   -0.8666 H   0  0  0  0  0  0  0  0  0  0  0  0
  1  2  3  0
  2  3  1  0
  3  4  1  0
  4  5  1  0
  5  6  1  0
  6  7  1  0
  7  8  1  0
  6  9  1  0
  9  3  1  0
  8  6  1  0
  1 10  1  0
  3 11  1  0
  4 12  1  0
  4 13  1  0
  5 14  1  0
  5 15  1  0
  7 16  1  0
  7 17  1  0
  8 18  1  0
  8 19  1  0
M  END
