
     RDKit          3D

 21 22  0  0  0  0  0  0  0  0999 V2000
    3.6104   -0.6055   -1.4392 C   0  0  0  0  0  0  0  0  0  0  0  0
    2.4620   -0.3827   -1.1721 C   0  0  0  0  0  0  0  0  0  0  0  0
    1.0549   -0.1022   -0.8195 C   0  0  0  0  0  0  0  0  0  0  0  0
    0.5406   -1.1228    0.1201 C   0  0  0  0  0  0  0  0  0  0  0  0
    0.0281   -0.0351    1.0066 C   0  0  0  0  0  0  0  0  0  0  0  0
   -1.3903    0.3959    0.9173 C   0  0  0  0  0  0  0  0  0  0  0  0
   -2.0518    0.9568   -0.2559 C   0  0  0  0  0  0  0  0  0  0  0  0
   -2.3578   -0.4367    0.1945 C   0  0  0  0  0  0  0  0  0  0  0  0
    0.9012    0.9410    0.2519 C   0  0  0  0  0  0  0  0  0  0  0  0
    4.6265   -0.8189   -1.6667 H   0  0  0  0  0  0  0  0  0  0  0  0
    0.4423    0.0878   -1.7270 H   0  0  0  0  0  0  0  0  0  0  0  0
    1.3577   -1.6771    0.6526 H   0  0  0  0  0  0  0  0  0  0  0  0
   -0.1713   -1.8502   -0.2930 H   0  0  0  0  0  0  0  0  0  0  0  0
    0.3525   -0.1475    2.0886 H   0  0  0  0  0  0  0  0  0  0  0  0
   -1.7702    0.8084    1.9174 H   0  0  0  0  0  0  0  0  0  0  0  0
   -2.8518    1.7406   -0.0768 H   0  0  0  0  0  0  0  0  0  0  0  0
   -1.6120    1.1027   -1.2490 H   0  0  0  0  0  0  0  0  0  0  0  0
   -2.0574   -1.2665   -0.4321 H   0  0  0  0  0  0  0  0  0  0  0  0
   -3.3815   -0.5712    0.6384 H   0  0  0  0  0  0  0  0  0  0  0  0
    0.4081    1.8871   -0.0593 H   0  0  0  0  0  0  0  0  0  0  0  0
    1.8596    1.0964    0.8121 H   0  0  0  0  0  0  0  0  0  0  0  0
  1  2  3  0
  2  3  1  0
  3  4  1  0
  4  5  1  0
  5  6  1  0
  6  7  1  0
  7  8  1  0
  5  9  1  0
  9  3  1  0
  8  6  1  0
  1 10  1  0
  3 11  1  0
  4 12  1  0
  4 13  1  0
  5 14  1  0
  6 15  1  0
  7 16  1  0
  7 17  1  0
  8 18  1  0
  8 19  1  0
  9 20  1  0
  9 21  1  0
M  END
