
     RDKit          3D

 16 17  0  0  0  0  0  0  0  0999 V2000
    3.4200   -0.7106   -0.0603 C   0  0  0  0  0  0  0  0  0  0  0  0
    2.2866   -0.2805   -0.1173 C   0  0  0  0  0  0  0  0  0  0  0  0
    0.9408    0.2217   -0.1941 C   0  0  0  0  0  0  0  0  0  0  0  0
    0.0439    0.0208    1.0182 C   0  0  0  0  0  0  0  0  0  0  0  0
   -1.0654   -0.3456    0.0637 C   0  0  0  0  0  0  0  0  0  0  0  0
   -2.1217    0.7503    0.0029 C   0  0  0  0  0  0  0  0  0  0  0  0
   -0.0373   -0.2732   -1.0484 C   0  0  0  0  0  0  0  0  0  0  0  0
    0.5052    0.9669   -1.2567 O   0  0  0  0  0  0  0  0  0  0  0  0
    4.4154   -1.0713   -0.0195 H   0  0  0  0  0  0  0  0  0  0  0  0
   -0.1174    0.9275    1.6183 H   0  0  0  0  0  0  0  0  0  0  0  0
    0.4188   -0.8731    1.5764 H   0  0  0  0  0  0  0  0  0  0  0  0
   -1.4725   -1.3570    0.2448 H   0  0  0  0  0  0  0  0  0  0  0  0
   -3.0822    0.3459   -0.4180 H   0  0  0  0  0  0  0  0  0  0  0  0
   -1.7967    1.6008   -0.6155 H   0  0  0  0  0  0  0  0  0  0  0  0
   -2.3349    1.1369    1.0160 H   0  0  0  0  0  0  0  0  0  0  0  0
   -0.0027   -1.0593   -1.8106 H   0  0  0  0  0  0  0  0  0  0  0  0
  1  2  3  0
  2  3  1  0
  3  4  1  0
  4  5  1  0
  5  6  1  0
  5  7  1  0
  7  8  1  0
  7  3  1  0
  8  3  1  0
  1  9  1  0
  4 10  1  0
  4 11  1  0
  5 12  1  0
  6 13  1  0
  6 14  1  0
  6 15  1  0
  7 16  1  0
M  END
