
     RDKit          3D

 16 17  0  0  0  0  0  0  0  0999 V2000
    2.6607   -1.6163   -0.0173 C   0  0  0  0  0  0  0  0  0  0  0  0
    1.6218   -0.8444    0.2909 C   0  0  0  0  0  0  0  0  0  0  0  0
    0.6164   -0.0756    0.6060 C   0  0  0  0  0  0  0  0  0  0  0  0
    0.3677    0.9630   -0.6957 C   0  0  0  0  0  0  0  0  0  0  0  0
   -0.9193    0.3670   -1.1390 C   0  0  0  0  0  0  0  0  0  0  0  0
   -1.7490    0.4656    0.1525 C   0  0  0  0  0  0  0  0  0  0  0  0
   -0.7292   -0.5224    0.5477 C   0  0  0  0  0  0  0  0  0  0  0  0
   -0.8791   -0.9677   -0.8835 O   0  0  0  0  0  0  0  0  0  0  0  0
    3.5652   -2.2831   -0.3004 H   0  0  0  0  0  0  0  0  0  0  0  0
    0.9717    0.7539    1.2936 H   0  0  0  0  0  0  0  0  0  0  0  0
    0.1791    1.9770   -0.2177 H   0  0  0  0  0  0  0  0  0  0  0  0
    1.2389    0.8927   -1.2688 H   0  0  0  0  0  0  0  0  0  0  0  0
   -1.3776    0.7210   -2.0388 H   0  0  0  0  0  0  0  0  0  0  0  0
   -2.7849    0.0641    0.0342 H   0  0  0  0  0  0  0  0  0  0  0  0
   -1.7106    1.5034    0.6061 H   0  0  0  0  0  0  0  0  0  0  0  0
   -1.0718   -1.3982    1.1696 H   0  0  0  0  0  0  0  0  0  0  0  0
  1  2  3  0
  2  3  1  0
  3  4  1  0
  4  5  1  0
  5  6  1  0
  6  7  1  0
  7  8  1  0
  7  3  1  0
  8  5  1  0
  1  9  1  0
  3 10  1  0
  4 11  1  0
  4 12  1  0
  5 13  1  0
  6 14  1  0
  6 15  1  0
  7 16  1  0
M  END
