
     RDKit          3D

 19 19  0  0  0  0  0  0  0  0999 V2000
    2.2663   -2.1759   -1.0589 C   0  0  0  0  0  0  0  0  0  0  0  0
    1.5561   -1.2226   -0.8508 C   0  0  0  0  0  0  0  0  0  0  0  0
    0.6704   -0.0746   -0.6038 C   0  0  0  0  0  0  0  0  0  0  0  0
   -0.1224    0.2150   -1.6830 O   0  0  0  0  0  0  0  0  0  0  0  0
   -1.1627    1.0466   -1.4895 C   0  0  0  0  0  0  0  0  0  0  0  0
   -1.8562    0.9311   -0.3210 O   0  0  0  0  0  0  0  0  0  0  0  0
   -1.5185   -0.0868    0.5070 C   0  0  0  0  0  0  0  0  0  0  0  0
   -0.0471   -0.3263    0.6704 C   0  0  0  0  0  0  0  0  0  0  0  0
    0.4697    0.6063    1.7462 C   0  0  0  0  0  0  0  0  0  0  0  0
    2.8822   -3.0319   -1.2375 H   0  0  0  0  0  0  0  0  0  0  0  0
    1.3670    0.8004   -0.4797 H   0  0  0  0  0  0  0  0  0  0  0  0
   -0.7598    2.1048   -1.5266 H   0  0  0  0  0  0  0  0  0  0  0  0
   -1.8538    0.9874   -2.3615 H   0  0  0  0  0  0  0  0  0  0  0  0
   -1.9458   -1.0391    0.0779 H   0  0  0  0  0  0  0  0  0  0  0  0
   -1.9958    0.0590    1.4896 H   0  0  0  0  0  0  0  0  0  0  0  0
    0.1052   -1.3608    1.0681 H   0  0  0  0  0  0  0  0  0  0  0  0
    0.4725    1.6638    1.4092 H   0  0  0  0  0  0  0  0  0  0  0  0
   -0.0719    0.5435    2.6873 H   0  0  0  0  0  0  0  0  0  0  0  0
    1.5444    0.3603    1.9565 H   0  0  0  0  0  0  0  0  0  0  0  0
  1  2  3  0
  2  3  1  0
  3  4  1  0
  4  5  1  0
  5  6  1  0
  6  7  1  0
  7  8  1  0
  8  9  1  0
  8  3  1  0
  1 10  1  0
  3 11  1  0
  5 12  1  0
  5 13  1  0
  7 14  1  0
  7 15  1  0
  8 16  1  0
  9 17  1  0
  9 18  1  0
  9 19  1  0
M  END
