
     RDKit          3D

 19 20  0  0  0  0  0  0  0  0999 V2000
    0.5067    3.0396   -1.2063 C   0  0  0  0  0  0  0  0  0  0  0  0
   -0.1688    2.1116   -1.0789 C   0  0  0  0  0  0  0  0  0  0  0  0
   -1.0332    0.9005   -0.9259 C   0  0  0  0  0  0  0  0  0  0  0  0
   -0.3218    0.0028    0.0183 C   0  0  0  0  0  0  0  0  0  0  0  0
    1.0489   -0.4450   -0.4326 C   0  0  0  0  0  0  0  0  0  0  0  0
    1.2824   -1.7500    0.2247 C   0  0  0  0  0  0  0  0  0  0  0  0
    0.2135   -2.1527    0.8756 C   0  0  0  0  0  0  0  0  0  0  0  0
   -0.8714   -1.1464    0.7237 C   0  0  0  0  0  0  0  0  0  0  0  0
   -0.6490    0.1178    1.4595 C   0  0  0  0  0  0  0  0  0  0  0  0
    1.1765    3.9351   -1.3434 H   0  0  0  0  0  0  0  0  0  0  0  0
   -2.0373    1.2097   -0.6394 H   0  0  0  0  0  0  0  0  0  0  0  0
   -1.1441    0.3814   -1.9235 H   0  0  0  0  0  0  0  0  0  0  0  0
    1.8394    0.2887   -0.2336 H   0  0  0  0  0  0  0  0  0  0  0  0
    1.0280   -0.6195   -1.5284 H   0  0  0  0  0  0  0  0  0  0  0  0
    2.2098   -2.3009    0.1728 H   0  0  0  0  0  0  0  0  0  0  0  0
    0.1288   -3.0538    1.4319 H   0  0  0  0  0  0  0  0  0  0  0  0
   -1.8978   -1.5040    0.4934 H   0  0  0  0  0  0  0  0  0  0  0  0
   -1.4857    0.8003    1.6947 H   0  0  0  0  0  0  0  0  0  0  0  0
    0.1753    0.1849    2.2174 H   0  0  0  0  0  0  0  0  0  0  0  0
  1  2  3  0
  2  3  1  0
  3  4  1  0
  4  5  1  0
  5  6  1  0
  6  7  2  0
  7  8  1  0
  8  9  1  0
  8  4  1  0
  9  4  1  0
  1 10  1  0
  3 11  1  0
  3 12  1  0
  5 13  1  0
  5 14  1  0
  6 15  1  0
  7 16  1  0
  8 17  1  0
  9 18  1  0
  9 19  1  0
M  END
