
     RDKit          3D

 19 19  0  0  0  0  0  0  0  0999 V2000
    1.4295    1.1118    2.0207 C   0  0  0  0  0  0  0  0  0  0  0  0
    0.3050    0.3762    1.5428 C   0  0  0  0  0  0  0  0  0  0  0  0
   -0.7484   -0.2908    1.1065 C   0  0  0  0  0  0  0  0  0  0  0  0
   -0.3008   -0.8460   -0.2925 C   0  0  0  0  0  0  0  0  0  0  0  0
    0.8346   -1.8215   -0.2419 C   0  0  0  0  0  0  0  0  0  0  0  0
   -1.0055   -0.5721   -1.5285 C   0  0  0  0  0  0  0  0  0  0  0  0
    0.0817    0.3849   -1.1804 C   0  0  0  0  0  0  0  0  0  0  0  0
   -0.2645    1.6816   -0.4150 C   0  0  0  0  0  0  0  0  0  0  0  0
   -0.5333    2.7306    0.2248 C   0  0  0  0  0  0  0  0  0  0  0  0
    2.2681    1.6534    2.3756 H   0  0  0  0  0  0  0  0  0  0  0  0
   -1.2411   -1.0345    1.6433 H   0  0  0  0  0  0  0  0  0  0  0  0
   -1.5769    0.4758    0.7423 H   0  0  0  0  0  0  0  0  0  0  0  0
    0.5482   -2.7873    0.3178 H   0  0  0  0  0  0  0  0  0  0  0  0
    0.9575   -2.2253   -1.3210 H   0  0  0  0  0  0  0  0  0  0  0  0
    1.7935   -1.4235    0.0900 H   0  0  0  0  0  0  0  0  0  0  0  0
   -0.7986   -1.2726   -2.4219 H   0  0  0  0  0  0  0  0  0  0  0  0
   -1.9893   -0.0682   -1.6455 H   0  0  0  0  0  0  0  0  0  0  0  0
    0.9664    0.3938   -1.7218 H   0  0  0  0  0  0  0  0  0  0  0  0
   -0.7263    3.5339    0.7049 H   0  0  0  0  0  0  0  0  0  0  0  0
  1  2  3  0
  2  3  1  0
  3  4  1  0
  4  5  1  0
  4  6  1  0
  6  7  1  0
  7  8  1  0
  8  9  3  0
  7  4  1  0
  1 10  1  0
  3 11  1  0
  3 12  1  0
  5 13  1  0
  5 14  1  0
  5 15  1  0
  6 16  1  0
  6 17  1  0
  7 18  1  0
  9 19  1  0
M  END
