
     RDKit          3D

 23 22  0  0  0  0  0  0  0  0999 V2000
   -3.2444   -0.3685    0.7487 C   0  0  0  0  0  0  0  0  0  0  0  0
   -2.0341   -0.4663    0.4232 C   0  0  0  0  0  0  0  0  0  0  0  0
   -0.7504   -0.5846    0.0585 C   0  0  0  0  0  0  0  0  0  0  0  0
   -0.8019   -1.1028   -1.4885 C   0  0  0  0  0  0  0  0  0  0  0  0
   -0.3604   -2.0372    0.6826 C   0  0  0  0  0  0  0  0  0  0  0  0
    0.3727    0.2338    0.1779 C   0  0  0  0  0  0  0  0  0  0  0  0
    0.8401    1.5042   -0.3564 C   0  0  0  0  0  0  0  0  0  0  0  0
    2.3618    1.4302    0.0898 C   0  0  0  0  0  0  0  0  0  0  0  0
    0.3271    2.6360    0.1901 O   0  0  0  0  0  0  0  0  0  0  0  0
   -4.2682   -0.3041    1.0205 H   0  0  0  0  0  0  0  0  0  0  0  0
   -0.6422   -0.1318   -2.0592 H   0  0  0  0  0  0  0  0  0  0  0  0
   -1.8365   -1.3986   -1.5398 H   0  0  0  0  0  0  0  0  0  0  0  0
   -0.1320   -1.8842   -1.5950 H   0  0  0  0  0  0  0  0  0  0  0  0
   -0.7921   -2.0256    1.6805 H   0  0  0  0  0  0  0  0  0  0  0  0
    0.6995   -2.1876    0.7907 H   0  0  0  0  0  0  0  0  0  0  0  0
   -0.8153   -2.8395    0.0518 H   0  0  0  0  0  0  0  0  0  0  0  0
    1.2366   -0.3454    0.7646 H   0  0  0  0  0  0  0  0  0  0  0  0
    0.0456    0.7503    1.3654 H   0  0  0  0  0  0  0  0  0  0  0  0
    0.7819    1.6783   -1.4930 H   0  0  0  0  0  0  0  0  0  0  0  0
    3.0424    2.0163   -0.5614 H   0  0  0  0  0  0  0  0  0  0  0  0
    2.4480    1.7218    1.1054 H   0  0  0  0  0  0  0  0  0  0  0  0
    2.5805    0.3114    0.0149 H   0  0  0  0  0  0  0  0  0  0  0  0
    0.9417    3.3938   -0.0715 H   0  0  0  0  0  0  0  0  0  0  0  0
  1  2  3  0
  2  3  1  0
  3  4  1  0
  3  5  1  0
  3  6  1  0
  6  7  1  0
  7  8  1  0
  7  9  1  0
  1 10  1  0
  4 11  1  0
  4 12  1  0
  4 13  1  0
  5 14  1  0
  5 15  1  0
  5 16  1  0
  6 17  1  0
  6 18  1  0
  7 19  1  0
  8 20  1  0
  8 21  1  0
  8 22  1  0
  9 23  1  0
M  END
