
     RDKit          3D

 20 19  0  0  0  0  0  0  0  0999 V2000
    2.7981   -1.0086    0.7652 C   0  0  0  0  0  0  0  0  0  0  0  0
    2.4168   -0.5755    0.0926 C   0  0  0  0  0  0  0  0  0  0  0  0
    1.8013    0.1497   -0.9930 C   0  0  0  0  0  0  0  0  0  0  0  0
    0.5807    0.9297   -0.5721 C   0  0  0  0  0  0  0  0  0  0  0  0
   -0.6488    0.3542   -0.0576 C   0  0  0  0  0  0  0  0  0  0  0  0
   -0.4758   -0.3710    1.3188 C   0  0  0  0  0  0  0  0  0  0  0  0
   -1.2486   -0.5495   -0.9290 O   0  0  0  0  0  0  0  0  0  0  0  0
   -2.6073   -0.4834   -0.8115 C   0  0  0  0  0  0  0  0  0  0  0  0
    3.4134   -1.7284    1.8806 H   0  0  0  0  0  0  0  0  0  0  0  0
    2.5617    1.2157   -0.7939 H   0  0  0  0  0  0  0  0  0  0  0  0
    2.0765    0.0778   -1.9579 H   0  0  0  0  0  0  0  0  0  0  0  0
    0.3805    2.0326   -0.9132 H   0  0  0  0  0  0  0  0  0  0  0  0
    0.9880    1.3803    0.5703 H   0  0  0  0  0  0  0  0  0  0  0  0
   -1.4187    1.1257    0.1449 H   0  0  0  0  0  0  0  0  0  0  0  0
    0.1339    0.4250    1.8901 H   0  0  0  0  0  0  0  0  0  0  0  0
   -1.5412   -0.4207    1.7658 H   0  0  0  0  0  0  0  0  0  0  0  0
    0.0592   -1.2908    1.2931 H   0  0  0  0  0  0  0  0  0  0  0  0
   -2.9945    0.5722   -0.5886 H   0  0  0  0  0  0  0  0  0  0  0  0
   -3.1376   -1.2323   -0.2467 H   0  0  0  0  0  0  0  0  0  0  0  0
   -3.1375   -0.6027   -1.8579 H   0  0  0  0  0  0  0  0  0  0  0  0
  1  2  3  0
  2  3  1  0
  3  4  1  0
  4  5  1  0
  5  6  1  0
  5  7  1  0
  7  8  1  0
  1  9  1  0
  3 10  1  0
  3 11  1  0
  4 12  1  0
  4 13  1  0
  5 14  1  0
  6 15  1  0
  6 16  1  0
  6 17  1  0
  8 18  1  0
  8 19  1  0
  8 20  1  0
M  END
