
     RDKit          3D

 15 16  0  0  0  0  0  0  0  0999 V2000
    4.6813   -0.2367   -0.2744 C   0  0  0  0  0  0  0  0  0  0  0  0
    3.4699   -0.2854   -0.2158 C   0  0  0  0  0  0  0  0  0  0  0  0
    2.0563   -0.3421   -0.1692 C   0  0  0  0  0  0  0  0  0  0  0  0
    0.8522   -0.4013   -0.1438 C   0  0  0  0  0  0  0  0  0  0  0  0
   -0.5905   -0.4792   -0.0896 C   0  0  0  0  0  0  0  0  0  0  0  0
   -1.4302    0.4144   -0.9780 C   0  0  0  0  0  0  0  0  0  0  0  0
   -2.3872    0.5576    0.2142 C   0  0  0  0  0  0  0  0  0  0  0  0
   -1.3760   -0.2901    0.9972 C   0  0  0  0  0  0  0  0  0  0  0  0
   -1.2065   -1.5690    0.4995 O   0  0  0  0  0  0  0  0  0  0  0  0
    5.7470   -0.1755   -0.3232 H   0  0  0  0  0  0  0  0  0  0  0  0
   -1.9149   -0.1243   -1.8179 H   0  0  0  0  0  0  0  0  0  0  0  0
   -0.9409    1.3630   -1.2272 H   0  0  0  0  0  0  0  0  0  0  0  0
   -3.3524    0.0215    0.0500 H   0  0  0  0  0  0  0  0  0  0  0  0
   -2.4636    1.5777    0.6149 H   0  0  0  0  0  0  0  0  0  0  0  0
   -1.1444   -0.0306    2.0264 H   0  0  0  0  0  0  0  0  0  0  0  0
  1  2  3  0
  2  3  1  0
  3  4  3  0
  4  5  1  0
  5  6  1  0
  6  7  1  0
  7  8  1  0
  8  9  1  0
  8  5  1  0
  9  5  1  0
  1 10  1  0
  6 11  1  0
  6 12  1  0
  7 13  1  0
  7 14  1  0
  8 15  1  0
M  END
