
     RDKit          3D

 19 19  0  0  0  0  0  0  0  0999 V2000
    2.9306    1.4032   -0.3339 C   0  0  0  0  0  0  0  0  0  0  0  0
    2.4408    0.3448   -0.1742 C   0  0  0  0  0  0  0  0  0  0  0  0
    1.7765   -1.0487    0.0473 C   0  0  0  0  0  0  0  0  0  0  0  0
    0.2966   -0.6825    0.0697 C   0  0  0  0  0  0  0  0  0  0  0  0
   -0.5479   -1.0886   -0.9090 C   0  0  0  0  0  0  0  0  0  0  0  0
   -1.9459   -0.5637   -0.6275 C   0  0  0  0  0  0  0  0  0  0  0  0
   -1.6414    0.6236    0.2835 C   0  0  0  0  0  0  0  0  0  0  0  0
   -1.0960    1.7143   -0.3543 O   0  0  0  0  0  0  0  0  0  0  0  0
   -0.5196   -0.0355    1.1111 C   0  0  0  0  0  0  0  0  0  0  0  0
    3.3954    2.3769   -0.4675 H   0  0  0  0  0  0  0  0  0  0  0  0
    2.1053   -1.3620    1.0167 H   0  0  0  0  0  0  0  0  0  0  0  0
    2.0521   -1.6116   -0.8361 H   0  0  0  0  0  0  0  0  0  0  0  0
   -0.2899   -1.7095   -1.7656 H   0  0  0  0  0  0  0  0  0  0  0  0
   -2.6140   -1.2681   -0.2105 H   0  0  0  0  0  0  0  0  0  0  0  0
   -2.3236   -0.0348   -1.5809 H   0  0  0  0  0  0  0  0  0  0  0  0
   -2.4958    0.8341    0.8957 H   0  0  0  0  0  0  0  0  0  0  0  0
   -0.5366    2.2236    0.3464 H   0  0  0  0  0  0  0  0  0  0  0  0
    0.0595    0.6574    1.6835 H   0  0  0  0  0  0  0  0  0  0  0  0
   -1.0461   -0.7728    1.8056 H   0  0  0  0  0  0  0  0  0  0  0  0
  1  2  3  0
  2  3  1  0
  3  4  1  0
  4  5  2  0
  5  6  1  0
  6  7  1  0
  7  8  1  0
  7  9  1  0
  9  4  1  0
  1 10  1  0
  3 11  1  0
  3 12  1  0
  5 13  1  0
  6 14  1  0
  6 15  1  0
  7 16  1  0
  8 17  1  0
  9 18  1  0
  9 19  1  0
M  END
