
     RDKit          3D

 17 17  0  0  0  0  0  0  0  0999 V2000
    4.5430   -0.0937    1.2948 C   0  0  0  0  0  0  0  0  0  0  0  0
    3.6020   -0.0131    0.9842 C   0  0  0  0  0  0  0  0  0  0  0  0
    2.0836    0.1031    0.4722 C   0  0  0  0  0  0  0  0  0  0  0  0
    1.1479    0.1730    0.1422 C   0  0  0  0  0  0  0  0  0  0  0  0
   -0.1822    0.2830   -0.3037 C   0  0  0  0  0  0  0  0  0  0  0  0
   -1.0317   -1.1317   -0.0525 C   0  0  0  0  0  0  0  0  0  0  0  0
   -2.3897   -0.5614   -0.7000 C   0  0  0  0  0  0  0  0  0  0  0  0
   -1.7335    0.4802   -1.6410 O   0  0  0  0  0  0  0  0  0  0  0  0
   -1.0947    1.2455   -0.7107 C   0  0  0  0  0  0  0  0  0  0  0  0
    5.5724   -0.1683    1.6397 H   0  0  0  0  0  0  0  0  0  0  0  0
   -0.5620    0.5055    1.1317 H   0  0  0  0  0  0  0  0  0  0  0  0
   -1.1465   -1.4901    0.9979 H   0  0  0  0  0  0  0  0  0  0  0  0
   -0.6533   -1.9530   -0.6151 H   0  0  0  0  0  0  0  0  0  0  0  0
   -2.7324    0.1305    0.0736 H   0  0  0  0  0  0  0  0  0  0  0  0
   -2.8761   -1.1479   -1.3800 H   0  0  0  0  0  0  0  0  0  0  0  0
   -0.5692    2.1441   -0.7803 H   0  0  0  0  0  0  0  0  0  0  0  0
   -1.9778    1.4941    0.0707 H   0  0  0  0  0  0  0  0  0  0  0  0
  1  2  3  0
  2  3  1  0
  3  4  3  0
  4  5  1  0
  5  6  1  0
  6  7  1  0
  7  8  1  0
  8  9  1  0
  9  5  1  0
  1 10  1  0
  5 11  1  0
  6 12  1  0
  6 13  1  0
  7 14  1  0
  7 15  1  0
  9 16  1  0
  9 17  1  0
M  END
