
     RDKit          3D

 17 18  0  0  0  0  0  0  0  0999 V2000
    3.0962    0.3993    0.8802 C   0  0  0  0  0  0  0  0  0  0  0  0
    2.0654    0.2950    0.2620 C   0  0  0  0  0  0  0  0  0  0  0  0
    0.8235    0.1481   -0.4679 C   0  0  0  0  0  0  0  0  0  0  0  0
    0.5364    0.9455   -1.5471 O   0  0  0  0  0  0  0  0  0  0  0  0
   -0.1359    1.3074   -0.4058 C   0  0  0  0  0  0  0  0  0  0  0  0
   -1.4743    0.7510   -0.0635 C   0  0  0  0  0  0  0  0  0  0  0  0
   -1.1548   -0.5850    0.5573 C   0  0  0  0  0  0  0  0  0  0  0  0
    0.0271   -1.1044   -0.2035 C   0  0  0  0  0  0  0  0  0  0  0  0
   -0.3256   -1.7342   -1.3839 O   0  0  0  0  0  0  0  0  0  0  0  0
    4.0211    0.5017    1.4175 H   0  0  0  0  0  0  0  0  0  0  0  0
    0.2011    2.2752    0.0391 H   0  0  0  0  0  0  0  0  0  0  0  0
   -2.1841    0.6855   -0.8925 H   0  0  0  0  0  0  0  0  0  0  0  0
   -1.8966    1.3921    0.7647 H   0  0  0  0  0  0  0  0  0  0  0  0
   -2.0229   -1.2470    0.4981 H   0  0  0  0  0  0  0  0  0  0  0  0
   -0.8583   -0.4231    1.6181 H   0  0  0  0  0  0  0  0  0  0  0  0
    0.5777   -1.7956    0.4432 H   0  0  0  0  0  0  0  0  0  0  0  0
   -1.2960   -1.8114   -1.5161 H   0  0  0  0  0  0  0  0  0  0  0  0
  1  2  3  0
  2  3  1  0
  3  4  1  0
  4  5  1  0
  5  6  1  0
  6  7  1  0
  7  8  1  0
  8  9  1  0
  5  3  1  0
  8  3  1  0
  1 10  1  0
  5 11  1  0
  6 12  1  0
  6 13  1  0
  7 14  1  0
  7 15  1  0
  8 16  1  0
  9 17  1  0
M  END
