
     RDKit          3D

 21 22  0  0  0  0  0  0  0  0999 V2000
    1.8219   -0.0360    3.0042 C   0  0  0  0  0  0  0  0  0  0  0  0
    1.6076   -0.4429    1.9187 C   0  0  0  0  0  0  0  0  0  0  0  0
    1.3536   -0.9434    0.5312 C   0  0  0  0  0  0  0  0  0  0  0  0
    0.7177    0.1235   -0.2788 C   0  0  0  0  0  0  0  0  0  0  0  0
    0.3765   -0.1504   -1.7009 C   0  0  0  0  0  0  0  0  0  0  0  0
   -0.5400    1.0439   -1.5859 C   0  0  0  0  0  0  0  0  0  0  0  0
   -0.7582    0.2630   -0.2998 C   0  0  0  0  0  0  0  0  0  0  0  0
   -1.6367    0.5905    0.6987 C   0  0  0  0  0  0  0  0  0  0  0  0
   -0.7888   -0.9250   -1.2037 C   0  0  0  0  0  0  0  0  0  0  0  0
    2.0072    0.3540    4.0047 H   0  0  0  0  0  0  0  0  0  0  0  0
    0.7345   -1.8198    0.6624 H   0  0  0  0  0  0  0  0  0  0  0  0
    2.3547   -1.1806    0.0629 H   0  0  0  0  0  0  0  0  0  0  0  0
    1.1908    1.1494   -0.1345 H   0  0  0  0  0  0  0  0  0  0  0  0
    0.9931   -0.3584   -2.4608 H   0  0  0  0  0  0  0  0  0  0  0  0
   -1.3710    1.0304   -2.2902 H   0  0  0  0  0  0  0  0  0  0  0  0
   -0.0583    2.0080   -1.3508 H   0  0  0  0  0  0  0  0  0  0  0  0
   -2.1274    1.5822    0.5863 H   0  0  0  0  0  0  0  0  0  0  0  0
   -1.1542    0.6282    1.7211 H   0  0  0  0  0  0  0  0  0  0  0  0
   -2.4848   -0.1280    0.8309 H   0  0  0  0  0  0  0  0  0  0  0  0
   -1.6144   -0.8902   -1.9651 H   0  0  0  0  0  0  0  0  0  0  0  0
   -0.6238   -1.8985   -0.7506 H   0  0  0  0  0  0  0  0  0  0  0  0
  1  2  3  0
  2  3  1  0
  3  4  1  0
  4  5  1  0
  5  6  1  0
  6  7  1  0
  7  8  1  0
  7  9  1  0
  7  4  1  0
  9  5  1  0
  1 10  1  0
  3 11  1  0
  3 12  1  0
  4 13  1  0
  5 14  1  0
  6 15  1  0
  6 16  1  0
  8 17  1  0
  8 18  1  0
  8 19  1  0
  9 20  1  0
  9 21  1  0
M  END
