
     RDKit          3D

 17 18  0  0  0  0  0  0  0  0999 V2000
    3.2941   -0.0288   -0.9990 C   0  0  0  0  0  0  0  0  0  0  0  0
    2.1497    0.0048   -0.6609 C   0  0  0  0  0  0  0  0  0  0  0  0
    0.8667    0.0528   -0.3036 C   0  0  0  0  0  0  0  0  0  0  0  0
   -0.0344   -1.1354   -0.1015 C   0  0  0  0  0  0  0  0  0  0  0  0
   -0.8772    0.0746    0.2396 C   0  0  0  0  0  0  0  0  0  0  0  0
   -2.1833    0.0994    0.6156 C   0  0  0  0  0  0  0  0  0  0  0  0
    0.3325    0.5461    1.0083 C   0  0  0  0  0  0  0  0  0  0  0  0
   -0.2420    0.6973   -0.9441 C   0  0  0  0  0  0  0  0  0  0  0  0
   -0.5328    1.3644   -1.8906 O   0  0  0  0  0  0  0  0  0  0  0  0
    4.3332   -0.0458   -1.3044 H   0  0  0  0  0  0  0  0  0  0  0  0
   -0.3038   -1.6510   -1.0372 H   0  0  0  0  0  0  0  0  0  0  0  0
    0.2268   -1.7881    0.7483 H   0  0  0  0  0  0  0  0  0  0  0  0
   -2.8987    0.5488   -0.1361 H   0  0  0  0  0  0  0  0  0  0  0  0
   -2.6415   -0.9140    0.8244 H   0  0  0  0  0  0  0  0  0  0  0  0
   -2.4084    0.6777    1.5583 H   0  0  0  0  0  0  0  0  0  0  0  0
    0.5184   -0.1133    1.8788 H   0  0  0  0  0  0  0  0  0  0  0  0
    0.4006    1.6105    1.2154 H   0  0  0  0  0  0  0  0  0  0  0  0
  1  2  3  0
  2  3  1  0
  3  4  1  0
  4  5  1  0
  5  6  1  0
  5  7  1  0
  5  8  1  0
  8  9  2  0
  7  3  1  0
  8  3  1  0
  1 10  1  0
  4 11  1  0
  4 12  1  0
  6 13  1  0
  6 14  1  0
  6 15  1  0
  7 16  1  0
  7 17  1  0
M  END
