
     RDKit          3D

 19 18  0  0  0  0  0  0  0  0999 V2000
    2.6931   -1.9701   -2.0682 C   0  0  0  0  0  0  0  0  0  0  0  0
    2.2157   -1.4348   -1.1070 C   0  0  0  0  0  0  0  0  0  0  0  0
    1.6433   -0.7540    0.0874 C   0  0  0  0  0  0  0  0  0  0  0  0
    0.2034   -0.4111   -0.1823 C   0  0  0  0  0  0  0  0  0  0  0  0
   -0.2643   -0.7400   -1.2577 O   0  0  0  0  0  0  0  0  0  0  0  0
   -0.6423    0.2968    0.7965 C   0  0  0  0  0  0  0  0  0  0  0  0
   -0.0433    1.6622    1.1034 C   0  0  0  0  0  0  0  0  0  0  0  0
   -1.9947    0.5338    0.1631 C   0  0  0  0  0  0  0  0  0  0  0  0
   -2.5538   -0.7063   -0.1639 O   0  0  0  0  0  0  0  0  0  0  0  0
    3.1287   -2.4524   -2.9106 H   0  0  0  0  0  0  0  0  0  0  0  0
    1.7254   -1.5324    0.8944 H   0  0  0  0  0  0  0  0  0  0  0  0
    2.2543    0.1064    0.3403 H   0  0  0  0  0  0  0  0  0  0  0  0
   -0.8080   -0.2914    1.7182 H   0  0  0  0  0  0  0  0  0  0  0  0
   -0.6200    2.1125    1.9370 H   0  0  0  0  0  0  0  0  0  0  0  0
   -0.2628    2.2983    0.2046 H   0  0  0  0  0  0  0  0  0  0  0  0
    1.0409    1.6071    1.2837 H   0  0  0  0  0  0  0  0  0  0  0  0
   -2.6714    1.1431    0.7983 H   0  0  0  0  0  0  0  0  0  0  0  0
   -1.7828    1.0733   -0.8015 H   0  0  0  0  0  0  0  0  0  0  0  0
   -3.2612   -0.5407   -0.8358 H   0  0  0  0  0  0  0  0  0  0  0  0
  1  2  3  0
  2  3  1  0
  3  4  1  0
  4  5  2  0
  4  6  1  0
  6  7  1  0
  6  8  1  0
  8  9  1  0
  1 10  1  0
  3 11  1  0
  3 12  1  0
  6 13  1  0
  7 14  1  0
  7 15  1  0
  7 16  1  0
  8 17  1  0
  8 18  1  0
  9 19  1  0
M  END
