
     RDKit          3D

 21 20  0  0  0  0  0  0  0  0999 V2000
   -1.9139    1.2378   -1.4889 C   0  0  0  0  0  0  0  0  0  0  0  0
   -0.7039    0.7317   -1.2478 C   0  0  0  0  0  0  0  0  0  0  0  0
    0.5808    0.1982   -1.0026 C   0  0  0  0  0  0  0  0  0  0  0  0
    1.4609    1.2742   -0.3994 C   0  0  0  0  0  0  0  0  0  0  0  0
    1.2325   -0.1606   -2.2172 O   0  0  0  0  0  0  0  0  0  0  0  0
    0.5784   -1.0416   -0.1664 C   0  0  0  0  0  0  0  0  0  0  0  0
   -0.0009   -0.9351    1.1922 C   0  0  0  0  0  0  0  0  0  0  0  0
   -1.4589   -0.5344    1.2348 C   0  0  0  0  0  0  0  0  0  0  0  0
    0.7437   -0.1933    2.1038 O   0  0  0  0  0  0  0  0  0  0  0  0
   -2.7373    1.5961   -1.6444 H   0  0  0  0  0  0  0  0  0  0  0  0
    2.2466    1.6427   -1.1238 H   0  0  0  0  0  0  0  0  0  0  0  0
    2.0318    0.8001    0.4306 H   0  0  0  0  0  0  0  0  0  0  0  0
    0.8854    2.1255   -0.0204 H   0  0  0  0  0  0  0  0  0  0  0  0
    0.7019   -0.8169   -2.7297 H   0  0  0  0  0  0  0  0  0  0  0  0
   -0.0057   -1.8583   -0.6924 H   0  0  0  0  0  0  0  0  0  0  0  0
    1.6208   -1.4245   -0.1218 H   0  0  0  0  0  0  0  0  0  0  0  0
    0.0019   -1.9858    1.6203 H   0  0  0  0  0  0  0  0  0  0  0  0
   -1.5074    0.5701    1.2885 H   0  0  0  0  0  0  0  0  0  0  0  0
   -1.8687   -0.8938    2.2110 H   0  0  0  0  0  0  0  0  0  0  0  0
   -2.0314   -0.9024    0.3781 H   0  0  0  0  0  0  0  0  0  0  0  0
    0.1433    0.5701    2.3956 H   0  0  0  0  0  0  0  0  0  0  0  0
  1  2  3  0
  2  3  1  0
  3  4  1  0
  3  5  1  0
  3  6  1  0
  6  7  1  0
  7  8  1  0
  7  9  1  0
  1 10  1  0
  4 11  1  0
  4 12  1  0
  4 13  1  0
  5 14  1  0
  6 15  1  0
  6 16  1  0
  7 17  1  0
  8 18  1  0
  8 19  1  0
  8 20  1  0
  9 21  1  0
M  END
