
     RDKit          3D

 15 15  0  0  0  0  0  0  0  0999 V2000
    2.7563    0.0725    0.7847 C   0  0  0  0  0  0  0  0  0  0  0  0
    1.8387   -0.1239    0.0254 C   0  0  0  0  0  0  0  0  0  0  0  0
    0.7305   -0.3816   -0.8922 C   0  0  0  0  0  0  0  0  0  0  0  0
   -0.6070   -0.1076   -0.2508 C   0  0  0  0  0  0  0  0  0  0  0  0
   -0.8240    1.3111    0.2309 C   0  0  0  0  0  0  0  0  0  0  0  0
   -1.4128   -1.1524    0.3535 C   0  0  0  0  0  0  0  0  0  0  0  0
   -1.7274   -0.6114   -1.0001 O   0  0  0  0  0  0  0  0  0  0  0  0
    3.5622    0.2344    1.4679 H   0  0  0  0  0  0  0  0  0  0  0  0
    0.8031   -1.4203   -1.2665 H   0  0  0  0  0  0  0  0  0  0  0  0
    0.8710    0.2908   -1.7712 H   0  0  0  0  0  0  0  0  0  0  0  0
   -0.3462    2.0017   -0.5126 H   0  0  0  0  0  0  0  0  0  0  0  0
   -0.2979    1.4456    1.2192 H   0  0  0  0  0  0  0  0  0  0  0  0
   -1.8893    1.5044    0.3550 H   0  0  0  0  0  0  0  0  0  0  0  0
   -1.2249   -2.2219    0.2305 H   0  0  0  0  0  0  0  0  0  0  0  0
   -2.2323   -0.8415    1.0263 H   0  0  0  0  0  0  0  0  0  0  0  0
  1  2  3  0
  2  3  1  0
  3  4  1  0
  4  5  1  0
  4  6  1  0
  6  7  1  0
  7  4  1  0
  1  8  1  0
  3  9  1  0
  3 10  1  0
  5 11  1  0
  5 12  1  0
  5 13  1  0
  6 14  1  0
  6 15  1  0
M  END
