
     RDKit          3D

 19 20  0  0  0  0  0  0  0  0999 V2000
    1.9937    1.8187   -0.6601 C   0  0  0  0  0  0  0  0  0  0  0  0
    1.0134    0.7217   -0.8197 C   0  0  0  0  0  0  0  0  0  0  0  0
    0.1264   -0.2370   -0.9657 C   0  0  0  0  0  0  0  0  0  0  0  0
   -1.2622    0.3480   -0.9102 C   0  0  0  0  0  0  0  0  0  0  0  0
   -1.4371    0.7429    0.5478 C   0  0  0  0  0  0  0  0  0  0  0  0
   -0.6498    0.4440    1.5612 C   0  0  0  0  0  0  0  0  0  0  0  0
    0.5821   -0.4041    1.2989 C   0  0  0  0  0  0  0  0  0  0  0  0
    0.0546   -1.2974    0.2235 C   0  0  0  0  0  0  0  0  0  0  0  0
    0.5718   -1.6217   -1.0362 C   0  0  0  0  0  0  0  0  0  0  0  0
    2.7036    2.5869   -0.5406 H   0  0  0  0  0  0  0  0  0  0  0  0
   -2.1202   -0.0973   -1.3116 H   0  0  0  0  0  0  0  0  0  0  0  0
   -1.2218    1.4408   -1.3911 H   0  0  0  0  0  0  0  0  0  0  0  0
   -2.3585    1.3628    0.7115 H   0  0  0  0  0  0  0  0  0  0  0  0
   -0.8901    0.7870    2.4947 H   0  0  0  0  0  0  0  0  0  0  0  0
    1.4072    0.2679    1.0451 H   0  0  0  0  0  0  0  0  0  0  0  0
    0.7988   -1.0797    2.1751 H   0  0  0  0  0  0  0  0  0  0  0  0
   -0.9951   -1.6871    0.4855 H   0  0  0  0  0  0  0  0  0  0  0  0
    0.0136   -2.3019   -1.7604 H   0  0  0  0  0  0  0  0  0  0  0  0
    1.6697   -1.7945   -1.1478 H   0  0  0  0  0  0  0  0  0  0  0  0
  1  2  3  0
  2  3  1  0
  3  4  1  0
  4  5  1  0
  5  6  2  0
  6  7  1  0
  7  8  1  0
  8  9  1  0
  8  3  1  0
  9  3  1  0
  1 10  1  0
  4 11  1  0
  4 12  1  0
  5 13  1  0
  6 14  1  0
  7 15  1  0
  7 16  1  0
  8 17  1  0
  9 18  1  0
  9 19  1  0
M  END
