
     RDKit          3D

 17 17  0  0  0  0  0  0  0  0999 V2000
    2.4522    1.5938    0.0650 C   0  0  0  0  0  0  0  0  0  0  0  0
    1.6740    0.6742    0.0239 C   0  0  0  0  0  0  0  0  0  0  0  0
    0.7296   -0.4668   -0.0467 C   0  0  0  0  0  0  0  0  0  0  0  0
    1.5026   -1.6100   -0.1839 O   0  0  0  0  0  0  0  0  0  0  0  0
   -0.0895   -0.5012    1.1904 C   0  0  0  0  0  0  0  0  0  0  0  0
   -1.3538   -0.1037    1.1574 C   0  0  0  0  0  0  0  0  0  0  0  0
   -2.0343    0.3893   -0.0643 C   0  0  0  0  0  0  0  0  0  0  0  0
   -1.1351    0.6674   -1.0467 O   0  0  0  0  0  0  0  0  0  0  0  0
   -0.1762   -0.3196   -1.2281 C   0  0  0  0  0  0  0  0  0  0  0  0
    3.1446    2.3977    0.0853 H   0  0  0  0  0  0  0  0  0  0  0  0
    2.4118   -1.3928   -0.5026 H   0  0  0  0  0  0  0  0  0  0  0  0
    0.3438   -0.8566    2.1467 H   0  0  0  0  0  0  0  0  0  0  0  0
   -1.9037   -0.1584    2.1248 H   0  0  0  0  0  0  0  0  0  0  0  0
   -2.8166   -0.3461   -0.3373 H   0  0  0  0  0  0  0  0  0  0  0  0
   -2.5632    1.3289    0.2136 H   0  0  0  0  0  0  0  0  0  0  0  0
    0.4517   -0.0129   -2.0954 H   0  0  0  0  0  0  0  0  0  0  0  0
   -0.6381   -1.2831   -1.5020 H   0  0  0  0  0  0  0  0  0  0  0  0
  1  2  3  0
  2  3  1  0
  3  4  1  0
  3  5  1  0
  5  6  2  0
  6  7  1  0
  7  8  1  0
  8  9  1  0
  9  3  1  0
  1 10  1  0
  4 11  1  0
  5 12  1  0
  6 13  1  0
  7 14  1  0
  7 15  1  0
  9 16  1  0
  9 17  1  0
M  END
