
     RDKit          3D

 16 16  0  0  0  0  0  0  0  0999 V2000
   -3.2406   -0.5964   -1.0237 C   0  0  0  0  0  0  0  0  0  0  0  0
   -2.2482   -0.2494   -0.4308 C   0  0  0  0  0  0  0  0  0  0  0  0
   -1.0538    0.1807    0.2994 C   0  0  0  0  0  0  0  0  0  0  0  0
   -1.1283   -0.2270    1.6498 O   0  0  0  0  0  0  0  0  0  0  0  0
    0.1633   -0.4560   -0.2862 C   0  0  0  0  0  0  0  0  0  0  0  0
    0.5207   -0.2566   -1.5955 O   0  0  0  0  0  0  0  0  0  0  0  0
    1.2278    0.5432   -0.7454 C   0  0  0  0  0  0  0  0  0  0  0  0
    2.6027    0.1889   -0.2767 C   0  0  0  0  0  0  0  0  0  0  0  0
   -4.1139   -0.9153   -1.5464 H   0  0  0  0  0  0  0  0  0  0  0  0
   -0.9999    1.3033    0.2904 H   0  0  0  0  0  0  0  0  0  0  0  0
   -2.0270   -0.0516    1.9874 H   0  0  0  0  0  0  0  0  0  0  0  0
    0.4861   -1.4156    0.1412 H   0  0  0  0  0  0  0  0  0  0  0  0
    0.9658    1.6044   -0.7601 H   0  0  0  0  0  0  0  0  0  0  0  0
    3.3444    0.9634   -0.5652 H   0  0  0  0  0  0  0  0  0  0  0  0
    2.9198   -0.8297   -0.5435 H   0  0  0  0  0  0  0  0  0  0  0  0
    2.5811    0.2136    0.8495 H   0  0  0  0  0  0  0  0  0  0  0  0
  1  2  3  0
  2  3  1  0
  3  4  1  0
  3  5  1  0
  5  6  1  0
  6  7  1  0
  7  8  1  0
  7  5  1  0
  1  9  1  0
  3 10  1  0
  4 11  1  0
  5 12  1  0
  7 13  1  0
  8 14  1  0
  8 15  1  0
  8 16  1  0
M  END
