
     RDKit          3D

 17 17  0  0  0  0  0  0  0  0999 V2000
    2.9585   -0.4941   -1.6191 C   0  0  0  0  0  0  0  0  0  0  0  0
    2.0785   -0.9042   -0.7099 C   0  0  0  0  0  0  0  0  0  0  0  0
    1.1127   -1.3313    0.2644 C   0  0  0  0  0  0  0  0  0  0  0  0
    0.5568   -1.8684    0.9065 O   0  0  0  0  0  0  0  0  0  0  0  0
    0.3974    0.3257    0.4821 C   0  0  0  0  0  0  0  0  0  0  0  0
   -0.6766    0.1774    1.4598 C   0  0  0  0  0  0  0  0  0  0  0  0
   -1.6163    0.9068    0.4610 C   0  0  0  0  0  0  0  0  0  0  0  0
   -0.6065    0.4887   -0.6060 C   0  0  0  0  0  0  0  0  0  0  0  0
   -1.0278   -0.7245   -1.1874 O   0  0  0  0  0  0  0  0  0  0  0  0
    3.7354   -0.1500   -2.4019 H   0  0  0  0  0  0  0  0  0  0  0  0
    1.1240    1.0600    0.5431 H   0  0  0  0  0  0  0  0  0  0  0  0
   -1.0152   -0.8905    1.5987 H   0  0  0  0  0  0  0  0  0  0  0  0
   -0.5908    0.7319    2.4248 H   0  0  0  0  0  0  0  0  0  0  0  0
   -2.5514    0.3719    0.3191 H   0  0  0  0  0  0  0  0  0  0  0  0
   -1.6114    1.9654    0.7085 H   0  0  0  0  0  0  0  0  0  0  0  0
   -0.3950    1.3045   -1.3365 H   0  0  0  0  0  0  0  0  0  0  0  0
   -1.8723   -0.9693   -0.7558 H   0  0  0  0  0  0  0  0  0  0  0  0
  1  2  3  0
  2  3  1  0
  3  4  2  0
  3  5  1  0
  5  6  1  0
  6  7  1  0
  7  8  1  0
  8  9  1  0
  8  5  1  0
  1 10  1  0
  5 11  1  0
  6 12  1  0
  6 13  1  0
  7 14  1  0
  7 15  1  0
  8 16  1  0
  9 17  1  0
M  END
