
     RDKit          3D

 19 19  0  0  0  0  0  0  0  0999 V2000
    3.2629   -0.7305   -0.0132 C   0  0  0  0  0  0  0  0  0  0  0  0
    2.1964   -0.1962   -0.2058 C   0  0  0  0  0  0  0  0  0  0  0  0
    0.9068    0.4377   -0.4147 C   0  0  0  0  0  0  0  0  0  0  0  0
    0.7296    1.5789    0.3609 O   0  0  0  0  0  0  0  0  0  0  0  0
   -0.6138    1.8540    0.2958 C   0  0  0  0  0  0  0  0  0  0  0  0
   -1.3591    0.5622    0.1438 C   0  0  0  0  0  0  0  0  0  0  0  0
   -2.1672    0.2784    1.2313 O   0  0  0  0  0  0  0  0  0  0  0  0
   -0.2030   -0.4466    0.0809 C   0  0  0  0  0  0  0  0  0  0  0  0
   -0.5458   -1.5628   -0.8619 C   0  0  0  0  0  0  0  0  0  0  0  0
    4.1978   -1.2053    0.1411 H   0  0  0  0  0  0  0  0  0  0  0  0
    0.7172    0.6547   -1.4901 H   0  0  0  0  0  0  0  0  0  0  0  0
   -0.7735    2.4697   -0.6369 H   0  0  0  0  0  0  0  0  0  0  0  0
   -0.9766    2.4480    1.1547 H   0  0  0  0  0  0  0  0  0  0  0  0
   -1.9039    0.4736   -0.8142 H   0  0  0  0  0  0  0  0  0  0  0  0
   -1.5814   -0.1396    1.9247 H   0  0  0  0  0  0  0  0  0  0  0  0
    0.0072   -0.7986    1.1147 H   0  0  0  0  0  0  0  0  0  0  0  0
   -0.9744   -2.4152   -0.2576 H   0  0  0  0  0  0  0  0  0  0  0  0
   -1.3088   -1.3121   -1.6055 H   0  0  0  0  0  0  0  0  0  0  0  0
    0.3894   -1.9502   -1.2876 H   0  0  0  0  0  0  0  0  0  0  0  0
  1  2  3  0
  2  3  1  0
  3  4  1  0
  4  5  1  0
  5  6  1  0
  6  7  1  0
  6  8  1  0
  8  9  1  0
  8  3  1  0
  1 10  1  0
  3 11  1  0
  5 12  1  0
  5 13  1  0
  6 14  1  0
  7 15  1  0
  8 16  1  0
  9 17  1  0
  9 18  1  0
  9 19  1  0
M  END
