
     RDKit          3D

 21 21  0  0  0  0  0  0  0  0999 V2000
    1.1557   -2.3145    2.2456 C   0  0  0  0  0  0  0  0  0  0  0  0
    1.0889   -1.2137    1.7875 C   0  0  0  0  0  0  0  0  0  0  0  0
    1.0189    0.1461    1.2380 C   0  0  0  0  0  0  0  0  0  0  0  0
    0.5625    1.0924    2.1771 O   0  0  0  0  0  0  0  0  0  0  0  0
   -0.3603    1.6073    1.2524 C   0  0  0  0  0  0  0  0  0  0  0  0
   -0.2914    0.3131    0.4921 C   0  0  0  0  0  0  0  0  0  0  0  0
   -0.1371    0.4171   -0.9876 C   0  0  0  0  0  0  0  0  0  0  0  0
    0.5317   -0.8758   -1.4625 C   0  0  0  0  0  0  0  0  0  0  0  0
   -1.4647    0.5327   -1.6689 C   0  0  0  0  0  0  0  0  0  0  0  0
    1.1989   -3.3234    2.6586 H   0  0  0  0  0  0  0  0  0  0  0  0
    1.9061    0.4356    0.6660 H   0  0  0  0  0  0  0  0  0  0  0  0
   -1.3290    1.7731    1.7140 H   0  0  0  0  0  0  0  0  0  0  0  0
    0.0515    2.4917    0.7727 H   0  0  0  0  0  0  0  0  0  0  0  0
   -1.1005   -0.3852    0.7724 H   0  0  0  0  0  0  0  0  0  0  0  0
    0.4859    1.2626   -1.2944 H   0  0  0  0  0  0  0  0  0  0  0  0
    1.5768   -0.9091   -1.0879 H   0  0  0  0  0  0  0  0  0  0  0  0
   -0.0532   -1.7686   -1.1675 H   0  0  0  0  0  0  0  0  0  0  0  0
    0.5932   -0.8651   -2.5909 H   0  0  0  0  0  0  0  0  0  0  0  0
   -2.1921   -0.1663   -1.1768 H   0  0  0  0  0  0  0  0  0  0  0  0
   -1.3807    0.1866   -2.7295 H   0  0  0  0  0  0  0  0  0  0  0  0
   -1.8610    1.5633   -1.6104 H   0  0  0  0  0  0  0  0  0  0  0  0
  1  2  3  0
  2  3  1  0
  3  4  1  0
  4  5  1  0
  5  6  1  0
  6  7  1  0
  7  8  1  0
  7  9  1  0
  6  3  1  0
  1 10  1  0
  3 11  1  0
  5 12  1  0
  5 13  1  0
  6 14  1  0
  7 15  1  0
  8 16  1  0
  8 17  1  0
  8 18  1  0
  9 19  1  0
  9 20  1  0
  9 21  1  0
M  END
