
     RDKit          3D

 15 15  0  0  0  0  0  0  0  0999 V2000
    3.2154    2.5797   -0.6483 C   0  0  0  0  0  0  0  0  0  0  0  0
    2.3335    1.9424   -0.0906 C   0  0  0  0  0  0  0  0  0  0  0  0
    1.2807    1.1976    0.5463 C   0  0  0  0  0  0  0  0  0  0  0  0
    1.1284    1.2350    1.8067 O   0  0  0  0  0  0  0  0  0  0  0  0
    0.3833    0.4082   -0.1552 O   0  0  0  0  0  0  0  0  0  0  0  0
   -0.6373   -0.3069    0.5173 C   0  0  0  0  0  0  0  0  0  0  0  0
   -1.9840   -0.4427   -0.0964 C   0  0  0  0  0  0  0  0  0  0  0  0
   -1.0686   -1.6376    0.0431 C   0  0  0  0  0  0  0  0  0  0  0  0
   -0.6111   -2.1316   -1.1891 O   0  0  0  0  0  0  0  0  0  0  0  0
    3.9690    3.1388   -1.1447 H   0  0  0  0  0  0  0  0  0  0  0  0
   -0.6456   -0.1759    1.6240 H   0  0  0  0  0  0  0  0  0  0  0  0
   -2.8759   -0.4282    0.5576 H   0  0  0  0  0  0  0  0  0  0  0  0
   -2.0972    0.0496   -1.0842 H   0  0  0  0  0  0  0  0  0  0  0  0
   -1.3525   -2.4115    0.7985 H   0  0  0  0  0  0  0  0  0  0  0  0
   -1.0380   -3.0169   -1.3045 H   0  0  0  0  0  0  0  0  0  0  0  0
  1  2  3  0
  2  3  1  0
  3  4  2  0
  3  5  1  0
  5  6  1  0
  6  7  1  0
  7  8  1  0
  8  9  1  0
  8  6  1  0
  1 10  1  0
  6 11  1  0
  7 12  1  0
  7 13  1  0
  8 14  1  0
  9 15  1  0
M  END
