
     RDKit          3D

 17 17  0  0  0  0  0  0  0  0999 V2000
    0.9612   -0.4297    2.6172 C   0  0  0  0  0  0  0  0  0  0  0  0
    0.5480   -0.0334    1.5377 C   0  0  0  0  0  0  0  0  0  0  0  0
    0.0468    0.4181    0.2351 C   0  0  0  0  0  0  0  0  0  0  0  0
   -0.6521    1.7417    0.2542 C   0  0  0  0  0  0  0  0  0  0  0  0
    0.8549   -0.0031   -0.9383 C   0  0  0  0  0  0  0  0  0  0  0  0
    1.0530    0.8598   -2.0060 O   0  0  0  0  0  0  0  0  0  0  0  0
   -0.5157   -0.5894   -0.6990 C   0  0  0  0  0  0  0  0  0  0  0  0
   -0.6038   -2.0154   -0.2760 C   0  0  0  0  0  0  0  0  0  0  0  0
   -1.4071   -2.7945   -0.7058 O   0  0  0  0  0  0  0  0  0  0  0  0
    1.3357   -0.7787    3.5461 H   0  0  0  0  0  0  0  0  0  0  0  0
   -1.1119    1.8694    1.2654 H   0  0  0  0  0  0  0  0  0  0  0  0
    0.0344    2.6017    0.1218 H   0  0  0  0  0  0  0  0  0  0  0  0
   -1.4931    1.7725   -0.4623 H   0  0  0  0  0  0  0  0  0  0  0  0
    1.6983   -0.6996   -0.7742 H   0  0  0  0  0  0  0  0  0  0  0  0
    0.3874    0.7043   -2.7333 H   0  0  0  0  0  0  0  0  0  0  0  0
   -1.2632   -0.2911   -1.4574 H   0  0  0  0  0  0  0  0  0  0  0  0
    0.1272   -2.3327    0.4750 H   0  0  0  0  0  0  0  0  0  0  0  0
  1  2  3  0
  2  3  1  0
  3  4  1  0
  3  5  1  0
  5  6  1  0
  5  7  1  0
  7  8  1  0
  8  9  2  0
  7  3  1  0
  1 10  1  0
  4 11  1  0
  4 12  1  0
  4 13  1  0
  5 14  1  0
  6 15  1  0
  7 16  1  0
  8 17  1  0
M  END
