
     RDKit          3D

 19 20  0  0  0  0  0  0  0  0999 V2000
   -0.4109    3.1663    0.2366 C   0  0  0  0  0  0  0  0  0  0  0  0
    0.0164    2.0700    0.3475 C   0  0  0  0  0  0  0  0  0  0  0  0
    0.5777    0.6922    0.4767 C   0  0  0  0  0  0  0  0  0  0  0  0
    1.0584    0.2088   -0.8951 C   0  0  0  0  0  0  0  0  0  0  0  0
    1.6467   -1.1661   -0.7970 C   0  0  0  0  0  0  0  0  0  0  0  0
   -0.3127    0.0808   -1.2865 O   0  0  0  0  0  0  0  0  0  0  0  0
   -0.5280   -0.2414    0.0474 C   0  0  0  0  0  0  0  0  0  0  0  0
   -1.8548   -0.2714    0.6468 C   0  0  0  0  0  0  0  0  0  0  0  0
   -0.9306   -1.4990    0.5895 C   0  0  0  0  0  0  0  0  0  0  0  0
   -0.8381    4.2377    0.1102 H   0  0  0  0  0  0  0  0  0  0  0  0
    1.1586    0.4913    1.3372 H   0  0  0  0  0  0  0  0  0  0  0  0
    1.5555    0.9668   -1.4884 H   0  0  0  0  0  0  0  0  0  0  0  0
    2.4990   -1.2386   -1.4938 H   0  0  0  0  0  0  0  0  0  0  0  0
    0.8694   -1.9741   -0.9993 H   0  0  0  0  0  0  0  0  0  0  0  0
    2.0182   -1.3316    0.2605 H   0  0  0  0  0  0  0  0  0  0  0  0
   -1.9963    0.2561    1.6025 H   0  0  0  0  0  0  0  0  0  0  0  0
   -2.6965   -0.2291   -0.1243 H   0  0  0  0  0  0  0  0  0  0  0  0
   -1.3388   -2.3097   -0.0776 H   0  0  0  0  0  0  0  0  0  0  0  0
   -0.4931   -1.9091    1.5069 H   0  0  0  0  0  0  0  0  0  0  0  0
  1  2  3  0
  2  3  1  0
  3  4  1  0
  4  5  1  0
  4  6  1  0
  6  7  1  0
  7  8  1  0
  8  9  1  0
  7  3  1  0
  9  7  1  0
  1 10  1  0
  3 11  1  0
  4 12  1  0
  5 13  1  0
  5 14  1  0
  5 15  1  0
  8 16  1  0
  8 17  1  0
  9 18  1  0
  9 19  1  0
M  END
