
     RDKit          3D

 21 21  0  0  0  0  0  0  0  0999 V2000
    2.6670   -2.3286   -0.3017 C   0  0  0  0  0  0  0  0  0  0  0  0
    1.8253   -1.4832   -0.1283 C   0  0  0  0  0  0  0  0  0  0  0  0
    0.7954   -0.4296    0.0636 C   0  0  0  0  0  0  0  0  0  0  0  0
    1.3046    0.9415   -0.2473 C   0  0  0  0  0  0  0  0  0  0  0  0
    1.7438    1.0784   -1.5696 O   0  0  0  0  0  0  0  0  0  0  0  0
    0.0188   -0.5164    1.3617 C   0  0  0  0  0  0  0  0  0  0  0  0
   -0.6098   -0.8341    0.0732 C   0  0  0  0  0  0  0  0  0  0  0  0
   -1.7210   -0.0678   -0.5505 C   0  0  0  0  0  0  0  0  0  0  0  0
   -1.9623    1.3099   -0.0631 C   0  0  0  0  0  0  0  0  0  0  0  0
    3.3874   -3.0700   -0.4602 H   0  0  0  0  0  0  0  0  0  0  0  0
    2.2458    1.1025    0.3644 H   0  0  0  0  0  0  0  0  0  0  0  0
    0.6432    1.7666    0.0831 H   0  0  0  0  0  0  0  0  0  0  0  0
    0.9147    1.1356   -2.1197 H   0  0  0  0  0  0  0  0  0  0  0  0
   -0.1910    0.4190    1.9187 H   0  0  0  0  0  0  0  0  0  0  0  0
    0.3048   -1.3360    2.0825 H   0  0  0  0  0  0  0  0  0  0  0  0
   -0.7627   -1.9540   -0.0711 H   0  0  0  0  0  0  0  0  0  0  0  0
   -2.6793   -0.6489   -0.3988 H   0  0  0  0  0  0  0  0  0  0  0  0
   -1.5905   -0.1028   -1.6741 H   0  0  0  0  0  0  0  0  0  0  0  0
   -1.5706    2.1076   -0.7295 H   0  0  0  0  0  0  0  0  0  0  0  0
   -1.6849    1.4154    0.9812 H   0  0  0  0  0  0  0  0  0  0  0  0
   -3.0788    1.4950   -0.0914 H   0  0  0  0  0  0  0  0  0  0  0  0
  1  2  3  0
  2  3  1  0
  3  4  1  0
  4  5  1  0
  3  6  1  0
  6  7  1  0
  7  8  1  0
  8  9  1  0
  7  3  1  0
  1 10  1  0
  4 11  1  0
  4 12  1  0
  5 13  1  0
  6 14  1  0
  6 15  1  0
  7 16  1  0
  8 17  1  0
  8 18  1  0
  9 19  1  0
  9 20  1  0
  9 21  1  0
M  END
