
     RDKit          3D

 19 19  0  0  0  0  0  0  0  0999 V2000
    2.8915    1.8897   -0.9373 C   0  0  0  0  0  0  0  0  0  0  0  0
    2.1326    1.1823   -0.3209 C   0  0  0  0  0  0  0  0  0  0  0  0
    1.2005    0.2986    0.4152 C   0  0  0  0  0  0  0  0  0  0  0  0
   -0.2105    0.8821    0.3526 C   0  0  0  0  0  0  0  0  0  0  0  0
   -1.1157   -0.3106    0.3537 C   0  0  0  0  0  0  0  0  0  0  0  0
   -2.1481   -0.2518   -0.7592 C   0  0  0  0  0  0  0  0  0  0  0  0
   -0.2708   -1.5298    0.0964 C   0  0  0  0  0  0  0  0  0  0  0  0
    1.0424   -0.9631   -0.3076 C   0  0  0  0  0  0  0  0  0  0  0  0
    1.8087   -1.4849   -1.0943 O   0  0  0  0  0  0  0  0  0  0  0  0
    3.5528    2.5085   -1.4952 H   0  0  0  0  0  0  0  0  0  0  0  0
    1.5382    0.1930    1.4601 H   0  0  0  0  0  0  0  0  0  0  0  0
   -0.3726    1.4185   -0.6136 H   0  0  0  0  0  0  0  0  0  0  0  0
   -0.3961    1.5605    1.2288 H   0  0  0  0  0  0  0  0  0  0  0  0
   -1.5886   -0.4258    1.3528 H   0  0  0  0  0  0  0  0  0  0  0  0
   -1.9736    0.6162   -1.4317 H   0  0  0  0  0  0  0  0  0  0  0  0
   -3.1285   -0.1033   -0.2631 H   0  0  0  0  0  0  0  0  0  0  0  0
   -2.1806   -1.1851   -1.3492 H   0  0  0  0  0  0  0  0  0  0  0  0
   -0.0883   -2.1110    1.0311 H   0  0  0  0  0  0  0  0  0  0  0  0
   -0.6936   -2.1843   -0.7108 H   0  0  0  0  0  0  0  0  0  0  0  0
  1  2  3  0
  2  3  1  0
  3  4  1  0
  4  5  1  0
  5  6  1  0
  5  7  1  0
  7  8  1  0
  8  9  2  0
  8  3  1  0
  1 10  1  0
  3 11  1  0
  4 12  1  0
  4 13  1  0
  5 14  1  0
  6 15  1  0
  6 16  1  0
  6 17  1  0
  7 18  1  0
  7 19  1  0
M  END
