
     RDKit          3D

 19 19  0  0  0  0  0  0  0  0999 V2000
    2.9397   -2.0189    0.3633 C   0  0  0  0  0  0  0  0  0  0  0  0
    1.8788   -1.4650    0.4693 C   0  0  0  0  0  0  0  0  0  0  0  0
    0.5927   -0.7837    0.5767 C   0  0  0  0  0  0  0  0  0  0  0  0
    0.5115    0.5925    1.1588 C   0  0  0  0  0  0  0  0  0  0  0  0
   -0.5868    0.9533    1.9264 O   0  0  0  0  0  0  0  0  0  0  0  0
    0.4696    0.4923   -0.2948 C   0  0  0  0  0  0  0  0  0  0  0  0
   -0.7763    0.5342   -1.1075 C   0  0  0  0  0  0  0  0  0  0  0  0
   -2.0397    0.4988   -0.3155 C   0  0  0  0  0  0  0  0  0  0  0  0
   -0.7881   -0.5796   -1.9706 O   0  0  0  0  0  0  0  0  0  0  0  0
    3.8947   -2.5127    0.2864 H   0  0  0  0  0  0  0  0  0  0  0  0
   -0.2983   -1.3979    0.7098 H   0  0  0  0  0  0  0  0  0  0  0  0
    1.4774    0.9395    1.6136 H   0  0  0  0  0  0  0  0  0  0  0  0
   -0.7918    1.9075    1.8164 H   0  0  0  0  0  0  0  0  0  0  0  0
    1.3914    0.7836   -0.8665 H   0  0  0  0  0  0  0  0  0  0  0  0
   -0.7849    1.4714   -1.7142 H   0  0  0  0  0  0  0  0  0  0  0  0
   -2.3727    1.5016    0.0217 H   0  0  0  0  0  0  0  0  0  0  0  0
   -2.0304   -0.2458    0.5099 H   0  0  0  0  0  0  0  0  0  0  0  0
   -2.8565    0.1442   -1.0096 H   0  0  0  0  0  0  0  0  0  0  0  0
    0.1697   -0.8153   -2.1733 H   0  0  0  0  0  0  0  0  0  0  0  0
  1  2  3  0
  2  3  1  0
  3  4  1  0
  4  5  1  0
  4  6  1  0
  6  7  1  0
  7  8  1  0
  7  9  1  0
  6  3  1  0
  1 10  1  0
  3 11  1  0
  4 12  1  0
  5 13  1  0
  6 14  1  0
  7 15  1  0
  8 16  1  0
  8 17  1  0
  8 18  1  0
  9 19  1  0
M  END
