
     RDKit          3D

 23 23  0  0  0  0  0  0  0  0999 V2000
    0.5906   -3.3274    1.0652 C   0  0  0  0  0  0  0  0  0  0  0  0
    0.5495   -2.3123    0.4143 C   0  0  0  0  0  0  0  0  0  0  0  0
    0.5252   -1.0807   -0.3780 C   0  0  0  0  0  0  0  0  0  0  0  0
    0.2665    0.1145    0.4997 C   0  0  0  0  0  0  0  0  0  0  0  0
   -1.0690   -0.0376    1.1959 C   0  0  0  0  0  0  0  0  0  0  0  0
   -2.2174   -0.1507    0.2403 C   0  0  0  0  0  0  0  0  0  0  0  0
    0.4236    1.4238   -0.1657 C   0  0  0  0  0  0  0  0  0  0  0  0
    1.8212    1.6797   -0.7281 C   0  0  0  0  0  0  0  0  0  0  0  0
    0.6191    1.6132   -1.6094 C   0  0  0  0  0  0  0  0  0  0  0  0
    0.6183   -4.1973    1.6358 H   0  0  0  0  0  0  0  0  0  0  0  0
    1.4341   -1.0095   -0.9695 H   0  0  0  0  0  0  0  0  0  0  0  0
   -0.3728   -1.1740   -1.0513 H   0  0  0  0  0  0  0  0  0  0  0  0
    1.0395    0.0657    1.3236 H   0  0  0  0  0  0  0  0  0  0  0  0
   -1.0118   -0.9639    1.7967 H   0  0  0  0  0  0  0  0  0  0  0  0
   -1.1788    0.8602    1.8705 H   0  0  0  0  0  0  0  0  0  0  0  0
   -2.3503   -1.2118   -0.0697 H   0  0  0  0  0  0  0  0  0  0  0  0
   -3.1405    0.1290    0.8032 H   0  0  0  0  0  0  0  0  0  0  0  0
   -2.1088    0.4857   -0.6480 H   0  0  0  0  0  0  0  0  0  0  0  0
   -0.0478    2.2766    0.4043 H   0  0  0  0  0  0  0  0  0  0  0  0
    2.5086    0.8175   -0.8161 H   0  0  0  0  0  0  0  0  0  0  0  0
    2.2829    2.6250   -0.4419 H   0  0  0  0  0  0  0  0  0  0  0  0
    0.3101    2.5906   -2.0341 H   0  0  0  0  0  0  0  0  0  0  0  0
    0.5082    0.7841   -2.3379 H   0  0  0  0  0  0  0  0  0  0  0  0
  1  2  3  0
  2  3  1  0
  3  4  1  0
  4  5  1  0
  5  6  1  0
  4  7  1  0
  7  8  1  0
  8  9  1  0
  9  7  1  0
  1 10  1  0
  3 11  1  0
  3 12  1  0
  4 13  1  0
  5 14  1  0
  5 15  1  0
  6 16  1  0
  6 17  1  0
  6 18  1  0
  7 19  1  0
  8 20  1  0
  8 21  1  0
  9 22  1  0
  9 23  1  0
M  END
