
     RDKit          3D

 15 16  0  0  0  0  0  0  0  0999 V2000
    4.5903    0.9242    1.0652 C   0  0  0  0  0  0  0  0  0  0  0  0
    3.6007    0.8427    0.8215 C   0  0  0  0  0  0  0  0  0  0  0  0
    1.9090    0.7314    0.3972 C   0  0  0  0  0  0  0  0  0  0  0  0
    1.0480    0.6632    0.1801 C   0  0  0  0  0  0  0  0  0  0  0  0
   -0.4517    0.5317   -0.2230 C   0  0  0  0  0  0  0  0  0  0  0  0
   -1.2573   -0.4797    0.3394 C   0  0  0  0  0  0  0  0  0  0  0  0
   -2.5320   -1.0052   -0.3474 C   0  0  0  0  0  0  0  0  0  0  0  0
   -1.5728   -1.6604   -1.0744 O   0  0  0  0  0  0  0  0  0  0  0  0
   -0.9850   -0.3245   -1.1537 C   0  0  0  0  0  0  0  0  0  0  0  0
    5.4982    0.9870    1.2830 H   0  0  0  0  0  0  0  0  0  0  0  0
   -0.8398    1.5957    0.0273 H   0  0  0  0  0  0  0  0  0  0  0  0
   -0.8625   -1.2189    0.9801 H   0  0  0  0  0  0  0  0  0  0  0  0
   -3.1147   -0.2719   -0.9657 H   0  0  0  0  0  0  0  0  0  0  0  0
   -3.2228   -1.4909    0.4049 H   0  0  0  0  0  0  0  0  0  0  0  0
   -1.8076    0.1757   -1.8206 H   0  0  0  0  0  0  0  0  0  0  0  0
  1  2  3  0
  2  3  1  0
  3  4  3  0
  4  5  1  0
  5  6  1  0
  6  7  1  0
  7  8  1  0
  8  9  1  0
  9  5  1  0
  9  6  1  0
  1 10  1  0
  5 11  1  0
  6 12  1  0
  7 13  1  0
  7 14  1  0
  9 15  1  0
M  END
