
     RDKit          3D

 21 21  0  0  0  0  0  0  0  0999 V2000
    3.7939   -0.5887   -1.6117 C   0  0  0  0  0  0  0  0  0  0  0  0
    2.8408   -0.4917   -0.8478 C   0  0  0  0  0  0  0  0  0  0  0  0
    1.6914   -0.3971    0.0557 C   0  0  0  0  0  0  0  0  0  0  0  0
    0.8834   -1.6377   -0.0544 O   0  0  0  0  0  0  0  0  0  0  0  0
    0.3687   -0.3093   -0.4792 C   0  0  0  0  0  0  0  0  0  0  0  0
   -0.7922    0.1302    0.3682 C   0  0  0  0  0  0  0  0  0  0  0  0
   -2.0969    0.1508   -0.3996 C   0  0  0  0  0  0  0  0  0  0  0  0
   -0.5778    1.5503    0.9049 C   0  0  0  0  0  0  0  0  0  0  0  0
   -0.9622   -0.7525    1.6064 C   0  0  0  0  0  0  0  0  0  0  0  0
    4.6248   -0.6576   -2.2640 H   0  0  0  0  0  0  0  0  0  0  0  0
    1.8685   -0.0990    1.1084 H   0  0  0  0  0  0  0  0  0  0  0  0
    0.2422   -0.2750   -1.5965 H   0  0  0  0  0  0  0  0  0  0  0  0
   -2.9366    0.2103    0.3060 H   0  0  0  0  0  0  0  0  0  0  0  0
   -2.2041   -0.7111   -1.0588 H   0  0  0  0  0  0  0  0  0  0  0  0
   -2.0896    1.1140   -0.9817 H   0  0  0  0  0  0  0  0  0  0  0  0
   -0.8381    2.3016    0.1249 H   0  0  0  0  0  0  0  0  0  0  0  0
    0.4464    1.6754    1.2907 H   0  0  0  0  0  0  0  0  0  0  0  0
   -1.2678    1.6424    1.7692 H   0  0  0  0  0  0  0  0  0  0  0  0
   -1.2727   -1.7736    1.2725 H   0  0  0  0  0  0  0  0  0  0  0  0
   -0.0155   -0.8286    2.1566 H   0  0  0  0  0  0  0  0  0  0  0  0
   -1.7064   -0.2532    2.2368 H   0  0  0  0  0  0  0  0  0  0  0  0
  1  2  3  0
  2  3  1  0
  3  4  1  0
  4  5  1  0
  5  6  1  0
  6  7  1  0
  6  8  1  0
  6  9  1  0
  5  3  1  0
  1 10  1  0
  3 11  1  0
  5 12  1  0
  7 13  1  0
  7 14  1  0
  7 15  1  0
  8 16  1  0
  8 17  1  0
  8 18  1  0
  9 19  1  0
  9 20  1  0
  9 21  1  0
M  END
