
     RDKit          3D

 17 17  0  0  0  0  0  0  0  0999 V2000
    3.3220   -1.1997   -0.5392 C   0  0  0  0  0  0  0  0  0  0  0  0
    2.1889   -0.8106   -0.6188 C   0  0  0  0  0  0  0  0  0  0  0  0
    0.8155   -0.3152   -0.7081 C   0  0  0  0  0  0  0  0  0  0  0  0
   -0.1546   -0.7939    0.4064 C   0  0  0  0  0  0  0  0  0  0  0  0
   -1.4290   -1.2668   -0.1051 C   0  0  0  0  0  0  0  0  0  0  0  0
   -2.4770   -1.6682   -0.5167 C   0  0  0  0  0  0  0  0  0  0  0  0
    0.2667    0.5978    0.3239 C   0  0  0  0  0  0  0  0  0  0  0  0
   -0.6040    1.7080   -0.1635 C   0  0  0  0  0  0  0  0  0  0  0  0
   -1.7283    1.3021   -0.8353 O   0  0  0  0  0  0  0  0  0  0  0  0
    4.3368   -1.5499   -0.4866 H   0  0  0  0  0  0  0  0  0  0  0  0
    0.4222   -0.2552   -1.7266 H   0  0  0  0  0  0  0  0  0  0  0  0
    0.3314   -1.4483    1.1828 H   0  0  0  0  0  0  0  0  0  0  0  0
   -3.4260   -2.0380   -0.8714 H   0  0  0  0  0  0  0  0  0  0  0  0
    1.0309    0.9368    1.0822 H   0  0  0  0  0  0  0  0  0  0  0  0
    0.0107    2.3257   -0.8725 H   0  0  0  0  0  0  0  0  0  0  0  0
   -0.9039    2.4051    0.6564 H   0  0  0  0  0  0  0  0  0  0  0  0
   -2.0024    2.0703   -1.4296 H   0  0  0  0  0  0  0  0  0  0  0  0
  1  2  3  0
  2  3  1  0
  3  4  1  0
  4  5  1  0
  5  6  3  0
  4  7  1  0
  7  8  1  0
  8  9  1  0
  7  3  1  0
  1 10  1  0
  3 11  1  0
  4 12  1  0
  6 13  1  0
  7 14  1  0
  8 15  1  0
  8 16  1  0
  9 17  1  0
M  END
