
     RDKit          3D

 19 20  0  0  0  0  0  0  0  0999 V2000
    3.1997    0.2631   -0.1258 C   0  0  0  0  0  0  0  0  0  0  0  0
    1.8557   -0.3153   -0.0540 C   0  0  0  0  0  0  0  0  0  0  0  0
    0.7784   -0.8011    0.0078 C   0  0  0  0  0  0  0  0  0  0  0  0
    0.1473   -1.6051   -0.9321 O   0  0  0  0  0  0  0  0  0  0  0  0
   -1.1524   -1.2699   -0.7786 C   0  0  0  0  0  0  0  0  0  0  0  0
   -1.3397   -0.7067    0.6783 C   0  0  0  0  0  0  0  0  0  0  0  0
   -0.3283    0.2728    0.1840 C   0  0  0  0  0  0  0  0  0  0  0  0
    0.1436    1.5153    0.7709 C   0  0  0  0  0  0  0  0  0  0  0  0
   -1.0358    0.2682   -1.0935 C   0  0  0  0  0  0  0  0  0  0  0  0
    4.2316    0.6953   -0.1643 H   0  0  0  0  0  0  0  0  0  0  0  0
    0.6710   -1.5405    0.9950 H   0  0  0  0  0  0  0  0  0  0  0  0
   -1.9454   -1.7876   -1.2020 H   0  0  0  0  0  0  0  0  0  0  0  0
   -2.3772   -0.3292    0.7523 H   0  0  0  0  0  0  0  0  0  0  0  0
   -0.9515   -1.3651    1.4708 H   0  0  0  0  0  0  0  0  0  0  0  0
   -0.2541    2.4169    0.1895 H   0  0  0  0  0  0  0  0  0  0  0  0
   -0.2405    1.6244    1.8088 H   0  0  0  0  0  0  0  0  0  0  0  0
    1.2262    1.5902    0.6454 H   0  0  0  0  0  0  0  0  0  0  0  0
   -0.5076    0.4410   -2.0380 H   0  0  0  0  0  0  0  0  0  0  0  0
   -2.1209    0.6331   -1.1145 H   0  0  0  0  0  0  0  0  0  0  0  0
  1  2  3  0
  2  3  1  0
  3  4  1  0
  4  5  1  0
  5  6  1  0
  6  7  1  0
  7  8  1  0
  7  9  1  0
  7  3  1  0
  9  5  1  0
  1 10  1  0
  3 11  1  0
  5 12  1  0
  6 13  1  0
  6 14  1  0
  8 15  1  0
  8 16  1  0
  8 17  1  0
  9 18  1  0
  9 19  1  0
M  END
