
     RDKit          3D

 17 18  0  0  0  0  0  0  0  0999 V2000
    0.7825    2.0369    2.3069 C   0  0  0  0  0  0  0  0  0  0  0  0
    0.5824    1.3720    1.3804 C   0  0  0  0  0  0  0  0  0  0  0  0
    0.3203    0.4785    0.1823 C   0  0  0  0  0  0  0  0  0  0  0  0
    1.4241    0.9069   -0.7996 C   0  0  0  0  0  0  0  0  0  0  0  0
    0.5429   -0.8060    0.5156 O   0  0  0  0  0  0  0  0  0  0  0  0
   -0.2490   -1.5537   -0.3545 C   0  0  0  0  0  0  0  0  0  0  0  0
   -1.6285   -1.7251    0.0711 C   0  0  0  0  0  0  0  0  0  0  0  0
   -1.2984   -0.6088   -0.8517 C   0  0  0  0  0  0  0  0  0  0  0  0
   -0.9129    0.6539   -0.3794 O   0  0  0  0  0  0  0  0  0  0  0  0
    0.9604    2.6589    3.1824 H   0  0  0  0  0  0  0  0  0  0  0  0
    1.1318    1.9641   -1.0944 H   0  0  0  0  0  0  0  0  0  0  0  0
    1.4454    0.3186   -1.7258 H   0  0  0  0  0  0  0  0  0  0  0  0
    2.3847    0.8698   -0.2546 H   0  0  0  0  0  0  0  0  0  0  0  0
    0.2973   -2.0631   -1.1361 H   0  0  0  0  0  0  0  0  0  0  0  0
   -2.3823   -2.4165   -0.3260 H   0  0  0  0  0  0  0  0  0  0  0  0
   -1.8162   -1.4659    1.1776 H   0  0  0  0  0  0  0  0  0  0  0  0
   -1.5845   -0.6205   -1.8940 H   0  0  0  0  0  0  0  0  0  0  0  0
  1  2  3  0
  2  3  1  0
  3  4  1  0
  3  5  1  0
  5  6  1  0
  6  7  1  0
  7  8  1  0
  8  9  1  0
  9  3  1  0
  8  6  1  0
  1 10  1  0
  4 11  1  0
  4 12  1  0
  4 13  1  0
  6 14  1  0
  7 15  1  0
  7 16  1  0
  8 17  1  0
M  END
