
     RDKit          3D

 19 19  0  0  0  0  0  0  0  0999 V2000
    3.4463    0.8322   -0.5580 C   0  0  0  0  0  0  0  0  0  0  0  0
    2.5815    0.0228   -0.3324 C   0  0  0  0  0  0  0  0  0  0  0  0
    1.5007   -0.9561   -0.0649 C   0  0  0  0  0  0  0  0  0  0  0  0
    0.2077   -0.3891   -0.6238 C   0  0  0  0  0  0  0  0  0  0  0  0
   -1.0597   -1.1082   -0.5269 C   0  0  0  0  0  0  0  0  0  0  0  0
   -0.8146   -0.0486    0.4541 C   0  0  0  0  0  0  0  0  0  0  0  0
   -0.5376   -0.4082    1.7609 O   0  0  0  0  0  0  0  0  0  0  0  0
   -1.3923    1.3359    0.3036 C   0  0  0  0  0  0  0  0  0  0  0  0
   -2.5947    1.4818    0.9941 O   0  0  0  0  0  0  0  0  0  0  0  0
    4.2014    1.5587   -0.7695 H   0  0  0  0  0  0  0  0  0  0  0  0
    1.7539   -1.9074   -0.5766 H   0  0  0  0  0  0  0  0  0  0  0  0
    1.4362   -1.1523    1.0219 H   0  0  0  0  0  0  0  0  0  0  0  0
    0.3413    0.3010   -1.4727 H   0  0  0  0  0  0  0  0  0  0  0  0
   -1.8196   -0.9218   -1.3293 H   0  0  0  0  0  0  0  0  0  0  0  0
   -1.1325   -2.1623   -0.1473 H   0  0  0  0  0  0  0  0  0  0  0  0
   -0.6063   -1.3797    1.8424 H   0  0  0  0  0  0  0  0  0  0  0  0
   -0.6581    2.0666    0.6980 H   0  0  0  0  0  0  0  0  0  0  0  0
   -1.5242    1.5687   -0.7697 H   0  0  0  0  0  0  0  0  0  0  0  0
   -3.3293    1.2659    0.3910 H   0  0  0  0  0  0  0  0  0  0  0  0
  1  2  3  0
  2  3  1  0
  3  4  1  0
  4  5  1  0
  5  6  1  0
  6  7  1  0
  6  8  1  0
  8  9  1  0
  6  4  1  0
  1 10  1  0
  3 11  1  0
  3 12  1  0
  4 13  1  0
  5 14  1  0
  5 15  1  0
  7 16  1  0
  8 17  1  0
  8 18  1  0
  9 19  1  0
M  END
