
     RDKit          3D

 21 21  0  0  0  0  0  0  0  0999 V2000
   -0.1208    2.1416   -1.7779 C   0  0  0  0  0  0  0  0  0  0  0  0
   -0.1601    1.1881   -1.0407 C   0  0  0  0  0  0  0  0  0  0  0  0
   -0.2326    0.0331   -0.1419 C   0  0  0  0  0  0  0  0  0  0  0  0
    1.1152   -0.4795    0.2085 C   0  0  0  0  0  0  0  0  0  0  0  0
    2.0106    0.4837    0.8966 C   0  0  0  0  0  0  0  0  0  0  0  0
    1.7636   -1.0015   -0.9093 O   0  0  0  0  0  0  0  0  0  0  0  0
   -1.2102    0.1767    0.9981 C   0  0  0  0  0  0  0  0  0  0  0  0
   -2.2534   -0.4842    0.1067 C   0  0  0  0  0  0  0  0  0  0  0  0
   -1.1035   -1.1075   -0.6773 C   0  0  0  0  0  0  0  0  0  0  0  0
   -0.0762    3.0031   -2.4244 H   0  0  0  0  0  0  0  0  0  0  0  0
    0.9696   -1.3572    0.9043 H   0  0  0  0  0  0  0  0  0  0  0  0
    2.7517   -0.0930    1.4903 H   0  0  0  0  0  0  0  0  0  0  0  0
    2.5988    1.0903    0.1744 H   0  0  0  0  0  0  0  0  0  0  0  0
    1.4931    1.2004    1.5635 H   0  0  0  0  0  0  0  0  0  0  0  0
    2.5899   -1.4985   -0.6232 H   0  0  0  0  0  0  0  0  0  0  0  0
   -0.9742   -0.3934    1.9019 H   0  0  0  0  0  0  0  0  0  0  0  0
   -1.3880    1.2433    1.2101 H   0  0  0  0  0  0  0  0  0  0  0  0
   -2.8605    0.2215   -0.4936 H   0  0  0  0  0  0  0  0  0  0  0  0
   -2.8172   -1.2544    0.6693 H   0  0  0  0  0  0  0  0  0  0  0  0
   -1.2868   -1.0253   -1.7509 H   0  0  0  0  0  0  0  0  0  0  0  0
   -0.8092   -2.0872   -0.2847 H   0  0  0  0  0  0  0  0  0  0  0  0
  1  2  3  0
  2  3  1  0
  3  4  1  0
  4  5  1  0
  4  6  1  0
  3  7  1  0
  7  8  1  0
  8  9  1  0
  9  3  1  0
  1 10  1  0
  4 11  1  0
  5 12  1  0
  5 13  1  0
  5 14  1  0
  6 15  1  0
  7 16  1  0
  7 17  1  0
  8 18  1  0
  8 19  1  0
  9 20  1  0
  9 21  1  0
M  END
