
     RDKit          3D

 17 16  0  0  0  0  0  0  0  0999 V2000
    3.3319    0.9841    0.2568 C   0  0  0  0  0  0  0  0  0  0  0  0
    2.4893    0.1368    0.0992 C   0  0  0  0  0  0  0  0  0  0  0  0
    1.4359   -0.8883   -0.0852 C   0  0  0  0  0  0  0  0  0  0  0  0
    0.4494   -0.3184   -1.0379 C   0  0  0  0  0  0  0  0  0  0  0  0
    0.6204   -0.4034   -2.2445 O   0  0  0  0  0  0  0  0  0  0  0  0
   -0.7459    0.3548   -0.4864 C   0  0  0  0  0  0  0  0  0  0  0  0
   -0.6919    0.3451    0.9032 O   0  0  0  0  0  0  0  0  0  0  0  0
   -2.0409   -0.2927   -0.9421 C   0  0  0  0  0  0  0  0  0  0  0  0
   -3.0753    0.4872   -0.3790 O   0  0  0  0  0  0  0  0  0  0  0  0
    4.0856    1.7276    0.3807 H   0  0  0  0  0  0  0  0  0  0  0  0
    1.8967   -1.8126   -0.4808 H   0  0  0  0  0  0  0  0  0  0  0  0
    0.9267   -1.0760    0.8764 H   0  0  0  0  0  0  0  0  0  0  0  0
   -0.7305    1.4078   -0.8284 H   0  0  0  0  0  0  0  0  0  0  0  0
   -1.0163   -0.5154    1.2624 H   0  0  0  0  0  0  0  0  0  0  0  0
   -2.1112   -0.2739   -2.0284 H   0  0  0  0  0  0  0  0  0  0  0  0
   -2.0351   -1.3079   -0.5065 H   0  0  0  0  0  0  0  0  0  0  0  0
   -2.7888    1.4452   -0.4822 H   0  0  0  0  0  0  0  0  0  0  0  0
  1  2  3  0
  2  3  1  0
  3  4  1  0
  4  5  2  0
  4  6  1  0
  6  7  1  0
  6  8  1  0
  8  9  1  0
  1 10  1  0
  3 11  1  0
  3 12  1  0
  6 13  1  0
  7 14  1  0
  8 15  1  0
  8 16  1  0
  9 17  1  0
M  END
