
     RDKit          3D

 23 23  0  0  0  0  0  0  0  0999 V2000
    3.7530    1.8716   -1.0876 C   0  0  0  0  0  0  0  0  0  0  0  0
    2.7621    1.1866   -1.0556 C   0  0  0  0  0  0  0  0  0  0  0  0
    1.5655    0.3827   -1.0010 C   0  0  0  0  0  0  0  0  0  0  0  0
    1.1795    0.1673    0.4691 C   0  0  0  0  0  0  0  0  0  0  0  0
   -0.0715   -0.6752    0.4537 C   0  0  0  0  0  0  0  0  0  0  0  0
   -0.6266   -1.0077    1.8235 C   0  0  0  0  0  0  0  0  0  0  0  0
   -2.0032   -0.8677    1.2009 C   0  0  0  0  0  0  0  0  0  0  0  0
   -1.3572    0.1309    0.2425 C   0  0  0  0  0  0  0  0  0  0  0  0
   -1.8912    0.0671   -1.1615 C   0  0  0  0  0  0  0  0  0  0  0  0
    4.6075    2.4794   -1.1038 H   0  0  0  0  0  0  0  0  0  0  0  0
    0.7253    0.7592   -1.5797 H   0  0  0  0  0  0  0  0  0  0  0  0
    1.8137   -0.6327   -1.4038 H   0  0  0  0  0  0  0  0  0  0  0  0
    0.9910    1.1560    0.9272 H   0  0  0  0  0  0  0  0  0  0  0  0
    1.9879   -0.3817    0.9919 H   0  0  0  0  0  0  0  0  0  0  0  0
   -0.0722   -1.5213   -0.2330 H   0  0  0  0  0  0  0  0  0  0  0  0
   -0.4264   -0.2084    2.5747 H   0  0  0  0  0  0  0  0  0  0  0  0
   -0.3776   -2.0278    2.1684 H   0  0  0  0  0  0  0  0  0  0  0  0
   -2.7642   -0.4175    1.8677 H   0  0  0  0  0  0  0  0  0  0  0  0
   -2.2843   -1.8294    0.7331 H   0  0  0  0  0  0  0  0  0  0  0  0
   -1.3531    1.1337    0.6614 H   0  0  0  0  0  0  0  0  0  0  0  0
   -1.4684   -0.7568   -1.7569 H   0  0  0  0  0  0  0  0  0  0  0  0
   -3.0111   -0.0428   -1.1150 H   0  0  0  0  0  0  0  0  0  0  0  0
   -1.6786    1.0345   -1.6549 H   0  0  0  0  0  0  0  0  0  0  0  0
  1  2  3  0
  2  3  1  0
  3  4  1  0
  4  5  1  0
  5  6  1  0
  6  7  1  0
  7  8  1  0
  8  9  1  0
  8  5  1  0
  1 10  1  0
  3 11  1  0
  3 12  1  0
  4 13  1  0
  4 14  1  0
  5 15  1  0
  6 16  1  0
  6 17  1  0
  7 18  1  0
  7 19  1  0
  8 20  1  0
  9 21  1  0
  9 22  1  0
  9 23  1  0
M  END
