
     RDKit          3D

 16 16  0  0  0  0  0  0  0  0999 V2000
    4.3022    1.4538   -0.5676 C   0  0  0  0  0  0  0  0  0  0  0  0
    3.1656    1.0678   -0.4241 C   0  0  0  0  0  0  0  0  0  0  0  0
    1.8236    0.6011   -0.2770 C   0  0  0  0  0  0  0  0  0  0  0  0
    0.6948    0.1923   -0.1588 C   0  0  0  0  0  0  0  0  0  0  0  0
   -0.6654   -0.3258   -0.0077 C   0  0  0  0  0  0  0  0  0  0  0  0
   -0.9209   -1.6964   -0.6455 C   0  0  0  0  0  0  0  0  0  0  0  0
   -1.4814    0.1073    1.1265 C   0  0  0  0  0  0  0  0  0  0  0  0
   -1.8178    0.6983   -0.1951 C   0  0  0  0  0  0  0  0  0  0  0  0
    5.3009    1.7927   -0.6753 H   0  0  0  0  0  0  0  0  0  0  0  0
   -0.6028   -1.6706   -1.7010 H   0  0  0  0  0  0  0  0  0  0  0  0
   -0.3237   -2.4635   -0.1281 H   0  0  0  0  0  0  0  0  0  0  0  0
   -1.9717   -1.9718   -0.5732 H   0  0  0  0  0  0  0  0  0  0  0  0
   -1.1023    0.7857    1.8972 H   0  0  0  0  0  0  0  0  0  0  0  0
   -2.2393   -0.6452    1.4895 H   0  0  0  0  0  0  0  0  0  0  0  0
   -1.4882    1.7329   -0.4012 H   0  0  0  0  0  0  0  0  0  0  0  0
   -2.6735    0.3413   -0.7896 H   0  0  0  0  0  0  0  0  0  0  0  0
  1  2  3  0
  2  3  1  0
  3  4  3  0
  4  5  1  0
  5  6  1  0
  5  7  1  0
  7  8  1  0
  8  5  1  0
  1  9  1  0
  6 10  1  0
  6 11  1  0
  6 12  1  0
  7 13  1  0
  7 14  1  0
  8 15  1  0
  8 16  1  0
M  END
