
     RDKit          3D

 17 16  0  0  0  0  0  0  0  0999 V2000
   -0.2391    2.2109   -2.2295 C   0  0  0  0  0  0  0  0  0  0  0  0
   -0.0662    1.2752   -1.4321 C   0  0  0  0  0  0  0  0  0  0  0  0
    0.1167    0.1629   -0.4990 C   0  0  0  0  0  0  0  0  0  0  0  0
    1.4191    0.2781    0.0511 O   0  0  0  0  0  0  0  0  0  0  0  0
    2.2914   -0.7868   -0.1183 C   0  0  0  0  0  0  0  0  0  0  0  0
    1.8918   -1.7987   -0.7453 O   0  0  0  0  0  0  0  0  0  0  0  0
   -0.8561    0.2927    0.6754 C   0  0  0  0  0  0  0  0  0  0  0  0
   -0.6114   -0.8289    1.6427 C   0  0  0  0  0  0  0  0  0  0  0  0
   -2.1298    0.1755    0.1034 O   0  0  0  0  0  0  0  0  0  0  0  0
   -0.3871    3.0069   -2.8845 H   0  0  0  0  0  0  0  0  0  0  0  0
   -0.0519   -0.7918   -1.0147 H   0  0  0  0  0  0  0  0  0  0  0  0
    3.2920   -0.6934    0.3054 H   0  0  0  0  0  0  0  0  0  0  0  0
   -0.7651    1.2790    1.1446 H   0  0  0  0  0  0  0  0  0  0  0  0
   -1.3901   -1.6219    1.4957 H   0  0  0  0  0  0  0  0  0  0  0  0
    0.3716   -1.2798    1.5005 H   0  0  0  0  0  0  0  0  0  0  0  0
   -0.7685   -0.4728    2.7001 H   0  0  0  0  0  0  0  0  0  0  0  0
   -2.1173   -0.4070   -0.6957 H   0  0  0  0  0  0  0  0  0  0  0  0
  1  2  3  0
  2  3  1  0
  3  4  1  0
  4  5  1  0
  5  6  2  0
  3  7  1  0
  7  8  1  0
  7  9  1  0
  1 10  1  0
  3 11  1  0
  5 12  1  0
  7 13  1  0
  8 14  1  0
  8 15  1  0
  8 16  1  0
  9 17  1  0
M  END
