
     RDKit          3D

 21 21  0  0  0  0  0  0  0  0999 V2000
    2.2938    1.3817    0.8930 C   0  0  0  0  0  0  0  0  0  0  0  0
    1.3068    0.7764    1.2168 C   0  0  0  0  0  0  0  0  0  0  0  0
    0.0734    0.0478    1.6077 C   0  0  0  0  0  0  0  0  0  0  0  0
    0.3928   -1.4335    1.3817 C   0  0  0  0  0  0  0  0  0  0  0  0
    0.2773   -1.4548   -0.1135 C   0  0  0  0  0  0  0  0  0  0  0  0
   -0.7818   -0.4465   -0.3811 C   0  0  0  0  0  0  0  0  0  0  0  0
   -0.3766    0.3092   -1.6331 C   0  0  0  0  0  0  0  0  0  0  0  0
   -1.3224    1.3657   -2.0569 C   0  0  0  0  0  0  0  0  0  0  0  0
   -0.9457    0.3012    0.7065 O   0  0  0  0  0  0  0  0  0  0  0  0
    3.1791    1.9348    0.6184 H   0  0  0  0  0  0  0  0  0  0  0  0
   -0.2164    0.2471    2.6491 H   0  0  0  0  0  0  0  0  0  0  0  0
   -0.4152   -2.0527    1.7942 H   0  0  0  0  0  0  0  0  0  0  0  0
    1.3809   -1.7092    1.7728 H   0  0  0  0  0  0  0  0  0  0  0  0
    0.0352   -2.4667   -0.5091 H   0  0  0  0  0  0  0  0  0  0  0  0
    1.2334   -1.0734   -0.5425 H   0  0  0  0  0  0  0  0  0  0  0  0
   -1.7717   -0.9661   -0.5944 H   0  0  0  0  0  0  0  0  0  0  0  0
   -0.2705   -0.4580   -2.4271 H   0  0  0  0  0  0  0  0  0  0  0  0
    0.6298    0.7387   -1.4706 H   0  0  0  0  0  0  0  0  0  0  0  0
   -2.0560    1.6851   -1.3120 H   0  0  0  0  0  0  0  0  0  0  0  0
   -0.7370    2.2483   -2.4448 H   0  0  0  0  0  0  0  0  0  0  0  0
   -1.9092    1.0251   -2.9560 H   0  0  0  0  0  0  0  0  0  0  0  0
  1  2  3  0
  2  3  1  0
  3  4  1  0
  4  5  1  0
  5  6  1  0
  6  7  1  0
  7  8  1  0
  6  9  1  0
  9  3  1  0
  1 10  1  0
  3 11  1  0
  4 12  1  0
  4 13  1  0
  5 14  1  0
  5 15  1  0
  6 16  1  0
  7 17  1  0
  7 18  1  0
  8 19  1  0
  8 20  1  0
  8 21  1  0
M  END
