
     RDKit          3D

 15 16  0  0  0  0  0  0  0  0999 V2000
    2.6749    1.0363   -0.4271 C   0  0  0  0  0  0  0  0  0  0  0  0
    1.4698    1.0491   -0.4730 C   0  0  0  0  0  0  0  0  0  0  0  0
   -0.0015    1.0804   -0.5467 C   0  0  0  0  0  0  0  0  0  0  0  0
   -0.6664    0.4463    0.6747 C   0  0  0  0  0  0  0  0  0  0  0  0
   -2.1253    0.3125    0.7064 C   0  0  0  0  0  0  0  0  0  0  0  0
   -3.0259    0.6417    1.5407 O   0  0  0  0  0  0  0  0  0  0  0  0
   -2.0644   -0.3089   -0.5353 O   0  0  0  0  0  0  0  0  0  0  0  0
   -0.6457   -0.2452   -0.6625 C   0  0  0  0  0  0  0  0  0  0  0  0
    0.1306   -1.5093   -0.8244 C   0  0  0  0  0  0  0  0  0  0  0  0
    3.7522    1.0231   -0.4048 H   0  0  0  0  0  0  0  0  0  0  0  0
   -0.4955    1.9538   -0.9996 H   0  0  0  0  0  0  0  0  0  0  0  0
   -0.0336   -0.0277    1.4401 H   0  0  0  0  0  0  0  0  0  0  0  0
    0.9716   -1.3902   -1.5481 H   0  0  0  0  0  0  0  0  0  0  0  0
   -0.5263   -2.2863   -1.2391 H   0  0  0  0  0  0  0  0  0  0  0  0
    0.5856   -1.7753    0.1459 H   0  0  0  0  0  0  0  0  0  0  0  0
  1  2  3  0
  2  3  1  0
  3  4  1  0
  4  5  1  0
  5  6  2  0
  5  7  1  0
  7  8  1  0
  8  9  1  0
  8  3  1  0
  8  4  1  0
  1 10  1  0
  3 11  1  0
  4 12  1  0
  9 13  1  0
  9 14  1  0
  9 15  1  0
M  END
