
     RDKit          3D

 16 15  0  0  0  0  0  0  0  0999 V2000
    4.3869    0.6610    0.3060 C   0  0  0  0  0  0  0  0  0  0  0  0
    3.1959    0.5272    0.2435 C   0  0  0  0  0  0  0  0  0  0  0  0
    1.7915    0.3722    0.1495 C   0  0  0  0  0  0  0  0  0  0  0  0
    0.5779    0.2520    0.0520 C   0  0  0  0  0  0  0  0  0  0  0  0
   -0.8716    0.1338   -0.0633 C   0  0  0  0  0  0  0  0  0  0  0  0
   -1.4180   -0.0788    1.3286 C   0  0  0  0  0  0  0  0  0  0  0  0
   -1.1860   -1.0375   -0.9664 C   0  0  0  0  0  0  0  0  0  0  0  0
   -1.4591    1.2625   -0.6038 O   0  0  0  0  0  0  0  0  0  0  0  0
    5.4575    0.7812    0.3681 H   0  0  0  0  0  0  0  0  0  0  0  0
   -1.4472   -1.1823    1.4998 H   0  0  0  0  0  0  0  0  0  0  0  0
   -2.4044    0.3827    1.4807 H   0  0  0  0  0  0  0  0  0  0  0  0
   -0.7153    0.3269    2.1021 H   0  0  0  0  0  0  0  0  0  0  0  0
   -1.0156   -2.0177   -0.4698 H   0  0  0  0  0  0  0  0  0  0  0  0
   -0.4995   -0.9611   -1.8345 H   0  0  0  0  0  0  0  0  0  0  0  0
   -2.2194   -1.0127   -1.3099 H   0  0  0  0  0  0  0  0  0  0  0  0
   -2.1736    1.5908   -0.0329 H   0  0  0  0  0  0  0  0  0  0  0  0
  1  2  3  0
  2  3  1  0
  3  4  3  0
  4  5  1  0
  5  6  1  0
  5  7  1  0
  5  8  1  0
  1  9  1  0
  6 10  1  0
  6 11  1  0
  6 12  1  0
  7 13  1  0
  7 14  1  0
  7 15  1  0
  8 16  1  0
M  END
