
     RDKit          3D

 19 20  0  0  0  0  0  0  0  0999 V2000
    3.7364   -0.3843    0.3141 C   0  0  0  0  0  0  0  0  0  0  0  0
    2.5820   -0.5207   -0.0460 C   0  0  0  0  0  0  0  0  0  0  0  0
    1.1980   -0.6944   -0.5025 C   0  0  0  0  0  0  0  0  0  0  0  0
    0.1434   -0.9285    0.5303 C   0  0  0  0  0  0  0  0  0  0  0  0
   -1.1322   -1.5268    0.0146 C   0  0  0  0  0  0  0  0  0  0  0  0
   -1.8928   -0.4387   -0.3338 O   0  0  0  0  0  0  0  0  0  0  0  0
   -1.0744    0.5682   -0.7937 C   0  0  0  0  0  0  0  0  0  0  0  0
   -1.6836    1.8818   -0.2953 C   0  0  0  0  0  0  0  0  0  0  0  0
    0.2782    0.4099   -0.1673 C   0  0  0  0  0  0  0  0  0  0  0  0
    4.7354   -0.2689    0.6444 H   0  0  0  0  0  0  0  0  0  0  0  0
    1.1024   -1.2707   -1.4550 H   0  0  0  0  0  0  0  0  0  0  0  0
    0.3735   -0.9341    1.5999 H   0  0  0  0  0  0  0  0  0  0  0  0
   -0.9631   -2.1468   -0.9041 H   0  0  0  0  0  0  0  0  0  0  0  0
   -1.6126   -2.1031    0.8314 H   0  0  0  0  0  0  0  0  0  0  0  0
   -1.0361    0.5586   -1.8963 H   0  0  0  0  0  0  0  0  0  0  0  0
   -2.7039    2.0279   -0.6504 H   0  0  0  0  0  0  0  0  0  0  0  0
   -1.0041    2.7322   -0.4980 H   0  0  0  0  0  0  0  0  0  0  0  0
   -1.7208    1.7697    0.8169 H   0  0  0  0  0  0  0  0  0  0  0  0
    0.6741    1.2686    0.4133 H   0  0  0  0  0  0  0  0  0  0  0  0
  1  2  3  0
  2  3  1  0
  3  4  1  0
  4  5  1  0
  5  6  1  0
  6  7  1  0
  7  8  1  0
  7  9  1  0
  9  3  1  0
  9  4  1  0
  1 10  1  0
  3 11  1  0
  4 12  1  0
  5 13  1  0
  5 14  1  0
  7 15  1  0
  8 16  1  0
  8 17  1  0
  8 18  1  0
  9 19  1  0
M  END
