
     RDKit          3D

 16 17  0  0  0  0  0  0  0  0999 V2000
    2.9805   -1.2696   -0.9847 C   0  0  0  0  0  0  0  0  0  0  0  0
    1.8374   -0.8459   -1.0550 C   0  0  0  0  0  0  0  0  0  0  0  0
    0.4723   -0.3406   -1.1644 C   0  0  0  0  0  0  0  0  0  0  0  0
   -0.5897   -1.2362   -0.5155 C   0  0  0  0  0  0  0  0  0  0  0  0
   -0.2240    0.0481    0.0490 C   0  0  0  0  0  0  0  0  0  0  0  0
   -1.0949    1.2118    0.2687 C   0  0  0  0  0  0  0  0  0  0  0  0
   -0.8767    0.7362    1.7064 C   0  0  0  0  0  0  0  0  0  0  0  0
    0.3519    0.2267    1.2814 O   0  0  0  0  0  0  0  0  0  0  0  0
    3.9956   -1.6488   -0.9409 H   0  0  0  0  0  0  0  0  0  0  0  0
    0.1919    0.1434   -2.1216 H   0  0  0  0  0  0  0  0  0  0  0  0
   -0.2582   -2.1514   -0.0025 H   0  0  0  0  0  0  0  0  0  0  0  0
   -1.5333   -1.3547   -1.1136 H   0  0  0  0  0  0  0  0  0  0  0  0
   -0.6529    2.2202    0.1606 H   0  0  0  0  0  0  0  0  0  0  0  0
   -2.1646    1.1379    0.0187 H   0  0  0  0  0  0  0  0  0  0  0  0
   -1.6097   -0.0671    1.9678 H   0  0  0  0  0  0  0  0  0  0  0  0
   -0.8255    1.5396    2.4455 H   0  0  0  0  0  0  0  0  0  0  0  0
  1  2  3  0
  2  3  1  0
  3  4  1  0
  4  5  1  0
  5  6  1  0
  6  7  1  0
  7  8  1  0
  5  3  1  0
  8  5  1  0
  1  9  1  0
  3 10  1  0
  4 11  1  0
  4 12  1  0
  6 13  1  0
  6 14  1  0
  7 15  1  0
  7 16  1  0
M  END
