
     RDKit          3D

 19 19  0  0  0  0  0  0  0  0999 V2000
    2.7032    1.6583    0.9691 C   0  0  0  0  0  0  0  0  0  0  0  0
    2.0045    0.7030    0.7152 C   0  0  0  0  0  0  0  0  0  0  0  0
    1.1474   -0.4548    0.4055 C   0  0  0  0  0  0  0  0  0  0  0  0
    1.6736   -1.7884    0.8897 C   0  0  0  0  0  0  0  0  0  0  0  0
    0.7556   -0.4099   -0.9901 O   0  0  0  0  0  0  0  0  0  0  0  0
   -0.2153   -0.2880    0.1303 C   0  0  0  0  0  0  0  0  0  0  0  0
   -0.9341    1.0389    0.1446 C   0  0  0  0  0  0  0  0  0  0  0  0
   -1.6608    1.2741   -1.0144 O   0  0  0  0  0  0  0  0  0  0  0  0
   -2.6382    0.3020   -1.2207 C   0  0  0  0  0  0  0  0  0  0  0  0
    3.3339    2.4944    1.2027 H   0  0  0  0  0  0  0  0  0  0  0  0
    2.7120   -1.6825    1.2257 H   0  0  0  0  0  0  0  0  0  0  0  0
    1.6695   -2.5045    0.0331 H   0  0  0  0  0  0  0  0  0  0  0  0
    1.0097   -2.1252    1.7104 H   0  0  0  0  0  0  0  0  0  0  0  0
   -0.8910   -1.1654    0.0769 H   0  0  0  0  0  0  0  0  0  0  0  0
   -1.6353    0.9981    0.9948 H   0  0  0  0  0  0  0  0  0  0  0  0
   -0.2128    1.8827    0.2504 H   0  0  0  0  0  0  0  0  0  0  0  0
   -3.3669    0.2567   -0.3869 H   0  0  0  0  0  0  0  0  0  0  0  0
   -3.2278    0.5245   -2.1487 H   0  0  0  0  0  0  0  0  0  0  0  0
   -2.2270   -0.7139   -1.3849 H   0  0  0  0  0  0  0  0  0  0  0  0
  1  2  3  0
  2  3  1  0
  3  4  1  0
  3  5  1  0
  5  6  1  0
  6  7  1  0
  7  8  1  0
  8  9  1  0
  6  3  1  0
  1 10  1  0
  4 11  1  0
  4 12  1  0
  4 13  1  0
  6 14  1  0
  7 15  1  0
  7 16  1  0
  9 17  1  0
  9 18  1  0
  9 19  1  0
M  END
