
     RDKit          3D

 19 19  0  0  0  0  0  0  0  0999 V2000
    2.5544    1.1350   -1.8743 C   0  0  0  0  0  0  0  0  0  0  0  0
    1.9788    1.0044   -0.8273 C   0  0  0  0  0  0  0  0  0  0  0  0
    1.2816    0.8218    0.4721 C   0  0  0  0  0  0  0  0  0  0  0  0
    0.0006    0.0751    0.1989 C   0  0  0  0  0  0  0  0  0  0  0  0
   -0.9370    0.8072   -0.7367 C   0  0  0  0  0  0  0  0  0  0  0  0
    0.1169   -1.4090    0.0106 C   0  0  0  0  0  0  0  0  0  0  0  0
   -0.6227   -0.8404    1.1707 C   0  0  0  0  0  0  0  0  0  0  0  0
   -2.0976   -1.0201    1.1985 C   0  0  0  0  0  0  0  0  0  0  0  0
   -2.6502   -1.1853    2.2690 O   0  0  0  0  0  0  0  0  0  0  0  0
    3.0461    1.2462   -2.8064 H   0  0  0  0  0  0  0  0  0  0  0  0
    1.9709    0.3384    1.1554 H   0  0  0  0  0  0  0  0  0  0  0  0
    1.0749    1.8613    0.8441 H   0  0  0  0  0  0  0  0  0  0  0  0
   -1.9214    0.8514   -0.2329 H   0  0  0  0  0  0  0  0  0  0  0  0
   -1.0582    0.1540   -1.6459 H   0  0  0  0  0  0  0  0  0  0  0  0
   -0.5689    1.8122   -1.0180 H   0  0  0  0  0  0  0  0  0  0  0  0
   -0.4245   -1.8182   -0.8564 H   0  0  0  0  0  0  0  0  0  0  0  0
    1.0314   -1.9534    0.2609 H   0  0  0  0  0  0  0  0  0  0  0  0
   -0.1506   -0.8856    2.1745 H   0  0  0  0  0  0  0  0  0  0  0  0
   -2.6244   -0.9951    0.2434 H   0  0  0  0  0  0  0  0  0  0  0  0
  1  2  3  0
  2  3  1  0
  3  4  1  0
  4  5  1  0
  4  6  1  0
  6  7  1  0
  7  8  1  0
  8  9  2  0
  7  4  1  0
  1 10  1  0
  3 11  1  0
  3 12  1  0
  5 13  1  0
  5 14  1  0
  5 15  1  0
  6 16  1  0
  6 17  1  0
  7 18  1  0
  8 19  1  0
M  END
