
     RDKit          3D

 19 20  0  0  0  0  0  0  0  0999 V2000
    3.4141    1.1087    1.5605 C   0  0  0  0  0  0  0  0  0  0  0  0
    2.3565    0.8746    0.9549 C   0  0  0  0  0  0  0  0  0  0  0  0
    1.1416    0.6272    0.2463 C   0  0  0  0  0  0  0  0  0  0  0  0
    0.4433   -0.6840    0.4482 C   0  0  0  0  0  0  0  0  0  0  0  0
   -0.3059   -1.3136   -0.6690 C   0  0  0  0  0  0  0  0  0  0  0  0
   -1.3354   -0.4456   -1.2946 C   0  0  0  0  0  0  0  0  0  0  0  0
   -2.0244    0.4036   -0.2682 C   0  0  0  0  0  0  0  0  0  0  0  0
   -1.2350    1.0602    0.6155 O   0  0  0  0  0  0  0  0  0  0  0  0
   -0.1485    0.4608    1.1325 C   0  0  0  0  0  0  0  0  0  0  0  0
    4.3757    1.3134    2.1309 H   0  0  0  0  0  0  0  0  0  0  0  0
    0.9896    1.1197   -0.7407 H   0  0  0  0  0  0  0  0  0  0  0  0
    1.0172   -1.4145    1.0587 H   0  0  0  0  0  0  0  0  0  0  0  0
   -0.7803   -2.2518   -0.2823 H   0  0  0  0  0  0  0  0  0  0  0  0
    0.4573   -1.5541   -1.4621 H   0  0  0  0  0  0  0  0  0  0  0  0
   -2.1312   -1.1286   -1.7284 H   0  0  0  0  0  0  0  0  0  0  0  0
   -0.8922    0.1597   -2.1239 H   0  0  0  0  0  0  0  0  0  0  0  0
   -2.8708   -0.1669    0.1976 H   0  0  0  0  0  0  0  0  0  0  0  0
   -2.5421    1.2069   -0.8774 H   0  0  0  0  0  0  0  0  0  0  0  0
    0.0706    0.6242    2.2219 H   0  0  0  0  0  0  0  0  0  0  0  0
  1  2  3  0
  2  3  1  0
  3  4  1  0
  4  5  1  0
  5  6  1  0
  6  7  1  0
  7  8  1  0
  8  9  1  0
  9  3  1  0
  9  4  1  0
  1 10  1  0
  3 11  1  0
  4 12  1  0
  5 13  1  0
  5 14  1  0
  6 15  1  0
  6 16  1  0
  7 17  1  0
  7 18  1  0
  9 19  1  0
M  END
