
     RDKit          3D

 19 18  0  0  0  0  0  0  0  0999 V2000
    0.9108    3.8520    0.2085 C   0  0  0  0  0  0  0  0  0  0  0  0
    1.3312    2.7745    0.5699 C   0  0  0  0  0  0  0  0  0  0  0  0
    1.8595    1.4675    1.0304 C   0  0  0  0  0  0  0  0  0  0  0  0
    0.7282    0.5025    1.0417 C   0  0  0  0  0  0  0  0  0  0  0  0
    0.0112    0.3224    2.0622 O   0  0  0  0  0  0  0  0  0  0  0  0
    0.3923   -0.2615   -0.0804 O   0  0  0  0  0  0  0  0  0  0  0  0
   -0.6560   -1.1695   -0.0995 C   0  0  0  0  0  0  0  0  0  0  0  0
   -1.7715   -0.6778   -1.0352 C   0  0  0  0  0  0  0  0  0  0  0  0
   -0.2821   -2.5571   -0.4956 C   0  0  0  0  0  0  0  0  0  0  0  0
    0.5570    4.7994   -0.1023 H   0  0  0  0  0  0  0  0  0  0  0  0
    2.2041    1.5379    2.0865 H   0  0  0  0  0  0  0  0  0  0  0  0
    2.7063    1.1810    0.4122 H   0  0  0  0  0  0  0  0  0  0  0  0
   -1.1347   -1.1925    0.9088 H   0  0  0  0  0  0  0  0  0  0  0  0
   -1.3360   -0.4317   -2.0174 H   0  0  0  0  0  0  0  0  0  0  0  0
   -2.4942   -1.5114   -1.1557 H   0  0  0  0  0  0  0  0  0  0  0  0
   -2.2800    0.1606   -0.5647 H   0  0  0  0  0  0  0  0  0  0  0  0
   -1.0203   -3.2646   -0.0354 H   0  0  0  0  0  0  0  0  0  0  0  0
   -0.4452   -2.6465   -1.5911 H   0  0  0  0  0  0  0  0  0  0  0  0
    0.7194   -2.8852   -0.1778 H   0  0  0  0  0  0  0  0  0  0  0  0
  1  2  3  0
  2  3  1  0
  3  4  1  0
  4  5  2  0
  4  6  1  0
  6  7  1  0
  7  8  1  0
  7  9  1  0
  1 10  1  0
  3 11  1  0
  3 12  1  0
  7 13  1  0
  8 14  1  0
  8 15  1  0
  8 16  1  0
  9 17  1  0
  9 18  1  0
  9 19  1  0
M  END
