
     RDKit          3D

 17 18  0  0  0  0  0  0  0  0999 V2000
    3.1095    0.4536   -0.7962 C   0  0  0  0  0  0  0  0  0  0  0  0
    2.0024   -0.0291   -0.8094 C   0  0  0  0  0  0  0  0  0  0  0  0
    0.6475   -0.6268   -0.8009 C   0  0  0  0  0  0  0  0  0  0  0  0
   -0.1990    0.1017   -1.6000 O   0  0  0  0  0  0  0  0  0  0  0  0
   -1.4354    0.3555   -1.0567 C   0  0  0  0  0  0  0  0  0  0  0  0
   -1.5729   -0.0444    0.3814 C   0  0  0  0  0  0  0  0  0  0  0  0
   -0.4160    0.5117    1.1623 C   0  0  0  0  0  0  0  0  0  0  0  0
    0.2049   -0.7594    0.6198 C   0  0  0  0  0  0  0  0  0  0  0  0
   -1.0792   -1.3225    0.6353 O   0  0  0  0  0  0  0  0  0  0  0  0
    4.0807    0.8858   -0.7979 H   0  0  0  0  0  0  0  0  0  0  0  0
    0.6923   -1.6653   -1.2441 H   0  0  0  0  0  0  0  0  0  0  0  0
   -1.6232    1.4471   -1.1303 H   0  0  0  0  0  0  0  0  0  0  0  0
   -2.2479   -0.1189   -1.6764 H   0  0  0  0  0  0  0  0  0  0  0  0
   -2.5765    0.1544    0.7595 H   0  0  0  0  0  0  0  0  0  0  0  0
   -0.5218    0.4580    2.2434 H   0  0  0  0  0  0  0  0  0  0  0  0
   -0.0160    1.4425    0.7307 H   0  0  0  0  0  0  0  0  0  0  0  0
    0.9506   -1.2441    1.2450 H   0  0  0  0  0  0  0  0  0  0  0  0
  1  2  3  0
  2  3  1  0
  3  4  1  0
  4  5  1  0
  5  6  1  0
  6  7  1  0
  7  8  1  0
  8  9  1  0
  8  3  1  0
  9  6  1  0
  1 10  1  0
  3 11  1  0
  5 12  1  0
  5 13  1  0
  6 14  1  0
  7 15  1  0
  7 16  1  0
  8 17  1  0
M  END
