
     RDKit          3D

 17 17  0  0  0  0  0  0  0  0999 V2000
    0.4203    3.3549    0.1964 C   0  0  0  0  0  0  0  0  0  0  0  0
    0.3500    2.3803   -0.4765 C   0  0  0  0  0  0  0  0  0  0  0  0
    0.2577    1.1709   -1.2916 C   0  0  0  0  0  0  0  0  0  0  0  0
   -0.9738    0.5388   -1.4344 O   0  0  0  0  0  0  0  0  0  0  0  0
   -0.1305   -0.1254   -0.5829 C   0  0  0  0  0  0  0  0  0  0  0  0
    0.5081   -1.3564   -1.0831 C   0  0  0  0  0  0  0  0  0  0  0  0
    1.0178   -2.3820   -1.4881 C   0  0  0  0  0  0  0  0  0  0  0  0
   -0.4081   -0.0162    0.8895 C   0  0  0  0  0  0  0  0  0  0  0  0
   -0.7748   -1.3913    1.4187 C   0  0  0  0  0  0  0  0  0  0  0  0
    0.5003    4.2278    0.8066 H   0  0  0  0  0  0  0  0  0  0  0  0
    0.8978    1.1247   -2.1737 H   0  0  0  0  0  0  0  0  0  0  0  0
    1.4521   -3.2819   -1.8523 H   0  0  0  0  0  0  0  0  0  0  0  0
    0.5439    0.2616    1.3846 H   0  0  0  0  0  0  0  0  0  0  0  0
   -1.2078    0.7240    1.0512 H   0  0  0  0  0  0  0  0  0  0  0  0
   -1.8551   -1.5588    1.4344 H   0  0  0  0  0  0  0  0  0  0  0  0
   -0.2807   -2.1321    0.7641 H   0  0  0  0  0  0  0  0  0  0  0  0
   -0.3171   -1.5389    2.4371 H   0  0  0  0  0  0  0  0  0  0  0  0
  1  2  3  0
  2  3  1  0
  3  4  1  0
  4  5  1  0
  5  6  1  0
  6  7  3  0
  5  8  1  0
  8  9  1  0
  5  3  1  0
  1 10  1  0
  3 11  1  0
  7 12  1  0
  8 13  1  0
  8 14  1  0
  9 15  1  0
  9 16  1  0
  9 17  1  0
M  END
