
     RDKit          3D

 17 17  0  0  0  0  0  0  0  0999 V2000
    0.0015   -2.1468   -1.6596 C   0  0  0  0  0  0  0  0  0  0  0  0
   -0.0143   -0.4539   -1.2367 C   0  0  0  0  0  0  0  0  0  0  0  0
   -0.0113    0.0804   -1.1086 C   0  0  0  0  0  0  0  0  0  0  0  0
    0.7759    1.6370   -0.9703 C   0  0  0  0  0  0  0  0  0  0  0  0
    1.2792    2.6215   -0.8636 C   0  0  0  0  0  0  0  0  0  0  0  0
    0.8713   -0.1221    0.6024 C   0  0  0  0  0  0  0  0  0  0  0  0
   -0.2614   -0.9264    1.0349 C   0  0  0  0  0  0  0  0  0  0  0  0
   -1.3893    0.0633    0.7941 C   0  0  0  0  0  0  0  0  0  0  0  0
   -1.1734    0.8521   -0.2244 O   0  0  0  0  0  0  0  0  0  0  0  0
    0.0218   -2.9450   -1.8613 H   0  0  0  0  0  0  0  0  0  0  0  0
    1.7740    3.5480   -0.7648 H   0  0  0  0  0  0  0  0  0  0  0  0
    0.7718    0.9112    0.7771 H   0  0  0  0  0  0  0  0  0  0  0  0
    1.6874   -0.5492    0.0342 H   0  0  0  0  0  0  0  0  0  0  0  0
   -0.1689   -1.1116    2.1640 H   0  0  0  0  0  0  0  0  0  0  0  0
   -0.4525   -1.8883    0.5963 H   0  0  0  0  0  0  0  0  0  0  0  0
   -1.3209    0.7776    1.7364 H   0  0  0  0  0  0  0  0  0  0  0  0
   -2.3909   -0.3476    0.9500 H   0  0  0  0  0  0  0  0  0  0  0  0
  1  2  3  0
  2  3  1  0
  3  4  1  0
  4  5  3  0
  3  6  1  0
  6  7  1  0
  7  8  1  0
  8  9  1  0
  9  3  1  0
  1 10  1  0
  5 11  1  0
  6 12  1  0
  6 13  1  0
  7 14  1  0
  7 15  1  0
  8 16  1  0
  8 17  1  0
M  END
