
     RDKit          3D

 19 19  0  0  0  0  0  0  0  0999 V2000
    2.3602   -1.9901   -1.1240 C   0  0  0  0  0  0  0  0  0  0  0  0
    1.7687   -1.1628   -0.4769 C   0  0  0  0  0  0  0  0  0  0  0  0
    1.0833   -0.1624    0.2997 C   0  0  0  0  0  0  0  0  0  0  0  0
    1.3294   -0.3291    1.7619 C   0  0  0  0  0  0  0  0  0  0  0  0
    0.7212   -1.2360    2.3121 O   0  0  0  0  0  0  0  0  0  0  0  0
   -0.4069   -0.1558    0.0920 C   0  0  0  0  0  0  0  0  0  0  0  0
   -0.8699    0.1026   -1.3155 C   0  0  0  0  0  0  0  0  0  0  0  0
   -1.9693    0.9883   -0.7225 C   0  0  0  0  0  0  0  0  0  0  0  0
   -1.0608    1.1652    0.4862 C   0  0  0  0  0  0  0  0  0  0  0  0
    2.8970   -2.7373   -1.6872 H   0  0  0  0  0  0  0  0  0  0  0  0
    1.4726    0.8389    0.0192 H   0  0  0  0  0  0  0  0  0  0  0  0
    1.9972    0.2935    2.3361 H   0  0  0  0  0  0  0  0  0  0  0  0
   -0.9671   -0.9964    0.5416 H   0  0  0  0  0  0  0  0  0  0  0  0
   -0.1475    0.6609   -1.9327 H   0  0  0  0  0  0  0  0  0  0  0  0
   -1.3524   -0.7521   -1.8324 H   0  0  0  0  0  0  0  0  0  0  0  0
   -2.1080    1.9387   -1.2477 H   0  0  0  0  0  0  0  0  0  0  0  0
   -2.8716    0.4297   -0.4327 H   0  0  0  0  0  0  0  0  0  0  0  0
   -0.3135    1.9820    0.3534 H   0  0  0  0  0  0  0  0  0  0  0  0
   -1.5628    1.1222    1.4626 H   0  0  0  0  0  0  0  0  0  0  0  0
  1  2  3  0
  2  3  1  0
  3  4  1  0
  4  5  2  0
  3  6  1  0
  6  7  1  0
  7  8  1  0
  8  9  1  0
  9  6  1  0
  1 10  1  0
  3 11  1  0
  4 12  1  0
  6 13  1  0
  7 14  1  0
  7 15  1  0
  8 16  1  0
  8 17  1  0
  9 18  1  0
  9 19  1  0
M  END
