
     RDKit          3D

 21 21  0  0  0  0  0  0  0  0999 V2000
   -3.0184   -0.5932    1.5005 C   0  0  0  0  0  0  0  0  0  0  0  0
   -2.0496   -0.4034    0.7994 C   0  0  0  0  0  0  0  0  0  0  0  0
   -0.8820   -0.1756   -0.0658 C   0  0  0  0  0  0  0  0  0  0  0  0
   -1.2674   -0.4857   -1.3872 O   0  0  0  0  0  0  0  0  0  0  0  0
   -0.4283    1.2317   -0.0229 C   0  0  0  0  0  0  0  0  0  0  0  0
    1.0329    1.4521   -0.0086 C   0  0  0  0  0  0  0  0  0  0  0  0
    1.8677    0.4199   -0.6652 C   0  0  0  0  0  0  0  0  0  0  0  0
    1.3401   -0.9605   -0.6372 C   0  0  0  0  0  0  0  0  0  0  0  0
    0.1868   -1.1691    0.3078 C   0  0  0  0  0  0  0  0  0  0  0  0
   -3.8591   -0.7746    2.1216 H   0  0  0  0  0  0  0  0  0  0  0  0
   -2.1178   -0.9810   -1.3817 H   0  0  0  0  0  0  0  0  0  0  0  0
   -0.8600    1.7042    0.9069 H   0  0  0  0  0  0  0  0  0  0  0  0
   -0.9213    1.7941   -0.8622 H   0  0  0  0  0  0  0  0  0  0  0  0
    1.2354    2.4338   -0.5314 H   0  0  0  0  0  0  0  0  0  0  0  0
    1.4007    1.6276    1.0445 H   0  0  0  0  0  0  0  0  0  0  0  0
    2.1019    0.7015   -1.7341 H   0  0  0  0  0  0  0  0  0  0  0  0
    2.8831    0.4182   -0.1689 H   0  0  0  0  0  0  0  0  0  0  0  0
    0.9593   -1.2418   -1.6611 H   0  0  0  0  0  0  0  0  0  0  0  0
    2.1334   -1.7009   -0.4037 H   0  0  0  0  0  0  0  0  0  0  0  0
   -0.2207   -2.1843    0.1009 H   0  0  0  0  0  0  0  0  0  0  0  0
    0.4833   -1.1129    1.3721 H   0  0  0  0  0  0  0  0  0  0  0  0
  1  2  3  0
  2  3  1  0
  3  4  1  0
  3  5  1  0
  5  6  1  0
  6  7  1  0
  7  8  1  0
  8  9  1  0
  9  3  1  0
  1 10  1  0
  4 11  1  0
  5 12  1  0
  5 13  1  0
  6 14  1  0
  6 15  1  0
  7 16  1  0
  7 17  1  0
  8 18  1  0
  8 19  1  0
  9 20  1  0
  9 21  1  0
M  END
