
     RDKit          3D

 17 17  0  0  0  0  0  0  0  0999 V2000
    0.1653   -2.2723   -1.2191 C   0  0  0  0  0  0  0  0  0  0  0  0
    0.6198   -1.5737   -0.1536 C   0  0  0  0  0  0  0  0  0  0  0  0
    1.1047   -0.8617    0.9266 C   0  0  0  0  0  0  0  0  0  0  0  0
    1.4118    0.4954    0.9862 C   0  0  0  0  0  0  0  0  0  0  0  0
    1.5527    1.4554   -0.0442 C   0  0  0  0  0  0  0  0  0  0  0  0
    1.6775    2.2381   -0.8919 C   0  0  0  0  0  0  0  0  0  0  0  0
   -0.0725    0.1829    1.3052 C   0  0  0  0  0  0  0  0  0  0  0  0
   -0.8577    0.2774    0.1951 O   0  0  0  0  0  0  0  0  0  0  0  0
   -2.1931    0.1374    0.1936 C   0  0  0  0  0  0  0  0  0  0  0  0
   -0.1689   -2.7993   -2.0433 H   0  0  0  0  0  0  0  0  0  0  0  0
    1.3660   -1.4711    1.8876 H   0  0  0  0  0  0  0  0  0  0  0  0
    1.8325    1.0047    2.0196 H   0  0  0  0  0  0  0  0  0  0  0  0
    1.8081    3.1138   -1.8113 H   0  0  0  0  0  0  0  0  0  0  0  0
   -0.3913    0.0062    2.3517 H   0  0  0  0  0  0  0  0  0  0  0  0
   -2.7785    0.8727    0.7316 H   0  0  0  0  0  0  0  0  0  0  0  0
   -2.4092   -0.9294    0.5394 H   0  0  0  0  0  0  0  0  0  0  0  0
   -2.6671    0.1235   -0.8855 H   0  0  0  0  0  0  0  0  0  0  0  0
  1  2  3  0
  2  3  1  0
  3  4  1  0
  4  5  1  0
  5  6  3  0
  4  7  1  0
  7  8  1  0
  8  9  1  0
  7  3  1  0
  1 10  1  0
  3 11  1  0
  4 12  1  0
  6 13  1  0
  7 14  1  0
  9 15  1  0
  9 16  1  0
  9 17  1  0
M  END
