
     RDKit          3D

 17 18  0  0  0  0  0  0  0  0999 V2000
    0.0659    0.0609    0.3099 C   0  0  0  0  0  0  0  0  0  0  0  0
    1.2453   -0.2439    0.2972 C   0  0  0  0  0  0  0  0  0  0  0  0
    2.6572   -0.6291    0.2657 C   0  0  0  0  0  0  0  0  0  0  0  0
    3.6024    0.3030   -0.3645 C   0  0  0  0  0  0  0  0  0  0  0  0
    3.1878   -0.7891   -1.0998 O   0  0  0  0  0  0  0  0  0  0  0  0
   -1.3509    0.4374    0.3414 C   0  0  0  0  0  0  0  0  0  0  0  0
   -2.0710    0.1829   -0.9610 C   0  0  0  0  0  0  0  0  0  0  0  0
   -3.1292   -0.2406    0.0352 C   0  0  0  0  0  0  0  0  0  0  0  0
   -2.0925   -0.5837    0.9039 O   0  0  0  0  0  0  0  0  0  0  0  0
    2.9637   -1.4716    0.8863 H   0  0  0  0  0  0  0  0  0  0  0  0
    4.6817    0.3295   -0.1310 H   0  0  0  0  0  0  0  0  0  0  0  0
    3.1845    1.2648   -0.7250 H   0  0  0  0  0  0  0  0  0  0  0  0
   -1.5751    1.4001    0.8339 H   0  0  0  0  0  0  0  0  0  0  0  0
   -1.5866   -0.6345   -1.5089 H   0  0  0  0  0  0  0  0  0  0  0  0
   -2.3198    1.0859   -1.5504 H   0  0  0  0  0  0  0  0  0  0  0  0
   -3.7485   -1.1068   -0.2947 H   0  0  0  0  0  0  0  0  0  0  0  0
   -3.7149    0.6347    0.3663 H   0  0  0  0  0  0  0  0  0  0  0  0
  1  2  3  0
  2  3  1  0
  3  4  1  0
  4  5  1  0
  1  6  1  0
  6  7  1  0
  7  8  1  0
  8  9  1  0
  5  3  1  0
  9  6  1  0
  3 10  1  0
  4 11  1  0
  4 12  1  0
  6 13  1  0
  7 14  1  0
  7 15  1  0
  8 16  1  0
  8 17  1  0
M  END
