
     RDKit          3D

 21 22  0  0  0  0  0  0  0  0999 V2000
   -0.4244   -0.1595    0.9029 C   0  0  0  0  0  0  0  0  0  0  0  0
    0.6540   -0.0984    1.4799 C   0  0  0  0  0  0  0  0  0  0  0  0
    1.9545   -0.0190    2.1476 C   0  0  0  0  0  0  0  0  0  0  0  0
    3.0309   -1.0255    1.6949 C   0  0  0  0  0  0  0  0  0  0  0  0
    3.0755    0.4716    1.3058 C   0  0  0  0  0  0  0  0  0  0  0  0
   -1.7181   -0.2530    0.2243 C   0  0  0  0  0  0  0  0  0  0  0  0
   -1.4930   -0.0410   -1.2473 C   0  0  0  0  0  0  0  0  0  0  0  0
   -2.7600   -0.1090   -2.1035 C   0  0  0  0  0  0  0  0  0  0  0  0
   -2.0183    1.1574   -1.9430 C   0  0  0  0  0  0  0  0  0  0  0  0
    1.9767    0.1712    3.2416 H   0  0  0  0  0  0  0  0  0  0  0  0
    3.7860   -1.3346    2.4369 H   0  0  0  0  0  0  0  0  0  0  0  0
    2.7596   -1.7403    0.9095 H   0  0  0  0  0  0  0  0  0  0  0  0
    2.8763    0.7033    0.2378 H   0  0  0  0  0  0  0  0  0  0  0  0
    3.8238    1.0951    1.8554 H   0  0  0  0  0  0  0  0  0  0  0  0
   -2.4018    0.5112    0.6558 H   0  0  0  0  0  0  0  0  0  0  0  0
   -2.1537   -1.2715    0.3749 H   0  0  0  0  0  0  0  0  0  0  0  0
   -0.6272   -0.5836   -1.6732 H   0  0  0  0  0  0  0  0  0  0  0  0
   -3.7292   -0.2639   -1.5965 H   0  0  0  0  0  0  0  0  0  0  0  0
   -2.6899   -0.6842   -3.0603 H   0  0  0  0  0  0  0  0  0  0  0  0
   -1.4903    1.5253   -2.8463 H   0  0  0  0  0  0  0  0  0  0  0  0
   -2.4316    1.9483   -1.3140 H   0  0  0  0  0  0  0  0  0  0  0  0
  1  2  3  0
  2  3  1  0
  3  4  1  0
  4  5  1  0
  1  6  1  0
  6  7  1  0
  7  8  1  0
  8  9  1  0
  5  3  1  0
  9  7  1  0
  3 10  1  0
  4 11  1  0
  4 12  1  0
  5 13  1  0
  5 14  1  0
  6 15  1  0
  6 16  1  0
  7 17  1  0
  8 18  1  0
  8 19  1  0
  9 20  1  0
  9 21  1  0
M  END
