
     RDKit          3D

 14 15  0  0  0  0  0  0  0  0999 V2000
   -0.3429    0.0621    0.4392 C   0  0  0  0  0  0  0  0  0  0  0  0
    0.3001   -0.0382   -0.6195 C   0  0  0  0  0  0  0  0  0  0  0  0
    1.0496   -0.1800   -1.8508 C   0  0  0  0  0  0  0  0  0  0  0  0
    2.1475    0.8067   -2.1603 C   0  0  0  0  0  0  0  0  0  0  0  0
    0.9236    0.8108   -2.8259 O   0  0  0  0  0  0  0  0  0  0  0  0
   -1.1155    0.1827    1.6689 C   0  0  0  0  0  0  0  0  0  0  0  0
   -1.9212   -0.9033    2.1044 C   0  0  0  0  0  0  0  0  0  0  0  0
   -2.5289    0.1716    1.4076 O   0  0  0  0  0  0  0  0  0  0  0  0
    1.1507   -1.1993   -2.2857 H   0  0  0  0  0  0  0  0  0  0  0  0
    3.0559    0.5290   -2.6842 H   0  0  0  0  0  0  0  0  0  0  0  0
    2.3000    1.5603   -1.3484 H   0  0  0  0  0  0  0  0  0  0  0  0
   -0.8557    1.0252    2.3721 H   0  0  0  0  0  0  0  0  0  0  0  0
   -1.9497   -1.8605    1.5806 H   0  0  0  0  0  0  0  0  0  0  0  0
   -2.2137   -0.9672    3.1722 H   0  0  0  0  0  0  0  0  0  0  0  0
  1  2  3  0
  2  3  1  0
  3  4  1  0
  4  5  1  0
  1  6  1  0
  6  7  1  0
  7  8  1  0
  5  3  1  0
  8  6  1  0
  3  9  1  0
  4 10  1  0
  4 11  1  0
  6 12  1  0
  7 13  1  0
  7 14  1  0
M  END
