
     RDKit          3D

 18 19  0  0  0  0  0  0  0  0999 V2000
    0.2898    0.4578   -0.6080 C   0  0  0  0  0  0  0  0  0  0  0  0
   -0.5649   -0.1351   -0.4546 C   0  0  0  0  0  0  0  0  0  0  0  0
   -2.0434   -1.1808   -0.2125 C   0  0  0  0  0  0  0  0  0  0  0  0
   -1.9648   -1.2734    1.3739 C   0  0  0  0  0  0  0  0  0  0  0  0
   -2.7609   -0.1702    0.9487 C   0  0  0  0  0  0  0  0  0  0  0  0
    1.4201    1.2596   -0.8306 C   0  0  0  0  0  0  0  0  0  0  0  0
    2.7384    0.6559   -1.3153 C   0  0  0  0  0  0  0  0  0  0  0  0
    2.4996    0.4282    0.1358 C   0  0  0  0  0  0  0  0  0  0  0  0
   -2.5853   -0.9283   -0.9762 H   0  0  0  0  0  0  0  0  0  0  0  0
   -1.0709   -0.9680    2.0224 H   0  0  0  0  0  0  0  0  0  0  0  0
   -2.4592   -2.1555    1.9039 H   0  0  0  0  0  0  0  0  0  0  0  0
   -2.4547    0.8677    0.8970 H   0  0  0  0  0  0  0  0  0  0  0  0
   -3.8701   -0.3408    0.7353 H   0  0  0  0  0  0  0  0  0  0  0  0
    1.3154    2.2783   -0.6606 H   0  0  0  0  0  0  0  0  0  0  0  0
    3.6264    1.2907   -1.4948 H   0  0  0  0  0  0  0  0  0  0  0  0
    2.6454   -0.1434   -2.0804 H   0  0  0  0  0  0  0  0  0  0  0  0
    2.1937   -0.7238    0.2660 H   0  0  0  0  0  0  0  0  0  0  0  0
    3.0452    0.7813    0.9612 H   0  0  0  0  0  0  0  0  0  0  0  0
  1  2  3  0
  2  3  1  0
  3  4  1  0
  4  5  1  0
  1  6  1  0
  6  7  1  0
  7  8  1  0
  5  3  1  0
  8  6  1  0
  3  9  1  0
  4 10  1  0
  4 11  1  0
  5 12  1  0
  5 13  1  0
  6 14  1  0
  7 15  1  0
  7 16  1  0
  8 17  1  0
  8 18  1  0
M  END
