
     RDKit          3D

 19 20  0  0  0  0  0  0  0  0999 V2000
    0.0689    0.2130   -0.8254 C   0  0  0  0  0  0  0  0  0  0  0  0
   -1.0147   -0.2192   -0.5274 C   0  0  0  0  0  0  0  0  0  0  0  0
   -2.3271   -0.7485   -0.1577 C   0  0  0  0  0  0  0  0  0  0  0  0
   -2.6935   -0.9193    1.2597 C   0  0  0  0  0  0  0  0  0  0  0  0
   -3.2962    0.2130    0.5530 C   0  0  0  0  0  0  0  0  0  0  0  0
    1.4143    0.7376   -1.1700 C   0  0  0  0  0  0  0  0  0  0  0  0
    2.4084   -0.0274   -0.3748 C   0  0  0  0  0  0  0  0  0  0  0  0
    3.8150    0.2861   -0.5203 C   0  0  0  0  0  0  0  0  0  0  0  0
    3.0794    0.8272    0.6185 O   0  0  0  0  0  0  0  0  0  0  0  0
   -2.7676   -1.4712   -0.8708 H   0  0  0  0  0  0  0  0  0  0  0  0
   -3.3893   -1.7582    1.5199 H   0  0  0  0  0  0  0  0  0  0  0  0
   -2.0027   -0.6803    2.0927 H   0  0  0  0  0  0  0  0  0  0  0  0
   -2.8685    1.2290    0.7209 H   0  0  0  0  0  0  0  0  0  0  0  0
   -4.3185    0.1967    0.1277 H   0  0  0  0  0  0  0  0  0  0  0  0
    1.5963    0.5502   -2.2673 H   0  0  0  0  0  0  0  0  0  0  0  0
    1.4844    1.8258   -0.9905 H   0  0  0  0  0  0  0  0  0  0  0  0
    2.0870   -0.9768    0.0965 H   0  0  0  0  0  0  0  0  0  0  0  0
    4.6379   -0.3438   -0.1818 H   0  0  0  0  0  0  0  0  0  0  0  0
    4.0863    1.0661   -1.2762 H   0  0  0  0  0  0  0  0  0  0  0  0
  1  2  3  0
  2  3  1  0
  3  4  1  0
  4  5  1  0
  1  6  1  0
  6  7  1  0
  7  8  1  0
  8  9  1  0
  5  3  1  0
  9  7  1  0
  3 10  1  0
  4 11  1  0
  4 12  1  0
  5 13  1  0
  5 14  1  0
  6 15  1  0
  6 16  1  0
  7 17  1  0
  8 18  1  0
  8 19  1  0
M  END
