
     RDKit          3D

 17 18  0  0  0  0  0  0  0  0999 V2000
   -0.0231    0.4245    0.2846 C   0  0  0  0  0  0  0  0  0  0  0  0
    0.9848    0.2700   -0.3935 C   0  0  0  0  0  0  0  0  0  0  0  0
    2.1948    0.0658   -1.1884 C   0  0  0  0  0  0  0  0  0  0  0  0
    3.4015    0.7923   -0.7792 C   0  0  0  0  0  0  0  0  0  0  0  0
    2.5997    1.2916   -1.9407 O   0  0  0  0  0  0  0  0  0  0  0  0
   -1.2411    0.6162    1.0745 C   0  0  0  0  0  0  0  0  0  0  0  0
   -2.3837   -0.1771    0.4627 C   0  0  0  0  0  0  0  0  0  0  0  0
   -2.3276   -1.6027    0.3152 C   0  0  0  0  0  0  0  0  0  0  0  0
   -3.0810   -1.0516    1.3434 O   0  0  0  0  0  0  0  0  0  0  0  0
    2.2381   -0.7990   -1.8611 H   0  0  0  0  0  0  0  0  0  0  0  0
    4.3992    0.5282   -1.1619 H   0  0  0  0  0  0  0  0  0  0  0  0
    3.2838    1.5466    0.0220 H   0  0  0  0  0  0  0  0  0  0  0  0
   -1.0354    0.2868    2.1241 H   0  0  0  0  0  0  0  0  0  0  0  0
   -1.5350    1.6854    1.1290 H   0  0  0  0  0  0  0  0  0  0  0  0
   -3.0978    0.4094   -0.1515 H   0  0  0  0  0  0  0  0  0  0  0  0
   -1.4339   -2.2070    0.5691 H   0  0  0  0  0  0  0  0  0  0  0  0
   -2.9432   -2.0794   -0.4788 H   0  0  0  0  0  0  0  0  0  0  0  0
  1  2  3  0
  2  3  1  0
  3  4  1  0
  4  5  1  0
  1  6  1  0
  6  7  1  0
  7  8  1  0
  8  9  1  0
  5  3  1  0
  9  7  1  0
  3 10  1  0
  4 11  1  0
  4 12  1  0
  6 13  1  0
  6 14  1  0
  7 15  1  0
  8 16  1  0
  8 17  1  0
M  END
