
     RDKit          3D

 19 20  0  0  0  0  0  0  0  0999 V2000
    0.1260   -0.8069    0.3323 C   0  0  0  0  0  0  0  0  0  0  0  0
   -0.7501   -0.1479   -0.2025 C   0  0  0  0  0  0  0  0  0  0  0  0
   -1.7977    0.6592   -0.8280 C   0  0  0  0  0  0  0  0  0  0  0  0
   -1.1998    1.8426   -1.5363 C   0  0  0  0  0  0  0  0  0  0  0  0
   -2.2078    2.6770   -1.0171 O   0  0  0  0  0  0  0  0  0  0  0  0
   -2.3570    1.7647    0.0405 C   0  0  0  0  0  0  0  0  0  0  0  0
    1.1909   -1.5858    0.9705 C   0  0  0  0  0  0  0  0  0  0  0  0
    2.1232   -2.2634    0.0546 C   0  0  0  0  0  0  0  0  0  0  0  0
    2.6257   -1.0306    0.8351 C   0  0  0  0  0  0  0  0  0  0  0  0
   -2.5439    0.0939   -1.4049 H   0  0  0  0  0  0  0  0  0  0  0  0
   -1.3514    1.7295   -2.6303 H   0  0  0  0  0  0  0  0  0  0  0  0
   -0.2105    2.1608   -1.2173 H   0  0  0  0  0  0  0  0  0  0  0  0
   -3.4377    1.5822    0.2570 H   0  0  0  0  0  0  0  0  0  0  0  0
   -1.7448    2.0078    0.9316 H   0  0  0  0  0  0  0  0  0  0  0  0
    0.9374   -2.0762    1.9393 H   0  0  0  0  0  0  0  0  0  0  0  0
    2.0224   -2.1244   -1.0420 H   0  0  0  0  0  0  0  0  0  0  0  0
    2.5855   -3.2011    0.4135 H   0  0  0  0  0  0  0  0  0  0  0  0
    2.7358   -0.0919    0.2332 H   0  0  0  0  0  0  0  0  0  0  0  0
    3.2538   -1.1895    1.7124 H   0  0  0  0  0  0  0  0  0  0  0  0
  1  2  3  0
  2  3  1  0
  3  4  1  0
  4  5  1  0
  5  6  1  0
  1  7  1  0
  7  8  1  0
  8  9  1  0
  6  3  1  0
  9  7  1  0
  3 10  1  0
  4 11  1  0
  4 12  1  0
  6 13  1  0
  6 14  1  0
  7 15  1  0
  8 16  1  0
  8 17  1  0
  9 18  1  0
  9 19  1  0
M  END
