
     RDKit          3D

 19 20  0  0  0  0  0  0  0  0999 V2000
   -0.8356    0.2652    0.0074 C   0  0  0  0  0  0  0  0  0  0  0  0
    0.3251   -0.1879   -0.0365 C   0  0  0  0  0  0  0  0  0  0  0  0
    1.6477   -0.7009   -0.1112 C   0  0  0  0  0  0  0  0  0  0  0  0
    2.6083    0.3282    0.5332 C   0  0  0  0  0  0  0  0  0  0  0  0
    3.5193   -0.4948   -0.3907 C   0  0  0  0  0  0  0  0  0  0  0  0
    2.3955   -0.5083   -1.2620 O   0  0  0  0  0  0  0  0  0  0  0  0
   -2.1935    0.8206    0.0701 C   0  0  0  0  0  0  0  0  0  0  0  0
   -3.1460    0.4187   -1.0456 C   0  0  0  0  0  0  0  0  0  0  0  0
   -3.3649   -0.0870    0.3138 C   0  0  0  0  0  0  0  0  0  0  0  0
    1.8477   -1.6690    0.3967 H   0  0  0  0  0  0  0  0  0  0  0  0
    2.8479    0.0906    1.5865 H   0  0  0  0  0  0  0  0  0  0  0  0
    2.4530    1.3533    0.2318 H   0  0  0  0  0  0  0  0  0  0  0  0
    4.4050    0.0031   -0.7621 H   0  0  0  0  0  0  0  0  0  0  0  0
    3.6140   -1.4994    0.0576 H   0  0  0  0  0  0  0  0  0  0  0  0
   -2.2970    1.8403    0.4543 H   0  0  0  0  0  0  0  0  0  0  0  0
   -2.7197   -0.3047   -1.7995 H   0  0  0  0  0  0  0  0  0  0  0  0
   -3.7946    1.1670   -1.5238 H   0  0  0  0  0  0  0  0  0  0  0  0
   -3.0948   -1.1368    0.5476 H   0  0  0  0  0  0  0  0  0  0  0  0
   -4.2174    0.3018    0.9312 H   0  0  0  0  0  0  0  0  0  0  0  0
  1  2  3  0
  2  3  1  0
  3  4  1  0
  4  5  1  0
  5  6  1  0
  1  7  1  0
  7  8  1  0
  8  9  1  0
  6  3  1  0
  9  7  1  0
  3 10  1  0
  4 11  1  0
  4 12  1  0
  5 13  1  0
  5 14  1  0
  7 15  1  0
  8 16  1  0
  8 17  1  0
  9 18  1  0
  9 19  1  0
M  END
