
     RDKit          3D

 21 22  0  0  0  0  0  0  0  0999 V2000
   -0.1795    0.0816    0.2335 C   0  0  0  0  0  0  0  0  0  0  0  0
   -1.1877   -1.0476    0.1454 C   0  0  0  0  0  0  0  0  0  0  0  0
   -2.5481   -0.5274    0.5017 C   0  0  0  0  0  0  0  0  0  0  0  0
   -3.0911    0.5724   -0.3535 C   0  0  0  0  0  0  0  0  0  0  0  0
   -3.6164   -0.7555   -0.3686 O   0  0  0  0  0  0  0  0  0  0  0  0
    1.2094   -0.4265   -0.1250 C   0  0  0  0  0  0  0  0  0  0  0  0
    2.1505    0.7319   -0.0185 C   0  0  0  0  0  0  0  0  0  0  0  0
    3.5439    0.5391   -0.3044 C   0  0  0  0  0  0  0  0  0  0  0  0
    3.0795    0.7056    1.0636 O   0  0  0  0  0  0  0  0  0  0  0  0
   -0.5150    0.9019   -0.3975 H   0  0  0  0  0  0  0  0  0  0  0  0
   -0.1045    0.3682    1.3231 H   0  0  0  0  0  0  0  0  0  0  0  0
   -1.1421   -1.5830   -0.8124 H   0  0  0  0  0  0  0  0  0  0  0  0
   -0.8828   -1.7840    0.9424 H   0  0  0  0  0  0  0  0  0  0  0  0
   -2.8454   -0.5348    1.5597 H   0  0  0  0  0  0  0  0  0  0  0  0
   -3.7105    1.3347    0.1644 H   0  0  0  0  0  0  0  0  0  0  0  0
   -2.6178    0.8244   -1.3103 H   0  0  0  0  0  0  0  0  0  0  0  0
    1.4807   -1.1817    0.6423 H   0  0  0  0  0  0  0  0  0  0  0  0
    1.1483   -0.8648   -1.1317 H   0  0  0  0  0  0  0  0  0  0  0  0
    1.7293    1.7656   -0.1491 H   0  0  0  0  0  0  0  0  0  0  0  0
    4.1612    1.3756   -0.6899 H   0  0  0  0  0  0  0  0  0  0  0  0
    3.9380   -0.4957   -0.4245 H   0  0  0  0  0  0  0  0  0  0  0  0
  1  2  1  0
  2  3  1  0
  3  4  1  0
  4  5  1  0
  1  6  1  0
  6  7  1  0
  7  8  1  0
  8  9  1  0
  5  3  1  0
  9  7  1  0
  1 10  1  0
  1 11  1  0
  2 12  1  0
  2 13  1  0
  3 14  1  0
  4 15  1  0
  4 16  1  0
  6 17  1  0
  6 18  1  0
  7 19  1  0
  8 20  1  0
  8 21  1  0
M  END
