
     RDKit          3D

 21 22  0  0  0  0  0  0  0  0999 V2000
    0.2376    0.0490   -1.1371 C   0  0  0  0  0  0  0  0  0  0  0  0
    1.5117   -0.7782   -1.1212 C   0  0  0  0  0  0  0  0  0  0  0  0
    2.1521   -0.6414    0.2263 C   0  0  0  0  0  0  0  0  0  0  0  0
    2.5753    0.6193    0.7545 C   0  0  0  0  0  0  0  0  0  0  0  0
    3.5332   -0.3995    0.2504 O   0  0  0  0  0  0  0  0  0  0  0  0
   -0.5978   -0.4455   -0.1391 O   0  0  0  0  0  0  0  0  0  0  0  0
   -1.7578    0.2912   -0.1377 C   0  0  0  0  0  0  0  0  0  0  0  0
   -3.0451   -0.3265    0.3290 C   0  0  0  0  0  0  0  0  0  0  0  0
   -2.3123    0.5295    1.2686 C   0  0  0  0  0  0  0  0  0  0  0  0
   -0.2575   -0.0179   -2.1332 H   0  0  0  0  0  0  0  0  0  0  0  0
    0.4434    1.1100   -0.9049 H   0  0  0  0  0  0  0  0  0  0  0  0
    2.1827   -0.3481   -1.9069 H   0  0  0  0  0  0  0  0  0  0  0  0
    1.3146   -1.8284   -1.4171 H   0  0  0  0  0  0  0  0  0  0  0  0
    1.8569   -1.4404    0.9427 H   0  0  0  0  0  0  0  0  0  0  0  0
    2.6511    0.7478    1.8629 H   0  0  0  0  0  0  0  0  0  0  0  0
    2.7372    1.5300    0.1887 H   0  0  0  0  0  0  0  0  0  0  0  0
   -1.8468    1.1000   -0.8693 H   0  0  0  0  0  0  0  0  0  0  0  0
   -2.9861   -1.4270    0.4928 H   0  0  0  0  0  0  0  0  0  0  0  0
   -3.9694    0.0397   -0.1256 H   0  0  0  0  0  0  0  0  0  0  0  0
   -1.8279    0.0510    2.1242 H   0  0  0  0  0  0  0  0  0  0  0  0
   -2.5948    1.5855    1.4518 H   0  0  0  0  0  0  0  0  0  0  0  0
  1  2  1  0
  2  3  1  0
  3  4  1  0
  4  5  1  0
  1  6  1  0
  6  7  1  0
  7  8  1  0
  8  9  1  0
  5  3  1  0
  9  7  1  0
  1 10  1  0
  1 11  1  0
  2 12  1  0
  2 13  1  0
  3 14  1  0
  4 15  1  0
  4 16  1  0
  7 17  1  0
  8 18  1  0
  8 19  1  0
  9 20  1  0
  9 21  1  0
M  END
