
     RDKit          3D

 23 24  0  0  0  0  0  0  0  0999 V2000
    0.1943   -1.3639   -0.3031 C   0  0  0  0  0  0  0  0  0  0  0  0
   -1.2599   -1.5240    0.0702 C   0  0  0  0  0  0  0  0  0  0  0  0
   -2.0087   -0.3195   -0.4544 C   0  0  0  0  0  0  0  0  0  0  0  0
   -1.6980    1.0483   -0.0384 C   0  0  0  0  0  0  0  0  0  0  0  0
   -2.9807    0.3364    0.4518 C   0  0  0  0  0  0  0  0  0  0  0  0
    0.6807   -0.2121    0.2664 O   0  0  0  0  0  0  0  0  0  0  0  0
    2.0060   -0.0222   -0.0460 C   0  0  0  0  0  0  0  0  0  0  0  0
    2.8213    0.6925    0.9667 C   0  0  0  0  0  0  0  0  0  0  0  0
    2.5250    1.3663   -0.3342 C   0  0  0  0  0  0  0  0  0  0  0  0
    0.3426   -1.3133   -1.3807 H   0  0  0  0  0  0  0  0  0  0  0  0
    0.7281   -2.2399    0.1150 H   0  0  0  0  0  0  0  0  0  0  0  0
   -1.3899   -1.6631    1.1538 H   0  0  0  0  0  0  0  0  0  0  0  0
   -1.6988   -2.4372   -0.4074 H   0  0  0  0  0  0  0  0  0  0  0  0
   -2.2639   -0.4426   -1.5492 H   0  0  0  0  0  0  0  0  0  0  0  0
   -1.8738    1.8821   -0.7763 H   0  0  0  0  0  0  0  0  0  0  0  0
   -0.9921    1.3404    0.7396 H   0  0  0  0  0  0  0  0  0  0  0  0
   -2.9479    0.0186    1.4993 H   0  0  0  0  0  0  0  0  0  0  0  0
   -3.9343    0.6323    0.0157 H   0  0  0  0  0  0  0  0  0  0  0  0
    2.4685   -0.8008   -0.6892 H   0  0  0  0  0  0  0  0  0  0  0  0
    2.3214    1.1235    1.8391 H   0  0  0  0  0  0  0  0  0  0  0  0
    3.8261    0.2663    1.1470 H   0  0  0  0  0  0  0  0  0  0  0  0
    3.3989    1.4839   -1.0037 H   0  0  0  0  0  0  0  0  0  0  0  0
    1.7350    2.1481   -0.3508 H   0  0  0  0  0  0  0  0  0  0  0  0
  1  2  1  0
  2  3  1  0
  3  4  1  0
  4  5  1  0
  1  6  1  0
  6  7  1  0
  7  8  1  0
  8  9  1  0
  5  3  1  0
  9  7  1  0
  1 10  1  0
  1 11  1  0
  2 12  1  0
  2 13  1  0
  3 14  1  0
  4 15  1  0
  4 16  1  0
  5 17  1  0
  5 18  1  0
  7 19  1  0
  8 20  1  0
  8 21  1  0
  9 22  1  0
  9 23  1  0
M  END
