
     RDKit          3D

 23 23  0  0  0  0  0  0  0  0999 V2000
   -0.4197   -1.4379    0.0510 C   0  0  0  0  0  0  0  0  0  0  0  0
    0.6183   -1.2911   -0.0715 C   0  0  0  0  0  0  0  0  0  0  0  0
    2.0512   -1.1023   -0.2513 C   0  0  0  0  0  0  0  0  0  0  0  0
    1.9388    0.3131   -0.8765 C   0  0  0  0  0  0  0  0  0  0  0  0
    1.3206    1.2041    0.1609 C   0  0  0  0  0  0  0  0  0  0  0  0
   -0.0751    1.0355    0.6266 C   0  0  0  0  0  0  0  0  0  0  0  0
   -1.1148    0.7351   -0.3995 C   0  0  0  0  0  0  0  0  0  0  0  0
   -2.3116   -0.1417    0.0127 C   0  0  0  0  0  0  0  0  0  0  0  0
   -1.8164   -1.6486    0.2323 C   0  0  0  0  0  0  0  0  0  0  0  0
    2.7548   -1.7726   -0.5112 H   0  0  0  0  0  0  0  0  0  0  0  0
    2.1954   -0.8193    0.9569 H   0  0  0  0  0  0  0  0  0  0  0  0
    1.3055    0.2672   -1.8287 H   0  0  0  0  0  0  0  0  0  0  0  0
    2.9567    0.6421   -1.1390 H   0  0  0  0  0  0  0  0  0  0  0  0
    1.9905    1.0977    1.1037 H   0  0  0  0  0  0  0  0  0  0  0  0
    1.5547    2.2756   -0.1142 H   0  0  0  0  0  0  0  0  0  0  0  0
   -0.1920    0.3593    1.5441 H   0  0  0  0  0  0  0  0  0  0  0  0
   -0.3239    2.0820    1.1422 H   0  0  0  0  0  0  0  0  0  0  0  0
   -0.6811    0.5039   -1.3698 H   0  0  0  0  0  0  0  0  0  0  0  0
   -1.6736    1.7450   -0.5446 H   0  0  0  0  0  0  0  0  0  0  0  0
   -2.9237   -0.1761   -0.8978 H   0  0  0  0  0  0  0  0  0  0  0  0
   -2.7885    0.1575    0.8860 H   0  0  0  0  0  0  0  0  0  0  0  0
   -2.4363   -2.3505   -0.1621 H   0  0  0  0  0  0  0  0  0  0  0  0
   -1.9299   -1.6779    1.4499 H   0  0  0  0  0  0  0  0  0  0  0  0
  1  2  3  0
  2  3  1  0
  3  4  1  0
  4  5  1  0
  5  6  1  0
  6  7  1  0
  7  8  1  0
  8  9  1  0
  9  1  1  0
  3 10  1  0
  3 11  1  0
  4 12  1  0
  4 13  1  0
  5 14  1  0
  5 15  1  0
  6 16  1  0
  6 17  1  0
  7 18  1  0
  7 19  1  0
  8 20  1  0
  8 21  1  0
  9 22  1  0
  9 23  1  0
M  END
