
     RDKit          3D

 19 19  0  0  0  0  0  0  0  0999 V2000
   -0.4554   -1.3003   -0.0809 C   0  0  0  0  0  0  0  0  0  0  0  0
    0.4552   -1.2248    0.4608 C   0  0  0  0  0  0  0  0  0  0  0  0
    1.6471   -1.1034    1.1598 C   0  0  0  0  0  0  0  0  0  0  0  0
    2.1266    0.3132    0.6814 C   0  0  0  0  0  0  0  0  0  0  0  0
    1.1446    1.1678    0.3746 C   0  0  0  0  0  0  0  0  0  0  0  0
   -0.2631    1.2289    0.3259 C   0  0  0  0  0  0  0  0  0  0  0  0
   -1.1275    1.0480   -0.8115 C   0  0  0  0  0  0  0  0  0  0  0  0
   -1.7681    0.0433   -1.3444 C   0  0  0  0  0  0  0  0  0  0  0  0
   -1.7388   -1.4031   -0.8139 C   0  0  0  0  0  0  0  0  0  0  0  0
    2.4869   -1.7323    0.7494 H   0  0  0  0  0  0  0  0  0  0  0  0
    1.6424   -1.0849    2.2077 H   0  0  0  0  0  0  0  0  0  0  0  0
    3.1277    0.4914    0.6581 H   0  0  0  0  0  0  0  0  0  0  0  0
    1.6713    2.1481    0.0599 H   0  0  0  0  0  0  0  0  0  0  0  0
   -0.7091    0.7136    1.2596 H   0  0  0  0  0  0  0  0  0  0  0  0
   -0.5403    2.3537    0.7369 H   0  0  0  0  0  0  0  0  0  0  0  0
   -1.3101    1.9886   -1.4463 H   0  0  0  0  0  0  0  0  0  0  0  0
   -2.3896    0.1129   -2.2160 H   0  0  0  0  0  0  0  0  0  0  0  0
   -1.4660   -2.0479   -1.7183 H   0  0  0  0  0  0  0  0  0  0  0  0
   -2.5337   -1.7127   -0.2428 H   0  0  0  0  0  0  0  0  0  0  0  0
  1  2  3  0
  2  3  1  0
  3  4  1  0
  4  5  2  3
  5  6  1  0
  6  7  1  0
  7  8  2  3
  8  9  1  0
  9  1  1  0
  3 10  1  0
  3 11  1  0
  4 12  1  0
  5 13  1  0
  6 14  1  0
  6 15  1  0
  7 16  1  0
  8 17  1  0
  9 18  1  0
  9 19  1  0
M  END
