
     RDKit          3D

 21 21  0  0  0  0  0  0  0  0999 V2000
    0.8602    1.1067    0.4860 C   0  0  0  0  0  0  0  0  0  0  0  0
   -0.2141    1.3367    0.4502 C   0  0  0  0  0  0  0  0  0  0  0  0
   -1.6331    1.6151    0.3986 C   0  0  0  0  0  0  0  0  0  0  0  0
   -2.1461    0.2415   -0.1045 C   0  0  0  0  0  0  0  0  0  0  0  0
   -1.0259   -0.6252   -0.5905 C   0  0  0  0  0  0  0  0  0  0  0  0
   -0.1018   -1.2211    0.3810 C   0  0  0  0  0  0  0  0  0  0  0  0
    1.2899   -1.4556   -0.0406 C   0  0  0  0  0  0  0  0  0  0  0  0
    2.3418   -0.6578   -0.0021 C   0  0  0  0  0  0  0  0  0  0  0  0
    2.2307    0.7957    0.5494 C   0  0  0  0  0  0  0  0  0  0  0  0
   -2.0787    1.9095    1.3224 H   0  0  0  0  0  0  0  0  0  0  0  0
   -1.8229    2.3351   -0.3988 H   0  0  0  0  0  0  0  0  0  0  0  0
   -2.8809    0.4458   -0.8735 H   0  0  0  0  0  0  0  0  0  0  0  0
   -2.6106   -0.2202    0.7675 H   0  0  0  0  0  0  0  0  0  0  0  0
   -1.4648   -1.4019   -1.2553 H   0  0  0  0  0  0  0  0  0  0  0  0
   -0.3997   -0.0083   -1.3250 H   0  0  0  0  0  0  0  0  0  0  0  0
   -0.1143   -0.8279    1.4236 H   0  0  0  0  0  0  0  0  0  0  0  0
   -0.5277   -2.2914    0.5841 H   0  0  0  0  0  0  0  0  0  0  0  0
    1.5524   -2.4725   -0.4656 H   0  0  0  0  0  0  0  0  0  0  0  0
    3.3200   -0.9396   -0.3416 H   0  0  0  0  0  0  0  0  0  0  0  0
    2.6308    0.8613    1.5549 H   0  0  0  0  0  0  0  0  0  0  0  0
    2.7948    1.4743   -0.1151 H   0  0  0  0  0  0  0  0  0  0  0  0
  1  2  3  0
  2  3  1  0
  3  4  1  0
  4  5  1  0
  5  6  1  0
  6  7  1  0
  7  8  2  3
  8  9  1  0
  9  1  1  0
  3 10  1  0
  3 11  1  0
  4 12  1  0
  4 13  1  0
  5 14  1  0
  5 15  1  0
  6 16  1  0
  6 17  1  0
  7 18  1  0
  8 19  1  0
  9 20  1  0
  9 21  1  0
M  END
