
     RDKit          3D

 17 17  0  0  0  0  0  0  0  0999 V2000
    1.2607   -0.4992   -0.1622 C   0  0  0  0  0  0  0  0  0  0  0  0
    0.7640   -1.1442    0.3951 C   0  0  0  0  0  0  0  0  0  0  0  0
    0.0557   -2.0403    1.1542 C   0  0  0  0  0  0  0  0  0  0  0  0
   -0.9954   -0.9562    1.6295 O   0  0  0  0  0  0  0  0  0  0  0  0
   -1.3204   -0.3936    0.4064 C   0  0  0  0  0  0  0  0  0  0  0  0
   -1.0246    0.9774    0.0218 C   0  0  0  0  0  0  0  0  0  0  0  0
   -0.1383    1.6983   -0.5353 C   0  0  0  0  0  0  0  0  0  0  0  0
    1.1723    1.5642   -1.1523 C   0  0  0  0  0  0  0  0  0  0  0  0
    1.9613    0.4205   -0.9803 C   0  0  0  0  0  0  0  0  0  0  0  0
    0.3520   -2.4511    2.0903 H   0  0  0  0  0  0  0  0  0  0  0  0
   -0.6814   -2.6372    0.6060 H   0  0  0  0  0  0  0  0  0  0  0  0
   -2.4842   -0.5339    0.3660 H   0  0  0  0  0  0  0  0  0  0  0  0
   -1.0516   -1.1094   -0.4555 H   0  0  0  0  0  0  0  0  0  0  0  0
   -1.9132    1.6465    0.3912 H   0  0  0  0  0  0  0  0  0  0  0  0
   -0.4509    2.8426   -0.6183 H   0  0  0  0  0  0  0  0  0  0  0  0
    1.6057    2.2871   -1.7681 H   0  0  0  0  0  0  0  0  0  0  0  0
    2.8884    0.3283   -1.3886 H   0  0  0  0  0  0  0  0  0  0  0  0
  1  2  3  0
  2  3  1  0
  3  4  1  0
  4  5  1  0
  5  6  1  0
  6  7  2  3
  7  8  1  0
  8  9  2  3
  9  1  1  0
  3 10  1  0
  3 11  1  0
  5 12  1  0
  5 13  1  0
  6 14  1  0
  7 15  1  0
  8 16  1  0
  9 17  1  0
M  END
