
     RDKit          3D

 19 19  0  0  0  0  0  0  0  0999 V2000
   -0.1955   -1.2131    0.6157 C   0  0  0  0  0  0  0  0  0  0  0  0
   -1.0852   -0.7130    0.2489 C   0  0  0  0  0  0  0  0  0  0  0  0
   -2.2373   -0.0386   -0.2403 C   0  0  0  0  0  0  0  0  0  0  0  0
   -1.5732    1.2848   -0.8461 C   0  0  0  0  0  0  0  0  0  0  0  0
   -0.2409    0.8637   -1.0823 O   0  0  0  0  0  0  0  0  0  0  0  0
    0.6411    1.0848   -0.0761 C   0  0  0  0  0  0  0  0  0  0  0  0
    1.8395    0.2620    0.0345 C   0  0  0  0  0  0  0  0  0  0  0  0
    2.0719   -0.9338    0.4912 C   0  0  0  0  0  0  0  0  0  0  0  0
    0.9811   -1.8484    1.0861 C   0  0  0  0  0  0  0  0  0  0  0  0
   -2.9399    0.2641    0.5366 H   0  0  0  0  0  0  0  0  0  0  0  0
   -2.6850   -0.5658   -1.1040 H   0  0  0  0  0  0  0  0  0  0  0  0
   -1.6682    2.0644   -0.1009 H   0  0  0  0  0  0  0  0  0  0  0  0
   -2.0526    1.5233   -1.7831 H   0  0  0  0  0  0  0  0  0  0  0  0
    0.9841    2.1679   -0.2507 H   0  0  0  0  0  0  0  0  0  0  0  0
    0.1392    1.1694    0.9161 H   0  0  0  0  0  0  0  0  0  0  0  0
    2.7735    0.7509   -0.3591 H   0  0  0  0  0  0  0  0  0  0  0  0
    3.0543   -1.3656    0.4820 H   0  0  0  0  0  0  0  0  0  0  0  0
    1.0815   -2.8391    0.6146 H   0  0  0  0  0  0  0  0  0  0  0  0
    1.1114   -1.9180    2.1611 H   0  0  0  0  0  0  0  0  0  0  0  0
  1  2  3  0
  2  3  1  0
  3  4  1  0
  4  5  1  0
  5  6  1  0
  6  7  1  0
  7  8  2  3
  8  9  1  0
  9  1  1  0
  3 10  1  0
  3 11  1  0
  4 12  1  0
  4 13  1  0
  6 14  1  0
  6 15  1  0
  7 16  1  0
  8 17  1  0
  9 18  1  0
  9 19  1  0
M  END
