
     RDKit          3D

 19 19  0  0  0  0  0  0  0  0999 V2000
   -0.1360    0.7669   -1.4897 C   0  0  0  0  0  0  0  0  0  0  0  0
    0.5301    0.0057   -1.6851 C   0  0  0  0  0  0  0  0  0  0  0  0
    1.4177   -1.0169   -1.9227 C   0  0  0  0  0  0  0  0  0  0  0  0
    1.6353   -1.6206   -0.5943 O   0  0  0  0  0  0  0  0  0  0  0  0
    0.6695   -1.5019    0.3728 C   0  0  0  0  0  0  0  0  0  0  0  0
   -0.0241   -0.2549    0.3555 C   0  0  0  0  0  0  0  0  0  0  0  0
   -0.9200    0.6260    1.0989 C   0  0  0  0  0  0  0  0  0  0  0  0
   -1.4295    1.6831    0.1656 C   0  0  0  0  0  0  0  0  0  0  0  0
   -1.0094    1.7549   -1.2120 C   0  0  0  0  0  0  0  0  0  0  0  0
    2.4228   -0.5999   -2.0754 H   0  0  0  0  0  0  0  0  0  0  0  0
    1.2935   -1.7805   -2.6761 H   0  0  0  0  0  0  0  0  0  0  0  0
    0.0547   -2.4617    0.3764 H   0  0  0  0  0  0  0  0  0  0  0  0
    1.2702   -1.5608    1.3520 H   0  0  0  0  0  0  0  0  0  0  0  0
    0.8114    0.4352    0.2871 H   0  0  0  0  0  0  0  0  0  0  0  0
   -0.8272   -0.5960   -0.3140 H   0  0  0  0  0  0  0  0  0  0  0  0
   -1.8281    0.0879    1.5161 H   0  0  0  0  0  0  0  0  0  0  0  0
   -0.3975    1.1280    1.9648 H   0  0  0  0  0  0  0  0  0  0  0  0
   -2.1182    2.4035    0.5162 H   0  0  0  0  0  0  0  0  0  0  0  0
   -1.4151    2.5020   -1.7401 H   0  0  0  0  0  0  0  0  0  0  0  0
  1  2  3  0
  2  3  1  0
  3  4  1  0
  4  5  1  0
  5  6  1  0
  6  7  1  0
  7  8  1  0
  8  9  2  3
  9  1  1  0
  3 10  1  0
  3 11  1  0
  5 12  1  0
  5 13  1  0
  6 14  1  0
  6 15  1  0
  7 16  1  0
  7 17  1  0
  8 18  1  0
  9 19  1  0
M  END
