
     RDKit          3D

 19 19  0  0  0  0  0  0  0  0999 V2000
   -1.1192   -0.4250    0.5493 C   0  0  0  0  0  0  0  0  0  0  0  0
   -1.2875    0.6629    0.0004 C   0  0  0  0  0  0  0  0  0  0  0  0
   -1.4573    1.8320   -0.6118 C   0  0  0  0  0  0  0  0  0  0  0  0
   -0.1240    2.0669   -1.2902 O   0  0  0  0  0  0  0  0  0  0  0  0
    0.7744    1.3011   -0.4893 C   0  0  0  0  0  0  0  0  0  0  0  0
    0.9053   -0.1336   -0.8389 C   0  0  0  0  0  0  0  0  0  0  0  0
    1.3099   -1.1078    0.1774 C   0  0  0  0  0  0  0  0  0  0  0  0
    0.6261   -1.7918    1.0682 C   0  0  0  0  0  0  0  0  0  0  0  0
   -0.9209   -1.6066    1.1670 C   0  0  0  0  0  0  0  0  0  0  0  0
   -1.6220    2.7049    0.0428 H   0  0  0  0  0  0  0  0  0  0  0  0
   -2.1298    1.9013   -1.4684 H   0  0  0  0  0  0  0  0  0  0  0  0
    0.5538    1.4927    0.5770 H   0  0  0  0  0  0  0  0  0  0  0  0
    1.7740    1.7851   -0.6992 H   0  0  0  0  0  0  0  0  0  0  0  0
    1.7561   -0.2188   -1.6435 H   0  0  0  0  0  0  0  0  0  0  0  0
    0.0415   -0.4547   -1.4822 H   0  0  0  0  0  0  0  0  0  0  0  0
    2.4186   -1.3401    0.2518 H   0  0  0  0  0  0  0  0  0  0  0  0
    1.0372   -2.4977    1.7590 H   0  0  0  0  0  0  0  0  0  0  0  0
   -1.1483   -1.6838    2.2617 H   0  0  0  0  0  0  0  0  0  0  0  0
   -1.3879   -2.4867    0.6692 H   0  0  0  0  0  0  0  0  0  0  0  0
  1  2  3  0
  2  3  1  0
  3  4  1  0
  4  5  1  0
  5  6  1  0
  6  7  1  0
  7  8  2  3
  8  9  1  0
  9  1  1  0
  3 10  1  0
  3 11  1  0
  5 12  1  0
  5 13  1  0
  6 14  1  0
  6 15  1  0
  7 16  1  0
  8 17  1  0
  9 18  1  0
  9 19  1  0
M  END
