
     RDKit          3D

 17 17  0  0  0  0  0  0  0  0999 V2000
    0.7878   -1.2598   -0.7337 C   0  0  0  0  0  0  0  0  0  0  0  0
   -0.6065   -1.3449   -0.5088 C   0  0  0  0  0  0  0  0  0  0  0  0
   -1.7274   -1.4157   -0.3481 C   0  0  0  0  0  0  0  0  0  0  0  0
   -2.1544   -0.2110    0.3461 C   0  0  0  0  0  0  0  0  0  0  0  0
   -1.3176    0.8509    0.7310 C   0  0  0  0  0  0  0  0  0  0  0  0
    0.0318    0.2282    0.8547 O   0  0  0  0  0  0  0  0  0  0  0  0
    0.9830    0.8284    0.2293 C   0  0  0  0  0  0  0  0  0  0  0  0
    2.2317    0.1669   -0.1976 C   0  0  0  0  0  0  0  0  0  0  0  0
    2.1151   -1.1554   -0.9454 C   0  0  0  0  0  0  0  0  0  0  0  0
   -2.6092   -1.9771   -0.5342 H   0  0  0  0  0  0  0  0  0  0  0  0
   -3.3137   -0.1949    0.3723 H   0  0  0  0  0  0  0  0  0  0  0  0
   -1.1974    1.7329   -0.0951 H   0  0  0  0  0  0  0  0  0  0  0  0
   -1.3563    1.3621    1.7115 H   0  0  0  0  0  0  0  0  0  0  0  0
    1.3218    1.7836    0.8715 H   0  0  0  0  0  0  0  0  0  0  0  0
    0.8048    1.4914   -0.7283 H   0  0  0  0  0  0  0  0  0  0  0  0
    3.1808    0.5133    0.2607 H   0  0  0  0  0  0  0  0  0  0  0  0
    2.8255   -1.3989   -1.2858 H   0  0  0  0  0  0  0  0  0  0  0  0
  1  2  3  0
  2  3  1  0
  3  4  2  3
  4  5  1  0
  5  6  1  0
  6  7  1  0
  7  8  1  0
  8  9  2  3
  9  1  1  0
  3 10  1  0
  4 11  1  0
  5 12  1  0
  5 13  1  0
  7 14  1  0
  7 15  1  0
  8 16  1  0
  9 17  1  0
M  END
