
     RDKit          3D

 19 19  0  0  0  0  0  0  0  0999 V2000
    0.6935   -1.2317   -0.3349 C   0  0  0  0  0  0  0  0  0  0  0  0
   -0.3013   -1.1097   -0.7067 C   0  0  0  0  0  0  0  0  0  0  0  0
   -1.6213   -0.9250   -1.1903 C   0  0  0  0  0  0  0  0  0  0  0  0
   -1.8736    0.5674   -0.7411 C   0  0  0  0  0  0  0  0  0  0  0  0
   -0.8091    1.0036    0.2400 C   0  0  0  0  0  0  0  0  0  0  0  0
    0.4962    0.8337   -0.0882 O   0  0  0  0  0  0  0  0  0  0  0  0
    1.3255    0.7923    1.0171 C   0  0  0  0  0  0  0  0  0  0  0  0
    2.3828   -0.2772    0.9095 C   0  0  0  0  0  0  0  0  0  0  0  0
    1.9873   -1.3682    0.1587 C   0  0  0  0  0  0  0  0  0  0  0  0
   -1.7388   -0.9575   -2.2661 H   0  0  0  0  0  0  0  0  0  0  0  0
   -2.3583   -1.5148   -0.6266 H   0  0  0  0  0  0  0  0  0  0  0  0
   -2.8348    0.5473   -0.2366 H   0  0  0  0  0  0  0  0  0  0  0  0
   -1.9059    1.1600   -1.6524 H   0  0  0  0  0  0  0  0  0  0  0  0
   -1.0316    0.4936    1.2218 H   0  0  0  0  0  0  0  0  0  0  0  0
   -0.9890    2.0827    0.4216 H   0  0  0  0  0  0  0  0  0  0  0  0
    1.8272    1.7566    1.2232 H   0  0  0  0  0  0  0  0  0  0  0  0
    0.7630    0.5446    1.9562 H   0  0  0  0  0  0  0  0  0  0  0  0
    3.3373   -0.2381    1.3452 H   0  0  0  0  0  0  0  0  0  0  0  0
    2.6508   -2.1596    0.0297 H   0  0  0  0  0  0  0  0  0  0  0  0
  1  2  3  0
  2  3  1  0
  3  4  1  0
  4  5  1  0
  5  6  1  0
  6  7  1  0
  7  8  1  0
  8  9  2  3
  9  1  1  0
  3 10  1  0
  3 11  1  0
  4 12  1  0
  4 13  1  0
  5 14  1  0
  5 15  1  0
  7 16  1  0
  7 17  1  0
  8 18  1  0
  9 19  1  0
M  END
