
     RDKit          3D

 19 19  0  0  0  0  0  0  0  0999 V2000
    0.9655   -0.7251   -0.0808 C   0  0  0  0  0  0  0  0  0  0  0  0
    0.2099   -1.3069    0.4452 C   0  0  0  0  0  0  0  0  0  0  0  0
   -0.7908   -2.0468    1.1257 C   0  0  0  0  0  0  0  0  0  0  0  0
   -1.9435   -1.1696    1.0125 O   0  0  0  0  0  0  0  0  0  0  0  0
   -1.6558   -0.1881    0.0354 C   0  0  0  0  0  0  0  0  0  0  0  0
   -0.8637    0.9506    0.5283 C   0  0  0  0  0  0  0  0  0  0  0  0
    0.2022    1.5620    0.0910 C   0  0  0  0  0  0  0  0  0  0  0  0
    1.0560    1.3457   -1.1012 C   0  0  0  0  0  0  0  0  0  0  0  0
    1.9375    0.0542   -0.7728 C   0  0  0  0  0  0  0  0  0  0  0  0
   -0.5851   -2.0677    2.2108 H   0  0  0  0  0  0  0  0  0  0  0  0
   -1.0416   -3.0086    0.6848 H   0  0  0  0  0  0  0  0  0  0  0  0
   -1.2877   -0.6301   -0.9085 H   0  0  0  0  0  0  0  0  0  0  0  0
   -2.7006    0.1645   -0.2625 H   0  0  0  0  0  0  0  0  0  0  0  0
   -1.3226    1.3394    1.4961 H   0  0  0  0  0  0  0  0  0  0  0  0
    0.5843    2.4257    0.7060 H   0  0  0  0  0  0  0  0  0  0  0  0
    1.7506    2.1730   -1.3057 H   0  0  0  0  0  0  0  0  0  0  0  0
    0.5169    1.0632   -1.9957 H   0  0  0  0  0  0  0  0  0  0  0  0
    2.2069   -0.3510   -1.7496 H   0  0  0  0  0  0  0  0  0  0  0  0
    2.7617    0.4155   -0.1590 H   0  0  0  0  0  0  0  0  0  0  0  0
  1  2  3  0
  2  3  1  0
  3  4  1  0
  4  5  1  0
  5  6  1  0
  6  7  2  3
  7  8  1  0
  8  9  1  0
  9  1  1  0
  3 10  1  0
  3 11  1  0
  5 12  1  0
  5 13  1  0
  6 14  1  0
  7 15  1  0
  8 16  1  0
  8 17  1  0
  9 18  1  0
  9 19  1  0
M  END
