
     RDKit          3D

 19 19  0  0  0  0  0  0  0  0999 V2000
   -1.0467   -0.4036    0.4959 C   0  0  0  0  0  0  0  0  0  0  0  0
   -0.2290   -0.6482    1.1602 C   0  0  0  0  0  0  0  0  0  0  0  0
    0.8672   -0.9638    2.0202 C   0  0  0  0  0  0  0  0  0  0  0  0
    2.0117   -0.5076    1.2075 O   0  0  0  0  0  0  0  0  0  0  0  0
    1.5684    0.6017    0.4885 C   0  0  0  0  0  0  0  0  0  0  0  0
    0.9735    0.2201   -0.8382 C   0  0  0  0  0  0  0  0  0  0  0  0
   -0.0997    1.0268   -1.1328 O   0  0  0  0  0  0  0  0  0  0  0  0
   -1.2595    0.4838   -1.6227 C   0  0  0  0  0  0  0  0  0  0  0  0
   -2.1018   -0.0756   -0.3917 C   0  0  0  0  0  0  0  0  0  0  0  0
    0.8175   -0.4351    2.9458 H   0  0  0  0  0  0  0  0  0  0  0  0
    1.0242   -2.0417    2.0792 H   0  0  0  0  0  0  0  0  0  0  0  0
    2.4230    1.2969    0.2976 H   0  0  0  0  0  0  0  0  0  0  0  0
    0.7904    1.1683    1.0418 H   0  0  0  0  0  0  0  0  0  0  0  0
    0.8024   -0.8629   -0.9084 H   0  0  0  0  0  0  0  0  0  0  0  0
    1.7941    0.4244   -1.6461 H   0  0  0  0  0  0  0  0  0  0  0  0
   -1.0958   -0.3930   -2.2464 H   0  0  0  0  0  0  0  0  0  0  0  0
   -1.8635    1.2403   -2.0984 H   0  0  0  0  0  0  0  0  0  0  0  0
   -2.6898    0.7582   -0.0374 H   0  0  0  0  0  0  0  0  0  0  0  0
   -2.6864   -0.8890   -0.8144 H   0  0  0  0  0  0  0  0  0  0  0  0
  1  2  3  0
  2  3  1  0
  3  4  1  0
  4  5  1  0
  5  6  1  0
  6  7  1  0
  7  8  1  0
  8  9  1  0
  9  1  1  0
  3 10  1  0
  3 11  1  0
  5 12  1  0
  5 13  1  0
  6 14  1  0
  6 15  1  0
  8 16  1  0
  8 17  1  0
  9 18  1  0
  9 19  1  0
M  END
