
     RDKit          3D

 19 19  0  0  0  0  0  0  0  0999 V2000
    1.0200    1.0043   -0.2468 C   0  0  0  0  0  0  0  0  0  0  0  0
    0.0366    1.3342   -0.0417 C   0  0  0  0  0  0  0  0  0  0  0  0
   -1.2450    1.7420    0.2320 C   0  0  0  0  0  0  0  0  0  0  0  0
   -2.1325    0.5310   -0.0565 C   0  0  0  0  0  0  0  0  0  0  0  0
   -1.5054   -0.8249    0.1066 C   0  0  0  0  0  0  0  0  0  0  0  0
   -0.3582   -1.3473    0.1686 C   0  0  0  0  0  0  0  0  0  0  0  0
    1.0627   -1.5014    0.1886 C   0  0  0  0  0  0  0  0  0  0  0  0
    2.1774   -0.9030   -0.0377 C   0  0  0  0  0  0  0  0  0  0  0  0
    2.3400    0.5849   -0.5233 C   0  0  0  0  0  0  0  0  0  0  0  0
   -1.3083    1.7919    1.3776 H   0  0  0  0  0  0  0  0  0  0  0  0
   -1.7049    2.6440   -0.1134 H   0  0  0  0  0  0  0  0  0  0  0  0
   -3.0732    0.6386    0.4570 H   0  0  0  0  0  0  0  0  0  0  0  0
   -2.3574    0.6180   -1.1383 H   0  0  0  0  0  0  0  0  0  0  0  0
   -2.4420   -1.5230    0.1100 H   0  0  0  0  0  0  0  0  0  0  0  0
   -0.6816   -2.5660    0.3488 H   0  0  0  0  0  0  0  0  0  0  0  0
    1.4127   -2.5887    0.5967 H   0  0  0  0  0  0  0  0  0  0  0  0
    3.1365   -1.3543    0.0631 H   0  0  0  0  0  0  0  0  0  0  0  0
    2.5929    0.5946   -1.5650 H   0  0  0  0  0  0  0  0  0  0  0  0
    3.0297    1.1251    0.0736 H   0  0  0  0  0  0  0  0  0  0  0  0
  1  2  3  0
  2  3  1  0
  3  4  1  0
  4  5  1  0
  5  6  2  3
  6  7  1  0
  7  8  2  3
  8  9  1  0
  9  1  1  0
  3 10  1  0
  3 11  1  0
  4 12  1  0
  4 13  1  0
  5 14  1  0
  6 15  1  0
  7 16  1  0
  8 17  1  0
  9 18  1  0
  9 19  1  0
M  END
