
     RDKit          3D

 16 20  0  0  0  0  0  0  0  0999 V2000
    0.9210   -0.3987   -0.7876 C   0  0  0  0  0  0  0  0  0  0  0  0
    1.0769    0.6322    0.2531 C   0  0  0  0  0  0  0  0  0  0  0  0
   -0.2009    1.2449   -0.1739 C   0  0  0  0  0  0  0  0  0  0  0  0
   -0.3545    0.2223   -1.2035 C   0  0  0  0  0  0  0  0  0  0  0  0
   -1.0687   -0.6471   -0.2443 C   0  0  0  0  0  0  0  0  0  0  0  0
    0.2005   -1.2473    0.1632 C   0  0  0  0  0  0  0  0  0  0  0  0
    0.3492   -0.1994    1.2062 C   0  0  0  0  0  0  0  0  0  0  0  0
   -0.9231    0.3928    0.7872 C   0  0  0  0  0  0  0  0  0  0  0  0
    1.6690   -0.7087   -1.4412 H   0  0  0  0  0  0  0  0  0  0  0  0
    1.9512    1.1665    0.4398 H   0  0  0  0  0  0  0  0  0  0  0  0
   -0.3502    2.2693   -0.2930 H   0  0  0  0  0  0  0  0  0  0  0  0
   -0.6433    0.3753   -2.1910 H   0  0  0  0  0  0  0  0  0  0  0  0
   -1.9507   -1.1602   -0.4574 H   0  0  0  0  0  0  0  0  0  0  0  0
    0.3747   -2.2602    0.3319 H   0  0  0  0  0  0  0  0  0  0  0  0
    0.6319   -0.4007    2.1892 H   0  0  0  0  0  0  0  0  0  0  0  0
   -1.6831    0.7191    1.4214 H   0  0  0  0  0  0  0  0  0  0  0  0
  1  2  1  0
  2  3  1  0
  3  4  1  0
  4  5  1  0
  5  6  1  0
  6  7  1  0
  7  8  1  0
  4  1  1  0
  8  5  1  0
  6  1  1  0
  7  2  1  0
  8  3  1  0
  1  9  1  0
  2 10  1  0
  3 11  1  0
  4 12  1  0
  5 13  1  0
  6 14  1  0
  7 15  1  0
  8 16  1  0
M  END
