
     RDKit          3D

 19 21  0  0  0  0  0  0  0  0999 V2000
   -1.1811   -0.0224    1.3261 C   0  0  0  0  0  0  0  0  0  0  0  0
   -0.0144   -0.0746    0.7019 C   0  0  0  0  0  0  0  0  0  0  0  0
   -0.2156    0.2089   -0.7699 C   0  0  0  0  0  0  0  0  0  0  0  0
   -1.6400   -0.3509   -0.9057 C   0  0  0  0  0  0  0  0  0  0  0  0
   -2.2322    0.2963    0.3288 C   0  0  0  0  0  0  0  0  0  0  0  0
    0.7247   -0.5600   -1.3970 O   0  0  0  0  0  0  0  0  0  0  0  0
    1.8445   -0.6406   -0.5737 C   0  0  0  0  0  0  0  0  0  0  0  0
    2.2973    0.6436    0.0302 C   0  0  0  0  0  0  0  0  0  0  0  0
    1.4567   -0.2975    0.8132 C   0  0  0  0  0  0  0  0  0  0  0  0
   -1.3735   -0.1795    2.3814 H   0  0  0  0  0  0  0  0  0  0  0  0
   -0.1858    1.2793   -0.9907 H   0  0  0  0  0  0  0  0  0  0  0  0
   -1.5389   -1.4573   -0.7872 H   0  0  0  0  0  0  0  0  0  0  0  0
   -2.1119   -0.0434   -1.8335 H   0  0  0  0  0  0  0  0  0  0  0  0
   -2.2373    1.3866    0.1497 H   0  0  0  0  0  0  0  0  0  0  0  0
   -3.2213   -0.1132    0.5928 H   0  0  0  0  0  0  0  0  0  0  0  0
    2.5361   -1.4738   -0.7621 H   0  0  0  0  0  0  0  0  0  0  0  0
    3.3821    0.6487    0.3161 H   0  0  0  0  0  0  0  0  0  0  0  0
    1.8395    1.5985   -0.2771 H   0  0  0  0  0  0  0  0  0  0  0  0
    1.8710   -0.8486    1.6566 H   0  0  0  0  0  0  0  0  0  0  0  0
  1  2  2  0
  2  3  1  0
  3  4  1  0
  4  5  1  0
  3  6  1  0
  6  7  1  0
  7  8  1  0
  8  9  1  0
  5  1  1  0
  9  7  1  0
  9  2  1  0
  1 10  1  0
  3 11  1  0
  4 12  1  0
  4 13  1  0
  5 14  1  0
  5 15  1  0
  7 16  1  0
  8 17  1  0
  8 18  1  0
  9 19  1  0
M  END
