
     RDKit          3D

 21 23  0  0  0  0  0  0  0  0999 V2000
    0.6309    0.4976    1.4721 C   0  0  0  0  0  0  0  0  0  0  0  0
   -0.6682    0.2515    1.5332 C   0  0  0  0  0  0  0  0  0  0  0  0
   -1.1414   -0.2227    0.2288 C   0  0  0  0  0  0  0  0  0  0  0  0
   -2.4068    0.2242   -0.3733 C   0  0  0  0  0  0  0  0  0  0  0  0
   -2.3082   -1.1791    0.1560 C   0  0  0  0  0  0  0  0  0  0  0  0
    0.0722   -0.5424   -0.5988 C   0  0  0  0  0  0  0  0  0  0  0  0
    1.1668    0.2182    0.1324 C   0  0  0  0  0  0  0  0  0  0  0  0
    1.9999    1.1891   -0.5948 C   0  0  0  0  0  0  0  0  0  0  0  0
    2.5886   -0.1027   -0.1044 C   0  0  0  0  0  0  0  0  0  0  0  0
    1.2082    0.8582    2.3115 H   0  0  0  0  0  0  0  0  0  0  0  0
   -1.2941    0.3772    2.4057 H   0  0  0  0  0  0  0  0  0  0  0  0
   -2.5253    0.3837   -1.4470 H   0  0  0  0  0  0  0  0  0  0  0  0
   -2.9967    0.9658    0.2378 H   0  0  0  0  0  0  0  0  0  0  0  0
   -2.7244   -1.4363    1.1483 H   0  0  0  0  0  0  0  0  0  0  0  0
   -2.2379   -1.9617   -0.6217 H   0  0  0  0  0  0  0  0  0  0  0  0
    0.2839   -1.6382   -0.4391 H   0  0  0  0  0  0  0  0  0  0  0  0
   -0.0090   -0.2851   -1.6507 H   0  0  0  0  0  0  0  0  0  0  0  0
    2.3681    2.1175   -0.1428 H   0  0  0  0  0  0  0  0  0  0  0  0
    1.8766    1.2365   -1.6966 H   0  0  0  0  0  0  0  0  0  0  0  0
    2.7867   -0.9327   -0.8134 H   0  0  0  0  0  0  0  0  0  0  0  0
    3.3299   -0.0184    0.7319 H   0  0  0  0  0  0  0  0  0  0  0  0
  1  2  2  0
  2  3  1  0
  3  4  1  0
  4  5  1  0
  3  6  1  0
  6  7  1  0
  7  8  1  0
  8  9  1  0
  7  1  1  0
  5  3  1  0
  9  7  1  0
  1 10  1  0
  2 11  1  0
  4 12  1  0
  4 13  1  0
  5 14  1  0
  5 15  1  0
  6 16  1  0
  6 17  1  0
  8 18  1  0
  8 19  1  0
  9 20  1  0
  9 21  1  0
M  END
