
     RDKit          3D

 17 19  0  0  0  0  0  0  0  0999 V2000
    0.6888    1.4731    0.5648 C   0  0  0  0  0  0  0  0  0  0  0  0
   -0.6217    1.4576    0.3577 C   0  0  0  0  0  0  0  0  0  0  0  0
   -1.1789    0.3612   -0.4195 C   0  0  0  0  0  0  0  0  0  0  0  0
   -1.8238   -0.8337    0.0534 C   0  0  0  0  0  0  0  0  0  0  0  0
   -0.4149   -0.9022    0.0622 C   0  0  0  0  0  0  0  0  0  0  0  0
    0.5985   -1.3087   -0.8691 C   0  0  0  0  0  0  0  0  0  0  0  0
    1.6583   -0.5183   -0.5726 C   0  0  0  0  0  0  0  0  0  0  0  0
    1.3496    0.1314    0.7243 C   0  0  0  0  0  0  0  0  0  0  0  0
    0.2975   -0.6783    1.2229 O   0  0  0  0  0  0  0  0  0  0  0  0
    1.2626    2.4122    0.6191 H   0  0  0  0  0  0  0  0  0  0  0  0
   -1.2190    2.2548    0.7688 H   0  0  0  0  0  0  0  0  0  0  0  0
   -1.1975    0.5525   -1.5153 H   0  0  0  0  0  0  0  0  0  0  0  0
   -2.3401   -0.7888    1.0605 H   0  0  0  0  0  0  0  0  0  0  0  0
   -2.4912   -1.3786   -0.6685 H   0  0  0  0  0  0  0  0  0  0  0  0
    0.6689   -2.0418   -1.6705 H   0  0  0  0  0  0  0  0  0  0  0  0
    2.5708   -0.3570   -1.1330 H   0  0  0  0  0  0  0  0  0  0  0  0
    2.1920    0.1647    1.4146 H   0  0  0  0  0  0  0  0  0  0  0  0
  1  2  2  0
  2  3  1  0
  3  4  1  0
  4  5  1  0
  5  6  1  0
  6  7  2  0
  7  8  1  0
  8  9  1  0
  8  1  1  0
  5  3  1  0
  9  5  1  0
  1 10  1  0
  2 11  1  0
  3 12  1  0
  4 13  1  0
  4 14  1  0
  6 15  1  0
  7 16  1  0
  8 17  1  0
M  END
