
     RDKit          3D

 16 18  0  0  0  0  0  0  0  0999 V2000
   -1.6984    0.6328    0.1823 C   0  0  0  0  0  0  0  0  0  0  0  0
   -1.6412   -0.7021    0.1586 C   0  0  0  0  0  0  0  0  0  0  0  0
   -0.2256   -0.9821   -0.0536 C   0  0  0  0  0  0  0  0  0  0  0  0
    0.4961    0.0442    0.8250 C   0  0  0  0  0  0  0  0  0  0  0  0
    1.8439    0.0196    0.1952 C   0  0  0  0  0  0  0  0  0  0  0  0
    1.4924    0.1353   -1.1724 O   0  0  0  0  0  0  0  0  0  0  0  0
    0.1318    0.0560   -1.1305 C   0  0  0  0  0  0  0  0  0  0  0  0
   -0.2867    1.0235   -0.0150 C   0  0  0  0  0  0  0  0  0  0  0  0
   -2.5344    1.3080    0.3098 H   0  0  0  0  0  0  0  0  0  0  0  0
   -2.4286   -1.4355    0.2664 H   0  0  0  0  0  0  0  0  0  0  0  0
    0.1715   -1.9486   -0.1396 H   0  0  0  0  0  0  0  0  0  0  0  0
    0.3554    0.0010    1.8667 H   0  0  0  0  0  0  0  0  0  0  0  0
    2.5337    0.7896    0.5181 H   0  0  0  0  0  0  0  0  0  0  0  0
    2.2411   -1.0244    0.2897 H   0  0  0  0  0  0  0  0  0  0  0  0
   -0.4573    0.0525   -2.0148 H   0  0  0  0  0  0  0  0  0  0  0  0
    0.0063    2.0303   -0.0858 H   0  0  0  0  0  0  0  0  0  0  0  0
  1  2  2  0
  2  3  1  0
  3  4  1  0
  4  5  1  0
  5  6  1  0
  6  7  1  0
  7  8  1  0
  8  1  1  0
  7  3  1  0
  8  4  1  0
  1  9  1  0
  2 10  1  0
  3 11  1  0
  4 12  1  0
  5 13  1  0
  5 14  1  0
  7 15  1  0
  8 16  1  0
M  END
