
     RDKit          3D

 21 23  0  0  0  0  0  0  0  0999 V2000
    1.9315    0.5157   -0.1699 C   0  0  0  0  0  0  0  0  0  0  0  0
    1.0742    1.5286   -0.1907 C   0  0  0  0  0  0  0  0  0  0  0  0
   -0.3763    1.6305    0.0942 C   0  0  0  0  0  0  0  0  0  0  0  0
   -1.1171    0.7735    0.9773 C   0  0  0  0  0  0  0  0  0  0  0  0
   -1.2713   -0.7070    0.9473 C   0  0  0  0  0  0  0  0  0  0  0  0
   -0.9029   -0.7650   -0.4951 C   0  0  0  0  0  0  0  0  0  0  0  0
    0.4505   -1.2714   -0.7396 C   0  0  0  0  0  0  0  0  0  0  0  0
    1.5328   -0.8735    0.1900 C   0  0  0  0  0  0  0  0  0  0  0  0
   -1.1945    0.6551   -0.5721 C   0  0  0  0  0  0  0  0  0  0  0  0
    2.9614    0.6876   -0.4206 H   0  0  0  0  0  0  0  0  0  0  0  0
    1.6063    2.4536   -0.4864 H   0  0  0  0  0  0  0  0  0  0  0  0
   -0.7371    2.7017   -0.0029 H   0  0  0  0  0  0  0  0  0  0  0  0
   -2.0128    1.2416    1.4902 H   0  0  0  0  0  0  0  0  0  0  0  0
   -2.3316   -1.0970    1.0536 H   0  0  0  0  0  0  0  0  0  0  0  0
   -0.6657   -1.3005    1.6600 H   0  0  0  0  0  0  0  0  0  0  0  0
   -1.6173   -1.3593   -1.1472 H   0  0  0  0  0  0  0  0  0  0  0  0
    0.7827   -1.0062   -1.7782 H   0  0  0  0  0  0  0  0  0  0  0  0
    0.3972   -2.3947   -0.7367 H   0  0  0  0  0  0  0  0  0  0  0  0
    1.2691   -0.8459    1.2587 H   0  0  0  0  0  0  0  0  0  0  0  0
    2.4216   -1.5282    0.0410 H   0  0  0  0  0  0  0  0  0  0  0  0
   -2.2007    0.9610   -0.9729 H   0  0  0  0  0  0  0  0  0  0  0  0
  1  2  2  0
  2  3  1  0
  3  4  1  0
  4  5  1  0
  5  6  1  0
  6  7  1  0
  7  8  1  0
  6  9  1  0
  8  1  1  0
  9  3  1  0
  9  4  1  0
  1 10  1  0
  2 11  1  0
  3 12  1  0
  4 13  1  0
  5 14  1  0
  5 15  1  0
  6 16  1  0
  7 17  1  0
  7 18  1  0
  8 19  1  0
  8 20  1  0
  9 21  1  0
M  END
