
     RDKit          3D

 21 21  0  0  0  0  0  0  0  0999 V2000
    0.7848   -1.7526    0.3244 C   0  0  0  0  0  0  0  0  0  0  0  0
    1.7436   -0.8409    0.2901 C   0  0  0  0  0  0  0  0  0  0  0  0
    1.6584    0.4097   -0.5094 C   0  0  0  0  0  0  0  0  0  0  0  0
    1.1322    1.5461    0.2895 C   0  0  0  0  0  0  0  0  0  0  0  0
   -0.1323    1.9318    0.3332 C   0  0  0  0  0  0  0  0  0  0  0  0
   -1.2041    1.2379   -0.4465 C   0  0  0  0  0  0  0  0  0  0  0  0
   -1.8931    0.2328    0.3974 C   0  0  0  0  0  0  0  0  0  0  0  0
   -1.5716   -1.0465    0.3984 C   0  0  0  0  0  0  0  0  0  0  0  0
   -0.4993   -1.6552   -0.4244 C   0  0  0  0  0  0  0  0  0  0  0  0
    0.9133   -2.6611    0.9412 H   0  0  0  0  0  0  0  0  0  0  0  0
    2.6301   -1.0517    0.8936 H   0  0  0  0  0  0  0  0  0  0  0  0
    1.1192    0.2755   -1.4755 H   0  0  0  0  0  0  0  0  0  0  0  0
    2.7122    0.6803   -0.8235 H   0  0  0  0  0  0  0  0  0  0  0  0
    1.8647    2.1092    0.8945 H   0  0  0  0  0  0  0  0  0  0  0  0
   -0.4095    2.7852    0.9579 H   0  0  0  0  0  0  0  0  0  0  0  0
   -1.9864    2.0031   -0.7005 H   0  0  0  0  0  0  0  0  0  0  0  0
   -0.8342    0.8225   -1.4024 H   0  0  0  0  0  0  0  0  0  0  0  0
   -2.7147    0.5346    1.0648 H   0  0  0  0  0  0  0  0  0  0  0  0
   -2.1267   -1.7480    1.0566 H   0  0  0  0  0  0  0  0  0  0  0  0
   -0.8407   -2.6921   -0.6983 H   0  0  0  0  0  0  0  0  0  0  0  0
   -0.3460   -1.1207   -1.3610 H   0  0  0  0  0  0  0  0  0  0  0  0
  1  2  2  3
  2  3  1  0
  3  4  1  0
  4  5  2  3
  5  6  1  0
  6  7  1  0
  7  8  2  3
  8  9  1  0
  9  1  1  0
  1 10  1  0
  2 11  1  0
  3 12  1  0
  3 13  1  0
  4 14  1  0
  5 15  1  0
  6 16  1  0
  6 17  1  0
  7 18  1  0
  8 19  1  0
  9 20  1  0
  9 21  1  0
M  END
