
     RDKit          3D

 21 23  0  0  0  0  0  0  0  0999 V2000
   -0.0935   -1.3181    0.0248 C   0  0  0  0  0  0  0  0  0  0  0  0
    1.1054   -0.7693   -0.0814 C   0  0  0  0  0  0  0  0  0  0  0  0
    2.5548   -0.4432   -0.1813 C   0  0  0  0  0  0  0  0  0  0  0  0
    2.1612    0.8459    0.5919 C   0  0  0  0  0  0  0  0  0  0  0  0
    0.9244    0.7385   -0.2583 C   0  0  0  0  0  0  0  0  0  0  0  0
   -0.4046    1.0253    0.3685 C   0  0  0  0  0  0  0  0  0  0  0  0
   -1.1450   -0.2546   -0.0091 C   0  0  0  0  0  0  0  0  0  0  0  0
   -2.5086   -0.4800    0.4817 C   0  0  0  0  0  0  0  0  0  0  0  0
   -2.2176   -0.2786   -0.9995 C   0  0  0  0  0  0  0  0  0  0  0  0
   -0.3386   -2.3653    0.1235 H   0  0  0  0  0  0  0  0  0  0  0  0
    3.2348   -1.0885    0.3854 H   0  0  0  0  0  0  0  0  0  0  0  0
    2.8476   -0.2199   -1.2345 H   0  0  0  0  0  0  0  0  0  0  0  0
    2.0347    0.5465    1.6523 H   0  0  0  0  0  0  0  0  0  0  0  0
    2.8282    1.6815    0.3880 H   0  0  0  0  0  0  0  0  0  0  0  0
    1.0978    1.0848   -1.2742 H   0  0  0  0  0  0  0  0  0  0  0  0
   -0.8945    1.8502   -0.1896 H   0  0  0  0  0  0  0  0  0  0  0  0
   -0.3823    1.2051    1.4409 H   0  0  0  0  0  0  0  0  0  0  0  0
   -2.7341   -1.5162    0.8346 H   0  0  0  0  0  0  0  0  0  0  0  0
   -3.0821    0.2827    1.0231 H   0  0  0  0  0  0  0  0  0  0  0  0
   -2.3181   -1.1658   -1.6792 H   0  0  0  0  0  0  0  0  0  0  0  0
   -2.6700    0.6391   -1.4077 H   0  0  0  0  0  0  0  0  0  0  0  0
  1  2  2  0
  2  3  1  0
  3  4  1  0
  4  5  1  0
  5  6  1  0
  6  7  1  0
  7  8  1  0
  8  9  1  0
  7  1  1  0
  5  2  1  0
  9  7  1  0
  1 10  1  0
  3 11  1  0
  3 12  1  0
  4 13  1  0
  4 14  1  0
  5 15  1  0
  6 16  1  0
  6 17  1  0
  8 18  1  0
  8 19  1  0
  9 20  1  0
  9 21  1  0
M  END
