
     RDKit          3D

 19 20  0  0  0  0  0  0  0  0999 V2000
    1.9594   -0.1279   -0.1005 C   0  0  0  0  0  0  0  0  0  0  0  0
    1.3610   -1.2788    0.1202 C   0  0  0  0  0  0  0  0  0  0  0  0
   -0.0163   -1.5146    0.5936 C   0  0  0  0  0  0  0  0  0  0  0  0
   -0.9637   -0.7705   -0.3071 C   0  0  0  0  0  0  0  0  0  0  0  0
   -2.2430   -0.7647    0.2733 O   0  0  0  0  0  0  0  0  0  0  0  0
   -2.3910    0.5267   -0.2323 C   0  0  0  0  0  0  0  0  0  0  0  0
   -0.9233    0.6854   -0.1506 C   0  0  0  0  0  0  0  0  0  0  0  0
    0.0958    1.5054   -0.0185 C   0  0  0  0  0  0  0  0  0  0  0  0
    1.5446    1.2763    0.0211 C   0  0  0  0  0  0  0  0  0  0  0  0
    2.9883   -0.2421   -0.4500 H   0  0  0  0  0  0  0  0  0  0  0  0
    1.9532   -2.1522   -0.0695 H   0  0  0  0  0  0  0  0  0  0  0  0
   -0.2876   -2.5827    0.5592 H   0  0  0  0  0  0  0  0  0  0  0  0
   -0.1276   -1.1291    1.6208 H   0  0  0  0  0  0  0  0  0  0  0  0
   -0.9294   -1.0972   -1.3492 H   0  0  0  0  0  0  0  0  0  0  0  0
   -2.9765    1.1556    0.4683 H   0  0  0  0  0  0  0  0  0  0  0  0
   -2.7970    0.4685   -1.2606 H   0  0  0  0  0  0  0  0  0  0  0  0
   -0.1865    2.5480    0.0799 H   0  0  0  0  0  0  0  0  0  0  0  0
    1.9234    1.6449    1.0120 H   0  0  0  0  0  0  0  0  0  0  0  0
    2.0161    1.8490   -0.8102 H   0  0  0  0  0  0  0  0  0  0  0  0
  1  2  2  0
  2  3  1  0
  3  4  1  0
  4  5  1  0
  5  6  1  0
  6  7  1  0
  7  8  2  0
  8  9  1  0
  9  1  1  0
  7  4  1  0
  1 10  1  0
  2 11  1  0
  3 12  1  0
  3 13  1  0
  4 14  1  0
  6 15  1  0
  6 16  1  0
  8 17  1  0
  9 18  1  0
  9 19  1  0
M  END
