
     RDKit          3D

 15 16  0  0  0  0  0  0  0  0999 V2000
   -1.3196    0.8296   -0.0529 C   0  0  0  0  0  0  0  0  0  0  0  0
   -0.1369    1.4513   -0.1695 C   0  0  0  0  0  0  0  0  0  0  0  0
    1.0343    0.6871    0.3862 C   0  0  0  0  0  0  0  0  0  0  0  0
    1.2468   -0.5101   -0.4754 C   0  0  0  0  0  0  0  0  0  0  0  0
    0.1523   -1.0691    0.3681 C   0  0  0  0  0  0  0  0  0  0  0  0
   -1.2243   -0.6780   -0.0579 C   0  0  0  0  0  0  0  0  0  0  0  0
    0.5540   -0.1801    1.3914 O   0  0  0  0  0  0  0  0  0  0  0  0
   -2.2583    1.3493    0.0368 H   0  0  0  0  0  0  0  0  0  0  0  0
   -0.0289    2.4278   -0.6274 H   0  0  0  0  0  0  0  0  0  0  0  0
    1.8954    1.2867    0.6686 H   0  0  0  0  0  0  0  0  0  0  0  0
    2.2149   -0.9991   -0.2227 H   0  0  0  0  0  0  0  0  0  0  0  0
    1.0511   -0.4015   -1.5561 H   0  0  0  0  0  0  0  0  0  0  0  0
    0.2716   -2.1366    0.6276 H   0  0  0  0  0  0  0  0  0  0  0  0
   -1.5223   -1.0456   -1.0506 H   0  0  0  0  0  0  0  0  0  0  0  0
   -1.9302   -1.0116    0.7338 H   0  0  0  0  0  0  0  0  0  0  0  0
  1  2  2  0
  2  3  1  0
  3  4  1  0
  4  5  1  0
  5  6  1  0
  5  7  1  0
  6  1  1  0
  7  3  1  0
  1  8  1  0
  2  9  1  0
  3 10  1  0
  4 11  1  0
  4 12  1  0
  5 13  1  0
  6 14  1  0
  6 15  1  0
M  END
