
     RDKit          3D

 19 21  0  0  0  0  0  0  0  0999 V2000
    1.3064    1.2604   -0.0042 C   0  0  0  0  0  0  0  0  0  0  0  0
    0.0729    0.9297   -0.2346 C   0  0  0  0  0  0  0  0  0  0  0  0
   -1.3913    1.1434   -0.4144 C   0  0  0  0  0  0  0  0  0  0  0  0
   -1.9530   -0.0501    0.4131 C   0  0  0  0  0  0  0  0  0  0  0  0
   -0.8041   -1.0534    0.5058 C   0  0  0  0  0  0  0  0  0  0  0  0
    0.2704   -0.6335    1.3519 O   0  0  0  0  0  0  0  0  0  0  0  0
    1.1317   -1.0401    0.2944 C   0  0  0  0  0  0  0  0  0  0  0  0
    2.1877    0.0379   -0.0447 C   0  0  0  0  0  0  0  0  0  0  0  0
    0.0778   -0.5648   -0.6155 C   0  0  0  0  0  0  0  0  0  0  0  0
    1.6786    2.2750    0.1939 H   0  0  0  0  0  0  0  0  0  0  0  0
   -1.7394    2.0969   -0.0605 H   0  0  0  0  0  0  0  0  0  0  0  0
   -1.6205    0.9355   -1.4668 H   0  0  0  0  0  0  0  0  0  0  0  0
   -2.7547   -0.5511   -0.1486 H   0  0  0  0  0  0  0  0  0  0  0  0
   -2.2998    0.2563    1.3935 H   0  0  0  0  0  0  0  0  0  0  0  0
   -1.0528   -2.0999    0.5509 H   0  0  0  0  0  0  0  0  0  0  0  0
    1.4736   -2.0570    0.3048 H   0  0  0  0  0  0  0  0  0  0  0  0
    2.4783   -0.1234   -1.0950 H   0  0  0  0  0  0  0  0  0  0  0  0
    3.0005    0.0633    0.6845 H   0  0  0  0  0  0  0  0  0  0  0  0
   -0.0621   -0.8251   -1.6087 H   0  0  0  0  0  0  0  0  0  0  0  0
  1  2  2  0
  2  3  1  0
  3  4  1  0
  4  5  1  0
  5  6  1  0
  6  7  1  0
  7  8  1  0
  7  9  1  0
  8  1  1  0
  9  2  1  0
  9  5  1  0
  1 10  1  0
  3 11  1  0
  3 12  1  0
  4 13  1  0
  4 14  1  0
  5 15  1  0
  7 16  1  0
  8 17  1  0
  8 18  1  0
  9 19  1  0
M  END
