
     RDKit          3D

 18 19  0  0  0  0  0  0  0  0999 V2000
    1.1323    1.2002    0.0440 C   0  0  0  0  0  0  0  0  0  0  0  0
   -0.0951    1.3780   -0.3814 C   0  0  0  0  0  0  0  0  0  0  0  0
   -1.1810    0.4582   -0.6865 C   0  0  0  0  0  0  0  0  0  0  0  0
   -2.1460    0.0770    0.4544 C   0  0  0  0  0  0  0  0  0  0  0  0
   -1.1439   -0.8811   -0.1712 C   0  0  0  0  0  0  0  0  0  0  0  0
   -0.1243   -1.2504    0.6563 O   0  0  0  0  0  0  0  0  0  0  0  0
    1.1182   -1.2890    0.0338 C   0  0  0  0  0  0  0  0  0  0  0  0
    1.8487   -0.0367    0.3672 C   0  0  0  0  0  0  0  0  0  0  0  0
    1.7111    2.0999    0.1796 H   0  0  0  0  0  0  0  0  0  0  0  0
   -0.3527    2.4312   -0.5379 H   0  0  0  0  0  0  0  0  0  0  0  0
   -1.6961    0.6417   -1.6603 H   0  0  0  0  0  0  0  0  0  0  0  0
   -1.8866    0.5303    1.4455 H   0  0  0  0  0  0  0  0  0  0  0  0
   -3.2009   -0.0340    0.2010 H   0  0  0  0  0  0  0  0  0  0  0  0
   -1.6142   -1.6918   -0.7884 H   0  0  0  0  0  0  0  0  0  0  0  0
    1.0601   -1.4738   -1.0502 H   0  0  0  0  0  0  0  0  0  0  0  0
    1.6850   -2.1410    0.4940 H   0  0  0  0  0  0  0  0  0  0  0  0
    2.8635    0.0217   -0.0833 H   0  0  0  0  0  0  0  0  0  0  0  0
    2.0219   -0.0403    1.4836 H   0  0  0  0  0  0  0  0  0  0  0  0
  1  2  2  0
  2  3  1  0
  3  4  1  0
  4  5  1  0
  5  6  1  0
  6  7  1  0
  7  8  1  0
  8  1  1  0
  5  3  1  0
  1  9  1  0
  2 10  1  0
  3 11  1  0
  4 12  1  0
  4 13  1  0
  5 14  1  0
  7 15  1  0
  7 16  1  0
  8 17  1  0
  8 18  1  0
M  END
