
     RDKit          3D

 19 21  0  0  0  0  0  0  0  0999 V2000
    1.6398    1.0240    0.3901 C   0  0  0  0  0  0  0  0  0  0  0  0
    0.4096    1.5045    0.2836 C   0  0  0  0  0  0  0  0  0  0  0  0
   -0.5595    0.6923   -0.4669 C   0  0  0  0  0  0  0  0  0  0  0  0
   -1.9354    0.5190    0.1070 C   0  0  0  0  0  0  0  0  0  0  0  0
   -1.7421   -0.9843   -0.1747 C   0  0  0  0  0  0  0  0  0  0  0  0
   -0.3146   -0.7397   -0.1653 C   0  0  0  0  0  0  0  0  0  0  0  0
    0.2481   -1.0355    1.1780 O   0  0  0  0  0  0  0  0  0  0  0  0
    0.8833   -1.2753   -0.1699 C   0  0  0  0  0  0  0  0  0  0  0  0
    2.0563   -0.2777   -0.2108 C   0  0  0  0  0  0  0  0  0  0  0  0
    2.3922    1.5799    0.9294 H   0  0  0  0  0  0  0  0  0  0  0  0
    0.1322    2.4359    0.7204 H   0  0  0  0  0  0  0  0  0  0  0  0
   -0.5254    0.9018   -1.5495 H   0  0  0  0  0  0  0  0  0  0  0  0
   -1.9510    0.7454    1.1850 H   0  0  0  0  0  0  0  0  0  0  0  0
   -2.7682    0.9326   -0.4970 H   0  0  0  0  0  0  0  0  0  0  0  0
   -2.2266   -1.2640   -1.1450 H   0  0  0  0  0  0  0  0  0  0  0  0
   -2.2182   -1.5594    0.6415 H   0  0  0  0  0  0  0  0  0  0  0  0
    1.2103   -2.3081   -0.2912 H   0  0  0  0  0  0  0  0  0  0  0  0
    2.8146   -0.7208    0.4680 H   0  0  0  0  0  0  0  0  0  0  0  0
    2.4547   -0.1706   -1.2327 H   0  0  0  0  0  0  0  0  0  0  0  0
  1  2  2  0
  2  3  1  0
  3  4  1  0
  4  5  1  0
  5  6  1  0
  6  7  1  0
  7  8  1  0
  8  9  1  0
  9  1  1  0
  6  3  1  0
  8  6  1  0
  1 10  1  0
  2 11  1  0
  3 12  1  0
  4 13  1  0
  4 14  1  0
  5 15  1  0
  5 16  1  0
  8 17  1  0
  9 18  1  0
  9 19  1  0
M  END
