
     RDKit          3D

 21 23  0  0  0  0  0  0  0  0999 V2000
   -1.6324   -1.2324   -0.9021 C   0  0  0  0  0  0  0  0  0  0  0  0
   -0.3255   -1.1296   -0.9181 C   0  0  0  0  0  0  0  0  0  0  0  0
    0.1005    0.1838   -0.4362 C   0  0  0  0  0  0  0  0  0  0  0  0
    1.1229    0.1101    0.6723 C   0  0  0  0  0  0  0  0  0  0  0  0
    2.4298   -0.5437    0.4735 C   0  0  0  0  0  0  0  0  0  0  0  0
    2.3688    0.9350    0.4118 C   0  0  0  0  0  0  0  0  0  0  0  0
   -1.1267    0.8751    0.0552 C   0  0  0  0  0  0  0  0  0  0  0  0
   -2.0243    0.2591    1.0573 C   0  0  0  0  0  0  0  0  0  0  0  0
   -2.2382    0.0042   -0.4052 C   0  0  0  0  0  0  0  0  0  0  0  0
   -2.2591   -2.0938   -1.2039 H   0  0  0  0  0  0  0  0  0  0  0  0
    0.3354   -1.9581   -1.2611 H   0  0  0  0  0  0  0  0  0  0  0  0
    0.5104    0.7409   -1.3261 H   0  0  0  0  0  0  0  0  0  0  0  0
    0.6822    0.0901    1.6782 H   0  0  0  0  0  0  0  0  0  0  0  0
    2.7043   -1.0638   -0.4476 H   0  0  0  0  0  0  0  0  0  0  0  0
    2.9214   -0.9673    1.3789 H   0  0  0  0  0  0  0  0  0  0  0  0
    2.4889    1.4123   -0.5849 H   0  0  0  0  0  0  0  0  0  0  0  0
    2.6519    1.5810    1.2482 H   0  0  0  0  0  0  0  0  0  0  0  0
   -1.2038    1.9837   -0.0360 H   0  0  0  0  0  0  0  0  0  0  0  0
   -1.6491   -0.5715    1.6849 H   0  0  0  0  0  0  0  0  0  0  0  0
   -2.7781    0.8932    1.5359 H   0  0  0  0  0  0  0  0  0  0  0  0
   -3.0794    0.4915   -0.9348 H   0  0  0  0  0  0  0  0  0  0  0  0
  1  2  2  0
  2  3  1  0
  3  4  1  0
  4  5  1  0
  5  6  1  0
  3  7  1  0
  7  8  1  0
  8  9  1  0
  9  1  1  0
  6  4  1  0
  9  7  1  0
  1 10  1  0
  2 11  1  0
  3 12  1  0
  4 13  1  0
  5 14  1  0
  5 15  1  0
  6 16  1  0
  6 17  1  0
  7 18  1  0
  8 19  1  0
  8 20  1  0
  9 21  1  0
M  END
