
     RDKit          3D

 16 17  0  0  0  0  0  0  0  0999 V2000
    0.3333   -0.5156    1.3511 C   0  0  0  0  0  0  0  0  0  0  0  0
   -0.8497    0.0904    1.3502 C   0  0  0  0  0  0  0  0  0  0  0  0
   -1.1851    0.6981    0.0016 C   0  0  0  0  0  0  0  0  0  0  0  0
   -1.0840   -0.4324   -0.9979 C   0  0  0  0  0  0  0  0  0  0  0  0
    0.0592   -1.1114   -0.9308 C   0  0  0  0  0  0  0  0  0  0  0  0
    1.0398   -0.4920    0.0422 C   0  0  0  0  0  0  0  0  0  0  0  0
    1.0717    0.9858   -0.3788 C   0  0  0  0  0  0  0  0  0  0  0  0
   -0.1444    1.5959   -0.2529 O   0  0  0  0  0  0  0  0  0  0  0  0
    0.7937   -0.9987    2.1916 H   0  0  0  0  0  0  0  0  0  0  0  0
   -1.5097    0.1561    2.1919 H   0  0  0  0  0  0  0  0  0  0  0  0
   -2.1634    1.1569   -0.0148 H   0  0  0  0  0  0  0  0  0  0  0  0
   -1.8828   -0.6534   -1.6980 H   0  0  0  0  0  0  0  0  0  0  0  0
    0.2843   -2.0066   -1.4976 H   0  0  0  0  0  0  0  0  0  0  0  0
    2.0104   -0.9390    0.0254 H   0  0  0  0  0  0  0  0  0  0  0  0
    1.9137    1.5192    0.0990 H   0  0  0  0  0  0  0  0  0  0  0  0
    1.3129    0.9467   -1.4821 H   0  0  0  0  0  0  0  0  0  0  0  0
  1  2  2  0
  2  3  1  0
  3  4  1  0
  4  5  2  0
  5  6  1  0
  6  7  1  0
  7  8  1  0
  6  1  1  0
  8  3  1  0
  1  9  1  0
  2 10  1  0
  3 11  1  0
  4 12  1  0
  5 13  1  0
  6 14  1  0
  7 15  1  0
  7 16  1  0
M  END
