
     RDKit          3D

 17 19  0  0  0  0  0  0  0  0999 V2000
    1.7863   -0.2846   -0.1211 C   0  0  0  0  0  0  0  0  0  0  0  0
    1.5377    0.8312    0.5549 C   0  0  0  0  0  0  0  0  0  0  0  0
    0.0756    0.9990    0.7789 C   0  0  0  0  0  0  0  0  0  0  0  0
   -0.5211    1.9380   -0.0973 O   0  0  0  0  0  0  0  0  0  0  0  0
   -1.0464    0.9226   -0.9335 C   0  0  0  0  0  0  0  0  0  0  0  0
   -0.5099   -0.0599   -0.0319 C   0  0  0  0  0  0  0  0  0  0  0  0
   -1.1808   -1.2126    0.4954 C   0  0  0  0  0  0  0  0  0  0  0  0
    0.0749   -1.8666    0.5739 O   0  0  0  0  0  0  0  0  0  0  0  0
    0.5516   -1.0102   -0.4407 C   0  0  0  0  0  0  0  0  0  0  0  0
    2.7790   -0.6188   -0.4023 H   0  0  0  0  0  0  0  0  0  0  0  0
    2.2622    1.5696    0.9258 H   0  0  0  0  0  0  0  0  0  0  0  0
   -0.2267    1.1256    1.8306 H   0  0  0  0  0  0  0  0  0  0  0  0
   -0.4712    0.9916   -1.9021 H   0  0  0  0  0  0  0  0  0  0  0  0
   -2.1328    1.0057   -1.1133 H   0  0  0  0  0  0  0  0  0  0  0  0
   -1.8125   -1.7564   -0.2154 H   0  0  0  0  0  0  0  0  0  0  0  0
   -1.6471   -1.0631    1.4975 H   0  0  0  0  0  0  0  0  0  0  0  0
    0.4812   -1.5112   -1.3993 H   0  0  0  0  0  0  0  0  0  0  0  0
  1  2  2  0
  2  3  1  0
  3  4  1  0
  4  5  1  0
  5  6  1  0
  6  7  1  0
  7  8  1  0
  8  9  1  0
  9  1  1  0
  6  3  1  0
  9  6  1  0
  1 10  1  0
  2 11  1  0
  3 12  1  0
  5 13  1  0
  5 14  1  0
  7 15  1  0
  7 16  1  0
  9 17  1  0
M  END
