
     RDKit          3D

 19 21  0  0  0  0  0  0  0  0999 V2000
   -1.1700    1.2616    0.3153 C   0  0  0  0  0  0  0  0  0  0  0  0
   -0.0476    0.6298    0.0215 C   0  0  0  0  0  0  0  0  0  0  0  0
   -0.3870   -0.8390   -0.2550 C   0  0  0  0  0  0  0  0  0  0  0  0
   -1.8056   -0.8204   -0.6572 C   0  0  0  0  0  0  0  0  0  0  0  0
   -2.3405    0.2988    0.2599 C   0  0  0  0  0  0  0  0  0  0  0  0
    0.6265   -0.7667   -1.1945 O   0  0  0  0  0  0  0  0  0  0  0  0
    1.2478    0.0736   -0.2811 C   0  0  0  0  0  0  0  0  0  0  0  0
    2.5175    0.6836   -0.3632 C   0  0  0  0  0  0  0  0  0  0  0  0
    2.1607   -0.3460    0.7610 C   0  0  0  0  0  0  0  0  0  0  0  0
   -1.3196    2.3004    0.5675 H   0  0  0  0  0  0  0  0  0  0  0  0
   -0.0864   -1.5006    0.5775 H   0  0  0  0  0  0  0  0  0  0  0  0
   -2.3142   -1.7738   -0.3788 H   0  0  0  0  0  0  0  0  0  0  0  0
   -1.9529   -0.5842   -1.7097 H   0  0  0  0  0  0  0  0  0  0  0  0
   -3.2098    0.7427   -0.2591 H   0  0  0  0  0  0  0  0  0  0  0  0
   -2.5460   -0.1426    1.2342 H   0  0  0  0  0  0  0  0  0  0  0  0
    3.2788    0.2804   -1.0902 H   0  0  0  0  0  0  0  0  0  0  0  0
    2.7065    1.7166   -0.0116 H   0  0  0  0  0  0  0  0  0  0  0  0
    2.6284   -1.3321    0.6870 H   0  0  0  0  0  0  0  0  0  0  0  0
    2.0134    0.1178    1.7766 H   0  0  0  0  0  0  0  0  0  0  0  0
  1  2  2  0
  2  3  1  0
  3  4  1  0
  4  5  1  0
  3  6  1  0
  6  7  1  0
  7  8  1  0
  8  9  1  0
  5  1  1  0
  9  7  1  0
  7  2  1  0
  1 10  1  0
  3 11  1  0
  4 12  1  0
  4 13  1  0
  5 14  1  0
  5 15  1  0
  8 16  1  0
  8 17  1  0
  9 18  1  0
  9 19  1  0
M  END
