
     RDKit          3D

 21 23  0  0  0  0  0  0  0  0999 V2000
    1.7289   -0.0486   -0.9055 C   0  0  0  0  0  0  0  0  0  0  0  0
    0.6370    0.6736   -1.0853 C   0  0  0  0  0  0  0  0  0  0  0  0
   -0.0034    0.8892    0.2302 C   0  0  0  0  0  0  0  0  0  0  0  0
   -1.0237    1.8604    0.2762 C   0  0  0  0  0  0  0  0  0  0  0  0
   -1.5485    0.5561    0.3406 C   0  0  0  0  0  0  0  0  0  0  0  0
   -1.4530   -0.6367   -0.5445 C   0  0  0  0  0  0  0  0  0  0  0  0
   -0.2979   -1.3888    0.1507 C   0  0  0  0  0  0  0  0  0  0  0  0
    0.4089   -0.2839    0.9609 C   0  0  0  0  0  0  0  0  0  0  0  0
    1.8935   -0.3715    0.5620 C   0  0  0  0  0  0  0  0  0  0  0  0
    2.4528   -0.3968   -1.6659 H   0  0  0  0  0  0  0  0  0  0  0  0
    0.3233    1.0180   -2.0726 H   0  0  0  0  0  0  0  0  0  0  0  0
   -1.0865    2.5231    1.1795 H   0  0  0  0  0  0  0  0  0  0  0  0
   -1.2309    2.4793   -0.6342 H   0  0  0  0  0  0  0  0  0  0  0  0
   -1.8802    0.2117    1.3719 H   0  0  0  0  0  0  0  0  0  0  0  0
   -2.3370   -1.2974   -0.4218 H   0  0  0  0  0  0  0  0  0  0  0  0
   -1.2410   -0.4316   -1.5879 H   0  0  0  0  0  0  0  0  0  0  0  0
   -0.6615   -2.1862    0.7958 H   0  0  0  0  0  0  0  0  0  0  0  0
    0.3442   -1.7496   -0.6788 H   0  0  0  0  0  0  0  0  0  0  0  0
    0.2464   -0.3658    2.0215 H   0  0  0  0  0  0  0  0  0  0  0  0
    2.2238   -1.4138    0.6232 H   0  0  0  0  0  0  0  0  0  0  0  0
    2.5050    0.3593    1.0841 H   0  0  0  0  0  0  0  0  0  0  0  0
  1  2  2  0
  2  3  1  0
  3  4  1  0
  4  5  1  0
  5  6  1  0
  6  7  1  0
  7  8  1  0
  8  9  1  0
  9  1  1  0
  5  3  1  0
  8  3  1  0
  1 10  1  0
  2 11  1  0
  4 12  1  0
  4 13  1  0
  5 14  1  0
  6 15  1  0
  6 16  1  0
  7 17  1  0
  7 18  1  0
  8 19  1  0
  9 20  1  0
  9 21  1  0
M  END
