
     RDKit          3D

 19 21  0  0  0  0  0  0  0  0999 V2000
    1.7795    0.6455    0.8855 C   0  0  0  0  0  0  0  0  0  0  0  0
    1.2268    1.5421    0.1166 C   0  0  0  0  0  0  0  0  0  0  0  0
    0.0599    0.9715   -0.5991 C   0  0  0  0  0  0  0  0  0  0  0  0
   -1.0851    1.4692   -0.0214 O   0  0  0  0  0  0  0  0  0  0  0  0
   -2.0377    0.4932    0.0160 C   0  0  0  0  0  0  0  0  0  0  0  0
   -1.3577   -0.8439   -0.1584 C   0  0  0  0  0  0  0  0  0  0  0  0
    0.0621   -0.4711   -0.3614 C   0  0  0  0  0  0  0  0  0  0  0  0
    1.1764   -1.3908   -0.4571 C   0  0  0  0  0  0  0  0  0  0  0  0
    1.0638   -0.6396    0.7909 C   0  0  0  0  0  0  0  0  0  0  0  0
    2.6409    0.8000    1.5121 H   0  0  0  0  0  0  0  0  0  0  0  0
    1.5545    2.5635    0.0005 H   0  0  0  0  0  0  0  0  0  0  0  0
    0.0768    1.2636   -1.6871 H   0  0  0  0  0  0  0  0  0  0  0  0
   -2.5823    0.4940    0.9987 H   0  0  0  0  0  0  0  0  0  0  0  0
   -2.8262    0.6293   -0.7535 H   0  0  0  0  0  0  0  0  0  0  0  0
   -1.5281   -1.5144    0.7108 H   0  0  0  0  0  0  0  0  0  0  0  0
   -1.7868   -1.3549   -1.0627 H   0  0  0  0  0  0  0  0  0  0  0  0
    2.0491   -1.1361   -1.1199 H   0  0  0  0  0  0  0  0  0  0  0  0
    0.9411   -2.4751   -0.5115 H   0  0  0  0  0  0  0  0  0  0  0  0
    0.5729   -1.0460    1.7009 H   0  0  0  0  0  0  0  0  0  0  0  0
  1  2  2  0
  2  3  1  0
  3  4  1  0
  4  5  1  0
  5  6  1  0
  6  7  1  0
  7  8  1  0
  8  9  1  0
  9  1  1  0
  7  3  1  0
  9  7  1  0
  1 10  1  0
  2 11  1  0
  3 12  1  0
  5 13  1  0
  5 14  1  0
  6 15  1  0
  6 16  1  0
  8 17  1  0
  8 18  1  0
  9 19  1  0
M  END
