
     RDKit          3D

 21 22  0  0  0  0  0  0  0  0999 V2000
    1.7714    0.4046    0.2694 C   0  0  0  0  0  0  0  0  0  0  0  0
    1.0664    1.4246   -0.1772 C   0  0  0  0  0  0  0  0  0  0  0  0
   -0.3810    1.6177   -0.1734 C   0  0  0  0  0  0  0  0  0  0  0  0
   -1.1585    0.4599   -0.7441 C   0  0  0  0  0  0  0  0  0  0  0  0
   -1.9230   -0.1440    0.3809 C   0  0  0  0  0  0  0  0  0  0  0  0
   -1.0308   -0.7800    1.1219 C   0  0  0  0  0  0  0  0  0  0  0  0
    0.0127   -1.3126    0.2078 C   0  0  0  0  0  0  0  0  0  0  0  0
    1.4028   -0.9732    0.6256 C   0  0  0  0  0  0  0  0  0  0  0  0
   -0.2679   -0.7023   -1.1327 C   0  0  0  0  0  0  0  0  0  0  0  0
    2.8310    0.6231    0.4002 H   0  0  0  0  0  0  0  0  0  0  0  0
    1.6412    2.2291   -0.6054 H   0  0  0  0  0  0  0  0  0  0  0  0
   -0.6642    2.5200   -0.7678 H   0  0  0  0  0  0  0  0  0  0  0  0
   -0.6877    1.8613    0.8794 H   0  0  0  0  0  0  0  0  0  0  0  0
   -1.8261    0.7660   -1.5772 H   0  0  0  0  0  0  0  0  0  0  0  0
   -2.9817   -0.0632    0.5361 H   0  0  0  0  0  0  0  0  0  0  0  0
   -1.0506   -0.8983    2.2051 H   0  0  0  0  0  0  0  0  0  0  0  0
   -0.1003   -2.4166    0.1990 H   0  0  0  0  0  0  0  0  0  0  0  0
    1.5123   -1.1699    1.7177 H   0  0  0  0  0  0  0  0  0  0  0  0
    2.0950   -1.6698    0.0950 H   0  0  0  0  0  0  0  0  0  0  0  0
    0.6253   -0.3978   -1.6847 H   0  0  0  0  0  0  0  0  0  0  0  0
   -0.8861   -1.3784   -1.7759 H   0  0  0  0  0  0  0  0  0  0  0  0
  1  2  2  0
  2  3  1  0
  3  4  1  0
  4  5  1  0
  5  6  2  0
  6  7  1  0
  7  8  1  0
  7  9  1  0
  8  1  1  0
  9  4  1  0
  1 10  1  0
  2 11  1  0
  3 12  1  0
  3 13  1  0
  4 14  1  0
  5 15  1  0
  6 16  1  0
  7 17  1  0
  8 18  1  0
  8 19  1  0
  9 20  1  0
  9 21  1  0
M  END
