
     RDKit          3D

 21 22  0  0  0  0  0  0  0  0999 V2000
    1.5878   -0.4427   -0.3673 C   0  0  0  0  0  0  0  0  0  0  0  0
    1.3705    0.8458   -0.4596 C   0  0  0  0  0  0  0  0  0  0  0  0
    0.5997    1.9347    0.2076 C   0  0  0  0  0  0  0  0  0  0  0  0
   -0.7252    1.3673    0.6698 C   0  0  0  0  0  0  0  0  0  0  0  0
   -1.4363    0.5978   -0.4102 C   0  0  0  0  0  0  0  0  0  0  0  0
   -1.2458   -0.5583    0.5604 C   0  0  0  0  0  0  0  0  0  0  0  0
   -0.5608   -1.6755   -0.1328 C   0  0  0  0  0  0  0  0  0  0  0  0
    0.9293   -1.7066    0.0448 C   0  0  0  0  0  0  0  0  0  0  0  0
   -0.4539    0.2045    1.3705 O   0  0  0  0  0  0  0  0  0  0  0  0
    2.6103   -0.6859   -0.7120 H   0  0  0  0  0  0  0  0  0  0  0  0
    1.9334    1.2787   -1.2976 H   0  0  0  0  0  0  0  0  0  0  0  0
    0.4902    2.8095   -0.4349 H   0  0  0  0  0  0  0  0  0  0  0  0
    1.1205    2.2846    1.1444 H   0  0  0  0  0  0  0  0  0  0  0  0
   -1.3746    2.1015    1.1550 H   0  0  0  0  0  0  0  0  0  0  0  0
   -0.8874    0.4664   -1.3558 H   0  0  0  0  0  0  0  0  0  0  0  0
   -2.4969    0.8874   -0.5775 H   0  0  0  0  0  0  0  0  0  0  0  0
   -2.1937   -0.8635    1.0826 H   0  0  0  0  0  0  0  0  0  0  0  0
   -0.9619   -2.6311    0.2502 H   0  0  0  0  0  0  0  0  0  0  0  0
   -0.8019   -1.6715   -1.2316 H   0  0  0  0  0  0  0  0  0  0  0  0
    1.1873   -1.9951    1.0904 H   0  0  0  0  0  0  0  0  0  0  0  0
    1.3092   -2.5481   -0.5961 H   0  0  0  0  0  0  0  0  0  0  0  0
  1  2  2  3
  2  3  1  0
  3  4  1  0
  4  5  1  0
  5  6  1  0
  6  7  1  0
  7  8  1  0
  6  9  1  0
  8  1  1  0
  9  4  1  0
  1 10  1  0
  2 11  1  0
  3 12  1  0
  3 13  1  0
  4 14  1  0
  5 15  1  0
  5 16  1  0
  6 17  1  0
  7 18  1  0
  7 19  1  0
  8 20  1  0
  8 21  1  0
M  END
