
     RDKit          3D

 19 21  0  0  0  0  0  0  0  0999 V2000
    2.1405   -0.1221   -0.2754 C   0  0  0  0  0  0  0  0  0  0  0  0
    1.5461    1.0467   -0.4818 C   0  0  0  0  0  0  0  0  0  0  0  0
    0.2786    1.0487    0.2021 C   0  0  0  0  0  0  0  0  0  0  0  0
   -0.8345    1.5124   -0.4570 O   0  0  0  0  0  0  0  0  0  0  0  0
   -1.8436    0.9869    0.3960 C   0  0  0  0  0  0  0  0  0  0  0  0
   -1.3836   -0.4711    0.6238 C   0  0  0  0  0  0  0  0  0  0  0  0
   -0.9376   -1.1006   -0.6525 C   0  0  0  0  0  0  0  0  0  0  0  0
   -0.0317   -0.4223    0.2729 C   0  0  0  0  0  0  0  0  0  0  0  0
    1.2534   -0.9982    0.5971 C   0  0  0  0  0  0  0  0  0  0  0  0
    3.1072   -0.4737   -0.6369 H   0  0  0  0  0  0  0  0  0  0  0  0
    1.9848    1.8632   -1.0875 H   0  0  0  0  0  0  0  0  0  0  0  0
    0.3416    1.4996    1.2399 H   0  0  0  0  0  0  0  0  0  0  0  0
   -1.7163    1.5097    1.3492 H   0  0  0  0  0  0  0  0  0  0  0  0
   -2.8279    1.0338   -0.0533 H   0  0  0  0  0  0  0  0  0  0  0  0
   -1.8950   -1.0159    1.4107 H   0  0  0  0  0  0  0  0  0  0  0  0
   -1.2089   -0.6616   -1.6309 H   0  0  0  0  0  0  0  0  0  0  0  0
   -0.9037   -2.2015   -0.6562 H   0  0  0  0  0  0  0  0  0  0  0  0
    1.5905   -1.0101    1.6309 H   0  0  0  0  0  0  0  0  0  0  0  0
    1.3399   -2.0239    0.1814 H   0  0  0  0  0  0  0  0  0  0  0  0
  1  2  2  0
  2  3  1  0
  3  4  1  0
  4  5  1  0
  5  6  1  0
  6  7  1  0
  7  8  1  0
  8  9  1  0
  9  1  1  0
  8  3  1  0
  8  6  1  0
  1 10  1  0
  2 11  1  0
  3 12  1  0
  5 13  1  0
  5 14  1  0
  6 15  1  0
  7 16  1  0
  7 17  1  0
  9 18  1  0
  9 19  1  0
M  END
