
     RDKit          3D

 18 19  0  0  0  0  0  0  0  0999 V2000
    1.0179   -1.2119    0.3748 C   0  0  0  0  0  0  0  0  0  0  0  0
   -0.1637   -0.7184    0.0913 C   0  0  0  0  0  0  0  0  0  0  0  0
   -1.6279   -0.8793    0.1013 C   0  0  0  0  0  0  0  0  0  0  0  0
   -2.1191    0.5446    0.1020 C   0  0  0  0  0  0  0  0  0  0  0  0
   -1.0684    1.3622   -0.2001 O   0  0  0  0  0  0  0  0  0  0  0  0
    0.0324    0.6236   -0.5393 C   0  0  0  0  0  0  0  0  0  0  0  0
    1.3368    1.0785    0.0448 C   0  0  0  0  0  0  0  0  0  0  0  0
    2.1007   -0.2603   -0.0200 C   0  0  0  0  0  0  0  0  0  0  0  0
    1.2105   -2.1734    0.8319 H   0  0  0  0  0  0  0  0  0  0  0  0
   -2.0079   -1.4484    0.9698 H   0  0  0  0  0  0  0  0  0  0  0  0
   -1.9037   -1.4072   -0.8333 H   0  0  0  0  0  0  0  0  0  0  0  0
   -2.4682    0.7508    1.1477 H   0  0  0  0  0  0  0  0  0  0  0  0
   -2.9571    0.6112   -0.6232 H   0  0  0  0  0  0  0  0  0  0  0  0
    0.1246    0.5590   -1.6384 H   0  0  0  0  0  0  0  0  0  0  0  0
    1.2682    1.4288    1.0791 H   0  0  0  0  0  0  0  0  0  0  0  0
    1.8724    1.7945   -0.5959 H   0  0  0  0  0  0  0  0  0  0  0  0
    2.8956   -0.1830    0.7340 H   0  0  0  0  0  0  0  0  0  0  0  0
    2.4569   -0.4712   -1.0264 H   0  0  0  0  0  0  0  0  0  0  0  0
  1  2  2  0
  2  3  1  0
  3  4  1  0
  4  5  1  0
  5  6  1  0
  6  7  1  0
  7  8  1  0
  8  1  1  0
  6  2  1  0
  1  9  1  0
  3 10  1  0
  3 11  1  0
  4 12  1  0
  4 13  1  0
  6 14  1  0
  7 15  1  0
  7 16  1  0
  8 17  1  0
  8 18  1  0
M  END
