
     RDKit          3D

 21 22  0  0  0  0  0  0  0  0999 V2000
   -2.6139    0.3171   -0.6309 C   0  0  0  0  0  0  0  0  0  0  0  0
   -2.4826   -0.0238    0.6475 C   0  0  0  0  0  0  0  0  0  0  0  0
   -1.0260   -0.1181    0.9945 C   0  0  0  0  0  0  0  0  0  0  0  0
   -0.4240   -0.3776   -0.3628 C   0  0  0  0  0  0  0  0  0  0  0  0
    1.0359   -0.0765   -0.4321 C   0  0  0  0  0  0  0  0  0  0  0  0
    1.9214   -0.8451    0.4926 C   0  0  0  0  0  0  0  0  0  0  0  0
    2.7053    0.4697    0.3712 C   0  0  0  0  0  0  0  0  0  0  0  0
    1.4493    1.0953    0.1980 O   0  0  0  0  0  0  0  0  0  0  0  0
   -1.2681    0.4810   -1.2519 C   0  0  0  0  0  0  0  0  0  0  0  0
   -3.5443    0.4642   -1.1784 H   0  0  0  0  0  0  0  0  0  0  0  0
   -3.3304   -0.1969    1.3007 H   0  0  0  0  0  0  0  0  0  0  0  0
   -0.7309    0.8825    1.3720 H   0  0  0  0  0  0  0  0  0  0  0  0
   -0.8094   -0.9023    1.7209 H   0  0  0  0  0  0  0  0  0  0  0  0
   -0.5934   -1.4412   -0.6045 H   0  0  0  0  0  0  0  0  0  0  0  0
    1.4208   -0.0839   -1.4718 H   0  0  0  0  0  0  0  0  0  0  0  0
    2.4482   -1.7206    0.0730 H   0  0  0  0  0  0  0  0  0  0  0  0
    1.5688   -0.9415    1.5229 H   0  0  0  0  0  0  0  0  0  0  0  0
    3.2525    0.7622    1.2647 H   0  0  0  0  0  0  0  0  0  0  0  0
    3.2783    0.5617   -0.5718 H   0  0  0  0  0  0  0  0  0  0  0  0
   -1.0027    1.5552   -1.1503 H   0  0  0  0  0  0  0  0  0  0  0  0
   -1.2545    0.1386   -2.3034 H   0  0  0  0  0  0  0  0  0  0  0  0
  1  2  2  0
  2  3  1  0
  3  4  1  0
  4  5  1  0
  5  6  1  0
  6  7  1  0
  7  8  1  0
  4  9  1  0
  9  1  1  0
  8  5  1  0
  1 10  1  0
  2 11  1  0
  3 12  1  0
  3 13  1  0
  4 14  1  0
  5 15  1  0
  6 16  1  0
  6 17  1  0
  7 18  1  0
  7 19  1  0
  9 20  1  0
  9 21  1  0
M  END
