
     RDKit          3D

 19 20  0  0  0  0  0  0  0  0999 V2000
   -2.0281    0.6205    0.6199 C   0  0  0  0  0  0  0  0  0  0  0  0
   -1.0351    1.4202    0.9665 C   0  0  0  0  0  0  0  0  0  0  0  0
    0.2743    0.8747    0.4485 C   0  0  0  0  0  0  0  0  0  0  0  0
    0.8432   -0.0043    1.3523 O   0  0  0  0  0  0  0  0  0  0  0  0
    1.8930   -0.6500    0.6750 C   0  0  0  0  0  0  0  0  0  0  0  0
    1.2905   -1.5444   -0.2103 O   0  0  0  0  0  0  0  0  0  0  0  0
    0.7404   -0.8768   -1.2820 C   0  0  0  0  0  0  0  0  0  0  0  0
   -0.2599    0.1423   -0.7917 C   0  0  0  0  0  0  0  0  0  0  0  0
   -1.4633   -0.5158   -0.1519 C   0  0  0  0  0  0  0  0  0  0  0  0
   -3.0654    0.8064    0.8798 H   0  0  0  0  0  0  0  0  0  0  0  0
   -1.1314    2.3340    1.5369 H   0  0  0  0  0  0  0  0  0  0  0  0
    0.9499    1.6864    0.1264 H   0  0  0  0  0  0  0  0  0  0  0  0
    2.4274    0.1727    0.1258 H   0  0  0  0  0  0  0  0  0  0  0  0
    2.5760   -1.1676    1.3714 H   0  0  0  0  0  0  0  0  0  0  0  0
    1.5089   -0.3370   -1.8586 H   0  0  0  0  0  0  0  0  0  0  0  0
    0.2185   -1.6228   -1.9098 H   0  0  0  0  0  0  0  0  0  0  0  0
   -0.5233    0.8992   -1.5407 H   0  0  0  0  0  0  0  0  0  0  0  0
   -1.0500   -1.3080    0.5308 H   0  0  0  0  0  0  0  0  0  0  0  0
   -2.1657   -0.9297   -0.8882 H   0  0  0  0  0  0  0  0  0  0  0  0
  1  2  2  0
  2  3  1  0
  3  4  1  0
  4  5  1  0
  5  6  1  0
  6  7  1  0
  7  8  1  0
  8  9  1  0
  9  1  1  0
  8  3  1  0
  1 10  1  0
  2 11  1  0
  3 12  1  0
  5 13  1  0
  5 14  1  0
  7 15  1  0
  7 16  1  0
  8 17  1  0
  9 18  1  0
  9 19  1  0
M  END
