
     RDKit          3D

 23 24  0  0  0  0  0  0  0  0999 V2000
   -1.5057    1.2035    0.2427 C   0  0  0  0  0  0  0  0  0  0  0  0
   -0.3768    1.8829    0.1134 C   0  0  0  0  0  0  0  0  0  0  0  0
    1.0700    1.5362    0.1319 C   0  0  0  0  0  0  0  0  0  0  0  0
    1.3532    0.4491   -0.8841 C   0  0  0  0  0  0  0  0  0  0  0  0
    1.3789   -0.9194   -0.3207 C   0  0  0  0  0  0  0  0  0  0  0  0
    0.8882   -1.2348    1.0470 C   0  0  0  0  0  0  0  0  0  0  0  0
    0.1509   -1.6630   -0.1898 C   0  0  0  0  0  0  0  0  0  0  0  0
   -1.1281   -1.0596   -0.6001 C   0  0  0  0  0  0  0  0  0  0  0  0
   -1.8166   -0.2347    0.4675 C   0  0  0  0  0  0  0  0  0  0  0  0
   -2.3726    1.8499    0.1653 H   0  0  0  0  0  0  0  0  0  0  0  0
   -0.5903    2.9552   -0.0437 H   0  0  0  0  0  0  0  0  0  0  0  0
    1.4074    1.2802    1.1483 H   0  0  0  0  0  0  0  0  0  0  0  0
    1.6283    2.4856   -0.1255 H   0  0  0  0  0  0  0  0  0  0  0  0
    0.6460    0.6073   -1.7272 H   0  0  0  0  0  0  0  0  0  0  0  0
    2.3563    0.7286   -1.3299 H   0  0  0  0  0  0  0  0  0  0  0  0
    2.3028   -1.5100   -0.6114 H   0  0  0  0  0  0  0  0  0  0  0  0
    0.4635   -0.4368    1.7033 H   0  0  0  0  0  0  0  0  0  0  0  0
    1.4273   -1.9926    1.6551 H   0  0  0  0  0  0  0  0  0  0  0  0
    0.2003   -2.7854   -0.3450 H   0  0  0  0  0  0  0  0  0  0  0  0
   -1.8925   -1.8503   -0.8786 H   0  0  0  0  0  0  0  0  0  0  0  0
   -1.0909   -0.4210   -1.5169 H   0  0  0  0  0  0  0  0  0  0  0  0
   -2.9413   -0.3343    0.4086 H   0  0  0  0  0  0  0  0  0  0  0  0
   -1.5584   -0.5364    1.4898 H   0  0  0  0  0  0  0  0  0  0  0  0
  1  2  2  3
  2  3  1  0
  3  4  1  0
  4  5  1  0
  5  6  1  0
  6  7  1  0
  7  8  1  0
  8  9  1  0
  9  1  1  0
  7  5  1  0
  1 10  1  0
  2 11  1  0
  3 12  1  0
  3 13  1  0
  4 14  1  0
  4 15  1  0
  5 16  1  0
  6 17  1  0
  6 18  1  0
  7 19  1  0
  8 20  1  0
  8 21  1  0
  9 22  1  0
  9 23  1  0
M  END
