
     RDKit          3D

 16 18  0  0  0  0  0  0  0  0999 V2000
   -0.3621    1.4009   -0.2342 C   0  0  0  0  0  0  0  0  0  0  0  0
    0.8192    0.8689    0.0217 C   0  0  0  0  0  0  0  0  0  0  0  0
    2.2495    0.4115    0.2598 C   0  0  0  0  0  0  0  0  0  0  0  0
    1.6133   -0.3713    1.2999 O   0  0  0  0  0  0  0  0  0  0  0  0
    0.6650   -0.6055    0.3335 C   0  0  0  0  0  0  0  0  0  0  0  0
   -0.7633   -0.7791    0.6160 C   0  0  0  0  0  0  0  0  0  0  0  0
   -1.6589   -0.8324   -0.5854 C   0  0  0  0  0  0  0  0  0  0  0  0
   -1.4462    0.4457    0.0996 C   0  0  0  0  0  0  0  0  0  0  0  0
   -0.4728    2.3989   -0.6319 H   0  0  0  0  0  0  0  0  0  0  0  0
    2.9120    1.1852    0.6373 H   0  0  0  0  0  0  0  0  0  0  0  0
    2.5577   -0.1912   -0.5973 H   0  0  0  0  0  0  0  0  0  0  0  0
    1.0791   -1.1955   -0.5274 H   0  0  0  0  0  0  0  0  0  0  0  0
   -1.1018   -1.2181    1.5489 H   0  0  0  0  0  0  0  0  0  0  0  0
   -2.6766   -1.3036   -0.4562 H   0  0  0  0  0  0  0  0  0  0  0  0
   -1.1620   -1.0506   -1.5459 H   0  0  0  0  0  0  0  0  0  0  0  0
   -2.2520    0.8363    0.7751 H   0  0  0  0  0  0  0  0  0  0  0  0
  1  2  2  0
  2  3  1  0
  3  4  1  0
  4  5  1  0
  5  6  1  0
  6  7  1  0
  7  8  1  0
  8  1  1  0
  5  2  1  0
  8  6  1  0
  1  9  1  0
  3 10  1  0
  3 11  1  0
  5 12  1  0
  6 13  1  0
  7 14  1  0
  7 15  1  0
  8 16  1  0
M  END
