
     RDKit          3D

 19 21  0  0  0  0  0  0  0  0999 V2000
    0.2970    1.3495   -0.8204 C   0  0  0  0  0  0  0  0  0  0  0  0
   -0.7330    1.4335   -0.0241 C   0  0  0  0  0  0  0  0  0  0  0  0
   -1.2979    0.1603    0.4738 C   0  0  0  0  0  0  0  0  0  0  0  0
   -1.3644   -0.7339   -0.7737 C   0  0  0  0  0  0  0  0  0  0  0  0
    0.0786   -1.0658   -0.5118 C   0  0  0  0  0  0  0  0  0  0  0  0
    1.0384    0.0566   -0.8249 C   0  0  0  0  0  0  0  0  0  0  0  0
    1.8538    0.1060    0.4389 C   0  0  0  0  0  0  0  0  0  0  0  0
    1.0318   -0.1068    1.4527 C   0  0  0  0  0  0  0  0  0  0  0  0
   -0.2072   -0.7697    0.9667 C   0  0  0  0  0  0  0  0  0  0  0  0
    0.6369    2.1339   -1.4578 H   0  0  0  0  0  0  0  0  0  0  0  0
   -1.1613    2.3561    0.2653 H   0  0  0  0  0  0  0  0  0  0  0  0
   -2.2073    0.2051    1.0609 H   0  0  0  0  0  0  0  0  0  0  0  0
   -2.0112   -1.5876   -0.5928 H   0  0  0  0  0  0  0  0  0  0  0  0
   -1.5282   -0.1639   -1.7105 H   0  0  0  0  0  0  0  0  0  0  0  0
    0.4102   -2.0756   -0.7247 H   0  0  0  0  0  0  0  0  0  0  0  0
    1.6440   -0.1040   -1.7149 H   0  0  0  0  0  0  0  0  0  0  0  0
    2.9081    0.2840    0.4708 H   0  0  0  0  0  0  0  0  0  0  0  0
    1.1847    0.1418    2.4953 H   0  0  0  0  0  0  0  0  0  0  0  0
   -0.5730   -1.6195    1.5310 H   0  0  0  0  0  0  0  0  0  0  0  0
  1  2  2  0
  2  3  1  0
  3  4  1  0
  4  5  1  0
  5  6  1  0
  6  7  1  0
  7  8  2  0
  8  9  1  0
  6  1  1  0
  9  3  1  0
  9  5  1  0
  1 10  1  0
  2 11  1  0
  3 12  1  0
  4 13  1  0
  4 14  1  0
  5 15  1  0
  6 16  1  0
  7 17  1  0
  8 18  1  0
  9 19  1  0
M  END
