
     RDKit          3D

 16 17  0  0  0  0  0  0  0  0999 V2000
    1.0036    1.4193    0.0218 C   0  0  0  0  0  0  0  0  0  0  0  0
   -0.3183    1.5851    0.0014 C   0  0  0  0  0  0  0  0  0  0  0  0
   -1.3488    0.5064   -0.2214 C   0  0  0  0  0  0  0  0  0  0  0  0
   -1.0724   -0.6419    0.7354 C   0  0  0  0  0  0  0  0  0  0  0  0
   -0.3302   -1.3397   -0.4095 C   0  0  0  0  0  0  0  0  0  0  0  0
    1.1540   -1.0843   -0.2949 C   0  0  0  0  0  0  0  0  0  0  0  0
    1.7014    0.1105   -0.1012 C   0  0  0  0  0  0  0  0  0  0  0  0
   -0.9209   -0.3644   -1.2484 O   0  0  0  0  0  0  0  0  0  0  0  0
    1.6378    2.2894    0.1355 H   0  0  0  0  0  0  0  0  0  0  0  0
   -0.7360    2.5616    0.1532 H   0  0  0  0  0  0  0  0  0  0  0  0
   -2.3634    0.8518   -0.3065 H   0  0  0  0  0  0  0  0  0  0  0  0
   -0.3901   -0.4264    1.5572 H   0  0  0  0  0  0  0  0  0  0  0  0
   -1.9587   -1.2507    0.9901 H   0  0  0  0  0  0  0  0  0  0  0  0
   -0.6116   -2.3659   -0.6033 H   0  0  0  0  0  0  0  0  0  0  0  0
    1.7763   -1.9565   -0.3816 H   0  0  0  0  0  0  0  0  0  0  0  0
    2.7774    0.1057   -0.0277 H   0  0  0  0  0  0  0  0  0  0  0  0
  1  2  2  0
  2  3  1  0
  3  4  1  0
  4  5  1  0
  5  6  1  0
  6  7  2  0
  5  8  1  0
  7  1  1  0
  8  3  1  0
  1  9  1  0
  2 10  1  0
  3 11  1  0
  4 12  1  0
  4 13  1  0
  5 14  1  0
  6 15  1  0
  7 16  1  0
M  END
