
     RDKit          3D

 19 21  0  0  0  0  0  0  0  0999 V2000
    1.7902   -0.4800    0.3245 C   0  0  0  0  0  0  0  0  0  0  0  0
    0.6136   -1.0952    0.3524 C   0  0  0  0  0  0  0  0  0  0  0  0
   -0.5906   -0.7289   -0.4106 C   0  0  0  0  0  0  0  0  0  0  0  0
   -1.8089   -1.2911    0.0515 C   0  0  0  0  0  0  0  0  0  0  0  0
   -1.7403    0.1047    0.2391 C   0  0  0  0  0  0  0  0  0  0  0  0
   -0.6081    1.0537    0.4736 C   0  0  0  0  0  0  0  0  0  0  0  0
   -0.2789    0.6465   -0.9440 C   0  0  0  0  0  0  0  0  0  0  0  0
    0.9655    0.7927   -1.4201 O   0  0  0  0  0  0  0  0  0  0  0  0
    1.9947    0.7011   -0.5321 C   0  0  0  0  0  0  0  0  0  0  0  0
    2.6374   -0.8199    0.9252 H   0  0  0  0  0  0  0  0  0  0  0  0
    0.5836   -1.9531    1.0197 H   0  0  0  0  0  0  0  0  0  0  0  0
   -2.4366   -1.8136   -0.7324 H   0  0  0  0  0  0  0  0  0  0  0  0
   -1.8300   -1.9363    0.9839 H   0  0  0  0  0  0  0  0  0  0  0  0
   -2.4324    0.6286   -0.5095 H   0  0  0  0  0  0  0  0  0  0  0  0
   -0.9048    2.1232    0.5042 H   0  0  0  0  0  0  0  0  0  0  0  0
    0.0676    0.8531    1.2799 H   0  0  0  0  0  0  0  0  0  0  0  0
   -1.0842    0.9720   -1.6229 H   0  0  0  0  0  0  0  0  0  0  0  0
    2.9579    0.6002   -1.0917 H   0  0  0  0  0  0  0  0  0  0  0  0
    2.1044    1.6425    0.0470 H   0  0  0  0  0  0  0  0  0  0  0  0
  1  2  2  0
  2  3  1  0
  3  4  1  0
  4  5  1  0
  5  6  1  0
  6  7  1  0
  7  8  1  0
  8  9  1  0
  9  1  1  0
  5  3  1  0
  7  3  1  0
  1 10  1  0
  2 11  1  0
  4 12  1  0
  4 13  1  0
  5 14  1  0
  6 15  1  0
  6 16  1  0
  7 17  1  0
  9 18  1  0
  9 19  1  0
M  END
