
     RDKit          3D

 19 21  0  0  0  0  0  0  0  0999 V2000
    0.1429   -1.3254   -0.6081 C   0  0  0  0  0  0  0  0  0  0  0  0
    1.1780   -0.6560   -1.0809 C   0  0  0  0  0  0  0  0  0  0  0  0
    1.5758    0.3045   -0.0799 C   0  0  0  0  0  0  0  0  0  0  0  0
    1.1252    1.5846    0.2930 C   0  0  0  0  0  0  0  0  0  0  0  0
    0.1188    0.6537    0.4207 C   0  0  0  0  0  0  0  0  0  0  0  0
   -0.9759    0.7312   -0.6643 C   0  0  0  0  0  0  0  0  0  0  0  0
   -2.0848    0.1673   -0.0402 O   0  0  0  0  0  0  0  0  0  0  0  0
   -1.6505   -0.7362    0.9139 C   0  0  0  0  0  0  0  0  0  0  0  0
   -0.1408   -0.7573    0.7741 C   0  0  0  0  0  0  0  0  0  0  0  0
   -0.3744   -2.1089   -1.1199 H   0  0  0  0  0  0  0  0  0  0  0  0
    1.6271   -0.8158   -2.0433 H   0  0  0  0  0  0  0  0  0  0  0  0
    2.2041   -0.2353    0.7120 H   0  0  0  0  0  0  0  0  0  0  0  0
    1.5763    2.0717    1.2065 H   0  0  0  0  0  0  0  0  0  0  0  0
    1.0990    2.3740   -0.5192 H   0  0  0  0  0  0  0  0  0  0  0  0
   -1.1795    1.8094   -0.8280 H   0  0  0  0  0  0  0  0  0  0  0  0
   -0.7047    0.2227   -1.5821 H   0  0  0  0  0  0  0  0  0  0  0  0
   -2.0770   -1.7425    0.7664 H   0  0  0  0  0  0  0  0  0  0  0  0
   -1.8685   -0.3193    1.9184 H   0  0  0  0  0  0  0  0  0  0  0  0
    0.4090   -1.2224    1.5609 H   0  0  0  0  0  0  0  0  0  0  0  0
  1  2  2  0
  2  3  1  0
  3  4  1  0
  4  5  1  0
  5  6  1  0
  6  7  1  0
  7  8  1  0
  8  9  1  0
  9  1  1  0
  5  3  1  0
  9  5  1  0
  1 10  1  0
  2 11  1  0
  3 12  1  0
  4 13  1  0
  4 14  1  0
  6 15  1  0
  6 16  1  0
  8 17  1  0
  8 18  1  0
  9 19  1  0
M  END
