
     RDKit          3D

 17 19  0  0  0  0  0  0  0  0999 V2000
   -0.3655   -1.5663    0.1431 C   0  0  0  0  0  0  0  0  0  0  0  0
    0.7607   -0.8896    0.1490 C   0  0  0  0  0  0  0  0  0  0  0  0
    2.1094   -0.2657    0.2072 C   0  0  0  0  0  0  0  0  0  0  0  0
    1.6545    0.7745   -0.6792 O   0  0  0  0  0  0  0  0  0  0  0  0
    0.4349    0.4995   -0.2326 C   0  0  0  0  0  0  0  0  0  0  0  0
   -0.2919    1.3774    0.6943 C   0  0  0  0  0  0  0  0  0  0  0  0
   -1.1959    1.6284   -0.3737 O   0  0  0  0  0  0  0  0  0  0  0  0
   -0.7957    0.4249   -1.0059 C   0  0  0  0  0  0  0  0  0  0  0  0
   -1.5208   -0.7117   -0.2909 C   0  0  0  0  0  0  0  0  0  0  0  0
   -0.4732   -2.6082    0.4125 H   0  0  0  0  0  0  0  0  0  0  0  0
    2.3400    0.1066    1.2140 H   0  0  0  0  0  0  0  0  0  0  0  0
    2.9089   -0.8134   -0.3221 H   0  0  0  0  0  0  0  0  0  0  0  0
    0.2444    2.3432    0.8849 H   0  0  0  0  0  0  0  0  0  0  0  0
   -0.7469    0.9022    1.5725 H   0  0  0  0  0  0  0  0  0  0  0  0
   -0.8135    0.4205   -2.0856 H   0  0  0  0  0  0  0  0  0  0  0  0
   -2.0223   -0.3848    0.6411 H   0  0  0  0  0  0  0  0  0  0  0  0
   -2.2271   -1.2374   -0.9284 H   0  0  0  0  0  0  0  0  0  0  0  0
  1  2  2  0
  2  3  1  0
  3  4  1  0
  4  5  1  0
  5  6  1  0
  6  7  1  0
  7  8  1  0
  8  9  1  0
  9  1  1  0
  5  2  1  0
  8  5  1  0
  1 10  1  0
  3 11  1  0
  3 12  1  0
  6 13  1  0
  6 14  1  0
  8 15  1  0
  9 16  1  0
  9 17  1  0
M  END
