
     RDKit          3D

 21 22  0  0  0  0  0  0  0  0999 V2000
    1.7067   -0.6775    1.0110 C   0  0  0  0  0  0  0  0  0  0  0  0
    0.4912   -1.2093    0.9170 C   0  0  0  0  0  0  0  0  0  0  0  0
   -0.3278   -0.8019   -0.2543 C   0  0  0  0  0  0  0  0  0  0  0  0
   -1.7929   -0.9714   -0.0667 C   0  0  0  0  0  0  0  0  0  0  0  0
   -2.3248    0.4098    0.0563 C   0  0  0  0  0  0  0  0  0  0  0  0
   -1.1995    1.3194   -0.2661 C   0  0  0  0  0  0  0  0  0  0  0  0
   -0.0894    0.6629   -0.4402 C   0  0  0  0  0  0  0  0  0  0  0  0
    1.3331    1.0317   -0.7740 C   0  0  0  0  0  0  0  0  0  0  0  0
    2.3083    0.2683    0.0698 C   0  0  0  0  0  0  0  0  0  0  0  0
    2.3198   -0.9772    1.8794 H   0  0  0  0  0  0  0  0  0  0  0  0
    0.1453   -1.9009    1.6719 H   0  0  0  0  0  0  0  0  0  0  0  0
    0.0609   -1.3045   -1.1603 H   0  0  0  0  0  0  0  0  0  0  0  0
   -2.1974   -1.4202   -1.0206 H   0  0  0  0  0  0  0  0  0  0  0  0
   -2.0532   -1.6335    0.7884 H   0  0  0  0  0  0  0  0  0  0  0  0
   -2.7439    0.6391    1.0648 H   0  0  0  0  0  0  0  0  0  0  0  0
   -3.1756    0.5746   -0.6679 H   0  0  0  0  0  0  0  0  0  0  0  0
   -1.2785    2.4133   -0.3508 H   0  0  0  0  0  0  0  0  0  0  0  0
    1.4576    0.7535   -1.8430 H   0  0  0  0  0  0  0  0  0  0  0  0
    1.4649    2.1280   -0.6972 H   0  0  0  0  0  0  0  0  0  0  0  0
    2.8842    1.0121    0.6681 H   0  0  0  0  0  0  0  0  0  0  0  0
    3.0109   -0.3164   -0.5857 H   0  0  0  0  0  0  0  0  0  0  0  0
  1  2  2  0
  2  3  1  0
  3  4  1  0
  4  5  1  0
  5  6  1  0
  6  7  2  0
  7  8  1  0
  8  9  1  0
  9  1  1  0
  7  3  1  0
  1 10  1  0
  2 11  1  0
  3 12  1  0
  4 13  1  0
  4 14  1  0
  5 15  1  0
  5 16  1  0
  6 17  1  0
  8 18  1  0
  8 19  1  0
  9 20  1  0
  9 21  1  0
M  END
