
     RDKit          3D

 18 20  0  0  0  0  0  0  0  0999 V2000
   -1.3379   -0.8196    0.9916 C   0  0  0  0  0  0  0  0  0  0  0  0
   -1.5194   -1.0375   -0.3361 C   0  0  0  0  0  0  0  0  0  0  0  0
   -0.6585    0.0330   -0.9483 C   0  0  0  0  0  0  0  0  0  0  0  0
   -1.1080    1.2165   -0.0683 C   0  0  0  0  0  0  0  0  0  0  0  0
   -0.4292    0.3485    1.0085 C   0  0  0  0  0  0  0  0  0  0  0  0
    0.5292    0.0255   -0.0896 C   0  0  0  0  0  0  0  0  0  0  0  0
    1.6181   -0.8880   -0.0453 C   0  0  0  0  0  0  0  0  0  0  0  0
    1.8070    0.6243   -0.3147 C   0  0  0  0  0  0  0  0  0  0  0  0
   -1.7396   -1.3456    1.8256 H   0  0  0  0  0  0  0  0  0  0  0  0
   -2.1242   -1.7847   -0.8144 H   0  0  0  0  0  0  0  0  0  0  0  0
   -0.6526    0.1633   -1.9876 H   0  0  0  0  0  0  0  0  0  0  0  0
   -2.1915    1.2762    0.0170 H   0  0  0  0  0  0  0  0  0  0  0  0
   -0.5559    2.1152   -0.3319 H   0  0  0  0  0  0  0  0  0  0  0  0
   -0.1320    0.8071    1.9031 H   0  0  0  0  0  0  0  0  0  0  0  0
    1.8856   -1.5186   -0.9337 H   0  0  0  0  0  0  0  0  0  0  0  0
    2.0801   -1.2920    0.8832 H   0  0  0  0  0  0  0  0  0  0  0  0
    2.3030    1.1586    0.5324 H   0  0  0  0  0  0  0  0  0  0  0  0
    2.2258    0.9177   -1.2913 H   0  0  0  0  0  0  0  0  0  0  0  0
  1  2  2  0
  2  3  1  0
  3  4  1  0
  4  5  1  0
  5  6  1  0
  6  7  1  0
  7  8  1  0
  5  1  1  0
  8  6  1  0
  6  3  1  0
  1  9  1  0
  2 10  1  0
  3 11  1  0
  4 12  1  0
  4 13  1  0
  5 14  1  0
  7 15  1  0
  7 16  1  0
  8 17  1  0
  8 18  1  0
M  END
