
     RDKit          3D

 19 21  0  0  0  0  0  0  0  0999 V2000
   -1.4147   -1.3416    0.0242 C   0  0  0  0  0  0  0  0  0  0  0  0
   -0.1481   -1.4270   -0.3350 C   0  0  0  0  0  0  0  0  0  0  0  0
    0.5456   -0.2099    0.0500 C   0  0  0  0  0  0  0  0  0  0  0  0
    1.2691    0.5418   -1.0417 C   0  0  0  0  0  0  0  0  0  0  0  0
    2.2261    0.9092   -0.0808 O   0  0  0  0  0  0  0  0  0  0  0  0
    1.9494   -0.3236    0.5369 C   0  0  0  0  0  0  0  0  0  0  0  0
   -0.3975    0.6547    0.7649 C   0  0  0  0  0  0  0  0  0  0  0  0
   -1.5460    1.1911   -0.1267 C   0  0  0  0  0  0  0  0  0  0  0  0
   -1.6868   -0.0508    0.6871 C   0  0  0  0  0  0  0  0  0  0  0  0
   -2.1599   -2.1201   -0.1459 H   0  0  0  0  0  0  0  0  0  0  0  0
    0.2768   -2.3000   -0.8440 H   0  0  0  0  0  0  0  0  0  0  0  0
    0.7140    1.4356   -1.3745 H   0  0  0  0  0  0  0  0  0  0  0  0
    1.7292   -0.0790   -1.8254 H   0  0  0  0  0  0  0  0  0  0  0  0
    2.4893   -1.1152   -0.0360 H   0  0  0  0  0  0  0  0  0  0  0  0
    2.1208   -0.3411    1.6185 H   0  0  0  0  0  0  0  0  0  0  0  0
   -0.1155    1.3139    1.5975 H   0  0  0  0  0  0  0  0  0  0  0  0
   -1.3924    1.1589   -1.2171 H   0  0  0  0  0  0  0  0  0  0  0  0
   -2.0493    2.1163    0.2175 H   0  0  0  0  0  0  0  0  0  0  0  0
   -2.4100   -0.0132    1.5305 H   0  0  0  0  0  0  0  0  0  0  0  0
  1  2  2  0
  2  3  1  0
  3  4  1  0
  4  5  1  0
  5  6  1  0
  3  7  1  0
  7  8  1  0
  8  9  1  0
  9  1  1  0
  6  3  1  0
  9  7  1  0
  1 10  1  0
  2 11  1  0
  4 12  1  0
  4 13  1  0
  6 14  1  0
  6 15  1  0
  7 16  1  0
  8 17  1  0
  8 18  1  0
  9 19  1  0
M  END
