
     RDKit          3D

 19 21  0  0  0  0  0  0  0  0999 V2000
   -1.3597    1.3259   -0.1951 C   0  0  0  0  0  0  0  0  0  0  0  0
   -0.9719    1.1044    1.0600 C   0  0  0  0  0  0  0  0  0  0  0  0
    0.2574    0.3029    1.0908 C   0  0  0  0  0  0  0  0  0  0  0  0
    0.0007   -1.1587    0.7316 C   0  0  0  0  0  0  0  0  0  0  0  0
   -0.8912   -1.0023   -0.4844 C   0  0  0  0  0  0  0  0  0  0  0  0
   -0.5109    0.3722   -1.0003 C   0  0  0  0  0  0  0  0  0  0  0  0
    0.8259    0.6347   -0.3061 C   0  0  0  0  0  0  0  0  0  0  0  0
    1.7736   -0.5082   -0.4740 C   0  0  0  0  0  0  0  0  0  0  0  0
    1.2417   -1.5840    0.2232 O   0  0  0  0  0  0  0  0  0  0  0  0
   -2.0764    1.9852   -0.6211 H   0  0  0  0  0  0  0  0  0  0  0  0
   -1.5142    1.4800    1.9158 H   0  0  0  0  0  0  0  0  0  0  0  0
    0.9438    0.4638    1.8848 H   0  0  0  0  0  0  0  0  0  0  0  0
   -0.3890   -1.7547    1.5232 H   0  0  0  0  0  0  0  0  0  0  0  0
   -1.9691   -1.0291   -0.1775 H   0  0  0  0  0  0  0  0  0  0  0  0
   -0.7435   -1.7902   -1.2316 H   0  0  0  0  0  0  0  0  0  0  0  0
   -0.5264    0.5159   -2.0444 H   0  0  0  0  0  0  0  0  0  0  0  0
    1.2037    1.6218   -0.3984 H   0  0  0  0  0  0  0  0  0  0  0  0
    1.9867   -0.7476   -1.5353 H   0  0  0  0  0  0  0  0  0  0  0  0
    2.7187   -0.2319    0.0392 H   0  0  0  0  0  0  0  0  0  0  0  0
  1  2  2  0
  2  3  1  0
  3  4  1  0
  4  5  1  0
  5  6  1  0
  6  7  1  0
  7  8  1  0
  8  9  1  0
  6  1  1  0
  7  3  1  0
  9  4  1  0
  1 10  1  0
  2 11  1  0
  3 12  1  0
  4 13  1  0
  5 14  1  0
  5 15  1  0
  6 16  1  0
  7 17  1  0
  8 18  1  0
  8 19  1  0
M  END
