
     RDKit          3D

 21 22  0  0  0  0  0  0  0  0999 V2000
    1.3791   -0.8903   -0.7960 C   0  0  0  0  0  0  0  0  0  0  0  0
    1.6553    0.3584   -0.4744 C   0  0  0  0  0  0  0  0  0  0  0  0
    0.6517    1.1455    0.3276 C   0  0  0  0  0  0  0  0  0  0  0  0
   -0.3798    1.6392   -0.6596 C   0  0  0  0  0  0  0  0  0  0  0  0
   -1.0589    0.5953   -1.2424 O   0  0  0  0  0  0  0  0  0  0  0  0
   -1.6942   -0.1996   -0.2934 C   0  0  0  0  0  0  0  0  0  0  0  0
   -0.6819   -0.8769    0.5948 C   0  0  0  0  0  0  0  0  0  0  0  0
    0.3121   -1.7078   -0.1719 C   0  0  0  0  0  0  0  0  0  0  0  0
    0.0601    0.1900    1.3458 C   0  0  0  0  0  0  0  0  0  0  0  0
    1.9741   -1.3546   -1.5726 H   0  0  0  0  0  0  0  0  0  0  0  0
    2.5616    0.8748   -0.7444 H   0  0  0  0  0  0  0  0  0  0  0  0
    1.1207    1.9892    0.8526 H   0  0  0  0  0  0  0  0  0  0  0  0
   -1.0404    2.3692   -0.1447 H   0  0  0  0  0  0  0  0  0  0  0  0
    0.1723    2.1928   -1.4463 H   0  0  0  0  0  0  0  0  0  0  0  0
   -2.3179    0.4428    0.3630 H   0  0  0  0  0  0  0  0  0  0  0  0
   -2.3467   -0.9034   -0.8117 H   0  0  0  0  0  0  0  0  0  0  0  0
   -1.2138   -1.5221    1.2947 H   0  0  0  0  0  0  0  0  0  0  0  0
    0.8161   -2.3702    0.5794 H   0  0  0  0  0  0  0  0  0  0  0  0
   -0.1691   -2.4010   -0.8934 H   0  0  0  0  0  0  0  0  0  0  0  0
    0.8763   -0.2811    1.8979 H   0  0  0  0  0  0  0  0  0  0  0  0
   -0.6767    0.7099    1.9950 H   0  0  0  0  0  0  0  0  0  0  0  0
  1  2  2  0
  2  3  1  0
  3  4  1  0
  4  5  1  0
  5  6  1  0
  6  7  1  0
  7  8  1  0
  7  9  1  0
  8  1  1  0
  9  3  1  0
  1 10  1  0
  2 11  1  0
  3 12  1  0
  4 13  1  0
  4 14  1  0
  6 15  1  0
  6 16  1  0
  7 17  1  0
  8 18  1  0
  8 19  1  0
  9 20  1  0
  9 21  1  0
M  END
