
     RDKit          3D

 14 16  0  0  0  0  0  0  0  0999 V2000
   -1.2186   -0.6912    0.4018 C   0  0  0  0  0  0  0  0  0  0  0  0
   -1.3440    0.5275   -0.1043 C   0  0  0  0  0  0  0  0  0  0  0  0
   -0.0397    1.1917    0.1191 C   0  0  0  0  0  0  0  0  0  0  0  0
    0.3587    0.5811    1.3278 O   0  0  0  0  0  0  0  0  0  0  0  0
    0.1777   -0.7621    0.9182 C   0  0  0  0  0  0  0  0  0  0  0  0
    1.0952   -0.8297   -0.2612 C   0  0  0  0  0  0  0  0  0  0  0  0
    2.1411    0.0731   -0.3884 O   0  0  0  0  0  0  0  0  0  0  0  0
    0.9494    0.5850   -0.8401 C   0  0  0  0  0  0  0  0  0  0  0  0
   -1.9897   -1.4507    0.4195 H   0  0  0  0  0  0  0  0  0  0  0  0
   -2.1801    1.0041   -0.5884 H   0  0  0  0  0  0  0  0  0  0  0  0
   -0.0597    2.2649    0.1564 H   0  0  0  0  0  0  0  0  0  0  0  0
    0.3410   -1.4793    1.6985 H   0  0  0  0  0  0  0  0  0  0  0  0
    1.0042   -1.6845   -0.9424 H   0  0  0  0  0  0  0  0  0  0  0  0
    0.7645    0.6701   -1.9165 H   0  0  0  0  0  0  0  0  0  0  0  0
  1  2  2  0
  2  3  1  0
  3  4  1  0
  4  5  1  0
  5  6  1  0
  6  7  1  0
  7  8  1  0
  5  1  1  0
  8  6  1  0
  8  3  1  0
  1  9  1  0
  2 10  1  0
  3 11  1  0
  5 12  1  0
  6 13  1  0
  8 14  1  0
M  END
