
     RDKit          3D

 16 17  0  0  0  0  0  0  0  0999 V2000
   -1.7733    0.4669    0.2409 C   0  0  0  0  0  0  0  0  0  0  0  0
   -0.8020    1.3427    0.0915 C   0  0  0  0  0  0  0  0  0  0  0  0
    0.4022    0.7539   -0.5472 C   0  0  0  0  0  0  0  0  0  0  0  0
    1.5519    0.9859    0.1530 O   0  0  0  0  0  0  0  0  0  0  0  0
    1.9569   -0.2048    0.7226 C   0  0  0  0  0  0  0  0  0  0  0  0
    0.7165   -0.8249    1.0096 O   0  0  0  0  0  0  0  0  0  0  0  0
    0.1523   -0.7329   -0.2606 C   0  0  0  0  0  0  0  0  0  0  0  0
   -1.3229   -0.8419   -0.2934 C   0  0  0  0  0  0  0  0  0  0  0  0
   -2.7549    0.6267    0.6752 H   0  0  0  0  0  0  0  0  0  0  0  0
   -0.8817    2.3772    0.4033 H   0  0  0  0  0  0  0  0  0  0  0  0
    0.4521    0.8815   -1.6261 H   0  0  0  0  0  0  0  0  0  0  0  0
    2.4004   -0.8372   -0.0898 H   0  0  0  0  0  0  0  0  0  0  0  0
    2.5835   -0.1078    1.6018 H   0  0  0  0  0  0  0  0  0  0  0  0
    0.6905   -1.3215   -1.0142 H   0  0  0  0  0  0  0  0  0  0  0  0
   -1.6396   -0.8765   -1.3578 H   0  0  0  0  0  0  0  0  0  0  0  0
   -1.7319   -1.6872    0.2910 H   0  0  0  0  0  0  0  0  0  0  0  0
  1  2  2  0
  2  3  1  0
  3  4  1  0
  4  5  1  0
  5  6  1  0
  6  7  1  0
  7  8  1  0
  8  1  1  0
  7  3  1  0
  1  9  1  0
  2 10  1  0
  3 11  1  0
  5 12  1  0
  5 13  1  0
  7 14  1  0
  8 15  1  0
  8 16  1  0
M  END
