
     RDKit          3D

 19 21  0  0  0  0  0  0  0  0999 V2000
   -0.3506    1.6021    0.1200 C   0  0  0  0  0  0  0  0  0  0  0  0
    0.6844    0.8402    0.1740 C   0  0  0  0  0  0  0  0  0  0  0  0
    2.1183    0.5490    0.1164 C   0  0  0  0  0  0  0  0  0  0  0  0
    1.9121   -0.5449   -0.8783 O   0  0  0  0  0  0  0  0  0  0  0  0
    0.9502   -1.3510   -0.3396 C   0  0  0  0  0  0  0  0  0  0  0  0
   -0.5086   -1.2224   -0.3250 C   0  0  0  0  0  0  0  0  0  0  0  0
   -1.4538   -0.2114   -0.8551 C   0  0  0  0  0  0  0  0  0  0  0  0
   -1.6701    0.8371    0.3161 C   0  0  0  0  0  0  0  0  0  0  0  0
    0.2781   -0.5903    0.7329 C   0  0  0  0  0  0  0  0  0  0  0  0
   -0.2595    2.6321   -0.0431 H   0  0  0  0  0  0  0  0  0  0  0  0
    2.7639    1.2837   -0.3349 H   0  0  0  0  0  0  0  0  0  0  0  0
    2.5382    0.0753    0.9961 H   0  0  0  0  0  0  0  0  0  0  0  0
    1.3314   -2.3725    0.0440 H   0  0  0  0  0  0  0  0  0  0  0  0
   -1.0647   -2.1818    0.0261 H   0  0  0  0  0  0  0  0  0  0  0  0
   -0.9978    0.3247   -1.6938 H   0  0  0  0  0  0  0  0  0  0  0  0
   -2.4237   -0.5951   -1.1717 H   0  0  0  0  0  0  0  0  0  0  0  0
   -2.5328    1.4407    0.1258 H   0  0  0  0  0  0  0  0  0  0  0  0
   -1.6290    0.2244    1.2192 H   0  0  0  0  0  0  0  0  0  0  0  0
    0.3142   -0.7398    1.7709 H   0  0  0  0  0  0  0  0  0  0  0  0
  1  2  2  0
  2  3  1  0
  3  4  1  0
  4  5  1  0
  5  6  1  0
  6  7  1  0
  7  8  1  0
  6  9  1  0
  8  1  1  0
  9  2  1  0
  9  5  1  0
  1 10  1  0
  3 11  1  0
  3 12  1  0
  5 13  1  0
  6 14  1  0
  7 15  1  0
  7 16  1  0
  8 17  1  0
  8 18  1  0
  9 19  1  0
M  END
