
     RDKit          3D

 21 22  0  0  0  0  0  0  0  0999 V2000
    0.3356   -1.7692   -0.5896 C   0  0  0  0  0  0  0  0  0  0  0  0
    1.4848   -1.2034   -0.2791 C   0  0  0  0  0  0  0  0  0  0  0  0
    1.4452    0.1625    0.3098 C   0  0  0  0  0  0  0  0  0  0  0  0
    1.0318    1.1460   -0.7412 C   0  0  0  0  0  0  0  0  0  0  0  0
   -0.2164    1.4751   -0.9817 C   0  0  0  0  0  0  0  0  0  0  0  0
   -1.3348    1.2055   -0.0256 C   0  0  0  0  0  0  0  0  0  0  0  0
   -0.9538   -0.0809    0.7131 C   0  0  0  0  0  0  0  0  0  0  0  0
   -0.9912   -1.1988   -0.2643 C   0  0  0  0  0  0  0  0  0  0  0  0
    0.3591    0.1487    1.3715 C   0  0  0  0  0  0  0  0  0  0  0  0
    0.3401   -2.7241   -1.1232 H   0  0  0  0  0  0  0  0  0  0  0  0
    2.4010   -1.7506   -0.4637 H   0  0  0  0  0  0  0  0  0  0  0  0
    2.4029    0.4410    0.7798 H   0  0  0  0  0  0  0  0  0  0  0  0
    1.8263    1.5996   -1.3244 H   0  0  0  0  0  0  0  0  0  0  0  0
   -0.4729    1.9647   -1.9073 H   0  0  0  0  0  0  0  0  0  0  0  0
   -1.4360    2.0417    0.7031 H   0  0  0  0  0  0  0  0  0  0  0  0
   -2.2920    1.0069   -0.5398 H   0  0  0  0  0  0  0  0  0  0  0  0
   -1.7600   -0.2366    1.4891 H   0  0  0  0  0  0  0  0  0  0  0  0
   -1.4558   -0.8907   -1.2392 H   0  0  0  0  0  0  0  0  0  0  0  0
   -1.6469   -2.0201    0.1133 H   0  0  0  0  0  0  0  0  0  0  0  0
    0.5893   -0.5113    2.2073 H   0  0  0  0  0  0  0  0  0  0  0  0
    0.3437    1.1941    1.7923 H   0  0  0  0  0  0  0  0  0  0  0  0
  1  2  2  0
  2  3  1  0
  3  4  1  0
  4  5  2  0
  5  6  1  0
  6  7  1  0
  7  8  1  0
  7  9  1  0
  8  1  1  0
  9  3  1  0
  1 10  1  0
  2 11  1  0
  3 12  1  0
  4 13  1  0
  5 14  1  0
  6 15  1  0
  6 16  1  0
  7 17  1  0
  8 18  1  0
  8 19  1  0
  9 20  1  0
  9 21  1  0
M  END
