
     RDKit          3D

 19 21  0  0  0  0  0  0  0  0999 V2000
   -1.6003   -0.0074    0.9421 C   0  0  0  0  0  0  0  0  0  0  0  0
   -0.8987   -1.1161    1.0505 C   0  0  0  0  0  0  0  0  0  0  0  0
    0.1342   -1.5251    0.1134 C   0  0  0  0  0  0  0  0  0  0  0  0
    1.4449   -0.8721   -0.0111 C   0  0  0  0  0  0  0  0  0  0  0  0
    1.7710    0.4792    0.3991 C   0  0  0  0  0  0  0  0  0  0  0  0
    0.9605    1.3884   -0.0678 C   0  0  0  0  0  0  0  0  0  0  0  0
   -0.0686    0.7518   -0.8914 C   0  0  0  0  0  0  0  0  0  0  0  0
   -1.3832    0.9237   -0.1673 C   0  0  0  0  0  0  0  0  0  0  0  0
    0.3456   -0.6495   -1.0573 C   0  0  0  0  0  0  0  0  0  0  0  0
   -2.3819    0.2494    1.7008 H   0  0  0  0  0  0  0  0  0  0  0  0
   -1.1508   -1.7403    1.9280 H   0  0  0  0  0  0  0  0  0  0  0  0
    0.1224   -2.6199   -0.1232 H   0  0  0  0  0  0  0  0  0  0  0  0
    2.3189   -1.5041   -0.3316 H   0  0  0  0  0  0  0  0  0  0  0  0
    2.6279    0.7332    1.0499 H   0  0  0  0  0  0  0  0  0  0  0  0
    1.0095    2.4659    0.1065 H   0  0  0  0  0  0  0  0  0  0  0  0
   -0.1430    1.2547   -1.9031 H   0  0  0  0  0  0  0  0  0  0  0  0
   -1.4882    1.9612    0.2458 H   0  0  0  0  0  0  0  0  0  0  0  0
   -2.2098    0.8426   -0.9330 H   0  0  0  0  0  0  0  0  0  0  0  0
    0.5895   -1.0154   -2.0501 H   0  0  0  0  0  0  0  0  0  0  0  0
  1  2  2  0
  2  3  1  0
  3  4  1  0
  4  5  1  0
  5  6  2  0
  6  7  1  0
  7  8  1  0
  7  9  1  0
  8  1  1  0
  9  3  1  0
  9  4  1  0
  1 10  1  0
  2 11  1  0
  3 12  1  0
  4 13  1  0
  5 14  1  0
  6 15  1  0
  7 16  1  0
  8 17  1  0
  8 18  1  0
  9 19  1  0
M  END
