
     RDKit          3D

 18 19  0  0  0  0  0  0  0  0999 V2000
    1.5434    0.9880   -0.2619 C   0  0  0  0  0  0  0  0  0  0  0  0
    0.3359    1.4927   -0.1182 C   0  0  0  0  0  0  0  0  0  0  0  0
   -0.5398    0.5708    0.6352 C   0  0  0  0  0  0  0  0  0  0  0  0
   -1.8057    0.2498   -0.1451 C   0  0  0  0  0  0  0  0  0  0  0  0
   -1.8081   -1.1298   -0.3068 O   0  0  0  0  0  0  0  0  0  0  0  0
   -0.4560   -1.3518   -0.6677 C   0  0  0  0  0  0  0  0  0  0  0  0
    0.2051   -0.7665    0.5473 C   0  0  0  0  0  0  0  0  0  0  0  0
    1.6024   -0.3361    0.3879 C   0  0  0  0  0  0  0  0  0  0  0  0
    2.3928    1.4887   -0.7954 H   0  0  0  0  0  0  0  0  0  0  0  0
   -0.0049    2.4620   -0.4946 H   0  0  0  0  0  0  0  0  0  0  0  0
   -0.7277    0.8634    1.6660 H   0  0  0  0  0  0  0  0  0  0  0  0
   -2.7132    0.5805    0.3978 H   0  0  0  0  0  0  0  0  0  0  0  0
   -1.7079    0.7288   -1.1363 H   0  0  0  0  0  0  0  0  0  0  0  0
   -0.3169   -2.4325   -0.7806 H   0  0  0  0  0  0  0  0  0  0  0  0
   -0.2571   -0.7990   -1.5865 H   0  0  0  0  0  0  0  0  0  0  0  0
   -0.0078   -1.4022    1.4176 H   0  0  0  0  0  0  0  0  0  0  0  0
    2.0192   -0.1546    1.4149 H   0  0  0  0  0  0  0  0  0  0  0  0
    2.2464   -1.0522   -0.1735 H   0  0  0  0  0  0  0  0  0  0  0  0
  1  2  2  0
  2  3  1  0
  3  4  1  0
  4  5  1  0
  5  6  1  0
  6  7  1  0
  7  8  1  0
  8  1  1  0
  7  3  1  0
  1  9  1  0
  2 10  1  0
  3 11  1  0
  4 12  1  0
  4 13  1  0
  6 14  1  0
  6 15  1  0
  7 16  1  0
  8 17  1  0
  8 18  1  0
M  END
