
     RDKit          3D

 17 19  0  0  0  0  0  0  0  0999 V2000
   -2.1438    0.8247    0.1692 C   0  0  0  0  0  0  0  0  0  0  0  0
   -2.1733   -0.4115   -0.2534 C   0  0  0  0  0  0  0  0  0  0  0  0
   -0.8015   -0.9483   -0.3496 C   0  0  0  0  0  0  0  0  0  0  0  0
   -0.2774   -1.1083    1.0218 O   0  0  0  0  0  0  0  0  0  0  0  0
    0.0640    0.0226    0.1621 C   0  0  0  0  0  0  0  0  0  0  0  0
    1.5382    0.1604   -0.1230 C   0  0  0  0  0  0  0  0  0  0  0  0
    2.4894   -0.8813    0.2336 C   0  0  0  0  0  0  0  0  0  0  0  0
    2.3683    0.3518    1.0928 O   0  0  0  0  0  0  0  0  0  0  0  0
   -0.7596    1.2544    0.4021 C   0  0  0  0  0  0  0  0  0  0  0  0
   -3.0122    1.5034    0.3458 H   0  0  0  0  0  0  0  0  0  0  0  0
   -3.0670   -0.9804   -0.5033 H   0  0  0  0  0  0  0  0  0  0  0  0
   -0.5888   -1.8250   -0.9897 H   0  0  0  0  0  0  0  0  0  0  0  0
    1.7816    0.8719   -0.9080 H   0  0  0  0  0  0  0  0  0  0  0  0
    3.4985   -0.8233   -0.2192 H   0  0  0  0  0  0  0  0  0  0  0  0
    2.2433   -1.7323    0.8719 H   0  0  0  0  0  0  0  0  0  0  0  0
   -0.5600    2.0320   -0.3938 H   0  0  0  0  0  0  0  0  0  0  0  0
   -0.5997    1.6892    1.4109 H   0  0  0  0  0  0  0  0  0  0  0  0
  1  2  2  0
  2  3  1  0
  3  4  1  0
  4  5  1  0
  5  6  1  0
  6  7  1  0
  7  8  1  0
  5  9  1  0
  9  1  1  0
  5  3  1  0
  8  6  1  0
  1 10  1  0
  2 11  1  0
  3 12  1  0
  6 13  1  0
  7 14  1  0
  7 15  1  0
  9 16  1  0
  9 17  1  0
M  END
