
     RDKit          3D

 19 21  0  0  0  0  0  0  0  0999 V2000
    0.5238    1.6689    0.2812 C   0  0  0  0  0  0  0  0  0  0  0  0
   -0.7664    1.4080    0.4744 C   0  0  0  0  0  0  0  0  0  0  0  0
   -1.1403    0.0460    0.8113 C   0  0  0  0  0  0  0  0  0  0  0  0
   -1.7992   -0.9474    0.0096 C   0  0  0  0  0  0  0  0  0  0  0  0
   -0.4046   -0.8754   -0.1930 C   0  0  0  0  0  0  0  0  0  0  0  0
    0.7515   -1.4679    0.4097 C   0  0  0  0  0  0  0  0  0  0  0  0
    1.6912   -0.5271    0.4212 C   0  0  0  0  0  0  0  0  0  0  0  0
    1.3069    0.6228   -0.4471 C   0  0  0  0  0  0  0  0  0  0  0  0
    0.2322   -0.0566   -1.3195 C   0  0  0  0  0  0  0  0  0  0  0  0
    0.9743    2.6125    0.6420 H   0  0  0  0  0  0  0  0  0  0  0  0
   -1.4914    2.2265    0.3763 H   0  0  0  0  0  0  0  0  0  0  0  0
   -1.0295   -0.1693    1.8968 H   0  0  0  0  0  0  0  0  0  0  0  0
   -2.2458   -1.8219    0.5257 H   0  0  0  0  0  0  0  0  0  0  0  0
   -2.4611   -0.6409   -0.8554 H   0  0  0  0  0  0  0  0  0  0  0  0
    0.9000   -2.4608    0.7955 H   0  0  0  0  0  0  0  0  0  0  0  0
    2.6330   -0.5361    0.9681 H   0  0  0  0  0  0  0  0  0  0  0  0
    2.1226    1.0229   -1.0399 H   0  0  0  0  0  0  0  0  0  0  0  0
   -0.4579    0.6719   -1.7460 H   0  0  0  0  0  0  0  0  0  0  0  0
    0.6608   -0.7760   -2.0108 H   0  0  0  0  0  0  0  0  0  0  0  0
  1  2  2  0
  2  3  1  0
  3  4  1  0
  4  5  1  0
  5  6  1  0
  6  7  2  0
  7  8  1  0
  8  9  1  0
  8  1  1  0
  5  3  1  0
  9  5  1  0
  1 10  1  0
  2 11  1  0
  3 12  1  0
  4 13  1  0
  4 14  1  0
  6 15  1  0
  7 16  1  0
  8 17  1  0
  9 18  1  0
  9 19  1  0
M  END
