
     RDKit          3D

 19 21  0  0  0  0  0  0  0  0999 V2000
    2.3229    0.2412    0.3704 C   0  0  0  0  0  0  0  0  0  0  0  0
    1.3256    1.0934    0.5681 C   0  0  0  0  0  0  0  0  0  0  0  0
    0.0459    0.5765    0.0912 C   0  0  0  0  0  0  0  0  0  0  0  0
   -1.0492    1.4540   -0.3078 C   0  0  0  0  0  0  0  0  0  0  0  0
   -2.1842    0.7989   -0.2854 C   0  0  0  0  0  0  0  0  0  0  0  0
   -2.0102   -0.6063    0.1307 C   0  0  0  0  0  0  0  0  0  0  0  0
   -0.5526   -0.6799    0.5329 C   0  0  0  0  0  0  0  0  0  0  0  0
    0.3962   -0.6580   -0.6464 C   0  0  0  0  0  0  0  0  0  0  0  0
    1.8169   -0.9984   -0.2878 C   0  0  0  0  0  0  0  0  0  0  0  0
    3.3752    0.3535    0.6206 H   0  0  0  0  0  0  0  0  0  0  0  0
    1.4766    2.0572    1.0340 H   0  0  0  0  0  0  0  0  0  0  0  0
   -0.9504    2.4984   -0.5849 H   0  0  0  0  0  0  0  0  0  0  0  0
   -3.1757    1.2069   -0.5391 H   0  0  0  0  0  0  0  0  0  0  0  0
   -2.1289   -1.2728   -0.7494 H   0  0  0  0  0  0  0  0  0  0  0  0
   -2.7001   -0.9459    0.9022 H   0  0  0  0  0  0  0  0  0  0  0  0
   -0.2646   -1.2222    1.4349 H   0  0  0  0  0  0  0  0  0  0  0  0
    0.0264   -0.7737   -1.6627 H   0  0  0  0  0  0  0  0  0  0  0  0
    1.8028   -1.7896    0.4999 H   0  0  0  0  0  0  0  0  0  0  0  0
    2.4274   -1.3333   -1.1215 H   0  0  0  0  0  0  0  0  0  0  0  0
  1  2  2  0
  2  3  1  0
  3  4  1  0
  4  5  2  0
  5  6  1  0
  6  7  1  0
  7  8  1  0
  8  9  1  0
  9  1  1  0
  7  3  1  0
  8  3  1  0
  1 10  1  0
  2 11  1  0
  4 12  1  0
  5 13  1  0
  6 14  1  0
  6 15  1  0
  7 16  1  0
  8 17  1  0
  9 18  1  0
  9 19  1  0
M  END
