
     RDKit          3D

 16 19  0  0  0  0  0  0  0  0999 V2000
    1.1668   -0.9897   -0.2462 C   0  0  0  0  0  0  0  0  0  0  0  0
    1.5078    0.3262   -0.0613 C   0  0  0  0  0  0  0  0  0  0  0  0
    0.4399    1.4126   -0.1485 C   0  0  0  0  0  0  0  0  0  0  0  0
   -0.4135    0.5493   -0.6499 C   0  0  0  0  0  0  0  0  0  0  0  0
   -0.4634   -0.3315    0.7522 C   0  0  0  0  0  0  0  0  0  0  0  0
   -0.2210   -1.4786    0.1338 C   0  0  0  0  0  0  0  0  0  0  0  0
   -1.4255   -0.4812    0.0484 C   0  0  0  0  0  0  0  0  0  0  0  0
   -1.0385    1.0562    0.2342 C   0  0  0  0  0  0  0  0  0  0  0  0
    1.8416   -1.7128   -0.6585 H   0  0  0  0  0  0  0  0  0  0  0  0
    2.4839    0.6616    0.1466 H   0  0  0  0  0  0  0  0  0  0  0  0
    0.6665    2.3899   -0.4397 H   0  0  0  0  0  0  0  0  0  0  0  0
   -0.4735    0.0972   -1.5949 H   0  0  0  0  0  0  0  0  0  0  0  0
   -0.1239    0.0371    1.6647 H   0  0  0  0  0  0  0  0  0  0  0  0
   -0.3875   -2.4455    0.5274 H   0  0  0  0  0  0  0  0  0  0  0  0
   -2.0783   -0.6404   -0.7955 H   0  0  0  0  0  0  0  0  0  0  0  0
   -1.4812    1.5497    1.0873 H   0  0  0  0  0  0  0  0  0  0  0  0
  1  2  2  0
  2  3  1  0
  3  4  1  0
  4  5  1  0
  5  6  1  0
  6  7  1  0
  7  8  1  0
  6  1  1  0
  8  3  1  0
  8  4  1  0
  7  5  1  0
  1  9  1  0
  2 10  1  0
  3 11  1  0
  4 12  1  0
  5 13  1  0
  6 14  1  0
  7 15  1  0
  8 16  1  0
M  END
