
     RDKit          3D

 19 21  0  0  0  0  0  0  0  0999 V2000
    2.4733   -0.1184    0.0810 C   0  0  0  0  0  0  0  0  0  0  0  0
    1.8085   -0.0129    1.2453 C   0  0  0  0  0  0  0  0  0  0  0  0
    0.3866   -0.1864    0.9749 C   0  0  0  0  0  0  0  0  0  0  0  0
   -0.8042   -0.5493    1.3744 C   0  0  0  0  0  0  0  0  0  0  0  0
   -1.8123   -0.3825    0.3194 C   0  0  0  0  0  0  0  0  0  0  0  0
   -2.1612    0.8618   -0.3475 C   0  0  0  0  0  0  0  0  0  0  0  0
   -1.0645    0.0199   -0.9141 C   0  0  0  0  0  0  0  0  0  0  0  0
    0.2872    0.3653   -0.4483 C   0  0  0  0  0  0  0  0  0  0  0  0
    1.4624   -0.3726   -1.0178 C   0  0  0  0  0  0  0  0  0  0  0  0
    3.5332   -0.0353   -0.0364 H   0  0  0  0  0  0  0  0  0  0  0  0
    2.2283    0.1645    2.2245 H   0  0  0  0  0  0  0  0  0  0  0  0
   -1.0321   -0.9317    2.3737 H   0  0  0  0  0  0  0  0  0  0  0  0
   -2.5773   -1.2117    0.1853 H   0  0  0  0  0  0  0  0  0  0  0  0
   -3.1074    0.9520   -0.8923 H   0  0  0  0  0  0  0  0  0  0  0  0
   -1.8775    1.8447    0.1356 H   0  0  0  0  0  0  0  0  0  0  0  0
   -1.2578   -0.4390   -1.8826 H   0  0  0  0  0  0  0  0  0  0  0  0
    0.4829    1.4576   -0.3522 H   0  0  0  0  0  0  0  0  0  0  0  0
    1.8290    0.0235   -1.9724 H   0  0  0  0  0  0  0  0  0  0  0  0
    1.2028   -1.4496   -1.0506 H   0  0  0  0  0  0  0  0  0  0  0  0
  1  2  2  0
  2  3  1  0
  3  4  2  0
  4  5  1  0
  5  6  1  0
  6  7  1  0
  7  8  1  0
  8  9  1  0
  9  1  1  0
  8  3  1  0
  7  5  1  0
  1 10  1  0
  2 11  1  0
  4 12  1  0
  5 13  1  0
  6 14  1  0
  6 15  1  0
  7 16  1  0
  8 17  1  0
  9 18  1  0
  9 19  1  0
M  END
