
     RDKit          3D

 19 20  0  0  0  0  0  0  0  0999 V2000
    0.9109   -1.3972    0.1185 C   0  0  0  0  0  0  0  0  0  0  0  0
   -0.1938   -0.6919    0.0499 C   0  0  0  0  0  0  0  0  0  0  0  0
   -1.6488   -0.9628   -0.0500 C   0  0  0  0  0  0  0  0  0  0  0  0
   -2.2315    0.4273   -0.0794 C   0  0  0  0  0  0  0  0  0  0  0  0
   -1.2542    1.1841   -0.6845 O   0  0  0  0  0  0  0  0  0  0  0  0
   -0.1152    0.8135    0.0678 C   0  0  0  0  0  0  0  0  0  0  0  0
    1.1663    1.3077   -0.5007 C   0  0  0  0  0  0  0  0  0  0  0  0
    2.0690    0.3278   -0.8753 O   0  0  0  0  0  0  0  0  0  0  0  0
    2.1770   -0.5740    0.2096 C   0  0  0  0  0  0  0  0  0  0  0  0
    0.8973   -2.4697    0.1093 H   0  0  0  0  0  0  0  0  0  0  0  0
   -1.8933   -1.5603   -0.9455 H   0  0  0  0  0  0  0  0  0  0  0  0
   -1.9861   -1.5097    0.8741 H   0  0  0  0  0  0  0  0  0  0  0  0
   -3.2179    0.4813   -0.5702 H   0  0  0  0  0  0  0  0  0  0  0  0
   -2.2885    0.7793    0.9916 H   0  0  0  0  0  0  0  0  0  0  0  0
   -0.3211    1.1489    1.1051 H   0  0  0  0  0  0  0  0  0  0  0  0
    1.0156    2.0227   -1.3511 H   0  0  0  0  0  0  0  0  0  0  0  0
    1.6747    1.9135    0.3059 H   0  0  0  0  0  0  0  0  0  0  0  0
    3.0359   -1.2381    0.0672 H   0  0  0  0  0  0  0  0  0  0  0  0
    2.2037   -0.0024    1.1576 H   0  0  0  0  0  0  0  0  0  0  0  0
  1  2  2  0
  2  3  1  0
  3  4  1  0
  4  5  1  0
  5  6  1  0
  6  7  1  0
  7  8  1  0
  8  9  1  0
  9  1  1  0
  6  2  1  0
  1 10  1  0
  3 11  1  0
  3 12  1  0
  4 13  1  0
  4 14  1  0
  6 15  1  0
  7 16  1  0
  7 17  1  0
  9 18  1  0
  9 19  1  0
M  END
