
     RDKit          3D

 17 19  0  0  0  0  0  0  0  0999 V2000
   -0.0846    1.5109   -0.0716 C   0  0  0  0  0  0  0  0  0  0  0  0
   -1.0439    0.6190   -0.1802 C   0  0  0  0  0  0  0  0  0  0  0  0
   -2.2036   -0.2767   -0.3761 C   0  0  0  0  0  0  0  0  0  0  0  0
   -1.2195   -1.3099   -0.5015 O   0  0  0  0  0  0  0  0  0  0  0  0
   -0.6103   -0.6495    0.5539 C   0  0  0  0  0  0  0  0  0  0  0  0
    0.8546   -0.5596    0.6469 C   0  0  0  0  0  0  0  0  0  0  0  0
    1.6709   -0.5422   -0.5973 C   0  0  0  0  0  0  0  0  0  0  0  0
    2.1680    0.7075   -0.2199 O   0  0  0  0  0  0  0  0  0  0  0  0
    1.1019    0.9486    0.6474 C   0  0  0  0  0  0  0  0  0  0  0  0
   -0.1027    2.5267   -0.4361 H   0  0  0  0  0  0  0  0  0  0  0  0
   -2.7973   -0.1302   -1.2855 H   0  0  0  0  0  0  0  0  0  0  0  0
   -2.7836   -0.3710    0.5696 H   0  0  0  0  0  0  0  0  0  0  0  0
   -1.1844   -0.8239    1.4691 H   0  0  0  0  0  0  0  0  0  0  0  0
    1.2797   -1.0831    1.5208 H   0  0  0  0  0  0  0  0  0  0  0  0
    2.4927   -1.3116   -0.5327 H   0  0  0  0  0  0  0  0  0  0  0  0
    1.1318   -0.5852   -1.5438 H   0  0  0  0  0  0  0  0  0  0  0  0
    1.3302    1.3304    1.6319 H   0  0  0  0  0  0  0  0  0  0  0  0
  1  2  2  0
  2  3  1  0
  3  4  1  0
  4  5  1  0
  5  6  1  0
  6  7  1  0
  7  8  1  0
  8  9  1  0
  9  1  1  0
  5  2  1  0
  9  6  1  0
  1 10  1  0
  3 11  1  0
  3 12  1  0
  5 13  1  0
  6 14  1  0
  7 15  1  0
  7 16  1  0
  9 17  1  0
M  END
