
     RDKit          3D

 19 21  0  0  0  0  0  0  0  0999 V2000
    1.9932    0.6996   -0.7200 C   0  0  0  0  0  0  0  0  0  0  0  0
    0.9626    1.4832   -0.4282 C   0  0  0  0  0  0  0  0  0  0  0  0
    0.0258    0.7405    0.3913 C   0  0  0  0  0  0  0  0  0  0  0  0
   -1.4218    0.8050   -0.0167 C   0  0  0  0  0  0  0  0  0  0  0  0
   -1.9150   -0.5269    0.5758 C   0  0  0  0  0  0  0  0  0  0  0  0
   -0.7096   -1.4492    0.3069 C   0  0  0  0  0  0  0  0  0  0  0  0
   -0.3197   -1.2332   -1.1056 O   0  0  0  0  0  0  0  0  0  0  0  0
    0.3283   -0.6959    0.0074 C   0  0  0  0  0  0  0  0  0  0  0  0
    1.7989   -0.6647   -0.0906 C   0  0  0  0  0  0  0  0  0  0  0  0
    2.8810    0.9317   -1.3161 H   0  0  0  0  0  0  0  0  0  0  0  0
    0.8511    2.5324   -0.7641 H   0  0  0  0  0  0  0  0  0  0  0  0
    0.1447    0.8862    1.4838 H   0  0  0  0  0  0  0  0  0  0  0  0
   -1.9679    1.6583    0.3750 H   0  0  0  0  0  0  0  0  0  0  0  0
   -1.4986    0.7987   -1.1105 H   0  0  0  0  0  0  0  0  0  0  0  0
   -1.9748   -0.3830    1.6614 H   0  0  0  0  0  0  0  0  0  0  0  0
   -2.8191   -0.8842    0.0913 H   0  0  0  0  0  0  0  0  0  0  0  0
   -0.8482   -2.5144    0.5619 H   0  0  0  0  0  0  0  0  0  0  0  0
    2.3056   -0.7434    0.8750 H   0  0  0  0  0  0  0  0  0  0  0  0
    2.1832   -1.4407   -0.7779 H   0  0  0  0  0  0  0  0  0  0  0  0
  1  2  2  0
  2  3  1  0
  3  4  1  0
  4  5  1  0
  5  6  1  0
  6  7  1  0
  7  8  1  0
  8  9  1  0
  9  1  1  0
  8  3  1  0
  8  6  1  0
  1 10  1  0
  2 11  1  0
  3 12  1  0
  4 13  1  0
  4 14  1  0
  5 15  1  0
  5 16  1  0
  6 17  1  0
  9 18  1  0
  9 19  1  0
M  END
