
     RDKit          3D

 19 20  0  0  0  0  0  0  0  0999 V2000
   -2.2754    0.4044    0.7499 C   0  0  0  0  0  0  0  0  0  0  0  0
   -1.0261    0.5129    1.1570 C   0  0  0  0  0  0  0  0  0  0  0  0
   -0.1318   -0.1254    0.1785 C   0  0  0  0  0  0  0  0  0  0  0  0
    1.1306    0.1541    0.0184 C   0  0  0  0  0  0  0  0  0  0  0  0
    2.2488   -0.3004   -0.8496 C   0  0  0  0  0  0  0  0  0  0  0  0
    2.7708    1.0016   -0.7390 O   0  0  0  0  0  0  0  0  0  0  0  0
    2.1946    1.0339    0.5497 C   0  0  0  0  0  0  0  0  0  0  0  0
   -1.0191   -1.0964   -0.5100 C   0  0  0  0  0  0  0  0  0  0  0  0
   -2.3094   -0.3161   -0.5362 C   0  0  0  0  0  0  0  0  0  0  0  0
   -3.1685    0.7850    1.2732 H   0  0  0  0  0  0  0  0  0  0  0  0
   -0.6960    0.9959    2.0682 H   0  0  0  0  0  0  0  0  0  0  0  0
    1.9746   -0.6015   -1.8628 H   0  0  0  0  0  0  0  0  0  0  0  0
    2.8472   -1.0607   -0.2698 H   0  0  0  0  0  0  0  0  0  0  0  0
    2.9186    0.5116    1.2370 H   0  0  0  0  0  0  0  0  0  0  0  0
    1.8595    2.0127    0.8868 H   0  0  0  0  0  0  0  0  0  0  0  0
   -1.1679   -1.9674    0.1450 H   0  0  0  0  0  0  0  0  0  0  0  0
   -0.6550   -1.3541   -1.5210 H   0  0  0  0  0  0  0  0  0  0  0  0
   -2.3053    0.4011   -1.3968 H   0  0  0  0  0  0  0  0  0  0  0  0
   -3.1903   -0.9912   -0.5784 H   0  0  0  0  0  0  0  0  0  0  0  0
  1  2  2  0
  2  3  1  0
  3  4  2  3
  4  5  1  0
  5  6  1  0
  6  7  1  0
  3  8  1  0
  8  9  1  0
  9  1  1  0
  7  4  1  0
  1 10  1  0
  2 11  1  0
  5 12  1  0
  5 13  1  0
  7 14  1  0
  7 15  1  0
  8 16  1  0
  8 17  1  0
  9 18  1  0
  9 19  1  0
M  END
