
     RDKit          3D

 16 17  0  0  0  0  0  0  0  0999 V2000
    0.8802    1.4328    0.3056 C   0  0  0  0  0  0  0  0  0  0  0  0
   -0.4386    1.5126    0.2442 C   0  0  0  0  0  0  0  0  0  0  0  0
   -1.3856    0.5321   -0.2106 C   0  0  0  0  0  0  0  0  0  0  0  0
   -1.1335   -0.8897    0.0573 C   0  0  0  0  0  0  0  0  0  0  0  0
   -0.4748   -1.3008    1.2189 O   0  0  0  0  0  0  0  0  0  0  0  0
    0.0316   -1.5551   -0.1800 C   0  0  0  0  0  0  0  0  0  0  0  0
    1.3422   -0.9620   -0.2878 C   0  0  0  0  0  0  0  0  0  0  0  0
    1.7070    0.3034   -0.0831 C   0  0  0  0  0  0  0  0  0  0  0  0
    1.4076    2.3192    0.6937 H   0  0  0  0  0  0  0  0  0  0  0  0
   -0.8296    2.4615    0.5914 H   0  0  0  0  0  0  0  0  0  0  0  0
   -1.5481    0.6561   -1.3209 H   0  0  0  0  0  0  0  0  0  0  0  0
   -2.3937    0.8027    0.2269 H   0  0  0  0  0  0  0  0  0  0  0  0
   -2.0990   -1.4794   -0.0702 H   0  0  0  0  0  0  0  0  0  0  0  0
    0.0264   -2.6709   -0.3746 H   0  0  0  0  0  0  0  0  0  0  0  0
    2.1537   -1.6525   -0.5805 H   0  0  0  0  0  0  0  0  0  0  0  0
    2.7541    0.4900   -0.2304 H   0  0  0  0  0  0  0  0  0  0  0  0
  1  2  2  0
  2  3  1  0
  3  4  1  0
  4  5  1  0
  5  6  1  0
  6  7  1  0
  7  8  2  0
  8  1  1  0
  6  4  1  0
  1  9  1  0
  2 10  1  0
  3 11  1  0
  3 12  1  0
  4 13  1  0
  6 14  1  0
  7 15  1  0
  8 16  1  0
M  END
