
     RDKit          3D

 17 18  0  0  0  0  0  0  0  0999 V2000
    0.5061    1.7271    0.5232 C   0  0  0  0  0  0  0  0  0  0  0  0
   -0.7618    1.4561    0.2559 C   0  0  0  0  0  0  0  0  0  0  0  0
   -1.2971    0.2770   -0.4561 C   0  0  0  0  0  0  0  0  0  0  0  0
   -1.5557   -0.8705    0.4126 C   0  0  0  0  0  0  0  0  0  0  0  0
   -0.5231   -1.6903    0.2877 C   0  0  0  0  0  0  0  0  0  0  0  0
    0.4525   -1.1167   -0.7049 C   0  0  0  0  0  0  0  0  0  0  0  0
    1.5999   -0.4684   -0.0287 C   0  0  0  0  0  0  0  0  0  0  0  0
    1.6316    0.7999    0.3945 C   0  0  0  0  0  0  0  0  0  0  0  0
   -0.3559   -0.2238   -1.3860 O   0  0  0  0  0  0  0  0  0  0  0  0
    0.7391    2.7437    0.8753 H   0  0  0  0  0  0  0  0  0  0  0  0
   -1.4321    2.2106    0.6197 H   0  0  0  0  0  0  0  0  0  0  0  0
   -2.1661    0.6035   -1.0570 H   0  0  0  0  0  0  0  0  0  0  0  0
   -2.4184   -1.0280    1.0385 H   0  0  0  0  0  0  0  0  0  0  0  0
   -0.3458   -2.6341    0.7871 H   0  0  0  0  0  0  0  0  0  0  0  0
    0.8492   -1.9019   -1.3564 H   0  0  0  0  0  0  0  0  0  0  0  0
    2.4832   -1.0672    0.1367 H   0  0  0  0  0  0  0  0  0  0  0  0
    2.5944    1.1832    0.6723 H   0  0  0  0  0  0  0  0  0  0  0  0
  1  2  2  0
  2  3  1  0
  3  4  1  0
  4  5  2  0
  5  6  1  0
  6  7  1  0
  7  8  2  0
  6  9  1  0
  8  1  1  0
  9  3  1  0
  1 10  1  0
  2 11  1  0
  3 12  1  0
  4 13  1  0
  5 14  1  0
  6 15  1  0
  7 16  1  0
  8 17  1  0
M  END
