
     RDKit          3D

 21 23  0  0  0  0  0  0  0  0999 V2000
   -0.1478    1.8611   -0.1228 C   0  0  0  0  0  0  0  0  0  0  0  0
    0.9471    1.3724   -0.7173 C   0  0  0  0  0  0  0  0  0  0  0  0
    0.9284   -0.0421   -1.0856 C   0  0  0  0  0  0  0  0  0  0  0  0
    1.7000   -1.1197   -0.5030 C   0  0  0  0  0  0  0  0  0  0  0  0
    0.4716   -0.8621    0.1481 C   0  0  0  0  0  0  0  0  0  0  0  0
   -0.8866   -1.4027   -0.0320 C   0  0  0  0  0  0  0  0  0  0  0  0
   -1.7053   -0.0981   -0.0244 C   0  0  0  0  0  0  0  0  0  0  0  0
   -0.8657    0.9016    0.7711 C   0  0  0  0  0  0  0  0  0  0  0  0
    0.2809    0.0459    1.3431 C   0  0  0  0  0  0  0  0  0  0  0  0
   -0.4731    2.8909   -0.2918 H   0  0  0  0  0  0  0  0  0  0  0  0
    1.8000    2.0543   -0.9001 H   0  0  0  0  0  0  0  0  0  0  0  0
    0.4197   -0.2315   -2.0531 H   0  0  0  0  0  0  0  0  0  0  0  0
    2.6457   -0.8470    0.0525 H   0  0  0  0  0  0  0  0  0  0  0  0
    1.8395   -2.0338   -1.0962 H   0  0  0  0  0  0  0  0  0  0  0  0
   -1.0687   -1.9962   -0.9215 H   0  0  0  0  0  0  0  0  0  0  0  0
   -1.1870   -1.9281    0.9137 H   0  0  0  0  0  0  0  0  0  0  0  0
   -1.7113    0.2328   -1.0954 H   0  0  0  0  0  0  0  0  0  0  0  0
   -2.6958   -0.2511    0.3958 H   0  0  0  0  0  0  0  0  0  0  0  0
   -1.4396    1.3908    1.5581 H   0  0  0  0  0  0  0  0  0  0  0  0
    1.1884    0.6314    1.4844 H   0  0  0  0  0  0  0  0  0  0  0  0
   -0.0405   -0.5691    2.1762 H   0  0  0  0  0  0  0  0  0  0  0  0
  1  2  2  0
  2  3  1  0
  3  4  1  0
  4  5  1  0
  5  6  1  0
  6  7  1  0
  7  8  1  0
  8  9  1  0
  8  1  1  0
  5  3  1  0
  9  5  1  0
  1 10  1  0
  2 11  1  0
  3 12  1  0
  4 13  1  0
  4 14  1  0
  6 15  1  0
  6 16  1  0
  7 17  1  0
  7 18  1  0
  8 19  1  0
  9 20  1  0
  9 21  1  0
M  END
