
     RDKit          3D

 19 21  0  0  0  0  0  0  0  0999 V2000
    1.6445    0.6090    0.1261 C   0  0  0  0  0  0  0  0  0  0  0  0
    0.6650    1.5143    0.0638 C   0  0  0  0  0  0  0  0  0  0  0  0
   -0.6938    1.0924   -0.4185 C   0  0  0  0  0  0  0  0  0  0  0  0
   -0.4452   -0.1738   -1.2506 C   0  0  0  0  0  0  0  0  0  0  0  0
   -0.0319   -1.1375   -0.1286 C   0  0  0  0  0  0  0  0  0  0  0  0
    1.4141   -0.8493    0.1655 C   0  0  0  0  0  0  0  0  0  0  0  0
   -0.9547   -0.8423    1.0047 C   0  0  0  0  0  0  0  0  0  0  0  0
   -0.7655    0.2201    1.8471 O   0  0  0  0  0  0  0  0  0  0  0  0
   -1.4926    0.5332    0.7251 C   0  0  0  0  0  0  0  0  0  0  0  0
    2.6527    0.9666    0.1484 H   0  0  0  0  0  0  0  0  0  0  0  0
    0.8776    2.5195    0.3609 H   0  0  0  0  0  0  0  0  0  0  0  0
   -1.1989    1.8667   -0.9925 H   0  0  0  0  0  0  0  0  0  0  0  0
    0.3780   -0.0099   -1.9440 H   0  0  0  0  0  0  0  0  0  0  0  0
   -1.3846   -0.5187   -1.7151 H   0  0  0  0  0  0  0  0  0  0  0  0
   -0.2242   -2.1462   -0.5041 H   0  0  0  0  0  0  0  0  0  0  0  0
    1.7876   -1.3288    1.0842 H   0  0  0  0  0  0  0  0  0  0  0  0
    2.0002   -1.2861   -0.6958 H   0  0  0  0  0  0  0  0  0  0  0  0
   -1.6404   -1.6261    1.3894 H   0  0  0  0  0  0  0  0  0  0  0  0
   -2.5877    0.5966    0.7343 H   0  0  0  0  0  0  0  0  0  0  0  0
  1  2  2  0
  2  3  1  0
  3  4  1  0
  4  5  1  0
  5  6  1  0
  5  7  1  0
  7  8  1  0
  8  9  1  0
  6  1  1  0
  9  7  1  0
  9  3  1  0
  1 10  1  0
  2 11  1  0
  3 12  1  0
  4 13  1  0
  4 14  1  0
  5 15  1  0
  6 16  1  0
  6 17  1  0
  7 18  1  0
  9 19  1  0
M  END
