
     RDKit          3D

 19 20  0  0  0  0  0  0  0  0999 V2000
    0.6862    1.6071    0.1469 C   0  0  0  0  0  0  0  0  0  0  0  0
   -0.6266    1.6667   -0.0583 C   0  0  0  0  0  0  0  0  0  0  0  0
   -1.6948    0.6562   -0.3043 C   0  0  0  0  0  0  0  0  0  0  0  0
   -1.3100   -0.5913    0.4442 C   0  0  0  0  0  0  0  0  0  0  0  0
   -1.6449   -1.8338   -0.0139 O   0  0  0  0  0  0  0  0  0  0  0  0
   -0.4383   -1.4121   -0.5097 C   0  0  0  0  0  0  0  0  0  0  0  0
    0.8495   -1.6810    0.1862 C   0  0  0  0  0  0  0  0  0  0  0  0
    1.1962   -0.5798    0.9690 O   0  0  0  0  0  0  0  0  0  0  0  0
    1.6801    0.4815    0.2217 C   0  0  0  0  0  0  0  0  0  0  0  0
    1.1039    2.5891    0.2868 H   0  0  0  0  0  0  0  0  0  0  0  0
   -1.0215    2.6770   -0.0461 H   0  0  0  0  0  0  0  0  0  0  0  0
   -1.6709    0.4634   -1.4165 H   0  0  0  0  0  0  0  0  0  0  0  0
   -2.6803    0.9832    0.0358 H   0  0  0  0  0  0  0  0  0  0  0  0
   -0.9470   -0.4185    1.4720 H   0  0  0  0  0  0  0  0  0  0  0  0
   -0.4547   -1.1531   -1.5886 H   0  0  0  0  0  0  0  0  0  0  0  0
    1.6771   -1.8515   -0.5543 H   0  0  0  0  0  0  0  0  0  0  0  0
    0.7626   -2.5528    0.8811 H   0  0  0  0  0  0  0  0  0  0  0  0
    2.6248    0.8585    0.6444 H   0  0  0  0  0  0  0  0  0  0  0  0
    1.9085    0.0911   -0.7964 H   0  0  0  0  0  0  0  0  0  0  0  0
  1  2  2  3
  2  3  1  0
  3  4  1  0
  4  5  1  0
  5  6  1  0
  6  7  1  0
  7  8  1  0
  8  9  1  0
  9  1  1  0
  6  4  1  0
  1 10  1  0
  2 11  1  0
  3 12  1  0
  3 13  1  0
  4 14  1  0
  6 15  1  0
  7 16  1  0
  7 17  1  0
  9 18  1  0
  9 19  1  0
M  END
