
     RDKit          3D

 21 23  0  0  0  0  0  0  0  0999 V2000
   -0.5497    1.5701    0.6658 C   0  0  0  0  0  0  0  0  0  0  0  0
    0.6151    1.0478    0.3414 C   0  0  0  0  0  0  0  0  0  0  0  0
    2.0201    0.5694    0.1478 C   0  0  0  0  0  0  0  0  0  0  0  0
    1.3069   -0.7297   -0.3181 C   0  0  0  0  0  0  0  0  0  0  0  0
    0.4415   -1.3559    0.7242 C   0  0  0  0  0  0  0  0  0  0  0  0
   -0.9783   -1.1893    0.2964 C   0  0  0  0  0  0  0  0  0  0  0  0
   -1.0254   -0.1996   -0.8227 C   0  0  0  0  0  0  0  0  0  0  0  0
   -1.6340    1.1018   -0.2627 C   0  0  0  0  0  0  0  0  0  0  0  0
    0.3910    0.2705   -0.9754 C   0  0  0  0  0  0  0  0  0  0  0  0
   -0.7418    2.2520    1.4873 H   0  0  0  0  0  0  0  0  0  0  0  0
    2.4519    1.0464   -0.7373 H   0  0  0  0  0  0  0  0  0  0  0  0
    2.6212    0.4504    1.0411 H   0  0  0  0  0  0  0  0  0  0  0  0
    1.9013   -1.3751   -0.9474 H   0  0  0  0  0  0  0  0  0  0  0  0
    0.6491   -2.4523    0.8050 H   0  0  0  0  0  0  0  0  0  0  0  0
    0.6407   -0.9568    1.7424 H   0  0  0  0  0  0  0  0  0  0  0  0
   -1.5685   -0.8350    1.1784 H   0  0  0  0  0  0  0  0  0  0  0  0
   -1.3928   -2.1429   -0.0867 H   0  0  0  0  0  0  0  0  0  0  0  0
   -1.5136   -0.5560   -1.7169 H   0  0  0  0  0  0  0  0  0  0  0  0
   -2.5302    0.8629    0.3416 H   0  0  0  0  0  0  0  0  0  0  0  0
   -1.8124    1.8364   -1.0457 H   0  0  0  0  0  0  0  0  0  0  0  0
    0.7078    0.7849   -1.8587 H   0  0  0  0  0  0  0  0  0  0  0  0
  1  2  2  0
  2  3  1  0
  3  4  1  0
  4  5  1  0
  5  6  1  0
  6  7  1  0
  7  8  1  0
  7  9  1  0
  8  1  1  0
  9  2  1  0
  9  4  1  0
  1 10  1  0
  3 11  1  0
  3 12  1  0
  4 13  1  0
  5 14  1  0
  5 15  1  0
  6 16  1  0
  6 17  1  0
  7 18  1  0
  8 19  1  0
  8 20  1  0
  9 21  1  0
M  END
