
     RDKit          3D

 21 21  0  0  0  0  0  0  0  0999 V2000
   -1.0152   -1.1027    0.6496 C   0  0  0  0  0  0  0  0  0  0  0  0
    0.1840   -1.6407    0.5978 C   0  0  0  0  0  0  0  0  0  0  0  0
    1.1417   -1.5034   -0.5107 C   0  0  0  0  0  0  0  0  0  0  0  0
    2.0958   -0.5532   -0.1304 O   0  0  0  0  0  0  0  0  0  0  0  0
    1.5674    0.7035   -0.4633 C   0  0  0  0  0  0  0  0  0  0  0  0
    0.9277    1.2675    0.7345 C   0  0  0  0  0  0  0  0  0  0  0  0
   -0.3727    1.4936    0.8449 C   0  0  0  0  0  0  0  0  0  0  0  0
   -1.3171    1.1886   -0.2598 C   0  0  0  0  0  0  0  0  0  0  0  0
   -1.6077   -0.2578   -0.4150 C   0  0  0  0  0  0  0  0  0  0  0  0
   -1.6165   -1.2881    1.5328 H   0  0  0  0  0  0  0  0  0  0  0  0
    0.5269   -2.2550    1.4499 H   0  0  0  0  0  0  0  0  0  0  0  0
    0.6975   -1.2782   -1.4828 H   0  0  0  0  0  0  0  0  0  0  0  0
    1.7079   -2.4599   -0.6335 H   0  0  0  0  0  0  0  0  0  0  0  0
    0.9428    0.6618   -1.3529 H   0  0  0  0  0  0  0  0  0  0  0  0
    2.4577    1.3343   -0.7208 H   0  0  0  0  0  0  0  0  0  0  0  0
    1.5672    1.5125    1.5795 H   0  0  0  0  0  0  0  0  0  0  0  0
   -0.7899    1.9120    1.7538 H   0  0  0  0  0  0  0  0  0  0  0  0
   -0.8749    1.5767   -1.2187 H   0  0  0  0  0  0  0  0  0  0  0  0
   -2.2749    1.7548   -0.1551 H   0  0  0  0  0  0  0  0  0  0  0  0
   -1.2342   -0.6322   -1.3742 H   0  0  0  0  0  0  0  0  0  0  0  0
   -2.7135   -0.4340   -0.4255 H   0  0  0  0  0  0  0  0  0  0  0  0
  1  2  2  3
  2  3  1  0
  3  4  1  0
  4  5  1  0
  5  6  1  0
  6  7  2  3
  7  8  1  0
  8  9  1  0
  9  1  1  0
  1 10  1  0
  2 11  1  0
  3 12  1  0
  3 13  1  0
  5 14  1  0
  5 15  1  0
  6 16  1  0
  7 17  1  0
  8 18  1  0
  8 19  1  0
  9 20  1  0
  9 21  1  0
M  END
