
     RDKit          3D

 21 21  0  0  0  0  0  0  0  0999 V2000
    1.9691    0.5158   -0.4423 C   0  0  0  0  0  0  0  0  0  0  0  0
    1.2863    1.5923   -0.1688 C   0  0  0  0  0  0  0  0  0  0  0  0
    0.0744    1.7790    0.5931 C   0  0  0  0  0  0  0  0  0  0  0  0
   -1.1342    1.2969    0.3352 C   0  0  0  0  0  0  0  0  0  0  0  0
   -1.4146    0.4444   -0.8543 C   0  0  0  0  0  0  0  0  0  0  0  0
   -1.3987   -0.9741   -0.3633 C   0  0  0  0  0  0  0  0  0  0  0  0
   -0.4510   -1.1831    0.7933 C   0  0  0  0  0  0  0  0  0  0  0  0
    0.8911   -1.6080    0.3642 C   0  0  0  0  0  0  0  0  0  0  0  0
    1.8413   -0.8618   -0.1356 C   0  0  0  0  0  0  0  0  0  0  0  0
    2.8787    0.7361   -1.0818 H   0  0  0  0  0  0  0  0  0  0  0  0
    1.6901    2.5653   -0.5679 H   0  0  0  0  0  0  0  0  0  0  0  0
    0.0858    2.3947    1.5165 H   0  0  0  0  0  0  0  0  0  0  0  0
   -2.0060    1.4821    0.9670 H   0  0  0  0  0  0  0  0  0  0  0  0
   -0.7213    0.6427   -1.6857 H   0  0  0  0  0  0  0  0  0  0  0  0
   -2.4310    0.6446   -1.2475 H   0  0  0  0  0  0  0  0  0  0  0  0
   -2.4175   -1.1868    0.0239 H   0  0  0  0  0  0  0  0  0  0  0  0
   -1.1801   -1.7089   -1.1369 H   0  0  0  0  0  0  0  0  0  0  0  0
   -0.4539   -0.3469    1.5313 H   0  0  0  0  0  0  0  0  0  0  0  0
   -0.9284   -2.0105    1.4154 H   0  0  0  0  0  0  0  0  0  0  0  0
    1.0651   -2.7075    0.5010 H   0  0  0  0  0  0  0  0  0  0  0  0
    2.7548   -1.5062   -0.3569 H   0  0  0  0  0  0  0  0  0  0  0  0
  1  2  2  3
  2  3  1  0
  3  4  2  3
  4  5  1  0
  5  6  1  0
  6  7  1  0
  7  8  1  0
  8  9  2  3
  9  1  1  0
  1 10  1  0
  2 11  1  0
  3 12  1  0
  4 13  1  0
  5 14  1  0
  5 15  1  0
  6 16  1  0
  6 17  1  0
  7 18  1  0
  7 19  1  0
  8 20  1  0
  9 21  1  0
M  END
