
     RDKit          3D

 19 21  0  0  0  0  0  0  0  0999 V2000
    0.8526    1.5460   -0.0865 C   0  0  0  0  0  0  0  0  0  0  0  0
    0.9192    1.0713    1.1553 C   0  0  0  0  0  0  0  0  0  0  0  0
    0.3957   -0.3249    1.1843 C   0  0  0  0  0  0  0  0  0  0  0  0
    1.4057   -1.1203    0.6335 O   0  0  0  0  0  0  0  0  0  0  0  0
    1.5969   -0.6414   -0.6725 C   0  0  0  0  0  0  0  0  0  0  0  0
    0.4943    0.3576   -0.9179 C   0  0  0  0  0  0  0  0  0  0  0  0
   -0.5566   -0.2415    0.0117 C   0  0  0  0  0  0  0  0  0  0  0  0
   -1.5431   -1.1923   -0.3541 C   0  0  0  0  0  0  0  0  0  0  0  0
   -1.9171    0.2582    0.1002 C   0  0  0  0  0  0  0  0  0  0  0  0
    1.0030    2.5229   -0.4870 H   0  0  0  0  0  0  0  0  0  0  0  0
    1.2862    1.5859    2.0226 H   0  0  0  0  0  0  0  0  0  0  0  0
   -0.0079   -0.6635    2.1013 H   0  0  0  0  0  0  0  0  0  0  0  0
    1.6001   -1.4788   -1.3721 H   0  0  0  0  0  0  0  0  0  0  0  0
    2.5587   -0.1021   -0.7633 H   0  0  0  0  0  0  0  0  0  0  0  0
    0.1973    0.5352   -1.9114 H   0  0  0  0  0  0  0  0  0  0  0  0
   -1.7725   -1.3739   -1.4254 H   0  0  0  0  0  0  0  0  0  0  0  0
   -1.8625   -1.9957    0.3366 H   0  0  0  0  0  0  0  0  0  0  0  0
   -2.2780    0.9390   -0.6673 H   0  0  0  0  0  0  0  0  0  0  0  0
   -2.3719    0.3184    1.1119 H   0  0  0  0  0  0  0  0  0  0  0  0
  1  2  2  0
  2  3  1  0
  3  4  1  0
  4  5  1  0
  5  6  1  0
  6  7  1  0
  7  8  1  0
  8  9  1  0
  6  1  1  0
  9  7  1  0
  7  3  1  0
  1 10  1  0
  2 11  1  0
  3 12  1  0
  5 13  1  0
  5 14  1  0
  6 15  1  0
  8 16  1  0
  8 17  1  0
  9 18  1  0
  9 19  1  0
M  END
