
     RDKit          3D

 18 20  0  0  0  0  0  0  0  0999 V2000
    1.8948   -0.0902    0.3258 C   0  0  0  0  0  0  0  0  0  0  0  0
    1.0838    0.4153    1.2164 C   0  0  0  0  0  0  0  0  0  0  0  0
   -0.3220    0.2207    0.8361 C   0  0  0  0  0  0  0  0  0  0  0  0
   -1.0308    1.3023    0.0522 C   0  0  0  0  0  0  0  0  0  0  0  0
   -1.2120    0.3749   -1.1320 C   0  0  0  0  0  0  0  0  0  0  0  0
   -0.3076   -0.6085   -0.4259 C   0  0  0  0  0  0  0  0  0  0  0  0
    1.1341   -0.7011   -0.7886 C   0  0  0  0  0  0  0  0  0  0  0  0
   -0.8445   -1.1631    0.8450 C   0  0  0  0  0  0  0  0  0  0  0  0
    2.9830   -0.0816    0.3652 H   0  0  0  0  0  0  0  0  0  0  0  0
    1.4133    0.9135    2.1190 H   0  0  0  0  0  0  0  0  0  0  0  0
   -1.9516    1.5989    0.5747 H   0  0  0  0  0  0  0  0  0  0  0  0
   -0.3420    2.1244   -0.2194 H   0  0  0  0  0  0  0  0  0  0  0  0
   -0.8638    0.7481   -2.0933 H   0  0  0  0  0  0  0  0  0  0  0  0
   -2.2375   -0.0377   -1.1749 H   0  0  0  0  0  0  0  0  0  0  0  0
    1.4803   -1.7335   -1.0218 H   0  0  0  0  0  0  0  0  0  0  0  0
    1.3095   -0.0863   -1.6875 H   0  0  0  0  0  0  0  0  0  0  0  0
   -1.9525   -1.2780    0.8726 H   0  0  0  0  0  0  0  0  0  0  0  0
   -0.2345   -1.9181    1.3363 H   0  0  0  0  0  0  0  0  0  0  0  0
  1  2  2  0
  2  3  1  0
  3  4  1  0
  4  5  1  0
  5  6  1  0
  6  7  1  0
  6  8  1  0
  7  1  1  0
  6  3  1  0
  8  3  1  0
  1  9  1  0
  2 10  1  0
  4 11  1  0
  4 12  1  0
  5 13  1  0
  5 14  1  0
  7 15  1  0
  7 16  1  0
  8 17  1  0
  8 18  1  0
M  END
