
     RDKit          3D

 16 18  0  0  0  0  0  0  0  0999 V2000
    1.4897    0.8270    0.6658 C   0  0  0  0  0  0  0  0  0  0  0  0
    1.8196   -0.1102   -0.2588 C   0  0  0  0  0  0  0  0  0  0  0  0
    0.4945   -0.6339   -0.6661 C   0  0  0  0  0  0  0  0  0  0  0  0
   -0.2135   -0.7784    0.6606 C   0  0  0  0  0  0  0  0  0  0  0  0
   -1.6324   -0.8152    0.2752 C   0  0  0  0  0  0  0  0  0  0  0  0
   -1.7125    0.1186   -0.6754 C   0  0  0  0  0  0  0  0  0  0  0  0
   -0.3354    0.6329   -0.7520 C   0  0  0  0  0  0  0  0  0  0  0  0
    0.0370    0.7231    0.7312 C   0  0  0  0  0  0  0  0  0  0  0  0
    2.1783    1.4714    1.1984 H   0  0  0  0  0  0  0  0  0  0  0  0
    2.8227   -0.3705   -0.5817 H   0  0  0  0  0  0  0  0  0  0  0  0
    0.4025   -1.3765   -1.4066 H   0  0  0  0  0  0  0  0  0  0  0  0
    0.1809   -1.4031    1.4126 H   0  0  0  0  0  0  0  0  0  0  0  0
   -2.3754   -1.4722    0.7062 H   0  0  0  0  0  0  0  0  0  0  0  0
   -2.5446    0.4613   -1.2765 H   0  0  0  0  0  0  0  0  0  0  0  0
   -0.0552    1.4101   -1.3971 H   0  0  0  0  0  0  0  0  0  0  0  0
   -0.5564    1.3155    1.3641 H   0  0  0  0  0  0  0  0  0  0  0  0
  1  2  2  0
  2  3  1  0
  3  4  1  0
  4  5  1  0
  5  6  2  0
  6  7  1  0
  7  8  1  0
  8  1  1  0
  7  3  1  0
  8  4  1  0
  1  9  1  0
  2 10  1  0
  3 11  1  0
  4 12  1  0
  5 13  1  0
  6 14  1  0
  7 15  1  0
  8 16  1  0
M  END
