
     RDKit          3D

 19 20  0  0  0  0  0  0  0  0999 V2000
   -1.5012   -1.0663   -0.3514 C   0  0  0  0  0  0  0  0  0  0  0  0
   -0.3062   -0.6628    0.0434 C   0  0  0  0  0  0  0  0  0  0  0  0
    1.0570   -1.2521    0.1083 C   0  0  0  0  0  0  0  0  0  0  0  0
    2.0997   -0.1977   -0.2892 C   0  0  0  0  0  0  0  0  0  0  0  0
    1.4170    0.7993   -1.0059 O   0  0  0  0  0  0  0  0  0  0  0  0
    0.6832    1.5271   -0.0583 C   0  0  0  0  0  0  0  0  0  0  0  0
   -0.4486    0.7368    0.5282 C   0  0  0  0  0  0  0  0  0  0  0  0
   -1.6995    1.1696    0.1246 O   0  0  0  0  0  0  0  0  0  0  0  0
   -2.4816    0.0536   -0.1425 C   0  0  0  0  0  0  0  0  0  0  0  0
   -1.7415   -2.0341   -0.7565 H   0  0  0  0  0  0  0  0  0  0  0  0
    1.1214   -2.1356   -0.5298 H   0  0  0  0  0  0  0  0  0  0  0  0
    1.2350   -1.5760    1.1678 H   0  0  0  0  0  0  0  0  0  0  0  0
    2.8639   -0.6907   -0.9426 H   0  0  0  0  0  0  0  0  0  0  0  0
    2.5357    0.2908    0.5924 H   0  0  0  0  0  0  0  0  0  0  0  0
    0.2694    2.4570   -0.5037 H   0  0  0  0  0  0  0  0  0  0  0  0
    1.4224    1.8237    0.7243 H   0  0  0  0  0  0  0  0  0  0  0  0
   -0.3522    0.7363    1.6431 H   0  0  0  0  0  0  0  0  0  0  0  0
   -3.1069   -0.1647    0.7244 H   0  0  0  0  0  0  0  0  0  0  0  0
   -3.0669    0.1859   -1.0765 H   0  0  0  0  0  0  0  0  0  0  0  0
  1  2  2  0
  2  3  1  0
  3  4  1  0
  4  5  1  0
  5  6  1  0
  6  7  1  0
  7  8  1  0
  8  9  1  0
  9  1  1  0
  7  2  1  0
  1 10  1  0
  3 11  1  0
  3 12  1  0
  4 13  1  0
  4 14  1  0
  6 15  1  0
  6 16  1  0
  7 17  1  0
  9 18  1  0
  9 19  1  0
M  END
