
     RDKit          3D

 20 21  0  0  0  0  0  0  0  0999 V2000
   -1.6751    0.9533   -0.4610 C   0  0  0  0  0  0  0  0  0  0  0  0
   -0.8806    0.1618   -1.1541 C   0  0  0  0  0  0  0  0  0  0  0  0
   -0.2802   -0.8937   -0.2546 C   0  0  0  0  0  0  0  0  0  0  0  0
    1.2054   -0.7335   -0.1259 C   0  0  0  0  0  0  0  0  0  0  0  0
    1.8629    0.4511    0.4015 C   0  0  0  0  0  0  0  0  0  0  0  0
    1.9450    0.1635   -1.0644 C   0  0  0  0  0  0  0  0  0  0  0  0
   -1.0303   -0.8171    1.0188 C   0  0  0  0  0  0  0  0  0  0  0  0
   -1.7136    0.5436    0.9667 C   0  0  0  0  0  0  0  0  0  0  0  0
   -2.2300    1.7868   -0.8501 H   0  0  0  0  0  0  0  0  0  0  0  0
   -0.7017    0.2741   -2.2142 H   0  0  0  0  0  0  0  0  0  0  0  0
   -0.5191   -1.8591   -0.7490 H   0  0  0  0  0  0  0  0  0  0  0  0
    1.7324   -1.7116    0.0599 H   0  0  0  0  0  0  0  0  0  0  0  0
    2.7904    0.3172    1.0352 H   0  0  0  0  0  0  0  0  0  0  0  0
    1.3352    1.3818    0.6975 H   0  0  0  0  0  0  0  0  0  0  0  0
    2.9204   -0.1498   -1.4926 H   0  0  0  0  0  0  0  0  0  0  0  0
    1.3869    0.8531   -1.7352 H   0  0  0  0  0  0  0  0  0  0  0  0
   -0.4119   -0.8876    1.9297 H   0  0  0  0  0  0  0  0  0  0  0  0
   -1.8394   -1.5686    1.1308 H   0  0  0  0  0  0  0  0  0  0  0  0
   -2.7752    0.4894    1.2710 H   0  0  0  0  0  0  0  0  0  0  0  0
   -1.1213    1.2456    1.5901 H   0  0  0  0  0  0  0  0  0  0  0  0
  1  2  2  0
  2  3  1  0
  3  4  1  0
  4  5  1  0
  5  6  1  0
  3  7  1  0
  7  8  1  0
  8  1  1  0
  6  4  1  0
  1  9  1  0
  2 10  1  0
  3 11  1  0
  4 12  1  0
  5 13  1  0
  5 14  1  0
  6 15  1  0
  6 16  1  0
  7 17  1  0
  7 18  1  0
  8 19  1  0
  8 20  1  0
M  END
