
     RDKit          3D

 19 21  0  0  0  0  0  0  0  0999 V2000
    1.8852    0.6270    0.7013 C   0  0  0  0  0  0  0  0  0  0  0  0
    0.7963    1.1098    0.1193 C   0  0  0  0  0  0  0  0  0  0  0  0
    0.1997    0.0592   -0.7447 C   0  0  0  0  0  0  0  0  0  0  0  0
   -1.3012   -0.0527   -0.7393 C   0  0  0  0  0  0  0  0  0  0  0  0
   -1.8812   -0.3580    0.6312 C   0  0  0  0  0  0  0  0  0  0  0  0
   -2.1335    0.9442   -0.0375 C   0  0  0  0  0  0  0  0  0  0  0  0
    0.9348   -0.2515   -1.8525 O   0  0  0  0  0  0  0  0  0  0  0  0
    1.0882   -1.0493   -0.7461 C   0  0  0  0  0  0  0  0  0  0  0  0
    2.1267   -0.7873    0.2885 C   0  0  0  0  0  0  0  0  0  0  0  0
    2.4829    1.2405    1.3849 H   0  0  0  0  0  0  0  0  0  0  0  0
    0.3862    2.1183    0.2429 H   0  0  0  0  0  0  0  0  0  0  0  0
   -1.7347   -0.5239   -1.6272 H   0  0  0  0  0  0  0  0  0  0  0  0
   -2.6549   -1.1562    0.6059 H   0  0  0  0  0  0  0  0  0  0  0  0
   -1.1992   -0.3847    1.5081 H   0  0  0  0  0  0  0  0  0  0  0  0
   -1.6857    1.8715    0.4123 H   0  0  0  0  0  0  0  0  0  0  0  0
   -3.1829    1.0957   -0.3725 H   0  0  0  0  0  0  0  0  0  0  0  0
    0.8479   -2.1111   -0.9072 H   0  0  0  0  0  0  0  0  0  0  0  0
    3.1568   -0.9664   -0.0511 H   0  0  0  0  0  0  0  0  0  0  0  0
    1.8687   -1.4252    1.1837 H   0  0  0  0  0  0  0  0  0  0  0  0
  1  2  2  0
  2  3  1  0
  3  4  1  0
  4  5  1  0
  5  6  1  0
  3  7  1  0
  7  8  1  0
  8  9  1  0
  9  1  1  0
  8  3  1  0
  6  4  1  0
  1 10  1  0
  2 11  1  0
  4 12  1  0
  5 13  1  0
  5 14  1  0
  6 15  1  0
  6 16  1  0
  8 17  1  0
  9 18  1  0
  9 19  1  0
M  END
