
     RDKit          3D

 23 24  0  0  0  0  0  0  0  0999 V2000
   -1.6423    1.2796    0.6504 C   0  0  0  0  0  0  0  0  0  0  0  0
   -0.4232    1.7626    0.4756 C   0  0  0  0  0  0  0  0  0  0  0  0
    0.6486    1.2830   -0.4739 C   0  0  0  0  0  0  0  0  0  0  0  0
    0.9441   -0.1644   -0.1749 C   0  0  0  0  0  0  0  0  0  0  0  0
   -0.1356   -1.0614   -0.6709 C   0  0  0  0  0  0  0  0  0  0  0  0
   -1.3741   -1.0745    0.1591 C   0  0  0  0  0  0  0  0  0  0  0  0
   -2.2601    0.1312   -0.0563 C   0  0  0  0  0  0  0  0  0  0  0  0
    2.3544   -0.6816   -0.4585 C   0  0  0  0  0  0  0  0  0  0  0  0
    1.8511   -0.5061    0.9249 C   0  0  0  0  0  0  0  0  0  0  0  0
   -2.2530    1.7718    1.3842 H   0  0  0  0  0  0  0  0  0  0  0  0
   -0.1882    2.6075    1.1036 H   0  0  0  0  0  0  0  0  0  0  0  0
    1.5150    1.9340   -0.3903 H   0  0  0  0  0  0  0  0  0  0  0  0
    0.1914    1.3655   -1.4868 H   0  0  0  0  0  0  0  0  0  0  0  0
   -0.3650   -0.8126   -1.7365 H   0  0  0  0  0  0  0  0  0  0  0  0
    0.2446   -2.1246   -0.7004 H   0  0  0  0  0  0  0  0  0  0  0  0
   -1.9792   -1.9628   -0.1679 H   0  0  0  0  0  0  0  0  0  0  0  0
   -1.1167   -1.2377    1.2097 H   0  0  0  0  0  0  0  0  0  0  0  0
   -2.1936    0.3695   -1.1527 H   0  0  0  0  0  0  0  0  0  0  0  0
   -3.2797   -0.0734    0.2615 H   0  0  0  0  0  0  0  0  0  0  0  0
    3.0769    0.0032   -0.9228 H   0  0  0  0  0  0  0  0  0  0  0  0
    2.4635   -1.7425   -0.7869 H   0  0  0  0  0  0  0  0  0  0  0  0
    1.5997   -1.4002    1.5201 H   0  0  0  0  0  0  0  0  0  0  0  0
    2.3217    0.3339    1.4895 H   0  0  0  0  0  0  0  0  0  0  0  0
  1  2  2  0
  2  3  1  0
  3  4  1  0
  4  5  1  0
  5  6  1  0
  6  7  1  0
  4  8  1  0
  8  9  1  0
  7  1  1  0
  9  4  1  0
  1 10  1  0
  2 11  1  0
  3 12  1  0
  3 13  1  0
  5 14  1  0
  5 15  1  0
  6 16  1  0
  6 17  1  0
  7 18  1  0
  7 19  1  0
  8 20  1  0
  8 21  1  0
  9 22  1  0
  9 23  1  0
M  END
