
     RDKit          3D

 19 21  0  0  0  0  0  0  0  0999 V2000
   -0.8661   -1.5134   -0.3702 C   0  0  0  0  0  0  0  0  0  0  0  0
    0.4599   -1.4206   -0.3023 C   0  0  0  0  0  0  0  0  0  0  0  0
    1.0448   -0.0518   -0.3902 C   0  0  0  0  0  0  0  0  0  0  0  0
    2.4377    0.1951   -0.0137 C   0  0  0  0  0  0  0  0  0  0  0  0
    1.9705    0.2005   -1.3768 O   0  0  0  0  0  0  0  0  0  0  0  0
    0.0220    0.9771   -0.0137 C   0  0  0  0  0  0  0  0  0  0  0  0
   -0.8355    0.3856    1.1130 C   0  0  0  0  0  0  0  0  0  0  0  0
   -1.6358   -0.2864   -0.0108 C   0  0  0  0  0  0  0  0  0  0  0  0
   -1.2207    0.8889   -0.8876 C   0  0  0  0  0  0  0  0  0  0  0  0
   -1.4013   -2.4005   -0.6622 H   0  0  0  0  0  0  0  0  0  0  0  0
    1.1235   -2.2612   -0.1895 H   0  0  0  0  0  0  0  0  0  0  0  0
    3.0405   -0.6713    0.2880 H   0  0  0  0  0  0  0  0  0  0  0  0
    2.7514    1.2062    0.2796 H   0  0  0  0  0  0  0  0  0  0  0  0
    0.3819    1.9763    0.2113 H   0  0  0  0  0  0  0  0  0  0  0  0
   -1.3907    1.1367    1.6754 H   0  0  0  0  0  0  0  0  0  0  0  0
   -0.2623   -0.3659    1.7168 H   0  0  0  0  0  0  0  0  0  0  0  0
   -2.6930   -0.4034    0.1716 H   0  0  0  0  0  0  0  0  0  0  0  0
   -1.0444    0.6557   -1.9376 H   0  0  0  0  0  0  0  0  0  0  0  0
   -1.8823    1.7524   -0.6757 H   0  0  0  0  0  0  0  0  0  0  0  0
  1  2  2  0
  2  3  1  0
  3  4  1  0
  4  5  1  0
  3  6  1  0
  6  7  1  0
  7  8  1  0
  8  9  1  0
  8  1  1  0
  5  3  1  0
  9  6  1  0
  1 10  1  0
  2 11  1  0
  4 12  1  0
  4 13  1  0
  6 14  1  0
  7 15  1  0
  7 16  1  0
  8 17  1  0
  9 18  1  0
  9 19  1  0
M  END
