
     RDKit          3D

 19 21  0  0  0  0  0  0  0  0999 V2000
    1.3103   -0.9147    0.9039 C   0  0  0  0  0  0  0  0  0  0  0  0
    2.0688   -0.2020    0.0802 C   0  0  0  0  0  0  0  0  0  0  0  0
    1.5910    1.0839   -0.4431 C   0  0  0  0  0  0  0  0  0  0  0  0
    0.9022    1.0724   -1.6908 O   0  0  0  0  0  0  0  0  0  0  0  0
    0.1040    1.2040   -0.5713 C   0  0  0  0  0  0  0  0  0  0  0  0
   -0.6734    0.0583   -0.0238 C   0  0  0  0  0  0  0  0  0  0  0  0
   -0.0446   -0.3861    1.2926 C   0  0  0  0  0  0  0  0  0  0  0  0
   -1.3211   -0.9441   -0.9029 C   0  0  0  0  0  0  0  0  0  0  0  0
   -2.1356    0.0646   -0.1829 C   0  0  0  0  0  0  0  0  0  0  0  0
    1.6688   -1.8628    1.2866 H   0  0  0  0  0  0  0  0  0  0  0  0
    3.0604   -0.5407   -0.2333 H   0  0  0  0  0  0  0  0  0  0  0  0
    2.2162    1.9848   -0.2902 H   0  0  0  0  0  0  0  0  0  0  0  0
   -0.2832    2.2173   -0.3016 H   0  0  0  0  0  0  0  0  0  0  0  0
    0.1138    0.5151    1.8933 H   0  0  0  0  0  0  0  0  0  0  0  0
   -0.6649   -1.1567    1.7479 H   0  0  0  0  0  0  0  0  0  0  0  0
   -1.3293   -1.9778   -0.5198 H   0  0  0  0  0  0  0  0  0  0  0  0
   -1.2810   -0.8710   -2.0000 H   0  0  0  0  0  0  0  0  0  0  0  0
   -2.7196   -0.2452    0.7228 H   0  0  0  0  0  0  0  0  0  0  0  0
   -2.5829    0.9006   -0.7675 H   0  0  0  0  0  0  0  0  0  0  0  0
  1  2  2  0
  2  3  1  0
  3  4  1  0
  4  5  1  0
  5  6  1  0
  6  7  1  0
  6  8  1  0
  8  9  1  0
  7  1  1  0
  5  3  1  0
  9  6  1  0
  1 10  1  0
  2 11  1  0
  3 12  1  0
  5 13  1  0
  7 14  1  0
  7 15  1  0
  8 16  1  0
  8 17  1  0
  9 18  1  0
  9 19  1  0
M  END
