
     RDKit          3D

 17 19  0  0  0  0  0  0  0  0999 V2000
    0.9321    1.2693    0.1300 C   0  0  0  0  0  0  0  0  0  0  0  0
   -0.3057    0.9151   -0.0752 C   0  0  0  0  0  0  0  0  0  0  0  0
   -0.7034   -0.5045   -0.4347 C   0  0  0  0  0  0  0  0  0  0  0  0
    0.3639   -1.4513   -0.0056 C   0  0  0  0  0  0  0  0  0  0  0  0
    1.4530   -0.9125    0.6162 O   0  0  0  0  0  0  0  0  0  0  0  0
    2.0018    0.2084    0.0012 C   0  0  0  0  0  0  0  0  0  0  0  0
   -1.7485   -0.2316    0.6194 C   0  0  0  0  0  0  0  0  0  0  0  0
   -2.7267    0.6558    0.6100 O   0  0  0  0  0  0  0  0  0  0  0  0
   -1.7707    1.1139   -0.1726 C   0  0  0  0  0  0  0  0  0  0  0  0
    1.1713    2.2915    0.3832 H   0  0  0  0  0  0  0  0  0  0  0  0
   -1.0597   -0.6087   -1.4639 H   0  0  0  0  0  0  0  0  0  0  0  0
    0.6768   -2.0361   -0.8997 H   0  0  0  0  0  0  0  0  0  0  0  0
   -0.1097   -2.1574    0.7383 H   0  0  0  0  0  0  0  0  0  0  0  0
    2.8423    0.5419    0.6428 H   0  0  0  0  0  0  0  0  0  0  0  0
    2.2728    0.0511   -1.0486 H   0  0  0  0  0  0  0  0  0  0  0  0
   -1.2048   -0.1759    1.6182 H   0  0  0  0  0  0  0  0  0  0  0  0
   -2.0849    1.0309   -1.2590 H   0  0  0  0  0  0  0  0  0  0  0  0
  1  2  2  0
  2  3  1  0
  3  4  1  0
  4  5  1  0
  5  6  1  0
  3  7  1  0
  7  8  1  0
  8  9  1  0
  6  1  1  0
  9  7  1  0
  9  2  1  0
  1 10  1  0
  3 11  1  0
  4 12  1  0
  4 13  1  0
  6 14  1  0
  6 15  1  0
  7 16  1  0
  9 17  1  0
M  END
