
     RDKit          3D

 19 21  0  0  0  0  0  0  0  0999 V2000
    1.1982    1.4291    0.6386 C   0  0  0  0  0  0  0  0  0  0  0  0
   -0.0831    1.2920    0.3812 C   0  0  0  0  0  0  0  0  0  0  0  0
   -0.6825    0.0272   -0.0375 C   0  0  0  0  0  0  0  0  0  0  0  0
   -1.8528   -0.5734    0.6058 C   0  0  0  0  0  0  0  0  0  0  0  0
   -2.0649    0.1289   -0.6708 C   0  0  0  0  0  0  0  0  0  0  0  0
    0.2723   -0.8477   -0.8137 C   0  0  0  0  0  0  0  0  0  0  0  0
    1.6713   -0.7824   -0.2658 C   0  0  0  0  0  0  0  0  0  0  0  0
    1.7870   -0.9399    1.1218 O   0  0  0  0  0  0  0  0  0  0  0  0
    2.1097    0.2693    0.5097 C   0  0  0  0  0  0  0  0  0  0  0  0
    1.6219    2.4097    0.9563 H   0  0  0  0  0  0  0  0  0  0  0  0
   -0.7067    2.1823    0.4938 H   0  0  0  0  0  0  0  0  0  0  0  0
   -1.9215   -1.6982    0.5643 H   0  0  0  0  0  0  0  0  0  0  0  0
   -2.2979   -0.1763    1.5422 H   0  0  0  0  0  0  0  0  0  0  0  0
   -2.2628   -0.3904   -1.6140 H   0  0  0  0  0  0  0  0  0  0  0  0
   -2.5979    1.1117   -0.5841 H   0  0  0  0  0  0  0  0  0  0  0  0
   -0.0813   -1.8927   -0.6968 H   0  0  0  0  0  0  0  0  0  0  0  0
    0.3093   -0.6087   -1.8896 H   0  0  0  0  0  0  0  0  0  0  0  0
    2.3768   -1.4628   -0.8115 H   0  0  0  0  0  0  0  0  0  0  0  0
    3.2051    0.5221    0.5702 H   0  0  0  0  0  0  0  0  0  0  0  0
  1  2  2  0
  2  3  1  0
  3  4  1  0
  4  5  1  0
  3  6  1  0
  6  7  1  0
  7  8  1  0
  8  9  1  0
  9  1  1  0
  5  3  1  0
  9  7  1  0
  1 10  1  0
  2 11  1  0
  4 12  1  0
  4 13  1  0
  5 14  1  0
  5 15  1  0
  6 16  1  0
  6 17  1  0
  7 18  1  0
  9 19  1  0
M  END
