
     RDKit          3D

 21 22  0  0  0  0  0  0  0  0999 V2000
    2.0268    1.1348    0.2996 C   0  0  0  0  0  0  0  0  0  0  0  0
    2.2622   -0.1356    0.0354 C   0  0  0  0  0  0  0  0  0  0  0  0
    1.3810   -1.0499   -0.6932 C   0  0  0  0  0  0  0  0  0  0  0  0
   -0.0183   -1.1502   -0.3301 C   0  0  0  0  0  0  0  0  0  0  0  0
   -0.8400   -0.0245    0.1003 C   0  0  0  0  0  0  0  0  0  0  0  0
   -0.3906    1.3455   -0.1640 C   0  0  0  0  0  0  0  0  0  0  0  0
    0.8123    1.8873   -0.0933 C   0  0  0  0  0  0  0  0  0  0  0  0
   -2.3664   -0.2311   -0.1583 C   0  0  0  0  0  0  0  0  0  0  0  0
   -1.8355   -0.2669    1.2097 C   0  0  0  0  0  0  0  0  0  0  0  0
    2.7784    1.7186    0.8534 H   0  0  0  0  0  0  0  0  0  0  0  0
    3.2092   -0.4903    0.4128 H   0  0  0  0  0  0  0  0  0  0  0  0
    1.4482   -0.8445   -1.8082 H   0  0  0  0  0  0  0  0  0  0  0  0
    1.8553   -2.0749   -0.6053 H   0  0  0  0  0  0  0  0  0  0  0  0
   -0.1089   -1.9600    0.4671 H   0  0  0  0  0  0  0  0  0  0  0  0
   -0.5551   -1.6512   -1.2024 H   0  0  0  0  0  0  0  0  0  0  0  0
   -1.1382    2.0663   -0.4708 H   0  0  0  0  0  0  0  0  0  0  0  0
    0.9535    2.9467   -0.3216 H   0  0  0  0  0  0  0  0  0  0  0  0
   -2.6780   -1.1546   -0.6566 H   0  0  0  0  0  0  0  0  0  0  0  0
   -2.9429    0.6553   -0.4889 H   0  0  0  0  0  0  0  0  0  0  0  0
   -1.7853   -1.2654    1.6921 H   0  0  0  0  0  0  0  0  0  0  0  0
   -2.0676    0.5443    1.9224 H   0  0  0  0  0  0  0  0  0  0  0  0
  1  2  2  0
  2  3  1  0
  3  4  1  0
  4  5  1  0
  5  6  1  0
  6  7  2  0
  5  8  1  0
  8  9  1  0
  7  1  1  0
  9  5  1  0
  1 10  1  0
  2 11  1  0
  3 12  1  0
  3 13  1  0
  4 14  1  0
  4 15  1  0
  6 16  1  0
  7 17  1  0
  8 18  1  0
  8 19  1  0
  9 20  1  0
  9 21  1  0
M  END
