
     RDKit          3D

 19 21  0  0  0  0  0  0  0  0999 V2000
    1.0808   -1.3797    0.2628 C   0  0  0  0  0  0  0  0  0  0  0  0
   -0.0535   -0.9045   -0.1046 C   0  0  0  0  0  0  0  0  0  0  0  0
   -1.4712   -1.0298   -0.3232 C   0  0  0  0  0  0  0  0  0  0  0  0
   -1.8695    0.3960    0.1769 C   0  0  0  0  0  0  0  0  0  0  0  0
   -0.6650    1.2051    0.4139 C   0  0  0  0  0  0  0  0  0  0  0  0
    0.7339    1.3938    0.0951 C   0  0  0  0  0  0  0  0  0  0  0  0
    1.8467    0.8138    0.7726 O   0  0  0  0  0  0  0  0  0  0  0  0
    2.2278   -0.3860    0.1578 C   0  0  0  0  0  0  0  0  0  0  0  0
    0.0533    0.5372   -0.6548 C   0  0  0  0  0  0  0  0  0  0  0  0
    1.1799   -2.3807    0.6053 H   0  0  0  0  0  0  0  0  0  0  0  0
   -1.6641   -1.0309   -1.4208 H   0  0  0  0  0  0  0  0  0  0  0  0
   -1.9792   -1.8187    0.2149 H   0  0  0  0  0  0  0  0  0  0  0  0
   -2.5509    0.8369   -0.5699 H   0  0  0  0  0  0  0  0  0  0  0  0
   -2.4750    0.1740    1.0689 H   0  0  0  0  0  0  0  0  0  0  0  0
   -0.6582    1.5534    1.4105 H   0  0  0  0  0  0  0  0  0  0  0  0
    1.0372    2.4092   -0.2522 H   0  0  0  0  0  0  0  0  0  0  0  0
    3.0940   -0.7587    0.7136 H   0  0  0  0  0  0  0  0  0  0  0  0
    2.4782   -0.2966   -0.9009 H   0  0  0  0  0  0  0  0  0  0  0  0
   -0.3452    0.6662   -1.6659 H   0  0  0  0  0  0  0  0  0  0  0  0
  1  2  2  0
  2  3  1  0
  3  4  1  0
  4  5  1  0
  5  6  1  0
  6  7  1  0
  7  8  1  0
  6  9  1  0
  8  1  1  0
  9  2  1  0
  9  5  1  0
  1 10  1  0
  3 11  1  0
  3 12  1  0
  4 13  1  0
  4 14  1  0
  5 15  1  0
  6 16  1  0
  8 17  1  0
  8 18  1  0
  9 19  1  0
M  END
