
     RDKit          3D

 17 19  0  0  0  0  0  0  0  0999 V2000
    1.8069   -0.3142   -0.3494 C   0  0  0  0  0  0  0  0  0  0  0  0
    1.6313    0.9331    0.0528 C   0  0  0  0  0  0  0  0  0  0  0  0
    0.1782    1.1595    0.1844 C   0  0  0  0  0  0  0  0  0  0  0  0
   -0.3068    0.7423    1.4223 O   0  0  0  0  0  0  0  0  0  0  0  0
   -0.8735   -0.5162    1.2188 C   0  0  0  0  0  0  0  0  0  0  0  0
   -1.6503   -0.2365   -0.0876 C   0  0  0  0  0  0  0  0  0  0  0  0
   -0.3844    0.2061   -0.8143 C   0  0  0  0  0  0  0  0  0  0  0  0
    0.4725   -1.0000   -0.5128 C   0  0  0  0  0  0  0  0  0  0  0  0
    0.0436   -1.4434    0.7287 O   0  0  0  0  0  0  0  0  0  0  0  0
    2.7754   -0.7482   -0.5258 H   0  0  0  0  0  0  0  0  0  0  0  0
    2.3692    1.7073    0.2676 H   0  0  0  0  0  0  0  0  0  0  0  0
   -0.1341    2.1880   -0.0686 H   0  0  0  0  0  0  0  0  0  0  0  0
   -1.4944   -0.8682    2.0094 H   0  0  0  0  0  0  0  0  0  0  0  0
   -2.3457    0.5899    0.0861 H   0  0  0  0  0  0  0  0  0  0  0  0
   -2.0780   -1.1447   -0.5048 H   0  0  0  0  0  0  0  0  0  0  0  0
   -0.4903    0.4998   -1.8144 H   0  0  0  0  0  0  0  0  0  0  0  0
    0.4803   -1.7545   -1.2923 H   0  0  0  0  0  0  0  0  0  0  0  0
  1  2  2  0
  2  3  1  0
  3  4  1  0
  4  5  1  0
  5  6  1  0
  6  7  1  0
  7  8  1  0
  8  9  1  0
  8  1  1  0
  7  3  1  0
  9  5  1  0
  1 10  1  0
  2 11  1  0
  3 12  1  0
  5 13  1  0
  6 14  1  0
  6 15  1  0
  7 16  1  0
  8 17  1  0
M  END
