
     RDKit          3D

 21 22  0  0  0  0  0  0  0  0999 V2000
    0.2116    1.5229   -0.1818 C   0  0  0  0  0  0  0  0  0  0  0  0
    1.1793    0.6333   -0.1396 C   0  0  0  0  0  0  0  0  0  0  0  0
    2.6297    0.3280   -0.1654 C   0  0  0  0  0  0  0  0  0  0  0  0
    2.3038   -0.8933   -0.7500 O   0  0  0  0  0  0  0  0  0  0  0  0
    1.0987   -0.8228   -0.0112 C   0  0  0  0  0  0  0  0  0  0  0  0
   -0.0667   -1.4736   -0.6760 C   0  0  0  0  0  0  0  0  0  0  0  0
   -1.3382   -1.0405   -0.0261 C   0  0  0  0  0  0  0  0  0  0  0  0
   -1.8265    0.1922   -0.7137 C   0  0  0  0  0  0  0  0  0  0  0  0
   -1.2522    1.4578   -0.1232 C   0  0  0  0  0  0  0  0  0  0  0  0
    0.6136    2.5400   -0.2846 H   0  0  0  0  0  0  0  0  0  0  0  0
    3.0197    0.1244    0.8724 H   0  0  0  0  0  0  0  0  0  0  0  0
    3.2584    1.0008   -0.7713 H   0  0  0  0  0  0  0  0  0  0  0  0
    1.2665   -1.1794    1.0207 H   0  0  0  0  0  0  0  0  0  0  0  0
   -0.0945   -1.2680   -1.7640 H   0  0  0  0  0  0  0  0  0  0  0  0
    0.0659   -2.5730   -0.5781 H   0  0  0  0  0  0  0  0  0  0  0  0
   -2.1024   -1.8482   -0.2256 H   0  0  0  0  0  0  0  0  0  0  0  0
   -1.2556   -0.9042    1.0671 H   0  0  0  0  0  0  0  0  0  0  0  0
   -1.4736    0.1518   -1.7733 H   0  0  0  0  0  0  0  0  0  0  0  0
   -2.9331    0.2300   -0.7788 H   0  0  0  0  0  0  0  0  0  0  0  0
   -1.5779    1.4640    0.9590 H   0  0  0  0  0  0  0  0  0  0  0  0
   -1.7266    2.3578   -0.5634 H   0  0  0  0  0  0  0  0  0  0  0  0
  1  2  2  0
  2  3  1  0
  3  4  1  0
  4  5  1  0
  5  6  1  0
  6  7  1  0
  7  8  1  0
  8  9  1  0
  9  1  1  0
  5  2  1  0
  1 10  1  0
  3 11  1  0
  3 12  1  0
  5 13  1  0
  6 14  1  0
  6 15  1  0
  7 16  1  0
  7 17  1  0
  8 18  1  0
  8 19  1  0
  9 20  1  0
  9 21  1  0
M  END
