
     RDKit          3D

 21 22  0  0  0  0  0  0  0  0999 V2000
    1.4313   -1.6148    0.0285 C   0  0  0  0  0  0  0  0  0  0  0  0
    2.1187   -0.4752    0.0428 C   0  0  0  0  0  0  0  0  0  0  0  0
    1.4293    0.8131    0.2819 C   0  0  0  0  0  0  0  0  0  0  0  0
    0.0993    0.8793   -0.4270 C   0  0  0  0  0  0  0  0  0  0  0  0
   -0.9095    1.7024    0.3560 C   0  0  0  0  0  0  0  0  0  0  0  0
   -1.6837    0.7594    1.0322 O   0  0  0  0  0  0  0  0  0  0  0  0
   -1.9945   -0.1552    0.0356 C   0  0  0  0  0  0  0  0  0  0  0  0
   -0.6008   -0.4262   -0.5476 C   0  0  0  0  0  0  0  0  0  0  0  0
   -0.0215   -1.5344    0.2576 C   0  0  0  0  0  0  0  0  0  0  0  0
    1.8832   -2.5861   -0.1415 H   0  0  0  0  0  0  0  0  0  0  0  0
    3.2008   -0.5227   -0.1265 H   0  0  0  0  0  0  0  0  0  0  0  0
    1.3039    1.0258    1.3688 H   0  0  0  0  0  0  0  0  0  0  0  0
    2.0986    1.6123   -0.1029 H   0  0  0  0  0  0  0  0  0  0  0  0
    0.2935    1.3531   -1.4281 H   0  0  0  0  0  0  0  0  0  0  0  0
   -1.5658    2.1892   -0.4171 H   0  0  0  0  0  0  0  0  0  0  0  0
   -0.4242    2.4258    1.0106 H   0  0  0  0  0  0  0  0  0  0  0  0
   -2.6950    0.2106   -0.7133 H   0  0  0  0  0  0  0  0  0  0  0  0
   -2.4159   -1.0974    0.4488 H   0  0  0  0  0  0  0  0  0  0  0  0
   -0.7516   -0.7470   -1.6011 H   0  0  0  0  0  0  0  0  0  0  0  0
   -0.2559   -1.3329    1.3314 H   0  0  0  0  0  0  0  0  0  0  0  0
   -0.5402   -2.4792   -0.0470 H   0  0  0  0  0  0  0  0  0  0  0  0
  1  2  2  0
  2  3  1  0
  3  4  1  0
  4  5  1  0
  5  6  1  0
  6  7  1  0
  7  8  1  0
  8  9  1  0
  9  1  1  0
  8  4  1  0
  1 10  1  0
  2 11  1  0
  3 12  1  0
  3 13  1  0
  4 14  1  0
  5 15  1  0
  5 16  1  0
  7 17  1  0
  7 18  1  0
  8 19  1  0
  9 20  1  0
  9 21  1  0
M  END
