
     RDKit          3D

 16 18  0  0  0  0  0  0  0  0999 V2000
    0.3247    1.3437    0.2650 C   0  0  0  0  0  0  0  0  0  0  0  0
    1.5294    0.8299    0.0016 C   0  0  0  0  0  0  0  0  0  0  0  0
    1.5715   -0.6240    0.2060 C   0  0  0  0  0  0  0  0  0  0  0  0
    1.6296   -1.6408   -0.6160 O   0  0  0  0  0  0  0  0  0  0  0  0
    0.4706   -1.0477   -0.8046 C   0  0  0  0  0  0  0  0  0  0  0  0
   -0.7492   -0.9308   -0.0308 C   0  0  0  0  0  0  0  0  0  0  0  0
   -1.7782    0.0903   -0.2922 C   0  0  0  0  0  0  0  0  0  0  0  0
   -0.7458    0.4191    0.7061 C   0  0  0  0  0  0  0  0  0  0  0  0
    0.1383    2.4296    0.1543 H   0  0  0  0  0  0  0  0  0  0  0  0
    2.3577    1.4204   -0.3198 H   0  0  0  0  0  0  0  0  0  0  0  0
    1.4060   -0.8876    1.2721 H   0  0  0  0  0  0  0  0  0  0  0  0
    0.4288   -0.5039   -1.7849 H   0  0  0  0  0  0  0  0  0  0  0  0
   -1.0613   -1.8203    0.5548 H   0  0  0  0  0  0  0  0  0  0  0  0
   -2.7948   -0.0976    0.1112 H   0  0  0  0  0  0  0  0  0  0  0  0
   -1.8000    0.6930   -1.2201 H   0  0  0  0  0  0  0  0  0  0  0  0
   -0.9272    0.3268    1.7973 H   0  0  0  0  0  0  0  0  0  0  0  0
  1  2  2  0
  2  3  1  0
  3  4  1  0
  4  5  1  0
  5  6  1  0
  6  7  1  0
  7  8  1  0
  8  1  1  0
  5  3  1  0
  8  6  1  0
  1  9  1  0
  2 10  1  0
  3 11  1  0
  5 12  1  0
  6 13  1  0
  7 14  1  0
  7 15  1  0
  8 16  1  0
M  END
