
     RDKit          3D

 21 23  0  0  0  0  0  0  0  0999 V2000
    0.1478    1.8177   -0.3876 C   0  0  0  0  0  0  0  0  0  0  0  0
   -0.7352    1.6374    0.5885 C   0  0  0  0  0  0  0  0  0  0  0  0
   -0.9604    0.2132    0.8655 C   0  0  0  0  0  0  0  0  0  0  0  0
   -1.9811   -0.4670   -0.0592 C   0  0  0  0  0  0  0  0  0  0  0  0
   -0.8670   -1.4792   -0.3759 C   0  0  0  0  0  0  0  0  0  0  0  0
    0.0913   -0.4680    0.0537 C   0  0  0  0  0  0  0  0  0  0  0  0
    1.3770   -0.7935    0.6474 C   0  0  0  0  0  0  0  0  0  0  0  0
    2.0350    0.1552   -0.3643 C   0  0  0  0  0  0  0  0  0  0  0  0
    0.6415    0.5125   -0.9045 C   0  0  0  0  0  0  0  0  0  0  0  0
    0.4972    2.7720   -0.7917 H   0  0  0  0  0  0  0  0  0  0  0  0
   -1.2282    2.4479    1.1146 H   0  0  0  0  0  0  0  0  0  0  0  0
   -1.0851   -0.0894    1.9060 H   0  0  0  0  0  0  0  0  0  0  0  0
   -2.8364   -0.8823    0.4681 H   0  0  0  0  0  0  0  0  0  0  0  0
   -2.1997    0.1378   -0.9476 H   0  0  0  0  0  0  0  0  0  0  0  0
   -0.8725   -1.8356   -1.4144 H   0  0  0  0  0  0  0  0  0  0  0  0
   -0.9594   -2.3181    0.3499 H   0  0  0  0  0  0  0  0  0  0  0  0
    1.5327   -0.4692    1.7106 H   0  0  0  0  0  0  0  0  0  0  0  0
    1.7038   -1.8521    0.4834 H   0  0  0  0  0  0  0  0  0  0  0  0
    2.5413    0.9705    0.1563 H   0  0  0  0  0  0  0  0  0  0  0  0
    2.6398   -0.3494   -1.1256 H   0  0  0  0  0  0  0  0  0  0  0  0
    0.5177    0.3395   -1.9732 H   0  0  0  0  0  0  0  0  0  0  0  0
  1  2  2  0
  2  3  1  0
  3  4  1  0
  4  5  1  0
  5  6  1  0
  6  7  1  0
  7  8  1  0
  8  9  1  0
  9  1  1  0
  6  3  1  0
  9  6  1  0
  1 10  1  0
  2 11  1  0
  3 12  1  0
  4 13  1  0
  4 14  1  0
  5 15  1  0
  5 16  1  0
  7 17  1  0
  7 18  1  0
  8 19  1  0
  8 20  1  0
  9 21  1  0
M  END
