
     RDKit          3D

 19 21  0  0  0  0  0  0  0  0999 V2000
    0.6213   -1.2666    0.3514 C   0  0  0  0  0  0  0  0  0  0  0  0
   -0.6488   -0.9351    0.4219 C   0  0  0  0  0  0  0  0  0  0  0  0
   -2.1503   -0.7951    0.5650 C   0  0  0  0  0  0  0  0  0  0  0  0
   -2.0843    0.4801   -0.2953 C   0  0  0  0  0  0  0  0  0  0  0  0
   -0.6848    0.5703    0.1763 C   0  0  0  0  0  0  0  0  0  0  0  0
    0.4479    0.7310   -0.7729 C   0  0  0  0  0  0  0  0  0  0  0  0
    1.4757   -0.1265   -0.0253 C   0  0  0  0  0  0  0  0  0  0  0  0
    2.7962    0.1533    0.1773 C   0  0  0  0  0  0  0  0  0  0  0  0
    1.9291    0.6805    1.1396 O   0  0  0  0  0  0  0  0  0  0  0  0
    1.0121   -2.2731    0.5482 H   0  0  0  0  0  0  0  0  0  0  0  0
   -2.7150   -1.5849    0.0687 H   0  0  0  0  0  0  0  0  0  0  0  0
   -2.4488   -0.6385    1.6019 H   0  0  0  0  0  0  0  0  0  0  0  0
   -2.2391    0.3065   -1.3691 H   0  0  0  0  0  0  0  0  0  0  0  0
   -2.7302    1.2442    0.1836 H   0  0  0  0  0  0  0  0  0  0  0  0
   -0.5023    1.1223    1.1191 H   0  0  0  0  0  0  0  0  0  0  0  0
    0.8027    1.7624   -0.9022 H   0  0  0  0  0  0  0  0  0  0  0  0
    0.2819    0.3014   -1.7622 H   0  0  0  0  0  0  0  0  0  0  0  0
    3.4921   -0.5981    0.6005 H   0  0  0  0  0  0  0  0  0  0  0  0
    3.3443    0.8659   -0.4955 H   0  0  0  0  0  0  0  0  0  0  0  0
  1  2  2  0
  2  3  1  0
  3  4  1  0
  4  5  1  0
  5  6  1  0
  6  7  1  0
  7  8  1  0
  8  9  1  0
  7  1  1  0
  5  2  1  0
  9  7  1  0
  1 10  1  0
  3 11  1  0
  3 12  1  0
  4 13  1  0
  4 14  1  0
  5 15  1  0
  6 16  1  0
  6 17  1  0
  8 18  1  0
  8 19  1  0
M  END
