
     RDKit          3D

 16 17  0  0  0  0  0  0  0  0999 V2000
   -1.2168   -0.7743    0.6909 C   0  0  0  0  0  0  0  0  0  0  0  0
    0.0815   -0.8271    0.9130 C   0  0  0  0  0  0  0  0  0  0  0  0
    0.9509    0.0801    0.1239 C   0  0  0  0  0  0  0  0  0  0  0  0
    0.1333    1.3031   -0.2139 C   0  0  0  0  0  0  0  0  0  0  0  0
   -0.9347    0.8706   -1.0063 O   0  0  0  0  0  0  0  0  0  0  0  0
   -1.8503    0.1383   -0.3000 C   0  0  0  0  0  0  0  0  0  0  0  0
    1.9348   -0.4924   -0.7404 C   0  0  0  0  0  0  0  0  0  0  0  0
    2.2529    0.2042    0.5460 O   0  0  0  0  0  0  0  0  0  0  0  0
   -1.8497   -1.4342    1.2648 H   0  0  0  0  0  0  0  0  0  0  0  0
    0.4737   -1.5149    1.6487 H   0  0  0  0  0  0  0  0  0  0  0  0
   -0.3150    1.6557    0.7603 H   0  0  0  0  0  0  0  0  0  0  0  0
    0.7246    2.0672   -0.7160 H   0  0  0  0  0  0  0  0  0  0  0  0
   -2.4042   -0.5061   -1.0137 H   0  0  0  0  0  0  0  0  0  0  0  0
   -2.5904    0.7510    0.2593 H   0  0  0  0  0  0  0  0  0  0  0  0
    2.1414   -1.5765   -0.6857 H   0  0  0  0  0  0  0  0  0  0  0  0
    2.4680    0.0554   -1.5309 H   0  0  0  0  0  0  0  0  0  0  0  0
  1  2  2  0
  2  3  1  0
  3  4  1  0
  4  5  1  0
  5  6  1  0
  3  7  1  0
  7  8  1  0
  6  1  1  0
  8  3  1  0
  1  9  1  0
  2 10  1  0
  4 11  1  0
  4 12  1  0
  6 13  1  0
  6 14  1  0
  7 15  1  0
  7 16  1  0
M  END
