
     RDKit          3D

 21 22  0  0  0  0  0  0  0  0999 V2000
    2.2440   -0.6449   -0.6362 C   0  0  0  0  0  0  0  0  0  0  0  0
    2.4980    0.4010    0.1334 C   0  0  0  0  0  0  0  0  0  0  0  0
    1.2218    0.9814    0.6618 C   0  0  0  0  0  0  0  0  0  0  0  0
    0.2664   -0.1885    0.5157 C   0  0  0  0  0  0  0  0  0  0  0  0
   -1.1225    0.2851    0.4959 C   0  0  0  0  0  0  0  0  0  0  0  0
   -2.2134   -0.7218    0.3583 C   0  0  0  0  0  0  0  0  0  0  0  0
   -2.9712    0.3095   -0.2515 O   0  0  0  0  0  0  0  0  0  0  0  0
   -1.7279    0.7274   -0.7942 C   0  0  0  0  0  0  0  0  0  0  0  0
    0.7787   -0.8622   -0.6964 C   0  0  0  0  0  0  0  0  0  0  0  0
    3.0232   -1.2423   -1.1409 H   0  0  0  0  0  0  0  0  0  0  0  0
    3.5017    0.7930    0.3567 H   0  0  0  0  0  0  0  0  0  0  0  0
    1.4227    1.2042    1.7420 H   0  0  0  0  0  0  0  0  0  0  0  0
    0.9022    1.8728    0.1209 H   0  0  0  0  0  0  0  0  0  0  0  0
    0.4297   -0.8498    1.3921 H   0  0  0  0  0  0  0  0  0  0  0  0
   -1.3388    0.9847    1.3198 H   0  0  0  0  0  0  0  0  0  0  0  0
   -2.6839   -1.0750    1.3031 H   0  0  0  0  0  0  0  0  0  0  0  0
   -2.0573   -1.5133   -0.4010 H   0  0  0  0  0  0  0  0  0  0  0  0
   -1.6688    1.8217   -0.9622 H   0  0  0  0  0  0  0  0  0  0  0  0
   -1.5352    0.1029   -1.6707 H   0  0  0  0  0  0  0  0  0  0  0  0
    0.4341   -0.4196   -1.6527 H   0  0  0  0  0  0  0  0  0  0  0  0
    0.5967   -1.9663   -0.7034 H   0  0  0  0  0  0  0  0  0  0  0  0
  1  2  2  0
  2  3  1  0
  3  4  1  0
  4  5  1  0
  5  6  1  0
  6  7  1  0
  7  8  1  0
  4  9  1  0
  9  1  1  0
  8  5  1  0
  1 10  1  0
  2 11  1  0
  3 12  1  0
  3 13  1  0
  4 14  1  0
  5 15  1  0
  6 16  1  0
  6 17  1  0
  8 18  1  0
  8 19  1  0
  9 20  1  0
  9 21  1  0
M  END
