
     RDKit          3D

 21 22  0  0  0  0  0  0  0  0999 V2000
    1.4570    0.9073   -0.7095 C   0  0  0  0  0  0  0  0  0  0  0  0
    0.4309    1.5846   -0.2311 C   0  0  0  0  0  0  0  0  0  0  0  0
   -0.6201    1.2897    0.7547 C   0  0  0  0  0  0  0  0  0  0  0  0
   -1.6865    0.3925    0.1869 C   0  0  0  0  0  0  0  0  0  0  0  0
   -1.4706   -0.3495   -1.0725 C   0  0  0  0  0  0  0  0  0  0  0  0
   -1.3739   -1.0516    0.2397 C   0  0  0  0  0  0  0  0  0  0  0  0
   -0.0658   -1.3854    0.8301 C   0  0  0  0  0  0  0  0  0  0  0  0
    1.2060   -1.1705    0.5798 C   0  0  0  0  0  0  0  0  0  0  0  0
    1.9994   -0.4606   -0.4559 C   0  0  0  0  0  0  0  0  0  0  0  0
    2.0455    1.4307   -1.4412 H   0  0  0  0  0  0  0  0  0  0  0  0
    0.3627    2.5734   -0.6727 H   0  0  0  0  0  0  0  0  0  0  0  0
   -0.1558    0.7506    1.6092 H   0  0  0  0  0  0  0  0  0  0  0  0
   -1.0272    2.2378    1.1758 H   0  0  0  0  0  0  0  0  0  0  0  0
   -2.7217    0.7630    0.3765 H   0  0  0  0  0  0  0  0  0  0  0  0
   -0.5273   -0.2947   -1.6459 H   0  0  0  0  0  0  0  0  0  0  0  0
   -2.3654   -0.6030   -1.6714 H   0  0  0  0  0  0  0  0  0  0  0  0
   -2.2470   -1.6942    0.5598 H   0  0  0  0  0  0  0  0  0  0  0  0
   -0.1823   -1.9791    1.7297 H   0  0  0  0  0  0  0  0  0  0  0  0
    1.8313   -1.6377    1.3318 H   0  0  0  0  0  0  0  0  0  0  0  0
    2.0616   -0.9870   -1.4089 H   0  0  0  0  0  0  0  0  0  0  0  0
    3.0492   -0.3165   -0.0649 H   0  0  0  0  0  0  0  0  0  0  0  0
  1  2  2  3
  2  3  1  0
  3  4  1  0
  4  5  1  0
  5  6  1  0
  6  7  1  0
  7  8  2  3
  8  9  1  0
  9  1  1  0
  6  4  1  0
  1 10  1  0
  2 11  1  0
  3 12  1  0
  3 13  1  0
  4 14  1  0
  5 15  1  0
  5 16  1  0
  6 17  1  0
  7 18  1  0
  8 19  1  0
  9 20  1  0
  9 21  1  0
M  END
