
     RDKit          3D

 19 21  0  0  0  0  0  0  0  0999 V2000
    1.9797   -0.0570   -0.0154 C   0  0  0  0  0  0  0  0  0  0  0  0
    1.3975    1.1572    0.1093 C   0  0  0  0  0  0  0  0  0  0  0  0
    0.0140    0.9815    0.5227 C   0  0  0  0  0  0  0  0  0  0  0  0
   -0.8642    0.4980   -0.6407 C   0  0  0  0  0  0  0  0  0  0  0  0
   -1.9712   -0.1215    0.1806 C   0  0  0  0  0  0  0  0  0  0  0  0
   -1.2598   -0.8581    1.1464 O   0  0  0  0  0  0  0  0  0  0  0  0
    0.0330   -0.4201    1.1719 C   0  0  0  0  0  0  0  0  0  0  0  0
    0.8396   -1.0277    0.0135 C   0  0  0  0  0  0  0  0  0  0  0  0
   -0.0357   -0.6682   -1.1619 C   0  0  0  0  0  0  0  0  0  0  0  0
    3.0385   -0.2325   -0.1115 H   0  0  0  0  0  0  0  0  0  0  0  0
    1.9012    2.1036   -0.0749 H   0  0  0  0  0  0  0  0  0  0  0  0
   -0.4392    1.7270    1.1332 H   0  0  0  0  0  0  0  0  0  0  0  0
   -1.1338    1.2383   -1.3432 H   0  0  0  0  0  0  0  0  0  0  0  0
   -2.6646   -0.7322   -0.3896 H   0  0  0  0  0  0  0  0  0  0  0  0
   -2.4549    0.7229    0.7324 H   0  0  0  0  0  0  0  0  0  0  0  0
    0.5494   -0.4385    2.1111 H   0  0  0  0  0  0  0  0  0  0  0  0
    1.0960   -2.0476    0.1341 H   0  0  0  0  0  0  0  0  0  0  0  0
    0.6327   -0.3274   -2.0005 H   0  0  0  0  0  0  0  0  0  0  0  0
   -0.6581   -1.4977   -1.5177 H   0  0  0  0  0  0  0  0  0  0  0  0
  1  2  2  0
  2  3  1  0
  3  4  1  0
  4  5  1  0
  5  6  1  0
  6  7  1  0
  7  8  1  0
  8  9  1  0
  8  1  1  0
  7  3  1  0
  9  4  1  0
  1 10  1  0
  2 11  1  0
  3 12  1  0
  4 13  1  0
  5 14  1  0
  5 15  1  0
  7 16  1  0
  8 17  1  0
  9 18  1  0
  9 19  1  0
M  END
