
     RDKit          3D

 19 21  0  0  0  0  0  0  0  0999 V2000
   -1.9889    0.1035    0.8321 C   0  0  0  0  0  0  0  0  0  0  0  0
   -1.3236    1.1759    0.4781 C   0  0  0  0  0  0  0  0  0  0  0  0
   -0.4792    0.9453   -0.7192 C   0  0  0  0  0  0  0  0  0  0  0  0
   -0.5364   -0.5528   -0.9744 C   0  0  0  0  0  0  0  0  0  0  0  0
   -1.6560   -0.9839   -0.1089 C   0  0  0  0  0  0  0  0  0  0  0  0
    0.6912    0.0824   -0.5093 C   0  0  0  0  0  0  0  0  0  0  0  0
    1.3346   -0.1548    0.8005 C   0  0  0  0  0  0  0  0  0  0  0  0
    2.5856   -0.0416   -0.0313 C   0  0  0  0  0  0  0  0  0  0  0  0
    1.8384    0.1207   -1.2193 O   0  0  0  0  0  0  0  0  0  0  0  0
   -2.6693   -0.0101    1.6566 H   0  0  0  0  0  0  0  0  0  0  0  0
   -1.3796    2.1209    0.9945 H   0  0  0  0  0  0  0  0  0  0  0  0
   -0.5107    1.6401   -1.5666 H   0  0  0  0  0  0  0  0  0  0  0  0
   -0.5842   -0.8361   -2.0468 H   0  0  0  0  0  0  0  0  0  0  0  0
   -1.4932   -1.9588    0.3964 H   0  0  0  0  0  0  0  0  0  0  0  0
   -2.5665   -1.0825   -0.7765 H   0  0  0  0  0  0  0  0  0  0  0  0
    1.2442    0.7306    1.4615 H   0  0  0  0  0  0  0  0  0  0  0  0
    1.1521   -1.1279    1.2741 H   0  0  0  0  0  0  0  0  0  0  0  0
    3.1306   -1.0109   -0.1103 H   0  0  0  0  0  0  0  0  0  0  0  0
    3.2110    0.8401    0.1687 H   0  0  0  0  0  0  0  0  0  0  0  0
  1  2  2  0
  2  3  1  0
  3  4  1  0
  4  5  1  0
  4  6  1  0
  6  7  1  0
  7  8  1  0
  8  9  1  0
  5  1  1  0
  9  6  1  0
  6  3  1  0
  1 10  1  0
  2 11  1  0
  3 12  1  0
  4 13  1  0
  5 14  1  0
  5 15  1  0
  7 16  1  0
  7 17  1  0
  8 18  1  0
  8 19  1  0
M  END
