
     RDKit          3D

 17 20  0  0  0  0  0  0  0  0999 V2000
   -1.8960   -0.0032    0.4678 C   0  0  0  0  0  0  0  0  0  0  0  0
   -1.6647   -0.8596   -0.5317 C   0  0  0  0  0  0  0  0  0  0  0  0
   -0.2039   -0.7193   -0.7463 C   0  0  0  0  0  0  0  0  0  0  0  0
    0.3076   -0.6930    0.6902 C   0  0  0  0  0  0  0  0  0  0  0  0
   -0.5665    0.5410    0.7651 C   0  0  0  0  0  0  0  0  0  0  0  0
   -0.0169    0.7760   -0.6488 C   0  0  0  0  0  0  0  0  0  0  0  0
    1.4495    0.9954   -0.4128 C   0  0  0  0  0  0  0  0  0  0  0  0
    1.9343    1.2015    0.8547 O   0  0  0  0  0  0  0  0  0  0  0  0
    1.7054   -0.1541    0.5806 C   0  0  0  0  0  0  0  0  0  0  0  0
   -2.8105    0.2681    0.9768 H   0  0  0  0  0  0  0  0  0  0  0  0
   -2.3328   -1.5115   -1.0793 H   0  0  0  0  0  0  0  0  0  0  0  0
    0.3046   -1.2835   -1.4702 H   0  0  0  0  0  0  0  0  0  0  0  0
    0.0949   -1.5208    1.3180 H   0  0  0  0  0  0  0  0  0  0  0  0
   -0.3988    1.2706    1.4993 H   0  0  0  0  0  0  0  0  0  0  0  0
   -0.5653    1.4185   -1.2892 H   0  0  0  0  0  0  0  0  0  0  0  0
    2.1189    1.0805   -1.2799 H   0  0  0  0  0  0  0  0  0  0  0  0
    2.5402   -0.8064    0.3059 H   0  0  0  0  0  0  0  0  0  0  0  0
  1  2  2  0
  2  3  1  0
  3  4  1  0
  4  5  1  0
  5  6  1  0
  6  7  1  0
  7  8  1  0
  8  9  1  0
  5  1  1  0
  9  7  1  0
  6  3  1  0
  9  4  1  0
  1 10  1  0
  2 11  1  0
  3 12  1  0
  4 13  1  0
  5 14  1  0
  6 15  1  0
  7 16  1  0
  9 17  1  0
M  END
