
     RDKit          3D

 17 19  0  0  0  0  0  0  0  0999 V2000
    1.2577   -0.4995   -0.9428 C   0  0  0  0  0  0  0  0  0  0  0  0
    1.2374    0.8255   -0.9400 C   0  0  0  0  0  0  0  0  0  0  0  0
    0.3844    1.3513    0.1591 C   0  0  0  0  0  0  0  0  0  0  0  0
   -0.9343    1.3597   -0.2729 O   0  0  0  0  0  0  0  0  0  0  0  0
   -1.5640    0.2797    0.2947 C   0  0  0  0  0  0  0  0  0  0  0  0
   -1.0607   -1.0397   -0.2675 C   0  0  0  0  0  0  0  0  0  0  0  0
    0.4126   -0.9658    0.1630 C   0  0  0  0  0  0  0  0  0  0  0  0
    0.3824    0.1778    1.1127 C   0  0  0  0  0  0  0  0  0  0  0  0
   -0.9430    0.2292    1.5692 O   0  0  0  0  0  0  0  0  0  0  0  0
    1.7984   -1.1386   -1.6338 H   0  0  0  0  0  0  0  0  0  0  0  0
    1.7748    1.4465   -1.6491 H   0  0  0  0  0  0  0  0  0  0  0  0
    0.7323    2.2837    0.5937 H   0  0  0  0  0  0  0  0  0  0  0  0
   -2.6385    0.3497    0.3665 H   0  0  0  0  0  0  0  0  0  0  0  0
   -1.5491   -1.8484    0.2982 H   0  0  0  0  0  0  0  0  0  0  0  0
   -1.1616   -1.1100   -1.3551 H   0  0  0  0  0  0  0  0  0  0  0  0
    0.7436   -1.9061    0.6237 H   0  0  0  0  0  0  0  0  0  0  0  0
    1.1275    0.2050    1.8803 H   0  0  0  0  0  0  0  0  0  0  0  0
  1  2  2  0
  2  3  1  0
  3  4  1  0
  4  5  1  0
  5  6  1  0
  6  7  1  0
  7  8  1  0
  8  9  1  0
  7  1  1  0
  8  3  1  0
  9  5  1  0
  1 10  1  0
  2 11  1  0
  3 12  1  0
  5 13  1  0
  6 14  1  0
  6 15  1  0
  7 16  1  0
  8 17  1  0
M  END
