
     RDKit          3D

 21 22  0  0  0  0  0  0  0  0999 V2000
    1.4691   -0.7104   -0.5731 C   0  0  0  0  0  0  0  0  0  0  0  0
    1.6982    0.5900   -0.7331 C   0  0  0  0  0  0  0  0  0  0  0  0
    0.8529    1.2476    0.3301 C   0  0  0  0  0  0  0  0  0  0  0  0
   -0.4538    1.5791   -0.2672 C   0  0  0  0  0  0  0  0  0  0  0  0
   -1.5123    0.5539   -0.1855 C   0  0  0  0  0  0  0  0  0  0  0  0
   -1.1043   -0.8414   -0.4491 C   0  0  0  0  0  0  0  0  0  0  0  0
   -0.4401   -1.5231    0.7344 C   0  0  0  0  0  0  0  0  0  0  0  0
    0.9661   -0.9222    0.8146 C   0  0  0  0  0  0  0  0  0  0  0  0
    0.8233    0.3284    1.3571 O   0  0  0  0  0  0  0  0  0  0  0  0
    1.6183   -1.4840   -1.3125 H   0  0  0  0  0  0  0  0  0  0  0  0
    2.3437    1.0744   -1.4596 H   0  0  0  0  0  0  0  0  0  0  0  0
    1.3878    2.1469    0.7062 H   0  0  0  0  0  0  0  0  0  0  0  0
   -0.8387    2.5198    0.2198 H   0  0  0  0  0  0  0  0  0  0  0  0
   -0.2896    1.8700   -1.3461 H   0  0  0  0  0  0  0  0  0  0  0  0
   -2.0031    0.6212    0.8138 H   0  0  0  0  0  0  0  0  0  0  0  0
   -2.3065    0.8219   -0.9440 H   0  0  0  0  0  0  0  0  0  0  0  0
   -2.0355   -1.4463   -0.6525 H   0  0  0  0  0  0  0  0  0  0  0  0
   -0.4464   -0.9356   -1.3156 H   0  0  0  0  0  0  0  0  0  0  0  0
   -0.4061   -2.5991    0.5118 H   0  0  0  0  0  0  0  0  0  0  0  0
   -0.9891   -1.3154    1.6823 H   0  0  0  0  0  0  0  0  0  0  0  0
    1.6660   -1.5758    1.3504 H   0  0  0  0  0  0  0  0  0  0  0  0
  1  2  2  0
  2  3  1  0
  3  4  1  0
  4  5  1  0
  5  6  1  0
  6  7  1  0
  7  8  1  0
  8  9  1  0
  8  1  1  0
  9  3  1  0
  1 10  1  0
  2 11  1  0
  3 12  1  0
  4 13  1  0
  4 14  1  0
  5 15  1  0
  5 16  1  0
  6 17  1  0
  6 18  1  0
  7 19  1  0
  7 20  1  0
  8 21  1  0
M  END
