
     RDKit          3D

 21 22  0  0  0  0  0  0  0  0999 V2000
   -0.7114    1.0346    0.1867 C   0  0  0  0  0  0  0  0  0  0  0  0
   -0.2955   -0.2172    0.0137 C   0  0  0  0  0  0  0  0  0  0  0  0
    1.1119   -0.6363   -0.1015 C   0  0  0  0  0  0  0  0  0  0  0  0
    2.0836    0.4985   -0.0057 C   0  0  0  0  0  0  0  0  0  0  0  0
    3.5382    0.0715   -0.1241 C   0  0  0  0  0  0  0  0  0  0  0  0
    2.8787    0.8525   -1.0632 O   0  0  0  0  0  0  0  0  0  0  0  0
   -1.4506   -1.1400   -0.0476 C   0  0  0  0  0  0  0  0  0  0  0  0
   -2.6908   -0.3091    0.1016 C   0  0  0  0  0  0  0  0  0  0  0  0
   -2.2001    1.0866    0.2604 C   0  0  0  0  0  0  0  0  0  0  0  0
   -0.1009    1.9239    0.2686 H   0  0  0  0  0  0  0  0  0  0  0  0
    1.3025   -1.2251   -1.0449 H   0  0  0  0  0  0  0  0  0  0  0  0
    1.3392   -1.3310    0.7544 H   0  0  0  0  0  0  0  0  0  0  0  0
    1.8233    1.2448    0.7797 H   0  0  0  0  0  0  0  0  0  0  0  0
    3.7666   -0.9585   -0.4559 H   0  0  0  0  0  0  0  0  0  0  0  0
    4.2034    0.5224    0.6190 H   0  0  0  0  0  0  0  0  0  0  0  0
   -1.4407   -1.8677    0.8070 H   0  0  0  0  0  0  0  0  0  0  0  0
   -1.4354   -1.7523   -0.9677 H   0  0  0  0  0  0  0  0  0  0  0  0
   -3.3532   -0.4267   -0.8056 H   0  0  0  0  0  0  0  0  0  0  0  0
   -3.3330   -0.6397    0.9538 H   0  0  0  0  0  0  0  0  0  0  0  0
   -2.4632    1.5605    1.2076 H   0  0  0  0  0  0  0  0  0  0  0  0
   -2.5727    1.7082   -0.5596 H   0  0  0  0  0  0  0  0  0  0  0  0
  1  2  2  0
  2  3  1  0
  3  4  1  0
  4  5  1  0
  5  6  1  0
  2  7  1  0
  7  8  1  0
  8  9  1  0
  9  1  1  0
  6  4  1  0
  1 10  1  0
  3 11  1  0
  3 12  1  0
  4 13  1  0
  5 14  1  0
  5 15  1  0
  7 16  1  0
  7 17  1  0
  8 18  1  0
  8 19  1  0
  9 20  1  0
  9 21  1  0
M  END
