
     RDKit          3D

 19 21  0  0  0  0  0  0  0  0999 V2000
    0.4972    0.5112   -1.5603 C   0  0  0  0  0  0  0  0  0  0  0  0
   -0.6554    0.5270   -0.9406 C   0  0  0  0  0  0  0  0  0  0  0  0
   -2.0379    0.6987   -0.4591 C   0  0  0  0  0  0  0  0  0  0  0  0
   -1.8389   -0.7558    0.0580 C   0  0  0  0  0  0  0  0  0  0  0  0
   -0.4842   -0.2083    0.3908 C   0  0  0  0  0  0  0  0  0  0  0  0
    0.7270   -1.0237    0.2377 C   0  0  0  0  0  0  0  0  0  0  0  0
    1.7053   -0.5399    1.1582 O   0  0  0  0  0  0  0  0  0  0  0  0
    2.0705    0.5595    0.3295 C   0  0  0  0  0  0  0  0  0  0  0  0
    1.5176   -0.2640   -0.8147 C   0  0  0  0  0  0  0  0  0  0  0  0
    0.7329    0.9969   -2.5182 H   0  0  0  0  0  0  0  0  0  0  0  0
   -2.8312    0.7750   -1.2042 H   0  0  0  0  0  0  0  0  0  0  0  0
   -2.0810    1.3764    0.4026 H   0  0  0  0  0  0  0  0  0  0  0  0
   -1.8943   -1.4058   -0.8314 H   0  0  0  0  0  0  0  0  0  0  0  0
   -2.5121   -0.9788    0.8818 H   0  0  0  0  0  0  0  0  0  0  0  0
   -0.5480    0.4826    1.2535 H   0  0  0  0  0  0  0  0  0  0  0  0
    0.6920   -2.1003    0.1627 H   0  0  0  0  0  0  0  0  0  0  0  0
    3.1672    0.6850    0.3408 H   0  0  0  0  0  0  0  0  0  0  0  0
    1.5138    1.4845    0.5580 H   0  0  0  0  0  0  0  0  0  0  0  0
    2.2596   -0.8200   -1.3778 H   0  0  0  0  0  0  0  0  0  0  0  0
  1  2  2  0
  2  3  1  0
  3  4  1  0
  4  5  1  0
  5  6  1  0
  6  7  1  0
  7  8  1  0
  8  9  1  0
  9  1  1  0
  5  2  1  0
  9  6  1  0
  1 10  1  0
  3 11  1  0
  3 12  1  0
  4 13  1  0
  4 14  1  0
  5 15  1  0
  6 16  1  0
  8 17  1  0
  8 18  1  0
  9 19  1  0
M  END
