
     RDKit          3D

 16 17  0  0  0  0  0  0  0  0999 V2000
   -2.0370    0.4501    0.0561 C   0  0  0  0  0  0  0  0  0  0  0  0
   -1.1019    1.3800    0.0018 C   0  0  0  0  0  0  0  0  0  0  0  0
    0.2305    0.7925   -0.1161 C   0  0  0  0  0  0  0  0  0  0  0  0
    1.5146    0.8657   -0.4051 C   0  0  0  0  0  0  0  0  0  0  0  0
    2.0933   -0.5036   -0.1532 C   0  0  0  0  0  0  0  0  0  0  0  0
    0.9499   -1.2969   -0.4508 O   0  0  0  0  0  0  0  0  0  0  0  0
    0.0249   -0.6305    0.3394 C   0  0  0  0  0  0  0  0  0  0  0  0
   -1.4134   -0.8752   -0.0215 C   0  0  0  0  0  0  0  0  0  0  0  0
   -3.1227    0.6129    0.1455 H   0  0  0  0  0  0  0  0  0  0  0  0
   -1.2291    2.4634    0.0344 H   0  0  0  0  0  0  0  0  0  0  0  0
    2.0019    1.7413   -0.7458 H   0  0  0  0  0  0  0  0  0  0  0  0
    2.2982   -0.6688    0.9203 H   0  0  0  0  0  0  0  0  0  0  0  0
    2.9309   -0.7299   -0.8238 H   0  0  0  0  0  0  0  0  0  0  0  0
    0.2524   -0.7577    1.4031 H   0  0  0  0  0  0  0  0  0  0  0  0
   -1.8521   -1.4893    0.8170 H   0  0  0  0  0  0  0  0  0  0  0  0
   -1.5404   -1.3541   -1.0013 H   0  0  0  0  0  0  0  0  0  0  0  0
  1  2  2  0
  2  3  1  0
  3  4  2  0
  4  5  1  0
  5  6  1  0
  6  7  1  0
  7  8  1  0
  8  1  1  0
  7  3  1  0
  1  9  1  0
  2 10  1  0
  4 11  1  0
  5 12  1  0
  5 13  1  0
  7 14  1  0
  8 15  1  0
  8 16  1  0
M  END
