
     RDKit          3D

 21 22  0  0  0  0  0  0  0  0999 V2000
   -0.9135    1.5307   -0.2085 C   0  0  0  0  0  0  0  0  0  0  0  0
    0.3998    1.5064   -0.0320 C   0  0  0  0  0  0  0  0  0  0  0  0
    1.2666    0.5315    0.6507 C   0  0  0  0  0  0  0  0  0  0  0  0
    2.3198   -0.1329   -0.1519 C   0  0  0  0  0  0  0  0  0  0  0  0
    1.9750   -1.3460    0.4697 O   0  0  0  0  0  0  0  0  0  0  0  0
    0.6731   -0.8539    0.6939 C   0  0  0  0  0  0  0  0  0  0  0  0
   -0.1844   -1.1715   -0.4868 C   0  0  0  0  0  0  0  0  0  0  0  0
   -1.6215   -0.8389   -0.3366 C   0  0  0  0  0  0  0  0  0  0  0  0
   -1.8880    0.5152    0.2708 C   0  0  0  0  0  0  0  0  0  0  0  0
   -1.3805    2.3453   -0.7472 H   0  0  0  0  0  0  0  0  0  0  0  0
    0.9431    2.3422   -0.4584 H   0  0  0  0  0  0  0  0  0  0  0  0
    1.6264    0.8493    1.6362 H   0  0  0  0  0  0  0  0  0  0  0  0
    3.3694    0.1772    0.0666 H   0  0  0  0  0  0  0  0  0  0  0  0
    2.1382   -0.0801   -1.2244 H   0  0  0  0  0  0  0  0  0  0  0  0
    0.2240   -1.1263    1.6459 H   0  0  0  0  0  0  0  0  0  0  0  0
    0.2067   -0.7167   -1.4174 H   0  0  0  0  0  0  0  0  0  0  0  0
   -0.1150   -2.2883   -0.6450 H   0  0  0  0  0  0  0  0  0  0  0  0
   -2.0818   -0.8268   -1.3645 H   0  0  0  0  0  0  0  0  0  0  0  0
   -2.1939   -1.5795    0.2554 H   0  0  0  0  0  0  0  0  0  0  0  0
   -1.8324    0.3791    1.3775 H   0  0  0  0  0  0  0  0  0  0  0  0
   -2.9314    0.7841    0.0058 H   0  0  0  0  0  0  0  0  0  0  0  0
  1  2  2  0
  2  3  1  0
  3  4  1  0
  4  5  1  0
  5  6  1  0
  6  7  1  0
  7  8  1  0
  8  9  1  0
  9  1  1  0
  6  3  1  0
  1 10  1  0
  2 11  1  0
  3 12  1  0
  4 13  1  0
  4 14  1  0
  6 15  1  0
  7 16  1  0
  7 17  1  0
  8 18  1  0
  8 19  1  0
  9 20  1  0
  9 21  1  0
M  END
