
     RDKit          3D

 21 22  0  0  0  0  0  0  0  0999 V2000
    1.4085    0.9987    0.2153 C   0  0  0  0  0  0  0  0  0  0  0  0
    0.2350    1.6187    0.2015 C   0  0  0  0  0  0  0  0  0  0  0  0
   -1.1408    1.3447   -0.3548 C   0  0  0  0  0  0  0  0  0  0  0  0
   -1.3259   -0.1549   -0.2679 C   0  0  0  0  0  0  0  0  0  0  0  0
   -2.0820   -0.7981    0.8068 C   0  0  0  0  0  0  0  0  0  0  0  0
   -0.6367   -0.6096    0.9606 C   0  0  0  0  0  0  0  0  0  0  0  0
    0.3010   -1.5897    0.7881 O   0  0  0  0  0  0  0  0  0  0  0  0
    1.1307   -1.4416   -0.2877 C   0  0  0  0  0  0  0  0  0  0  0  0
    1.9994   -0.2277   -0.2711 C   0  0  0  0  0  0  0  0  0  0  0  0
    2.1164    1.6120    0.7556 H   0  0  0  0  0  0  0  0  0  0  0  0
    0.2247    2.5748    0.7145 H   0  0  0  0  0  0  0  0  0  0  0  0
   -1.2363    1.7254   -1.3855 H   0  0  0  0  0  0  0  0  0  0  0  0
   -1.8923    1.8339    0.3107 H   0  0  0  0  0  0  0  0  0  0  0  0
   -1.1952   -0.6523   -1.2366 H   0  0  0  0  0  0  0  0  0  0  0  0
   -2.5179   -1.8046    0.5545 H   0  0  0  0  0  0  0  0  0  0  0  0
   -2.7886   -0.1963    1.4190 H   0  0  0  0  0  0  0  0  0  0  0  0
   -0.3366    0.1503    1.7346 H   0  0  0  0  0  0  0  0  0  0  0  0
    1.8345   -2.3308   -0.2606 H   0  0  0  0  0  0  0  0  0  0  0  0
    0.6243   -1.5669   -1.2796 H   0  0  0  0  0  0  0  0  0  0  0  0
    2.9487   -0.4312    0.2758 H   0  0  0  0  0  0  0  0  0  0  0  0
    2.3291   -0.0547   -1.3382 H   0  0  0  0  0  0  0  0  0  0  0  0
  1  2  2  3
  2  3  1  0
  3  4  1  0
  4  5  1  0
  5  6  1  0
  6  7  1  0
  7  8  1  0
  8  9  1  0
  9  1  1  0
  6  4  1  0
  1 10  1  0
  2 11  1  0
  3 12  1  0
  3 13  1  0
  4 14  1  0
  5 15  1  0
  5 16  1  0
  6 17  1  0
  8 18  1  0
  8 19  1  0
  9 20  1  0
  9 21  1  0
M  END
