
     RDKit          3D

 21 23  0  0  0  0  0  0  0  0999 V2000
    1.1295   -0.9560    0.9870 C   0  0  0  0  0  0  0  0  0  0  0  0
    0.9951   -1.4792   -0.2280 C   0  0  0  0  0  0  0  0  0  0  0  0
    0.5356   -0.3728   -1.1583 C   0  0  0  0  0  0  0  0  0  0  0  0
    1.3532    0.7511   -0.5035 C   0  0  0  0  0  0  0  0  0  0  0  0
    0.8239    0.5122    0.9146 C   0  0  0  0  0  0  0  0  0  0  0  0
   -0.6907    0.6099    0.9572 C   0  0  0  0  0  0  0  0  0  0  0  0
   -1.2461    1.2045   -0.3300 C   0  0  0  0  0  0  0  0  0  0  0  0
   -0.9198   -0.1267   -0.9539 C   0  0  0  0  0  0  0  0  0  0  0  0
   -1.3052   -0.6976    0.4217 C   0  0  0  0  0  0  0  0  0  0  0  0
    1.4079   -1.4506    1.9054 H   0  0  0  0  0  0  0  0  0  0  0  0
    1.1809   -2.4948   -0.4843 H   0  0  0  0  0  0  0  0  0  0  0  0
    0.8458   -0.5652   -2.1821 H   0  0  0  0  0  0  0  0  0  0  0  0
    1.1899    1.7240   -0.8998 H   0  0  0  0  0  0  0  0  0  0  0  0
    2.4235    0.5076   -0.4983 H   0  0  0  0  0  0  0  0  0  0  0  0
    1.3305    1.1006    1.6652 H   0  0  0  0  0  0  0  0  0  0  0  0
   -1.1297    0.9694    1.8818 H   0  0  0  0  0  0  0  0  0  0  0  0
   -2.3440    1.3177   -0.2528 H   0  0  0  0  0  0  0  0  0  0  0  0
   -0.7941    2.0967   -0.7128 H   0  0  0  0  0  0  0  0  0  0  0  0
   -1.5981   -0.4051   -1.7658 H   0  0  0  0  0  0  0  0  0  0  0  0
   -2.3942   -0.6416    0.5219 H   0  0  0  0  0  0  0  0  0  0  0  0
   -0.7938   -1.6041    0.7149 H   0  0  0  0  0  0  0  0  0  0  0  0
  1  2  2  0
  2  3  1  0
  3  4  1  0
  4  5  1  0
  5  6  1  0
  6  7  1  0
  7  8  1  0
  8  9  1  0
  5  1  1  0
  9  6  1  0
  8  3  1  0
  1 10  1  0
  2 11  1  0
  3 12  1  0
  4 13  1  0
  4 14  1  0
  5 15  1  0
  6 16  1  0
  7 17  1  0
  7 18  1  0
  8 19  1  0
  9 20  1  0
  9 21  1  0
M  END
