
     RDKit          3D

 17 19  0  0  0  0  0  0  0  0999 V2000
   -0.9067    1.6646    0.2550 C   0  0  0  0  0  0  0  0  0  0  0  0
    0.3802    1.4782    0.5149 C   0  0  0  0  0  0  0  0  0  0  0  0
    0.8280    0.1836   -0.1180 C   0  0  0  0  0  0  0  0  0  0  0  0
    2.1030   -0.3004   -0.0036 C   0  0  0  0  0  0  0  0  0  0  0  0
    1.6442    0.3232   -1.2208 O   0  0  0  0  0  0  0  0  0  0  0  0
   -0.4615   -0.5526   -0.1872 C   0  0  0  0  0  0  0  0  0  0  0  0
   -1.4275    0.5368   -0.5577 C   0  0  0  0  0  0  0  0  0  0  0  0
   -0.7264   -1.8761    0.0694 C   0  0  0  0  0  0  0  0  0  0  0  0
   -0.8193   -1.0188    1.1824 O   0  0  0  0  0  0  0  0  0  0  0  0
   -1.4930    2.5056    0.5812 H   0  0  0  0  0  0  0  0  0  0  0  0
    1.0194    2.1219    1.0770 H   0  0  0  0  0  0  0  0  0  0  0  0
    2.9305    0.2512    0.5034 H   0  0  0  0  0  0  0  0  0  0  0  0
    2.3709   -1.3635   -0.1803 H   0  0  0  0  0  0  0  0  0  0  0  0
   -2.4422    0.2204   -0.2677 H   0  0  0  0  0  0  0  0  0  0  0  0
   -1.3825    0.7817   -1.6369 H   0  0  0  0  0  0  0  0  0  0  0  0
    0.0835   -2.6173    0.1677 H   0  0  0  0  0  0  0  0  0  0  0  0
   -1.7008   -2.3386   -0.1788 H   0  0  0  0  0  0  0  0  0  0  0  0
  1  2  2  0
  2  3  1  0
  3  4  1  0
  4  5  1  0
  3  6  1  0
  6  7  1  0
  6  8  1  0
  8  9  1  0
  7  1  1  0
  5  3  1  0
  9  6  1  0
  1 10  1  0
  2 11  1  0
  4 12  1  0
  4 13  1  0
  7 14  1  0
  7 15  1  0
  8 16  1  0
  8 17  1  0
M  END
