
     RDKit          3D

 18 18  0  0  0  0  0  0  0  0999 V2000
    0.9401    1.5693   -0.2195 C   0  0  0  0  0  0  0  0  0  0  0  0
    1.7576    0.5697    0.0345 C   0  0  0  0  0  0  0  0  0  0  0  0
    1.5529   -0.7852    0.6028 C   0  0  0  0  0  0  0  0  0  0  0  0
    0.5532   -1.5704   -0.1349 C   0  0  0  0  0  0  0  0  0  0  0  0
   -0.7553   -1.4075   -0.3514 C   0  0  0  0  0  0  0  0  0  0  0  0
   -1.8382   -0.4954   -0.0416 C   0  0  0  0  0  0  0  0  0  0  0  0
   -1.4969    0.9289    0.0005 C   0  0  0  0  0  0  0  0  0  0  0  0
   -0.4854    1.7787   -0.0589 C   0  0  0  0  0  0  0  0  0  0  0  0
    1.4216    2.4376   -0.6434 H   0  0  0  0  0  0  0  0  0  0  0  0
    2.7667    0.8266   -0.2387 H   0  0  0  0  0  0  0  0  0  0  0  0
    2.5396   -1.3131    0.4970 H   0  0  0  0  0  0  0  0  0  0  0  0
    1.3677   -0.7469    1.7034 H   0  0  0  0  0  0  0  0  0  0  0  0
    0.9330   -2.4847   -0.6175 H   0  0  0  0  0  0  0  0  0  0  0  0
   -1.1341   -2.2441   -0.9688 H   0  0  0  0  0  0  0  0  0  0  0  0
   -2.2237   -0.7605    0.9881 H   0  0  0  0  0  0  0  0  0  0  0  0
   -2.7079   -0.6542   -0.7097 H   0  0  0  0  0  0  0  0  0  0  0  0
   -2.4164    1.5126    0.1287 H   0  0  0  0  0  0  0  0  0  0  0  0
   -0.7745    2.8385    0.0293 H   0  0  0  0  0  0  0  0  0  0  0  0
  1  2  2  3
  2  3  1  0
  3  4  1  0
  4  5  2  3
  5  6  1  0
  6  7  1  0
  7  8  2  3
  8  1  1  0
  1  9  1  0
  2 10  1  0
  3 11  1  0
  3 12  1  0
  4 13  1  0
  5 14  1  0
  6 15  1  0
  6 16  1  0
  7 17  1  0
  8 18  1  0
M  END
