
     RDKit          3D

 19 21  0  0  0  0  0  0  0  0999 V2000
   -1.7844   -0.8849    0.4408 C   0  0  0  0  0  0  0  0  0  0  0  0
   -1.0406   -1.2169   -0.5855 C   0  0  0  0  0  0  0  0  0  0  0  0
    0.0028   -0.2731   -0.9436 C   0  0  0  0  0  0  0  0  0  0  0  0
    1.3977   -0.7322   -0.9846 C   0  0  0  0  0  0  0  0  0  0  0  0
    2.0435   -0.3032    0.0694 C   0  0  0  0  0  0  0  0  0  0  0  0
    1.1907    0.4861    0.9462 C   0  0  0  0  0  0  0  0  0  0  0  0
   -0.0716    0.7061    0.2373 C   0  0  0  0  0  0  0  0  0  0  0  0
   -1.3303    0.4131    0.9646 C   0  0  0  0  0  0  0  0  0  0  0  0
   -0.2036    1.1730   -1.1512 C   0  0  0  0  0  0  0  0  0  0  0  0
   -2.6236   -1.4289    0.8945 H   0  0  0  0  0  0  0  0  0  0  0  0
   -1.2118   -2.1632   -1.1340 H   0  0  0  0  0  0  0  0  0  0  0  0
    1.7583   -1.3428   -1.8180 H   0  0  0  0  0  0  0  0  0  0  0  0
    3.1179   -0.5535    0.2097 H   0  0  0  0  0  0  0  0  0  0  0  0
    0.9840   -0.1579    1.8573 H   0  0  0  0  0  0  0  0  0  0  0  0
    1.6726    1.4389    1.2894 H   0  0  0  0  0  0  0  0  0  0  0  0
   -1.2058    0.3985    2.0736 H   0  0  0  0  0  0  0  0  0  0  0  0
   -2.1272    1.1652    0.6781 H   0  0  0  0  0  0  0  0  0  0  0  0
    0.6252    1.7416   -1.5859 H   0  0  0  0  0  0  0  0  0  0  0  0
   -1.1937    1.5341   -1.4579 H   0  0  0  0  0  0  0  0  0  0  0  0
  1  2  2  0
  2  3  1  0
  3  4  1  0
  4  5  2  0
  5  6  1  0
  6  7  1  0
  7  8  1  0
  7  9  1  0
  8  1  1  0
  7  3  1  0
  9  3  1  0
  1 10  1  0
  2 11  1  0
  4 12  1  0
  5 13  1  0
  6 14  1  0
  6 15  1  0
  8 16  1  0
  8 17  1  0
  9 18  1  0
  9 19  1  0
M  END
