
     RDKit          3D

 23 24  0  0  0  0  0  0  0  0999 V2000
    2.5018    0.0820   -0.0392 C   0  0  0  0  0  0  0  0  0  0  0  0
    1.8201    1.1749   -0.3432 C   0  0  0  0  0  0  0  0  0  0  0  0
    0.3946    1.1231   -0.6801 C   0  0  0  0  0  0  0  0  0  0  0  0
   -0.3640    0.0588    0.0341 C   0  0  0  0  0  0  0  0  0  0  0  0
    0.4729   -1.0257    0.6357 C   0  0  0  0  0  0  0  0  0  0  0  0
    1.7853   -1.2212   -0.0451 C   0  0  0  0  0  0  0  0  0  0  0  0
   -1.5101   -0.4527   -0.8399 C   0  0  0  0  0  0  0  0  0  0  0  0
   -2.4698    0.1180    0.1472 C   0  0  0  0  0  0  0  0  0  0  0  0
   -1.3615    0.5659    1.0685 C   0  0  0  0  0  0  0  0  0  0  0  0
    3.5507    0.1881    0.2000 H   0  0  0  0  0  0  0  0  0  0  0  0
    2.3282    2.1272   -0.3426 H   0  0  0  0  0  0  0  0  0  0  0  0
   -0.0663    2.1311   -0.5514 H   0  0  0  0  0  0  0  0  0  0  0  0
    0.3285    0.9044   -1.7814 H   0  0  0  0  0  0  0  0  0  0  0  0
    0.6756   -0.7957    1.7190 H   0  0  0  0  0  0  0  0  0  0  0  0
   -0.1222   -1.9621    0.6119 H   0  0  0  0  0  0  0  0  0  0  0  0
    2.3451   -2.0160    0.4644 H   0  0  0  0  0  0  0  0  0  0  0  0
    1.6075   -1.4987   -1.0956 H   0  0  0  0  0  0  0  0  0  0  0  0
   -1.5912    0.0636   -1.8240 H   0  0  0  0  0  0  0  0  0  0  0  0
   -1.5206   -1.5435   -0.9881 H   0  0  0  0  0  0  0  0  0  0  0  0
   -3.1145   -0.6978    0.5711 H   0  0  0  0  0  0  0  0  0  0  0  0
   -3.0345    1.0030   -0.2051 H   0  0  0  0  0  0  0  0  0  0  0  0
   -1.3059    1.6536    1.2510 H   0  0  0  0  0  0  0  0  0  0  0  0
   -1.3497    0.0198    2.0329 H   0  0  0  0  0  0  0  0  0  0  0  0
  1  2  2  0
  2  3  1  0
  3  4  1  0
  4  5  1  0
  5  6  1  0
  4  7  1  0
  7  8  1  0
  8  9  1  0
  6  1  1  0
  9  4  1  0
  1 10  1  0
  2 11  1  0
  3 12  1  0
  3 13  1  0
  5 14  1  0
  5 15  1  0
  6 16  1  0
  6 17  1  0
  7 18  1  0
  7 19  1  0
  8 20  1  0
  8 21  1  0
  9 22  1  0
  9 23  1  0
M  END
