
     RDKit          3D

 19 21  0  0  0  0  0  0  0  0999 V2000
   -1.2360    1.3364    0.3448 C   0  0  0  0  0  0  0  0  0  0  0  0
   -1.3171    0.3559    1.2731 C   0  0  0  0  0  0  0  0  0  0  0  0
   -0.6234   -0.7927    0.5758 C   0  0  0  0  0  0  0  0  0  0  0  0
   -1.3357   -0.6652   -0.7860 C   0  0  0  0  0  0  0  0  0  0  0  0
   -0.5476    0.6590   -0.7833 C   0  0  0  0  0  0  0  0  0  0  0  0
    0.4918   -0.1238   -0.0761 C   0  0  0  0  0  0  0  0  0  0  0  0
    1.5733    0.5246    0.6385 C   0  0  0  0  0  0  0  0  0  0  0  0
    2.3918    0.3042   -0.4980 O   0  0  0  0  0  0  0  0  0  0  0  0
    1.5525   -0.8000   -0.7824 C   0  0  0  0  0  0  0  0  0  0  0  0
   -1.5965    2.3498    0.4412 H   0  0  0  0  0  0  0  0  0  0  0  0
   -1.7587    0.3846    2.2508 H   0  0  0  0  0  0  0  0  0  0  0  0
   -0.6025   -1.7325    1.0388 H   0  0  0  0  0  0  0  0  0  0  0  0
   -2.3996   -0.4653   -0.6452 H   0  0  0  0  0  0  0  0  0  0  0  0
   -1.0198   -1.3786   -1.5355 H   0  0  0  0  0  0  0  0  0  0  0  0
   -0.3898    1.1446   -1.6966 H   0  0  0  0  0  0  0  0  0  0  0  0
    1.3934    1.6190    0.8102 H   0  0  0  0  0  0  0  0  0  0  0  0
    2.0024   -0.0218    1.4935 H   0  0  0  0  0  0  0  0  0  0  0  0
    1.4506   -1.0241   -1.8545 H   0  0  0  0  0  0  0  0  0  0  0  0
    1.9708   -1.6740   -0.2091 H   0  0  0  0  0  0  0  0  0  0  0  0
  1  2  2  0
  2  3  1  0
  3  4  1  0
  4  5  1  0
  5  6  1  0
  6  7  1  0
  7  8  1  0
  8  9  1  0
  5  1  1  0
  9  6  1  0
  6  3  1  0
  1 10  1  0
  2 11  1  0
  3 12  1  0
  4 13  1  0
  4 14  1  0
  5 15  1  0
  7 16  1  0
  7 17  1  0
  9 18  1  0
  9 19  1  0
M  END
