
     RDKit          3D

 16 17  0  0  0  0  0  0  0  0999 V2000
    0.5618    1.3634   -0.1553 C   0  0  0  0  0  0  0  0  0  0  0  0
   -0.6112    0.7818   -0.0259 C   0  0  0  0  0  0  0  0  0  0  0  0
   -2.0529    0.5600    0.0612 C   0  0  0  0  0  0  0  0  0  0  0  0
   -1.7878   -0.7173   -0.5160 O   0  0  0  0  0  0  0  0  0  0  0  0
   -0.6282   -0.7134    0.2264 C   0  0  0  0  0  0  0  0  0  0  0  0
    0.5771   -1.4006   -0.2771 C   0  0  0  0  0  0  0  0  0  0  0  0
    1.4674   -0.5908   -0.9278 O   0  0  0  0  0  0  0  0  0  0  0  0
    1.8086    0.4912   -0.0780 C   0  0  0  0  0  0  0  0  0  0  0  0
    0.6449    2.4229   -0.3113 H   0  0  0  0  0  0  0  0  0  0  0  0
   -2.6895    1.1913   -0.5896 H   0  0  0  0  0  0  0  0  0  0  0  0
   -2.4093    0.4128    1.0978 H   0  0  0  0  0  0  0  0  0  0  0  0
   -0.8706   -0.8403    1.3035 H   0  0  0  0  0  0  0  0  0  0  0  0
    1.1266   -1.7993    0.6294 H   0  0  0  0  0  0  0  0  0  0  0  0
    0.2691   -2.2891   -0.8693 H   0  0  0  0  0  0  0  0  0  0  0  0
    2.6712    0.9880   -0.5175 H   0  0  0  0  0  0  0  0  0  0  0  0
    1.9227    0.1396    0.9495 H   0  0  0  0  0  0  0  0  0  0  0  0
  1  2  2  0
  2  3  1  0
  3  4  1  0
  4  5  1  0
  5  6  1  0
  6  7  1  0
  7  8  1  0
  8  1  1  0
  5  2  1  0
  1  9  1  0
  3 10  1  0
  3 11  1  0
  5 12  1  0
  6 13  1  0
  6 14  1  0
  8 15  1  0
  8 16  1  0
M  END
