
     RDKit          3D

 19 21  0  0  0  0  0  0  0  0999 V2000
    1.0069    1.3022    0.3214 C   0  0  0  0  0  0  0  0  0  0  0  0
   -0.2481    1.0201    0.2346 C   0  0  0  0  0  0  0  0  0  0  0  0
   -1.6799    1.1729    0.5213 C   0  0  0  0  0  0  0  0  0  0  0  0
   -1.9338   -0.1934    0.9130 O   0  0  0  0  0  0  0  0  0  0  0  0
   -1.1608   -1.0158    0.1156 C   0  0  0  0  0  0  0  0  0  0  0  0
    0.2501   -1.3404    0.6645 C   0  0  0  0  0  0  0  0  0  0  0  0
    0.8712   -0.8656   -0.6471 C   0  0  0  0  0  0  0  0  0  0  0  0
    1.8158    0.3342   -0.5327 C   0  0  0  0  0  0  0  0  0  0  0  0
   -0.4155   -0.1084   -0.8382 C   0  0  0  0  0  0  0  0  0  0  0  0
    1.4790    2.0874    0.8916 H   0  0  0  0  0  0  0  0  0  0  0  0
   -2.2556    1.3642   -0.3777 H   0  0  0  0  0  0  0  0  0  0  0  0
   -1.8890    1.8183    1.3880 H   0  0  0  0  0  0  0  0  0  0  0  0
   -1.6979   -1.8371   -0.3286 H   0  0  0  0  0  0  0  0  0  0  0  0
    0.3020   -2.4349    0.8292 H   0  0  0  0  0  0  0  0  0  0  0  0
    0.4862   -0.6968    1.5300 H   0  0  0  0  0  0  0  0  0  0  0  0
    1.1275   -1.6330   -1.3612 H   0  0  0  0  0  0  0  0  0  0  0  0
    2.7496    0.0980   -0.0327 H   0  0  0  0  0  0  0  0  0  0  0  0
    1.9843    0.7487   -1.5316 H   0  0  0  0  0  0  0  0  0  0  0  0
   -0.7920    0.1795   -1.7596 H   0  0  0  0  0  0  0  0  0  0  0  0
  1  2  2  0
  2  3  1  0
  3  4  1  0
  4  5  1  0
  5  6  1  0
  6  7  1  0
  7  8  1  0
  7  9  1  0
  8  1  1  0
  9  2  1  0
  9  5  1  0
  1 10  1  0
  3 11  1  0
  3 12  1  0
  5 13  1  0
  6 14  1  0
  6 15  1  0
  7 16  1  0
  8 17  1  0
  8 18  1  0
  9 19  1  0
M  END
