
     RDKit          3D

 19 21  0  0  0  0  0  0  0  0999 V2000
    1.3157    0.9886    0.1552 C   0  0  0  0  0  0  0  0  0  0  0  0
    0.2350    1.7389    0.3518 C   0  0  0  0  0  0  0  0  0  0  0  0
   -1.0626    1.0248    0.5132 C   0  0  0  0  0  0  0  0  0  0  0  0
   -1.0007    0.1247    1.5987 O   0  0  0  0  0  0  0  0  0  0  0  0
   -0.7594   -0.9696    0.8046 C   0  0  0  0  0  0  0  0  0  0  0  0
    0.6642   -1.3311    0.5428 C   0  0  0  0  0  0  0  0  0  0  0  0
    1.1303   -0.3423   -0.4786 C   0  0  0  0  0  0  0  0  0  0  0  0
   -0.0950   -0.2161   -1.3868 C   0  0  0  0  0  0  0  0  0  0  0  0
   -1.2062   -0.1562   -0.3887 C   0  0  0  0  0  0  0  0  0  0  0  0
    2.2937    1.3686    0.4615 H   0  0  0  0  0  0  0  0  0  0  0  0
    0.3080    2.8388    0.3918 H   0  0  0  0  0  0  0  0  0  0  0  0
   -1.9592    1.6675    0.5583 H   0  0  0  0  0  0  0  0  0  0  0  0
   -1.4122   -1.8204    1.0754 H   0  0  0  0  0  0  0  0  0  0  0  0
    1.2450   -1.2814    1.4668 H   0  0  0  0  0  0  0  0  0  0  0  0
    0.6867   -2.3359    0.0735 H   0  0  0  0  0  0  0  0  0  0  0  0
    2.0244   -0.6661   -1.0377 H   0  0  0  0  0  0  0  0  0  0  0  0
   -0.0077    0.7916   -1.8549 H   0  0  0  0  0  0  0  0  0  0  0  0
   -0.1814   -1.0371   -2.0950 H   0  0  0  0  0  0  0  0  0  0  0  0
   -2.2186   -0.3872   -0.7518 H   0  0  0  0  0  0  0  0  0  0  0  0
  1  2  2  0
  2  3  1  0
  3  4  1  0
  4  5  1  0
  5  6  1  0
  6  7  1  0
  7  8  1  0
  8  9  1  0
  7  1  1  0
  9  3  1  0
  9  5  1  0
  1 10  1  0
  2 11  1  0
  3 12  1  0
  5 13  1  0
  6 14  1  0
  6 15  1  0
  7 16  1  0
  8 17  1  0
  8 18  1  0
  9 19  1  0
M  END
