
     RDKit          3D

 20 20  0  0  0  0  0  0  0  0999 V2000
    1.7854    0.3544    0.6831 C   0  0  0  0  0  0  0  0  0  0  0  0
    1.4917   -0.8755    0.2891 C   0  0  0  0  0  0  0  0  0  0  0  0
    0.5050   -1.5875   -0.5188 C   0  0  0  0  0  0  0  0  0  0  0  0
   -0.9151   -1.3839   -0.1730 C   0  0  0  0  0  0  0  0  0  0  0  0
   -1.3032   -0.0738    0.3981 C   0  0  0  0  0  0  0  0  0  0  0  0
   -1.2128    1.0696   -0.5661 C   0  0  0  0  0  0  0  0  0  0  0  0
   -0.0987    1.9444   -0.1109 C   0  0  0  0  0  0  0  0  0  0  0  0
    1.0968    1.6333    0.3873 C   0  0  0  0  0  0  0  0  0  0  0  0
    2.6506    0.4654    1.3136 H   0  0  0  0  0  0  0  0  0  0  0  0
    2.2264   -1.5471    0.7091 H   0  0  0  0  0  0  0  0  0  0  0  0
    0.6778   -1.3570   -1.6139 H   0  0  0  0  0  0  0  0  0  0  0  0
    0.7004   -2.6999   -0.4706 H   0  0  0  0  0  0  0  0  0  0  0  0
   -1.5233   -1.5288   -1.1121 H   0  0  0  0  0  0  0  0  0  0  0  0
   -1.3110   -2.1839    0.5195 H   0  0  0  0  0  0  0  0  0  0  0  0
   -2.3840   -0.1522    0.7006 H   0  0  0  0  0  0  0  0  0  0  0  0
   -0.7704    0.1459    1.3645 H   0  0  0  0  0  0  0  0  0  0  0  0
   -2.1572    1.6290   -0.6814 H   0  0  0  0  0  0  0  0  0  0  0  0
   -0.8732    0.6417   -1.5523 H   0  0  0  0  0  0  0  0  0  0  0  0
   -0.2836    3.0076   -0.1960 H   0  0  0  0  0  0  0  0  0  0  0  0
    1.6986    2.4982    0.6301 H   0  0  0  0  0  0  0  0  0  0  0  0
  1  2  2  3
  2  3  1  0
  3  4  1  0
  4  5  1  0
  5  6  1  0
  6  7  1  0
  7  8  2  3
  8  1  1  0
  1  9  1  0
  2 10  1  0
  3 11  1  0
  3 12  1  0
  4 13  1  0
  4 14  1  0
  5 15  1  0
  5 16  1  0
  6 17  1  0
  6 18  1  0
  7 19  1  0
  8 20  1  0
M  END
