
     RDKit          3D

 23 24  0  0  0  0  0  0  0  0999 V2000
   -1.7557   -0.5636    0.5713 C   0  0  0  0  0  0  0  0  0  0  0  0
   -1.7106    0.7588    0.5287 C   0  0  0  0  0  0  0  0  0  0  0  0
   -1.0663    1.5822   -0.5280 C   0  0  0  0  0  0  0  0  0  0  0  0
    0.3642    1.1910   -0.7498 C   0  0  0  0  0  0  0  0  0  0  0  0
    0.7992   -0.0330   -0.0393 C   0  0  0  0  0  0  0  0  0  0  0  0
    0.2671   -1.3173   -0.5819 C   0  0  0  0  0  0  0  0  0  0  0  0
   -1.1881   -1.5381   -0.4016 C   0  0  0  0  0  0  0  0  0  0  0  0
    1.2999    0.0333    1.3675 C   0  0  0  0  0  0  0  0  0  0  0  0
    2.3121   -0.0765    0.2341 C   0  0  0  0  0  0  0  0  0  0  0  0
   -2.2810   -0.9654    1.4393 H   0  0  0  0  0  0  0  0  0  0  0  0
   -2.1935    1.3057    1.3495 H   0  0  0  0  0  0  0  0  0  0  0  0
   -1.1929    2.6659   -0.3236 H   0  0  0  0  0  0  0  0  0  0  0  0
   -1.6166    1.3770   -1.4690 H   0  0  0  0  0  0  0  0  0  0  0  0
    0.5941    1.1637   -1.8530 H   0  0  0  0  0  0  0  0  0  0  0  0
    0.9892    2.0391   -0.3642 H   0  0  0  0  0  0  0  0  0  0  0  0
    0.5791   -1.4865   -1.6536 H   0  0  0  0  0  0  0  0  0  0  0  0
    0.8020   -2.1412   -0.0207 H   0  0  0  0  0  0  0  0  0  0  0  0
   -1.6859   -1.3321   -1.3929 H   0  0  0  0  0  0  0  0  0  0  0  0
   -1.4768   -2.5654   -0.1149 H   0  0  0  0  0  0  0  0  0  0  0  0
    1.1969   -0.9263    1.9281 H   0  0  0  0  0  0  0  0  0  0  0  0
    1.2134    0.9898    1.9117 H   0  0  0  0  0  0  0  0  0  0  0  0
    2.8546   -1.0040    0.0760 H   0  0  0  0  0  0  0  0  0  0  0  0
    2.8955    0.8428    0.0863 H   0  0  0  0  0  0  0  0  0  0  0  0
  1  2  2  0
  2  3  1  0
  3  4  1  0
  4  5  1  0
  5  6  1  0
  6  7  1  0
  5  8  1  0
  8  9  1  0
  7  1  1  0
  9  5  1  0
  1 10  1  0
  2 11  1  0
  3 12  1  0
  3 13  1  0
  4 14  1  0
  4 15  1  0
  6 16  1  0
  6 17  1  0
  7 18  1  0
  7 19  1  0
  8 20  1  0
  8 21  1  0
  9 22  1  0
  9 23  1  0
M  END
