
     RDKit          3D

 21 22  0  0  0  0  0  0  0  0999 V2000
    1.2506   -1.1754    0.8014 C   0  0  0  0  0  0  0  0  0  0  0  0
   -0.0088   -1.4103    0.5730 C   0  0  0  0  0  0  0  0  0  0  0  0
   -0.9455   -0.6850   -0.2943 C   0  0  0  0  0  0  0  0  0  0  0  0
   -2.2789   -0.3779    0.3905 C   0  0  0  0  0  0  0  0  0  0  0  0
   -2.1623    0.9898   -0.2076 C   0  0  0  0  0  0  0  0  0  0  0  0
   -0.7101    0.7585   -0.4055 C   0  0  0  0  0  0  0  0  0  0  0  0
    0.4905    1.3180   -0.6110 C   0  0  0  0  0  0  0  0  0  0  0  0
    1.8204    0.7011   -0.7728 C   0  0  0  0  0  0  0  0  0  0  0  0
    2.2064   -0.1915    0.3505 C   0  0  0  0  0  0  0  0  0  0  0  0
    1.6806   -1.9104    1.5101 H   0  0  0  0  0  0  0  0  0  0  0  0
   -0.4734   -2.2776    1.0937 H   0  0  0  0  0  0  0  0  0  0  0  0
   -1.1641   -1.1789   -1.2773 H   0  0  0  0  0  0  0  0  0  0  0  0
   -3.1060   -1.0107    0.0449 H   0  0  0  0  0  0  0  0  0  0  0  0
   -2.1660   -0.3182    1.5046 H   0  0  0  0  0  0  0  0  0  0  0  0
   -2.7442    1.1593   -1.1403 H   0  0  0  0  0  0  0  0  0  0  0  0
   -2.3260    1.8120    0.5211 H   0  0  0  0  0  0  0  0  0  0  0  0
    0.4439    2.3942   -0.6616 H   0  0  0  0  0  0  0  0  0  0  0  0
    2.5760    1.5157   -0.8312 H   0  0  0  0  0  0  0  0  0  0  0  0
    1.8709    0.1918   -1.7652 H   0  0  0  0  0  0  0  0  0  0  0  0
    2.6246    0.4548    1.1806 H   0  0  0  0  0  0  0  0  0  0  0  0
    3.1213   -0.7593   -0.0036 H   0  0  0  0  0  0  0  0  0  0  0  0
  1  2  2  0
  2  3  1  0
  3  4  1  0
  4  5  1  0
  5  6  1  0
  6  7  2  0
  7  8  1  0
  8  9  1  0
  9  1  1  0
  6  3  1  0
  1 10  1  0
  2 11  1  0
  3 12  1  0
  4 13  1  0
  4 14  1  0
  5 15  1  0
  5 16  1  0
  7 17  1  0
  8 18  1  0
  8 19  1  0
  9 20  1  0
  9 21  1  0
M  END
