
     RDKit          3D

 21 22  0  0  0  0  0  0  0  0999 V2000
    2.2030    0.3001    0.0797 C   0  0  0  0  0  0  0  0  0  0  0  0
    1.9614   -0.9861   -0.1437 C   0  0  0  0  0  0  0  0  0  0  0  0
    0.5838   -1.5647   -0.2235 C   0  0  0  0  0  0  0  0  0  0  0  0
   -0.3496   -0.5585    0.3584 C   0  0  0  0  0  0  0  0  0  0  0  0
   -1.8085   -0.7743   -0.0027 C   0  0  0  0  0  0  0  0  0  0  0  0
   -2.3249    0.6458    0.0503 C   0  0  0  0  0  0  0  0  0  0  0  0
   -1.3310    1.4955   -0.1578 C   0  0  0  0  0  0  0  0  0  0  0  0
   -0.1021    0.7502   -0.3638 C   0  0  0  0  0  0  0  0  0  0  0  0
    1.1382    1.3252    0.2784 C   0  0  0  0  0  0  0  0  0  0  0  0
    3.2509    0.5874    0.1134 H   0  0  0  0  0  0  0  0  0  0  0  0
    2.7808   -1.7098   -0.2851 H   0  0  0  0  0  0  0  0  0  0  0  0
    0.2903   -1.7403   -1.2871 H   0  0  0  0  0  0  0  0  0  0  0  0
    0.5332   -2.5106    0.3758 H   0  0  0  0  0  0  0  0  0  0  0  0
   -0.2053   -0.4331    1.4398 H   0  0  0  0  0  0  0  0  0  0  0  0
   -1.9108   -1.2182   -0.9921 H   0  0  0  0  0  0  0  0  0  0  0  0
   -2.2557   -1.3587    0.8253 H   0  0  0  0  0  0  0  0  0  0  0  0
   -3.3881    0.8787    0.2392 H   0  0  0  0  0  0  0  0  0  0  0  0
   -1.5292    2.5736   -0.1520 H   0  0  0  0  0  0  0  0  0  0  0  0
    0.1177    0.5519   -1.4371 H   0  0  0  0  0  0  0  0  0  0  0  0
    1.4116    2.3141   -0.0992 H   0  0  0  0  0  0  0  0  0  0  0  0
    0.9345    1.4317    1.3840 H   0  0  0  0  0  0  0  0  0  0  0  0
  1  2  2  0
  2  3  1  0
  3  4  1  0
  4  5  1  0
  5  6  1  0
  6  7  2  0
  7  8  1  0
  8  9  1  0
  9  1  1  0
  8  4  1  0
  1 10  1  0
  2 11  1  0
  3 12  1  0
  3 13  1  0
  4 14  1  0
  5 15  1  0
  5 16  1  0
  6 17  1  0
  7 18  1  0
  8 19  1  0
  9 20  1  0
  9 21  1  0
M  END
