
     RDKit          3D

 17 19  0  0  0  0  0  0  0  0999 V2000
    1.6649   -0.1235   -0.5759 C   0  0  0  0  0  0  0  0  0  0  0  0
    1.1719    1.0484   -0.1851 C   0  0  0  0  0  0  0  0  0  0  0  0
    0.0506    1.1332    0.8010 C   0  0  0  0  0  0  0  0  0  0  0  0
    0.0435   -0.0961    1.4809 O   0  0  0  0  0  0  0  0  0  0  0  0
   -0.3469   -0.9845    0.4780 C   0  0  0  0  0  0  0  0  0  0  0  0
    0.7637   -1.3180   -0.4593 C   0  0  0  0  0  0  0  0  0  0  0  0
   -1.5013   -0.3309   -0.2309 C   0  0  0  0  0  0  0  0  0  0  0  0
   -1.2937    0.6563   -1.1610 O   0  0  0  0  0  0  0  0  0  0  0  0
   -1.2740    1.1327    0.1189 C   0  0  0  0  0  0  0  0  0  0  0  0
    2.6897   -0.2223   -0.9696 H   0  0  0  0  0  0  0  0  0  0  0  0
    1.6178    1.9446   -0.6122 H   0  0  0  0  0  0  0  0  0  0  0  0
    0.1860    1.9758    1.5050 H   0  0  0  0  0  0  0  0  0  0  0  0
   -0.7572   -1.8901    1.0024 H   0  0  0  0  0  0  0  0  0  0  0  0
    0.3477   -1.5724   -1.4775 H   0  0  0  0  0  0  0  0  0  0  0  0
    1.2991   -2.2066   -0.0995 H   0  0  0  0  0  0  0  0  0  0  0  0
   -2.5030   -0.7502   -0.1964 H   0  0  0  0  0  0  0  0  0  0  0  0
   -2.1588    1.6035    0.5813 H   0  0  0  0  0  0  0  0  0  0  0  0
  1  2  2  0
  2  3  1  0
  3  4  1  0
  4  5  1  0
  5  6  1  0
  5  7  1  0
  7  8  1  0
  8  9  1  0
  6  1  1  0
  9  7  1  0
  9  3  1  0
  1 10  1  0
  2 11  1  0
  3 12  1  0
  5 13  1  0
  6 14  1  0
  6 15  1  0
  7 16  1  0
  9 17  1  0
M  END
