
     RDKit          3D

 21 23  0  0  0  0  0  0  0  0999 V2000
    1.8029    1.2991    0.5026 C   0  0  0  0  0  0  0  0  0  0  0  0
    0.8472    1.7560   -0.2673 C   0  0  0  0  0  0  0  0  0  0  0  0
    0.0429    0.6280   -0.8564 C   0  0  0  0  0  0  0  0  0  0  0  0
   -1.4237    0.7969   -0.6303 C   0  0  0  0  0  0  0  0  0  0  0  0
   -1.8838   -0.3270    0.2536 C   0  0  0  0  0  0  0  0  0  0  0  0
   -0.6490   -1.0140    0.7771 C   0  0  0  0  0  0  0  0  0  0  0  0
    0.0262   -1.9063   -0.2433 C   0  0  0  0  0  0  0  0  0  0  0  0
    0.4700   -0.5319   -0.0268 C   0  0  0  0  0  0  0  0  0  0  0  0
    1.8065   -0.1861    0.5633 C   0  0  0  0  0  0  0  0  0  0  0  0
    2.5152    1.9068    1.0396 H   0  0  0  0  0  0  0  0  0  0  0  0
    0.6199    2.8119   -0.4872 H   0  0  0  0  0  0  0  0  0  0  0  0
    0.3199    0.5462   -1.9311 H   0  0  0  0  0  0  0  0  0  0  0  0
   -1.9920    0.7968   -1.5779 H   0  0  0  0  0  0  0  0  0  0  0  0
   -1.6457    1.7912   -0.1482 H   0  0  0  0  0  0  0  0  0  0  0  0
   -2.5525    0.0051    1.0619 H   0  0  0  0  0  0  0  0  0  0  0  0
   -2.4484   -1.1111   -0.3303 H   0  0  0  0  0  0  0  0  0  0  0  0
   -0.5797   -1.2835    1.8437 H   0  0  0  0  0  0  0  0  0  0  0  0
   -0.5269   -2.1620   -1.1782 H   0  0  0  0  0  0  0  0  0  0  0  0
    0.6888   -2.6974    0.2095 H   0  0  0  0  0  0  0  0  0  0  0  0
    1.9655   -0.5739    1.5797 H   0  0  0  0  0  0  0  0  0  0  0  0
    2.5965   -0.5447   -0.1542 H   0  0  0  0  0  0  0  0  0  0  0  0
  1  2  2  0
  2  3  1  0
  3  4  1  0
  4  5  1  0
  5  6  1  0
  6  7  1  0
  7  8  1  0
  8  9  1  0
  9  1  1  0
  8  3  1  0
  8  6  1  0
  1 10  1  0
  2 11  1  0
  3 12  1  0
  4 13  1  0
  4 14  1  0
  5 15  1  0
  5 16  1  0
  6 17  1  0
  7 18  1  0
  7 19  1  0
  9 20  1  0
  9 21  1  0
M  END
