
     RDKit          3D

 17 19  0  0  0  0  0  0  0  0999 V2000
    0.7701    1.4514   -0.2057 C   0  0  0  0  0  0  0  0  0  0  0  0
   -0.2856    1.6745    0.5648 C   0  0  0  0  0  0  0  0  0  0  0  0
   -1.1020    0.4477    0.6643 C   0  0  0  0  0  0  0  0  0  0  0  0
   -1.9904    0.2488   -0.4070 O   0  0  0  0  0  0  0  0  0  0  0  0
   -1.4939   -1.0548   -0.4949 C   0  0  0  0  0  0  0  0  0  0  0  0
   -0.2482   -0.6008    0.0796 C   0  0  0  0  0  0  0  0  0  0  0  0
    0.5656   -1.3442    0.8254 O   0  0  0  0  0  0  0  0  0  0  0  0
    1.6667   -0.8275    0.1356 C   0  0  0  0  0  0  0  0  0  0  0  0
    0.7983    0.0605   -0.7173 C   0  0  0  0  0  0  0  0  0  0  0  0
    1.5280    2.1845   -0.4421 H   0  0  0  0  0  0  0  0  0  0  0  0
   -0.5201    2.6069    1.0489 H   0  0  0  0  0  0  0  0  0  0  0  0
   -1.5502    0.2460    1.6572 H   0  0  0  0  0  0  0  0  0  0  0  0
   -2.0802   -1.7013    0.1864 H   0  0  0  0  0  0  0  0  0  0  0  0
   -1.5038   -1.4825   -1.5175 H   0  0  0  0  0  0  0  0  0  0  0  0
    2.3439   -0.2490    0.8211 H   0  0  0  0  0  0  0  0  0  0  0  0
    2.2606   -1.5812   -0.4079 H   0  0  0  0  0  0  0  0  0  0  0  0
    0.8410   -0.0791   -1.7910 H   0  0  0  0  0  0  0  0  0  0  0  0
  1  2  2  0
  2  3  1  0
  3  4  1  0
  4  5  1  0
  5  6  1  0
  6  7  1  0
  7  8  1  0
  8  9  1  0
  9  1  1  0
  6  3  1  0
  9  6  1  0
  1 10  1  0
  2 11  1  0
  3 12  1  0
  5 13  1  0
  5 14  1  0
  8 15  1  0
  8 16  1  0
  9 17  1  0
M  END
