
     RDKit          3D

 19 20  0  0  0  0  0  0  0  0999 V2000
   -2.3744    0.4775   -0.2392 C   0  0  0  0  0  0  0  0  0  0  0  0
   -1.4194    1.3841   -0.3887 C   0  0  0  0  0  0  0  0  0  0  0  0
   -0.1551    0.7963    0.0101 C   0  0  0  0  0  0  0  0  0  0  0  0
    0.9492    1.1362   -0.7563 O   0  0  0  0  0  0  0  0  0  0  0  0
    2.0445    0.4926   -0.1460 C   0  0  0  0  0  0  0  0  0  0  0  0
    1.8407   -0.9278    0.1814 C   0  0  0  0  0  0  0  0  0  0  0  0
    0.5780   -1.3291    0.5351 O   0  0  0  0  0  0  0  0  0  0  0  0
   -0.3635   -0.6879   -0.2243 C   0  0  0  0  0  0  0  0  0  0  0  0
   -1.7856   -0.8159    0.2849 C   0  0  0  0  0  0  0  0  0  0  0  0
   -3.4465    0.5968   -0.4497 H   0  0  0  0  0  0  0  0  0  0  0  0
   -1.5517    2.4036   -0.7501 H   0  0  0  0  0  0  0  0  0  0  0  0
    0.0934    0.9638    1.0818 H   0  0  0  0  0  0  0  0  0  0  0  0
    2.8846    0.6074   -0.8859 H   0  0  0  0  0  0  0  0  0  0  0  0
    2.3241    1.1312    0.7171 H   0  0  0  0  0  0  0  0  0  0  0  0
    2.2627   -1.5479   -0.6617 H   0  0  0  0  0  0  0  0  0  0  0  0
    2.5148   -1.1821    1.0538 H   0  0  0  0  0  0  0  0  0  0  0  0
   -0.2662   -0.9704   -1.2769 H   0  0  0  0  0  0  0  0  0  0  0  0
   -1.8635   -0.9117    1.3622 H   0  0  0  0  0  0  0  0  0  0  0  0
   -2.2660   -1.6165   -0.3106 H   0  0  0  0  0  0  0  0  0  0  0  0
  1  2  2  0
  2  3  1  0
  3  4  1  0
  4  5  1  0
  5  6  1  0
  6  7  1  0
  7  8  1  0
  8  9  1  0
  9  1  1  0
  8  3  1  0
  1 10  1  0
  2 11  1  0
  3 12  1  0
  5 13  1  0
  5 14  1  0
  6 15  1  0
  6 16  1  0
  8 17  1  0
  9 18  1  0
  9 19  1  0
M  END
