
     RDKit          3D

 17 18  0  0  0  0  0  0  0  0999 V2000
    1.6557    0.6432   -0.5486 C   0  0  0  0  0  0  0  0  0  0  0  0
    0.4267    0.7733   -1.0401 C   0  0  0  0  0  0  0  0  0  0  0  0
   -0.4809   -0.0661   -0.2629 C   0  0  0  0  0  0  0  0  0  0  0  0
    0.4036   -1.1626    0.2093 C   0  0  0  0  0  0  0  0  0  0  0  0
    1.6227   -0.3171    0.6127 C   0  0  0  0  0  0  0  0  0  0  0  0
   -1.3767    0.6694    0.6885 C   0  0  0  0  0  0  0  0  0  0  0  0
   -1.9158   -0.1580   -0.4439 C   0  0  0  0  0  0  0  0  0  0  0  0
    2.5496    1.1155   -0.8819 H   0  0  0  0  0  0  0  0  0  0  0  0
    0.1632    1.4031   -1.8790 H   0  0  0  0  0  0  0  0  0  0  0  0
    0.0275   -1.7579    1.0337 H   0  0  0  0  0  0  0  0  0  0  0  0
    0.7400   -1.7495   -0.6676 H   0  0  0  0  0  0  0  0  0  0  0  0
    2.5272   -0.9069    0.6947 H   0  0  0  0  0  0  0  0  0  0  0  0
    1.3260    0.2483    1.5027 H   0  0  0  0  0  0  0  0  0  0  0  0
   -1.4106    1.7785    0.6334 H   0  0  0  0  0  0  0  0  0  0  0  0
   -1.3963    0.2812    1.7267 H   0  0  0  0  0  0  0  0  0  0  0  0
   -2.4056   -1.1105   -0.1030 H   0  0  0  0  0  0  0  0  0  0  0  0
   -2.4561    0.3160   -1.2746 H   0  0  0  0  0  0  0  0  0  0  0  0
  1  2  2  0
  2  3  1  0
  3  4  1  0
  4  5  1  0
  3  6  1  0
  6  7  1  0
  5  1  1  0
  7  3  1  0
  1  8  1  0
  2  9  1  0
  4 10  1  0
  4 11  1  0
  5 12  1  0
  5 13  1  0
  6 14  1  0
  6 15  1  0
  7 16  1  0
  7 17  1  0
M  END
