
     RDKit          3D

 19 21  0  0  0  0  0  0  0  0999 V2000
   -1.1685    0.6270   -0.8496 C   0  0  0  0  0  0  0  0  0  0  0  0
   -0.1134    0.8956   -0.1886 C   0  0  0  0  0  0  0  0  0  0  0  0
    1.0771    1.7277   -0.1420 C   0  0  0  0  0  0  0  0  0  0  0  0
    2.0761    0.6632   -0.1958 O   0  0  0  0  0  0  0  0  0  0  0  0
    1.5107   -0.5553   -0.5563 C   0  0  0  0  0  0  0  0  0  0  0  0
    0.5828   -1.1808    0.4702 C   0  0  0  0  0  0  0  0  0  0  0  0
   -0.8445   -1.2165    0.5649 C   0  0  0  0  0  0  0  0  0  0  0  0
   -1.9577   -0.4983   -0.1818 C   0  0  0  0  0  0  0  0  0  0  0  0
   -0.1650   -0.0202    1.0821 C   0  0  0  0  0  0  0  0  0  0  0  0
   -1.5106    1.0954   -1.7625 H   0  0  0  0  0  0  0  0  0  0  0  0
    1.2851    2.3271   -1.0358 H   0  0  0  0  0  0  0  0  0  0  0  0
    1.2125    2.2680    0.8101 H   0  0  0  0  0  0  0  0  0  0  0  0
    0.9524   -0.4317   -1.4839 H   0  0  0  0  0  0  0  0  0  0  0  0
    2.3547   -1.2445   -0.7139 H   0  0  0  0  0  0  0  0  0  0  0  0
    1.1487   -1.7518    1.2333 H   0  0  0  0  0  0  0  0  0  0  0  0
   -1.3152   -1.9568    1.2867 H   0  0  0  0  0  0  0  0  0  0  0  0
   -2.4878   -1.1132   -0.8962 H   0  0  0  0  0  0  0  0  0  0  0  0
   -2.6249    0.0060    0.5261 H   0  0  0  0  0  0  0  0  0  0  0  0
   -0.0126    0.3593    2.0329 H   0  0  0  0  0  0  0  0  0  0  0  0
  1  2  2  0
  2  3  1  0
  3  4  1  0
  4  5  1  0
  5  6  1  0
  6  7  1  0
  7  8  1  0
  7  9  1  0
  8  1  1  0
  9  2  1  0
  9  6  1  0
  1 10  1  0
  3 11  1  0
  3 12  1  0
  5 13  1  0
  5 14  1  0
  6 15  1  0
  7 16  1  0
  8 17  1  0
  8 18  1  0
  9 19  1  0
M  END
