
     RDKit          3D

 16 18  0  0  0  0  0  0  0  0999 V2000
    1.2500    1.0226   -0.3123 C   0  0  0  0  0  0  0  0  0  0  0  0
   -0.0535    0.8673   -0.2769 C   0  0  0  0  0  0  0  0  0  0  0  0
   -1.5607    0.9931   -0.2852 C   0  0  0  0  0  0  0  0  0  0  0  0
   -1.4832   -0.2729    0.6455 C   0  0  0  0  0  0  0  0  0  0  0  0
   -0.3436   -0.6284   -0.2247 C   0  0  0  0  0  0  0  0  0  0  0  0
    0.9309   -1.1797    0.2707 C   0  0  0  0  0  0  0  0  0  0  0  0
    1.8454   -1.3854   -0.7872 O   0  0  0  0  0  0  0  0  0  0  0  0
    1.9991   -0.2163   -0.1071 C   0  0  0  0  0  0  0  0  0  0  0  0
    1.7272    2.0031   -0.4822 H   0  0  0  0  0  0  0  0  0  0  0  0
   -2.0246    0.7912   -1.2437 H   0  0  0  0  0  0  0  0  0  0  0  0
   -1.9756    1.8526    0.2236 H   0  0  0  0  0  0  0  0  0  0  0  0
   -2.3719   -0.9052    0.4555 H   0  0  0  0  0  0  0  0  0  0  0  0
   -1.2815    0.0222    1.6725 H   0  0  0  0  0  0  0  0  0  0  0  0
   -0.6457   -1.0180   -1.2288 H   0  0  0  0  0  0  0  0  0  0  0  0
    1.0344   -1.7606    1.1895 H   0  0  0  0  0  0  0  0  0  0  0  0
    2.9531   -0.1856    0.4907 H   0  0  0  0  0  0  0  0  0  0  0  0
  1  2  2  0
  2  3  1  0
  3  4  1  0
  4  5  1  0
  5  6  1  0
  6  7  1  0
  7  8  1  0
  8  1  1  0
  5  2  1  0
  8  6  1  0
  1  9  1  0
  3 10  1  0
  3 11  1  0
  4 12  1  0
  4 13  1  0
  5 14  1  0
  6 15  1  0
  8 16  1  0
M  END
