
     RDKit          3D

 17 19  0  0  0  0  0  0  0  0999 V2000
    1.3449    1.1235   -0.0273 C   0  0  0  0  0  0  0  0  0  0  0  0
    0.1384    0.6714    0.1912 C   0  0  0  0  0  0  0  0  0  0  0  0
   -1.3264    0.9494    0.3723 C   0  0  0  0  0  0  0  0  0  0  0  0
   -1.9519   -0.2075   -0.3400 C   0  0  0  0  0  0  0  0  0  0  0  0
   -1.3582   -0.4808   -1.5872 O   0  0  0  0  0  0  0  0  0  0  0  0
   -0.9317   -1.2595   -0.5277 C   0  0  0  0  0  0  0  0  0  0  0  0
    0.2328   -0.8111    0.3225 C   0  0  0  0  0  0  0  0  0  0  0  0
    1.4565   -1.1150   -0.2663 O   0  0  0  0  0  0  0  0  0  0  0  0
    2.2855   -0.0254   -0.0442 C   0  0  0  0  0  0  0  0  0  0  0  0
    1.5851    2.1919   -0.1708 H   0  0  0  0  0  0  0  0  0  0  0  0
   -1.5126    0.9154    1.4847 H   0  0  0  0  0  0  0  0  0  0  0  0
   -1.6281    1.9119   -0.0478 H   0  0  0  0  0  0  0  0  0  0  0  0
   -3.0271   -0.4222   -0.2464 H   0  0  0  0  0  0  0  0  0  0  0  0
   -1.2276   -2.3127   -0.5436 H   0  0  0  0  0  0  0  0  0  0  0  0
    0.1274   -1.1699    1.3447 H   0  0  0  0  0  0  0  0  0  0  0  0
    3.0209    0.0963   -0.8651 H   0  0  0  0  0  0  0  0  0  0  0  0
    2.7721   -0.0556    0.9512 H   0  0  0  0  0  0  0  0  0  0  0  0
  1  2  2  0
  2  3  1  0
  3  4  1  0
  4  5  1  0
  5  6  1  0
  6  7  1  0
  7  8  1  0
  8  9  1  0
  9  1  1  0
  7  2  1  0
  6  4  1  0
  1 10  1  0
  3 11  1  0
  3 12  1  0
  4 13  1  0
  6 14  1  0
  7 15  1  0
  9 16  1  0
  9 17  1  0
M  END
