
     RDKit          3D

 17 19  0  0  0  0  0  0  0  0999 V2000
    0.2725    1.4967    0.3627 C   0  0  0  0  0  0  0  0  0  0  0  0
    1.4168    0.8242    0.4073 C   0  0  0  0  0  0  0  0  0  0  0  0
    1.6435   -0.5049   -0.1905 C   0  0  0  0  0  0  0  0  0  0  0  0
    1.0831   -1.6311    0.3674 O   0  0  0  0  0  0  0  0  0  0  0  0
    0.5027   -1.0236   -0.8590 C   0  0  0  0  0  0  0  0  0  0  0  0
   -0.8389   -0.4830   -0.5838 C   0  0  0  0  0  0  0  0  0  0  0  0
   -1.3444   -0.5322    0.8311 C   0  0  0  0  0  0  0  0  0  0  0  0
   -1.9760    0.6940    0.5943 O   0  0  0  0  0  0  0  0  0  0  0  0
   -0.9375    0.9686   -0.3130 C   0  0  0  0  0  0  0  0  0  0  0  0
    0.1702    2.4847    0.8293 H   0  0  0  0  0  0  0  0  0  0  0  0
    2.2405    1.3001    0.9263 H   0  0  0  0  0  0  0  0  0  0  0  0
    2.6479   -0.7012   -0.6699 H   0  0  0  0  0  0  0  0  0  0  0  0
    0.6181   -1.7001   -1.7407 H   0  0  0  0  0  0  0  0  0  0  0  0
   -1.6118   -0.8450   -1.3056 H   0  0  0  0  0  0  0  0  0  0  0  0
   -2.0453   -1.3897    0.9406 H   0  0  0  0  0  0  0  0  0  0  0  0
   -0.5723   -0.4990    1.6091 H   0  0  0  0  0  0  0  0  0  0  0  0
   -1.2690    1.5414   -1.2055 H   0  0  0  0  0  0  0  0  0  0  0  0
  1  2  2  0
  2  3  1  0
  3  4  1  0
  4  5  1  0
  5  6  1  0
  6  7  1  0
  7  8  1  0
  8  9  1  0
  9  1  1  0
  5  3  1  0
  9  6  1  0
  1 10  1  0
  2 11  1  0
  3 12  1  0
  5 13  1  0
  6 14  1  0
  7 15  1  0
  7 16  1  0
  9 17  1  0
M  END
