
     RDKit          3D

 19 21  0  0  0  0  0  0  0  0999 V2000
    1.9002   -0.2771    0.3115 C   0  0  0  0  0  0  0  0  0  0  0  0
    1.7880    0.9014   -0.2699 C   0  0  0  0  0  0  0  0  0  0  0  0
    0.4160    0.8954   -0.8441 C   0  0  0  0  0  0  0  0  0  0  0  0
    0.5395   -0.3939   -1.4531 O   0  0  0  0  0  0  0  0  0  0  0  0
    0.8481   -1.1686   -0.3010 C   0  0  0  0  0  0  0  0  0  0  0  0
   -0.3803   -1.2876    0.6138 C   0  0  0  0  0  0  0  0  0  0  0  0
   -1.3916   -0.4000   -0.0159 C   0  0  0  0  0  0  0  0  0  0  0  0
   -2.0100    0.8229    0.2464 C   0  0  0  0  0  0  0  0  0  0  0  0
   -0.6081    0.9574    0.1962 C   0  0  0  0  0  0  0  0  0  0  0  0
    2.5956   -0.6071    1.0886 H   0  0  0  0  0  0  0  0  0  0  0  0
    2.5030    1.6698   -0.3174 H   0  0  0  0  0  0  0  0  0  0  0  0
    0.3062    1.6245   -1.6706 H   0  0  0  0  0  0  0  0  0  0  0  0
    1.2393   -2.1358   -0.6047 H   0  0  0  0  0  0  0  0  0  0  0  0
   -0.1512   -0.9355    1.6393 H   0  0  0  0  0  0  0  0  0  0  0  0
   -0.7691   -2.3240    0.6107 H   0  0  0  0  0  0  0  0  0  0  0  0
   -1.4788   -0.7322   -1.1037 H   0  0  0  0  0  0  0  0  0  0  0  0
   -2.6187    1.3270   -0.5599 H   0  0  0  0  0  0  0  0  0  0  0  0
   -2.5714    0.9607    1.2044 H   0  0  0  0  0  0  0  0  0  0  0  0
   -0.1567    1.1029    1.2294 H   0  0  0  0  0  0  0  0  0  0  0  0
  1  2  2  0
  2  3  1  0
  3  4  1  0
  4  5  1  0
  5  6  1  0
  6  7  1  0
  7  8  1  0
  8  9  1  0
  5  1  1  0
  9  7  1  0
  9  3  1  0
  1 10  1  0
  2 11  1  0
  3 12  1  0
  5 13  1  0
  6 14  1  0
  6 15  1  0
  7 16  1  0
  8 17  1  0
  8 18  1  0
  9 19  1  0
M  END
