
     RDKit          3D

 18 19  0  0  0  0  0  0  0  0999 V2000
    1.8953    0.6516   -0.3366 C   0  0  0  0  0  0  0  0  0  0  0  0
    0.8239    1.3633   -0.0859 C   0  0  0  0  0  0  0  0  0  0  0  0
   -0.1719    0.5539    0.6305 C   0  0  0  0  0  0  0  0  0  0  0  0
   -1.5450    0.6301    0.0086 C   0  0  0  0  0  0  0  0  0  0  0  0
   -1.7202   -0.7488   -0.6245 C   0  0  0  0  0  0  0  0  0  0  0  0
   -0.3993   -1.1937   -0.8450 O   0  0  0  0  0  0  0  0  0  0  0  0
    0.2299   -0.8624    0.3561 C   0  0  0  0  0  0  0  0  0  0  0  0
    1.7315   -0.7185    0.1869 C   0  0  0  0  0  0  0  0  0  0  0  0
    2.8093    0.9926   -0.8615 H   0  0  0  0  0  0  0  0  0  0  0  0
    0.6767    2.4355   -0.3718 H   0  0  0  0  0  0  0  0  0  0  0  0
   -0.1994    0.7672    1.7242 H   0  0  0  0  0  0  0  0  0  0  0  0
   -1.6174    1.3850   -0.7959 H   0  0  0  0  0  0  0  0  0  0  0  0
   -2.3100    0.7366    0.7933 H   0  0  0  0  0  0  0  0  0  0  0  0
   -2.1541   -1.4709    0.0989 H   0  0  0  0  0  0  0  0  0  0  0  0
   -2.2809   -0.6947   -1.5779 H   0  0  0  0  0  0  0  0  0  0  0  0
   -0.0569   -1.5010    1.1917 H   0  0  0  0  0  0  0  0  0  0  0  0
    2.0298   -1.4182   -0.6237 H   0  0  0  0  0  0  0  0  0  0  0  0
    2.2586   -0.9074    1.1327 H   0  0  0  0  0  0  0  0  0  0  0  0
  1  2  2  0
  2  3  1  0
  3  4  1  0
  4  5  1  0
  5  6  1  0
  6  7  1  0
  7  8  1  0
  8  1  1  0
  7  3  1  0
  1  9  1  0
  2 10  1  0
  3 11  1  0
  4 12  1  0
  4 13  1  0
  5 14  1  0
  5 15  1  0
  7 16  1  0
  8 17  1  0
  8 18  1  0
M  END
