
     RDKit          3D

 19 21  0  0  0  0  0  0  0  0999 V2000
    1.0904   -1.6786   -0.2895 C   0  0  0  0  0  0  0  0  0  0  0  0
   -0.0042   -0.9273   -0.1423 C   0  0  0  0  0  0  0  0  0  0  0  0
   -1.4604   -0.9199   -0.0817 C   0  0  0  0  0  0  0  0  0  0  0  0
   -1.8703    0.5043    0.0323 C   0  0  0  0  0  0  0  0  0  0  0  0
   -0.6070    1.2258    0.4315 C   0  0  0  0  0  0  0  0  0  0  0  0
    0.2172    1.5958   -0.7819 C   0  0  0  0  0  0  0  0  0  0  0  0
    0.5128    0.4285    0.0195 C   0  0  0  0  0  0  0  0  0  0  0  0
    1.7494    0.2872    0.6059 O   0  0  0  0  0  0  0  0  0  0  0  0
    2.2803   -0.7490   -0.2102 C   0  0  0  0  0  0  0  0  0  0  0  0
    1.1347   -2.7492   -0.4379 H   0  0  0  0  0  0  0  0  0  0  0  0
   -1.8922   -1.4363   -0.9664 H   0  0  0  0  0  0  0  0  0  0  0  0
   -1.8834   -1.4485    0.8034 H   0  0  0  0  0  0  0  0  0  0  0  0
   -2.7020    0.6768    0.7430 H   0  0  0  0  0  0  0  0  0  0  0  0
   -2.2476    0.8362   -0.9580 H   0  0  0  0  0  0  0  0  0  0  0  0
   -0.6368    1.9201    1.2942 H   0  0  0  0  0  0  0  0  0  0  0  0
    0.8633    2.4840   -0.6143 H   0  0  0  0  0  0  0  0  0  0  0  0
   -0.2158    1.5716   -1.7902 H   0  0  0  0  0  0  0  0  0  0  0  0
    2.5774   -0.3782   -1.1914 H   0  0  0  0  0  0  0  0  0  0  0  0
    3.0940   -1.2433    0.3575 H   0  0  0  0  0  0  0  0  0  0  0  0
  1  2  2  0
  2  3  1  0
  3  4  1  0
  4  5  1  0
  5  6  1  0
  6  7  1  0
  7  8  1  0
  8  9  1  0
  9  1  1  0
  7  2  1  0
  7  5  1  0
  1 10  1  0
  3 11  1  0
  3 12  1  0
  4 13  1  0
  4 14  1  0
  5 15  1  0
  6 16  1  0
  6 17  1  0
  9 18  1  0
  9 19  1  0
M  END
