
     RDKit          3D

 21 22  0  0  0  0  0  0  0  0999 V2000
   -1.1553    1.3968   -0.0307 C   0  0  0  0  0  0  0  0  0  0  0  0
   -0.0551    0.7290   -0.2901 C   0  0  0  0  0  0  0  0  0  0  0  0
    1.3531    1.1607   -0.4789 C   0  0  0  0  0  0  0  0  0  0  0  0
    2.3334    0.2566    0.2439 C   0  0  0  0  0  0  0  0  0  0  0  0
    1.5543   -0.5384    1.1135 O   0  0  0  0  0  0  0  0  0  0  0  0
    0.7695   -1.4387    0.3798 C   0  0  0  0  0  0  0  0  0  0  0  0
   -0.3107   -0.7338   -0.4094 C   0  0  0  0  0  0  0  0  0  0  0  0
   -1.6662   -0.8676    0.2387 C   0  0  0  0  0  0  0  0  0  0  0  0
   -2.3280    0.4679    0.0631 C   0  0  0  0  0  0  0  0  0  0  0  0
   -1.2495    2.4738    0.1052 H   0  0  0  0  0  0  0  0  0  0  0  0
    1.5771    1.1143   -1.5579 H   0  0  0  0  0  0  0  0  0  0  0  0
    1.4674    2.2213   -0.1785 H   0  0  0  0  0  0  0  0  0  0  0  0
    2.9453    0.8968    0.8925 H   0  0  0  0  0  0  0  0  0  0  0  0
    2.9302   -0.3613   -0.4403 H   0  0  0  0  0  0  0  0  0  0  0  0
    0.3769   -2.1964    1.0654 H   0  0  0  0  0  0  0  0  0  0  0  0
    1.4624   -1.9285   -0.3478 H   0  0  0  0  0  0  0  0  0  0  0  0
   -0.3334   -1.0779   -1.4558 H   0  0  0  0  0  0  0  0  0  0  0  0
   -2.2399   -1.6179   -0.3804 H   0  0  0  0  0  0  0  0  0  0  0  0
   -1.6044   -1.1931    1.2964 H   0  0  0  0  0  0  0  0  0  0  0  0
   -2.9672    0.5083   -0.8323 H   0  0  0  0  0  0  0  0  0  0  0  0
   -2.8598    0.7279    1.0036 H   0  0  0  0  0  0  0  0  0  0  0  0
  1  2  2  0
  2  3  1  0
  3  4  1  0
  4  5  1  0
  5  6  1  0
  6  7  1  0
  7  8  1  0
  8  9  1  0
  9  1  1  0
  7  2  1  0
  1 10  1  0
  3 11  1  0
  3 12  1  0
  4 13  1  0
  4 14  1  0
  6 15  1  0
  6 16  1  0
  7 17  1  0
  8 18  1  0
  8 19  1  0
  9 20  1  0
  9 21  1  0
M  END
