
     RDKit          3D

 17 19  0  0  0  0  0  0  0  0999 V2000
    1.6481    1.1726   -0.0998 C   0  0  0  0  0  0  0  0  0  0  0  0
    2.3579    0.0524   -0.1456 C   0  0  0  0  0  0  0  0  0  0  0  0
    1.3820   -1.0975   -0.0942 C   0  0  0  0  0  0  0  0  0  0  0  0
    0.8228   -1.1757    1.2294 O   0  0  0  0  0  0  0  0  0  0  0  0
    0.1655   -0.5971    0.1737 C   0  0  0  0  0  0  0  0  0  0  0  0
   -1.2413   -1.0070   -0.1450 C   0  0  0  0  0  0  0  0  0  0  0  0
   -1.9932    0.2802    0.1289 C   0  0  0  0  0  0  0  0  0  0  0  0
   -1.0151    1.3634   -0.0418 C   0  0  0  0  0  0  0  0  0  0  0  0
    0.2177    0.8886   -0.0186 C   0  0  0  0  0  0  0  0  0  0  0  0
    2.0323    2.2034   -0.1175 H   0  0  0  0  0  0  0  0  0  0  0  0
    3.4354   -0.0457   -0.2082 H   0  0  0  0  0  0  0  0  0  0  0  0
    1.6492   -2.0349   -0.5763 H   0  0  0  0  0  0  0  0  0  0  0  0
   -1.3475   -1.3637   -1.1749 H   0  0  0  0  0  0  0  0  0  0  0  0
   -1.5724   -1.7503    0.6084 H   0  0  0  0  0  0  0  0  0  0  0  0
   -2.3543    0.3178    1.1754 H   0  0  0  0  0  0  0  0  0  0  0  0
   -2.8810    0.3796   -0.5251 H   0  0  0  0  0  0  0  0  0  0  0  0
   -1.3061    2.4138   -0.1689 H   0  0  0  0  0  0  0  0  0  0  0  0
  1  2  2  0
  2  3  1  0
  3  4  1  0
  4  5  1  0
  5  6  1  0
  6  7  1  0
  7  8  1  0
  8  9  2  0
  9  1  1  0
  5  3  1  0
  9  5  1  0
  1 10  1  0
  2 11  1  0
  3 12  1  0
  6 13  1  0
  6 14  1  0
  7 15  1  0
  7 16  1  0
  8 17  1  0
M  END
