
     RDKit          3D

 19 20  0  0  0  0  0  0  0  0999 V2000
    1.6063    0.7888    0.6944 C   0  0  0  0  0  0  0  0  0  0  0  0
    0.3966    0.6924    0.1878 C   0  0  0  0  0  0  0  0  0  0  0  0
   -0.8306    1.5058    0.2046 C   0  0  0  0  0  0  0  0  0  0  0  0
   -2.0008    0.8015    0.3997 O   0  0  0  0  0  0  0  0  0  0  0  0
   -2.0606   -0.3390   -0.3960 C   0  0  0  0  0  0  0  0  0  0  0  0
   -0.9232   -1.2638   -0.0179 C   0  0  0  0  0  0  0  0  0  0  0  0
    0.3365   -0.5687   -0.5711 C   0  0  0  0  0  0  0  0  0  0  0  0
    1.4621   -1.2802   -0.2989 O   0  0  0  0  0  0  0  0  0  0  0  0
    2.3638   -0.4088    0.2783 C   0  0  0  0  0  0  0  0  0  0  0  0
    2.0384    1.5811    1.3175 H   0  0  0  0  0  0  0  0  0  0  0  0
   -0.8898    2.0001   -0.8080 H   0  0  0  0  0  0  0  0  0  0  0  0
   -0.7817    2.3465    0.9200 H   0  0  0  0  0  0  0  0  0  0  0  0
   -2.0485   -0.0990   -1.4733 H   0  0  0  0  0  0  0  0  0  0  0  0
   -3.0158   -0.8566   -0.1415 H   0  0  0  0  0  0  0  0  0  0  0  0
   -0.8414   -1.2216    1.1035 H   0  0  0  0  0  0  0  0  0  0  0  0
   -1.0286   -2.2717   -0.4105 H   0  0  0  0  0  0  0  0  0  0  0  0
    0.1876   -0.3145   -1.6391 H   0  0  0  0  0  0  0  0  0  0  0  0
    3.1680   -0.1662   -0.4739 H   0  0  0  0  0  0  0  0  0  0  0  0
    2.8618   -0.9261    1.1245 H   0  0  0  0  0  0  0  0  0  0  0  0
  1  2  2  0
  2  3  1  0
  3  4  1  0
  4  5  1  0
  5  6  1  0
  6  7  1  0
  7  8  1  0
  8  9  1  0
  9  1  1  0
  7  2  1  0
  1 10  1  0
  3 11  1  0
  3 12  1  0
  5 13  1  0
  5 14  1  0
  6 15  1  0
  6 16  1  0
  7 17  1  0
  9 18  1  0
  9 19  1  0
M  END
