
     RDKit          3D

 21 23  0  0  0  0  0  0  0  0999 V2000
    2.2511    0.2963    0.2794 C   0  0  0  0  0  0  0  0  0  0  0  0
    1.4899    1.3018   -0.1979 C   0  0  0  0  0  0  0  0  0  0  0  0
    0.0718    0.9966   -0.4432 C   0  0  0  0  0  0  0  0  0  0  0  0
   -0.0782   -0.4408   -0.9677 C   0  0  0  0  0  0  0  0  0  0  0  0
   -1.5645   -0.4997   -1.1531 C   0  0  0  0  0  0  0  0  0  0  0  0
   -2.0032    0.1132    0.1944 C   0  0  0  0  0  0  0  0  0  0  0  0
   -0.6443    0.4334    0.7538 C   0  0  0  0  0  0  0  0  0  0  0  0
    0.0973   -0.8764    0.4574 C   0  0  0  0  0  0  0  0  0  0  0  0
    1.4862   -0.7907    0.9688 C   0  0  0  0  0  0  0  0  0  0  0  0
    3.3296    0.2837    0.1687 H   0  0  0  0  0  0  0  0  0  0  0  0
    1.9077    2.2898   -0.3912 H   0  0  0  0  0  0  0  0  0  0  0  0
   -0.4936    1.7442   -1.0137 H   0  0  0  0  0  0  0  0  0  0  0  0
    0.5842   -0.7628   -1.7226 H   0  0  0  0  0  0  0  0  0  0  0  0
   -1.9645   -1.5004   -1.2905 H   0  0  0  0  0  0  0  0  0  0  0  0
   -1.8375    0.2228   -1.9450 H   0  0  0  0  0  0  0  0  0  0  0  0
   -2.6109    1.0024    0.0376 H   0  0  0  0  0  0  0  0  0  0  0  0
   -2.5094   -0.6819    0.7934 H   0  0  0  0  0  0  0  0  0  0  0  0
   -0.5341    0.8673    1.7066 H   0  0  0  0  0  0  0  0  0  0  0  0
   -0.4421   -1.7768    0.7696 H   0  0  0  0  0  0  0  0  0  0  0  0
    2.0167   -1.7398    0.9422 H   0  0  0  0  0  0  0  0  0  0  0  0
    1.4477   -0.4822    2.0530 H   0  0  0  0  0  0  0  0  0  0  0  0
  1  2  2  0
  2  3  1  0
  3  4  1  0
  4  5  1  0
  5  6  1  0
  6  7  1  0
  7  8  1  0
  8  9  1  0
  9  1  1  0
  7  3  1  0
  8  4  1  0
  1 10  1  0
  2 11  1  0
  3 12  1  0
  4 13  1  0
  5 14  1  0
  5 15  1  0
  6 16  1  0
  6 17  1  0
  7 18  1  0
  8 19  1  0
  9 20  1  0
  9 21  1  0
M  END
