
     RDKit          3D

 19 21  0  0  0  0  0  0  0  0999 V2000
   -1.1070    1.3711   -0.1309 C   0  0  0  0  0  0  0  0  0  0  0  0
    0.2355    1.3583   -0.0090 C   0  0  0  0  0  0  0  0  0  0  0  0
    0.7982    0.0680    0.4177 C   0  0  0  0  0  0  0  0  0  0  0  0
    2.1684    0.0254    0.8391 C   0  0  0  0  0  0  0  0  0  0  0  0
    1.8894   -0.6301   -0.4240 C   0  0  0  0  0  0  0  0  0  0  0  0
    1.0800   -1.7937   -0.2801 O   0  0  0  0  0  0  0  0  0  0  0  0
    0.0663   -0.9315   -0.4593 C   0  0  0  0  0  0  0  0  0  0  0  0
   -1.2776   -1.1154    0.0676 C   0  0  0  0  0  0  0  0  0  0  0  0
   -1.9774    0.2255    0.1273 C   0  0  0  0  0  0  0  0  0  0  0  0
   -1.5710    2.3049   -0.4440 H   0  0  0  0  0  0  0  0  0  0  0  0
    0.7986    2.2597   -0.2228 H   0  0  0  0  0  0  0  0  0  0  0  0
    2.5681   -0.6290    1.6638 H   0  0  0  0  0  0  0  0  0  0  0  0
    2.7712    0.9799    0.7808 H   0  0  0  0  0  0  0  0  0  0  0  0
    1.9812   -0.1917   -1.4167 H   0  0  0  0  0  0  0  0  0  0  0  0
    0.0400   -0.5618   -1.5237 H   0  0  0  0  0  0  0  0  0  0  0  0
   -1.8723   -1.7602   -0.6135 H   0  0  0  0  0  0  0  0  0  0  0  0
   -1.3205   -1.6049    1.0616 H   0  0  0  0  0  0  0  0  0  0  0  0
   -2.4400    0.3495    1.1464 H   0  0  0  0  0  0  0  0  0  0  0  0
   -2.8311    0.2760   -0.5802 H   0  0  0  0  0  0  0  0  0  0  0  0
  1  2  2  0
  2  3  1  0
  3  4  1  0
  4  5  1  0
  5  6  1  0
  6  7  1  0
  7  8  1  0
  8  9  1  0
  9  1  1  0
  5  3  1  0
  7  3  1  0
  1 10  1  0
  2 11  1  0
  4 12  1  0
  4 13  1  0
  5 14  1  0
  7 15  1  0
  8 16  1  0
  8 17  1  0
  9 18  1  0
  9 19  1  0
M  END
