
     RDKit          3D

 19 21  0  0  0  0  0  0  0  0999 V2000
   -2.2804    0.6860    0.2628 C   0  0  0  0  0  0  0  0  0  0  0  0
   -1.1608    1.3563    0.5006 C   0  0  0  0  0  0  0  0  0  0  0  0
   -0.0303    0.6217   -0.0377 C   0  0  0  0  0  0  0  0  0  0  0  0
    1.0711    1.2186   -0.5771 O   0  0  0  0  0  0  0  0  0  0  0  0
    2.1482    0.3801   -0.4862 C   0  0  0  0  0  0  0  0  0  0  0  0
    1.8299   -0.6849    0.5353 C   0  0  0  0  0  0  0  0  0  0  0  0
    0.3444   -0.6565    0.5963 C   0  0  0  0  0  0  0  0  0  0  0  0
   -0.4971   -0.6381   -0.6058 C   0  0  0  0  0  0  0  0  0  0  0  0
   -1.9757   -0.5708   -0.4665 C   0  0  0  0  0  0  0  0  0  0  0  0
   -3.2978    1.0113    0.5622 H   0  0  0  0  0  0  0  0  0  0  0  0
   -1.0951    2.3129    1.0206 H   0  0  0  0  0  0  0  0  0  0  0  0
    3.0307    1.0086   -0.1702 H   0  0  0  0  0  0  0  0  0  0  0  0
    2.4396   -0.0960   -1.4412 H   0  0  0  0  0  0  0  0  0  0  0  0
    2.2160   -0.3337    1.5329 H   0  0  0  0  0  0  0  0  0  0  0  0
    2.2742   -1.6622    0.3093 H   0  0  0  0  0  0  0  0  0  0  0  0
   -0.1132   -1.0034    1.5362 H   0  0  0  0  0  0  0  0  0  0  0  0
   -0.0742   -0.9706   -1.5874 H   0  0  0  0  0  0  0  0  0  0  0  0
   -2.4089   -0.5153   -1.5026 H   0  0  0  0  0  0  0  0  0  0  0  0
   -2.4208   -1.4640    0.0186 H   0  0  0  0  0  0  0  0  0  0  0  0
  1  2  2  0
  2  3  1  0
  3  4  1  0
  4  5  1  0
  5  6  1  0
  6  7  1  0
  7  8  1  0
  8  9  1  0
  9  1  1  0
  7  3  1  0
  8  3  1  0
  1 10  1  0
  2 11  1  0
  5 12  1  0
  5 13  1  0
  6 14  1  0
  6 15  1  0
  7 16  1  0
  8 17  1  0
  9 18  1  0
  9 19  1  0
M  END
