
     RDKit          3D

 17 19  0  0  0  0  0  0  0  0999 V2000
    0.6720    1.3877    0.1830 C   0  0  0  0  0  0  0  0  0  0  0  0
    1.6143    0.5076   -0.1511 C   0  0  0  0  0  0  0  0  0  0  0  0
    1.3669   -0.8910    0.1191 C   0  0  0  0  0  0  0  0  0  0  0  0
    0.9893   -1.8788   -0.6976 O   0  0  0  0  0  0  0  0  0  0  0  0
   -0.0607   -1.1688   -0.3727 C   0  0  0  0  0  0  0  0  0  0  0  0
   -0.9828   -1.1847    0.7298 C   0  0  0  0  0  0  0  0  0  0  0  0
   -1.2835    0.0786    1.0039 C   0  0  0  0  0  0  0  0  0  0  0  0
   -0.7486    0.9859   -0.0559 C   0  0  0  0  0  0  0  0  0  0  0  0
   -0.6138   -0.0297   -1.2080 C   0  0  0  0  0  0  0  0  0  0  0  0
    0.9259    2.3745    0.6148 H   0  0  0  0  0  0  0  0  0  0  0  0
    2.5379    0.9050   -0.6157 H   0  0  0  0  0  0  0  0  0  0  0  0
    1.6508   -1.2241    1.1413 H   0  0  0  0  0  0  0  0  0  0  0  0
   -1.3794   -2.0257    1.2601 H   0  0  0  0  0  0  0  0  0  0  0  0
   -1.8430    0.4313    1.8764 H   0  0  0  0  0  0  0  0  0  0  0  0
   -1.4044    1.8099   -0.3062 H   0  0  0  0  0  0  0  0  0  0  0  0
   -1.5765   -0.3488   -1.5906 H   0  0  0  0  0  0  0  0  0  0  0  0
    0.1356    0.2710   -1.9306 H   0  0  0  0  0  0  0  0  0  0  0  0
  1  2  2  0
  2  3  1  0
  3  4  1  0
  4  5  1  0
  5  6  1  0
  6  7  2  0
  7  8  1  0
  8  9  1  0
  8  1  1  0
  5  3  1  0
  9  5  1  0
  1 10  1  0
  2 11  1  0
  3 12  1  0
  6 13  1  0
  7 14  1  0
  8 15  1  0
  9 16  1  0
  9 17  1  0
M  END
