
     RDKit          3D

 19 21  0  0  0  0  0  0  0  0999 V2000
    1.2149   -1.1548   -0.3705 C   0  0  0  0  0  0  0  0  0  0  0  0
   -0.0481   -0.9333   -0.3267 C   0  0  0  0  0  0  0  0  0  0  0  0
   -1.4023   -1.4422   -0.5007 C   0  0  0  0  0  0  0  0  0  0  0  0
   -1.9992   -0.9859    0.7189 O   0  0  0  0  0  0  0  0  0  0  0  0
   -1.1273    0.0720    1.1868 C   0  0  0  0  0  0  0  0  0  0  0  0
   -0.3414    0.4219    0.0681 C   0  0  0  0  0  0  0  0  0  0  0  0
   -0.1695    1.7930   -0.1516 C   0  0  0  0  0  0  0  0  0  0  0  0
    0.9150    1.0187   -0.5106 C   0  0  0  0  0  0  0  0  0  0  0  0
    1.9325    0.1446    0.0361 C   0  0  0  0  0  0  0  0  0  0  0  0
    1.8076   -2.0294   -0.6239 H   0  0  0  0  0  0  0  0  0  0  0  0
   -1.9273   -0.9918   -1.3525 H   0  0  0  0  0  0  0  0  0  0  0  0
   -1.4845   -2.5418   -0.5691 H   0  0  0  0  0  0  0  0  0  0  0  0
   -1.8629    0.8574    1.4701 H   0  0  0  0  0  0  0  0  0  0  0  0
   -0.6688   -0.2556    2.1318 H   0  0  0  0  0  0  0  0  0  0  0  0
   -0.8059    2.3243   -0.8894 H   0  0  0  0  0  0  0  0  0  0  0  0
   -0.0515    2.4715    0.7533 H   0  0  0  0  0  0  0  0  0  0  0  0
    0.9831    0.8691   -1.6706 H   0  0  0  0  0  0  0  0  0  0  0  0
    2.1349    0.1569    1.0985 H   0  0  0  0  0  0  0  0  0  0  0  0
    2.9007    0.2056   -0.4982 H   0  0  0  0  0  0  0  0  0  0  0  0
  1  2  2  0
  2  3  1  0
  3  4  1  0
  4  5  1  0
  5  6  1  0
  6  7  1  0
  7  8  1  0
  8  9  1  0
  9  1  1  0
  6  2  1  0
  8  6  1  0
  1 10  1  0
  3 11  1  0
  3 12  1  0
  5 13  1  0
  5 14  1  0
  7 15  1  0
  7 16  1  0
  8 17  1  0
  9 18  1  0
  9 19  1  0
M  END
