
     RDKit          3D

 17 19  0  0  0  0  0  0  0  0999 V2000
    2.0460    0.5104   -0.2275 C   0  0  0  0  0  0  0  0  0  0  0  0
    0.8614    1.1208   -0.2190 C   0  0  0  0  0  0  0  0  0  0  0  0
   -0.1214    0.1121    0.1845 C   0  0  0  0  0  0  0  0  0  0  0  0
    0.5157   -1.0643    0.4260 O   0  0  0  0  0  0  0  0  0  0  0  0
    1.8691   -0.8958    0.1656 C   0  0  0  0  0  0  0  0  0  0  0  0
   -1.1567    0.5253    1.1858 C   0  0  0  0  0  0  0  0  0  0  0  0
   -1.9733   -0.6264    0.7090 C   0  0  0  0  0  0  0  0  0  0  0  0
   -1.4359    0.0977   -0.4979 C   0  0  0  0  0  0  0  0  0  0  0  0
   -1.7384    1.2703    0.1723 O   0  0  0  0  0  0  0  0  0  0  0  0
    2.9775    0.9766   -0.4818 H   0  0  0  0  0  0  0  0  0  0  0  0
    0.6474    2.1381   -0.4549 H   0  0  0  0  0  0  0  0  0  0  0  0
    2.4819   -1.1109    1.0818 H   0  0  0  0  0  0  0  0  0  0  0  0
    2.1836   -1.5567   -0.6561 H   0  0  0  0  0  0  0  0  0  0  0  0
   -0.9960    0.8177    2.1370 H   0  0  0  0  0  0  0  0  0  0  0  0
   -1.4675   -1.6025    0.9066 H   0  0  0  0  0  0  0  0  0  0  0  0
   -3.0488   -0.5905    0.8669 H   0  0  0  0  0  0  0  0  0  0  0  0
   -1.6447   -0.1220   -1.4597 H   0  0  0  0  0  0  0  0  0  0  0  0
  1  2  2  0
  2  3  1  0
  3  4  1  0
  4  5  1  0
  3  6  1  0
  6  7  1  0
  7  8  1  0
  8  9  1  0
  5  1  1  0
  9  6  1  0
  8  3  1  0
  1 10  1  0
  2 11  1  0
  5 12  1  0
  5 13  1  0
  6 14  1  0
  7 15  1  0
  7 16  1  0
  8 17  1  0
M  END
