
     RDKit          3D

 21 23  0  0  0  0  0  0  0  0999 V2000
   -0.0608   -1.9040   -0.4920 C   0  0  0  0  0  0  0  0  0  0  0  0
   -0.5609   -1.5657    0.6938 C   0  0  0  0  0  0  0  0  0  0  0  0
   -1.2089   -0.2325    0.6431 C   0  0  0  0  0  0  0  0  0  0  0  0
   -0.3164    0.9328    1.0012 C   0  0  0  0  0  0  0  0  0  0  0  0
    1.1485    0.5777    0.8688 C   0  0  0  0  0  0  0  0  0  0  0  0
    1.4538   -0.0462   -0.4495 C   0  0  0  0  0  0  0  0  0  0  0  0
    0.2410   -0.5869   -1.1619 C   0  0  0  0  0  0  0  0  0  0  0  0
   -1.0120    0.1804   -0.8054 C   0  0  0  0  0  0  0  0  0  0  0  0
   -0.7727    1.5876   -0.3102 C   0  0  0  0  0  0  0  0  0  0  0  0
    0.1112   -2.8699   -0.9252 H   0  0  0  0  0  0  0  0  0  0  0  0
   -0.4882   -2.2149    1.5858 H   0  0  0  0  0  0  0  0  0  0  0  0
   -2.2237   -0.1672    1.0290 H   0  0  0  0  0  0  0  0  0  0  0  0
   -0.5674    1.4910    1.8981 H   0  0  0  0  0  0  0  0  0  0  0  0
    1.5095    0.0150    1.7441 H   0  0  0  0  0  0  0  0  0  0  0  0
    1.7003    1.5632    0.9020 H   0  0  0  0  0  0  0  0  0  0  0  0
    2.1359   -0.9240   -0.2465 H   0  0  0  0  0  0  0  0  0  0  0  0
    2.0139    0.6005   -1.1485 H   0  0  0  0  0  0  0  0  0  0  0  0
    0.3814   -0.6869   -2.2346 H   0  0  0  0  0  0  0  0  0  0  0  0
   -1.8487    0.0312   -1.4726 H   0  0  0  0  0  0  0  0  0  0  0  0
   -1.6877    2.1671   -0.2426 H   0  0  0  0  0  0  0  0  0  0  0  0
    0.0520    2.0516   -0.8769 H   0  0  0  0  0  0  0  0  0  0  0  0
  1  2  2  0
  2  3  1  0
  3  4  1  0
  4  5  1  0
  5  6  1  0
  6  7  1  0
  7  8  1  0
  8  9  1  0
  7  1  1  0
  8  3  1  0
  9  4  1  0
  1 10  1  0
  2 11  1  0
  3 12  1  0
  4 13  1  0
  5 14  1  0
  5 15  1  0
  6 16  1  0
  6 17  1  0
  7 18  1  0
  8 19  1  0
  9 20  1  0
  9 21  1  0
M  END
