
     RDKit          3D

 17 19  0  0  0  0  0  0  0  0999 V2000
    0.9201    1.3372   -0.3228 C   0  0  0  0  0  0  0  0  0  0  0  0
   -0.2945    1.7008    0.0276 C   0  0  0  0  0  0  0  0  0  0  0  0
   -1.4054    0.7987    0.4263 C   0  0  0  0  0  0  0  0  0  0  0  0
   -0.8913    0.0226    1.4546 O   0  0  0  0  0  0  0  0  0  0  0  0
   -0.2682   -1.0592    1.0130 C   0  0  0  0  0  0  0  0  0  0  0  0
    0.5969   -1.1345   -0.1048 C   0  0  0  0  0  0  0  0  0  0  0  0
    1.4336   -0.0256   -0.5782 C   0  0  0  0  0  0  0  0  0  0  0  0
   -0.8100   -1.2002   -0.4235 C   0  0  0  0  0  0  0  0  0  0  0  0
   -1.5269   -0.0804   -0.6771 O   0  0  0  0  0  0  0  0  0  0  0  0
    1.6899    2.1065   -0.4561 H   0  0  0  0  0  0  0  0  0  0  0  0
   -0.5284    2.7427    0.0336 H   0  0  0  0  0  0  0  0  0  0  0  0
   -2.3365    1.3086    0.6603 H   0  0  0  0  0  0  0  0  0  0  0  0
   -0.3957   -1.9664    1.6787 H   0  0  0  0  0  0  0  0  0  0  0  0
    1.1410   -2.1256   -0.2429 H   0  0  0  0  0  0  0  0  0  0  0  0
    1.5389   -0.1121   -1.7004 H   0  0  0  0  0  0  0  0  0  0  0  0
    2.4476   -0.1179   -0.1664 H   0  0  0  0  0  0  0  0  0  0  0  0
   -1.3110   -2.1953   -0.6217 H   0  0  0  0  0  0  0  0  0  0  0  0
  1  2  2  0
  2  3  1  0
  3  4  1  0
  4  5  1  0
  5  6  1  0
  6  7  1  0
  6  8  1  0
  8  9  1  0
  7  1  1  0
  9  3  1  0
  8  5  1  0
  1 10  1  0
  2 11  1  0
  3 12  1  0
  5 13  1  0
  6 14  1  0
  7 15  1  0
  7 16  1  0
  8 17  1  0
M  END
