
     RDKit          3D

 21 23  0  0  0  0  0  0  0  0999 V2000
    0.7722    1.8252   -0.4222 C   0  0  0  0  0  0  0  0  0  0  0  0
    1.9210    1.1922   -0.5827 C   0  0  0  0  0  0  0  0  0  0  0  0
    1.7824   -0.2175   -0.0994 C   0  0  0  0  0  0  0  0  0  0  0  0
    0.9826   -1.0100   -1.1715 C   0  0  0  0  0  0  0  0  0  0  0  0
    0.4222   -0.4172    0.0539 C   0  0  0  0  0  0  0  0  0  0  0  0
   -0.5770   -1.2138    0.7553 C   0  0  0  0  0  0  0  0  0  0  0  0
   -1.8574   -0.7194    0.0422 C   0  0  0  0  0  0  0  0  0  0  0  0
   -1.4843    0.6598   -0.5440 C   0  0  0  0  0  0  0  0  0  0  0  0
   -0.1919    0.9420    0.1589 C   0  0  0  0  0  0  0  0  0  0  0  0
    0.5663    2.8848   -0.6921 H   0  0  0  0  0  0  0  0  0  0  0  0
    2.8187    1.6078   -0.9922 H   0  0  0  0  0  0  0  0  0  0  0  0
    2.6594   -0.7181    0.3316 H   0  0  0  0  0  0  0  0  0  0  0  0
    1.1682   -2.1050   -1.1119 H   0  0  0  0  0  0  0  0  0  0  0  0
    0.8954   -0.6261   -2.1765 H   0  0  0  0  0  0  0  0  0  0  0  0
   -0.4293   -2.2939    0.5875 H   0  0  0  0  0  0  0  0  0  0  0  0
   -0.6581   -1.0283    1.8416 H   0  0  0  0  0  0  0  0  0  0  0  0
   -2.0734   -1.3768   -0.8194 H   0  0  0  0  0  0  0  0  0  0  0  0
   -2.6617   -0.6446    0.7706 H   0  0  0  0  0  0  0  0  0  0  0  0
   -1.4172    0.6428   -1.6273 H   0  0  0  0  0  0  0  0  0  0  0  0
   -2.2352    1.3950   -0.1903 H   0  0  0  0  0  0  0  0  0  0  0  0
   -0.4029    1.2212    1.2258 H   0  0  0  0  0  0  0  0  0  0  0  0
  1  2  2  0
  2  3  1  0
  3  4  1  0
  4  5  1  0
  5  6  1  0
  6  7  1  0
  7  8  1  0
  8  9  1  0
  9  1  1  0
  5  3  1  0
  9  5  1  0
  1 10  1  0
  2 11  1  0
  3 12  1  0
  4 13  1  0
  4 14  1  0
  6 15  1  0
  6 16  1  0
  7 17  1  0
  7 18  1  0
  8 19  1  0
  8 20  1  0
  9 21  1  0
M  END
