
     RDKit          3D

 19 21  0  0  0  0  0  0  0  0999 V2000
    1.9987    0.2918    0.1330 C   0  0  0  0  0  0  0  0  0  0  0  0
    1.7301   -0.8810    0.6417 C   0  0  0  0  0  0  0  0  0  0  0  0
    0.3695   -1.4881    0.6491 C   0  0  0  0  0  0  0  0  0  0  0  0
   -0.5909   -0.7384   -0.2106 C   0  0  0  0  0  0  0  0  0  0  0  0
   -1.8495   -0.1548    0.3561 C   0  0  0  0  0  0  0  0  0  0  0  0
   -1.6502    1.0263   -0.5863 C   0  0  0  0  0  0  0  0  0  0  0  0
   -0.2710    0.4216   -0.8549 C   0  0  0  0  0  0  0  0  0  0  0  0
    0.9487    1.1624   -0.5062 C   0  0  0  0  0  0  0  0  0  0  0  0
   -0.3170   -0.7468   -1.5445 O   0  0  0  0  0  0  0  0  0  0  0  0
    2.9926    0.6696    0.1591 H   0  0  0  0  0  0  0  0  0  0  0  0
    2.5392   -1.4504    1.0855 H   0  0  0  0  0  0  0  0  0  0  0  0
    0.0168   -1.6592    1.6850 H   0  0  0  0  0  0  0  0  0  0  0  0
    0.4773   -2.5214    0.2071 H   0  0  0  0  0  0  0  0  0  0  0  0
   -2.7382   -0.7382    0.1106 H   0  0  0  0  0  0  0  0  0  0  0  0
   -1.7632    0.2126    1.3969 H   0  0  0  0  0  0  0  0  0  0  0  0
   -1.6581    2.0082   -0.1362 H   0  0  0  0  0  0  0  0  0  0  0  0
   -2.3295    0.9546   -1.4729 H   0  0  0  0  0  0  0  0  0  0  0  0
    1.3901    1.6915   -1.3677 H   0  0  0  0  0  0  0  0  0  0  0  0
    0.7045    1.9398    0.2553 H   0  0  0  0  0  0  0  0  0  0  0  0
  1  2  2  0
  2  3  1  0
  3  4  1  0
  4  5  1  0
  5  6  1  0
  6  7  1  0
  7  8  1  0
  7  9  1  0
  8  1  1  0
  7  4  1  0
  9  4  1  0
  1 10  1  0
  2 11  1  0
  3 12  1  0
  3 13  1  0
  5 14  1  0
  5 15  1  0
  6 16  1  0
  6 17  1  0
  8 18  1  0
  8 19  1  0
M  END
