
     RDKit          3D

 21 22  0  0  0  0  0  0  0  0999 V2000
   -2.5194    0.4853    0.0958 C   0  0  0  0  0  0  0  0  0  0  0  0
   -1.6689    1.4326    0.4571 C   0  0  0  0  0  0  0  0  0  0  0  0
   -0.3028    0.9191    0.3513 C   0  0  0  0  0  0  0  0  0  0  0  0
    0.8874    1.4649    0.2018 C   0  0  0  0  0  0  0  0  0  0  0  0
    2.1166    0.5908    0.1284 C   0  0  0  0  0  0  0  0  0  0  0  0
    1.6632   -0.5750   -0.7695 C   0  0  0  0  0  0  0  0  0  0  0  0
    0.6625   -1.3701   -0.0108 C   0  0  0  0  0  0  0  0  0  0  0  0
   -0.4817   -0.5698    0.4636 C   0  0  0  0  0  0  0  0  0  0  0  0
   -1.7738   -0.7443   -0.2824 C   0  0  0  0  0  0  0  0  0  0  0  0
   -3.5876    0.5477    0.0643 H   0  0  0  0  0  0  0  0  0  0  0  0
   -1.8948    2.4512    0.7876 H   0  0  0  0  0  0  0  0  0  0  0  0
    1.0209    2.5240    0.1294 H   0  0  0  0  0  0  0  0  0  0  0  0
    2.3823    0.1793    1.1000 H   0  0  0  0  0  0  0  0  0  0  0  0
    2.9400    1.1037   -0.4052 H   0  0  0  0  0  0  0  0  0  0  0  0
    2.5392   -1.1543   -1.0878 H   0  0  0  0  0  0  0  0  0  0  0  0
    1.1307   -0.1021   -1.6416 H   0  0  0  0  0  0  0  0  0  0  0  0
    0.2962   -2.2373   -0.6013 H   0  0  0  0  0  0  0  0  0  0  0  0
    1.2130   -1.7928    0.8833 H   0  0  0  0  0  0  0  0  0  0  0  0
   -0.7113   -0.8357    1.5350 H   0  0  0  0  0  0  0  0  0  0  0  0
   -1.5806   -0.6666   -1.3829 H   0  0  0  0  0  0  0  0  0  0  0  0
   -2.3308   -1.6505   -0.0161 H   0  0  0  0  0  0  0  0  0  0  0  0
  1  2  2  0
  2  3  1  0
  3  4  2  0
  4  5  1  0
  5  6  1  0
  6  7  1  0
  7  8  1  0
  8  9  1  0
  9  1  1  0
  8  3  1  0
  1 10  1  0
  2 11  1  0
  4 12  1  0
  5 13  1  0
  5 14  1  0
  6 15  1  0
  6 16  1  0
  7 17  1  0
  7 18  1  0
  8 19  1  0
  9 20  1  0
  9 21  1  0
M  END
