
     RDKit          3D

 19 21  0  0  0  0  0  0  0  0999 V2000
   -1.6980   -0.6144    0.7955 C   0  0  0  0  0  0  0  0  0  0  0  0
   -0.6647   -1.2818    0.3075 C   0  0  0  0  0  0  0  0  0  0  0  0
   -0.0609   -0.5731   -0.8485 C   0  0  0  0  0  0  0  0  0  0  0  0
   -0.5972    0.8296   -0.6686 C   0  0  0  0  0  0  0  0  0  0  0  0
   -1.9174    0.6401    0.0170 C   0  0  0  0  0  0  0  0  0  0  0  0
    0.2624    1.4698    0.2155 O   0  0  0  0  0  0  0  0  0  0  0  0
    1.5121    0.9477   -0.0022 C   0  0  0  0  0  0  0  0  0  0  0  0
    1.8441   -0.2705    0.8145 C   0  0  0  0  0  0  0  0  0  0  0  0
    1.4007   -0.3978   -0.5951 C   0  0  0  0  0  0  0  0  0  0  0  0
   -2.3493   -0.8719    1.6406 H   0  0  0  0  0  0  0  0  0  0  0  0
   -0.3376   -2.2321    0.7388 H   0  0  0  0  0  0  0  0  0  0  0  0
   -0.3056   -1.0168   -1.8189 H   0  0  0  0  0  0  0  0  0  0  0  0
   -0.6751    1.3876   -1.6168 H   0  0  0  0  0  0  0  0  0  0  0  0
   -2.7691    0.5635   -0.6816 H   0  0  0  0  0  0  0  0  0  0  0  0
   -2.0733    1.5121    0.7093 H   0  0  0  0  0  0  0  0  0  0  0  0
    2.3293    1.5986   -0.3647 H   0  0  0  0  0  0  0  0  0  0  0  0
    1.1251   -0.5801    1.6264 H   0  0  0  0  0  0  0  0  0  0  0  0
    2.8869   -0.3559    1.1170 H   0  0  0  0  0  0  0  0  0  0  0  0
    2.0876   -0.7544   -1.3857 H   0  0  0  0  0  0  0  0  0  0  0  0
  1  2  2  0
  2  3  1  0
  3  4  1  0
  4  5  1  0
  4  6  1  0
  6  7  1  0
  7  8  1  0
  8  9  1  0
  5  1  1  0
  9  7  1  0
  9  3  1  0
  1 10  1  0
  2 11  1  0
  3 12  1  0
  4 13  1  0
  5 14  1  0
  5 15  1  0
  7 16  1  0
  8 17  1  0
  8 18  1  0
  9 19  1  0
M  END
