
     RDKit          3D

 17 20  0  0  0  0  0  0  0  0999 V2000
    0.6078    1.5655   -0.5825 C   0  0  0  0  0  0  0  0  0  0  0  0
    1.5535    0.6127   -0.4387 C   0  0  0  0  0  0  0  0  0  0  0  0
    1.0240   -0.6975    0.0940 C   0  0  0  0  0  0  0  0  0  0  0  0
    0.1218   -0.4922    1.2796 C   0  0  0  0  0  0  0  0  0  0  0  0
   -0.3069    0.8397    1.4011 O   0  0  0  0  0  0  0  0  0  0  0  0
   -0.6818    1.2113    0.1110 C   0  0  0  0  0  0  0  0  0  0  0  0
   -1.2452   -0.0559   -0.5449 C   0  0  0  0  0  0  0  0  0  0  0  0
   -0.1863   -1.0425   -0.7227 C   0  0  0  0  0  0  0  0  0  0  0  0
   -1.0000   -1.0731    0.4779 C   0  0  0  0  0  0  0  0  0  0  0  0
    0.7496    2.4690   -1.1240 H   0  0  0  0  0  0  0  0  0  0  0  0
    2.5786    0.7672   -0.6776 H   0  0  0  0  0  0  0  0  0  0  0  0
    1.7700   -1.4858    0.1926 H   0  0  0  0  0  0  0  0  0  0  0  0
    0.4010   -0.9667    2.2072 H   0  0  0  0  0  0  0  0  0  0  0  0
   -1.3851    2.0414    0.0863 H   0  0  0  0  0  0  0  0  0  0  0  0
   -2.1342    0.0193   -1.1639 H   0  0  0  0  0  0  0  0  0  0  0  0
   -0.2031   -1.8788   -1.4145 H   0  0  0  0  0  0  0  0  0  0  0  0
   -1.6637   -1.8338    0.8193 H   0  0  0  0  0  0  0  0  0  0  0  0
  1  2  2  0
  2  3  1  0
  3  4  1  0
  4  5  1  0
  5  6  1  0
  6  7  1  0
  7  8  1  0
  8  9  1  0
  6  1  1  0
  9  7  1  0
  8  3  1  0
  9  4  1  0
  1 10  1  0
  2 11  1  0
  3 12  1  0
  4 13  1  0
  6 14  1  0
  7 15  1  0
  8 16  1  0
  9 17  1  0
M  END
