
     RDKit          3D

 21 22  0  0  0  0  0  0  0  0999 V2000
    0.9812    1.4216    0.7005 C   0  0  0  0  0  0  0  0  0  0  0  0
   -0.2698    1.0555    0.5556 C   0  0  0  0  0  0  0  0  0  0  0  0
   -0.9469   -0.1174    0.0307 C   0  0  0  0  0  0  0  0  0  0  0  0
   -2.3641   -0.4004    0.6061 C   0  0  0  0  0  0  0  0  0  0  0  0
   -2.1988    0.0994   -0.7896 C   0  0  0  0  0  0  0  0  0  0  0  0
   -0.1137   -1.2589   -0.3672 C   0  0  0  0  0  0  0  0  0  0  0  0
    1.1089   -1.3720    0.2366 O   0  0  0  0  0  0  0  0  0  0  0  0
    1.9984   -0.5450   -0.4509 C   0  0  0  0  0  0  0  0  0  0  0  0
    2.1914    0.6878    0.3423 C   0  0  0  0  0  0  0  0  0  0  0  0
    1.1703    2.3968    1.1437 H   0  0  0  0  0  0  0  0  0  0  0  0
   -0.9680    1.8290    0.9227 H   0  0  0  0  0  0  0  0  0  0  0  0
   -2.7124    0.3045    1.3845 H   0  0  0  0  0  0  0  0  0  0  0  0
   -2.5337   -1.4762    0.7943 H   0  0  0  0  0  0  0  0  0  0  0  0
   -2.4414    1.1397   -1.0057 H   0  0  0  0  0  0  0  0  0  0  0  0
   -2.4686   -0.6290   -1.5786 H   0  0  0  0  0  0  0  0  0  0  0  0
   -0.6805   -2.2090   -0.1390 H   0  0  0  0  0  0  0  0  0  0  0  0
   -0.0095   -1.2699   -1.4888 H   0  0  0  0  0  0  0  0  0  0  0  0
    2.9680   -1.0789   -0.5188 H   0  0  0  0  0  0  0  0  0  0  0  0
    1.6489   -0.3296   -1.4910 H   0  0  0  0  0  0  0  0  0  0  0  0
    2.7073    0.4019    1.3023 H   0  0  0  0  0  0  0  0  0  0  0  0
    2.9327    1.3502   -0.1897 H   0  0  0  0  0  0  0  0  0  0  0  0
  1  2  2  0
  2  3  1  0
  3  4  1  0
  4  5  1  0
  3  6  1  0
  6  7  1  0
  7  8  1  0
  8  9  1  0
  9  1  1  0
  5  3  1  0
  1 10  1  0
  2 11  1  0
  4 12  1  0
  4 13  1  0
  5 14  1  0
  5 15  1  0
  6 16  1  0
  6 17  1  0
  8 18  1  0
  8 19  1  0
  9 20  1  0
  9 21  1  0
M  END
