
     RDKit          3D

 19 21  0  0  0  0  0  0  0  0999 V2000
   -1.0091   -0.0277    1.2231 C   0  0  0  0  0  0  0  0  0  0  0  0
   -1.0638   -1.1799    0.5731 C   0  0  0  0  0  0  0  0  0  0  0  0
   -0.0633   -1.3226   -0.5516 C   0  0  0  0  0  0  0  0  0  0  0  0
    1.1703   -1.5870    0.0432 O   0  0  0  0  0  0  0  0  0  0  0  0
    1.6319   -0.3965    0.5779 C   0  0  0  0  0  0  0  0  0  0  0  0
    0.9419    0.7363   -0.1065 C   0  0  0  0  0  0  0  0  0  0  0  0
   -0.3886    1.1198    0.5072 C   0  0  0  0  0  0  0  0  0  0  0  0
   -0.9522    1.0143   -0.9209 C   0  0  0  0  0  0  0  0  0  0  0  0
    0.1454    0.0231   -1.1801 C   0  0  0  0  0  0  0  0  0  0  0  0
   -1.3927    0.0706    2.2131 H   0  0  0  0  0  0  0  0  0  0  0  0
   -1.7607   -1.9790    0.8055 H   0  0  0  0  0  0  0  0  0  0  0  0
   -0.3382   -2.1189   -1.2512 H   0  0  0  0  0  0  0  0  0  0  0  0
    1.4230   -0.3138    1.6650 H   0  0  0  0  0  0  0  0  0  0  0  0
    2.7369   -0.2793    0.4620 H   0  0  0  0  0  0  0  0  0  0  0  0
    1.5154    1.6018   -0.4060 H   0  0  0  0  0  0  0  0  0  0  0  0
   -0.4625    2.0941    0.9652 H   0  0  0  0  0  0  0  0  0  0  0  0
   -0.7756    1.9391   -1.4632 H   0  0  0  0  0  0  0  0  0  0  0  0
   -1.9535    0.5671   -0.9752 H   0  0  0  0  0  0  0  0  0  0  0  0
    0.5954    0.0385   -2.1806 H   0  0  0  0  0  0  0  0  0  0  0  0
  1  2  2  0
  2  3  1  0
  3  4  1  0
  4  5  1  0
  5  6  1  0
  6  7  1  0
  7  8  1  0
  8  9  1  0
  7  1  1  0
  9  3  1  0
  9  6  1  0
  1 10  1  0
  2 11  1  0
  3 12  1  0
  5 13  1  0
  5 14  1  0
  6 15  1  0
  7 16  1  0
  8 17  1  0
  8 18  1  0
  9 19  1  0
M  END
