
     RDKit          3D

 21 22  0  0  0  0  0  0  0  0999 V2000
   -0.0272    0.5251    1.6546 C   0  0  0  0  0  0  0  0  0  0  0  0
   -0.9209   -0.4822    1.5472 C   0  0  0  0  0  0  0  0  0  0  0  0
   -0.9132   -1.1240    0.1868 C   0  0  0  0  0  0  0  0  0  0  0  0
   -1.2444   -0.1503   -0.8888 C   0  0  0  0  0  0  0  0  0  0  0  0
   -0.7392    1.2161   -0.5503 C   0  0  0  0  0  0  0  0  0  0  0  0
    0.4510    1.0641    0.3616 C   0  0  0  0  0  0  0  0  0  0  0  0
    1.5575    0.2718   -0.2448 C   0  0  0  0  0  0  0  0  0  0  0  0
    1.2693   -1.1187   -0.6045 C   0  0  0  0  0  0  0  0  0  0  0  0
    0.2752   -1.7687    0.0475 O   0  0  0  0  0  0  0  0  0  0  0  0
    0.2972    0.8907    2.6197 H   0  0  0  0  0  0  0  0  0  0  0  0
   -1.5628   -0.7875    2.3454 H   0  0  0  0  0  0  0  0  0  0  0  0
   -1.7297   -1.8913    0.2115 H   0  0  0  0  0  0  0  0  0  0  0  0
   -0.7784   -0.4468   -1.8596 H   0  0  0  0  0  0  0  0  0  0  0  0
   -2.3383   -0.1169   -1.0873 H   0  0  0  0  0  0  0  0  0  0  0  0
   -0.5237    1.8475   -1.4376 H   0  0  0  0  0  0  0  0  0  0  0  0
   -1.5399    1.7432    0.0292 H   0  0  0  0  0  0  0  0  0  0  0  0
    0.8397    2.0943    0.5488 H   0  0  0  0  0  0  0  0  0  0  0  0
    2.4468    0.3749    0.4427 H   0  0  0  0  0  0  0  0  0  0  0  0
    1.8718    0.8224   -1.1720 H   0  0  0  0  0  0  0  0  0  0  0  0
    1.0917   -1.2481   -1.7142 H   0  0  0  0  0  0  0  0  0  0  0  0
    2.2175   -1.7155   -0.4357 H   0  0  0  0  0  0  0  0  0  0  0  0
  1  2  2  0
  2  3  1  0
  3  4  1  0
  4  5  1  0
  5  6  1  0
  6  7  1  0
  7  8  1  0
  8  9  1  0
  6  1  1  0
  9  3  1  0
  1 10  1  0
  2 11  1  0
  3 12  1  0
  4 13  1  0
  4 14  1  0
  5 15  1  0
  5 16  1  0
  6 17  1  0
  7 18  1  0
  7 19  1  0
  8 20  1  0
  8 21  1  0
M  END
