
     RDKit          3D

 21 23  0  0  0  0  0  0  0  0999 V2000
   -1.4985   -1.2013   -0.6580 C   0  0  0  0  0  0  0  0  0  0  0  0
   -0.2595   -1.5359   -0.3444 C   0  0  0  0  0  0  0  0  0  0  0  0
    0.3412   -0.2950    0.2682 C   0  0  0  0  0  0  0  0  0  0  0  0
    0.8125    0.7630   -0.6345 C   0  0  0  0  0  0  0  0  0  0  0  0
    2.2148    0.5016   -0.1287 C   0  0  0  0  0  0  0  0  0  0  0  0
    1.6266   -0.3889    0.9396 C   0  0  0  0  0  0  0  0  0  0  0  0
   -0.8790    0.1030    1.0318 C   0  0  0  0  0  0  0  0  0  0  0  0
   -1.9646    0.9612    0.8320 C   0  0  0  0  0  0  0  0  0  0  0  0
   -1.7124    0.1718   -0.2896 C   0  0  0  0  0  0  0  0  0  0  0  0
   -2.2651   -1.8633   -1.1311 H   0  0  0  0  0  0  0  0  0  0  0  0
    0.2382   -2.4603   -0.4778 H   0  0  0  0  0  0  0  0  0  0  0  0
    0.4889    1.8011   -0.3401 H   0  0  0  0  0  0  0  0  0  0  0  0
    0.6817    0.6433   -1.7259 H   0  0  0  0  0  0  0  0  0  0  0  0
    2.7963   -0.0105   -0.9129 H   0  0  0  0  0  0  0  0  0  0  0  0
    2.6882    1.3762    0.3379 H   0  0  0  0  0  0  0  0  0  0  0  0
    1.7281   -0.0091    1.9763 H   0  0  0  0  0  0  0  0  0  0  0  0
    2.0329   -1.4406    0.9270 H   0  0  0  0  0  0  0  0  0  0  0  0
   -1.1171   -0.7726    1.7211 H   0  0  0  0  0  0  0  0  0  0  0  0
   -2.9389    0.8046    1.3709 H   0  0  0  0  0  0  0  0  0  0  0  0
   -1.7607    2.0674    0.8358 H   0  0  0  0  0  0  0  0  0  0  0  0
   -1.2537    0.7844   -1.1433 H   0  0  0  0  0  0  0  0  0  0  0  0
  1  2  2  0
  2  3  1  0
  3  4  1  0
  4  5  1  0
  5  6  1  0
  3  7  1  0
  7  8  1  0
  8  9  1  0
  9  1  1  0
  6  3  1  0
  9  7  1  0
  1 10  1  0
  2 11  1  0
  4 12  1  0
  4 13  1  0
  5 14  1  0
  5 15  1  0
  6 16  1  0
  6 17  1  0
  7 18  1  0
  8 19  1  0
  8 20  1  0
  9 21  1  0
M  END
