
     RDKit          3D

 21 22  0  0  0  0  0  0  0  0999 V2000
   -1.8317   -0.8364   -0.0177 C   0  0  0  0  0  0  0  0  0  0  0  0
   -2.0021    0.4310    0.3337 C   0  0  0  0  0  0  0  0  0  0  0  0
   -1.1172    1.6339    0.4031 C   0  0  0  0  0  0  0  0  0  0  0  0
    0.1383    1.2222    0.7413 O   0  0  0  0  0  0  0  0  0  0  0  0
    1.0050    1.0379   -0.3046 C   0  0  0  0  0  0  0  0  0  0  0  0
    2.3957    0.5976    0.1309 C   0  0  0  0  0  0  0  0  0  0  0  0
    1.4925   -0.3942   -0.4352 C   0  0  0  0  0  0  0  0  0  0  0  0
    0.5757   -1.2514    0.3700 C   0  0  0  0  0  0  0  0  0  0  0  0
   -0.6337   -1.5820   -0.5015 C   0  0  0  0  0  0  0  0  0  0  0  0
   -2.7316   -1.4285    0.0654 H   0  0  0  0  0  0  0  0  0  0  0  0
   -3.0136    0.6344    0.6385 H   0  0  0  0  0  0  0  0  0  0  0  0
   -1.5083    2.2642    1.2490 H   0  0  0  0  0  0  0  0  0  0  0  0
   -1.1929    2.1697   -0.5588 H   0  0  0  0  0  0  0  0  0  0  0  0
    0.8727    1.5387   -1.2730 H   0  0  0  0  0  0  0  0  0  0  0  0
    2.6561    0.6486    1.2082 H   0  0  0  0  0  0  0  0  0  0  0  0
    3.1979    0.9836   -0.5195 H   0  0  0  0  0  0  0  0  0  0  0  0
    1.7211   -0.7921   -1.4483 H   0  0  0  0  0  0  0  0  0  0  0  0
    1.0485   -2.2145    0.6594 H   0  0  0  0  0  0  0  0  0  0  0  0
    0.2372   -0.7135    1.2814 H   0  0  0  0  0  0  0  0  0  0  0  0
   -0.8668   -2.6534   -0.4482 H   0  0  0  0  0  0  0  0  0  0  0  0
   -0.4428   -1.2958   -1.5741 H   0  0  0  0  0  0  0  0  0  0  0  0
  1  2  2  3
  2  3  1  0
  3  4  1  0
  4  5  1  0
  5  6  1  0
  6  7  1  0
  7  8  1  0
  8  9  1  0
  9  1  1  0
  7  5  1  0
  1 10  1  0
  2 11  1  0
  3 12  1  0
  3 13  1  0
  5 14  1  0
  6 15  1  0
  6 16  1  0
  7 17  1  0
  8 18  1  0
  8 19  1  0
  9 20  1  0
  9 21  1  0
M  END
