
     RDKit          3D

 19 20  0  0  0  0  0  0  0  0999 V2000
   -1.2551    0.8698   -0.6360 C   0  0  0  0  0  0  0  0  0  0  0  0
   -1.4864   -0.3784   -1.0288 C   0  0  0  0  0  0  0  0  0  0  0  0
   -0.5591   -1.2710   -0.3028 C   0  0  0  0  0  0  0  0  0  0  0  0
   -0.4849   -0.6192    1.0536 C   0  0  0  0  0  0  0  0  0  0  0  0
   -0.5747    0.8438    0.7113 C   0  0  0  0  0  0  0  0  0  0  0  0
    0.8466    1.3181    0.4602 C   0  0  0  0  0  0  0  0  0  0  0  0
    1.2171    0.7677   -0.7768 O   0  0  0  0  0  0  0  0  0  0  0  0
    1.6165   -0.5579   -0.6587 C   0  0  0  0  0  0  0  0  0  0  0  0
    0.6377   -1.4718   -0.9024 O   0  0  0  0  0  0  0  0  0  0  0  0
   -1.5167    1.7439   -1.1992 H   0  0  0  0  0  0  0  0  0  0  0  0
   -2.2476   -0.6158   -1.7640 H   0  0  0  0  0  0  0  0  0  0  0  0
   -1.0699   -2.2522   -0.1742 H   0  0  0  0  0  0  0  0  0  0  0  0
    0.4024   -0.8888    1.6331 H   0  0  0  0  0  0  0  0  0  0  0  0
   -1.4470   -0.8799    1.5779 H   0  0  0  0  0  0  0  0  0  0  0  0
   -1.1137    1.4451    1.4362 H   0  0  0  0  0  0  0  0  0  0  0  0
    1.5338    0.9193    1.2579 H   0  0  0  0  0  0  0  0  0  0  0  0
    0.9514    2.3996    0.4487 H   0  0  0  0  0  0  0  0  0  0  0  0
    2.4159   -0.7000   -1.4446 H   0  0  0  0  0  0  0  0  0  0  0  0
    2.1337   -0.6723    0.3087 H   0  0  0  0  0  0  0  0  0  0  0  0
  1  2  2  0
  2  3  1  0
  3  4  1  0
  4  5  1  0
  5  6  1  0
  6  7  1  0
  7  8  1  0
  8  9  1  0
  5  1  1  0
  9  3  1  0
  1 10  1  0
  2 11  1  0
  3 12  1  0
  4 13  1  0
  4 14  1  0
  5 15  1  0
  6 16  1  0
  6 17  1  0
  8 18  1  0
  8 19  1  0
M  END
