
     RDKit          3D

 19 21  0  0  0  0  0  0  0  0999 V2000
    1.5977   -0.1457   -0.9110 C   0  0  0  0  0  0  0  0  0  0  0  0
    0.9578    0.9991   -1.0005 C   0  0  0  0  0  0  0  0  0  0  0  0
   -0.0727    1.4499   -0.0593 C   0  0  0  0  0  0  0  0  0  0  0  0
   -1.3951    0.8055    0.0356 C   0  0  0  0  0  0  0  0  0  0  0  0
   -1.6124   -0.6012   -0.4604 C   0  0  0  0  0  0  0  0  0  0  0  0
   -1.0346   -1.4602    0.4643 O   0  0  0  0  0  0  0  0  0  0  0  0
    0.0822   -0.8226    0.9759 C   0  0  0  0  0  0  0  0  0  0  0  0
    1.2990   -1.0749    0.1883 C   0  0  0  0  0  0  0  0  0  0  0  0
   -0.3289    0.6064    1.1043 C   0  0  0  0  0  0  0  0  0  0  0  0
    2.3727   -0.4272   -1.6659 H   0  0  0  0  0  0  0  0  0  0  0  0
    1.2250    1.6513   -1.8435 H   0  0  0  0  0  0  0  0  0  0  0  0
   -0.0574    2.5480    0.1305 H   0  0  0  0  0  0  0  0  0  0  0  0
   -2.2733    1.4386    0.2647 H   0  0  0  0  0  0  0  0  0  0  0  0
   -1.2034   -0.7534   -1.4858 H   0  0  0  0  0  0  0  0  0  0  0  0
   -2.7021   -0.8077   -0.4619 H   0  0  0  0  0  0  0  0  0  0  0  0
    0.2531   -1.1985    2.0276 H   0  0  0  0  0  0  0  0  0  0  0  0
    2.2193   -1.1068    0.8401 H   0  0  0  0  0  0  0  0  0  0  0  0
    1.2613   -2.1236   -0.2339 H   0  0  0  0  0  0  0  0  0  0  0  0
   -0.5885    1.0229    2.0909 H   0  0  0  0  0  0  0  0  0  0  0  0
  1  2  2  0
  2  3  1  0
  3  4  1  0
  4  5  1  0
  5  6  1  0
  6  7  1  0
  7  8  1  0
  7  9  1  0
  8  1  1  0
  9  3  1  0
  9  4  1  0
  1 10  1  0
  2 11  1  0
  3 12  1  0
  4 13  1  0
  5 14  1  0
  5 15  1  0
  7 16  1  0
  8 17  1  0
  8 18  1  0
  9 19  1  0
M  END
