
     RDKit          3D

 18 19  0  0  0  0  0  0  0  0999 V2000
    0.9776    1.3203    0.2872 C   0  0  0  0  0  0  0  0  0  0  0  0
   -0.2368    0.8697   -0.0003 C   0  0  0  0  0  0  0  0  0  0  0  0
   -1.7034    0.9353   -0.1217 C   0  0  0  0  0  0  0  0  0  0  0  0
   -1.7542   -0.5810   -0.2830 C   0  0  0  0  0  0  0  0  0  0  0  0
   -0.2592   -0.5380   -0.5241 C   0  0  0  0  0  0  0  0  0  0  0  0
    0.5812   -1.3140    0.4581 C   0  0  0  0  0  0  0  0  0  0  0  0
    1.8320   -0.8159    0.6611 O   0  0  0  0  0  0  0  0  0  0  0  0
    2.1276    0.3754    0.0518 C   0  0  0  0  0  0  0  0  0  0  0  0
    1.0907    2.3150    0.6665 H   0  0  0  0  0  0  0  0  0  0  0  0
   -2.2623    1.2669    0.7737 H   0  0  0  0  0  0  0  0  0  0  0  0
   -2.0063    1.5149   -0.9919 H   0  0  0  0  0  0  0  0  0  0  0  0
   -1.9695   -1.1270    0.6574 H   0  0  0  0  0  0  0  0  0  0  0  0
   -2.3621   -0.9160   -1.1460 H   0  0  0  0  0  0  0  0  0  0  0  0
    0.0225   -0.6421   -1.5825 H   0  0  0  0  0  0  0  0  0  0  0  0
    0.5407   -2.3816    0.1756 H   0  0  0  0  0  0  0  0  0  0  0  0
    0.0328   -1.2544    1.4446 H   0  0  0  0  0  0  0  0  0  0  0  0
    2.2927    0.2006   -1.0280 H   0  0  0  0  0  0  0  0  0  0  0  0
    3.0559    0.7719    0.5015 H   0  0  0  0  0  0  0  0  0  0  0  0
  1  2  2  0
  2  3  1  0
  3  4  1  0
  4  5  1  0
  5  6  1  0
  6  7  1  0
  7  8  1  0
  8  1  1  0
  5  2  1  0
  1  9  1  0
  3 10  1  0
  3 11  1  0
  4 12  1  0
  4 13  1  0
  5 14  1  0
  6 15  1  0
  6 16  1  0
  8 17  1  0
  8 18  1  0
M  END
