
     RDKit          3D

 19 20  0  0  0  0  0  0  0  0999 V2000
   -2.2056    0.2133   -0.7027 C   0  0  0  0  0  0  0  0  0  0  0  0
   -1.5373   -0.9083   -0.6436 C   0  0  0  0  0  0  0  0  0  0  0  0
   -0.4560   -0.7443    0.3649 C   0  0  0  0  0  0  0  0  0  0  0  0
    0.8997   -0.9799   -0.2301 C   0  0  0  0  0  0  0  0  0  0  0  0
    1.4987    0.1288   -1.0284 C   0  0  0  0  0  0  0  0  0  0  0  0
    2.1478    0.4187    0.2940 C   0  0  0  0  0  0  0  0  0  0  0  0
    1.9261   -0.8958    0.6828 O   0  0  0  0  0  0  0  0  0  0  0  0
   -0.6285    0.4813    0.9495 O   0  0  0  0  0  0  0  0  0  0  0  0
   -1.5994    1.1555    0.2549 C   0  0  0  0  0  0  0  0  0  0  0  0
   -3.0526    0.4361   -1.3306 H   0  0  0  0  0  0  0  0  0  0  0  0
   -1.6787   -1.8331   -1.1923 H   0  0  0  0  0  0  0  0  0  0  0  0
   -0.5973   -1.5164    1.1759 H   0  0  0  0  0  0  0  0  0  0  0  0
    0.9057   -1.9626   -0.7574 H   0  0  0  0  0  0  0  0  0  0  0  0
    0.8140    0.9269   -1.3727 H   0  0  0  0  0  0  0  0  0  0  0  0
    2.2212   -0.2379   -1.7868 H   0  0  0  0  0  0  0  0  0  0  0  0
    1.5904    1.1949    0.8425 H   0  0  0  0  0  0  0  0  0  0  0  0
    3.2413    0.6025    0.2585 H   0  0  0  0  0  0  0  0  0  0  0  0
   -2.3851    1.5654    0.9401 H   0  0  0  0  0  0  0  0  0  0  0  0
   -1.1045    1.9548   -0.3329 H   0  0  0  0  0  0  0  0  0  0  0  0
  1  2  2  0
  2  3  1  0
  3  4  1  0
  4  5  1  0
  5  6  1  0
  6  7  1  0
  3  8  1  0
  8  9  1  0
  9  1  1  0
  7  4  1  0
  1 10  1  0
  2 11  1  0
  3 12  1  0
  4 13  1  0
  5 14  1  0
  5 15  1  0
  6 16  1  0
  6 17  1  0
  9 18  1  0
  9 19  1  0
M  END
