
     RDKit          3D

 19 21  0  0  0  0  0  0  0  0999 V2000
    0.4113    1.5517    0.0966 C   0  0  0  0  0  0  0  0  0  0  0  0
   -0.6714    0.7662    0.0678 C   0  0  0  0  0  0  0  0  0  0  0  0
   -2.1401    0.5243    0.2314 C   0  0  0  0  0  0  0  0  0  0  0  0
   -1.8526   -0.9589    0.1872 C   0  0  0  0  0  0  0  0  0  0  0  0
   -0.5129   -0.6309   -0.2975 C   0  0  0  0  0  0  0  0  0  0  0  0
    0.0069   -0.9688   -1.5050 O   0  0  0  0  0  0  0  0  0  0  0  0
    0.6742   -1.2820   -0.3519 C   0  0  0  0  0  0  0  0  0  0  0  0
    1.8499   -0.4434    0.1200 C   0  0  0  0  0  0  0  0  0  0  0  0
    1.7204    0.9955   -0.2395 C   0  0  0  0  0  0  0  0  0  0  0  0
    0.2558    2.6080    0.3804 H   0  0  0  0  0  0  0  0  0  0  0  0
   -2.5651    0.8992    1.1859 H   0  0  0  0  0  0  0  0  0  0  0  0
   -2.7522    0.9056   -0.6311 H   0  0  0  0  0  0  0  0  0  0  0  0
   -2.4962   -1.5459   -0.4909 H   0  0  0  0  0  0  0  0  0  0  0  0
   -1.8424   -1.3453    1.2459 H   0  0  0  0  0  0  0  0  0  0  0  0
    0.8065   -2.3585   -0.0987 H   0  0  0  0  0  0  0  0  0  0  0  0
    2.7854   -0.8951   -0.2007 H   0  0  0  0  0  0  0  0  0  0  0  0
    1.8289   -0.5128    1.2411 H   0  0  0  0  0  0  0  0  0  0  0  0
    2.4869    1.5558    0.3625 H   0  0  0  0  0  0  0  0  0  0  0  0
    2.0069    1.1353   -1.3036 H   0  0  0  0  0  0  0  0  0  0  0  0
  1  2  2  0
  2  3  1  0
  3  4  1  0
  4  5  1  0
  5  6  1  0
  6  7  1  0
  7  8  1  0
  8  9  1  0
  9  1  1  0
  5  2  1  0
  7  5  1  0
  1 10  1  0
  3 11  1  0
  3 12  1  0
  4 13  1  0
  4 14  1  0
  7 15  1  0
  8 16  1  0
  8 17  1  0
  9 18  1  0
  9 19  1  0
M  END
