
     RDKit          3D

 19 21  0  0  0  0  0  0  0  0999 V2000
   -1.4735   -0.7353    0.8742 C   0  0  0  0  0  0  0  0  0  0  0  0
   -1.6409   -0.7529   -0.4592 C   0  0  0  0  0  0  0  0  0  0  0  0
   -0.5538    0.0958   -1.0437 C   0  0  0  0  0  0  0  0  0  0  0  0
   -0.8753    1.4966   -0.5854 C   0  0  0  0  0  0  0  0  0  0  0  0
   -0.7132    1.5119    0.7357 C   0  0  0  0  0  0  0  0  0  0  0  0
   -0.2888    0.1353    1.1428 C   0  0  0  0  0  0  0  0  0  0  0  0
    0.5557   -0.2115   -0.0697 C   0  0  0  0  0  0  0  0  0  0  0  0
    1.9359    0.1942   -0.2354 C   0  0  0  0  0  0  0  0  0  0  0  0
    1.4734   -1.2996   -0.1585 C   0  0  0  0  0  0  0  0  0  0  0  0
   -2.0339   -1.2202    1.6457 H   0  0  0  0  0  0  0  0  0  0  0  0
   -2.4315   -1.2961   -0.9655 H   0  0  0  0  0  0  0  0  0  0  0  0
   -0.3562   -0.0215   -2.0731 H   0  0  0  0  0  0  0  0  0  0  0  0
   -1.1681    2.2618   -1.2659 H   0  0  0  0  0  0  0  0  0  0  0  0
   -0.8792    2.3994    1.3285 H   0  0  0  0  0  0  0  0  0  0  0  0
    0.1705    0.0401    2.0878 H   0  0  0  0  0  0  0  0  0  0  0  0
    2.3704    0.5193   -1.1879 H   0  0  0  0  0  0  0  0  0  0  0  0
    2.4607    0.5725    0.6781 H   0  0  0  0  0  0  0  0  0  0  0  0
    1.5693   -1.8453   -1.1380 H   0  0  0  0  0  0  0  0  0  0  0  0
    1.8787   -1.8445    0.6897 H   0  0  0  0  0  0  0  0  0  0  0  0
  1  2  2  0
  2  3  1  0
  3  4  1  0
  4  5  2  0
  5  6  1  0
  6  7  1  0
  7  8  1  0
  8  9  1  0
  6  1  1  0
  9  7  1  0
  7  3  1  0
  1 10  1  0
  2 11  1  0
  3 12  1  0
  4 13  1  0
  5 14  1  0
  6 15  1  0
  8 16  1  0
  8 17  1  0
  9 18  1  0
  9 19  1  0
M  END
