
     RDKit          3D

 17 20  0  0  0  0  0  0  0  0999 V2000
    1.3868    0.7905    0.3296 C   0  0  0  0  0  0  0  0  0  0  0  0
    1.5930   -0.5105    0.0124 C   0  0  0  0  0  0  0  0  0  0  0  0
    0.4289   -1.4620   -0.2869 C   0  0  0  0  0  0  0  0  0  0  0  0
   -1.0386   -1.2523   -0.4656 C   0  0  0  0  0  0  0  0  0  0  0  0
   -1.9774   -0.2290   -0.1402 O   0  0  0  0  0  0  0  0  0  0  0  0
   -1.3757    0.9957    0.1933 C   0  0  0  0  0  0  0  0  0  0  0  0
    0.0429    1.4510    0.4248 C   0  0  0  0  0  0  0  0  0  0  0  0
   -0.3443    0.6363   -0.5130 C   0  0  0  0  0  0  0  0  0  0  0  0
   -0.3360   -0.6875    0.4556 C   0  0  0  0  0  0  0  0  0  0  0  0
    2.2362    1.3657    0.5167 H   0  0  0  0  0  0  0  0  0  0  0  0
    2.5445   -0.9510   -0.0529 H   0  0  0  0  0  0  0  0  0  0  0  0
    0.6568   -2.5264   -0.0254 H   0  0  0  0  0  0  0  0  0  0  0  0
   -1.3035   -1.6438   -1.4185 H   0  0  0  0  0  0  0  0  0  0  0  0
   -2.0397    1.8359   -0.0819 H   0  0  0  0  0  0  0  0  0  0  0  0
    0.0437    2.2828    1.1027 H   0  0  0  0  0  0  0  0  0  0  0  0
   -0.1404    0.5357   -1.5478 H   0  0  0  0  0  0  0  0  0  0  0  0
   -0.3773   -0.6310    1.4970 H   0  0  0  0  0  0  0  0  0  0  0  0
  1  2  2  0
  2  3  1  0
  3  4  1  0
  4  5  1  0
  5  6  1  0
  6  7  1  0
  7  8  1  0
  8  9  1  0
  7  1  1  0
  9  3  1  0
  9  4  1  0
  8  6  1  0
  1 10  1  0
  2 11  1  0
  3 12  1  0
  4 13  1  0
  6 14  1  0
  7 15  1  0
  8 16  1  0
  9 17  1  0
M  END
