
     RDKit          3D

 19 20  0  0  0  0  0  0  0  0999 V2000
    2.1668   -0.3464    0.5888 C   0  0  0  0  0  0  0  0  0  0  0  0
    1.7080    0.8491    0.2574 C   0  0  0  0  0  0  0  0  0  0  0  0
    0.5697    0.9048   -0.6880 C   0  0  0  0  0  0  0  0  0  0  0  0
   -0.4057   -0.2114   -0.4719 C   0  0  0  0  0  0  0  0  0  0  0  0
   -1.4670    0.2016    0.5567 C   0  0  0  0  0  0  0  0  0  0  0  0
   -2.8537    0.2188    0.1831 C   0  0  0  0  0  0  0  0  0  0  0  0
   -2.1101    1.4708    0.2150 O   0  0  0  0  0  0  0  0  0  0  0  0
    0.1193   -1.3965   -0.0518 O   0  0  0  0  0  0  0  0  0  0  0  0
    1.4772   -1.5126   -0.0347 C   0  0  0  0  0  0  0  0  0  0  0  0
    3.0111   -0.4628    1.2869 H   0  0  0  0  0  0  0  0  0  0  0  0
    2.1181    1.7673    0.6378 H   0  0  0  0  0  0  0  0  0  0  0  0
    0.9973    0.8214   -1.7182 H   0  0  0  0  0  0  0  0  0  0  0  0
    0.0105    1.8632   -0.6370 H   0  0  0  0  0  0  0  0  0  0  0  0
   -0.9545   -0.3441   -1.4517 H   0  0  0  0  0  0  0  0  0  0  0  0
   -1.1971    0.1341    1.6318 H   0  0  0  0  0  0  0  0  0  0  0  0
   -3.1829   -0.0832   -0.8280 H   0  0  0  0  0  0  0  0  0  0  0  0
   -3.6211    0.2462    0.9804 H   0  0  0  0  0  0  0  0  0  0  0  0
    1.7504   -2.3878    0.5932 H   0  0  0  0  0  0  0  0  0  0  0  0
    1.8640   -1.7323   -1.0497 H   0  0  0  0  0  0  0  0  0  0  0  0
  1  2  2  0
  2  3  1  0
  3  4  1  0
  4  5  1  0
  5  6  1  0
  6  7  1  0
  4  8  1  0
  8  9  1  0
  9  1  1  0
  7  5  1  0
  1 10  1  0
  2 11  1  0
  3 12  1  0
  3 13  1  0
  4 14  1  0
  5 15  1  0
  6 16  1  0
  6 17  1  0
  9 18  1  0
  9 19  1  0
M  END
