
     RDKit          3D

 17 19  0  0  0  0  0  0  0  0999 V2000
    1.7745   -0.3220    0.2701 C   0  0  0  0  0  0  0  0  0  0  0  0
    1.2843    0.8059    0.7711 C   0  0  0  0  0  0  0  0  0  0  0  0
    0.0067    1.3060    0.2402 C   0  0  0  0  0  0  0  0  0  0  0  0
   -1.2221    0.5424    0.1652 C   0  0  0  0  0  0  0  0  0  0  0  0
   -1.3433   -0.9207    0.4196 C   0  0  0  0  0  0  0  0  0  0  0  0
   -0.1439   -1.5764    0.5707 O   0  0  0  0  0  0  0  0  0  0  0  0
    0.7403   -1.1833   -0.4147 C   0  0  0  0  0  0  0  0  0  0  0  0
    0.1920   -0.4423   -1.4217 O   0  0  0  0  0  0  0  0  0  0  0  0
   -0.3686    0.7446   -1.0667 C   0  0  0  0  0  0  0  0  0  0  0  0
    2.8140   -0.6113    0.3377 H   0  0  0  0  0  0  0  0  0  0  0  0
    1.8468    1.3161    1.5540 H   0  0  0  0  0  0  0  0  0  0  0  0
   -0.0983    2.4183    0.3312 H   0  0  0  0  0  0  0  0  0  0  0  0
   -2.1900    1.0916    0.1701 H   0  0  0  0  0  0  0  0  0  0  0  0
   -1.8474   -1.3732   -0.4786 H   0  0  0  0  0  0  0  0  0  0  0  0
   -2.0165   -1.1416    1.2736 H   0  0  0  0  0  0  0  0  0  0  0  0
    1.2731   -2.0474   -0.8524 H   0  0  0  0  0  0  0  0  0  0  0  0
   -0.7014    1.3934   -1.8694 H   0  0  0  0  0  0  0  0  0  0  0  0
  1  2  2  0
  2  3  1  0
  3  4  1  0
  4  5  1  0
  5  6  1  0
  6  7  1  0
  7  8  1  0
  8  9  1  0
  7  1  1  0
  9  3  1  0
  9  4  1  0
  1 10  1  0
  2 11  1  0
  3 12  1  0
  4 13  1  0
  5 14  1  0
  5 15  1  0
  7 16  1  0
  9 17  1  0
M  END
