
     RDKit          3D

 17 19  0  0  0  0  0  0  0  0999 V2000
    1.4588    0.8592    0.2632 C   0  0  0  0  0  0  0  0  0  0  0  0
    0.3530    1.5658    0.0847 C   0  0  0  0  0  0  0  0  0  0  0  0
   -0.9175    1.1091   -0.4273 C   0  0  0  0  0  0  0  0  0  0  0  0
   -1.9808    0.8382    0.4525 O   0  0  0  0  0  0  0  0  0  0  0  0
   -1.2616   -0.2799    0.8105 C   0  0  0  0  0  0  0  0  0  0  0  0
   -0.6807   -1.3795    0.0642 C   0  0  0  0  0  0  0  0  0  0  0  0
    0.8063   -1.5621   -0.1071 C   0  0  0  0  0  0  0  0  0  0  0  0
    1.6794   -0.5729   -0.0126 C   0  0  0  0  0  0  0  0  0  0  0  0
   -1.0858   -0.3121   -0.7336 C   0  0  0  0  0  0  0  0  0  0  0  0
    2.2954    1.4164    0.6606 H   0  0  0  0  0  0  0  0  0  0  0  0
    0.4071    2.6174    0.3564 H   0  0  0  0  0  0  0  0  0  0  0  0
   -1.2268    1.7581   -1.2866 H   0  0  0  0  0  0  0  0  0  0  0  0
   -0.4766    0.1152    1.4859 H   0  0  0  0  0  0  0  0  0  0  0  0
   -1.2017   -2.3462    0.1106 H   0  0  0  0  0  0  0  0  0  0  0  0
    1.1939   -2.5124   -0.3124 H   0  0  0  0  0  0  0  0  0  0  0  0
    2.7244   -0.8347   -0.1567 H   0  0  0  0  0  0  0  0  0  0  0  0
   -2.0868   -0.4797   -1.2524 H   0  0  0  0  0  0  0  0  0  0  0  0
  1  2  2  0
  2  3  1  0
  3  4  1  0
  4  5  1  0
  5  6  1  0
  6  7  1  0
  7  8  2  0
  6  9  1  0
  8  1  1  0
  9  3  1  0
  9  5  1  0
  1 10  1  0
  2 11  1  0
  3 12  1  0
  5 13  1  0
  6 14  1  0
  7 15  1  0
  8 16  1  0
  9 17  1  0
M  END
