
     RDKit          3D

 19 20  0  0  0  0  0  0  0  0999 V2000
    2.0541   -0.0226   -0.7368 C   0  0  0  0  0  0  0  0  0  0  0  0
    0.8937    0.6178   -0.7942 C   0  0  0  0  0  0  0  0  0  0  0  0
    0.1138    0.1351    0.4084 C   0  0  0  0  0  0  0  0  0  0  0  0
   -0.8004   -0.9935    0.0649 C   0  0  0  0  0  0  0  0  0  0  0  0
   -2.1198   -0.3329   -0.0772 C   0  0  0  0  0  0  0  0  0  0  0  0
   -2.0940    0.8966    0.4018 C   0  0  0  0  0  0  0  0  0  0  0  0
   -0.7465    1.2379    0.9361 C   0  0  0  0  0  0  0  0  0  0  0  0
    1.1187   -0.2596    1.3024 O   0  0  0  0  0  0  0  0  0  0  0  0
    2.0080   -0.8837    0.4631 C   0  0  0  0  0  0  0  0  0  0  0  0
    2.8927    0.0796   -1.4616 H   0  0  0  0  0  0  0  0  0  0  0  0
    0.5410    1.3239   -1.5066 H   0  0  0  0  0  0  0  0  0  0  0  0
   -0.8940   -1.7132    0.9099 H   0  0  0  0  0  0  0  0  0  0  0  0
   -0.4864   -1.5102   -0.8739 H   0  0  0  0  0  0  0  0  0  0  0  0
   -2.9892   -0.7981   -0.5159 H   0  0  0  0  0  0  0  0  0  0  0  0
   -2.9180    1.6034    0.4258 H   0  0  0  0  0  0  0  0  0  0  0  0
   -0.3964    2.2249    0.5591 H   0  0  0  0  0  0  0  0  0  0  0  0
   -0.7425    1.3029    2.0546 H   0  0  0  0  0  0  0  0  0  0  0  0
    1.5625   -1.8957    0.2272 H   0  0  0  0  0  0  0  0  0  0  0  0
    3.0026   -1.0129    0.9374 H   0  0  0  0  0  0  0  0  0  0  0  0
  1  2  2  0
  2  3  1  0
  3  4  1  0
  4  5  1  0
  5  6  2  0
  6  7  1  0
  3  8  1  0
  8  9  1  0
  9  1  1  0
  7  3  1  0
  1 10  1  0
  2 11  1  0
  4 12  1  0
  4 13  1  0
  5 14  1  0
  6 15  1  0
  7 16  1  0
  7 17  1  0
  9 18  1  0
  9 19  1  0
M  END
