
     RDKit          3D

 19 22  0  0  0  0  0  0  0  0999 V2000
    1.6898    1.0264   -0.0121 C   0  0  0  0  0  0  0  0  0  0  0  0
    1.1341    0.5818    1.1074 C   0  0  0  0  0  0  0  0  0  0  0  0
    0.4154   -0.7027    0.8224 C   0  0  0  0  0  0  0  0  0  0  0  0
    1.0761   -1.1439   -0.4392 C   0  0  0  0  0  0  0  0  0  0  0  0
    1.4111    0.1126   -1.1268 C   0  0  0  0  0  0  0  0  0  0  0  0
    0.0139   -0.4639   -1.2059 C   0  0  0  0  0  0  0  0  0  0  0  0
   -0.7774   -0.3873    0.0001 C   0  0  0  0  0  0  0  0  0  0  0  0
   -2.1377   -0.3839    0.3042 C   0  0  0  0  0  0  0  0  0  0  0  0
   -1.4636    0.9715    0.2623 C   0  0  0  0  0  0  0  0  0  0  0  0
    2.2626    1.9415   -0.0578 H   0  0  0  0  0  0  0  0  0  0  0  0
    1.1442    1.0087    2.1102 H   0  0  0  0  0  0  0  0  0  0  0  0
    0.3327   -1.4001    1.6434 H   0  0  0  0  0  0  0  0  0  0  0  0
    1.4751   -2.1121   -0.6261 H   0  0  0  0  0  0  0  0  0  0  0  0
    2.0146    0.1421   -2.0482 H   0  0  0  0  0  0  0  0  0  0  0  0
   -0.3260   -0.9185   -2.1556 H   0  0  0  0  0  0  0  0  0  0  0  0
   -2.9036   -0.6006   -0.4724 H   0  0  0  0  0  0  0  0  0  0  0  0
   -2.4904   -0.7374    1.3158 H   0  0  0  0  0  0  0  0  0  0  0  0
   -1.1798    1.4768    1.1962 H   0  0  0  0  0  0  0  0  0  0  0  0
   -1.6912    1.5890   -0.6179 H   0  0  0  0  0  0  0  0  0  0  0  0
  1  2  2  0
  2  3  1  0
  3  4  1  0
  4  5  1  0
  5  6  1  0
  6  7  1  0
  7  8  1  0
  8  9  1  0
  5  1  1  0
  9  7  1  0
  7  3  1  0
  6  4  1  0
  1 10  1  0
  2 11  1  0
  3 12  1  0
  4 13  1  0
  5 14  1  0
  6 15  1  0
  8 16  1  0
  8 17  1  0
  9 18  1  0
  9 19  1  0
M  END
