
     RDKit          3D

 19 21  0  0  0  0  0  0  0  0999 V2000
   -2.1670   -0.3941   -0.8051 C   0  0  0  0  0  0  0  0  0  0  0  0
   -2.1139    0.8226   -0.2823 C   0  0  0  0  0  0  0  0  0  0  0  0
   -0.9413    0.9546    0.6210 C   0  0  0  0  0  0  0  0  0  0  0  0
   -0.0468   -0.1335    0.1673 C   0  0  0  0  0  0  0  0  0  0  0  0
   -1.0229   -1.1941   -0.2940 C   0  0  0  0  0  0  0  0  0  0  0  0
    1.2104    0.0706   -0.5587 C   0  0  0  0  0  0  0  0  0  0  0  0
    2.4519    0.6146    0.0519 C   0  0  0  0  0  0  0  0  0  0  0  0
    1.9990    0.4038    1.3567 O   0  0  0  0  0  0  0  0  0  0  0  0
    1.1581   -0.5787    0.8475 C   0  0  0  0  0  0  0  0  0  0  0  0
   -2.9048   -0.7763   -1.4922 H   0  0  0  0  0  0  0  0  0  0  0  0
   -2.8311    1.6214   -0.4846 H   0  0  0  0  0  0  0  0  0  0  0  0
   -1.2264    0.8995    1.6909 H   0  0  0  0  0  0  0  0  0  0  0  0
   -0.5332    1.9743    0.4640 H   0  0  0  0  0  0  0  0  0  0  0  0
   -1.3558   -1.7509    0.6072 H   0  0  0  0  0  0  0  0  0  0  0  0
   -0.5962   -1.8697   -1.0384 H   0  0  0  0  0  0  0  0  0  0  0  0
    1.3887   -0.6239   -1.4156 H   0  0  0  0  0  0  0  0  0  0  0  0
    3.3429   -0.0607   -0.1109 H   0  0  0  0  0  0  0  0  0  0  0  0
    2.7273    1.6531   -0.1929 H   0  0  0  0  0  0  0  0  0  0  0  0
    1.4611   -1.6323    0.8682 H   0  0  0  0  0  0  0  0  0  0  0  0
  1  2  2  0
  2  3  1  0
  3  4  1  0
  4  5  1  0
  4  6  1  0
  6  7  1  0
  7  8  1  0
  8  9  1  0
  5  1  1  0
  9  6  1  0
  9  4  1  0
  1 10  1  0
  2 11  1  0
  3 12  1  0
  3 13  1  0
  5 14  1  0
  5 15  1  0
  6 16  1  0
  7 17  1  0
  7 18  1  0
  9 19  1  0
M  END
