
     RDKit          3D

 16 16  0  0  0  0  0  0  0  0999 V2000
    0.1693    1.4352   -0.2785 C   0  0  0  0  0  0  0  0  0  0  0  0
    1.3167    0.8231   -0.1450 C   0  0  0  0  0  0  0  0  0  0  0  0
    1.3049   -0.5659    0.3963 C   0  0  0  0  0  0  0  0  0  0  0  0
    0.1155   -1.2442   -0.2601 C   0  0  0  0  0  0  0  0  0  0  0  0
   -1.1941   -0.6079    0.1520 C   0  0  0  0  0  0  0  0  0  0  0  0
   -1.1531    0.8728    0.0606 C   0  0  0  0  0  0  0  0  0  0  0  0
    0.1910    2.4570   -0.6779 H   0  0  0  0  0  0  0  0  0  0  0  0
    2.2370    1.3218   -0.4228 H   0  0  0  0  0  0  0  0  0  0  0  0
    2.2084   -1.1043    0.0867 H   0  0  0  0  0  0  0  0  0  0  0  0
    1.1892   -0.5324    1.5078 H   0  0  0  0  0  0  0  0  0  0  0  0
    0.2138   -1.0532   -1.3610 H   0  0  0  0  0  0  0  0  0  0  0  0
    0.1675   -2.3026   -0.0303 H   0  0  0  0  0  0  0  0  0  0  0  0
   -1.9716   -1.0500   -0.5307 H   0  0  0  0  0  0  0  0  0  0  0  0
   -1.4849   -0.9774    1.1716 H   0  0  0  0  0  0  0  0  0  0  0  0
   -1.4418    1.3248    1.0549 H   0  0  0  0  0  0  0  0  0  0  0  0
   -1.8679    1.2031   -0.7236 H   0  0  0  0  0  0  0  0  0  0  0  0
  1  2  2  0
  2  3  1  0
  3  4  1  0
  4  5  1  0
  5  6  1  0
  6  1  1  0
  1  7  1  0
  2  8  1  0
  3  9  1  0
  3 10  1  0
  4 11  1  0
  4 12  1  0
  5 13  1  0
  5 14  1  0
  6 15  1  0
  6 16  1  0
M  END
