
     RDKit          3D

 21 22  0  0  0  0  0  0  0  0999 V2000
    2.0628    0.5749   -0.1949 C   0  0  0  0  0  0  0  0  0  0  0  0
    1.4017    1.0593    0.8334 C   0  0  0  0  0  0  0  0  0  0  0  0
    0.1108    0.4522    1.2533 C   0  0  0  0  0  0  0  0  0  0  0  0
   -0.5443   -0.3416    0.1548 C   0  0  0  0  0  0  0  0  0  0  0  0
    0.4374   -1.2861   -0.4392 C   0  0  0  0  0  0  0  0  0  0  0  0
    1.6303   -0.5737   -1.0205 C   0  0  0  0  0  0  0  0  0  0  0  0
   -1.4336    0.4115   -0.7755 C   0  0  0  0  0  0  0  0  0  0  0  0
   -2.4078    0.1300    0.3579 C   0  0  0  0  0  0  0  0  0  0  0  0
   -1.6636   -1.0034    0.6547 O   0  0  0  0  0  0  0  0  0  0  0  0
    2.9976    1.0529   -0.4596 H   0  0  0  0  0  0  0  0  0  0  0  0
    1.7605    1.9058    1.4098 H   0  0  0  0  0  0  0  0  0  0  0  0
    0.3625   -0.2792    2.0654 H   0  0  0  0  0  0  0  0  0  0  0  0
   -0.5340    1.2383    1.6636 H   0  0  0  0  0  0  0  0  0  0  0  0
    0.8167   -1.9483    0.3686 H   0  0  0  0  0  0  0  0  0  0  0  0
   -0.0601   -1.8586   -1.2503 H   0  0  0  0  0  0  0  0  0  0  0  0
    2.4451   -1.3414   -1.1142 H   0  0  0  0  0  0  0  0  0  0  0  0
    1.4127   -0.2344   -2.0605 H   0  0  0  0  0  0  0  0  0  0  0  0
   -1.6885   -0.1585   -1.6698 H   0  0  0  0  0  0  0  0  0  0  0  0
   -1.2067    1.4806   -0.9261 H   0  0  0  0  0  0  0  0  0  0  0  0
   -2.4732    0.8962    1.1285 H   0  0  0  0  0  0  0  0  0  0  0  0
   -3.4264   -0.1767    0.0205 H   0  0  0  0  0  0  0  0  0  0  0  0
  1  2  2  0
  2  3  1  0
  3  4  1  0
  4  5  1  0
  5  6  1  0
  4  7  1  0
  7  8  1  0
  8  9  1  0
  6  1  1  0
  9  4  1  0
  1 10  1  0
  2 11  1  0
  3 12  1  0
  3 13  1  0
  5 14  1  0
  5 15  1  0
  6 16  1  0
  6 17  1  0
  7 18  1  0
  7 19  1  0
  8 20  1  0
  8 21  1  0
M  END
