
     RDKit          3D

 19 20  0  0  0  0  0  0  0  0999 V2000
   -0.7594    1.4634    0.1065 C   0  0  0  0  0  0  0  0  0  0  0  0
    0.5481    1.2765    0.0439 C   0  0  0  0  0  0  0  0  0  0  0  0
    1.2923    0.0163    0.0215 C   0  0  0  0  0  0  0  0  0  0  0  0
    0.5588   -1.0595   -0.6669 C   0  0  0  0  0  0  0  0  0  0  0  0
   -0.6973   -1.4473   -0.4768 C   0  0  0  0  0  0  0  0  0  0  0  0
   -1.6505   -0.8352    0.5206 C   0  0  0  0  0  0  0  0  0  0  0  0
   -1.9311    0.5954    0.1745 C   0  0  0  0  0  0  0  0  0  0  0  0
    2.7836    0.0140    0.0546 C   0  0  0  0  0  0  0  0  0  0  0  0
    2.0296   -0.3766    1.1362 O   0  0  0  0  0  0  0  0  0  0  0  0
   -1.0196    2.5323    0.1073 H   0  0  0  0  0  0  0  0  0  0  0  0
    1.1555    2.1684    0.0035 H   0  0  0  0  0  0  0  0  0  0  0  0
    1.0824   -1.6305   -1.4359 H   0  0  0  0  0  0  0  0  0  0  0  0
   -1.0778   -2.2654   -1.0785 H   0  0  0  0  0  0  0  0  0  0  0  0
   -2.5699   -1.4294    0.5394 H   0  0  0  0  0  0  0  0  0  0  0  0
   -1.1594   -0.9312    1.5107 H   0  0  0  0  0  0  0  0  0  0  0  0
   -2.6744    1.0247    0.8541 H   0  0  0  0  0  0  0  0  0  0  0  0
   -2.4235    0.5839   -0.8422 H   0  0  0  0  0  0  0  0  0  0  0  0
    3.2683   -0.7240   -0.5959 H   0  0  0  0  0  0  0  0  0  0  0  0
    3.2441    1.0244    0.0235 H   0  0  0  0  0  0  0  0  0  0  0  0
  1  2  2  0
  2  3  1  0
  3  4  1  0
  4  5  2  0
  5  6  1  0
  6  7  1  0
  3  8  1  0
  8  9  1  0
  7  1  1  0
  9  3  1  0
  1 10  1  0
  2 11  1  0
  4 12  1  0
  5 13  1  0
  6 14  1  0
  6 15  1  0
  7 16  1  0
  7 17  1  0
  8 18  1  0
  8 19  1  0
M  END
