
     RDKit          3D

 19 20  0  0  0  0  0  0  0  0999 V2000
    1.7136    0.1505    1.0123 C   0  0  0  0  0  0  0  0  0  0  0  0
    0.3958    0.0882    1.1814 C   0  0  0  0  0  0  0  0  0  0  0  0
   -0.5173   -0.0638    0.0491 C   0  0  0  0  0  0  0  0  0  0  0  0
    0.1245   -0.6310   -1.1821 C   0  0  0  0  0  0  0  0  0  0  0  0
    1.4636   -0.9383   -1.0143 O   0  0  0  0  0  0  0  0  0  0  0  0
    2.1866    0.0551   -0.3990 C   0  0  0  0  0  0  0  0  0  0  0  0
   -1.8204   -0.7258    0.4514 C   0  0  0  0  0  0  0  0  0  0  0  0
   -2.2627    0.5315    0.8654 O   0  0  0  0  0  0  0  0  0  0  0  0
   -1.4515    1.0881   -0.1507 C   0  0  0  0  0  0  0  0  0  0  0  0
    2.4099    0.2628    1.8340 H   0  0  0  0  0  0  0  0  0  0  0  0
    0.0153    0.1537    2.1884 H   0  0  0  0  0  0  0  0  0  0  0  0
    0.0194    0.1295   -1.9907 H   0  0  0  0  0  0  0  0  0  0  0  0
   -0.4052   -1.5543   -1.4725 H   0  0  0  0  0  0  0  0  0  0  0  0
    3.2491   -0.2469   -0.3892 H   0  0  0  0  0  0  0  0  0  0  0  0
    2.0869    1.0514   -0.8872 H   0  0  0  0  0  0  0  0  0  0  0  0
   -2.4119   -1.1025   -0.4305 H   0  0  0  0  0  0  0  0  0  0  0  0
   -1.7473   -1.4299    1.2969 H   0  0  0  0  0  0  0  0  0  0  0  0
   -2.0185    1.0914   -1.0899 H   0  0  0  0  0  0  0  0  0  0  0  0
   -1.0300    2.0903    0.1272 H   0  0  0  0  0  0  0  0  0  0  0  0
  1  2  2  0
  2  3  1  0
  3  4  1  0
  4  5  1  0
  5  6  1  0
  3  7  1  0
  7  8  1  0
  8  9  1  0
  6  1  1  0
  9  3  1  0
  1 10  1  0
  2 11  1  0
  4 12  1  0
  4 13  1  0
  6 14  1  0
  6 15  1  0
  7 16  1  0
  7 17  1  0
  9 18  1  0
  9 19  1  0
M  END
