
     RDKit          3D

 18 18  0  0  0  0  0  0  0  0999 V2000
   -0.7180   -1.3444   -0.1813 C   0  0  0  0  0  0  0  0  0  0  0  0
    0.6009   -1.3652   -0.0968 C   0  0  0  0  0  0  0  0  0  0  0  0
    1.6204   -0.5742    0.6076 C   0  0  0  0  0  0  0  0  0  0  0  0
    1.9236    0.6277    0.0367 O   0  0  0  0  0  0  0  0  0  0  0  0
    0.9803    1.1316   -0.8240 C   0  0  0  0  0  0  0  0  0  0  0  0
   -0.2664    1.5739   -0.1802 C   0  0  0  0  0  0  0  0  0  0  0  0
   -1.3363    0.9482    0.3088 C   0  0  0  0  0  0  0  0  0  0  0  0
   -1.7570   -0.4762    0.4265 C   0  0  0  0  0  0  0  0  0  0  0  0
   -1.1294   -2.1145   -0.8225 H   0  0  0  0  0  0  0  0  0  0  0  0
    0.9823   -2.1877   -0.7188 H   0  0  0  0  0  0  0  0  0  0  0  0
    2.5659   -1.1872    0.6523 H   0  0  0  0  0  0  0  0  0  0  0  0
    1.2999   -0.4553    1.6602 H   0  0  0  0  0  0  0  0  0  0  0  0
    1.4401    2.0502   -1.2946 H   0  0  0  0  0  0  0  0  0  0  0  0
    0.7985    0.4340   -1.6864 H   0  0  0  0  0  0  0  0  0  0  0  0
   -0.3813    2.6450   -0.0556 H   0  0  0  0  0  0  0  0  0  0  0  0
   -2.0746    1.6580    0.7184 H   0  0  0  0  0  0  0  0  0  0  0  0
   -2.7439   -0.6019   -0.0618 H   0  0  0  0  0  0  0  0  0  0  0  0
   -1.8050   -0.7620    1.5116 H   0  0  0  0  0  0  0  0  0  0  0  0
  1  2  2  3
  2  3  1  0
  3  4  1  0
  4  5  1  0
  5  6  1  0
  6  7  2  3
  7  8  1  0
  8  1  1  0
  1  9  1  0
  2 10  1  0
  3 11  1  0
  3 12  1  0
  5 13  1  0
  5 14  1  0
  6 15  1  0
  7 16  1  0
  8 17  1  0
  8 18  1  0
M  END
