
     RDKit          3D

 17 19  0  0  0  0  0  0  0  0999 V2000
   -1.9801    0.6666   -0.3878 C   0  0  0  0  0  0  0  0  0  0  0  0
   -0.7810    1.1859   -0.4559 C   0  0  0  0  0  0  0  0  0  0  0  0
    0.2147    0.2915    0.0598 C   0  0  0  0  0  0  0  0  0  0  0  0
    1.4385    0.1982   -0.8457 C   0  0  0  0  0  0  0  0  0  0  0  0
    2.0110   -0.1665    0.5108 C   0  0  0  0  0  0  0  0  0  0  0  0
    1.0864    0.7441    1.0409 O   0  0  0  0  0  0  0  0  0  0  0  0
   -0.4373   -0.9911    0.3907 C   0  0  0  0  0  0  0  0  0  0  0  0
   -1.2302   -1.6867   -0.4839 O   0  0  0  0  0  0  0  0  0  0  0  0
   -1.8974   -0.6749    0.2019 C   0  0  0  0  0  0  0  0  0  0  0  0
   -2.9393    1.1195   -0.7081 H   0  0  0  0  0  0  0  0  0  0  0  0
   -0.6191    2.2002   -0.8728 H   0  0  0  0  0  0  0  0  0  0  0  0
    1.7275    1.1964   -1.1860 H   0  0  0  0  0  0  0  0  0  0  0  0
    1.4133   -0.6064   -1.5829 H   0  0  0  0  0  0  0  0  0  0  0  0
    1.7902   -1.2236    0.7648 H   0  0  0  0  0  0  0  0  0  0  0  0
    3.0616    0.1424    0.5615 H   0  0  0  0  0  0  0  0  0  0  0  0
   -0.2222   -1.4222    1.4062 H   0  0  0  0  0  0  0  0  0  0  0  0
   -2.6366   -0.9734    0.9643 H   0  0  0  0  0  0  0  0  0  0  0  0
  1  2  2  0
  2  3  1  0
  3  4  1  0
  4  5  1  0
  5  6  1  0
  3  7  1  0
  7  8  1  0
  8  9  1  0
  9  1  1  0
  6  3  1  0
  9  7  1  0
  1 10  1  0
  2 11  1  0
  4 12  1  0
  4 13  1  0
  5 14  1  0
  5 15  1  0
  7 16  1  0
  9 17  1  0
M  END
