
     RDKit          3D

 18 19  0  0  0  0  0  0  0  0999 V2000
   -1.8410    0.3560   -0.0356 C   0  0  0  0  0  0  0  0  0  0  0  0
   -0.9722    1.1512   -0.6462 C   0  0  0  0  0  0  0  0  0  0  0  0
    0.2133    0.3997   -1.0977 C   0  0  0  0  0  0  0  0  0  0  0  0
    1.3985    1.0210   -0.7991 O   0  0  0  0  0  0  0  0  0  0  0  0
    1.8736    0.5529    0.3957 C   0  0  0  0  0  0  0  0  0  0  0  0
    0.7802   -0.2637    1.0485 C   0  0  0  0  0  0  0  0  0  0  0  0
    0.1306   -0.8429   -0.2178 C   0  0  0  0  0  0  0  0  0  0  0  0
   -1.3281   -1.0412   -0.0086 C   0  0  0  0  0  0  0  0  0  0  0  0
   -2.8077    0.6428    0.4004 H   0  0  0  0  0  0  0  0  0  0  0  0
   -1.1164    2.2105   -0.7925 H   0  0  0  0  0  0  0  0  0  0  0  0
    0.1673    0.1195   -2.1706 H   0  0  0  0  0  0  0  0  0  0  0  0
    2.2491    1.3395    1.0767 H   0  0  0  0  0  0  0  0  0  0  0  0
    2.7313   -0.1417    0.1723 H   0  0  0  0  0  0  0  0  0  0  0  0
    0.0098    0.4070    1.4826 H   0  0  0  0  0  0  0  0  0  0  0  0
    1.1423   -1.0376    1.7200 H   0  0  0  0  0  0  0  0  0  0  0  0
    0.6778   -1.6905   -0.6144 H   0  0  0  0  0  0  0  0  0  0  0  0
   -1.5801   -1.5549    0.9506 H   0  0  0  0  0  0  0  0  0  0  0  0
   -1.7284   -1.6277   -0.8645 H   0  0  0  0  0  0  0  0  0  0  0  0
  1  2  2  0
  2  3  1  0
  3  4  1  0
  4  5  1  0
  5  6  1  0
  6  7  1  0
  7  8  1  0
  8  1  1  0
  7  3  1  0
  1  9  1  0
  2 10  1  0
  3 11  1  0
  5 12  1  0
  5 13  1  0
  6 14  1  0
  6 15  1  0
  7 16  1  0
  8 17  1  0
  8 18  1  0
M  END
