
     RDKit          3D

 21 22  0  0  0  0  0  0  0  0999 V2000
   -2.7870   -0.1267    0.2745 C   0  0  0  0  0  0  0  0  0  0  0  0
   -1.6165   -0.4991    0.7822 C   0  0  0  0  0  0  0  0  0  0  0  0
   -0.5166    0.0971   -0.0283 C   0  0  0  0  0  0  0  0  0  0  0  0
    0.6123   -0.6716   -0.0629 O   0  0  0  0  0  0  0  0  0  0  0  0
    1.6864    0.0875    0.3922 C   0  0  0  0  0  0  0  0  0  0  0  0
    3.0658   -0.2155   -0.1290 C   0  0  0  0  0  0  0  0  0  0  0  0
    2.6752   -0.6914    1.2485 C   0  0  0  0  0  0  0  0  0  0  0  0
   -1.1998    0.2258   -1.3752 C   0  0  0  0  0  0  0  0  0  0  0  0
   -2.5677    0.7479   -0.9159 C   0  0  0  0  0  0  0  0  0  0  0  0
   -3.7607   -0.3980    0.6430 H   0  0  0  0  0  0  0  0  0  0  0  0
   -1.5269   -1.1497    1.6678 H   0  0  0  0  0  0  0  0  0  0  0  0
   -0.3388    1.1271    0.3430 H   0  0  0  0  0  0  0  0  0  0  0  0
    1.4650    1.1320    0.6915 H   0  0  0  0  0  0  0  0  0  0  0  0
    3.7571    0.6451   -0.1503 H   0  0  0  0  0  0  0  0  0  0  0  0
    3.1997   -0.9711   -0.9307 H   0  0  0  0  0  0  0  0  0  0  0  0
    3.0538   -0.1300    2.1294 H   0  0  0  0  0  0  0  0  0  0  0  0
    2.5458   -1.7875    1.3432 H   0  0  0  0  0  0  0  0  0  0  0  0
   -0.6827    0.9255   -2.0269 H   0  0  0  0  0  0  0  0  0  0  0  0
   -1.3527   -0.7833   -1.8285 H   0  0  0  0  0  0  0  0  0  0  0  0
   -2.3802    1.7838   -0.5635 H   0  0  0  0  0  0  0  0  0  0  0  0
   -3.3315    0.6523   -1.6783 H   0  0  0  0  0  0  0  0  0  0  0  0
  1  2  2  0
  2  3  1  0
  3  4  1  0
  4  5  1  0
  5  6  1  0
  6  7  1  0
  3  8  1  0
  8  9  1  0
  9  1  1  0
  7  5  1  0
  1 10  1  0
  2 11  1  0
  3 12  1  0
  5 13  1  0
  6 14  1  0
  6 15  1  0
  7 16  1  0
  7 17  1  0
  8 18  1  0
  8 19  1  0
  9 20  1  0
  9 21  1  0
M  END
