
     RDKit          3D

 17 19  0  0  0  0  0  0  0  0999 V2000
    2.2260   -0.0598   -0.2746 C   0  0  0  0  0  0  0  0  0  0  0  0
    1.6030    1.0899   -0.1362 C   0  0  0  0  0  0  0  0  0  0  0  0
    0.1630    0.8880   -0.0216 C   0  0  0  0  0  0  0  0  0  0  0  0
   -1.0450    1.4338    0.0052 C   0  0  0  0  0  0  0  0  0  0  0  0
   -2.1031    0.4052    0.1752 C   0  0  0  0  0  0  0  0  0  0  0  0
   -1.3115   -0.8851    0.1007 C   0  0  0  0  0  0  0  0  0  0  0  0
   -0.5475   -1.0303    1.3682 O   0  0  0  0  0  0  0  0  0  0  0  0
   -0.0013   -0.5659    0.1299 C   0  0  0  0  0  0  0  0  0  0  0  0
    1.2621   -1.1800   -0.2689 C   0  0  0  0  0  0  0  0  0  0  0  0
    3.3130   -0.2071   -0.3825 H   0  0  0  0  0  0  0  0  0  0  0  0
    2.1027    2.0478   -0.1123 H   0  0  0  0  0  0  0  0  0  0  0  0
   -1.1970    2.5185   -0.0903 H   0  0  0  0  0  0  0  0  0  0  0  0
   -2.6103    0.5121    1.1576 H   0  0  0  0  0  0  0  0  0  0  0  0
   -2.8726    0.4485   -0.6125 H   0  0  0  0  0  0  0  0  0  0  0  0
   -1.8295   -1.8196   -0.1890 H   0  0  0  0  0  0  0  0  0  0  0  0
    1.5748   -1.9840    0.4591 H   0  0  0  0  0  0  0  0  0  0  0  0
    1.2733   -1.6120   -1.3081 H   0  0  0  0  0  0  0  0  0  0  0  0
  1  2  2  0
  2  3  1  0
  3  4  2  0
  4  5  1  0
  5  6  1  0
  6  7  1  0
  7  8  1  0
  8  9  1  0
  9  1  1  0
  8  3  1  0
  8  6  1  0
  1 10  1  0
  2 11  1  0
  4 12  1  0
  5 13  1  0
  5 14  1  0
  6 15  1  0
  9 16  1  0
  9 17  1  0
M  END
