
     RDKit          3D

 21 23  0  0  0  0  0  0  0  0999 V2000
    2.0082    0.5646   -0.2258 C   0  0  0  0  0  0  0  0  0  0  0  0
    1.0906    1.3914   -0.7011 C   0  0  0  0  0  0  0  0  0  0  0  0
   -0.3471    1.1266   -0.4369 C   0  0  0  0  0  0  0  0  0  0  0  0
   -0.8180   -0.1160   -1.2193 C   0  0  0  0  0  0  0  0  0  0  0  0
   -0.9801   -1.0676   -0.0858 C   0  0  0  0  0  0  0  0  0  0  0  0
   -1.7422   -0.1903    0.9214 C   0  0  0  0  0  0  0  0  0  0  0  0
   -0.4062    0.5651    0.9584 C   0  0  0  0  0  0  0  0  0  0  0  0
    0.2267   -0.7950    0.8134 C   0  0  0  0  0  0  0  0  0  0  0  0
    1.5521   -0.8056    0.1428 C   0  0  0  0  0  0  0  0  0  0  0  0
    3.0643    0.8675   -0.1047 H   0  0  0  0  0  0  0  0  0  0  0  0
    1.3914    2.2445   -1.2719 H   0  0  0  0  0  0  0  0  0  0  0  0
   -0.9913    1.9839   -0.6109 H   0  0  0  0  0  0  0  0  0  0  0  0
   -1.8263    0.1153   -1.6328 H   0  0  0  0  0  0  0  0  0  0  0  0
   -0.0899   -0.4137   -1.9742 H   0  0  0  0  0  0  0  0  0  0  0  0
   -1.3009   -2.0626   -0.2192 H   0  0  0  0  0  0  0  0  0  0  0  0
   -2.5528    0.3439    0.4134 H   0  0  0  0  0  0  0  0  0  0  0  0
   -1.9835   -0.7372    1.8336 H   0  0  0  0  0  0  0  0  0  0  0  0
   -0.1981    1.1684    1.7960 H   0  0  0  0  0  0  0  0  0  0  0  0
    0.1268   -1.4493    1.7117 H   0  0  0  0  0  0  0  0  0  0  0  0
    2.3393   -1.3459    0.7080 H   0  0  0  0  0  0  0  0  0  0  0  0
    1.4369   -1.3881   -0.8162 H   0  0  0  0  0  0  0  0  0  0  0  0
  1  2  2  0
  2  3  1  0
  3  4  1  0
  4  5  1  0
  5  6  1  0
  6  7  1  0
  7  8  1  0
  8  9  1  0
  9  1  1  0
  7  3  1  0
  8  5  1  0
  1 10  1  0
  2 11  1  0
  3 12  1  0
  4 13  1  0
  4 14  1  0
  5 15  1  0
  6 16  1  0
  6 17  1  0
  7 18  1  0
  8 19  1  0
  9 20  1  0
  9 21  1  0
M  END
