
     RDKit          3D

 19 21  0  0  0  0  0  0  0  0999 V2000
   -0.4829   -0.1420    1.5198 C   0  0  0  0  0  0  0  0  0  0  0  0
    0.5379   -0.1581    0.7084 C   0  0  0  0  0  0  0  0  0  0  0  0
    1.9920   -0.0255    0.5178 C   0  0  0  0  0  0  0  0  0  0  0  0
    2.0047    0.6659   -0.8598 C   0  0  0  0  0  0  0  0  0  0  0  0
    0.6971    0.5899   -1.3510 O   0  0  0  0  0  0  0  0  0  0  0  0
    0.0937   -0.4594   -0.6855 C   0  0  0  0  0  0  0  0  0  0  0  0
   -1.3795   -0.5068   -0.6874 C   0  0  0  0  0  0  0  0  0  0  0  0
   -2.1862    0.6265   -0.2454 C   0  0  0  0  0  0  0  0  0  0  0  0
   -1.7573   -0.4017    0.7706 C   0  0  0  0  0  0  0  0  0  0  0  0
   -0.5059    0.0266    2.5971 H   0  0  0  0  0  0  0  0  0  0  0  0
    2.4752    0.6170    1.2775 H   0  0  0  0  0  0  0  0  0  0  0  0
    2.4382   -1.0376    0.4473 H   0  0  0  0  0  0  0  0  0  0  0  0
    2.2684    1.7296   -0.7611 H   0  0  0  0  0  0  0  0  0  0  0  0
    2.6408    0.0959   -1.5356 H   0  0  0  0  0  0  0  0  0  0  0  0
    0.5646   -1.4336   -0.9768 H   0  0  0  0  0  0  0  0  0  0  0  0
   -1.8756   -1.3393   -1.2606 H   0  0  0  0  0  0  0  0  0  0  0  0
   -1.7819    1.6560   -0.1756 H   0  0  0  0  0  0  0  0  0  0  0  0
   -3.2610    0.6090   -0.5053 H   0  0  0  0  0  0  0  0  0  0  0  0
   -2.4822   -1.1124    1.2058 H   0  0  0  0  0  0  0  0  0  0  0  0
  1  2  2  0
  2  3  1  0
  3  4  1  0
  4  5  1  0
  5  6  1  0
  6  7  1  0
  7  8  1  0
  8  9  1  0
  9  1  1  0
  6  2  1  0
  9  7  1  0
  1 10  1  0
  3 11  1  0
  3 12  1  0
  4 13  1  0
  4 14  1  0
  6 15  1  0
  7 16  1  0
  8 17  1  0
  8 18  1  0
  9 19  1  0
M  END
