
     RDKit          3D

 19 21  0  0  0  0  0  0  0  0999 V2000
    0.0081    1.5479   -0.1960 C   0  0  0  0  0  0  0  0  0  0  0  0
    1.3156    1.2564   -0.1344 C   0  0  0  0  0  0  0  0  0  0  0  0
    1.8844    0.0910    0.5417 C   0  0  0  0  0  0  0  0  0  0  0  0
    2.5523   -0.9622    0.1651 O   0  0  0  0  0  0  0  0  0  0  0  0
    1.3506   -1.0701   -0.3388 C   0  0  0  0  0  0  0  0  0  0  0  0
    0.0167   -1.3741    0.2118 C   0  0  0  0  0  0  0  0  0  0  0  0
   -0.9870   -0.5526   -0.4771 C   0  0  0  0  0  0  0  0  0  0  0  0
   -2.1897    0.0683   -0.0838 C   0  0  0  0  0  0  0  0  0  0  0  0
   -1.0623    0.7571    0.3969 C   0  0  0  0  0  0  0  0  0  0  0  0
   -0.2356    2.4701   -0.7499 H   0  0  0  0  0  0  0  0  0  0  0  0
    1.9869    1.9686   -0.6417 H   0  0  0  0  0  0  0  0  0  0  0  0
    1.5506    0.0525    1.6254 H   0  0  0  0  0  0  0  0  0  0  0  0
    1.3223   -0.8779   -1.4544 H   0  0  0  0  0  0  0  0  0  0  0  0
   -0.2623   -2.4604    0.0778 H   0  0  0  0  0  0  0  0  0  0  0  0
    0.0126   -1.2414    1.3338 H   0  0  0  0  0  0  0  0  0  0  0  0
   -0.7185   -0.4008   -1.5689 H   0  0  0  0  0  0  0  0  0  0  0  0
   -2.8386    0.5688   -0.8562 H   0  0  0  0  0  0  0  0  0  0  0  0
   -2.8695   -0.4443    0.6476 H   0  0  0  0  0  0  0  0  0  0  0  0
   -0.8366    0.6029    1.5011 H   0  0  0  0  0  0  0  0  0  0  0  0
  1  2  2  0
  2  3  1  0
  3  4  1  0
  4  5  1  0
  5  6  1  0
  6  7  1  0
  7  8  1  0
  8  9  1  0
  9  1  1  0
  5  3  1  0
  9  7  1  0
  1 10  1  0
  2 11  1  0
  3 12  1  0
  5 13  1  0
  6 14  1  0
  6 15  1  0
  7 16  1  0
  8 17  1  0
  8 18  1  0
  9 19  1  0
M  END
