
     RDKit          3D

 23 24  0  0  0  0  0  0  0  0999 V2000
    0.6274    1.7396   -0.1097 C   0  0  0  0  0  0  0  0  0  0  0  0
   -0.6830    1.7184   -0.0871 C   0  0  0  0  0  0  0  0  0  0  0  0
   -1.6821    0.5980    0.0582 C   0  0  0  0  0  0  0  0  0  0  0  0
   -1.1771   -0.2627    1.1982 C   0  0  0  0  0  0  0  0  0  0  0  0
   -0.7135   -1.2608    0.1674 C   0  0  0  0  0  0  0  0  0  0  0  0
    0.7293   -1.4883    0.1230 C   0  0  0  0  0  0  0  0  0  0  0  0
    1.5708   -0.5057   -0.5936 C   0  0  0  0  0  0  0  0  0  0  0  0
    1.7435    0.8031    0.1678 C   0  0  0  0  0  0  0  0  0  0  0  0
   -1.3360   -0.5060   -0.9327 C   0  0  0  0  0  0  0  0  0  0  0  0
    0.9676    2.7412   -0.4254 H   0  0  0  0  0  0  0  0  0  0  0  0
   -1.1950    2.6564   -0.1879 H   0  0  0  0  0  0  0  0  0  0  0  0
   -2.7225    0.9012    0.0952 H   0  0  0  0  0  0  0  0  0  0  0  0
   -2.0071   -0.5961    1.8551 H   0  0  0  0  0  0  0  0  0  0  0  0
   -0.3932    0.1979    1.8189 H   0  0  0  0  0  0  0  0  0  0  0  0
   -1.2706   -2.2291    0.3433 H   0  0  0  0  0  0  0  0  0  0  0  0
    0.9251   -2.5012   -0.3322 H   0  0  0  0  0  0  0  0  0  0  0  0
    1.1208   -1.5743    1.1713 H   0  0  0  0  0  0  0  0  0  0  0  0
    1.2918   -0.3187   -1.6348 H   0  0  0  0  0  0  0  0  0  0  0  0
    2.6164   -0.9373   -0.6441 H   0  0  0  0  0  0  0  0  0  0  0  0
    1.8990    0.5885    1.2254 H   0  0  0  0  0  0  0  0  0  0  0  0
    2.6941    1.2746   -0.2025 H   0  0  0  0  0  0  0  0  0  0  0  0
   -2.2737   -0.9375   -1.3371 H   0  0  0  0  0  0  0  0  0  0  0  0
   -0.7319   -0.1013   -1.7367 H   0  0  0  0  0  0  0  0  0  0  0  0
  1  2  2  3
  2  3  1  0
  3  4  1  0
  4  5  1  0
  5  6  1  0
  6  7  1  0
  7  8  1  0
  5  9  1  0
  8  1  1  0
  9  3  1  0
  1 10  1  0
  2 11  1  0
  3 12  1  0
  4 13  1  0
  4 14  1  0
  5 15  1  0
  6 16  1  0
  6 17  1  0
  7 18  1  0
  7 19  1  0
  8 20  1  0
  8 21  1  0
  9 22  1  0
  9 23  1  0
M  END
