
     RDKit          3D

 23 24  0  0  0  0  0  0  0  0999 V2000
    2.4419    0.6547   -0.8053 C   0  0  0  0  0  0  0  0  0  0  0  0
    2.9615   -0.2714   -0.0565 C   0  0  0  0  0  0  0  0  0  0  0  0
    1.8952   -0.9831    0.6760 C   0  0  0  0  0  0  0  0  0  0  0  0
    0.6115   -0.6934   -0.1066 C   0  0  0  0  0  0  0  0  0  0  0  0
   -0.5318   -0.6622    0.8402 C   0  0  0  0  0  0  0  0  0  0  0  0
   -1.8627   -0.3960    0.2469 C   0  0  0  0  0  0  0  0  0  0  0  0
   -2.2490    0.7939   -0.4925 C   0  0  0  0  0  0  0  0  0  0  0  0
   -2.7694    0.6161    0.9529 C   0  0  0  0  0  0  0  0  0  0  0  0
    0.9785    0.6765   -0.6667 C   0  0  0  0  0  0  0  0  0  0  0  0
    3.0082    1.3287   -1.4518 H   0  0  0  0  0  0  0  0  0  0  0  0
    4.0116   -0.5186    0.0456 H   0  0  0  0  0  0  0  0  0  0  0  0
    1.8311   -0.5378    1.6861 H   0  0  0  0  0  0  0  0  0  0  0  0
    2.1100   -2.0688    0.6895 H   0  0  0  0  0  0  0  0  0  0  0  0
    0.5379   -1.3931   -0.9323 H   0  0  0  0  0  0  0  0  0  0  0  0
   -0.5520   -1.6323    1.3879 H   0  0  0  0  0  0  0  0  0  0  0  0
   -0.2871    0.0965    1.6416 H   0  0  0  0  0  0  0  0  0  0  0  0
   -2.4363   -1.3356   -0.0152 H   0  0  0  0  0  0  0  0  0  0  0  0
   -1.6690    1.7052   -0.6166 H   0  0  0  0  0  0  0  0  0  0  0  0
   -3.0546    0.7014   -1.2792 H   0  0  0  0  0  0  0  0  0  0  0  0
   -2.3219    1.2515    1.7351 H   0  0  0  0  0  0  0  0  0  0  0  0
   -3.8361    0.4075    1.0626 H   0  0  0  0  0  0  0  0  0  0  0  0
    0.5523    0.7700   -1.7008 H   0  0  0  0  0  0  0  0  0  0  0  0
    0.6303    1.4903   -0.0008 H   0  0  0  0  0  0  0  0  0  0  0  0
  1  2  2  0
  2  3  1  0
  3  4  1  0
  4  5  1  0
  5  6  1  0
  6  7  1  0
  7  8  1  0
  4  9  1  0
  9  1  1  0
  8  6  1  0
  1 10  1  0
  2 11  1  0
  3 12  1  0
  3 13  1  0
  4 14  1  0
  5 15  1  0
  5 16  1  0
  6 17  1  0
  7 18  1  0
  7 19  1  0
  8 20  1  0
  8 21  1  0
  9 22  1  0
  9 23  1  0
M  END
