
     RDKit          3D

 19 20  0  0  0  0  0  0  0  0999 V2000
   -1.4310    0.9194    0.3414 C   0  0  0  0  0  0  0  0  0  0  0  0
   -0.2779    1.3774   -0.1080 C   0  0  0  0  0  0  0  0  0  0  0  0
    0.6679    0.6857   -0.9972 C   0  0  0  0  0  0  0  0  0  0  0  0
    1.9691    1.1241   -0.7387 O   0  0  0  0  0  0  0  0  0  0  0  0
    1.9383    0.2642    0.3828 C   0  0  0  0  0  0  0  0  0  0  0  0
    1.1001   -0.6599   -0.4716 C   0  0  0  0  0  0  0  0  0  0  0  0
    0.0196   -1.3970    0.2621 C   0  0  0  0  0  0  0  0  0  0  0  0
   -1.2028   -1.3547   -0.3546 O   0  0  0  0  0  0  0  0  0  0  0  0
   -2.0651   -0.3889    0.0732 C   0  0  0  0  0  0  0  0  0  0  0  0
   -1.9388    1.6288    0.9843 H   0  0  0  0  0  0  0  0  0  0  0  0
    0.0319    2.3872    0.2034 H   0  0  0  0  0  0  0  0  0  0  0  0
    0.4162    0.6873   -2.0742 H   0  0  0  0  0  0  0  0  0  0  0  0
    1.3231    0.6640    1.2141 H   0  0  0  0  0  0  0  0  0  0  0  0
    2.9156   -0.1474    0.6326 H   0  0  0  0  0  0  0  0  0  0  0  0
    1.6654   -1.2077   -1.2267 H   0  0  0  0  0  0  0  0  0  0  0  0
   -0.0055   -1.1327    1.3451 H   0  0  0  0  0  0  0  0  0  0  0  0
    0.3302   -2.4858    0.2562 H   0  0  0  0  0  0  0  0  0  0  0  0
   -2.6026   -0.6980    1.0022 H   0  0  0  0  0  0  0  0  0  0  0  0
   -2.8538   -0.2659   -0.7262 H   0  0  0  0  0  0  0  0  0  0  0  0
  1  2  2  0
  2  3  1  0
  3  4  1  0
  4  5  1  0
  5  6  1  0
  6  7  1  0
  7  8  1  0
  8  9  1  0
  9  1  1  0
  6  3  1  0
  1 10  1  0
  2 11  1  0
  3 12  1  0
  5 13  1  0
  5 14  1  0
  6 15  1  0
  7 16  1  0
  7 17  1  0
  9 18  1  0
  9 19  1  0
M  END
