
     RDKit          3D

 16 19  0  0  0  0  0  0  0  0999 V2000
    1.6464   -0.0465    0.4284 C   0  0  0  0  0  0  0  0  0  0  0  0
    1.2201   -1.1477   -0.1698 C   0  0  0  0  0  0  0  0  0  0  0  0
   -0.1224   -0.9499   -0.7501 C   0  0  0  0  0  0  0  0  0  0  0  0
   -0.1158    0.5542   -0.9404 C   0  0  0  0  0  0  0  0  0  0  0  0
    0.6086    1.0123    0.3023 C   0  0  0  0  0  0  0  0  0  0  0  0
   -0.6696    0.5946    1.0376 C   0  0  0  0  0  0  0  0  0  0  0  0
   -1.1357   -0.6765    0.3519 C   0  0  0  0  0  0  0  0  0  0  0  0
   -1.3828    0.6261   -0.2061 C   0  0  0  0  0  0  0  0  0  0  0  0
    2.5953    0.0515    0.9230 H   0  0  0  0  0  0  0  0  0  0  0  0
    1.7799   -2.0654   -0.2247 H   0  0  0  0  0  0  0  0  0  0  0  0
   -0.4349   -1.5592   -1.5708 H   0  0  0  0  0  0  0  0  0  0  0  0
    0.0707    0.9812   -1.8761 H   0  0  0  0  0  0  0  0  0  0  0  0
    0.9033    2.0353    0.3809 H   0  0  0  0  0  0  0  0  0  0  0  0
   -0.9098    0.8810    2.0150 H   0  0  0  0  0  0  0  0  0  0  0  0
   -1.7684   -1.3972    0.7816 H   0  0  0  0  0  0  0  0  0  0  0  0
   -2.2848    1.1061   -0.4826 H   0  0  0  0  0  0  0  0  0  0  0  0
  1  2  2  0
  2  3  1  0
  3  4  1  0
  4  5  1  0
  5  6  1  0
  6  7  1  0
  7  8  1  0
  5  1  1  0
  8  6  1  0
  7  3  1  0
  8  4  1  0
  1  9  1  0
  2 10  1  0
  3 11  1  0
  4 12  1  0
  5 13  1  0
  6 14  1  0
  7 15  1  0
  8 16  1  0
M  END
