
     RDKit          3D

 21 22  0  0  0  0  0  0  0  0999 V2000
    1.7806   -1.1070   -0.1447 C   0  0  0  0  0  0  0  0  0  0  0  0
    0.5674   -0.6459   -0.4173 C   0  0  0  0  0  0  0  0  0  0  0  0
   -0.7505   -1.1621   -0.8463 C   0  0  0  0  0  0  0  0  0  0  0  0
   -1.7972   -0.8030    0.2026 C   0  0  0  0  0  0  0  0  0  0  0  0
   -1.6761    0.5825    0.7045 C   0  0  0  0  0  0  0  0  0  0  0  0
   -0.6473    1.4551    0.1137 C   0  0  0  0  0  0  0  0  0  0  0  0
    0.6587    0.8234   -0.2047 C   0  0  0  0  0  0  0  0  0  0  0  0
    1.6352    0.9359    0.7495 O   0  0  0  0  0  0  0  0  0  0  0  0
    2.6402    0.0720    0.2459 C   0  0  0  0  0  0  0  0  0  0  0  0
    2.0476   -2.1549   -0.2089 H   0  0  0  0  0  0  0  0  0  0  0  0
   -1.0438   -0.6298   -1.7720 H   0  0  0  0  0  0  0  0  0  0  0  0
   -0.7678   -2.2456   -1.0185 H   0  0  0  0  0  0  0  0  0  0  0  0
   -1.6306   -1.5228    1.0321 H   0  0  0  0  0  0  0  0  0  0  0  0
   -2.8095   -1.0384   -0.1899 H   0  0  0  0  0  0  0  0  0  0  0  0
   -2.6748    1.0927    0.5477 H   0  0  0  0  0  0  0  0  0  0  0  0
   -1.5645    0.5559    1.8258 H   0  0  0  0  0  0  0  0  0  0  0  0
   -0.4421    2.2934    0.8432 H   0  0  0  0  0  0  0  0  0  0  0  0
   -1.0333    1.9634   -0.7940 H   0  0  0  0  0  0  0  0  0  0  0  0
    1.0729    1.2720   -1.1470 H   0  0  0  0  0  0  0  0  0  0  0  0
    3.2733   -0.2371    1.0859 H   0  0  0  0  0  0  0  0  0  0  0  0
    3.1617    0.5002   -0.6079 H   0  0  0  0  0  0  0  0  0  0  0  0
  1  2  2  0
  2  3  1  0
  3  4  1  0
  4  5  1  0
  5  6  1  0
  6  7  1  0
  7  8  1  0
  8  9  1  0
  9  1  1  0
  7  2  1  0
  1 10  1  0
  3 11  1  0
  3 12  1  0
  4 13  1  0
  4 14  1  0
  5 15  1  0
  5 16  1  0
  6 17  1  0
  6 18  1  0
  7 19  1  0
  9 20  1  0
  9 21  1  0
M  END
