
     RDKit          3D

 19 20  0  0  0  0  0  0  0  0999 V2000
    1.0838   -1.1070   -0.7530 C   0  0  0  0  0  0  0  0  0  0  0  0
   -0.1431   -0.7799   -0.3968 C   0  0  0  0  0  0  0  0  0  0  0  0
   -1.5233   -1.2209   -0.6974 C   0  0  0  0  0  0  0  0  0  0  0  0
   -2.2248   -0.0330   -0.6963 O   0  0  0  0  0  0  0  0  0  0  0  0
   -1.7073    0.7843    0.2746 C   0  0  0  0  0  0  0  0  0  0  0  0
   -0.3067    0.3308    0.5762 C   0  0  0  0  0  0  0  0  0  0  0  0
    0.7177    1.3976    0.4548 C   0  0  0  0  0  0  0  0  0  0  0  0
    1.8900    1.0368   -0.1388 O   0  0  0  0  0  0  0  0  0  0  0  0
    2.1750   -0.3077   -0.1246 C   0  0  0  0  0  0  0  0  0  0  0  0
    1.2282   -1.9008   -1.4500 H   0  0  0  0  0  0  0  0  0  0  0  0
   -1.8802   -1.8342    0.1760 H   0  0  0  0  0  0  0  0  0  0  0  0
   -1.6288   -1.7598   -1.6384 H   0  0  0  0  0  0  0  0  0  0  0  0
   -1.7598    1.8309   -0.0834 H   0  0  0  0  0  0  0  0  0  0  0  0
   -2.3238    0.7397    1.1965 H   0  0  0  0  0  0  0  0  0  0  0  0
   -0.2588   -0.1462    1.5958 H   0  0  0  0  0  0  0  0  0  0  0  0
    0.9704    1.7832    1.4870 H   0  0  0  0  0  0  0  0  0  0  0  0
    0.3100    2.3115   -0.0699 H   0  0  0  0  0  0  0  0  0  0  0  0
    3.1386   -0.4562   -0.6484 H   0  0  0  0  0  0  0  0  0  0  0  0
    2.2430   -0.6691    0.9360 H   0  0  0  0  0  0  0  0  0  0  0  0
  1  2  2  0
  2  3  1  0
  3  4  1  0
  4  5  1  0
  5  6  1  0
  6  7  1  0
  7  8  1  0
  8  9  1  0
  9  1  1  0
  6  2  1  0
  1 10  1  0
  3 11  1  0
  3 12  1  0
  5 13  1  0
  5 14  1  0
  6 15  1  0
  7 16  1  0
  7 17  1  0
  9 18  1  0
  9 19  1  0
M  END
