
     RDKit          3D

 20 21  0  0  0  0  0  0  0  0999 V2000
   -0.7052    0.5855   -0.7462 C   0  0  0  0  0  0  0  0  0  0  0  0
    0.0337    0.0038    0.1787 C   0  0  0  0  0  0  0  0  0  0  0  0
    1.5144    0.0662    0.3665 C   0  0  0  0  0  0  0  0  0  0  0  0
    2.2775   -0.6069   -0.7610 C   0  0  0  0  0  0  0  0  0  0  0  0
    2.3444    0.8643   -0.5655 C   0  0  0  0  0  0  0  0  0  0  0  0
   -0.8427   -0.7907    1.0603 C   0  0  0  0  0  0  0  0  0  0  0  0
   -2.1409   -0.0264    0.9960 C   0  0  0  0  0  0  0  0  0  0  0  0
   -2.1606    0.2306   -0.5289 C   0  0  0  0  0  0  0  0  0  0  0  0
   -0.2961    1.2174   -1.5305 H   0  0  0  0  0  0  0  0  0  0  0  0
    1.8638    0.0126    1.3964 H   0  0  0  0  0  0  0  0  0  0  0  0
    1.7265   -1.0407   -1.6094 H   0  0  0  0  0  0  0  0  0  0  0  0
    3.1210   -1.2392   -0.4234 H   0  0  0  0  0  0  0  0  0  0  0  0
    1.7813    1.5186   -1.2734 H   0  0  0  0  0  0  0  0  0  0  0  0
    3.2901    1.2932   -0.2073 H   0  0  0  0  0  0  0  0  0  0  0  0
   -0.4507   -0.8941    2.0851 H   0  0  0  0  0  0  0  0  0  0  0  0
   -1.0191   -1.7625    0.5605 H   0  0  0  0  0  0  0  0  0  0  0  0
   -2.1392    0.9097    1.5564 H   0  0  0  0  0  0  0  0  0  0  0  0
   -2.9977   -0.6754    1.2547 H   0  0  0  0  0  0  0  0  0  0  0  0
   -2.3711   -0.7215   -1.0407 H   0  0  0  0  0  0  0  0  0  0  0  0
   -2.8293    1.0557   -0.7682 H   0  0  0  0  0  0  0  0  0  0  0  0
  1  2  2  0
  2  3  1  0
  3  4  1  0
  4  5  1  0
  2  6  1  0
  6  7  1  0
  7  8  1  0
  8  1  1  0
  5  3  1  0
  1  9  1  0
  3 10  1  0
  4 11  1  0
  4 12  1  0
  5 13  1  0
  5 14  1  0
  6 15  1  0
  6 16  1  0
  7 17  1  0
  7 18  1  0
  8 19  1  0
  8 20  1  0
M  END
