
     RDKit          3D

 21 22  0  0  0  0  0  0  0  0999 V2000
    1.1934    1.3402    0.1985 C   0  0  0  0  0  0  0  0  0  0  0  0
   -0.0986    1.5895    0.1295 C   0  0  0  0  0  0  0  0  0  0  0  0
   -1.2954    0.7092    0.2720 C   0  0  0  0  0  0  0  0  0  0  0  0
   -1.7135    0.1372   -1.0690 C   0  0  0  0  0  0  0  0  0  0  0  0
   -0.8851   -0.9115   -1.3456 O   0  0  0  0  0  0  0  0  0  0  0  0
   -0.1826   -1.2665   -0.1992 C   0  0  0  0  0  0  0  0  0  0  0  0
    1.2487   -0.9907   -0.4012 C   0  0  0  0  0  0  0  0  0  0  0  0
    1.8639    0.0569    0.4797 C   0  0  0  0  0  0  0  0  0  0  0  0
   -0.8524   -0.5984    0.9471 C   0  0  0  0  0  0  0  0  0  0  0  0
    1.8411    2.1746    0.0291 H   0  0  0  0  0  0  0  0  0  0  0  0
   -0.3480    2.6295   -0.0681 H   0  0  0  0  0  0  0  0  0  0  0  0
   -2.1070    1.1413    0.8500 H   0  0  0  0  0  0  0  0  0  0  0  0
   -1.7230    0.9270   -1.8529 H   0  0  0  0  0  0  0  0  0  0  0  0
   -2.7448   -0.2755   -0.9188 H   0  0  0  0  0  0  0  0  0  0  0  0
   -0.3199   -2.3758   -0.0579 H   0  0  0  0  0  0  0  0  0  0  0  0
    1.8724   -1.9267   -0.2977 H   0  0  0  0  0  0  0  0  0  0  0  0
    1.4621   -0.6573   -1.4612 H   0  0  0  0  0  0  0  0  0  0  0  0
    2.9587    0.0884    0.1982 H   0  0  0  0  0  0  0  0  0  0  0  0
    1.8608   -0.2109    1.5536 H   0  0  0  0  0  0  0  0  0  0  0  0
   -0.2440   -0.4293    1.8248 H   0  0  0  0  0  0  0  0  0  0  0  0
   -1.7870   -1.1512    1.1892 H   0  0  0  0  0  0  0  0  0  0  0  0
  1  2  2  0
  2  3  1  0
  3  4  1  0
  4  5  1  0
  5  6  1  0
  6  7  1  0
  7  8  1  0
  6  9  1  0
  8  1  1  0
  9  3  1  0
  1 10  1  0
  2 11  1  0
  3 12  1  0
  4 13  1  0
  4 14  1  0
  6 15  1  0
  7 16  1  0
  7 17  1  0
  8 18  1  0
  8 19  1  0
  9 20  1  0
  9 21  1  0
M  END
