
     RDKit          3D

 19 21  0  0  0  0  0  0  0  0999 V2000
    0.0705    1.6393   -0.1538 C   0  0  0  0  0  0  0  0  0  0  0  0
    1.2732    1.1724    0.1419 C   0  0  0  0  0  0  0  0  0  0  0  0
    1.8119   -0.2076    0.2202 C   0  0  0  0  0  0  0  0  0  0  0  0
    1.5011   -0.8678    1.4488 O   0  0  0  0  0  0  0  0  0  0  0  0
    0.9297   -1.2850    0.2420 C   0  0  0  0  0  0  0  0  0  0  0  0
   -0.5325   -1.1316    0.0293 C   0  0  0  0  0  0  0  0  0  0  0  0
   -1.2110   -0.1233    0.9016 C   0  0  0  0  0  0  0  0  0  0  0  0
   -1.1731    0.8420   -0.2932 C   0  0  0  0  0  0  0  0  0  0  0  0
   -0.8960   -0.3514   -1.1948 C   0  0  0  0  0  0  0  0  0  0  0  0
   -0.0587    2.6943   -0.3160 H   0  0  0  0  0  0  0  0  0  0  0  0
    2.0178    1.9271    0.3735 H   0  0  0  0  0  0  0  0  0  0  0  0
    2.8477   -0.3046   -0.1568 H   0  0  0  0  0  0  0  0  0  0  0  0
    1.3161   -2.3032   -0.0629 H   0  0  0  0  0  0  0  0  0  0  0  0
   -1.0865   -2.1076    0.0149 H   0  0  0  0  0  0  0  0  0  0  0  0
   -2.2657   -0.3901    1.1337 H   0  0  0  0  0  0  0  0  0  0  0  0
   -0.6144    0.2527    1.7592 H   0  0  0  0  0  0  0  0  0  0  0  0
   -2.0933    1.3866   -0.4791 H   0  0  0  0  0  0  0  0  0  0  0  0
   -0.0292   -0.2100   -1.8825 H   0  0  0  0  0  0  0  0  0  0  0  0
   -1.8076   -0.6322   -1.7262 H   0  0  0  0  0  0  0  0  0  0  0  0
  1  2  2  0
  2  3  1  0
  3  4  1  0
  4  5  1  0
  5  6  1  0
  6  7  1  0
  7  8  1  0
  8  9  1  0
  8  1  1  0
  5  3  1  0
  9  6  1  0
  1 10  1  0
  2 11  1  0
  3 12  1  0
  5 13  1  0
  6 14  1  0
  7 15  1  0
  7 16  1  0
  8 17  1  0
  9 18  1  0
  9 19  1  0
M  END
