
     RDKit          3D

 17 19  0  0  0  0  0  0  0  0999 V2000
   -1.6185   -0.7736   -0.3225 C   0  0  0  0  0  0  0  0  0  0  0  0
   -0.8516   -1.0617    0.7182 C   0  0  0  0  0  0  0  0  0  0  0  0
    0.2446   -0.1128    0.9047 C   0  0  0  0  0  0  0  0  0  0  0  0
    0.0706    1.3346    1.0360 C   0  0  0  0  0  0  0  0  0  0  0  0
    0.1603    0.7348   -0.3170 C   0  0  0  0  0  0  0  0  0  0  0  0
   -1.1313    0.4383   -0.9947 C   0  0  0  0  0  0  0  0  0  0  0  0
    1.3675    0.5281   -0.9411 O   0  0  0  0  0  0  0  0  0  0  0  0
    1.9685   -0.5736   -0.3425 C   0  0  0  0  0  0  0  0  0  0  0  0
    1.5587   -0.5813    0.9833 O   0  0  0  0  0  0  0  0  0  0  0  0
   -2.5039   -1.3373   -0.6673 H   0  0  0  0  0  0  0  0  0  0  0  0
   -1.0345   -1.9146    1.3513 H   0  0  0  0  0  0  0  0  0  0  0  0
   -0.9146    1.7887    1.3162 H   0  0  0  0  0  0  0  0  0  0  0  0
    0.9167    1.9211    1.4239 H   0  0  0  0  0  0  0  0  0  0  0  0
   -1.8564    1.2871   -0.8246 H   0  0  0  0  0  0  0  0  0  0  0  0
   -1.0590    0.3416   -2.0916 H   0  0  0  0  0  0  0  0  0  0  0  0
    3.0683   -0.4779   -0.4485 H   0  0  0  0  0  0  0  0  0  0  0  0
    1.6145   -1.5415   -0.7838 H   0  0  0  0  0  0  0  0  0  0  0  0
  1  2  2  0
  2  3  1  0
  3  4  1  0
  4  5  1  0
  5  6  1  0
  5  7  1  0
  7  8  1  0
  8  9  1  0
  6  1  1  0
  5  3  1  0
  9  3  1  0
  1 10  1  0
  2 11  1  0
  4 12  1  0
  4 13  1  0
  6 14  1  0
  6 15  1  0
  8 16  1  0
  8 17  1  0
M  END
