
     RDKit          3D

 19 21  0  0  0  0  0  0  0  0999 V2000
    1.6853    0.6836   -0.2024 C   0  0  0  0  0  0  0  0  0  0  0  0
    1.6826   -0.6404   -0.2996 C   0  0  0  0  0  0  0  0  0  0  0  0
    0.3197   -1.1993   -0.5775 C   0  0  0  0  0  0  0  0  0  0  0  0
   -0.0744   -0.3618   -1.6637 O   0  0  0  0  0  0  0  0  0  0  0  0
   -0.6037    0.7425   -0.9582 C   0  0  0  0  0  0  0  0  0  0  0  0
   -1.6938   -0.0609   -0.2130 C   0  0  0  0  0  0  0  0  0  0  0  0
   -0.6508   -0.9079    0.5376 C   0  0  0  0  0  0  0  0  0  0  0  0
   -0.0567    0.2447    1.3553 C   0  0  0  0  0  0  0  0  0  0  0  0
    0.2896    1.1648    0.1639 C   0  0  0  0  0  0  0  0  0  0  0  0
    2.5139    1.3438   -0.3499 H   0  0  0  0  0  0  0  0  0  0  0  0
    2.5070   -1.3106   -0.2061 H   0  0  0  0  0  0  0  0  0  0  0  0
    0.3512   -2.2474   -0.8823 H   0  0  0  0  0  0  0  0  0  0  0  0
   -1.0014    1.5129   -1.5801 H   0  0  0  0  0  0  0  0  0  0  0  0
   -2.2768    0.5644    0.4518 H   0  0  0  0  0  0  0  0  0  0  0  0
   -2.2238   -0.6247   -0.9674 H   0  0  0  0  0  0  0  0  0  0  0  0
   -1.0359   -1.7169    1.0891 H   0  0  0  0  0  0  0  0  0  0  0  0
    0.8171   -0.1118    1.8879 H   0  0  0  0  0  0  0  0  0  0  0  0
   -0.8167    0.7149    1.9887 H   0  0  0  0  0  0  0  0  0  0  0  0
    0.2678    2.2100    0.4259 H   0  0  0  0  0  0  0  0  0  0  0  0
  1  2  2  0
  2  3  1  0
  3  4  1  0
  4  5  1  0
  5  6  1  0
  6  7  1  0
  7  8  1  0
  8  9  1  0
  9  1  1  0
  7  3  1  0
  9  5  1  0
  1 10  1  0
  2 11  1  0
  3 12  1  0
  5 13  1  0
  6 14  1  0
  6 15  1  0
  7 16  1  0
  8 17  1  0
  8 18  1  0
  9 19  1  0
M  END
