
     RDKit          3D

 21 22  0  0  0  0  0  0  0  0999 V2000
   -1.5452   -0.4085    0.9124 C   0  0  0  0  0  0  0  0  0  0  0  0
   -1.2059    0.8155    0.5383 C   0  0  0  0  0  0  0  0  0  0  0  0
   -0.4135    1.0997   -0.6891 C   0  0  0  0  0  0  0  0  0  0  0  0
    0.9188    1.6594   -0.2689 C   0  0  0  0  0  0  0  0  0  0  0  0
    1.5224    0.7036    0.6960 C   0  0  0  0  0  0  0  0  0  0  0  0
    1.4359   -0.5907    0.4137 C   0  0  0  0  0  0  0  0  0  0  0  0
    0.3631   -1.1946   -0.4060 C   0  0  0  0  0  0  0  0  0  0  0  0
   -0.7401   -1.6202    0.5683 C   0  0  0  0  0  0  0  0  0  0  0  0
   -0.2333   -0.2378   -1.4035 C   0  0  0  0  0  0  0  0  0  0  0  0
   -2.4505   -0.5855    1.5027 H   0  0  0  0  0  0  0  0  0  0  0  0
   -1.5065    1.6689    1.1358 H   0  0  0  0  0  0  0  0  0  0  0  0
   -0.9388    1.8340   -1.3162 H   0  0  0  0  0  0  0  0  0  0  0  0
    0.7309    2.6209    0.2472 H   0  0  0  0  0  0  0  0  0  0  0  0
    1.6052    1.7919   -1.1398 H   0  0  0  0  0  0  0  0  0  0  0  0
    2.0251    1.0264    1.6122 H   0  0  0  0  0  0  0  0  0  0  0  0
    2.2159   -1.2609    0.8173 H   0  0  0  0  0  0  0  0  0  0  0  0
    0.7610   -2.0953   -0.9042 H   0  0  0  0  0  0  0  0  0  0  0  0
   -0.2795   -2.0652    1.4931 H   0  0  0  0  0  0  0  0  0  0  0  0
   -1.3614   -2.4280    0.1302 H   0  0  0  0  0  0  0  0  0  0  0  0
    0.3681   -0.1365   -2.3171 H   0  0  0  0  0  0  0  0  0  0  0  0
   -1.2718   -0.5973   -1.6227 H   0  0  0  0  0  0  0  0  0  0  0  0
  1  2  2  0
  2  3  1  0
  3  4  1  0
  4  5  1  0
  5  6  2  0
  6  7  1  0
  7  8  1  0
  7  9  1  0
  8  1  1  0
  9  3  1  0
  1 10  1  0
  2 11  1  0
  3 12  1  0
  4 13  1  0
  4 14  1  0
  5 15  1  0
  6 16  1  0
  7 17  1  0
  8 18  1  0
  8 19  1  0
  9 20  1  0
  9 21  1  0
M  END
