
     RDKit          3D

 19 21  0  0  0  0  0  0  0  0999 V2000
   -0.0898    1.7101    0.6720 C   0  0  0  0  0  0  0  0  0  0  0  0
    0.9847    0.9864    0.4287 C   0  0  0  0  0  0  0  0  0  0  0  0
    2.3083    0.2806    0.2335 C   0  0  0  0  0  0  0  0  0  0  0  0
    1.7368   -0.4182   -0.8829 O   0  0  0  0  0  0  0  0  0  0  0  0
    0.5505   -0.2405   -0.2610 C   0  0  0  0  0  0  0  0  0  0  0  0
   -0.1106   -1.3233    0.4524 C   0  0  0  0  0  0  0  0  0  0  0  0
   -1.1590   -1.3218   -0.6732 C   0  0  0  0  0  0  0  0  0  0  0  0
   -0.6969    0.1192   -0.9246 C   0  0  0  0  0  0  0  0  0  0  0  0
   -1.3157    1.0660    0.1195 C   0  0  0  0  0  0  0  0  0  0  0  0
   -0.0210    2.6611    1.2195 H   0  0  0  0  0  0  0  0  0  0  0  0
    2.5258   -0.4563    1.0198 H   0  0  0  0  0  0  0  0  0  0  0  0
    3.1186    0.9108   -0.1210 H   0  0  0  0  0  0  0  0  0  0  0  0
   -0.5955   -1.0215    1.4011 H   0  0  0  0  0  0  0  0  0  0  0  0
    0.4088   -2.2943    0.5712 H   0  0  0  0  0  0  0  0  0  0  0  0
   -2.1920   -1.3930   -0.3226 H   0  0  0  0  0  0  0  0  0  0  0  0
   -0.8531   -1.9671   -1.5031 H   0  0  0  0  0  0  0  0  0  0  0  0
   -0.7314    0.4597   -1.9491 H   0  0  0  0  0  0  0  0  0  0  0  0
   -1.8671    0.4634    0.8630 H   0  0  0  0  0  0  0  0  0  0  0  0
   -2.0012    1.7789   -0.3431 H   0  0  0  0  0  0  0  0  0  0  0  0
  1  2  2  0
  2  3  1  0
  3  4  1  0
  4  5  1  0
  5  6  1  0
  6  7  1  0
  7  8  1  0
  8  9  1  0
  9  1  1  0
  5  2  1  0
  8  5  1  0
  1 10  1  0
  3 11  1  0
  3 12  1  0
  6 13  1  0
  6 14  1  0
  7 15  1  0
  7 16  1  0
  8 17  1  0
  9 18  1  0
  9 19  1  0
M  END
