
     RDKit          3D

 17 19  0  0  0  0  0  0  0  0999 V2000
   -1.3357   -0.5224    1.0208 C   0  0  0  0  0  0  0  0  0  0  0  0
   -0.2971    0.2728    1.2122 C   0  0  0  0  0  0  0  0  0  0  0  0
    0.1016    0.7926   -0.0711 C   0  0  0  0  0  0  0  0  0  0  0  0
    1.1032   -0.1534   -0.7558 C   0  0  0  0  0  0  0  0  0  0  0  0
    2.4767   -0.1594   -0.0615 C   0  0  0  0  0  0  0  0  0  0  0  0
    2.2579    0.4302   -1.2790 O   0  0  0  0  0  0  0  0  0  0  0  0
   -0.3015    1.6978   -0.9225 O   0  0  0  0  0  0  0  0  0  0  0  0
   -1.3086    0.9310   -0.6620 C   0  0  0  0  0  0  0  0  0  0  0  0
   -1.6210   -0.5076   -0.4542 C   0  0  0  0  0  0  0  0  0  0  0  0
   -1.8649   -1.0656    1.7644 H   0  0  0  0  0  0  0  0  0  0  0  0
    0.1564    0.4808    2.1756 H   0  0  0  0  0  0  0  0  0  0  0  0
    0.8186   -1.1775   -1.0222 H   0  0  0  0  0  0  0  0  0  0  0  0
    3.0997   -1.0651   -0.0963 H   0  0  0  0  0  0  0  0  0  0  0  0
    2.6008    0.4480    0.8524 H   0  0  0  0  0  0  0  0  0  0  0  0
   -2.0689    1.5181   -0.0203 H   0  0  0  0  0  0  0  0  0  0  0  0
   -2.7118   -0.6811   -0.6403 H   0  0  0  0  0  0  0  0  0  0  0  0
   -1.1056   -1.2392   -1.0401 H   0  0  0  0  0  0  0  0  0  0  0  0
  1  2  2  0
  2  3  1  0
  3  4  1  0
  4  5  1  0
  5  6  1  0
  3  7  1  0
  7  8  1  0
  8  9  1  0
  9  1  1  0
  8  3  1  0
  6  4  1  0
  1 10  1  0
  2 11  1  0
  4 12  1  0
  5 13  1  0
  5 14  1  0
  8 15  1  0
  9 16  1  0
  9 17  1  0
M  END
