
     RDKit          3D

 21 22  0  0  0  0  0  0  0  0999 V2000
    1.1766    1.3878    0.3405 C   0  0  0  0  0  0  0  0  0  0  0  0
    0.0136    0.8239    0.0286 C   0  0  0  0  0  0  0  0  0  0  0  0
   -1.4129    1.2175    0.0927 C   0  0  0  0  0  0  0  0  0  0  0  0
   -2.1636   -0.1085    0.1701 C   0  0  0  0  0  0  0  0  0  0  0  0
   -1.2577   -1.0810   -0.5148 C   0  0  0  0  0  0  0  0  0  0  0  0
    0.1285   -0.5635   -0.5341 C   0  0  0  0  0  0  0  0  0  0  0  0
    1.0902   -1.3146    0.3146 C   0  0  0  0  0  0  0  0  0  0  0  0
    2.2877   -0.7210    0.5142 O   0  0  0  0  0  0  0  0  0  0  0  0
    2.4079    0.5869    0.0955 C   0  0  0  0  0  0  0  0  0  0  0  0
    1.1879    2.3816    0.7501 H   0  0  0  0  0  0  0  0  0  0  0  0
   -1.6451    1.8408    0.9804 H   0  0  0  0  0  0  0  0  0  0  0  0
   -1.6901    1.7677   -0.8254 H   0  0  0  0  0  0  0  0  0  0  0  0
   -3.1253   -0.0308   -0.3623 H   0  0  0  0  0  0  0  0  0  0  0  0
   -2.3511   -0.4035    1.2220 H   0  0  0  0  0  0  0  0  0  0  0  0
   -1.3572   -2.1071   -0.1031 H   0  0  0  0  0  0  0  0  0  0  0  0
   -1.6054   -1.1564   -1.5880 H   0  0  0  0  0  0  0  0  0  0  0  0
    0.5542   -0.4411   -1.5606 H   0  0  0  0  0  0  0  0  0  0  0  0
    0.6007   -1.4580    1.3230 H   0  0  0  0  0  0  0  0  0  0  0  0
    1.2179   -2.3586   -0.0976 H   0  0  0  0  0  0  0  0  0  0  0  0
    3.2095    1.0522    0.7145 H   0  0  0  0  0  0  0  0  0  0  0  0
    2.7335    0.6858   -0.9601 H   0  0  0  0  0  0  0  0  0  0  0  0
  1  2  2  0
  2  3  1  0
  3  4  1  0
  4  5  1  0
  5  6  1  0
  6  7  1  0
  7  8  1  0
  8  9  1  0
  9  1  1  0
  6  2  1  0
  1 10  1  0
  3 11  1  0
  3 12  1  0
  4 13  1  0
  4 14  1  0
  5 15  1  0
  5 16  1  0
  6 17  1  0
  7 18  1  0
  7 19  1  0
  9 20  1  0
  9 21  1  0
M  END
