
     RDKit          3D

 19 21  0  0  0  0  0  0  0  0999 V2000
   -1.5962    0.6656   -0.6796 C   0  0  0  0  0  0  0  0  0  0  0  0
   -0.7347    1.5496   -0.1803 C   0  0  0  0  0  0  0  0  0  0  0  0
    0.3972    0.9569    0.6130 C   0  0  0  0  0  0  0  0  0  0  0  0
   -0.2396   -0.0868    1.5158 C   0  0  0  0  0  0  0  0  0  0  0  0
   -0.1435   -1.0380    0.3138 C   0  0  0  0  0  0  0  0  0  0  0  0
   -1.3739   -0.8164   -0.5623 C   0  0  0  0  0  0  0  0  0  0  0  0
    0.9431   -0.1680   -0.2045 C   0  0  0  0  0  0  0  0  0  0  0  0
    2.2372   -0.4191   -0.5338 C   0  0  0  0  0  0  0  0  0  0  0  0
    1.2136   -0.0258   -1.5393 O   0  0  0  0  0  0  0  0  0  0  0  0
   -2.5022    0.9650   -1.1962 H   0  0  0  0  0  0  0  0  0  0  0  0
   -0.8055    2.6132   -0.3104 H   0  0  0  0  0  0  0  0  0  0  0  0
    1.0805    1.6547    1.0732 H   0  0  0  0  0  0  0  0  0  0  0  0
   -1.2770    0.1783    1.7861 H   0  0  0  0  0  0  0  0  0  0  0  0
    0.3847   -0.3929    2.3741 H   0  0  0  0  0  0  0  0  0  0  0  0
    0.0738   -2.0719    0.5563 H   0  0  0  0  0  0  0  0  0  0  0  0
   -1.1048   -1.1629   -1.5965 H   0  0  0  0  0  0  0  0  0  0  0  0
   -2.2342   -1.3405   -0.1393 H   0  0  0  0  0  0  0  0  0  0  0  0
    2.6357   -1.4085   -0.8298 H   0  0  0  0  0  0  0  0  0  0  0  0
    3.0457    0.3475   -0.4601 H   0  0  0  0  0  0  0  0  0  0  0  0
  1  2  2  0
  2  3  1  0
  3  4  1  0
  4  5  1  0
  5  6  1  0
  5  7  1  0
  7  8  1  0
  8  9  1  0
  6  1  1  0
  9  7  1  0
  7  3  1  0
  1 10  1  0
  2 11  1  0
  3 12  1  0
  4 13  1  0
  4 14  1  0
  5 15  1  0
  6 16  1  0
  6 17  1  0
  8 18  1  0
  8 19  1  0
M  END
