
     RDKit          3D

 17 19  0  0  0  0  0  0  0  0999 V2000
    0.5129   -1.4233    0.1694 C   0  0  0  0  0  0  0  0  0  0  0  0
   -0.6545   -0.8043    0.1975 C   0  0  0  0  0  0  0  0  0  0  0  0
   -2.1147   -0.5295    0.3771 C   0  0  0  0  0  0  0  0  0  0  0  0
   -1.8816    0.3815   -0.7376 O   0  0  0  0  0  0  0  0  0  0  0  0
   -0.7735    0.7080   -0.0677 C   0  0  0  0  0  0  0  0  0  0  0  0
    0.5048    1.1942   -0.6632 C   0  0  0  0  0  0  0  0  0  0  0  0
    1.5273    0.6672    0.2989 C   0  0  0  0  0  0  0  0  0  0  0  0
    2.6483    0.0153    0.2239 O   0  0  0  0  0  0  0  0  0  0  0  0
    1.7081   -0.7520   -0.2467 C   0  0  0  0  0  0  0  0  0  0  0  0
    0.4312   -2.4694    0.4946 H   0  0  0  0  0  0  0  0  0  0  0  0
   -2.8135   -1.2818    0.0067 H   0  0  0  0  0  0  0  0  0  0  0  0
   -2.4182   -0.0192    1.2847 H   0  0  0  0  0  0  0  0  0  0  0  0
   -0.9071    1.1531    0.9609 H   0  0  0  0  0  0  0  0  0  0  0  0
    0.7121    0.8946   -1.6818 H   0  0  0  0  0  0  0  0  0  0  0  0
    0.5227    2.3102   -0.5958 H   0  0  0  0  0  0  0  0  0  0  0  0
    1.1827    0.7850    1.3729 H   0  0  0  0  0  0  0  0  0  0  0  0
    1.8131   -0.8295   -1.3939 H   0  0  0  0  0  0  0  0  0  0  0  0
  1  2  2  0
  2  3  1  0
  3  4  1  0
  4  5  1  0
  5  6  1  0
  6  7  1  0
  7  8  1  0
  8  9  1  0
  9  1  1  0
  5  2  1  0
  9  7  1  0
  1 10  1  0
  3 11  1  0
  3 12  1  0
  5 13  1  0
  6 14  1  0
  6 15  1  0
  7 16  1  0
  9 17  1  0
M  END
