
     RDKit          3D

 23 24  0  0  0  0  0  0  0  0999 V2000
    2.4357    0.1162    0.6052 C   0  0  0  0  0  0  0  0  0  0  0  0
    1.3802   -0.5391    1.0171 C   0  0  0  0  0  0  0  0  0  0  0  0
    0.1990   -0.2387    0.2369 C   0  0  0  0  0  0  0  0  0  0  0  0
    0.7441    0.4067   -1.0096 C   0  0  0  0  0  0  0  0  0  0  0  0
    2.0727    0.9698   -0.5485 C   0  0  0  0  0  0  0  0  0  0  0  0
   -0.6489   -1.4233   -0.1258 C   0  0  0  0  0  0  0  0  0  0  0  0
   -1.9912   -0.8092   -0.4531 C   0  0  0  0  0  0  0  0  0  0  0  0
   -1.9799    0.5977    0.0474 C   0  0  0  0  0  0  0  0  0  0  0  0
   -0.7786    0.6514    0.9696 C   0  0  0  0  0  0  0  0  0  0  0  0
    3.4703    0.0645    1.0347 H   0  0  0  0  0  0  0  0  0  0  0  0
    1.4508   -1.2366    1.8796 H   0  0  0  0  0  0  0  0  0  0  0  0
    0.1151    1.2526   -1.3497 H   0  0  0  0  0  0  0  0  0  0  0  0
    0.8715   -0.3129   -1.8285 H   0  0  0  0  0  0  0  0  0  0  0  0
    1.9878    2.0462   -0.2774 H   0  0  0  0  0  0  0  0  0  0  0  0
    2.8254    0.8170   -1.3661 H   0  0  0  0  0  0  0  0  0  0  0  0
   -0.7172   -2.1694    0.7067 H   0  0  0  0  0  0  0  0  0  0  0  0
   -0.2656   -1.9005   -1.0573 H   0  0  0  0  0  0  0  0  0  0  0  0
   -2.2468   -0.8966   -1.5321 H   0  0  0  0  0  0  0  0  0  0  0  0
   -2.7708   -1.3770    0.1244 H   0  0  0  0  0  0  0  0  0  0  0  0
   -2.9278    0.8520    0.5835 H   0  0  0  0  0  0  0  0  0  0  0  0
   -1.8260    1.3545   -0.7308 H   0  0  0  0  0  0  0  0  0  0  0  0
   -1.0014    0.1174    1.9392 H   0  0  0  0  0  0  0  0  0  0  0  0
   -0.3985    1.6573    1.1345 H   0  0  0  0  0  0  0  0  0  0  0  0
  1  2  2  0
  2  3  1  0
  3  4  1  0
  4  5  1  0
  3  6  1  0
  6  7  1  0
  7  8  1  0
  8  9  1  0
  5  1  1  0
  9  3  1  0
  1 10  1  0
  2 11  1  0
  4 12  1  0
  4 13  1  0
  5 14  1  0
  5 15  1  0
  6 16  1  0
  6 17  1  0
  7 18  1  0
  7 19  1  0
  8 20  1  0
  8 21  1  0
  9 22  1  0
  9 23  1  0
M  END
