
     RDKit          3D

 23 24  0  0  0  0  0  0  0  0999 V2000
   -0.7972    1.5829   -0.2535 C   0  0  0  0  0  0  0  0  0  0  0  0
    0.2932    0.8337   -0.1276 C   0  0  0  0  0  0  0  0  0  0  0  0
    1.7289    1.0717    0.1184 C   0  0  0  0  0  0  0  0  0  0  0  0
    2.3629   -0.1178   -0.5637 C   0  0  0  0  0  0  0  0  0  0  0  0
    1.4748   -1.2466   -0.0126 C   0  0  0  0  0  0  0  0  0  0  0  0
    0.1088   -0.6349   -0.2506 C   0  0  0  0  0  0  0  0  0  0  0  0
   -0.8992   -1.0229    0.8062 C   0  0  0  0  0  0  0  0  0  0  0  0
   -2.1875   -0.3149    0.5057 C   0  0  0  0  0  0  0  0  0  0  0  0
   -2.0542    0.8033   -0.5057 C   0  0  0  0  0  0  0  0  0  0  0  0
   -0.7647    2.6678   -0.1775 H   0  0  0  0  0  0  0  0  0  0  0  0
    1.9670    0.9672    1.2071 H   0  0  0  0  0  0  0  0  0  0  0  0
    2.0812    2.0337   -0.2923 H   0  0  0  0  0  0  0  0  0  0  0  0
    3.4127   -0.2633   -0.2921 H   0  0  0  0  0  0  0  0  0  0  0  0
    2.1717   -0.0898   -1.6443 H   0  0  0  0  0  0  0  0  0  0  0  0
    1.6340   -2.1870   -0.5399 H   0  0  0  0  0  0  0  0  0  0  0  0
    1.6727   -1.3444    1.0735 H   0  0  0  0  0  0  0  0  0  0  0  0
   -0.2499   -0.8429   -1.2704 H   0  0  0  0  0  0  0  0  0  0  0  0
   -1.0103   -2.1267    0.8195 H   0  0  0  0  0  0  0  0  0  0  0  0
   -0.5065   -0.6419    1.7747 H   0  0  0  0  0  0  0  0  0  0  0  0
   -2.9056   -1.0839    0.1454 H   0  0  0  0  0  0  0  0  0  0  0  0
   -2.6174    0.0887    1.4553 H   0  0  0  0  0  0  0  0  0  0  0  0
   -1.9861    0.3961   -1.5372 H   0  0  0  0  0  0  0  0  0  0  0  0
   -2.9293    1.4720   -0.4383 H   0  0  0  0  0  0  0  0  0  0  0  0
  1  2  2  0
  2  3  1  0
  3  4  1  0
  4  5  1  0
  5  6  1  0
  6  7  1  0
  7  8  1  0
  8  9  1  0
  9  1  1  0
  6  2  1  0
  1 10  1  0
  3 11  1  0
  3 12  1  0
  4 13  1  0
  4 14  1  0
  5 15  1  0
  5 16  1  0
  6 17  1  0
  7 18  1  0
  7 19  1  0
  8 20  1  0
  8 21  1  0
  9 22  1  0
  9 23  1  0
M  END
