
     RDKit          3D

 17 20  0  0  0  0  0  0  0  0999 V2000
    1.3503    0.7821   -0.5590 C   0  0  0  0  0  0  0  0  0  0  0  0
    1.6666   -0.4811   -0.7504 C   0  0  0  0  0  0  0  0  0  0  0  0
    0.7767   -1.2845    0.1510 C   0  0  0  0  0  0  0  0  0  0  0  0
    0.2982   -0.3775    1.0230 C   0  0  0  0  0  0  0  0  0  0  0  0
    0.3082    1.0055    0.4094 C   0  0  0  0  0  0  0  0  0  0  0  0
   -1.1326    1.1008    0.0491 C   0  0  0  0  0  0  0  0  0  0  0  0
   -1.9020    0.8887    1.1913 O   0  0  0  0  0  0  0  0  0  0  0  0
   -1.7722   -0.2437    0.4856 C   0  0  0  0  0  0  0  0  0  0  0  0
   -0.6684   -1.0813    0.0524 C   0  0  0  0  0  0  0  0  0  0  0  0
    1.8663    1.5873   -1.1170 H   0  0  0  0  0  0  0  0  0  0  0  0
    2.4234   -0.9056   -1.4247 H   0  0  0  0  0  0  0  0  0  0  0  0
    1.1472   -2.2996    0.3968 H   0  0  0  0  0  0  0  0  0  0  0  0
    0.0543   -0.5120    2.0795 H   0  0  0  0  0  0  0  0  0  0  0  0
    0.5882    1.7743    1.1929 H   0  0  0  0  0  0  0  0  0  0  0  0
   -1.5214    1.5504   -0.8461 H   0  0  0  0  0  0  0  0  0  0  0  0
   -2.7575   -0.5299    0.0252 H   0  0  0  0  0  0  0  0  0  0  0  0
   -0.7254   -0.9738   -1.0549 H   0  0  0  0  0  0  0  0  0  0  0  0
  1  2  2  0
  2  3  1  0
  3  4  1  0
  4  5  1  0
  5  6  1  0
  6  7  1  0
  7  8  1  0
  8  9  1  0
  5  1  1  0
  8  6  1  0
  9  3  1  0
  9  4  1  0
  1 10  1  0
  2 11  1  0
  3 12  1  0
  4 13  1  0
  5 14  1  0
  6 15  1  0
  8 16  1  0
  9 17  1  0
M  END
