
     RDKit          3D

 15 16  0  0  0  0  0  0  0  0999 V2000
   -1.2572    1.0986   -0.3799 C   0  0  0  0  0  0  0  0  0  0  0  0
    0.0451    1.2621   -0.2464 C   0  0  0  0  0  0  0  0  0  0  0  0
    0.7231   -0.0186    0.0488 C   0  0  0  0  0  0  0  0  0  0  0  0
   -0.4083   -0.8093    0.6658 C   0  0  0  0  0  0  0  0  0  0  0  0
   -1.5624   -0.3324   -0.1822 C   0  0  0  0  0  0  0  0  0  0  0  0
    2.0599   -0.2620    0.0869 C   0  0  0  0  0  0  0  0  0  0  0  0
    1.3294   -0.7123   -1.0370 O   0  0  0  0  0  0  0  0  0  0  0  0
   -1.9946    1.8882   -0.6006 H   0  0  0  0  0  0  0  0  0  0  0  0
    0.5504    2.2128   -0.3412 H   0  0  0  0  0  0  0  0  0  0  0  0
   -0.5366   -0.4570    1.7283 H   0  0  0  0  0  0  0  0  0  0  0  0
   -0.2590   -1.9000    0.6090 H   0  0  0  0  0  0  0  0  0  0  0  0
   -2.5420   -0.4970    0.3008 H   0  0  0  0  0  0  0  0  0  0  0  0
   -1.4848   -0.8904   -1.1574 H   0  0  0  0  0  0  0  0  0  0  0  0
    2.8167    0.5343   -0.1209 H   0  0  0  0  0  0  0  0  0  0  0  0
    2.5205   -1.1171    0.6261 H   0  0  0  0  0  0  0  0  0  0  0  0
  1  2  2  0
  2  3  1  0
  3  4  1  0
  4  5  1  0
  3  6  1  0
  6  7  1  0
  5  1  1  0
  7  3  1  0
  1  8  1  0
  2  9  1  0
  4 10  1  0
  4 11  1  0
  5 12  1  0
  5 13  1  0
  6 14  1  0
  6 15  1  0
M  END
