
     RDKit          3D

 19 21  0  0  0  0  0  0  0  0999 V2000
   -0.1197    1.5473   -0.3913 C   0  0  0  0  0  0  0  0  0  0  0  0
    1.1443    1.1882   -0.6354 C   0  0  0  0  0  0  0  0  0  0  0  0
    1.2396   -0.2776   -0.6073 C   0  0  0  0  0  0  0  0  0  0  0  0
    1.9279   -0.9901    0.3595 C   0  0  0  0  0  0  0  0  0  0  0  0
    2.3032   -0.9613   -1.0830 O   0  0  0  0  0  0  0  0  0  0  0  0
   -0.1850   -0.6830   -1.0013 C   0  0  0  0  0  0  0  0  0  0  0  0
   -0.9109    0.3497   -0.1926 C   0  0  0  0  0  0  0  0  0  0  0  0
   -2.2218    0.2206    0.3629 C   0  0  0  0  0  0  0  0  0  0  0  0
   -1.0884   -0.0651    1.2846 C   0  0  0  0  0  0  0  0  0  0  0  0
   -0.4273    2.5767   -0.3624 H   0  0  0  0  0  0  0  0  0  0  0  0
    1.9705    1.8526   -0.8240 H   0  0  0  0  0  0  0  0  0  0  0  0
    1.6226   -2.0055    0.6898 H   0  0  0  0  0  0  0  0  0  0  0  0
    2.7283   -0.5599    0.9820 H   0  0  0  0  0  0  0  0  0  0  0  0
   -0.2561   -0.4699   -2.0956 H   0  0  0  0  0  0  0  0  0  0  0  0
   -0.4072   -1.7119   -0.7383 H   0  0  0  0  0  0  0  0  0  0  0  0
   -2.8337   -0.6726    0.0560 H   0  0  0  0  0  0  0  0  0  0  0  0
   -2.8190    1.1027    0.5898 H   0  0  0  0  0  0  0  0  0  0  0  0
   -0.7688    0.6642    2.0503 H   0  0  0  0  0  0  0  0  0  0  0  0
   -0.8983   -1.1051    1.5564 H   0  0  0  0  0  0  0  0  0  0  0  0
  1  2  2  0
  2  3  1  0
  3  4  1  0
  4  5  1  0
  3  6  1  0
  6  7  1  0
  7  8  1  0
  8  9  1  0
  7  1  1  0
  5  3  1  0
  9  7  1  0
  1 10  1  0
  2 11  1  0
  4 12  1  0
  4 13  1  0
  6 14  1  0
  6 15  1  0
  8 16  1  0
  8 17  1  0
  9 18  1  0
  9 19  1  0
M  END
