
     RDKit          3D

 16 17  0  0  0  0  0  0  0  0999 V2000
    1.1349    1.0802    0.3174 C   0  0  0  0  0  0  0  0  0  0  0  0
   -0.1262    1.4445    0.1142 C   0  0  0  0  0  0  0  0  0  0  0  0
   -0.9707    0.4584   -0.6553 C   0  0  0  0  0  0  0  0  0  0  0  0
   -1.5478   -0.5275    0.2993 C   0  0  0  0  0  0  0  0  0  0  0  0
   -0.6417   -1.5984    0.2526 O   0  0  0  0  0  0  0  0  0  0  0  0
    0.4450   -1.1701   -0.4874 C   0  0  0  0  0  0  0  0  0  0  0  0
    1.4320   -0.3792    0.3354 C   0  0  0  0  0  0  0  0  0  0  0  0
   -0.1162   -0.3208   -1.4372 O   0  0  0  0  0  0  0  0  0  0  0  0
    1.8989    1.8380    0.4617 H   0  0  0  0  0  0  0  0  0  0  0  0
   -0.5119    2.3806    0.4767 H   0  0  0  0  0  0  0  0  0  0  0  0
   -1.6831    1.0244   -1.2475 H   0  0  0  0  0  0  0  0  0  0  0  0
   -2.5775   -0.8485    0.0160 H   0  0  0  0  0  0  0  0  0  0  0  0
   -1.5516   -0.1741    1.3504 H   0  0  0  0  0  0  0  0  0  0  0  0
    0.9267   -1.9957   -1.0588 H   0  0  0  0  0  0  0  0  0  0  0  0
    1.4609   -0.6936    1.3987 H   0  0  0  0  0  0  0  0  0  0  0  0
    2.4284   -0.5183   -0.1361 H   0  0  0  0  0  0  0  0  0  0  0  0
  1  2  2  0
  2  3  1  0
  3  4  1  0
  4  5  1  0
  5  6  1  0
  6  7  1  0
  6  8  1  0
  7  1  1  0
  8  3  1  0
  1  9  1  0
  2 10  1  0
  3 11  1  0
  4 12  1  0
  4 13  1  0
  6 14  1  0
  7 15  1  0
  7 16  1  0
M  END
