
     RDKit          3D

 21 22  0  0  0  0  0  0  0  0999 V2000
    2.3009   -0.6424    0.6877 C   0  0  0  0  0  0  0  0  0  0  0  0
    1.0805   -1.0688    0.9763 C   0  0  0  0  0  0  0  0  0  0  0  0
    0.0534   -0.1768    0.4004 C   0  0  0  0  0  0  0  0  0  0  0  0
    0.7732    0.8491   -0.4173 C   0  0  0  0  0  0  0  0  0  0  0  0
    2.2290    0.6145   -0.1346 C   0  0  0  0  0  0  0  0  0  0  0  0
   -0.9185   -1.0086   -0.3726 C   0  0  0  0  0  0  0  0  0  0  0  0
   -2.2666   -0.3470   -0.0979 C   0  0  0  0  0  0  0  0  0  0  0  0
   -1.7938    0.9417    0.5812 C   0  0  0  0  0  0  0  0  0  0  0  0
   -0.7355    0.4469    1.3514 O   0  0  0  0  0  0  0  0  0  0  0  0
    3.2464   -1.0769    0.9647 H   0  0  0  0  0  0  0  0  0  0  0  0
    0.8852   -1.9595    1.5609 H   0  0  0  0  0  0  0  0  0  0  0  0
    0.5453    0.7923   -1.5043 H   0  0  0  0  0  0  0  0  0  0  0  0
    0.5406    1.8835   -0.0273 H   0  0  0  0  0  0  0  0  0  0  0  0
    2.8376    0.4382   -1.0281 H   0  0  0  0  0  0  0  0  0  0  0  0
    2.6801    1.4160    0.5101 H   0  0  0  0  0  0  0  0  0  0  0  0
   -0.7390   -1.0689   -1.4420 H   0  0  0  0  0  0  0  0  0  0  0  0
   -0.9821   -2.0174    0.1255 H   0  0  0  0  0  0  0  0  0  0  0  0
   -2.8170   -0.1328   -1.0246 H   0  0  0  0  0  0  0  0  0  0  0  0
   -2.8637   -0.8827    0.6369 H   0  0  0  0  0  0  0  0  0  0  0  0
   -2.5845    1.3889    1.2008 H   0  0  0  0  0  0  0  0  0  0  0  0
   -1.4717    1.6106   -0.2212 H   0  0  0  0  0  0  0  0  0  0  0  0
  1  2  2  0
  2  3  1  0
  3  4  1  0
  4  5  1  0
  3  6  1  0
  6  7  1  0
  7  8  1  0
  8  9  1  0
  5  1  1  0
  9  3  1  0
  1 10  1  0
  2 11  1  0
  4 12  1  0
  4 13  1  0
  5 14  1  0
  5 15  1  0
  6 16  1  0
  6 17  1  0
  7 18  1  0
  7 19  1  0
  8 20  1  0
  8 21  1  0
M  END
