
     RDKit          3D

 19 21  0  0  0  0  0  0  0  0999 V2000
    2.3049    0.3145    0.1505 C   0  0  0  0  0  0  0  0  0  0  0  0
    1.1267    0.8977    0.3219 C   0  0  0  0  0  0  0  0  0  0  0  0
    0.0830    0.0009   -0.1426 C   0  0  0  0  0  0  0  0  0  0  0  0
    0.7264   -0.9989   -0.8471 O   0  0  0  0  0  0  0  0  0  0  0  0
    2.0357   -1.0175   -0.4491 C   0  0  0  0  0  0  0  0  0  0  0  0
   -1.0026   -0.3973    0.7902 C   0  0  0  0  0  0  0  0  0  0  0  0
   -1.7938   -0.7283   -0.4579 C   0  0  0  0  0  0  0  0  0  0  0  0
   -1.1427    0.5953   -0.7681 C   0  0  0  0  0  0  0  0  0  0  0  0
   -1.5473    0.9937    0.6251 C   0  0  0  0  0  0  0  0  0  0  0  0
    3.3018    0.7281    0.4007 H   0  0  0  0  0  0  0  0  0  0  0  0
    1.0472    1.8954    0.7515 H   0  0  0  0  0  0  0  0  0  0  0  0
    2.1334   -1.7667    0.3819 H   0  0  0  0  0  0  0  0  0  0  0  0
    2.7452   -1.2451   -1.2841 H   0  0  0  0  0  0  0  0  0  0  0  0
   -0.9587   -0.9417    1.6256 H   0  0  0  0  0  0  0  0  0  0  0  0
   -1.3282   -1.5495   -1.0020 H   0  0  0  0  0  0  0  0  0  0  0  0
   -2.8801   -0.7135   -0.3499 H   0  0  0  0  0  0  0  0  0  0  0  0
   -1.2180    1.1291   -1.6062 H   0  0  0  0  0  0  0  0  0  0  0  0
   -0.9851    1.8085    1.0913 H   0  0  0  0  0  0  0  0  0  0  0  0
   -2.6477    0.9951    0.7685 H   0  0  0  0  0  0  0  0  0  0  0  0
  1  2  2  0
  2  3  1  0
  3  4  1  0
  4  5  1  0
  3  6  1  0
  6  7  1  0
  7  8  1  0
  8  9  1  0
  5  1  1  0
  9  6  1  0
  8  3  1  0
  1 10  1  0
  2 11  1  0
  5 12  1  0
  5 13  1  0
  6 14  1  0
  7 15  1  0
  7 16  1  0
  8 17  1  0
  9 18  1  0
  9 19  1  0
M  END
