
     RDKit          3D

 19 20  0  0  0  0  0  0  0  0999 V2000
   -2.2347   -0.0802    0.4907 C   0  0  0  0  0  0  0  0  0  0  0  0
   -1.4648   -1.1292    0.2274 C   0  0  0  0  0  0  0  0  0  0  0  0
   -0.2248   -0.6774   -0.4506 C   0  0  0  0  0  0  0  0  0  0  0  0
    1.0130   -1.4246   -0.0260 C   0  0  0  0  0  0  0  0  0  0  0  0
    1.8941   -0.6609    0.7033 O   0  0  0  0  0  0  0  0  0  0  0  0
    2.1863    0.5191   -0.0109 C   0  0  0  0  0  0  0  0  0  0  0  0
    0.9581    1.3866    0.1771 C   0  0  0  0  0  0  0  0  0  0  0  0
   -0.1758    0.7529   -0.0492 C   0  0  0  0  0  0  0  0  0  0  0  0
   -1.5874    1.1809    0.0157 C   0  0  0  0  0  0  0  0  0  0  0  0
   -3.2045   -0.0800    0.9785 H   0  0  0  0  0  0  0  0  0  0  0  0
   -1.7489   -2.1404    0.4906 H   0  0  0  0  0  0  0  0  0  0  0  0
   -0.3682   -0.6926   -1.5485 H   0  0  0  0  0  0  0  0  0  0  0  0
    0.7595   -2.3192    0.5737 H   0  0  0  0  0  0  0  0  0  0  0  0
    1.5322   -1.7560   -0.9694 H   0  0  0  0  0  0  0  0  0  0  0  0
    2.2205    0.2357   -1.0803 H   0  0  0  0  0  0  0  0  0  0  0  0
    3.0833    1.0186    0.3580 H   0  0  0  0  0  0  0  0  0  0  0  0
    1.0553    2.4058    0.4654 H   0  0  0  0  0  0  0  0  0  0  0  0
   -1.7710    2.0337    0.6797 H   0  0  0  0  0  0  0  0  0  0  0  0
   -1.9223    1.4273   -1.0253 H   0  0  0  0  0  0  0  0  0  0  0  0
  1  2  2  0
  2  3  1  0
  3  4  1  0
  4  5  1  0
  5  6  1  0
  6  7  1  0
  7  8  2  0
  8  9  1  0
  9  1  1  0
  8  3  1  0
  1 10  1  0
  2 11  1  0
  3 12  1  0
  4 13  1  0
  4 14  1  0
  6 15  1  0
  6 16  1  0
  7 17  1  0
  9 18  1  0
  9 19  1  0
M  END
