
     RDKit          3D

 18 20  0  0  0  0  0  0  0  0999 V2000
    0.9582    1.1816   -0.8562 C   0  0  0  0  0  0  0  0  0  0  0  0
   -0.1765    0.9738   -0.3197 C   0  0  0  0  0  0  0  0  0  0  0  0
   -1.5527    0.9580    0.1794 C   0  0  0  0  0  0  0  0  0  0  0  0
   -1.6560   -0.6037   -0.1959 C   0  0  0  0  0  0  0  0  0  0  0  0
   -0.3506   -1.1967    0.2613 C   0  0  0  0  0  0  0  0  0  0  0  0
    1.0281   -0.9725    0.0441 C   0  0  0  0  0  0  0  0  0  0  0  0
    1.9466    0.0799   -0.5429 C   0  0  0  0  0  0  0  0  0  0  0  0
    0.2877   -0.0488    0.8717 C   0  0  0  0  0  0  0  0  0  0  0  0
    1.2294    2.0269   -1.4692 H   0  0  0  0  0  0  0  0  0  0  0  0
   -1.6746    1.0354    1.2458 H   0  0  0  0  0  0  0  0  0  0  0  0
   -2.2732    1.4784   -0.4593 H   0  0  0  0  0  0  0  0  0  0  0  0
   -2.5098   -0.9330    0.3734 H   0  0  0  0  0  0  0  0  0  0  0  0
   -1.8528   -0.6720   -1.2635 H   0  0  0  0  0  0  0  0  0  0  0  0
   -0.5838   -2.1384    0.8822 H   0  0  0  0  0  0  0  0  0  0  0  0
    1.7178   -1.7511    0.5542 H   0  0  0  0  0  0  0  0  0  0  0  0
    2.5297   -0.2361   -1.3971 H   0  0  0  0  0  0  0  0  0  0  0  0
    2.5764    0.4646    0.2781 H   0  0  0  0  0  0  0  0  0  0  0  0
    0.3560    0.3535    1.8135 H   0  0  0  0  0  0  0  0  0  0  0  0
  1  2  2  0
  2  3  1  0
  3  4  1  0
  4  5  1  0
  5  6  1  0
  6  7  1  0
  6  8  1  0
  7  1  1  0
  8  2  1  0
  8  5  1  0
  1  9  1  0
  3 10  1  0
  3 11  1  0
  4 12  1  0
  4 13  1  0
  5 14  1  0
  6 15  1  0
  7 16  1  0
  7 17  1  0
  8 18  1  0
M  END
