
     RDKit          3D

 19 20  0  0  0  0  0  0  0  0999 V2000
    1.6241   -0.4374    0.0669 C   0  0  0  0  0  0  0  0  0  0  0  0
    0.7683   -1.2272   -0.5244 C   0  0  0  0  0  0  0  0  0  0  0  0
   -0.6663   -0.9977   -0.7649 C   0  0  0  0  0  0  0  0  0  0  0  0
   -1.3424   -1.0083    0.5643 C   0  0  0  0  0  0  0  0  0  0  0  0
   -1.1876    0.1805    1.1340 C   0  0  0  0  0  0  0  0  0  0  0  0
   -0.6852    1.1589    0.1227 C   0  0  0  0  0  0  0  0  0  0  0  0
   -0.8297    0.4429   -1.2026 C   0  0  0  0  0  0  0  0  0  0  0  0
    0.5212    1.6814    0.3745 O   0  0  0  0  0  0  0  0  0  0  0  0
    1.5782    0.9205    0.6312 C   0  0  0  0  0  0  0  0  0  0  0  0
    2.6111   -0.8803    0.1732 H   0  0  0  0  0  0  0  0  0  0  0  0
    1.1406   -2.1648   -0.8865 H   0  0  0  0  0  0  0  0  0  0  0  0
   -1.1025   -1.7159   -1.4710 H   0  0  0  0  0  0  0  0  0  0  0  0
   -1.8759   -1.8393    1.0072 H   0  0  0  0  0  0  0  0  0  0  0  0
   -1.4083    0.3571    2.1799 H   0  0  0  0  0  0  0  0  0  0  0  0
   -1.4449    1.9864    0.1071 H   0  0  0  0  0  0  0  0  0  0  0  0
   -1.8675    0.5354   -1.5886 H   0  0  0  0  0  0  0  0  0  0  0  0
   -0.0737    0.7521   -1.9351 H   0  0  0  0  0  0  0  0  0  0  0  0
    2.5170    1.4434    0.2804 H   0  0  0  0  0  0  0  0  0  0  0  0
    1.7236    0.8123    1.7317 H   0  0  0  0  0  0  0  0  0  0  0  0
  1  2  2  0
  2  3  1  0
  3  4  1  0
  4  5  2  0
  5  6  1  0
  6  7  1  0
  6  8  1  0
  8  9  1  0
  9  1  1  0
  7  3  1  0
  1 10  1  0
  2 11  1  0
  3 12  1  0
  4 13  1  0
  5 14  1  0
  6 15  1  0
  7 16  1  0
  7 17  1  0
  9 18  1  0
  9 19  1  0
M  END
