
     RDKit          3D

 19 20  0  0  0  0  0  0  0  0999 V2000
   -2.4792   -0.0234   -0.5278 C   0  0  0  0  0  0  0  0  0  0  0  0
   -1.5730    0.6036   -1.2577 C   0  0  0  0  0  0  0  0  0  0  0  0
   -0.2356    0.3474   -0.7311 C   0  0  0  0  0  0  0  0  0  0  0  0
    0.9702    0.8221   -0.9715 C   0  0  0  0  0  0  0  0  0  0  0  0
    2.1192    0.2882   -0.2011 C   0  0  0  0  0  0  0  0  0  0  0  0
    1.6790    0.0672    1.2163 C   0  0  0  0  0  0  0  0  0  0  0  0
    0.3625   -0.2188    1.4039 O   0  0  0  0  0  0  0  0  0  0  0  0
   -0.3290   -0.7007    0.3127 C   0  0  0  0  0  0  0  0  0  0  0  0
   -1.7924   -0.7690    0.5764 C   0  0  0  0  0  0  0  0  0  0  0  0
   -3.5527   -0.0510   -0.6343 H   0  0  0  0  0  0  0  0  0  0  0  0
   -1.8416    1.2115   -2.1170 H   0  0  0  0  0  0  0  0  0  0  0  0
    1.1135    1.5885   -1.7200 H   0  0  0  0  0  0  0  0  0  0  0  0
    2.9844    1.0015   -0.2100 H   0  0  0  0  0  0  0  0  0  0  0  0
    2.4969   -0.6710   -0.6457 H   0  0  0  0  0  0  0  0  0  0  0  0
    2.2788   -0.7283    1.7105 H   0  0  0  0  0  0  0  0  0  0  0  0
    1.8868    1.0376    1.7590 H   0  0  0  0  0  0  0  0  0  0  0  0
    0.1110   -1.6594   -0.0276 H   0  0  0  0  0  0  0  0  0  0  0  0
   -2.1671   -1.8199    0.4971 H   0  0  0  0  0  0  0  0  0  0  0  0
   -2.0317   -0.3261    1.5678 H   0  0  0  0  0  0  0  0  0  0  0  0
  1  2  2  0
  2  3  1  0
  3  4  2  0
  4  5  1  0
  5  6  1  0
  6  7  1  0
  7  8  1  0
  8  9  1  0
  9  1  1  0
  8  3  1  0
  1 10  1  0
  2 11  1  0
  4 12  1  0
  5 13  1  0
  5 14  1  0
  6 15  1  0
  6 16  1  0
  8 17  1  0
  9 18  1  0
  9 19  1  0
M  END
