
     RDKit          3D

 19 20  0  0  0  0  0  0  0  0999 V2000
   -1.1998    1.1799    0.4089 C   0  0  0  0  0  0  0  0  0  0  0  0
    0.0645    1.5373    0.1526 C   0  0  0  0  0  0  0  0  0  0  0  0
    0.9569    0.6974   -0.6923 C   0  0  0  0  0  0  0  0  0  0  0  0
    1.9300   -0.1156    0.1194 C   0  0  0  0  0  0  0  0  0  0  0  0
    1.4169   -1.3586    0.4883 O   0  0  0  0  0  0  0  0  0  0  0  0
    0.0440   -1.3546    0.6296 C   0  0  0  0  0  0  0  0  0  0  0  0
   -0.6260   -0.9181   -0.6459 C   0  0  0  0  0  0  0  0  0  0  0  0
   -1.7932   -0.0118   -0.2315 C   0  0  0  0  0  0  0  0  0  0  0  0
    0.2264   -0.1863   -1.4768 O   0  0  0  0  0  0  0  0  0  0  0  0
   -1.8053    1.7629    1.0919 H   0  0  0  0  0  0  0  0  0  0  0  0
    0.4043    2.4634    0.5881 H   0  0  0  0  0  0  0  0  0  0  0  0
    1.5550    1.3858   -1.3301 H   0  0  0  0  0  0  0  0  0  0  0  0
    2.7993   -0.3312   -0.5499 H   0  0  0  0  0  0  0  0  0  0  0  0
    2.2556    0.4237    1.0076 H   0  0  0  0  0  0  0  0  0  0  0  0
   -0.2753   -2.3884    0.8338 H   0  0  0  0  0  0  0  0  0  0  0  0
   -0.2450   -0.6996    1.4998 H   0  0  0  0  0  0  0  0  0  0  0  0
   -1.0075   -1.7574   -1.2443 H   0  0  0  0  0  0  0  0  0  0  0  0
   -2.3739   -0.5652    0.5098 H   0  0  0  0  0  0  0  0  0  0  0  0
   -2.3269    0.2363   -1.1589 H   0  0  0  0  0  0  0  0  0  0  0  0
  1  2  2  0
  2  3  1  0
  3  4  1  0
  4  5  1  0
  5  6  1  0
  6  7  1  0
  7  8  1  0
  7  9  1  0
  8  1  1  0
  9  3  1  0
  1 10  1  0
  2 11  1  0
  3 12  1  0
  4 13  1  0
  4 14  1  0
  6 15  1  0
  6 16  1  0
  7 17  1  0
  8 18  1  0
  8 19  1  0
M  END
