
     RDKit          3D

 21 22  0  0  0  0  0  0  0  0999 V2000
   -0.7487    1.5558   -0.0957 C   0  0  0  0  0  0  0  0  0  0  0  0
    0.5389    1.3853   -0.3583 C   0  0  0  0  0  0  0  0  0  0  0  0
    1.4610    0.3268   -0.7762 C   0  0  0  0  0  0  0  0  0  0  0  0
    2.5468    0.0244    0.2731 C   0  0  0  0  0  0  0  0  0  0  0  0
    1.4588   -0.9198   -0.0492 C   0  0  0  0  0  0  0  0  0  0  0  0
    0.4473   -1.1223    0.8534 O   0  0  0  0  0  0  0  0  0  0  0  0
   -0.6966   -1.4402    0.1095 C   0  0  0  0  0  0  0  0  0  0  0  0
   -1.8067   -0.5895    0.6123 C   0  0  0  0  0  0  0  0  0  0  0  0
   -1.9411    0.7348   -0.0928 C   0  0  0  0  0  0  0  0  0  0  0  0
   -0.9436    2.5803    0.1885 H   0  0  0  0  0  0  0  0  0  0  0  0
    1.1160    2.3211   -0.2275 H   0  0  0  0  0  0  0  0  0  0  0  0
    1.8650    0.3744   -1.8025 H   0  0  0  0  0  0  0  0  0  0  0  0
    2.5044    0.5244    1.2376 H   0  0  0  0  0  0  0  0  0  0  0  0
    3.5480   -0.2564   -0.0833 H   0  0  0  0  0  0  0  0  0  0  0  0
    1.7072   -1.8475   -0.6448 H   0  0  0  0  0  0  0  0  0  0  0  0
   -0.5431   -1.3347   -0.9765 H   0  0  0  0  0  0  0  0  0  0  0  0
   -0.9425   -2.5051    0.3747 H   0  0  0  0  0  0  0  0  0  0  0  0
   -2.7678   -1.1349    0.4506 H   0  0  0  0  0  0  0  0  0  0  0  0
   -1.6859   -0.4720    1.7089 H   0  0  0  0  0  0  0  0  0  0  0  0
   -2.3515    0.5212   -1.1234 H   0  0  0  0  0  0  0  0  0  0  0  0
   -2.7658    1.2741    0.4215 H   0  0  0  0  0  0  0  0  0  0  0  0
  1  2  2  3
  2  3  1  0
  3  4  1  0
  4  5  1  0
  5  6  1  0
  6  7  1  0
  7  8  1  0
  8  9  1  0
  9  1  1  0
  5  3  1  0
  1 10  1  0
  2 11  1  0
  3 12  1  0
  4 13  1  0
  4 14  1  0
  5 15  1  0
  7 16  1  0
  7 17  1  0
  8 18  1  0
  8 19  1  0
  9 20  1  0
  9 21  1  0
M  END
