
     RDKit          3D

 19 21  0  0  0  0  0  0  0  0999 V2000
   -2.1151    0.2503   -0.4281 C   0  0  0  0  0  0  0  0  0  0  0  0
   -1.2159    1.2302   -0.2739 C   0  0  0  0  0  0  0  0  0  0  0  0
    0.0813    0.6810    0.1903 C   0  0  0  0  0  0  0  0  0  0  0  0
    1.2836    0.7287   -0.7207 C   0  0  0  0  0  0  0  0  0  0  0  0
    2.0010   -0.5531   -0.3270 C   0  0  0  0  0  0  0  0  0  0  0  0
    0.9618   -1.4447   -0.1860 O   0  0  0  0  0  0  0  0  0  0  0  0
   -0.1090   -0.7795    0.3930 C   0  0  0  0  0  0  0  0  0  0  0  0
   -1.4975   -1.0391   -0.0805 C   0  0  0  0  0  0  0  0  0  0  0  0
    0.1425    0.1017    1.5336 C   0  0  0  0  0  0  0  0  0  0  0  0
   -3.1313    0.4327   -0.7610 H   0  0  0  0  0  0  0  0  0  0  0  0
   -1.3623    2.2944   -0.4497 H   0  0  0  0  0  0  0  0  0  0  0  0
    1.8948    1.6198   -0.6019 H   0  0  0  0  0  0  0  0  0  0  0  0
    0.9160    0.5802   -1.7594 H   0  0  0  0  0  0  0  0  0  0  0  0
    2.6856   -0.8116   -1.1400 H   0  0  0  0  0  0  0  0  0  0  0  0
    2.5533   -0.4085    0.6334 H   0  0  0  0  0  0  0  0  0  0  0  0
   -2.0408   -1.5799    0.7352 H   0  0  0  0  0  0  0  0  0  0  0  0
   -1.4931   -1.6615   -1.0120 H   0  0  0  0  0  0  0  0  0  0  0  0
    1.1319    0.0417    2.0412 H   0  0  0  0  0  0  0  0  0  0  0  0
   -0.6869    0.3173    2.2136 H   0  0  0  0  0  0  0  0  0  0  0  0
  1  2  2  0
  2  3  1  0
  3  4  1  0
  4  5  1  0
  5  6  1  0
  6  7  1  0
  7  8  1  0
  7  9  1  0
  8  1  1  0
  7  3  1  0
  9  3  1  0
  1 10  1  0
  2 11  1  0
  4 12  1  0
  4 13  1  0
  5 14  1  0
  5 15  1  0
  8 16  1  0
  8 17  1  0
  9 18  1  0
  9 19  1  0
M  END
