
     RDKit          3D

 21 22  0  0  0  0  0  0  0  0999 V2000
    0.9460    1.6868   -0.5101 C   0  0  0  0  0  0  0  0  0  0  0  0
   -0.3469    1.8151   -0.2191 C   0  0  0  0  0  0  0  0  0  0  0  0
   -1.3528    0.9455    0.4626 C   0  0  0  0  0  0  0  0  0  0  0  0
   -1.5227   -0.3972   -0.1315 C   0  0  0  0  0  0  0  0  0  0  0  0
   -0.6564   -0.9621   -1.1977 C   0  0  0  0  0  0  0  0  0  0  0  0
   -0.5877   -1.4494    0.1874 C   0  0  0  0  0  0  0  0  0  0  0  0
    0.5479   -1.1787    1.0965 C   0  0  0  0  0  0  0  0  0  0  0  0
    1.7484   -0.5868    0.3988 C   0  0  0  0  0  0  0  0  0  0  0  0
    1.8667    0.5699   -0.2357 C   0  0  0  0  0  0  0  0  0  0  0  0
    1.4122    2.5109   -1.0238 H   0  0  0  0  0  0  0  0  0  0  0  0
   -0.6991    2.7727   -0.5733 H   0  0  0  0  0  0  0  0  0  0  0  0
   -2.3146    1.5348    0.4218 H   0  0  0  0  0  0  0  0  0  0  0  0
   -1.1324    0.9139    1.5721 H   0  0  0  0  0  0  0  0  0  0  0  0
   -2.6100   -0.7022   -0.2451 H   0  0  0  0  0  0  0  0  0  0  0  0
   -1.1162   -1.6345   -1.9835 H   0  0  0  0  0  0  0  0  0  0  0  0
    0.0686   -0.2869   -1.6668 H   0  0  0  0  0  0  0  0  0  0  0  0
   -1.0127   -2.4917    0.3316 H   0  0  0  0  0  0  0  0  0  0  0  0
    0.9339   -2.0895    1.6021 H   0  0  0  0  0  0  0  0  0  0  0  0
    0.3261   -0.4662    1.9166 H   0  0  0  0  0  0  0  0  0  0  0  0
    2.6365   -1.1923    0.4199 H   0  0  0  0  0  0  0  0  0  0  0  0
    2.8653    0.6878   -0.6228 H   0  0  0  0  0  0  0  0  0  0  0  0
  1  2  2  3
  2  3  1  0
  3  4  1  0
  4  5  1  0
  5  6  1  0
  6  7  1  0
  7  8  1  0
  8  9  2  3
  9  1  1  0
  6  4  1  0
  1 10  1  0
  2 11  1  0
  3 12  1  0
  3 13  1  0
  4 14  1  0
  5 15  1  0
  5 16  1  0
  6 17  1  0
  7 18  1  0
  7 19  1  0
  8 20  1  0
  9 21  1  0
M  END
