
     RDKit          3D

 15 16  0  0  0  0  0  0  0  0999 V2000
   -0.3513   -0.9572    1.0577 C   0  0  0  0  0  0  0  0  0  0  0  0
   -1.0911    0.1683    1.0197 C   0  0  0  0  0  0  0  0  0  0  0  0
   -0.6400    0.8983   -0.1737 C   0  0  0  0  0  0  0  0  0  0  0  0
    0.8093    1.2089    0.0350 C   0  0  0  0  0  0  0  0  0  0  0  0
    1.5103    0.0774   -0.0291 C   0  0  0  0  0  0  0  0  0  0  0  0
    0.4793   -1.0091   -0.1748 C   0  0  0  0  0  0  0  0  0  0  0  0
   -0.4672   -0.2853   -1.1493 C   0  0  0  0  0  0  0  0  0  0  0  0
   -0.3629   -1.6916    1.8488 H   0  0  0  0  0  0  0  0  0  0  0  0
   -1.8599    0.4846    1.7130 H   0  0  0  0  0  0  0  0  0  0  0  0
   -1.2408    1.6868   -0.5432 H   0  0  0  0  0  0  0  0  0  0  0  0
    1.1778    2.2118    0.2070 H   0  0  0  0  0  0  0  0  0  0  0  0
    2.5835   -0.0425    0.0134 H   0  0  0  0  0  0  0  0  0  0  0  0
    0.8295   -1.9493   -0.4963 H   0  0  0  0  0  0  0  0  0  0  0  0
   -1.4121   -0.8159   -1.2656 H   0  0  0  0  0  0  0  0  0  0  0  0
    0.0357    0.0148   -2.0625 H   0  0  0  0  0  0  0  0  0  0  0  0
  1  2  2  0
  2  3  1  0
  3  4  1  0
  4  5  2  0
  5  6  1  0
  6  7  1  0
  6  1  1  0
  7  3  1  0
  1  8  1  0
  2  9  1  0
  3 10  1  0
  4 11  1  0
  5 12  1  0
  6 13  1  0
  7 14  1  0
  7 15  1  0
M  END
