
     RDKit          3D

 19 21  0  0  0  0  0  0  0  0999 V2000
    0.3272    1.4954    0.5857 C   0  0  0  0  0  0  0  0  0  0  0  0
    1.2071    0.5606    0.2954 C   0  0  0  0  0  0  0  0  0  0  0  0
    2.5426   -0.0113    0.0473 C   0  0  0  0  0  0  0  0  0  0  0  0
    1.9476   -1.0807   -0.6263 O   0  0  0  0  0  0  0  0  0  0  0  0
    0.7445   -0.8118    0.0245 C   0  0  0  0  0  0  0  0  0  0  0  0
   -0.4511   -0.7253   -0.8945 C   0  0  0  0  0  0  0  0  0  0  0  0
   -1.7423   -1.2236   -0.2781 C   0  0  0  0  0  0  0  0  0  0  0  0
   -1.4903    0.2167   -0.4887 C   0  0  0  0  0  0  0  0  0  0  0  0
   -1.1100    1.1277    0.6293 C   0  0  0  0  0  0  0  0  0  0  0  0
    0.6982    2.4913    0.7791 H   0  0  0  0  0  0  0  0  0  0  0  0
    3.0511   -0.4342    0.9625 H   0  0  0  0  0  0  0  0  0  0  0  0
    3.1990    0.5814   -0.6038 H   0  0  0  0  0  0  0  0  0  0  0  0
    0.5727   -1.3880    0.9592 H   0  0  0  0  0  0  0  0  0  0  0  0
   -0.2769   -0.8478   -1.9768 H   0  0  0  0  0  0  0  0  0  0  0  0
   -2.3933   -1.7420   -1.0246 H   0  0  0  0  0  0  0  0  0  0  0  0
   -1.7074   -1.7127    0.6929 H   0  0  0  0  0  0  0  0  0  0  0  0
   -2.0987    0.7123   -1.2936 H   0  0  0  0  0  0  0  0  0  0  0  0
   -1.3425    0.6925    1.6275 H   0  0  0  0  0  0  0  0  0  0  0  0
   -1.6776    2.0995    0.5830 H   0  0  0  0  0  0  0  0  0  0  0  0
  1  2  2  0
  2  3  1  0
  3  4  1  0
  4  5  1  0
  5  6  1  0
  6  7  1  0
  7  8  1  0
  8  9  1  0
  9  1  1  0
  5  2  1  0
  8  6  1  0
  1 10  1  0
  3 11  1  0
  3 12  1  0
  5 13  1  0
  6 14  1  0
  7 15  1  0
  7 16  1  0
  8 17  1  0
  9 18  1  0
  9 19  1  0
M  END
