
     RDKit          3D

 18 19  0  0  0  0  0  0  0  0999 V2000
    1.7103   -0.0124    0.4141 C   0  0  0  0  0  0  0  0  0  0  0  0
    1.0012    1.0863    0.6571 C   0  0  0  0  0  0  0  0  0  0  0  0
    0.1040    1.2717   -0.5396 C   0  0  0  0  0  0  0  0  0  0  0  0
   -1.2926    0.8268   -0.2258 C   0  0  0  0  0  0  0  0  0  0  0  0
   -1.2129   -0.4981    0.4854 C   0  0  0  0  0  0  0  0  0  0  0  0
   -0.1867   -1.4177   -0.0929 C   0  0  0  0  0  0  0  0  0  0  0  0
    0.9888   -0.6879   -0.7018 C   0  0  0  0  0  0  0  0  0  0  0  0
    0.6190    0.3750   -1.4832 O   0  0  0  0  0  0  0  0  0  0  0  0
    2.6226   -0.3397    0.9270 H   0  0  0  0  0  0  0  0  0  0  0  0
    1.0694    1.7015    1.5333 H   0  0  0  0  0  0  0  0  0  0  0  0
    0.1851    2.3151   -0.8629 H   0  0  0  0  0  0  0  0  0  0  0  0
   -1.8356    0.7116   -1.2087 H   0  0  0  0  0  0  0  0  0  0  0  0
   -1.8595    1.5507    0.3733 H   0  0  0  0  0  0  0  0  0  0  0  0
   -2.2088   -0.9960    0.4266 H   0  0  0  0  0  0  0  0  0  0  0  0
   -0.9454   -0.2644    1.5496 H   0  0  0  0  0  0  0  0  0  0  0  0
   -0.6072   -2.1618   -0.8009 H   0  0  0  0  0  0  0  0  0  0  0  0
    0.2395   -2.0206    0.7606 H   0  0  0  0  0  0  0  0  0  0  0  0
    1.6087   -1.4401   -1.2111 H   0  0  0  0  0  0  0  0  0  0  0  0
  1  2  2  0
  2  3  1  0
  3  4  1  0
  4  5  1  0
  5  6  1  0
  6  7  1  0
  7  8  1  0
  7  1  1  0
  8  3  1  0
  1  9  1  0
  2 10  1  0
  3 11  1  0
  4 12  1  0
  4 13  1  0
  5 14  1  0
  5 15  1  0
  6 16  1  0
  6 17  1  0
  7 18  1  0
M  END
