
     RDKit          3D

 19 20  0  0  0  0  0  0  0  0999 V2000
    0.9017    1.2724    0.5534 C   0  0  0  0  0  0  0  0  0  0  0  0
   -0.2321    0.8116    1.0543 C   0  0  0  0  0  0  0  0  0  0  0  0
   -1.1604   -0.2236    0.6221 C   0  0  0  0  0  0  0  0  0  0  0  0
   -1.9183    0.1496   -0.6321 C   0  0  0  0  0  0  0  0  0  0  0  0
   -1.0706   -0.6889   -1.3543 O   0  0  0  0  0  0  0  0  0  0  0  0
   -0.5595   -1.2994   -0.2349 C   0  0  0  0  0  0  0  0  0  0  0  0
    0.9414   -1.2713   -0.0931 C   0  0  0  0  0  0  0  0  0  0  0  0
    1.5247   -0.4383   -1.0088 O   0  0  0  0  0  0  0  0  0  0  0  0
    1.6213    0.8731   -0.6500 C   0  0  0  0  0  0  0  0  0  0  0  0
    1.3645    2.0752    1.1352 H   0  0  0  0  0  0  0  0  0  0  0  0
   -0.5260    1.3170    1.9835 H   0  0  0  0  0  0  0  0  0  0  0  0
   -1.7861   -0.6139    1.4440 H   0  0  0  0  0  0  0  0  0  0  0  0
   -1.8162    1.2160   -0.9245 H   0  0  0  0  0  0  0  0  0  0  0  0
   -2.9698   -0.2131   -0.5617 H   0  0  0  0  0  0  0  0  0  0  0  0
   -0.9361   -2.3250   -0.0141 H   0  0  0  0  0  0  0  0  0  0  0  0
    1.3822   -2.2916   -0.2407 H   0  0  0  0  0  0  0  0  0  0  0  0
    1.1647   -0.9293    0.9505 H   0  0  0  0  0  0  0  0  0  0  0  0
    2.7142    1.0890   -0.4779 H   0  0  0  0  0  0  0  0  0  0  0  0
    1.3603    1.4904   -1.5510 H   0  0  0  0  0  0  0  0  0  0  0  0
  1  2  2  0
  2  3  1  0
  3  4  1  0
  4  5  1  0
  5  6  1  0
  6  7  1  0
  7  8  1  0
  8  9  1  0
  9  1  1  0
  6  3  1  0
  1 10  1  0
  2 11  1  0
  3 12  1  0
  4 13  1  0
  4 14  1  0
  6 15  1  0
  7 16  1  0
  7 17  1  0
  9 18  1  0
  9 19  1  0
M  END
