
     RDKit          3D

 17 19  0  0  0  0  0  0  0  0999 V2000
    0.7326    1.2579    0.3032 C   0  0  0  0  0  0  0  0  0  0  0  0
   -0.5823    1.2704    0.4059 C   0  0  0  0  0  0  0  0  0  0  0  0
   -1.1796    0.0001   -0.0655 C   0  0  0  0  0  0  0  0  0  0  0  0
   -2.4323   -0.1470   -0.5531 C   0  0  0  0  0  0  0  0  0  0  0  0
   -2.2152   -0.4345    0.9095 O   0  0  0  0  0  0  0  0  0  0  0  0
   -0.0147   -0.9425   -0.0317 C   0  0  0  0  0  0  0  0  0  0  0  0
    1.1521   -0.0453   -0.2578 C   0  0  0  0  0  0  0  0  0  0  0  0
    2.4789   -0.3987   -0.4608 C   0  0  0  0  0  0  0  0  0  0  0  0
    1.6324   -0.0317   -1.5997 O   0  0  0  0  0  0  0  0  0  0  0  0
    1.4257    2.0876    0.5891 H   0  0  0  0  0  0  0  0  0  0  0  0
   -1.1283    2.1518    0.8042 H   0  0  0  0  0  0  0  0  0  0  0  0
   -2.8257   -1.1065   -0.9731 H   0  0  0  0  0  0  0  0  0  0  0  0
   -3.1356    0.6855   -0.7064 H   0  0  0  0  0  0  0  0  0  0  0  0
    0.0791   -1.5199    0.8881 H   0  0  0  0  0  0  0  0  0  0  0  0
   -0.1113   -1.6769   -0.8723 H   0  0  0  0  0  0  0  0  0  0  0  0
    3.3098    0.3024   -0.2672 H   0  0  0  0  0  0  0  0  0  0  0  0
    2.8143   -1.4526   -0.5333 H   0  0  0  0  0  0  0  0  0  0  0  0
  1  2  2  0
  2  3  1  0
  3  4  1  0
  4  5  1  0
  3  6  1  0
  6  7  1  0
  7  8  1  0
  8  9  1  0
  7  1  1  0
  5  3  1  0
  9  7  1  0
  1 10  1  0
  2 11  1  0
  4 12  1  0
  4 13  1  0
  6 14  1  0
  6 15  1  0
  8 16  1  0
  8 17  1  0
M  END
