
     RDKit          3D

 19 21  0  0  0  0  0  0  0  0999 V2000
    1.6189   -0.8435   -0.0322 C   0  0  0  0  0  0  0  0  0  0  0  0
    1.4868    0.3740    0.5095 C   0  0  0  0  0  0  0  0  0  0  0  0
    0.1880    1.0455    0.6527 C   0  0  0  0  0  0  0  0  0  0  0  0
   -0.3128    1.7015   -0.6391 C   0  0  0  0  0  0  0  0  0  0  0  0
   -0.9642    0.3510   -0.9492 C   0  0  0  0  0  0  0  0  0  0  0  0
   -0.1514   -0.5847   -1.5117 O   0  0  0  0  0  0  0  0  0  0  0  0
    0.3291   -1.4336   -0.5541 C   0  0  0  0  0  0  0  0  0  0  0  0
   -0.6262   -1.3337    0.6457 C   0  0  0  0  0  0  0  0  0  0  0  0
   -0.9944    0.1226    0.5459 C   0  0  0  0  0  0  0  0  0  0  0  0
    2.5320   -1.3825   -0.1083 H   0  0  0  0  0  0  0  0  0  0  0  0
    2.3757    0.8769    0.8529 H   0  0  0  0  0  0  0  0  0  0  0  0
    0.1812    1.7494    1.4891 H   0  0  0  0  0  0  0  0  0  0  0  0
    0.4620    2.0100   -1.3352 H   0  0  0  0  0  0  0  0  0  0  0  0
   -1.1041    2.4225   -0.3875 H   0  0  0  0  0  0  0  0  0  0  0  0
   -1.9790    0.4659   -1.3700 H   0  0  0  0  0  0  0  0  0  0  0  0
    0.4589   -2.4725   -0.8814 H   0  0  0  0  0  0  0  0  0  0  0  0
   -1.5142   -1.9260    0.4281 H   0  0  0  0  0  0  0  0  0  0  0  0
   -0.0998   -1.5956    1.5770 H   0  0  0  0  0  0  0  0  0  0  0  0
   -1.8865    0.4528    1.0678 H   0  0  0  0  0  0  0  0  0  0  0  0
  1  2  2  0
  2  3  1  0
  3  4  1  0
  4  5  1  0
  5  6  1  0
  6  7  1  0
  7  8  1  0
  8  9  1  0
  7  1  1  0
  9  3  1  0
  9  5  1  0
  1 10  1  0
  2 11  1  0
  3 12  1  0
  4 13  1  0
  4 14  1  0
  5 15  1  0
  7 16  1  0
  8 17  1  0
  8 18  1  0
  9 19  1  0
M  END
