
     RDKit          3D

 21 22  0  0  0  0  0  0  0  0999 V2000
   -1.2731   -1.3710   -0.2034 C   0  0  0  0  0  0  0  0  0  0  0  0
    0.0308   -1.2724   -0.3168 C   0  0  0  0  0  0  0  0  0  0  0  0
    0.8554   -0.0686   -0.1749 C   0  0  0  0  0  0  0  0  0  0  0  0
    0.1594    1.1991   -0.5352 C   0  0  0  0  0  0  0  0  0  0  0  0
   -0.9934    1.3837    0.4338 C   0  0  0  0  0  0  0  0  0  0  0  0
   -2.1142    0.8773   -0.2062 O   0  0  0  0  0  0  0  0  0  0  0  0
   -2.3582   -0.4362    0.0811 C   0  0  0  0  0  0  0  0  0  0  0  0
    2.3079   -0.1539   -0.5927 C   0  0  0  0  0  0  0  0  0  0  0  0
    1.9452   -0.0985    0.8471 C   0  0  0  0  0  0  0  0  0  0  0  0
   -1.6247   -2.4069   -0.3616 H   0  0  0  0  0  0  0  0  0  0  0  0
    0.5832   -2.1879   -0.5438 H   0  0  0  0  0  0  0  0  0  0  0  0
   -0.1943    1.1446   -1.5963 H   0  0  0  0  0  0  0  0  0  0  0  0
    0.8830    2.0266   -0.5003 H   0  0  0  0  0  0  0  0  0  0  0  0
   -0.8529    0.7620    1.3568 H   0  0  0  0  0  0  0  0  0  0  0  0
   -1.1172    2.4373    0.7481 H   0  0  0  0  0  0  0  0  0  0  0  0
   -3.2731   -0.7449   -0.4670 H   0  0  0  0  0  0  0  0  0  0  0  0
   -2.5997   -0.5102    1.1804 H   0  0  0  0  0  0  0  0  0  0  0  0
    2.6504   -1.1330   -1.0282 H   0  0  0  0  0  0  0  0  0  0  0  0
    2.7827    0.7582   -1.0132 H   0  0  0  0  0  0  0  0  0  0  0  0
    2.1717    0.8270    1.4299 H   0  0  0  0  0  0  0  0  0  0  0  0
    2.0310   -1.0324    1.4624 H   0  0  0  0  0  0  0  0  0  0  0  0
  1  2  2  0
  2  3  1  0
  3  4  1  0
  4  5  1  0
  5  6  1  0
  6  7  1  0
  3  8  1  0
  8  9  1  0
  7  1  1  0
  9  3  1  0
  1 10  1  0
  2 11  1  0
  4 12  1  0
  4 13  1  0
  5 14  1  0
  5 15  1  0
  7 16  1  0
  7 17  1  0
  8 18  1  0
  8 19  1  0
  9 20  1  0
  9 21  1  0
M  END
