
     RDKit          3D

 18 19  0  0  0  0  0  0  0  0999 V2000
    1.2943    1.0729    0.0620 C   0  0  0  0  0  0  0  0  0  0  0  0
    0.0562    1.4979   -0.1598 C   0  0  0  0  0  0  0  0  0  0  0  0
   -1.1558    0.6385   -0.2206 C   0  0  0  0  0  0  0  0  0  0  0  0
   -1.2298   -0.2820    0.9921 C   0  0  0  0  0  0  0  0  0  0  0  0
   -0.3182   -1.2380    0.2426 C   0  0  0  0  0  0  0  0  0  0  0  0
   -0.7311   -0.6057   -1.0172 C   0  0  0  0  0  0  0  0  0  0  0  0
    0.9650   -1.2279    0.6095 O   0  0  0  0  0  0  0  0  0  0  0  0
    1.8364   -0.3284    0.1048 C   0  0  0  0  0  0  0  0  0  0  0  0
    2.0136    1.8899    0.2386 H   0  0  0  0  0  0  0  0  0  0  0  0
   -0.1465    2.5490   -0.3166 H   0  0  0  0  0  0  0  0  0  0  0  0
   -2.0832    1.1018   -0.5364 H   0  0  0  0  0  0  0  0  0  0  0  0
   -2.2641   -0.6437    1.0950 H   0  0  0  0  0  0  0  0  0  0  0  0
   -0.7965    0.1414    1.9120 H   0  0  0  0  0  0  0  0  0  0  0  0
   -0.7579   -2.2753    0.3521 H   0  0  0  0  0  0  0  0  0  0  0  0
   -1.6585   -1.0505   -1.4357 H   0  0  0  0  0  0  0  0  0  0  0  0
    0.0315   -0.4003   -1.7864 H   0  0  0  0  0  0  0  0  0  0  0  0
    2.7298   -0.2780    0.7752 H   0  0  0  0  0  0  0  0  0  0  0  0
    2.2149   -0.5615   -0.9113 H   0  0  0  0  0  0  0  0  0  0  0  0
  1  2  2  0
  2  3  1  0
  3  4  1  0
  4  5  1  0
  5  6  1  0
  5  7  1  0
  7  8  1  0
  8  1  1  0
  6  3  1  0
  1  9  1  0
  2 10  1  0
  3 11  1  0
  4 12  1  0
  4 13  1  0
  5 14  1  0
  6 15  1  0
  6 16  1  0
  8 17  1  0
  8 18  1  0
M  END
