
     RDKit          3D

 23 24  0  0  0  0  0  0  0  0999 V2000
    1.5319    0.8973   -0.0542 C   0  0  0  0  0  0  0  0  0  0  0  0
    0.5195    1.7305   -0.2290 C   0  0  0  0  0  0  0  0  0  0  0  0
   -0.8788    1.7312    0.2747 C   0  0  0  0  0  0  0  0  0  0  0  0
   -1.5493    0.4196   -0.0095 C   0  0  0  0  0  0  0  0  0  0  0  0
   -1.0698   -0.6433    0.9443 C   0  0  0  0  0  0  0  0  0  0  0  0
   -0.4342   -1.3408   -0.2210 C   0  0  0  0  0  0  0  0  0  0  0  0
    1.0213   -1.5027   -0.1532 C   0  0  0  0  0  0  0  0  0  0  0  0
    1.7773   -0.4320    0.5622 C   0  0  0  0  0  0  0  0  0  0  0  0
   -0.9370   -0.3130   -1.1851 C   0  0  0  0  0  0  0  0  0  0  0  0
    2.4353    1.3458   -0.5049 H   0  0  0  0  0  0  0  0  0  0  0  0
    0.6925    2.5958   -0.8523 H   0  0  0  0  0  0  0  0  0  0  0  0
   -0.9043    1.9084    1.3893 H   0  0  0  0  0  0  0  0  0  0  0  0
   -1.4870    2.5238   -0.2079 H   0  0  0  0  0  0  0  0  0  0  0  0
   -2.6600    0.5011   -0.1046 H   0  0  0  0  0  0  0  0  0  0  0  0
   -1.9645   -1.1722    1.3863 H   0  0  0  0  0  0  0  0  0  0  0  0
   -0.4234   -0.3215    1.7589 H   0  0  0  0  0  0  0  0  0  0  0  0
   -0.9497   -2.3199   -0.3915 H   0  0  0  0  0  0  0  0  0  0  0  0
    1.4494   -1.5734   -1.1882 H   0  0  0  0  0  0  0  0  0  0  0  0
    1.2622   -2.4732    0.3383 H   0  0  0  0  0  0  0  0  0  0  0  0
    2.8739   -0.6747    0.4425 H   0  0  0  0  0  0  0  0  0  0  0  0
    1.6109   -0.4338    1.6617 H   0  0  0  0  0  0  0  0  0  0  0  0
   -0.1911    0.2400   -1.7636 H   0  0  0  0  0  0  0  0  0  0  0  0
   -1.7249   -0.6929   -1.8932 H   0  0  0  0  0  0  0  0  0  0  0  0
  1  2  2  3
  2  3  1  0
  3  4  1  0
  4  5  1  0
  5  6  1  0
  6  7  1  0
  7  8  1  0
  6  9  1  0
  8  1  1  0
  9  4  1  0
  1 10  1  0
  2 11  1  0
  3 12  1  0
  3 13  1  0
  4 14  1  0
  5 15  1  0
  5 16  1  0
  6 17  1  0
  7 18  1  0
  7 19  1  0
  8 20  1  0
  8 21  1  0
  9 22  1  0
  9 23  1  0
M  END
