
     RDKit          3D

 21 23  0  0  0  0  0  0  0  0999 V2000
    2.0804    0.9714    0.2432 C   0  0  0  0  0  0  0  0  0  0  0  0
    0.8128    1.1914    0.5202 C   0  0  0  0  0  0  0  0  0  0  0  0
   -0.0004    0.0363    0.1801 C   0  0  0  0  0  0  0  0  0  0  0  0
    0.9404   -1.1012    0.0193 C   0  0  0  0  0  0  0  0  0  0  0  0
    2.2321   -0.3881   -0.3225 C   0  0  0  0  0  0  0  0  0  0  0  0
   -1.0497    0.1964   -0.8851 C   0  0  0  0  0  0  0  0  0  0  0  0
   -1.8060    1.0054    0.1366 C   0  0  0  0  0  0  0  0  0  0  0  0
   -1.2708   -0.1751    0.9163 C   0  0  0  0  0  0  0  0  0  0  0  0
   -1.7258   -0.9806   -0.2676 C   0  0  0  0  0  0  0  0  0  0  0  0
    2.9232    1.6936    0.4065 H   0  0  0  0  0  0  0  0  0  0  0  0
    0.4978    2.1689    0.9589 H   0  0  0  0  0  0  0  0  0  0  0  0
    0.6733   -1.7858   -0.8257 H   0  0  0  0  0  0  0  0  0  0  0  0
    1.0104   -1.6525    0.9859 H   0  0  0  0  0  0  0  0  0  0  0  0
    2.4503   -0.3948   -1.4052 H   0  0  0  0  0  0  0  0  0  0  0  0
    3.0458   -0.9207    0.2524 H   0  0  0  0  0  0  0  0  0  0  0  0
   -0.9147    0.4124   -1.8477 H   0  0  0  0  0  0  0  0  0  0  0  0
   -2.9055    1.0106    0.0381 H   0  0  0  0  0  0  0  0  0  0  0  0
   -1.4341    1.9942    0.3847 H   0  0  0  0  0  0  0  0  0  0  0  0
   -1.4283   -0.3689    1.8834 H   0  0  0  0  0  0  0  0  0  0  0  0
   -1.2887   -1.9618   -0.4246 H   0  0  0  0  0  0  0  0  0  0  0  0
   -2.8426   -0.9512   -0.3904 H   0  0  0  0  0  0  0  0  0  0  0  0
  1  2  2  0
  2  3  1  0
  3  4  1  0
  4  5  1  0
  3  6  1  0
  6  7  1  0
  7  8  1  0
  8  9  1  0
  5  1  1  0
  9  6  1  0
  8  3  1  0
  1 10  1  0
  2 11  1  0
  4 12  1  0
  4 13  1  0
  5 14  1  0
  5 15  1  0
  6 16  1  0
  7 17  1  0
  7 18  1  0
  8 19  1  0
  9 20  1  0
  9 21  1  0
M  END
