
     RDKit          3D

 20 21  0  0  0  0  0  0  0  0999 V2000
   -1.7179    1.1715   -0.2328 C   0  0  0  0  0  0  0  0  0  0  0  0
   -2.0372   -0.1060   -0.2937 C   0  0  0  0  0  0  0  0  0  0  0  0
   -0.9502   -1.0974   -0.4728 C   0  0  0  0  0  0  0  0  0  0  0  0
    0.0631   -0.7956    0.6178 C   0  0  0  0  0  0  0  0  0  0  0  0
    1.4535   -1.2557    0.3308 C   0  0  0  0  0  0  0  0  0  0  0  0
    1.8547    0.1624    0.0239 C   0  0  0  0  0  0  0  0  0  0  0  0
    0.5071    0.6252    0.5721 C   0  0  0  0  0  0  0  0  0  0  0  0
   -0.2734    1.5020   -0.3517 C   0  0  0  0  0  0  0  0  0  0  0  0
   -2.4262    1.9781   -0.1044 H   0  0  0  0  0  0  0  0  0  0  0  0
   -3.0533   -0.4346   -0.2172 H   0  0  0  0  0  0  0  0  0  0  0  0
   -1.3001   -2.1370   -0.4078 H   0  0  0  0  0  0  0  0  0  0  0  0
   -0.5122   -0.9141   -1.4771 H   0  0  0  0  0  0  0  0  0  0  0  0
   -0.3428   -1.0647    1.6131 H   0  0  0  0  0  0  0  0  0  0  0  0
    1.5492   -1.9719   -0.5116 H   0  0  0  0  0  0  0  0  0  0  0  0
    1.9506   -1.5860    1.2830 H   0  0  0  0  0  0  0  0  0  0  0  0
    2.6954    0.5404    0.6234 H   0  0  0  0  0  0  0  0  0  0  0  0
    1.9397    0.3655   -1.0822 H   0  0  0  0  0  0  0  0  0  0  0  0
    0.5988    1.1301    1.5692 H   0  0  0  0  0  0  0  0  0  0  0  0
    0.1007    1.3134   -1.3949 H   0  0  0  0  0  0  0  0  0  0  0  0
   -0.0994    2.5744   -0.0870 H   0  0  0  0  0  0  0  0  0  0  0  0
  1  2  2  0
  2  3  1  0
  3  4  1  0
  4  5  1  0
  5  6  1  0
  6  7  1  0
  7  8  1  0
  8  1  1  0
  7  4  1  0
  1  9  1  0
  2 10  1  0
  3 11  1  0
  3 12  1  0
  4 13  1  0
  5 14  1  0
  5 15  1  0
  6 16  1  0
  6 17  1  0
  7 18  1  0
  8 19  1  0
  8 20  1  0
M  END
