
     RDKit          3D

 21 22  0  0  0  0  0  0  0  0999 V2000
    1.1733    1.5385    0.3441 C   0  0  0  0  0  0  0  0  0  0  0  0
   -0.0655    1.7375   -0.1029 C   0  0  0  0  0  0  0  0  0  0  0  0
   -1.0614    0.8271   -0.6583 C   0  0  0  0  0  0  0  0  0  0  0  0
   -2.3246    0.4357   -0.0808 C   0  0  0  0  0  0  0  0  0  0  0  0
   -1.1547   -0.3141    0.3828 C   0  0  0  0  0  0  0  0  0  0  0  0
   -0.6014   -1.5278   -0.2635 C   0  0  0  0  0  0  0  0  0  0  0  0
    0.8935   -1.5892   -0.0184 C   0  0  0  0  0  0  0  0  0  0  0  0
    1.2780   -0.6852    0.9808 O   0  0  0  0  0  0  0  0  0  0  0  0
    2.0604    0.3426    0.4714 C   0  0  0  0  0  0  0  0  0  0  0  0
    1.6627    2.4632    0.7044 H   0  0  0  0  0  0  0  0  0  0  0  0
   -0.3539    2.7891   -0.0229 H   0  0  0  0  0  0  0  0  0  0  0  0
   -0.8571    0.5333   -1.7161 H   0  0  0  0  0  0  0  0  0  0  0  0
   -3.0320   -0.1210   -0.7259 H   0  0  0  0  0  0  0  0  0  0  0  0
   -2.8600    1.0805    0.6504 H   0  0  0  0  0  0  0  0  0  0  0  0
   -0.8335   -0.1292    1.4062 H   0  0  0  0  0  0  0  0  0  0  0  0
   -0.7158   -1.5096   -1.3870 H   0  0  0  0  0  0  0  0  0  0  0  0
   -1.1087   -2.4473    0.0633 H   0  0  0  0  0  0  0  0  0  0  0  0
    1.1151   -2.5986    0.3855 H   0  0  0  0  0  0  0  0  0  0  0  0
    1.4903   -1.4641   -0.9341 H   0  0  0  0  0  0  0  0  0  0  0  0
    2.3587    0.0672   -0.5628 H   0  0  0  0  0  0  0  0  0  0  0  0
    2.9366    0.5713    1.0840 H   0  0  0  0  0  0  0  0  0  0  0  0
  1  2  2  3
  2  3  1  0
  3  4  1  0
  4  5  1  0
  5  6  1  0
  6  7  1  0
  7  8  1  0
  8  9  1  0
  9  1  1  0
  5  3  1  0
  1 10  1  0
  2 11  1  0
  3 12  1  0
  4 13  1  0
  4 14  1  0
  5 15  1  0
  6 16  1  0
  6 17  1  0
  7 18  1  0
  7 19  1  0
  9 20  1  0
  9 21  1  0
M  END
