
     RDKit          3D

 21 23  0  0  0  0  0  0  0  0999 V2000
    0.6268   -1.5377   -0.3915 C   0  0  0  0  0  0  0  0  0  0  0  0
   -0.4465   -0.8807   -0.0381 C   0  0  0  0  0  0  0  0  0  0  0  0
   -0.2690    0.5628    0.3683 C   0  0  0  0  0  0  0  0  0  0  0  0
    0.6715    1.1463   -0.6669 C   0  0  0  0  0  0  0  0  0  0  0  0
    2.0300    0.5421   -0.3899 C   0  0  0  0  0  0  0  0  0  0  0  0
    1.9831   -0.9624   -0.4175 C   0  0  0  0  0  0  0  0  0  0  0  0
   -1.7163    0.8416    0.2172 C   0  0  0  0  0  0  0  0  0  0  0  0
   -2.6209    0.1610   -0.7176 C   0  0  0  0  0  0  0  0  0  0  0  0
   -1.8708   -0.7051    0.2197 C   0  0  0  0  0  0  0  0  0  0  0  0
    0.5434   -2.5962   -0.6967 H   0  0  0  0  0  0  0  0  0  0  0  0
    0.1709    0.6475    1.3724 H   0  0  0  0  0  0  0  0  0  0  0  0
    0.7615    2.2394   -0.5974 H   0  0  0  0  0  0  0  0  0  0  0  0
    0.3748    0.7965   -1.6923 H   0  0  0  0  0  0  0  0  0  0  0  0
    2.3912    0.8793    0.6251 H   0  0  0  0  0  0  0  0  0  0  0  0
    2.7538    0.9428   -1.1305 H   0  0  0  0  0  0  0  0  0  0  0  0
    2.6039   -1.3559    0.4207 H   0  0  0  0  0  0  0  0  0  0  0  0
    2.4925   -1.3096   -1.3643 H   0  0  0  0  0  0  0  0  0  0  0  0
   -2.2038    1.3774    1.0827 H   0  0  0  0  0  0  0  0  0  0  0  0
   -2.2623    0.1174   -1.7863 H   0  0  0  0  0  0  0  0  0  0  0  0
   -3.7001    0.2386   -0.5396 H   0  0  0  0  0  0  0  0  0  0  0  0
   -2.3135   -1.1451    1.1179 H   0  0  0  0  0  0  0  0  0  0  0  0
  1  2  2  0
  2  3  1  0
  3  4  1  0
  4  5  1  0
  5  6  1  0
  3  7  1  0
  7  8  1  0
  8  9  1  0
  6  1  1  0
  9  7  1  0
  9  2  1  0
  1 10  1  0
  3 11  1  0
  4 12  1  0
  4 13  1  0
  5 14  1  0
  5 15  1  0
  6 16  1  0
  6 17  1  0
  7 18  1  0
  8 19  1  0
  8 20  1  0
  9 21  1  0
M  END
