
     RDKit          3D

 17 19  0  0  0  0  0  0  0  0999 V2000
   -0.8649    1.6400    0.0008 C   0  0  0  0  0  0  0  0  0  0  0  0
   -1.8839    0.8568   -0.2949 C   0  0  0  0  0  0  0  0  0  0  0  0
   -1.4039   -0.5353   -0.5509 C   0  0  0  0  0  0  0  0  0  0  0  0
   -0.9384   -1.1976    0.7506 C   0  0  0  0  0  0  0  0  0  0  0  0
   -0.0183   -0.5372   -0.1574 C   0  0  0  0  0  0  0  0  0  0  0  0
    1.0516   -1.1877   -0.7470 O   0  0  0  0  0  0  0  0  0  0  0  0
    2.1684   -0.5693   -0.1041 C   0  0  0  0  0  0  0  0  0  0  0  0
    1.7055    0.8594    0.0143 C   0  0  0  0  0  0  0  0  0  0  0  0
    0.3838    0.8736   -0.0277 C   0  0  0  0  0  0  0  0  0  0  0  0
   -0.9632    2.6895    0.2270 H   0  0  0  0  0  0  0  0  0  0  0  0
   -2.9197    1.1315   -0.3551 H   0  0  0  0  0  0  0  0  0  0  0  0
   -1.7985   -1.1355   -1.3641 H   0  0  0  0  0  0  0  0  0  0  0  0
   -1.2364   -0.7288    1.7070 H   0  0  0  0  0  0  0  0  0  0  0  0
   -0.9573   -2.3191    0.7654 H   0  0  0  0  0  0  0  0  0  0  0  0
    2.3900   -1.0241    0.8534 H   0  0  0  0  0  0  0  0  0  0  0  0
    2.9876   -0.5686   -0.8342 H   0  0  0  0  0  0  0  0  0  0  0  0
    2.2976    1.7524    0.1170 H   0  0  0  0  0  0  0  0  0  0  0  0
  1  2  2  0
  2  3  1  0
  3  4  1  0
  4  5  1  0
  5  6  1  0
  6  7  1  0
  7  8  1  0
  8  9  2  0
  9  1  1  0
  5  3  1  0
  9  5  1  0
  1 10  1  0
  2 11  1  0
  3 12  1  0
  4 13  1  0
  4 14  1  0
  7 15  1  0
  7 16  1  0
  8 17  1  0
M  END
