
     RDKit          3D

 20 21  0  0  0  0  0  0  0  0999 V2000
    1.6589    0.4997    0.1084 C   0  0  0  0  0  0  0  0  0  0  0  0
    1.5112   -0.8183    0.1622 C   0  0  0  0  0  0  0  0  0  0  0  0
    0.3833   -1.6258   -0.4175 C   0  0  0  0  0  0  0  0  0  0  0  0
   -0.9310   -0.9881   -0.0205 C   0  0  0  0  0  0  0  0  0  0  0  0
   -1.2899    0.1937   -0.8693 C   0  0  0  0  0  0  0  0  0  0  0  0
   -0.7344    1.1094    0.2088 C   0  0  0  0  0  0  0  0  0  0  0  0
    0.6618    1.5683   -0.1299 C   0  0  0  0  0  0  0  0  0  0  0  0
   -0.7751   -0.0444    1.1539 C   0  0  0  0  0  0  0  0  0  0  0  0
    2.6652    0.8668    0.2616 H   0  0  0  0  0  0  0  0  0  0  0  0
    2.3009   -1.3558    0.6863 H   0  0  0  0  0  0  0  0  0  0  0  0
    0.4266   -1.6130   -1.5256 H   0  0  0  0  0  0  0  0  0  0  0  0
    0.4445   -2.6702   -0.0906 H   0  0  0  0  0  0  0  0  0  0  0  0
   -1.7261   -1.7472    0.0927 H   0  0  0  0  0  0  0  0  0  0  0  0
   -0.7601    0.3249   -1.8091 H   0  0  0  0  0  0  0  0  0  0  0  0
   -2.4112    0.3159   -0.9121 H   0  0  0  0  0  0  0  0  0  0  0  0
   -1.3811    1.9734    0.4496 H   0  0  0  0  0  0  0  0  0  0  0  0
    0.9474    2.4913    0.3724 H   0  0  0  0  0  0  0  0  0  0  0  0
    0.6656    1.7717   -1.2341 H   0  0  0  0  0  0  0  0  0  0  0  0
    0.0879   -0.2221    1.7907 H   0  0  0  0  0  0  0  0  0  0  0  0
   -1.7444   -0.0300    1.7221 H   0  0  0  0  0  0  0  0  0  0  0  0
  1  2  2  0
  2  3  1  0
  3  4  1  0
  4  5  1  0
  5  6  1  0
  6  7  1  0
  6  8  1  0
  7  1  1  0
  8  4  1  0
  1  9  1  0
  2 10  1  0
  3 11  1  0
  3 12  1  0
  4 13  1  0
  5 14  1  0
  5 15  1  0
  6 16  1  0
  7 17  1  0
  7 18  1  0
  8 19  1  0
  8 20  1  0
M  END
