
     RDKit          3D

 21 22  0  0  0  0  0  0  0  0999 V2000
    2.3422    1.0920    0.3526 C   0  0  0  0  0  0  0  0  0  0  0  0
    1.2256    1.3504   -0.3187 C   0  0  0  0  0  0  0  0  0  0  0  0
    0.4318    0.0997   -0.4426 C   0  0  0  0  0  0  0  0  0  0  0  0
   -1.0465    0.3719   -0.4229 C   0  0  0  0  0  0  0  0  0  0  0  0
   -1.8847   -0.8744   -0.5468 C   0  0  0  0  0  0  0  0  0  0  0  0
   -2.7737   -0.0455    0.3468 C   0  0  0  0  0  0  0  0  0  0  0  0
   -1.6105    0.5898    0.8142 O   0  0  0  0  0  0  0  0  0  0  0  0
    0.8990   -0.6830    0.7586 C   0  0  0  0  0  0  0  0  0  0  0  0
    2.3977   -0.3525    0.7387 C   0  0  0  0  0  0  0  0  0  0  0  0
    3.1414    1.7801    0.6180 H   0  0  0  0  0  0  0  0  0  0  0  0
    0.9882    2.3365   -0.6909 H   0  0  0  0  0  0  0  0  0  0  0  0
    0.7434   -0.4472   -1.3419 H   0  0  0  0  0  0  0  0  0  0  0  0
   -1.3220    1.1056   -1.1902 H   0  0  0  0  0  0  0  0  0  0  0  0
   -2.2928   -1.0789   -1.5628 H   0  0  0  0  0  0  0  0  0  0  0  0
   -1.4549   -1.7834   -0.0438 H   0  0  0  0  0  0  0  0  0  0  0  0
   -3.3279   -0.6013    1.1267 H   0  0  0  0  0  0  0  0  0  0  0  0
   -3.4554    0.5878   -0.2283 H   0  0  0  0  0  0  0  0  0  0  0  0
    0.4855   -0.2703    1.7019 H   0  0  0  0  0  0  0  0  0  0  0  0
    0.7720   -1.7638    0.6634 H   0  0  0  0  0  0  0  0  0  0  0  0
    2.8733   -0.8914   -0.1071 H   0  0  0  0  0  0  0  0  0  0  0  0
    2.8684   -0.5219    1.7060 H   0  0  0  0  0  0  0  0  0  0  0  0
  1  2  2  0
  2  3  1  0
  3  4  1  0
  4  5  1  0
  5  6  1  0
  6  7  1  0
  3  8  1  0
  8  9  1  0
  9  1  1  0
  7  4  1  0
  1 10  1  0
  2 11  1  0
  3 12  1  0
  4 13  1  0
  5 14  1  0
  5 15  1  0
  6 16  1  0
  6 17  1  0
  8 18  1  0
  8 19  1  0
  9 20  1  0
  9 21  1  0
M  END
