
     RDKit          3D

 21 22  0  0  0  0  0  0  0  0999 V2000
   -2.3071   -0.2776    0.3733 C   0  0  0  0  0  0  0  0  0  0  0  0
   -1.6698    0.8631    0.6074 C   0  0  0  0  0  0  0  0  0  0  0  0
   -0.2421    0.6351    0.4452 C   0  0  0  0  0  0  0  0  0  0  0  0
    0.5316    1.7504   -0.1974 C   0  0  0  0  0  0  0  0  0  0  0  0
    1.6822    1.1857   -0.7459 O   0  0  0  0  0  0  0  0  0  0  0  0
    2.1165    0.0508   -0.0707 C   0  0  0  0  0  0  0  0  0  0  0  0
    1.1873   -1.1440   -0.3359 C   0  0  0  0  0  0  0  0  0  0  0  0
   -0.1795   -0.5320   -0.5230 C   0  0  0  0  0  0  0  0  0  0  0  0
   -1.3097   -1.3624    0.0299 C   0  0  0  0  0  0  0  0  0  0  0  0
   -3.3839   -0.4716    0.4068 H   0  0  0  0  0  0  0  0  0  0  0  0
   -2.1986    1.7939    0.8764 H   0  0  0  0  0  0  0  0  0  0  0  0
    0.1678    0.3437    1.4359 H   0  0  0  0  0  0  0  0  0  0  0  0
    0.7371    2.5960    0.4667 H   0  0  0  0  0  0  0  0  0  0  0  0
   -0.0749    2.1260   -1.0475 H   0  0  0  0  0  0  0  0  0  0  0  0
    3.1029   -0.2128   -0.4944 H   0  0  0  0  0  0  0  0  0  0  0  0
    2.2512    0.2023    1.0081 H   0  0  0  0  0  0  0  0  0  0  0  0
    1.5298   -1.6248   -1.2797 H   0  0  0  0  0  0  0  0  0  0  0  0
    1.1698   -1.8417    0.4972 H   0  0  0  0  0  0  0  0  0  0  0  0
   -0.3361   -0.1996   -1.5490 H   0  0  0  0  0  0  0  0  0  0  0  0
   -1.0081   -1.9448    0.8957 H   0  0  0  0  0  0  0  0  0  0  0  0
   -1.7665   -1.9354   -0.7991 H   0  0  0  0  0  0  0  0  0  0  0  0
  1  2  2  0
  2  3  1  0
  3  4  1  0
  4  5  1  0
  5  6  1  0
  6  7  1  0
  7  8  1  0
  8  9  1  0
  9  1  1  0
  8  3  1  0
  1 10  1  0
  2 11  1  0
  3 12  1  0
  4 13  1  0
  4 14  1  0
  6 15  1  0
  6 16  1  0
  7 17  1  0
  7 18  1  0
  8 19  1  0
  9 20  1  0
  9 21  1  0
M  END
