
     RDKit          3D

 21 23  0  0  0  0  0  0  0  0999 V2000
   -1.2663    1.4491    0.4845 C   0  0  0  0  0  0  0  0  0  0  0  0
   -0.0227    1.8910    0.4739 C   0  0  0  0  0  0  0  0  0  0  0  0
    0.8661    0.9428   -0.2686 C   0  0  0  0  0  0  0  0  0  0  0  0
    1.4186   -0.1510    0.6176 C   0  0  0  0  0  0  0  0  0  0  0  0
    0.5273   -1.3054    0.3450 C   0  0  0  0  0  0  0  0  0  0  0  0
   -0.8852   -0.9192    0.7469 C   0  0  0  0  0  0  0  0  0  0  0  0
   -1.2967    0.1754   -0.2478 C   0  0  0  0  0  0  0  0  0  0  0  0
   -0.1465    0.2332   -1.1675 C   0  0  0  0  0  0  0  0  0  0  0  0
    0.3578   -1.2050   -1.1796 C   0  0  0  0  0  0  0  0  0  0  0  0
   -2.1423    1.9170    0.9438 H   0  0  0  0  0  0  0  0  0  0  0  0
    0.2632    2.8284    0.9576 H   0  0  0  0  0  0  0  0  0  0  0  0
    1.6381    1.4642   -0.8442 H   0  0  0  0  0  0  0  0  0  0  0  0
    2.4801   -0.3534    0.3172 H   0  0  0  0  0  0  0  0  0  0  0  0
    1.4345    0.1457    1.6938 H   0  0  0  0  0  0  0  0  0  0  0  0
    0.8423   -2.2694    0.6778 H   0  0  0  0  0  0  0  0  0  0  0  0
   -0.8137   -0.5289    1.7776 H   0  0  0  0  0  0  0  0  0  0  0  0
   -1.5762   -1.7687    0.7319 H   0  0  0  0  0  0  0  0  0  0  0  0
   -2.2710   -0.0509   -0.7047 H   0  0  0  0  0  0  0  0  0  0  0  0
   -0.2707    0.6732   -2.1278 H   0  0  0  0  0  0  0  0  0  0  0  0
    1.3096   -1.3141   -1.7059 H   0  0  0  0  0  0  0  0  0  0  0  0
   -0.4462   -1.8541   -1.5214 H   0  0  0  0  0  0  0  0  0  0  0  0
  1  2  2  0
  2  3  1  0
  3  4  1  0
  4  5  1  0
  5  6  1  0
  6  7  1  0
  7  8  1  0
  8  9  1  0
  7  1  1  0
  8  3  1  0
  9  5  1  0
  1 10  1  0
  2 11  1  0
  3 12  1  0
  4 13  1  0
  4 14  1  0
  5 15  1  0
  6 16  1  0
  6 17  1  0
  7 18  1  0
  8 19  1  0
  9 20  1  0
  9 21  1  0
M  END
