
     RDKit          3D

 19 21  0  0  0  0  0  0  0  0999 V2000
   -0.5748    1.6791   -0.0665 C   0  0  0  0  0  0  0  0  0  0  0  0
   -1.5645    0.8018   -0.1927 C   0  0  0  0  0  0  0  0  0  0  0  0
   -1.1649   -0.4757    0.4117 C   0  0  0  0  0  0  0  0  0  0  0  0
   -0.4006   -1.3548   -0.5734 C   0  0  0  0  0  0  0  0  0  0  0  0
    1.0289   -1.1241   -0.1109 C   0  0  0  0  0  0  0  0  0  0  0  0
    1.4281    0.2946   -0.3655 C   0  0  0  0  0  0  0  0  0  0  0  0
    0.5819    1.0552    0.6403 C   0  0  0  0  0  0  0  0  0  0  0  0
   -0.0899   -0.0755    1.3803 C   0  0  0  0  0  0  0  0  0  0  0  0
    0.8201   -1.1130    1.2888 O   0  0  0  0  0  0  0  0  0  0  0  0
   -0.5664    2.7060   -0.4113 H   0  0  0  0  0  0  0  0  0  0  0  0
   -2.5236    0.9810   -0.6640 H   0  0  0  0  0  0  0  0  0  0  0  0
   -1.9527   -1.0103    0.9383 H   0  0  0  0  0  0  0  0  0  0  0  0
   -0.5471   -1.0399   -1.6109 H   0  0  0  0  0  0  0  0  0  0  0  0
   -0.6996   -2.3859   -0.3836 H   0  0  0  0  0  0  0  0  0  0  0  0
    1.7284   -1.8815   -0.4332 H   0  0  0  0  0  0  0  0  0  0  0  0
    2.5116    0.4033   -0.1603 H   0  0  0  0  0  0  0  0  0  0  0  0
    1.2670    0.6344   -1.4023 H   0  0  0  0  0  0  0  0  0  0  0  0
    1.1436    1.7385    1.2654 H   0  0  0  0  0  0  0  0  0  0  0  0
   -0.4255    0.1668    2.3756 H   0  0  0  0  0  0  0  0  0  0  0  0
  1  2  2  0
  2  3  1  0
  3  4  1  0
  4  5  1  0
  5  6  1  0
  6  7  1  0
  7  8  1  0
  8  9  1  0
  7  1  1  0
  8  3  1  0
  9  5  1  0
  1 10  1  0
  2 11  1  0
  3 12  1  0
  4 13  1  0
  4 14  1  0
  5 15  1  0
  6 16  1  0
  6 17  1  0
  7 18  1  0
  8 19  1  0
M  END
