
     RDKit          3D

 21 22  0  0  0  0  0  0  0  0999 V2000
    1.5015   -0.8720   -0.7977 C   0  0  0  0  0  0  0  0  0  0  0  0
    0.2976   -1.4099   -0.6610 C   0  0  0  0  0  0  0  0  0  0  0  0
   -0.6601   -0.9811    0.3837 C   0  0  0  0  0  0  0  0  0  0  0  0
   -2.0462   -0.7730   -0.1771 C   0  0  0  0  0  0  0  0  0  0  0  0
   -2.1699    0.4601   -0.6385 C   0  0  0  0  0  0  0  0  0  0  0  0
   -0.8870    1.1687   -0.4256 C   0  0  0  0  0  0  0  0  0  0  0  0
   -0.3539    0.4440    0.7785 C   0  0  0  0  0  0  0  0  0  0  0  0
    1.0732    0.7045    1.0763 C   0  0  0  0  0  0  0  0  0  0  0  0
    2.0382    0.2011    0.0518 C   0  0  0  0  0  0  0  0  0  0  0  0
    2.1268   -1.2533   -1.5905 H   0  0  0  0  0  0  0  0  0  0  0  0
   -0.0452   -2.2114   -1.3305 H   0  0  0  0  0  0  0  0  0  0  0  0
   -0.6902   -1.6110    1.2680 H   0  0  0  0  0  0  0  0  0  0  0  0
   -2.8114   -1.5382   -0.1886 H   0  0  0  0  0  0  0  0  0  0  0  0
   -3.0719    0.8616   -1.0930 H   0  0  0  0  0  0  0  0  0  0  0  0
   -0.2003    0.9694   -1.2883 H   0  0  0  0  0  0  0  0  0  0  0  0
   -1.0123    2.2536   -0.2599 H   0  0  0  0  0  0  0  0  0  0  0  0
   -0.9587    0.6825    1.6752 H   0  0  0  0  0  0  0  0  0  0  0  0
    1.2140    1.8048    1.1548 H   0  0  0  0  0  0  0  0  0  0  0  0
    1.2991    0.3009    2.0866 H   0  0  0  0  0  0  0  0  0  0  0  0
    2.9350   -0.2072    0.6024 H   0  0  0  0  0  0  0  0  0  0  0  0
    2.4218    1.0058   -0.6264 H   0  0  0  0  0  0  0  0  0  0  0  0
  1  2  2  0
  2  3  1  0
  3  4  1  0
  4  5  2  0
  5  6  1  0
  6  7  1  0
  7  8  1  0
  8  9  1  0
  9  1  1  0
  7  3  1  0
  1 10  1  0
  2 11  1  0
  3 12  1  0
  4 13  1  0
  5 14  1  0
  6 15  1  0
  6 16  1  0
  7 17  1  0
  8 18  1  0
  8 19  1  0
  9 20  1  0
  9 21  1  0
M  END
