
     RDKit          3D

 19 22  0  0  0  0  0  0  0  0999 V2000
   -2.0383    0.3334    0.8614 C   0  0  0  0  0  0  0  0  0  0  0  0
   -2.0773    0.6164   -0.4407 C   0  0  0  0  0  0  0  0  0  0  0  0
   -0.7088    0.3654   -0.8927 C   0  0  0  0  0  0  0  0  0  0  0  0
   -0.3610   -0.9141   -0.1442 C   0  0  0  0  0  0  0  0  0  0  0  0
   -0.5950   -0.0238    1.0613 C   0  0  0  0  0  0  0  0  0  0  0  0
    0.1060    1.0124    0.2302 C   0  0  0  0  0  0  0  0  0  0  0  0
    1.4853    0.4855   -0.0453 C   0  0  0  0  0  0  0  0  0  0  0  0
    2.0294   -0.5918    0.8195 C   0  0  0  0  0  0  0  0  0  0  0  0
    1.1180   -1.0265   -0.2552 C   0  0  0  0  0  0  0  0  0  0  0  0
   -2.8003    0.3381    1.6282 H   0  0  0  0  0  0  0  0  0  0  0  0
   -2.9144    0.9525   -1.0350 H   0  0  0  0  0  0  0  0  0  0  0  0
   -0.3977    0.4902   -1.8858 H   0  0  0  0  0  0  0  0  0  0  0  0
   -0.9914   -1.7625   -0.2811 H   0  0  0  0  0  0  0  0  0  0  0  0
   -0.2480   -0.3049    2.0073 H   0  0  0  0  0  0  0  0  0  0  0  0
   -0.0475    2.0464    0.4209 H   0  0  0  0  0  0  0  0  0  0  0  0
    2.0440    0.9085   -0.8862 H   0  0  0  0  0  0  0  0  0  0  0  0
    3.1092   -0.8259    0.6433 H   0  0  0  0  0  0  0  0  0  0  0  0
    1.7673   -0.5911    1.8816 H   0  0  0  0  0  0  0  0  0  0  0  0
    1.5203   -1.5081   -1.1433 H   0  0  0  0  0  0  0  0  0  0  0  0
  1  2  2  0
  2  3  1  0
  3  4  1  0
  4  5  1  0
  5  6  1  0
  6  7  1  0
  7  8  1  0
  8  9  1  0
  5  1  1  0
  9  7  1  0
  6  3  1  0
  9  4  1  0
  1 10  1  0
  2 11  1  0
  3 12  1  0
  4 13  1  0
  5 14  1  0
  6 15  1  0
  7 16  1  0
  8 17  1  0
  8 18  1  0
  9 19  1  0
M  END
