
     RDKit          3D

 19 20  0  0  0  0  0  0  0  0999 V2000
    1.9780   -0.6436    0.7210 C   0  0  0  0  0  0  0  0  0  0  0  0
    0.7381   -0.9539    0.3889 C   0  0  0  0  0  0  0  0  0  0  0  0
    0.3272   -0.0948   -0.7096 C   0  0  0  0  0  0  0  0  0  0  0  0
   -1.1092    0.3265   -0.6884 C   0  0  0  0  0  0  0  0  0  0  0  0
   -1.5408    1.1047    0.5320 C   0  0  0  0  0  0  0  0  0  0  0  0
   -1.7980   -0.1027    1.2227 O   0  0  0  0  0  0  0  0  0  0  0  0
   -2.0185   -0.6823   -0.0180 C   0  0  0  0  0  0  0  0  0  0  0  0
    1.2245    0.9315   -0.7319 O   0  0  0  0  0  0  0  0  0  0  0  0
    2.4117    0.4480   -0.1724 C   0  0  0  0  0  0  0  0  0  0  0  0
    2.6051   -1.0899    1.5085 H   0  0  0  0  0  0  0  0  0  0  0  0
    0.1543   -1.7423    0.8923 H   0  0  0  0  0  0  0  0  0  0  0  0
    0.4671   -0.6742   -1.6670 H   0  0  0  0  0  0  0  0  0  0  0  0
   -1.4425    0.7081   -1.6542 H   0  0  0  0  0  0  0  0  0  0  0  0
   -0.7694    1.7125    1.0210 H   0  0  0  0  0  0  0  0  0  0  0  0
   -2.5187    1.5965    0.3475 H   0  0  0  0  0  0  0  0  0  0  0  0
   -3.0499   -0.5498   -0.4212 H   0  0  0  0  0  0  0  0  0  0  0  0
   -1.6657   -1.7266   -0.0242 H   0  0  0  0  0  0  0  0  0  0  0  0
    2.8640    1.3000    0.3847 H   0  0  0  0  0  0  0  0  0  0  0  0
    3.1429    0.1322   -0.9314 H   0  0  0  0  0  0  0  0  0  0  0  0
  1  2  2  0
  2  3  1  0
  3  4  1  0
  4  5  1  0
  5  6  1  0
  6  7  1  0
  3  8  1  0
  8  9  1  0
  9  1  1  0
  7  4  1  0
  1 10  1  0
  2 11  1  0
  3 12  1  0
  4 13  1  0
  5 14  1  0
  5 15  1  0
  7 16  1  0
  7 17  1  0
  9 18  1  0
  9 19  1  0
M  END
