
     RDKit          3D

 23 24  0  0  0  0  0  0  0  0999 V2000
    2.6483   -0.4969   -0.0317 C   0  0  0  0  0  0  0  0  0  0  0  0
    1.8149   -1.4647    0.3288 C   0  0  0  0  0  0  0  0  0  0  0  0
    0.3354   -1.3108    0.4224 C   0  0  0  0  0  0  0  0  0  0  0  0
   -0.1442   -0.0100   -0.1239 C   0  0  0  0  0  0  0  0  0  0  0  0
   -1.4827    0.3934    0.4437 C   0  0  0  0  0  0  0  0  0  0  0  0
   -2.6776   -0.4604    0.2634 C   0  0  0  0  0  0  0  0  0  0  0  0
   -2.5452    0.7429   -0.5899 C   0  0  0  0  0  0  0  0  0  0  0  0
    0.8149    1.1358    0.1555 C   0  0  0  0  0  0  0  0  0  0  0  0
    2.1869    0.8694   -0.3874 C   0  0  0  0  0  0  0  0  0  0  0  0
    3.7341   -0.7023   -0.0733 H   0  0  0  0  0  0  0  0  0  0  0  0
    2.2823   -2.4298    0.5665 H   0  0  0  0  0  0  0  0  0  0  0  0
   -0.0962   -2.1328   -0.2206 H   0  0  0  0  0  0  0  0  0  0  0  0
   -0.0102   -1.4987    1.4639 H   0  0  0  0  0  0  0  0  0  0  0  0
   -0.1979   -0.1153   -1.2432 H   0  0  0  0  0  0  0  0  0  0  0  0
   -1.4264    1.0476    1.3588 H   0  0  0  0  0  0  0  0  0  0  0  0
   -2.5750   -1.4790   -0.1736 H   0  0  0  0  0  0  0  0  0  0  0  0
   -3.4301   -0.4075    1.0773 H   0  0  0  0  0  0  0  0  0  0  0  0
   -2.2769    0.6764   -1.6643 H   0  0  0  0  0  0  0  0  0  0  0  0
   -3.1938    1.6250   -0.3397 H   0  0  0  0  0  0  0  0  0  0  0  0
    0.8008    1.4210    1.2172 H   0  0  0  0  0  0  0  0  0  0  0  0
    0.4109    2.0132   -0.4204 H   0  0  0  0  0  0  0  0  0  0  0  0
    2.1615    0.9388   -1.4961 H   0  0  0  0  0  0  0  0  0  0  0  0
    2.8664    1.6447    0.0332 H   0  0  0  0  0  0  0  0  0  0  0  0
  1  2  2  0
  2  3  1  0
  3  4  1  0
  4  5  1  0
  5  6  1  0
  6  7  1  0
  4  8  1  0
  8  9  1  0
  9  1  1  0
  7  5  1  0
  1 10  1  0
  2 11  1  0
  3 12  1  0
  3 13  1  0
  4 14  1  0
  5 15  1  0
  6 16  1  0
  6 17  1  0
  7 18  1  0
  7 19  1  0
  8 20  1  0
  8 21  1  0
  9 22  1  0
  9 23  1  0
M  END
