
     RDKit          3D

 21 23  0  0  0  0  0  0  0  0999 V2000
   -2.0413    0.7537    0.7048 C   0  0  0  0  0  0  0  0  0  0  0  0
   -0.9239    1.3717    0.3685 C   0  0  0  0  0  0  0  0  0  0  0  0
   -0.1939    0.6280   -0.6617 C   0  0  0  0  0  0  0  0  0  0  0  0
   -0.8913   -0.7134   -0.7871 C   0  0  0  0  0  0  0  0  0  0  0  0
   -2.1740   -0.4958   -0.0857 C   0  0  0  0  0  0  0  0  0  0  0  0
    0.2234   -1.3593    0.0422 C   0  0  0  0  0  0  0  0  0  0  0  0
    0.9813   -0.1013   -0.0967 C   0  0  0  0  0  0  0  0  0  0  0  0
    2.3455    0.0326   -0.5663 C   0  0  0  0  0  0  0  0  0  0  0  0
    1.9365    0.4433    0.8349 C   0  0  0  0  0  0  0  0  0  0  0  0
   -2.7289    1.1455    1.4575 H   0  0  0  0  0  0  0  0  0  0  0  0
   -0.5718    2.3133    0.7899 H   0  0  0  0  0  0  0  0  0  0  0  0
   -0.0281    1.1235   -1.6305 H   0  0  0  0  0  0  0  0  0  0  0  0
   -0.8957   -1.1510   -1.7848 H   0  0  0  0  0  0  0  0  0  0  0  0
   -2.9697   -0.3305   -0.8324 H   0  0  0  0  0  0  0  0  0  0  0  0
   -2.4496   -1.2977    0.6284 H   0  0  0  0  0  0  0  0  0  0  0  0
   -0.1523   -1.5349    1.0713 H   0  0  0  0  0  0  0  0  0  0  0  0
    0.6526   -2.2704   -0.4238 H   0  0  0  0  0  0  0  0  0  0  0  0
    3.0591   -0.8078   -0.5889 H   0  0  0  0  0  0  0  0  0  0  0  0
    2.6546    0.8900   -1.2145 H   0  0  0  0  0  0  0  0  0  0  0  0
    1.8610    1.5239    1.0813 H   0  0  0  0  0  0  0  0  0  0  0  0
    2.3063   -0.1633    1.6936 H   0  0  0  0  0  0  0  0  0  0  0  0
  1  2  2  0
  2  3  1  0
  3  4  1  0
  4  5  1  0
  4  6  1  0
  6  7  1  0
  7  8  1  0
  8  9  1  0
  5  1  1  0
  9  7  1  0
  7  3  1  0
  1 10  1  0
  2 11  1  0
  3 12  1  0
  4 13  1  0
  5 14  1  0
  5 15  1  0
  6 16  1  0
  6 17  1  0
  8 18  1  0
  8 19  1  0
  9 20  1  0
  9 21  1  0
M  END
