
     RDKit          3D

 16 17  0  0  0  0  0  0  0  0999 V2000
    1.7315   -0.3146    0.6855 C   0  0  0  0  0  0  0  0  0  0  0  0
    0.4836   -0.6929    0.9199 C   0  0  0  0  0  0  0  0  0  0  0  0
   -0.3302   -0.1441   -0.1918 C   0  0  0  0  0  0  0  0  0  0  0  0
   -1.6045   -0.8377   -0.5177 C   0  0  0  0  0  0  0  0  0  0  0  0
   -2.1453    0.4123   -0.8667 O   0  0  0  0  0  0  0  0  0  0  0  0
   -1.2840    0.9458    0.1205 C   0  0  0  0  0  0  0  0  0  0  0  0
    0.5726    0.0657   -1.2266 O   0  0  0  0  0  0  0  0  0  0  0  0
    1.7243    0.4730   -0.5665 C   0  0  0  0  0  0  0  0  0  0  0  0
    2.6273   -0.5383    1.3035 H   0  0  0  0  0  0  0  0  0  0  0  0
    0.1613   -1.2756    1.7514 H   0  0  0  0  0  0  0  0  0  0  0  0
   -2.0940   -1.2063    0.4081 H   0  0  0  0  0  0  0  0  0  0  0  0
   -1.5427   -1.5555   -1.3485 H   0  0  0  0  0  0  0  0  0  0  0  0
   -1.7165    0.8387    1.1314 H   0  0  0  0  0  0  0  0  0  0  0  0
   -0.8785    1.9406   -0.1272 H   0  0  0  0  0  0  0  0  0  0  0  0
    2.6394    0.3223   -1.1719 H   0  0  0  0  0  0  0  0  0  0  0  0
    1.6557    1.5666   -0.3035 H   0  0  0  0  0  0  0  0  0  0  0  0
  1  2  2  0
  2  3  1  0
  3  4  1  0
  4  5  1  0
  5  6  1  0
  3  7  1  0
  7  8  1  0
  8  1  1  0
  6  3  1  0
  1  9  1  0
  2 10  1  0
  4 11  1  0
  4 12  1  0
  6 13  1  0
  6 14  1  0
  8 15  1  0
  8 16  1  0
M  END
