
     RDKit          3D

 21 22  0  0  0  0  0  0  0  0999 V2000
    1.8366    0.1788    1.1938 C   0  0  0  0  0  0  0  0  0  0  0  0
    0.5256    0.1748    1.2449 C   0  0  0  0  0  0  0  0  0  0  0  0
   -0.3074    0.0443    0.0430 C   0  0  0  0  0  0  0  0  0  0  0  0
   -1.1228   -1.2309   -0.0470 C   0  0  0  0  0  0  0  0  0  0  0  0
   -2.3651   -0.3741   -0.1135 C   0  0  0  0  0  0  0  0  0  0  0  0
   -1.5630    0.8736    0.1973 C   0  0  0  0  0  0  0  0  0  0  0  0
    0.4984    0.3107   -1.1788 C   0  0  0  0  0  0  0  0  0  0  0  0
    1.6575   -0.4944   -1.0558 O   0  0  0  0  0  0  0  0  0  0  0  0
    2.5021    0.0470   -0.1254 C   0  0  0  0  0  0  0  0  0  0  0  0
    2.4480    0.2793    2.1239 H   0  0  0  0  0  0  0  0  0  0  0  0
    0.0333    0.2724    2.2203 H   0  0  0  0  0  0  0  0  0  0  0  0
   -0.9148   -1.7762   -1.0131 H   0  0  0  0  0  0  0  0  0  0  0  0
   -1.0366   -1.9003    0.8050 H   0  0  0  0  0  0  0  0  0  0  0  0
   -2.8369   -0.3653   -1.1047 H   0  0  0  0  0  0  0  0  0  0  0  0
   -3.0452   -0.6601    0.7299 H   0  0  0  0  0  0  0  0  0  0  0  0
   -1.5895    1.6497   -0.5870 H   0  0  0  0  0  0  0  0  0  0  0  0
   -1.7160    1.3088    1.1901 H   0  0  0  0  0  0  0  0  0  0  0  0
   -0.0755   -0.0072   -2.0644 H   0  0  0  0  0  0  0  0  0  0  0  0
    0.8360    1.3506   -1.2501 H   0  0  0  0  0  0  0  0  0  0  0  0
    3.3356   -0.6977    0.0292 H   0  0  0  0  0  0  0  0  0  0  0  0
    2.8998    1.0162   -0.4876 H   0  0  0  0  0  0  0  0  0  0  0  0
  1  2  2  0
  2  3  1  0
  3  4  1  0
  4  5  1  0
  5  6  1  0
  3  7  1  0
  7  8  1  0
  8  9  1  0
  9  1  1  0
  6  3  1  0
  1 10  1  0
  2 11  1  0
  4 12  1  0
  4 13  1  0
  5 14  1  0
  5 15  1  0
  6 16  1  0
  6 17  1  0
  7 18  1  0
  7 19  1  0
  9 20  1  0
  9 21  1  0
M  END
