
     RDKit          3D

 17 19  0  0  0  0  0  0  0  0999 V2000
    2.1840    0.0762   -0.0701 C   0  0  0  0  0  0  0  0  0  0  0  0
    1.5295    1.1313    0.3419 C   0  0  0  0  0  0  0  0  0  0  0  0
    0.0723    0.8728    0.1996 C   0  0  0  0  0  0  0  0  0  0  0  0
   -1.1234    1.3618    0.0469 C   0  0  0  0  0  0  0  0  0  0  0  0
   -2.1234    0.2877   -0.0172 C   0  0  0  0  0  0  0  0  0  0  0  0
   -1.9231   -0.5087   -1.2612 O   0  0  0  0  0  0  0  0  0  0  0  0
   -1.3483   -0.9726   -0.0972 C   0  0  0  0  0  0  0  0  0  0  0  0
   -0.0174   -0.6119    0.3548 C   0  0  0  0  0  0  0  0  0  0  0  0
    1.1780   -0.9592   -0.5135 C   0  0  0  0  0  0  0  0  0  0  0  0
    3.2497   -0.0820   -0.1097 H   0  0  0  0  0  0  0  0  0  0  0  0
    1.9149    2.0765    0.7346 H   0  0  0  0  0  0  0  0  0  0  0  0
   -1.2788    2.4553   -0.0172 H   0  0  0  0  0  0  0  0  0  0  0  0
   -3.1476    0.3788    0.3009 H   0  0  0  0  0  0  0  0  0  0  0  0
   -1.8988   -1.8308    0.4223 H   0  0  0  0  0  0  0  0  0  0  0  0
    0.1996   -0.8641    1.4268 H   0  0  0  0  0  0  0  0  0  0  0  0
    1.5911   -1.9259   -0.1714 H   0  0  0  0  0  0  0  0  0  0  0  0
    0.9417   -0.8853   -1.5702 H   0  0  0  0  0  0  0  0  0  0  0  0
  1  2  2  0
  2  3  1  0
  3  4  2  0
  4  5  1  0
  5  6  1  0
  6  7  1  0
  7  8  1  0
  8  9  1  0
  9  1  1  0
  8  3  1  0
  7  5  1  0
  1 10  1  0
  2 11  1  0
  4 12  1  0
  5 13  1  0
  7 14  1  0
  8 15  1  0
  9 16  1  0
  9 17  1  0
M  END
