
     RDKit          3D

 14 15  0  0  0  0  0  0  0  0999 V2000
    1.1491    0.7400    0.3585 C   0  0  0  0  0  0  0  0  0  0  0  0
    1.3110   -0.3019   -0.4679 C   0  0  0  0  0  0  0  0  0  0  0  0
   -0.0805   -0.8203   -0.5991 C   0  0  0  0  0  0  0  0  0  0  0  0
   -0.5558   -0.7540    0.8394 C   0  0  0  0  0  0  0  0  0  0  0  0
   -0.2902    0.7456    0.6240 C   0  0  0  0  0  0  0  0  0  0  0  0
   -0.8456    0.4979   -0.7681 C   0  0  0  0  0  0  0  0  0  0  0  0
    1.8719    1.4341    0.7582 H   0  0  0  0  0  0  0  0  0  0  0  0
    2.2237   -0.6750   -0.9265 H   0  0  0  0  0  0  0  0  0  0  0  0
   -0.3094   -1.6336   -1.2091 H   0  0  0  0  0  0  0  0  0  0  0  0
    0.1691   -1.2166    1.5163 H   0  0  0  0  0  0  0  0  0  0  0  0
   -1.6170   -0.9469    0.9988 H   0  0  0  0  0  0  0  0  0  0  0  0
   -0.7540    1.4326    1.2613 H   0  0  0  0  0  0  0  0  0  0  0  0
   -0.3493    1.0894   -1.5576 H   0  0  0  0  0  0  0  0  0  0  0  0
   -1.9229    0.4088   -0.8283 H   0  0  0  0  0  0  0  0  0  0  0  0
  1  2  2  0
  2  3  1  0
  3  4  1  0
  4  5  1  0
  5  6  1  0
  5  1  1  0
  6  3  1  0
  1  7  1  0
  2  8  1  0
  3  9  1  0
  4 10  1  0
  4 11  1  0
  5 12  1  0
  6 13  1  0
  6 14  1  0
M  END
