
     RDKit          3D

 19 20  0  0  0  0  0  0  0  0999 V2000
    1.3151    1.2098   -0.1506 C   0  0  0  0  0  0  0  0  0  0  0  0
    0.0435    1.5764   -0.2200 C   0  0  0  0  0  0  0  0  0  0  0  0
   -1.3037    1.1167    0.1908 C   0  0  0  0  0  0  0  0  0  0  0  0
   -1.7731   -0.0897   -0.5767 C   0  0  0  0  0  0  0  0  0  0  0  0
   -1.2886   -0.8515    0.6440 C   0  0  0  0  0  0  0  0  0  0  0  0
   -0.0347   -1.5312    0.2851 C   0  0  0  0  0  0  0  0  0  0  0  0
    1.2218   -1.2526    0.0157 C   0  0  0  0  0  0  0  0  0  0  0  0
    2.0769   -0.0657    0.1191 C   0  0  0  0  0  0  0  0  0  0  0  0
   -1.1451    0.3309    1.3152 O   0  0  0  0  0  0  0  0  0  0  0  0
    2.0409    1.9980   -0.3264 H   0  0  0  0  0  0  0  0  0  0  0  0
   -0.0468    2.5162   -0.7470 H   0  0  0  0  0  0  0  0  0  0  0  0
   -2.0616    1.8881    0.2083 H   0  0  0  0  0  0  0  0  0  0  0  0
   -1.2061   -0.2927   -1.5006 H   0  0  0  0  0  0  0  0  0  0  0  0
   -2.8644   -0.1966   -0.6558 H   0  0  0  0  0  0  0  0  0  0  0  0
   -2.0441   -1.5179    1.1015 H   0  0  0  0  0  0  0  0  0  0  0  0
   -0.1969   -2.6052    0.2221 H   0  0  0  0  0  0  0  0  0  0  0  0
    1.8086   -2.0946   -0.3896 H   0  0  0  0  0  0  0  0  0  0  0  0
    2.5582   -0.0556    1.1037 H   0  0  0  0  0  0  0  0  0  0  0  0
    2.9001   -0.0828   -0.6387 H   0  0  0  0  0  0  0  0  0  0  0  0
  1  2  2  3
  2  3  1  0
  3  4  1  0
  4  5  1  0
  5  6  1  0
  6  7  2  3
  7  8  1  0
  5  9  1  0
  8  1  1  0
  9  3  1  0
  1 10  1  0
  2 11  1  0
  3 12  1  0
  4 13  1  0
  4 14  1  0
  5 15  1  0
  6 16  1  0
  7 17  1  0
  8 18  1  0
  8 19  1  0
M  END
