
     RDKit          3D

 19 21  0  0  0  0  0  0  0  0999 V2000
    1.5954   -0.1753    0.7669 C   0  0  0  0  0  0  0  0  0  0  0  0
    1.1785    1.0634    0.5492 C   0  0  0  0  0  0  0  0  0  0  0  0
    0.6233    1.0934   -0.8599 C   0  0  0  0  0  0  0  0  0  0  0  0
    1.4199    0.0647   -1.4216 O   0  0  0  0  0  0  0  0  0  0  0  0
    1.1631   -0.9241   -0.4361 C   0  0  0  0  0  0  0  0  0  0  0  0
   -0.3404   -1.0032   -0.5488 C   0  0  0  0  0  0  0  0  0  0  0  0
   -1.0912   -0.8852    0.7359 C   0  0  0  0  0  0  0  0  0  0  0  0
   -1.5046    0.5527    0.4287 C   0  0  0  0  0  0  0  0  0  0  0  0
   -0.7140    0.4594   -0.8392 C   0  0  0  0  0  0  0  0  0  0  0  0
    2.1238   -0.5904    1.5979 H   0  0  0  0  0  0  0  0  0  0  0  0
    1.2326    1.8859    1.2564 H   0  0  0  0  0  0  0  0  0  0  0  0
    0.7291    2.0394   -1.3434 H   0  0  0  0  0  0  0  0  0  0  0  0
    1.6849   -1.8481   -0.6187 H   0  0  0  0  0  0  0  0  0  0  0  0
   -0.6800   -1.7218   -1.2858 H   0  0  0  0  0  0  0  0  0  0  0  0
   -1.9834   -1.5464    0.7401 H   0  0  0  0  0  0  0  0  0  0  0  0
   -0.4814   -0.9745    1.6648 H   0  0  0  0  0  0  0  0  0  0  0  0
   -2.5986    0.6697    0.2552 H   0  0  0  0  0  0  0  0  0  0  0  0
   -1.0591    1.2565    1.1355 H   0  0  0  0  0  0  0  0  0  0  0  0
   -1.2978    0.5837   -1.7773 H   0  0  0  0  0  0  0  0  0  0  0  0
  1  2  2  0
  2  3  1  0
  3  4  1  0
  4  5  1  0
  5  6  1  0
  6  7  1  0
  7  8  1  0
  8  9  1  0
  5  1  1  0
  9  6  1  0
  9  3  1  0
  1 10  1  0
  2 11  1  0
  3 12  1  0
  5 13  1  0
  6 14  1  0
  7 15  1  0
  7 16  1  0
  8 17  1  0
  8 18  1  0
  9 19  1  0
M  END
