
     RDKit          3D

 16 17  0  0  0  0  0  0  0  0999 V2000
   -1.1300   -1.0403    0.2667 C   0  0  0  0  0  0  0  0  0  0  0  0
    0.1238   -1.4372    0.3582 C   0  0  0  0  0  0  0  0  0  0  0  0
    1.3870   -0.9027   -0.1603 C   0  0  0  0  0  0  0  0  0  0  0  0
    2.2385   -0.1768    0.6593 O   0  0  0  0  0  0  0  0  0  0  0  0
    1.5443    0.5311   -0.3209 C   0  0  0  0  0  0  0  0  0  0  0  0
    0.4725    1.3786    0.2150 C   0  0  0  0  0  0  0  0  0  0  0  0
   -0.8612    1.3248    0.2062 C   0  0  0  0  0  0  0  0  0  0  0  0
   -1.5969    0.1880   -0.4725 C   0  0  0  0  0  0  0  0  0  0  0  0
   -1.9382   -1.5815    0.7279 H   0  0  0  0  0  0  0  0  0  0  0  0
    0.2398   -2.3579    0.9444 H   0  0  0  0  0  0  0  0  0  0  0  0
    1.9505   -1.6293   -0.7932 H   0  0  0  0  0  0  0  0  0  0  0  0
    2.1034    0.8678   -1.2240 H   0  0  0  0  0  0  0  0  0  0  0  0
    0.7985    2.2884    0.7637 H   0  0  0  0  0  0  0  0  0  0  0  0
   -1.4407    2.0804    0.6765 H   0  0  0  0  0  0  0  0  0  0  0  0
   -1.2300    0.0944   -1.4947 H   0  0  0  0  0  0  0  0  0  0  0  0
   -2.6613    0.3723   -0.3522 H   0  0  0  0  0  0  0  0  0  0  0  0
  1  2  2  0
  2  3  1  0
  3  4  1  0
  4  5  1  0
  5  6  1  0
  6  7  2  0
  7  8  1  0
  8  1  1  0
  5  3  1  0
  1  9  1  0
  2 10  1  0
  3 11  1  0
  5 12  1  0
  6 13  1  0
  7 14  1  0
  8 15  1  0
  8 16  1  0
M  END
