
     RDKit          3D

 21 22  0  0  0  0  0  0  0  0999 V2000
    1.5212    0.5557   -0.9940 C   0  0  0  0  0  0  0  0  0  0  0  0
    0.2930    1.0117   -0.8691 C   0  0  0  0  0  0  0  0  0  0  0  0
   -0.5867    0.9854    0.2978 C   0  0  0  0  0  0  0  0  0  0  0  0
   -2.0415    0.8011   -0.1672 C   0  0  0  0  0  0  0  0  0  0  0  0
   -1.6493   -0.6814   -0.3018 C   0  0  0  0  0  0  0  0  0  0  0  0
   -0.7547   -0.4066    0.8927 C   0  0  0  0  0  0  0  0  0  0  0  0
    0.5299   -1.1676    0.9372 C   0  0  0  0  0  0  0  0  0  0  0  0
    1.6317   -0.3381    1.1688 O   0  0  0  0  0  0  0  0  0  0  0  0
    2.3562   -0.1150    0.0224 C   0  0  0  0  0  0  0  0  0  0  0  0
    2.0268    0.6634   -1.9474 H   0  0  0  0  0  0  0  0  0  0  0  0
   -0.0735    1.4665   -1.8050 H   0  0  0  0  0  0  0  0  0  0  0  0
   -0.4484    1.7413    1.0706 H   0  0  0  0  0  0  0  0  0  0  0  0
   -2.7176    0.9350    0.6913 H   0  0  0  0  0  0  0  0  0  0  0  0
   -2.2888    1.2924   -1.1033 H   0  0  0  0  0  0  0  0  0  0  0  0
   -2.4809   -1.3758   -0.1268 H   0  0  0  0  0  0  0  0  0  0  0  0
   -1.0693   -0.8276   -1.2362 H   0  0  0  0  0  0  0  0  0  0  0  0
   -1.3480   -0.3567    1.8113 H   0  0  0  0  0  0  0  0  0  0  0  0
    0.6938   -1.7607    0.0397 H   0  0  0  0  0  0  0  0  0  0  0  0
    0.4734   -1.8676    1.8120 H   0  0  0  0  0  0  0  0  0  0  0  0
    3.2171    0.5298    0.2399 H   0  0  0  0  0  0  0  0  0  0  0  0
    2.7157   -1.0855   -0.4327 H   0  0  0  0  0  0  0  0  0  0  0  0
  1  2  2  0
  2  3  1  0
  3  4  1  0
  4  5  1  0
  5  6  1  0
  6  7  1  0
  7  8  1  0
  8  9  1  0
  9  1  1  0
  6  3  1  0
  1 10  1  0
  2 11  1  0
  3 12  1  0
  4 13  1  0
  4 14  1  0
  5 15  1  0
  5 16  1  0
  6 17  1  0
  7 18  1  0
  7 19  1  0
  9 20  1  0
  9 21  1  0
M  END
