
     RDKit          3D

 17 20  0  0  0  0  0  0  0  0999 V2000
   -1.6346    0.2629    0.8888 C   0  0  0  0  0  0  0  0  0  0  0  0
   -1.0040    1.2952    0.3618 C   0  0  0  0  0  0  0  0  0  0  0  0
   -0.1776    0.9018   -0.7949 C   0  0  0  0  0  0  0  0  0  0  0  0
   -0.7896    0.2641   -1.8606 O   0  0  0  0  0  0  0  0  0  0  0  0
   -0.3611   -0.6058   -0.8916 C   0  0  0  0  0  0  0  0  0  0  0  0
   -1.3375   -0.9948    0.1752 C   0  0  0  0  0  0  0  0  0  0  0  0
    1.0826   -0.7819   -0.5675 C   0  0  0  0  0  0  0  0  0  0  0  0
    1.7256   -0.1001    0.5609 C   0  0  0  0  0  0  0  0  0  0  0  0
    1.2874    0.6773   -0.6644 C   0  0  0  0  0  0  0  0  0  0  0  0
   -2.2943    0.3291    1.7459 H   0  0  0  0  0  0  0  0  0  0  0  0
   -1.0877    2.3079    0.7383 H   0  0  0  0  0  0  0  0  0  0  0  0
   -0.8519   -1.7080    0.8987 H   0  0  0  0  0  0  0  0  0  0  0  0
   -2.2263   -1.4893   -0.2343 H   0  0  0  0  0  0  0  0  0  0  0  0
    1.6446   -1.5190   -1.1384 H   0  0  0  0  0  0  0  0  0  0  0  0
    2.8349   -0.1960    0.6172 H   0  0  0  0  0  0  0  0  0  0  0  0
    1.1664    0.2063    1.4788 H   0  0  0  0  0  0  0  0  0  0  0  0
    2.0233    1.1505   -1.3141 H   0  0  0  0  0  0  0  0  0  0  0  0
  1  2  2  0
  2  3  1  0
  3  4  1  0
  4  5  1  0
  5  6  1  0
  5  7  1  0
  7  8  1  0
  8  9  1  0
  6  1  1  0
  9  7  1  0
  5  3  1  0
  9  3  1  0
  1 10  1  0
  2 11  1  0
  6 12  1  0
  6 13  1  0
  7 14  1  0
  8 15  1  0
  8 16  1  0
  9 17  1  0
M  END
