
     RDKit          3D

 19 20  0  0  0  0  0  0  0  0999 V2000
    2.3833    0.1546    0.1454 C   0  0  0  0  0  0  0  0  0  0  0  0
    1.8355    1.3788    0.2460 C   0  0  0  0  0  0  0  0  0  0  0  0
    0.3808    1.5778    0.4253 C   0  0  0  0  0  0  0  0  0  0  0  0
   -0.5905    0.7590    0.0414 C   0  0  0  0  0  0  0  0  0  0  0  0
   -2.0913    0.6586    0.0659 C   0  0  0  0  0  0  0  0  0  0  0  0
   -1.9602   -0.8316   -0.1753 C   0  0  0  0  0  0  0  0  0  0  0  0
   -0.5566   -0.5266   -0.6645 C   0  0  0  0  0  0  0  0  0  0  0  0
    0.4767   -1.4328   -0.1597 C   0  0  0  0  0  0  0  0  0  0  0  0
    1.7227   -1.1609    0.1862 C   0  0  0  0  0  0  0  0  0  0  0  0
    3.4526    0.1295    0.0194 H   0  0  0  0  0  0  0  0  0  0  0  0
    2.4683    2.2432    0.1956 H   0  0  0  0  0  0  0  0  0  0  0  0
    0.1290    2.4990    0.9207 H   0  0  0  0  0  0  0  0  0  0  0  0
   -2.4931    0.9276    1.0571 H   0  0  0  0  0  0  0  0  0  0  0  0
   -2.4988    1.2059   -0.7890 H   0  0  0  0  0  0  0  0  0  0  0  0
   -1.9203   -1.4571    0.7151 H   0  0  0  0  0  0  0  0  0  0  0  0
   -2.6362   -1.2516   -0.9359 H   0  0  0  0  0  0  0  0  0  0  0  0
   -0.5707   -0.3761   -1.7676 H   0  0  0  0  0  0  0  0  0  0  0  0
    0.1605   -2.4912   -0.0569 H   0  0  0  0  0  0  0  0  0  0  0  0
    2.3083   -2.0062    0.5307 H   0  0  0  0  0  0  0  0  0  0  0  0
  1  2  2  0
  2  3  1  0
  3  4  2  0
  4  5  1  0
  5  6  1  0
  6  7  1  0
  7  8  1  0
  8  9  2  0
  9  1  1  0
  7  4  1  0
  1 10  1  0
  2 11  1  0
  3 12  1  0
  5 13  1  0
  5 14  1  0
  6 15  1  0
  6 16  1  0
  7 17  1  0
  8 18  1  0
  9 19  1  0
M  END
