
     RDKit          3D

 19 19  0  0  0  0  0  0  0  0999 V2000
    1.4438    0.9388    0.0044 C   0  0  0  0  0  0  0  0  0  0  0  0
    0.3068    1.6035    0.1195 C   0  0  0  0  0  0  0  0  0  0  0  0
   -1.0861    1.2318    0.2797 C   0  0  0  0  0  0  0  0  0  0  0  0
   -1.5649   -0.0179   -0.3205 C   0  0  0  0  0  0  0  0  0  0  0  0
   -0.6289   -1.1329   -0.4969 C   0  0  0  0  0  0  0  0  0  0  0  0
    0.4611   -1.2709    0.4910 C   0  0  0  0  0  0  0  0  0  0  0  0
    1.6662   -0.5000    0.0029 C   0  0  0  0  0  0  0  0  0  0  0  0
    2.3210    1.5568   -0.1028 H   0  0  0  0  0  0  0  0  0  0  0  0
    0.4776    2.6730    0.0860 H   0  0  0  0  0  0  0  0  0  0  0  0
   -1.7140    2.0629   -0.1082 H   0  0  0  0  0  0  0  0  0  0  0  0
   -1.3088    1.2148    1.3891 H   0  0  0  0  0  0  0  0  0  0  0  0
   -2.4467   -0.3843    0.2867 H   0  0  0  0  0  0  0  0  0  0  0  0
   -2.0259    0.1972   -1.3312 H   0  0  0  0  0  0  0  0  0  0  0  0
   -0.1796   -1.0819   -1.5141 H   0  0  0  0  0  0  0  0  0  0  0  0
   -1.2135   -2.0999   -0.4986 H   0  0  0  0  0  0  0  0  0  0  0  0
    0.2123   -1.0197    1.5220 H   0  0  0  0  0  0  0  0  0  0  0  0
    0.7916   -2.3498    0.5013 H   0  0  0  0  0  0  0  0  0  0  0  0
    1.9672   -0.8668   -0.9951 H   0  0  0  0  0  0  0  0  0  0  0  0
    2.5208   -0.7548    0.6846 H   0  0  0  0  0  0  0  0  0  0  0  0
  1  2  2  0
  2  3  1  0
  3  4  1  0
  4  5  1  0
  5  6  1  0
  6  7  1  0
  7  1  1  0
  1  8  1  0
  2  9  1  0
  3 10  1  0
  3 11  1  0
  4 12  1  0
  4 13  1  0
  5 14  1  0
  5 15  1  0
  6 16  1  0
  6 17  1  0
  7 18  1  0
  7 19  1  0
M  END
