
     RDKit          3D

 17 19  0  0  0  0  0  0  0  0999 V2000
    1.4409   -0.7275    0.0262 C   0  0  0  0  0  0  0  0  0  0  0  0
    1.5482    0.5468   -0.3357 C   0  0  0  0  0  0  0  0  0  0  0  0
    0.5202    1.4709    0.0544 C   0  0  0  0  0  0  0  0  0  0  0  0
   -0.5061    1.9815   -0.6143 O   0  0  0  0  0  0  0  0  0  0  0  0
   -0.8103    0.7800   -0.2097 C   0  0  0  0  0  0  0  0  0  0  0  0
   -1.3292    0.1724    1.0182 C   0  0  0  0  0  0  0  0  0  0  0  0
   -0.6710   -1.0654    1.1352 O   0  0  0  0  0  0  0  0  0  0  0  0
    0.0551   -1.3113    0.0097 C   0  0  0  0  0  0  0  0  0  0  0  0
   -0.6477   -0.4740   -1.0756 C   0  0  0  0  0  0  0  0  0  0  0  0
    2.3206   -1.3290    0.3209 H   0  0  0  0  0  0  0  0  0  0  0  0
    2.4204    0.8433   -0.9159 H   0  0  0  0  0  0  0  0  0  0  0  0
    0.6845    1.9371    1.0725 H   0  0  0  0  0  0  0  0  0  0  0  0
   -2.4135   -0.0205    1.0583 H   0  0  0  0  0  0  0  0  0  0  0  0
   -1.0788    0.7260    1.9631 H   0  0  0  0  0  0  0  0  0  0  0  0
    0.0646   -2.3677   -0.2952 H   0  0  0  0  0  0  0  0  0  0  0  0
   -1.6348   -0.8397   -1.3088 H   0  0  0  0  0  0  0  0  0  0  0  0
    0.0368   -0.3227   -1.9034 H   0  0  0  0  0  0  0  0  0  0  0  0
  1  2  2  0
  2  3  1  0
  3  4  1  0
  4  5  1  0
  5  6  1  0
  6  7  1  0
  7  8  1  0
  8  9  1  0
  8  1  1  0
  5  3  1  0
  9  5  1  0
  1 10  1  0
  2 11  1  0
  3 12  1  0
  6 13  1  0
  6 14  1  0
  8 15  1  0
  9 16  1  0
  9 17  1  0
M  END
