
     RDKit          3D

 18 19  0  0  0  0  0  0  0  0999 V2000
   -0.9490    1.4504   -0.2753 C   0  0  0  0  0  0  0  0  0  0  0  0
    0.3429    1.2729   -0.4951 C   0  0  0  0  0  0  0  0  0  0  0  0
    0.9595    0.0263    0.0136 C   0  0  0  0  0  0  0  0  0  0  0  0
    0.1977   -1.1197   -0.5458 C   0  0  0  0  0  0  0  0  0  0  0  0
   -1.2465   -0.9971   -0.1437 C   0  0  0  0  0  0  0  0  0  0  0  0
   -1.6100    0.3205    0.4819 C   0  0  0  0  0  0  0  0  0  0  0  0
    2.2785    0.0272    0.4948 C   0  0  0  0  0  0  0  0  0  0  0  0
    1.2086   -0.0657    1.3931 O   0  0  0  0  0  0  0  0  0  0  0  0
   -1.4831    2.3234   -0.6068 H   0  0  0  0  0  0  0  0  0  0  0  0
    0.9026    2.0140   -1.0222 H   0  0  0  0  0  0  0  0  0  0  0  0
    0.3277   -1.2186   -1.6456 H   0  0  0  0  0  0  0  0  0  0  0  0
    0.6529   -2.0619   -0.1218 H   0  0  0  0  0  0  0  0  0  0  0  0
   -1.8653   -1.1573   -1.0479 H   0  0  0  0  0  0  0  0  0  0  0  0
   -1.4770   -1.8159    0.5927 H   0  0  0  0  0  0  0  0  0  0  0  0
   -1.3098    0.3759    1.5587 H   0  0  0  0  0  0  0  0  0  0  0  0
   -2.6922    0.5297    0.4299 H   0  0  0  0  0  0  0  0  0  0  0  0
    2.8401    0.9856    0.5704 H   0  0  0  0  0  0  0  0  0  0  0  0
    2.9222   -0.8895    0.3690 H   0  0  0  0  0  0  0  0  0  0  0  0
  1  2  2  0
  2  3  1  0
  3  4  1  0
  4  5  1  0
  5  6  1  0
  3  7  1  0
  7  8  1  0
  6  1  1  0
  8  3  1  0
  1  9  1  0
  2 10  1  0
  4 11  1  0
  4 12  1  0
  5 13  1  0
  5 14  1  0
  6 15  1  0
  6 16  1  0
  7 17  1  0
  7 18  1  0
M  END
