
     RDKit          3D

 19 20  0  0  0  0  0  0  0  0999 V2000
   -1.4370   -1.1043    0.0041 C   0  0  0  0  0  0  0  0  0  0  0  0
   -1.9010    0.1246    0.1657 C   0  0  0  0  0  0  0  0  0  0  0  0
   -0.7223    0.9454    0.6347 C   0  0  0  0  0  0  0  0  0  0  0  0
   -0.0495    1.6225   -0.4809 C   0  0  0  0  0  0  0  0  0  0  0  0
    0.9987    1.0385   -1.0836 O   0  0  0  0  0  0  0  0  0  0  0  0
    1.7165    0.1085   -0.4289 C   0  0  0  0  0  0  0  0  0  0  0  0
    1.0274   -1.2412   -0.2894 C   0  0  0  0  0  0  0  0  0  0  0  0
   -0.1275   -1.1818    0.6567 C   0  0  0  0  0  0  0  0  0  0  0  0
   -0.0101    0.0419    1.3597 O   0  0  0  0  0  0  0  0  0  0  0  0
   -1.9659   -1.8758   -0.5219 H   0  0  0  0  0  0  0  0  0  0  0  0
   -2.9185    0.5083    0.0045 H   0  0  0  0  0  0  0  0  0  0  0  0
   -1.1495    1.6801    1.3666 H   0  0  0  0  0  0  0  0  0  0  0  0
    0.2669    2.6515   -0.1323 H   0  0  0  0  0  0  0  0  0  0  0  0
   -0.8289    1.8466   -1.2712 H   0  0  0  0  0  0  0  0  0  0  0  0
    1.9138    0.4462    0.6280 H   0  0  0  0  0  0  0  0  0  0  0  0
    2.7085   -0.0162   -0.8931 H   0  0  0  0  0  0  0  0  0  0  0  0
    1.8015   -1.9222    0.1532 H   0  0  0  0  0  0  0  0  0  0  0  0
    0.7756   -1.6682   -1.2796 H   0  0  0  0  0  0  0  0  0  0  0  0
   -0.0987   -2.0043    1.4077 H   0  0  0  0  0  0  0  0  0  0  0  0
  1  2  2  0
  2  3  1  0
  3  4  1  0
  4  5  1  0
  5  6  1  0
  6  7  1  0
  7  8  1  0
  8  9  1  0
  8  1  1  0
  9  3  1  0
  1 10  1  0
  2 11  1  0
  3 12  1  0
  4 13  1  0
  4 14  1  0
  6 15  1  0
  6 16  1  0
  7 17  1  0
  7 18  1  0
  8 19  1  0
M  END
