
     RDKit          3D

 19 20  0  0  0  0  0  0  0  0999 V2000
    2.0975    0.6999    0.1837 C   0  0  0  0  0  0  0  0  0  0  0  0
    1.9491   -0.6204    0.2886 C   0  0  0  0  0  0  0  0  0  0  0  0
    0.8340   -1.5231   -0.0601 C   0  0  0  0  0  0  0  0  0  0  0  0
   -0.0539   -0.9762   -0.9650 O   0  0  0  0  0  0  0  0  0  0  0  0
   -0.8655    0.0077   -0.4361 C   0  0  0  0  0  0  0  0  0  0  0  0
   -0.2048    1.3241   -0.6315 C   0  0  0  0  0  0  0  0  0  0  0  0
    1.0601    1.5914   -0.3588 C   0  0  0  0  0  0  0  0  0  0  0  0
   -1.5251   -0.1580    0.8861 C   0  0  0  0  0  0  0  0  0  0  0  0
   -2.3347   -0.1204   -0.4303 C   0  0  0  0  0  0  0  0  0  0  0  0
    3.0264    1.1473    0.5126 H   0  0  0  0  0  0  0  0  0  0  0  0
    2.8018   -1.1327    0.7067 H   0  0  0  0  0  0  0  0  0  0  0  0
    1.2803   -2.4221   -0.5518 H   0  0  0  0  0  0  0  0  0  0  0  0
    0.2828   -1.8950    0.8207 H   0  0  0  0  0  0  0  0  0  0  0  0
   -0.7875    2.1411   -1.0270 H   0  0  0  0  0  0  0  0  0  0  0  0
    1.3915    2.6075   -0.5590 H   0  0  0  0  0  0  0  0  0  0  0  0
   -1.6457    0.7467    1.5532 H   0  0  0  0  0  0  0  0  0  0  0  0
   -1.5482   -1.1144    1.4140 H   0  0  0  0  0  0  0  0  0  0  0  0
   -2.7683   -1.0847   -0.7752 H   0  0  0  0  0  0  0  0  0  0  0  0
   -2.9899    0.7811   -0.5709 H   0  0  0  0  0  0  0  0  0  0  0  0
  1  2  2  0
  2  3  1  0
  3  4  1  0
  4  5  1  0
  5  6  1  0
  6  7  2  0
  5  8  1  0
  8  9  1  0
  7  1  1  0
  9  5  1  0
  1 10  1  0
  2 11  1  0
  3 12  1  0
  3 13  1  0
  6 14  1  0
  7 15  1  0
  8 16  1  0
  8 17  1  0
  9 18  1  0
  9 19  1  0
M  END
