
     RDKit          3D

 23 24  0  0  0  0  0  0  0  0999 V2000
   -0.5685    1.6159    0.5845 C   0  0  0  0  0  0  0  0  0  0  0  0
    0.7497    1.4952    0.6612 C   0  0  0  0  0  0  0  0  0  0  0  0
    1.8342    0.8257   -0.1536 C   0  0  0  0  0  0  0  0  0  0  0  0
    1.1900   -0.4603   -0.6319 C   0  0  0  0  0  0  0  0  0  0  0  0
    1.4949   -1.7634   -0.0699 C   0  0  0  0  0  0  0  0  0  0  0  0
    0.4154   -0.9929    0.5429 C   0  0  0  0  0  0  0  0  0  0  0  0
   -1.0259   -1.1957    0.2944 C   0  0  0  0  0  0  0  0  0  0  0  0
   -1.6739   -0.2528   -0.6563 C   0  0  0  0  0  0  0  0  0  0  0  0
   -1.6422    1.1805   -0.2996 C   0  0  0  0  0  0  0  0  0  0  0  0
   -0.9268    2.2033    1.4177 H   0  0  0  0  0  0  0  0  0  0  0  0
    1.1708    2.0018    1.5250 H   0  0  0  0  0  0  0  0  0  0  0  0
    2.1714    1.4665   -0.9752 H   0  0  0  0  0  0  0  0  0  0  0  0
    2.6872    0.5710    0.4996 H   0  0  0  0  0  0  0  0  0  0  0  0
    0.7381   -0.3873   -1.6120 H   0  0  0  0  0  0  0  0  0  0  0  0
    2.4553   -1.9158    0.4903 H   0  0  0  0  0  0  0  0  0  0  0  0
    1.3022   -2.6468   -0.7434 H   0  0  0  0  0  0  0  0  0  0  0  0
    0.6490   -0.5995    1.5753 H   0  0  0  0  0  0  0  0  0  0  0  0
   -1.6228   -1.1795    1.2389 H   0  0  0  0  0  0  0  0  0  0  0  0
   -1.1705   -2.2256   -0.1169 H   0  0  0  0  0  0  0  0  0  0  0  0
   -1.2942   -0.4840   -1.6890 H   0  0  0  0  0  0  0  0  0  0  0  0
   -2.7628   -0.5615   -0.7088 H   0  0  0  0  0  0  0  0  0  0  0  0
   -2.6411    1.5423    0.0907 H   0  0  0  0  0  0  0  0  0  0  0  0
   -1.5297    1.7632   -1.2638 H   0  0  0  0  0  0  0  0  0  0  0  0
  1  2  2  3
  2  3  1  0
  3  4  1  0
  4  5  1  0
  5  6  1  0
  6  7  1  0
  7  8  1  0
  8  9  1  0
  9  1  1  0
  6  4  1  0
  1 10  1  0
  2 11  1  0
  3 12  1  0
  3 13  1  0
  4 14  1  0
  5 15  1  0
  5 16  1  0
  6 17  1  0
  7 18  1  0
  7 19  1  0
  8 20  1  0
  8 21  1  0
  9 22  1  0
  9 23  1  0
M  END
