
     RDKit          3D

 19 21  0  0  0  0  0  0  0  0999 V2000
    0.6525   -1.5640   -0.0005 C   0  0  0  0  0  0  0  0  0  0  0  0
   -0.4844   -0.9183   -0.2332 C   0  0  0  0  0  0  0  0  0  0  0  0
   -1.9644   -0.8231   -0.4195 C   0  0  0  0  0  0  0  0  0  0  0  0
   -1.8196    0.5656    0.2304 C   0  0  0  0  0  0  0  0  0  0  0  0
   -0.4803    0.5641   -0.4696 C   0  0  0  0  0  0  0  0  0  0  0  0
    0.5588    1.2593    0.3594 C   0  0  0  0  0  0  0  0  0  0  0  0
    1.8571    0.5224    0.4323 C   0  0  0  0  0  0  0  0  0  0  0  0
    2.2324    0.1049   -0.9606 O   0  0  0  0  0  0  0  0  0  0  0  0
    1.9336   -0.8093    0.0305 C   0  0  0  0  0  0  0  0  0  0  0  0
    0.6042   -2.6294    0.1602 H   0  0  0  0  0  0  0  0  0  0  0  0
   -2.5694   -1.5188    0.1568 H   0  0  0  0  0  0  0  0  0  0  0  0
   -2.1891   -0.7374   -1.5001 H   0  0  0  0  0  0  0  0  0  0  0  0
   -2.5468    1.3015   -0.0980 H   0  0  0  0  0  0  0  0  0  0  0  0
   -1.6869    0.4160    1.3192 H   0  0  0  0  0  0  0  0  0  0  0  0
   -0.5807    0.8739   -1.5257 H   0  0  0  0  0  0  0  0  0  0  0  0
    0.2098    1.4782    1.3903 H   0  0  0  0  0  0  0  0  0  0  0  0
    0.7573    2.2508   -0.1123 H   0  0  0  0  0  0  0  0  0  0  0  0
    2.6826    1.0755    0.8972 H   0  0  0  0  0  0  0  0  0  0  0  0
    2.8333   -1.4118    0.3431 H   0  0  0  0  0  0  0  0  0  0  0  0
  1  2  2  0
  2  3  1  0
  3  4  1  0
  4  5  1  0
  5  6  1  0
  6  7  1  0
  7  8  1  0
  8  9  1  0
  9  1  1  0
  5  2  1  0
  9  7  1  0
  1 10  1  0
  3 11  1  0
  3 12  1  0
  4 13  1  0
  4 14  1  0
  5 15  1  0
  6 16  1  0
  6 17  1  0
  7 18  1  0
  9 19  1  0
M  END
