
     RDKit          3D

 19 21  0  0  0  0  0  0  0  0999 V2000
   -0.1873    0.3081   -1.1146 C   0  0  0  0  0  0  0  0  0  0  0  0
    0.4006    0.0079    0.0616 C   0  0  0  0  0  0  0  0  0  0  0  0
    1.8127   -0.0537    0.4312 C   0  0  0  0  0  0  0  0  0  0  0  0
    2.9099    0.2155   -0.4727 C   0  0  0  0  0  0  0  0  0  0  0  0
    2.4650   -1.1479   -0.3395 O   0  0  0  0  0  0  0  0  0  0  0  0
   -0.7542   -0.2578    0.9376 C   0  0  0  0  0  0  0  0  0  0  0  0
   -1.6701    0.9144    0.5570 C   0  0  0  0  0  0  0  0  0  0  0  0
   -1.6155    0.2125   -0.8081 C   0  0  0  0  0  0  0  0  0  0  0  0
   -1.6572   -1.0740    0.0264 C   0  0  0  0  0  0  0  0  0  0  0  0
    0.2674    0.5603   -2.0631 H   0  0  0  0  0  0  0  0  0  0  0  0
    2.0230   -0.1353    1.5166 H   0  0  0  0  0  0  0  0  0  0  0  0
    3.9195    0.3315   -0.0265 H   0  0  0  0  0  0  0  0  0  0  0  0
    2.7414    0.6725   -1.4744 H   0  0  0  0  0  0  0  0  0  0  0  0
   -0.6511   -0.5137    1.9467 H   0  0  0  0  0  0  0  0  0  0  0  0
   -2.6649    0.8812    0.9997 H   0  0  0  0  0  0  0  0  0  0  0  0
   -1.1642    1.8767    0.4751 H   0  0  0  0  0  0  0  0  0  0  0  0
   -2.3723    0.3944   -1.5040 H   0  0  0  0  0  0  0  0  0  0  0  0
   -2.6298   -1.2562    0.5173 H   0  0  0  0  0  0  0  0  0  0  0  0
   -1.1728   -1.9363   -0.4553 H   0  0  0  0  0  0  0  0  0  0  0  0
  1  2  2  0
  2  3  1  0
  3  4  1  0
  4  5  1  0
  2  6  1  0
  6  7  1  0
  7  8  1  0
  8  9  1  0
  8  1  1  0
  5  3  1  0
  9  6  1  0
  1 10  1  0
  3 11  1  0
  4 12  1  0
  4 13  1  0
  6 14  1  0
  7 15  1  0
  7 16  1  0
  8 17  1  0
  9 18  1  0
  9 19  1  0
M  END
