
     RDKit          3D

 23 24  0  0  0  0  0  0  0  0999 V2000
    2.1680    0.2697   -0.2637 C   0  0  0  0  0  0  0  0  0  0  0  0
    1.5302    1.4123   -0.0434 C   0  0  0  0  0  0  0  0  0  0  0  0
    0.2203    1.5456    0.6456 C   0  0  0  0  0  0  0  0  0  0  0  0
   -0.8229    0.8988   -0.1588 C   0  0  0  0  0  0  0  0  0  0  0  0
   -1.9739    0.2434    0.5544 C   0  0  0  0  0  0  0  0  0  0  0  0
   -1.9718   -0.7653   -0.6024 C   0  0  0  0  0  0  0  0  0  0  0  0
   -0.4810   -0.4246   -0.7484 C   0  0  0  0  0  0  0  0  0  0  0  0
    0.3051   -1.3283    0.1323 C   0  0  0  0  0  0  0  0  0  0  0  0
    1.7827   -1.1201    0.0916 C   0  0  0  0  0  0  0  0  0  0  0  0
    3.1179    0.3308   -0.7801 H   0  0  0  0  0  0  0  0  0  0  0  0
    2.0367    2.2924   -0.4094 H   0  0  0  0  0  0  0  0  0  0  0  0
    0.0078    2.6539    0.6812 H   0  0  0  0  0  0  0  0  0  0  0  0
    0.2987    1.2254    1.6967 H   0  0  0  0  0  0  0  0  0  0  0  0
   -1.2159    1.5826   -0.9502 H   0  0  0  0  0  0  0  0  0  0  0  0
   -2.9093    0.8435    0.6143 H   0  0  0  0  0  0  0  0  0  0  0  0
   -1.7601   -0.1972    1.5376 H   0  0  0  0  0  0  0  0  0  0  0  0
   -2.5574   -0.3573   -1.4515 H   0  0  0  0  0  0  0  0  0  0  0  0
   -2.1781   -1.7944   -0.3019 H   0  0  0  0  0  0  0  0  0  0  0  0
   -0.1282   -0.4473   -1.7812 H   0  0  0  0  0  0  0  0  0  0  0  0
   -0.0792   -1.3269    1.1862 H   0  0  0  0  0  0  0  0  0  0  0  0
    0.1161   -2.3835   -0.2270 H   0  0  0  0  0  0  0  0  0  0  0  0
    2.3151   -1.8446   -0.5529 H   0  0  0  0  0  0  0  0  0  0  0  0
    2.1792   -1.3089    1.1311 H   0  0  0  0  0  0  0  0  0  0  0  0
  1  2  2  0
  2  3  1  0
  3  4  1  0
  4  5  1  0
  5  6  1  0
  6  7  1  0
  7  8  1  0
  8  9  1  0
  9  1  1  0
  7  4  1  0
  1 10  1  0
  2 11  1  0
  3 12  1  0
  3 13  1  0
  4 14  1  0
  5 15  1  0
  5 16  1  0
  6 17  1  0
  6 18  1  0
  7 19  1  0
  8 20  1  0
  8 21  1  0
  9 22  1  0
  9 23  1  0
M  END
