
     RDKit          3D

 19 21  0  0  0  0  0  0  0  0999 V2000
    0.7670   -1.1622    0.9675 C   0  0  0  0  0  0  0  0  0  0  0  0
   -0.3891   -0.7572    1.4533 C   0  0  0  0  0  0  0  0  0  0  0  0
   -1.4080   -0.0284    0.6587 C   0  0  0  0  0  0  0  0  0  0  0  0
   -0.8908    1.2470    0.0600 C   0  0  0  0  0  0  0  0  0  0  0  0
    0.5308    1.6182    0.1506 C   0  0  0  0  0  0  0  0  0  0  0  0
    1.5009    0.8039   -0.2358 C   0  0  0  0  0  0  0  0  0  0  0  0
    1.1845   -0.6465   -0.3491 C   0  0  0  0  0  0  0  0  0  0  0  0
   -0.0267   -0.7211   -1.2560 C   0  0  0  0  0  0  0  0  0  0  0  0
   -1.1613    0.0887   -0.7659 C   0  0  0  0  0  0  0  0  0  0  0  0
    1.4043   -1.8468    1.4951 H   0  0  0  0  0  0  0  0  0  0  0  0
   -0.6394   -0.9525    2.4904 H   0  0  0  0  0  0  0  0  0  0  0  0
   -2.4559   -0.1028    0.9879 H   0  0  0  0  0  0  0  0  0  0  0  0
   -1.6243    2.0744    0.0601 H   0  0  0  0  0  0  0  0  0  0  0  0
    0.8247    2.5849    0.5430 H   0  0  0  0  0  0  0  0  0  0  0  0
    2.4767    1.1412   -0.4633 H   0  0  0  0  0  0  0  0  0  0  0  0
    2.0016   -1.2161   -0.7855 H   0  0  0  0  0  0  0  0  0  0  0  0
   -0.3490   -1.7955   -1.2545 H   0  0  0  0  0  0  0  0  0  0  0  0
    0.2837   -0.4736   -2.3005 H   0  0  0  0  0  0  0  0  0  0  0  0
   -2.0296    0.1442   -1.4559 H   0  0  0  0  0  0  0  0  0  0  0  0
  1  2  2  0
  2  3  1  0
  3  4  1  0
  4  5  1  0
  5  6  2  0
  6  7  1  0
  7  8  1  0
  8  9  1  0
  7  1  1  0
  9  3  1  0
  9  4  1  0
  1 10  1  0
  2 11  1  0
  3 12  1  0
  4 13  1  0
  5 14  1  0
  6 15  1  0
  7 16  1  0
  8 17  1  0
  8 18  1  0
  9 19  1  0
M  END
