
     RDKit          3D

 23 24  0  0  0  0  0  0  0  0999 V2000
   -2.5203   -0.0685   -0.8540 C   0  0  0  0  0  0  0  0  0  0  0  0
   -2.7597    0.4445    0.3433 C   0  0  0  0  0  0  0  0  0  0  0  0
   -1.4740    0.5764    1.0784 C   0  0  0  0  0  0  0  0  0  0  0  0
   -0.4957    0.6681   -0.0371 C   0  0  0  0  0  0  0  0  0  0  0  0
    0.9204    0.4979    0.3194 C   0  0  0  0  0  0  0  0  0  0  0  0
    1.3705   -0.7673    0.9466 C   0  0  0  0  0  0  0  0  0  0  0  0
    2.6180   -0.6935    0.0523 C   0  0  0  0  0  0  0  0  0  0  0  0
    1.7562    0.1468   -0.8945 C   0  0  0  0  0  0  0  0  0  0  0  0
   -1.0470   -0.3234   -1.0202 C   0  0  0  0  0  0  0  0  0  0  0  0
   -3.2549   -0.2829   -1.6183 H   0  0  0  0  0  0  0  0  0  0  0  0
   -3.7235    0.7318    0.7503 H   0  0  0  0  0  0  0  0  0  0  0  0
   -1.4660    1.4339    1.7739 H   0  0  0  0  0  0  0  0  0  0  0  0
   -1.3574   -0.3424    1.6843 H   0  0  0  0  0  0  0  0  0  0  0  0
   -0.6180    1.6814   -0.5075 H   0  0  0  0  0  0  0  0  0  0  0  0
    1.3048    1.3830    0.8705 H   0  0  0  0  0  0  0  0  0  0  0  0
    0.8354   -1.6924    0.7105 H   0  0  0  0  0  0  0  0  0  0  0  0
    1.6986   -0.7221    2.0049 H   0  0  0  0  0  0  0  0  0  0  0  0
    3.3873   -0.0365    0.4889 H   0  0  0  0  0  0  0  0  0  0  0  0
    2.9456   -1.6562   -0.3526 H   0  0  0  0  0  0  0  0  0  0  0  0
    2.2859    0.9920   -1.3640 H   0  0  0  0  0  0  0  0  0  0  0  0
    1.2086   -0.5175   -1.5760 H   0  0  0  0  0  0  0  0  0  0  0  0
   -0.8953   -1.3725   -0.7467 H   0  0  0  0  0  0  0  0  0  0  0  0
   -0.7195   -0.0804   -2.0523 H   0  0  0  0  0  0  0  0  0  0  0  0
  1  2  2  0
  2  3  1  0
  3  4  1  0
  4  5  1  0
  5  6  1  0
  6  7  1  0
  7  8  1  0
  4  9  1  0
  9  1  1  0
  8  5  1  0
  1 10  1  0
  2 11  1  0
  3 12  1  0
  3 13  1  0
  4 14  1  0
  5 15  1  0
  6 16  1  0
  6 17  1  0
  7 18  1  0
  7 19  1  0
  8 20  1  0
  8 21  1  0
  9 22  1  0
  9 23  1  0
M  END
