
     RDKit          3D

 18 18  0  0  0  0  0  0  0  0999 V2000
    0.1678    1.4088    0.5636 C   0  0  0  0  0  0  0  0  0  0  0  0
    1.2465    0.8256    0.0693 C   0  0  0  0  0  0  0  0  0  0  0  0
    1.5472   -0.2509   -0.8679 C   0  0  0  0  0  0  0  0  0  0  0  0
    1.1776   -1.5030   -0.4708 O   0  0  0  0  0  0  0  0  0  0  0  0
    0.0545   -1.5682    0.3165 C   0  0  0  0  0  0  0  0  0  0  0  0
   -1.1524   -0.9027   -0.2563 C   0  0  0  0  0  0  0  0  0  0  0  0
   -1.6684   -0.0390    0.7370 O   0  0  0  0  0  0  0  0  0  0  0  0
   -1.3129    1.2807    0.4297 C   0  0  0  0  0  0  0  0  0  0  0  0
    0.4323    2.2096    1.2679 H   0  0  0  0  0  0  0  0  0  0  0  0
    2.1389    1.2791    0.4792 H   0  0  0  0  0  0  0  0  0  0  0  0
    2.6528   -0.2850   -1.0900 H   0  0  0  0  0  0  0  0  0  0  0  0
    1.0843   -0.0455   -1.8786 H   0  0  0  0  0  0  0  0  0  0  0  0
    0.2890   -1.2240    1.3576 H   0  0  0  0  0  0  0  0  0  0  0  0
   -0.1966   -2.6602    0.4326 H   0  0  0  0  0  0  0  0  0  0  0  0
   -0.9782   -0.3660   -1.1983 H   0  0  0  0  0  0  0  0  0  0  0  0
   -1.9926   -1.6225   -0.4592 H   0  0  0  0  0  0  0  0  0  0  0  0
   -1.6713    1.5411   -0.5839 H   0  0  0  0  0  0  0  0  0  0  0  0
   -1.8186    1.9222    1.1516 H   0  0  0  0  0  0  0  0  0  0  0  0
  1  2  2  3
  2  3  1  0
  3  4  1  0
  4  5  1  0
  5  6  1  0
  6  7  1  0
  7  8  1  0
  8  1  1  0
  1  9  1  0
  2 10  1  0
  3 11  1  0
  3 12  1  0
  5 13  1  0
  5 14  1  0
  6 15  1  0
  6 16  1  0
  8 17  1  0
  8 18  1  0
M  END
