
     RDKit          3D

 19 20  0  0  0  0  0  0  0  0999 V2000
    1.4243    1.0943    0.0535 C   0  0  0  0  0  0  0  0  0  0  0  0
    0.2087    1.4900    0.3682 C   0  0  0  0  0  0  0  0  0  0  0  0
   -0.8967    0.7148    0.9368 C   0  0  0  0  0  0  0  0  0  0  0  0
   -2.1739    1.1086    0.5194 O   0  0  0  0  0  0  0  0  0  0  0  0
   -2.3368    0.0540   -0.3504 C   0  0  0  0  0  0  0  0  0  0  0  0
   -1.0865   -0.5713    0.2148 C   0  0  0  0  0  0  0  0  0  0  0  0
   -0.1093   -0.8955   -0.6881 O   0  0  0  0  0  0  0  0  0  0  0  0
    0.9989   -1.3544    0.0530 C   0  0  0  0  0  0  0  0  0  0  0  0
    2.0233   -0.2549    0.1854 C   0  0  0  0  0  0  0  0  0  0  0  0
    2.1188    1.8223   -0.3623 H   0  0  0  0  0  0  0  0  0  0  0  0
    0.0046    2.5254    0.1800 H   0  0  0  0  0  0  0  0  0  0  0  0
   -0.8995    0.6264    2.0533 H   0  0  0  0  0  0  0  0  0  0  0  0
   -3.2065   -0.6136   -0.1357 H   0  0  0  0  0  0  0  0  0  0  0  0
   -2.2495    0.3613   -1.4108 H   0  0  0  0  0  0  0  0  0  0  0  0
   -1.2588   -1.4021    0.9324 H   0  0  0  0  0  0  0  0  0  0  0  0
    0.6671   -1.6868    1.0604 H   0  0  0  0  0  0  0  0  0  0  0  0
    1.4599   -2.2322   -0.4465 H   0  0  0  0  0  0  0  0  0  0  0  0
    2.7361   -0.3876   -0.6545 H   0  0  0  0  0  0  0  0  0  0  0  0
    2.5757   -0.3987    1.1304 H   0  0  0  0  0  0  0  0  0  0  0  0
  1  2  2  0
  2  3  1  0
  3  4  1  0
  4  5  1  0
  5  6  1  0
  6  7  1  0
  7  8  1  0
  8  9  1  0
  9  1  1  0
  6  3  1  0
  1 10  1  0
  2 11  1  0
  3 12  1  0
  5 13  1  0
  5 14  1  0
  6 15  1  0
  8 16  1  0
  8 17  1  0
  9 18  1  0
  9 19  1  0
M  END
