
     RDKit          3D

 19 21  0  0  0  0  0  0  0  0999 V2000
   -2.0291    0.4981    0.1465 C   0  0  0  0  0  0  0  0  0  0  0  0
   -1.1776    1.5138   -0.1022 C   0  0  0  0  0  0  0  0  0  0  0  0
    0.1859    1.0324   -0.0648 C   0  0  0  0  0  0  0  0  0  0  0  0
    1.4123    1.2254    0.2473 C   0  0  0  0  0  0  0  0  0  0  0  0
    2.1697   -0.0407   -0.1429 C   0  0  0  0  0  0  0  0  0  0  0  0
    1.0358   -1.0035    0.2358 C   0  0  0  0  0  0  0  0  0  0  0  0
   -0.2847   -1.3539   -0.2199 C   0  0  0  0  0  0  0  0  0  0  0  0
   -1.6090   -0.9029    0.4238 C   0  0  0  0  0  0  0  0  0  0  0  0
    0.2298   -0.2601   -0.8609 C   0  0  0  0  0  0  0  0  0  0  0  0
   -3.0601    0.7508    0.1339 H   0  0  0  0  0  0  0  0  0  0  0  0
   -1.3501    2.5244   -0.2705 H   0  0  0  0  0  0  0  0  0  0  0  0
    1.7976    2.1150    0.6860 H   0  0  0  0  0  0  0  0  0  0  0  0
    2.4124   -0.0829   -1.1904 H   0  0  0  0  0  0  0  0  0  0  0  0
    2.9934   -0.2182    0.5321 H   0  0  0  0  0  0  0  0  0  0  0  0
    0.8746   -0.7579    1.3317 H   0  0  0  0  0  0  0  0  0  0  0  0
   -0.3899   -2.3289   -0.7401 H   0  0  0  0  0  0  0  0  0  0  0  0
   -1.3656   -0.9027    1.5306 H   0  0  0  0  0  0  0  0  0  0  0  0
   -2.4048   -1.6096    0.1847 H   0  0  0  0  0  0  0  0  0  0  0  0
    0.5594   -0.1990   -1.8608 H   0  0  0  0  0  0  0  0  0  0  0  0
  1  2  2  0
  2  3  1  0
  3  4  2  0
  4  5  1  0
  5  6  1  0
  6  7  1  0
  7  8  1  0
  7  9  1  0
  8  1  1  0
  9  3  1  0
  9  6  1  0
  1 10  1  0
  2 11  1  0
  4 12  1  0
  5 13  1  0
  5 14  1  0
  6 15  1  0
  7 16  1  0
  8 17  1  0
  8 18  1  0
  9 19  1  0
M  END
