
     RDKit          3D

 21 22  0  0  0  0  0  0  0  0999 V2000
    1.0512   -0.4764    1.1970 C   0  0  0  0  0  0  0  0  0  0  0  0
    0.1045   -0.2106    0.3063 C   0  0  0  0  0  0  0  0  0  0  0  0
   -1.3282   -0.4606    0.5280 C   0  0  0  0  0  0  0  0  0  0  0  0
   -2.0984   -0.7734   -0.7422 C   0  0  0  0  0  0  0  0  0  0  0  0
   -2.2620    0.5958   -0.9342 O   0  0  0  0  0  0  0  0  0  0  0  0
   -2.2292    0.7371    0.4594 C   0  0  0  0  0  0  0  0  0  0  0  0
    0.6660    0.3695   -0.9409 C   0  0  0  0  0  0  0  0  0  0  0  0
    2.1411    0.5299   -0.6760 C   0  0  0  0  0  0  0  0  0  0  0  0
    2.3786   -0.1029    0.6500 C   0  0  0  0  0  0  0  0  0  0  0  0
    0.9299   -0.9019    2.1889 H   0  0  0  0  0  0  0  0  0  0  0  0
   -1.5458   -1.1738    1.3523 H   0  0  0  0  0  0  0  0  0  0  0  0
   -3.0165   -1.3321   -0.4729 H   0  0  0  0  0  0  0  0  0  0  0  0
   -1.4604   -1.2498   -1.5150 H   0  0  0  0  0  0  0  0  0  0  0  0
   -3.2238    0.4825    0.8840 H   0  0  0  0  0  0  0  0  0  0  0  0
   -1.8128    1.6853    0.8225 H   0  0  0  0  0  0  0  0  0  0  0  0
    0.1887    1.3783   -1.1172 H   0  0  0  0  0  0  0  0  0  0  0  0
    0.4558   -0.2519   -1.8349 H   0  0  0  0  0  0  0  0  0  0  0  0
    2.4468    1.6072   -0.6116 H   0  0  0  0  0  0  0  0  0  0  0  0
    2.6816   -0.0124   -1.4576 H   0  0  0  0  0  0  0  0  0  0  0  0
    2.9271    0.5704    1.3659 H   0  0  0  0  0  0  0  0  0  0  0  0
    3.0057   -1.0101    0.5485 H   0  0  0  0  0  0  0  0  0  0  0  0
  1  2  2  0
  2  3  1  0
  3  4  1  0
  4  5  1  0
  5  6  1  0
  2  7  1  0
  7  8  1  0
  8  9  1  0
  9  1  1  0
  6  3  1  0
  1 10  1  0
  3 11  1  0
  4 12  1  0
  4 13  1  0
  6 14  1  0
  6 15  1  0
  7 16  1  0
  7 17  1  0
  8 18  1  0
  8 19  1  0
  9 20  1  0
  9 21  1  0
M  END
