
     RDKit          3D

 21 22  0  0  0  0  0  0  0  0999 V2000
    2.6710   -0.6829   -0.5446 C   0  0  0  0  0  0  0  0  0  0  0  0
    2.7159    0.6114   -0.2532 C   0  0  0  0  0  0  0  0  0  0  0  0
    1.4735    1.0192    0.4616 C   0  0  0  0  0  0  0  0  0  0  0  0
    0.5539   -0.0754    0.0999 C   0  0  0  0  0  0  0  0  0  0  0  0
   -0.7406    0.0403   -0.0424 C   0  0  0  0  0  0  0  0  0  0  0  0
   -1.7544    1.1263    0.0666 C   0  0  0  0  0  0  0  0  0  0  0  0
   -2.7631    0.0501    0.4236 C   0  0  0  0  0  0  0  0  0  0  0  0
   -1.8847   -0.8753   -0.3935 C   0  0  0  0  0  0  0  0  0  0  0  0
    1.3969   -1.2736   -0.0560 C   0  0  0  0  0  0  0  0  0  0  0  0
    3.4475   -1.2275   -1.0615 H   0  0  0  0  0  0  0  0  0  0  0  0
    3.5491    1.2878   -0.5025 H   0  0  0  0  0  0  0  0  0  0  0  0
    1.1159    2.0164    0.1437 H   0  0  0  0  0  0  0  0  0  0  0  0
    1.6946    1.0007    1.5614 H   0  0  0  0  0  0  0  0  0  0  0  0
   -2.0369    1.5564   -0.9331 H   0  0  0  0  0  0  0  0  0  0  0  0
   -1.5712    1.8733    0.8506 H   0  0  0  0  0  0  0  0  0  0  0  0
   -3.7731    0.1901   -0.0169 H   0  0  0  0  0  0  0  0  0  0  0  0
   -2.8030   -0.2015    1.5009 H   0  0  0  0  0  0  0  0  0  0  0  0
   -1.7807   -1.8937   -0.0138 H   0  0  0  0  0  0  0  0  0  0  0  0
   -2.1298   -0.7818   -1.4718 H   0  0  0  0  0  0  0  0  0  0  0  0
    1.6368   -1.7410    0.9396 H   0  0  0  0  0  0  0  0  0  0  0  0
    0.9825   -2.0197   -0.7584 H   0  0  0  0  0  0  0  0  0  0  0  0
  1  2  2  0
  2  3  1  0
  3  4  1  0
  4  5  2  3
  5  6  1  0
  6  7  1  0
  7  8  1  0
  4  9  1  0
  9  1  1  0
  8  5  1  0
  1 10  1  0
  2 11  1  0
  3 12  1  0
  3 13  1  0
  6 14  1  0
  6 15  1  0
  7 16  1  0
  7 17  1  0
  8 18  1  0
  8 19  1  0
  9 20  1  0
  9 21  1  0
M  END
