
     RDKit          3D

 19 21  0  0  0  0  0  0  0  0999 V2000
   -0.8762   -0.1124    1.5027 C   0  0  0  0  0  0  0  0  0  0  0  0
    0.4102   -0.2688    1.2339 C   0  0  0  0  0  0  0  0  0  0  0  0
    0.9433    0.0223   -0.1150 C   0  0  0  0  0  0  0  0  0  0  0  0
    2.1332    0.8515   -0.3374 C   0  0  0  0  0  0  0  0  0  0  0  0
    2.2730   -0.6498   -0.4598 C   0  0  0  0  0  0  0  0  0  0  0  0
   -0.0051   -0.1237   -1.1011 O   0  0  0  0  0  0  0  0  0  0  0  0
   -1.2051    0.4604   -0.8612 C   0  0  0  0  0  0  0  0  0  0  0  0
   -2.3403   -0.5491   -0.5720 C   0  0  0  0  0  0  0  0  0  0  0  0
   -1.7943    0.3546    0.4589 C   0  0  0  0  0  0  0  0  0  0  0  0
   -1.2961   -0.3216    2.4954 H   0  0  0  0  0  0  0  0  0  0  0  0
    1.0694   -0.6124    2.0122 H   0  0  0  0  0  0  0  0  0  0  0  0
    2.6469    1.3565    0.4945 H   0  0  0  0  0  0  0  0  0  0  0  0
    2.1802    1.3794   -1.3319 H   0  0  0  0  0  0  0  0  0  0  0  0
    2.8168   -1.1644    0.3586 H   0  0  0  0  0  0  0  0  0  0  0  0
    2.3979   -1.1233   -1.4343 H   0  0  0  0  0  0  0  0  0  0  0  0
   -1.4705    1.2853   -1.5767 H   0  0  0  0  0  0  0  0  0  0  0  0
   -2.0798   -1.6084   -0.4917 H   0  0  0  0  0  0  0  0  0  0  0  0
   -3.3135   -0.3570   -1.0454 H   0  0  0  0  0  0  0  0  0  0  0  0
   -2.4900    1.1807    0.7704 H   0  0  0  0  0  0  0  0  0  0  0  0
  1  2  2  0
  2  3  1  0
  3  4  1  0
  4  5  1  0
  3  6  1  0
  6  7  1  0
  7  8  1  0
  8  9  1  0
  9  1  1  0
  5  3  1  0
  9  7  1  0
  1 10  1  0
  2 11  1  0
  4 12  1  0
  4 13  1  0
  5 14  1  0
  5 15  1  0
  7 16  1  0
  8 17  1  0
  8 18  1  0
  9 19  1  0
M  END
