
     RDKit          3D

 17 19  0  0  0  0  0  0  0  0999 V2000
    0.6322   -1.2529    0.9454 C   0  0  0  0  0  0  0  0  0  0  0  0
    1.2745   -0.6582   -0.0245 C   0  0  0  0  0  0  0  0  0  0  0  0
    2.1000   -0.0904   -1.1083 C   0  0  0  0  0  0  0  0  0  0  0  0
    0.8500    0.2784   -1.6896 O   0  0  0  0  0  0  0  0  0  0  0  0
    0.4679    0.5732   -0.4085 C   0  0  0  0  0  0  0  0  0  0  0  0
   -0.9017    0.2460    0.0546 C   0  0  0  0  0  0  0  0  0  0  0  0
   -0.6519   -0.5512    1.3167 C   0  0  0  0  0  0  0  0  0  0  0  0
   -2.1419    0.6106   -0.4662 C   0  0  0  0  0  0  0  0  0  0  0  0
   -1.5704    1.5119    0.4662 O   0  0  0  0  0  0  0  0  0  0  0  0
    0.9736   -2.1534    1.4387 H   0  0  0  0  0  0  0  0  0  0  0  0
    2.6778   -0.7865   -1.7182 H   0  0  0  0  0  0  0  0  0  0  0  0
    2.5990    0.8449   -0.8013 H   0  0  0  0  0  0  0  0  0  0  0  0
    0.9219    1.5075   -0.0341 H   0  0  0  0  0  0  0  0  0  0  0  0
   -1.4272   -1.3159    1.3838 H   0  0  0  0  0  0  0  0  0  0  0  0
   -0.5017    0.0616    2.2013 H   0  0  0  0  0  0  0  0  0  0  0  0
   -3.0659    0.0985   -0.1060 H   0  0  0  0  0  0  0  0  0  0  0  0
   -2.2362    1.0759   -1.4502 H   0  0  0  0  0  0  0  0  0  0  0  0
  1  2  2  0
  2  3  1  0
  3  4  1  0
  4  5  1  0
  5  6  1  0
  6  7  1  0
  6  8  1  0
  8  9  1  0
  7  1  1  0
  5  2  1  0
  9  6  1  0
  1 10  1  0
  3 11  1  0
  3 12  1  0
  5 13  1  0
  7 14  1  0
  7 15  1  0
  8 16  1  0
  8 17  1  0
M  END
