
     RDKit          3D

 16 17  0  0  0  0  0  0  0  0999 V2000
    1.3968    0.4475    0.8283 C   0  0  0  0  0  0  0  0  0  0  0  0
    0.4917    1.2721    0.3468 C   0  0  0  0  0  0  0  0  0  0  0  0
   -0.4367    0.8092   -0.7351 C   0  0  0  0  0  0  0  0  0  0  0  0
   -1.7856    1.0305   -0.4663 O   0  0  0  0  0  0  0  0  0  0  0  0
   -1.8473   -0.2124    0.1140 C   0  0  0  0  0  0  0  0  0  0  0  0
   -0.6312   -0.6559   -0.6908 C   0  0  0  0  0  0  0  0  0  0  0  0
    0.2095   -1.3902    0.0872 O   0  0  0  0  0  0  0  0  0  0  0  0
    1.4722   -0.9160    0.2867 C   0  0  0  0  0  0  0  0  0  0  0  0
    2.0621    0.7692    1.5990 H   0  0  0  0  0  0  0  0  0  0  0  0
    0.4282    2.2814    0.7407 H   0  0  0  0  0  0  0  0  0  0  0  0
   -0.1674    1.2212   -1.7407 H   0  0  0  0  0  0  0  0  0  0  0  0
   -2.7113   -0.8443   -0.1547 H   0  0  0  0  0  0  0  0  0  0  0  0
   -1.6136   -0.1556    1.1918 H   0  0  0  0  0  0  0  0  0  0  0  0
   -0.8812   -1.0800   -1.6855 H   0  0  0  0  0  0  0  0  0  0  0  0
    2.0162   -0.9689   -0.6916 H   0  0  0  0  0  0  0  0  0  0  0  0
    1.9975   -1.6077    0.9703 H   0  0  0  0  0  0  0  0  0  0  0  0
  1  2  2  0
  2  3  1  0
  3  4  1  0
  4  5  1  0
  5  6  1  0
  6  7  1  0
  7  8  1  0
  8  1  1  0
  6  3  1  0
  1  9  1  0
  2 10  1  0
  3 11  1  0
  5 12  1  0
  5 13  1  0
  6 14  1  0
  8 15  1  0
  8 16  1  0
M  END
