
     RDKit          3D

 19 20  0  0  0  0  0  0  0  0999 V2000
    1.4227    0.8701   -0.1624 C   0  0  0  0  0  0  0  0  0  0  0  0
    0.1477    1.2932   -0.4105 C   0  0  0  0  0  0  0  0  0  0  0  0
   -1.1228    0.5140   -0.5471 C   0  0  0  0  0  0  0  0  0  0  0  0
   -1.8198    0.1852    0.7803 C   0  0  0  0  0  0  0  0  0  0  0  0
   -1.2511   -1.0547    1.2406 O   0  0  0  0  0  0  0  0  0  0  0  0
   -0.0500   -0.9160    0.7092 C   0  0  0  0  0  0  0  0  0  0  0  0
   -0.5711   -0.8961   -0.7487 C   0  0  0  0  0  0  0  0  0  0  0  0
    1.1090   -1.4343    0.6545 O   0  0  0  0  0  0  0  0  0  0  0  0
    1.9358   -0.5327   -0.0767 C   0  0  0  0  0  0  0  0  0  0  0  0
    2.1689    1.6476   -0.0050 H   0  0  0  0  0  0  0  0  0  0  0  0
    0.0663    2.3521   -0.5215 H   0  0  0  0  0  0  0  0  0  0  0  0
   -1.7806    0.8495   -1.3122 H   0  0  0  0  0  0  0  0  0  0  0  0
   -1.5586    0.9425    1.5365 H   0  0  0  0  0  0  0  0  0  0  0  0
   -2.8841    0.0775    0.5898 H   0  0  0  0  0  0  0  0  0  0  0  0
    0.2006    0.0959    1.1636 H   0  0  0  0  0  0  0  0  0  0  0  0
    0.2340   -0.9265   -1.4759 H   0  0  0  0  0  0  0  0  0  0  0  0
   -1.3571   -1.6202   -0.9061 H   0  0  0  0  0  0  0  0  0  0  0  0
    2.2269   -0.9470   -1.0457 H   0  0  0  0  0  0  0  0  0  0  0  0
    2.8832   -0.5000    0.5374 H   0  0  0  0  0  0  0  0  0  0  0  0
  1  2  2  0
  2  3  1  0
  3  4  1  0
  4  5  1  0
  5  6  1  0
  6  7  1  0
  6  8  1  0
  8  9  1  0
  9  1  1  0
  7  3  1  0
  1 10  1  0
  2 11  1  0
  3 12  1  0
  4 13  1  0
  4 14  1  0
  6 15  1  0
  7 16  1  0
  7 17  1  0
  9 18  1  0
  9 19  1  0
M  END
