
     RDKit          3D

 21 22  0  0  0  0  0  0  0  0999 V2000
   -0.9552    1.2050    0.6896 C   0  0  0  0  0  0  0  0  0  0  0  0
    0.3219    1.2010    1.0557 C   0  0  0  0  0  0  0  0  0  0  0  0
    1.5634    0.7132    0.4575 C   0  0  0  0  0  0  0  0  0  0  0  0
    1.7144    0.3122   -0.9389 C   0  0  0  0  0  0  0  0  0  0  0  0
    1.6179   -0.7268    0.1634 C   0  0  0  0  0  0  0  0  0  0  0  0
    0.3110   -1.4508    0.1976 C   0  0  0  0  0  0  0  0  0  0  0  0
   -0.4420   -1.2152   -0.9627 O   0  0  0  0  0  0  0  0  0  0  0  0
   -1.6920   -0.8173   -0.5682 C   0  0  0  0  0  0  0  0  0  0  0  0
   -1.6725    0.7122   -0.4924 C   0  0  0  0  0  0  0  0  0  0  0  0
   -1.6272    1.6797    1.4295 H   0  0  0  0  0  0  0  0  0  0  0  0
    0.4511    1.6733    2.0247 H   0  0  0  0  0  0  0  0  0  0  0  0
    2.5033    1.1208    0.9396 H   0  0  0  0  0  0  0  0  0  0  0  0
    0.9057    0.3621   -1.6942 H   0  0  0  0  0  0  0  0  0  0  0  0
    2.7222    0.4328   -1.4331 H   0  0  0  0  0  0  0  0  0  0  0  0
    2.5409   -1.3058    0.4071 H   0  0  0  0  0  0  0  0  0  0  0  0
   -0.2788   -1.2481    1.1222 H   0  0  0  0  0  0  0  0  0  0  0  0
    0.5285   -2.5395    0.1971 H   0  0  0  0  0  0  0  0  0  0  0  0
   -2.5095   -1.1250   -1.2386 H   0  0  0  0  0  0  0  0  0  0  0  0
   -1.9289   -1.1504    0.4818 H   0  0  0  0  0  0  0  0  0  0  0  0
   -2.7382    1.0038   -0.3894 H   0  0  0  0  0  0  0  0  0  0  0  0
   -1.3359    1.1626   -1.4485 H   0  0  0  0  0  0  0  0  0  0  0  0
  1  2  2  3
  2  3  1  0
  3  4  1  0
  4  5  1  0
  5  6  1  0
  6  7  1  0
  7  8  1  0
  8  9  1  0
  9  1  1  0
  5  3  1  0
  1 10  1  0
  2 11  1  0
  3 12  1  0
  4 13  1  0
  4 14  1  0
  5 15  1  0
  6 16  1  0
  6 17  1  0
  8 18  1  0
  8 19  1  0
  9 20  1  0
  9 21  1  0
M  END
