
     RDKit          3D

 23 24  0  0  0  0  0  0  0  0999 V2000
    1.5441    1.3483    0.2423 C   0  0  0  0  0  0  0  0  0  0  0  0
    0.3224    0.8310    0.2328 C   0  0  0  0  0  0  0  0  0  0  0  0
   -0.9680    1.5294   -0.0109 C   0  0  0  0  0  0  0  0  0  0  0  0
   -2.0663    0.5708    0.3226 C   0  0  0  0  0  0  0  0  0  0  0  0
   -1.9389   -0.7539   -0.3906 C   0  0  0  0  0  0  0  0  0  0  0  0
   -0.6425   -1.4466   -0.1162 C   0  0  0  0  0  0  0  0  0  0  0  0
    0.4056   -0.5946    0.5132 C   0  0  0  0  0  0  0  0  0  0  0  0
    1.7876   -0.9371   -0.0009 C   0  0  0  0  0  0  0  0  0  0  0  0
    2.5517    0.2798    0.5300 C   0  0  0  0  0  0  0  0  0  0  0  0
    1.8560    2.3810    0.0762 H   0  0  0  0  0  0  0  0  0  0  0  0
   -1.0608    2.4023    0.6526 H   0  0  0  0  0  0  0  0  0  0  0  0
   -1.0886    1.8663   -1.0482 H   0  0  0  0  0  0  0  0  0  0  0  0
   -2.2138    0.4526    1.4111 H   0  0  0  0  0  0  0  0  0  0  0  0
   -3.0249    1.0310   -0.0592 H   0  0  0  0  0  0  0  0  0  0  0  0
   -2.0830   -0.5585   -1.4743 H   0  0  0  0  0  0  0  0  0  0  0  0
   -2.8134   -1.3691   -0.0749 H   0  0  0  0  0  0  0  0  0  0  0  0
   -0.8531   -2.2936    0.5752 H   0  0  0  0  0  0  0  0  0  0  0  0
   -0.2884   -1.8966   -1.0668 H   0  0  0  0  0  0  0  0  0  0  0  0
    0.4294   -0.7390    1.6132 H   0  0  0  0  0  0  0  0  0  0  0  0
    1.7559   -0.8489   -1.0986 H   0  0  0  0  0  0  0  0  0  0  0  0
    2.1792   -1.8774    0.3804 H   0  0  0  0  0  0  0  0  0  0  0  0
    2.8038    0.1915    1.5832 H   0  0  0  0  0  0  0  0  0  0  0  0
    3.4061    0.4311   -0.1519 H   0  0  0  0  0  0  0  0  0  0  0  0
  1  2  2  0
  2  3  1  0
  3  4  1  0
  4  5  1  0
  5  6  1  0
  6  7  1  0
  7  8  1  0
  8  9  1  0
  9  1  1  0
  7  2  1  0
  1 10  1  0
  3 11  1  0
  3 12  1  0
  4 13  1  0
  4 14  1  0
  5 15  1  0
  5 16  1  0
  6 17  1  0
  6 18  1  0
  7 19  1  0
  8 20  1  0
  8 21  1  0
  9 22  1  0
  9 23  1  0
M  END
