
     RDKit          3D

 19 21  0  0  0  0  0  0  0  0999 V2000
    1.8939   -0.0785   -0.2661 C   0  0  0  0  0  0  0  0  0  0  0  0
    1.3738   -0.9590    0.5844 C   0  0  0  0  0  0  0  0  0  0  0  0
   -0.1156   -1.0476    0.5798 C   0  0  0  0  0  0  0  0  0  0  0  0
   -0.7624    0.3106    0.8518 C   0  0  0  0  0  0  0  0  0  0  0  0
    0.0894    1.4054    0.2967 C   0  0  0  0  0  0  0  0  0  0  0  0
    0.8622    0.8197   -0.8931 C   0  0  0  0  0  0  0  0  0  0  0  0
    0.0214   -0.0436   -1.6205 O   0  0  0  0  0  0  0  0  0  0  0  0
   -0.6769   -0.9137   -0.8300 C   0  0  0  0  0  0  0  0  0  0  0  0
   -1.8168   -0.1142   -0.1825 C   0  0  0  0  0  0  0  0  0  0  0  0
    2.9446    0.0140   -0.5090 H   0  0  0  0  0  0  0  0  0  0  0  0
    1.9769   -1.5753    1.2405 H   0  0  0  0  0  0  0  0  0  0  0  0
   -0.5503   -1.8890    1.1160 H   0  0  0  0  0  0  0  0  0  0  0  0
   -1.1775    0.4403    1.8492 H   0  0  0  0  0  0  0  0  0  0  0  0
   -0.4555    2.3142    0.0178 H   0  0  0  0  0  0  0  0  0  0  0  0
    0.8382    1.6742    1.0760 H   0  0  0  0  0  0  0  0  0  0  0  0
    1.2861    1.5793   -1.5392 H   0  0  0  0  0  0  0  0  0  0  0  0
   -0.9781   -1.8491   -1.2977 H   0  0  0  0  0  0  0  0  0  0  0  0
   -2.2077    0.6934   -0.7950 H   0  0  0  0  0  0  0  0  0  0  0  0
   -2.5456   -0.7810    0.3207 H   0  0  0  0  0  0  0  0  0  0  0  0
  1  2  2  0
  2  3  1  0
  3  4  1  0
  4  5  1  0
  5  6  1  0
  6  7  1  0
  7  8  1  0
  8  9  1  0
  6  1  1  0
  8  3  1  0
  9  4  1  0
  1 10  1  0
  2 11  1  0
  3 12  1  0
  4 13  1  0
  5 14  1  0
  5 15  1  0
  6 16  1  0
  8 17  1  0
  9 18  1  0
  9 19  1  0
M  END
