
     RDKit          3D

 19 21  0  0  0  0  0  0  0  0999 V2000
    1.6251    1.0550   -0.5410 C   0  0  0  0  0  0  0  0  0  0  0  0
    0.4300    0.4625   -0.6429 C   0  0  0  0  0  0  0  0  0  0  0  0
   -0.9383    0.5097   -1.2061 C   0  0  0  0  0  0  0  0  0  0  0  0
   -1.7758   -0.2907   -0.2487 C   0  0  0  0  0  0  0  0  0  0  0  0
   -1.7286    0.1460    1.1654 C   0  0  0  0  0  0  0  0  0  0  0  0
   -0.8720   -0.9697    0.7098 C   0  0  0  0  0  0  0  0  0  0  0  0
    0.4850   -0.7912    0.1588 C   0  0  0  0  0  0  0  0  0  0  0  0
    1.4481   -0.4496    1.1092 O   0  0  0  0  0  0  0  0  0  0  0  0
    2.4266    0.1531    0.3262 C   0  0  0  0  0  0  0  0  0  0  0  0
    1.8751    1.9941   -1.0208 H   0  0  0  0  0  0  0  0  0  0  0  0
   -0.9862    0.0545   -2.2245 H   0  0  0  0  0  0  0  0  0  0  0  0
   -1.2782    1.5488   -1.2950 H   0  0  0  0  0  0  0  0  0  0  0  0
   -2.5987   -0.9074   -0.6492 H   0  0  0  0  0  0  0  0  0  0  0  0
   -1.3012    1.1433    1.3914 H   0  0  0  0  0  0  0  0  0  0  0  0
   -2.6002   -0.1240    1.7762 H   0  0  0  0  0  0  0  0  0  0  0  0
   -1.1253   -2.0033    1.0648 H   0  0  0  0  0  0  0  0  0  0  0  0
    0.8177   -1.6418   -0.4486 H   0  0  0  0  0  0  0  0  0  0  0  0
    2.9231   -0.5942   -0.3512 H   0  0  0  0  0  0  0  0  0  0  0  0
    3.1739    0.7049    0.9260 H   0  0  0  0  0  0  0  0  0  0  0  0
  1  2  2  0
  2  3  1  0
  3  4  1  0
  4  5  1  0
  5  6  1  0
  6  7  1  0
  7  8  1  0
  8  9  1  0
  9  1  1  0
  7  2  1  0
  6  4  1  0
  1 10  1  0
  3 11  1  0
  3 12  1  0
  4 13  1  0
  5 14  1  0
  5 15  1  0
  6 16  1  0
  7 17  1  0
  9 18  1  0
  9 19  1  0
M  END
