
     RDKit          3D

 17 19  0  0  0  0  0  0  0  0999 V2000
    0.9219    0.6814   -1.0853 C   0  0  0  0  0  0  0  0  0  0  0  0
   -0.2452    1.2746   -0.8552 C   0  0  0  0  0  0  0  0  0  0  0  0
   -1.0158    0.6996    0.3162 C   0  0  0  0  0  0  0  0  0  0  0  0
   -0.0201    0.6338    1.4301 C   0  0  0  0  0  0  0  0  0  0  0  0
    1.0884   -0.0554    1.1672 C   0  0  0  0  0  0  0  0  0  0  0  0
    1.1527   -0.5409   -0.2666 C   0  0  0  0  0  0  0  0  0  0  0  0
   -0.0822   -1.4380   -0.4266 C   0  0  0  0  0  0  0  0  0  0  0  0
   -0.8304   -1.7698    0.6673 O   0  0  0  0  0  0  0  0  0  0  0  0
   -1.3509   -0.7205   -0.0786 C   0  0  0  0  0  0  0  0  0  0  0  0
    1.6727    1.0083   -1.7874 H   0  0  0  0  0  0  0  0  0  0  0  0
   -0.6427    2.0991   -1.4331 H   0  0  0  0  0  0  0  0  0  0  0  0
   -1.8755    1.3070    0.5844 H   0  0  0  0  0  0  0  0  0  0  0  0
   -0.2457    1.1335    2.3607 H   0  0  0  0  0  0  0  0  0  0  0  0
    1.8638   -0.2569    1.8772 H   0  0  0  0  0  0  0  0  0  0  0  0
    2.0497   -1.0854   -0.4932 H   0  0  0  0  0  0  0  0  0  0  0  0
   -0.1471   -2.0302   -1.3681 H   0  0  0  0  0  0  0  0  0  0  0  0
   -2.2936   -0.9400   -0.6091 H   0  0  0  0  0  0  0  0  0  0  0  0
  1  2  2  0
  2  3  1  0
  3  4  1  0
  4  5  2  0
  5  6  1  0
  6  7  1  0
  7  8  1  0
  8  9  1  0
  6  1  1  0
  9  7  1  0
  9  3  1  0
  1 10  1  0
  2 11  1  0
  3 12  1  0
  4 13  1  0
  5 14  1  0
  6 15  1  0
  7 16  1  0
  9 17  1  0
M  END
