
     RDKit          3D

 23 23  0  0  0  0  0  0  0  0999 V2000
    0.0587   -1.5629    0.7302 C   0  0  0  0  0  0  0  0  0  0  0  0
   -1.1595   -1.0553    0.7416 C   0  0  0  0  0  0  0  0  0  0  0  0
   -1.8259   -0.3576   -0.3764 C   0  0  0  0  0  0  0  0  0  0  0  0
   -1.3378    1.0087   -0.6507 C   0  0  0  0  0  0  0  0  0  0  0  0
   -0.7038    1.5983    0.6097 C   0  0  0  0  0  0  0  0  0  0  0  0
    0.2708    0.6891    1.0104 O   0  0  0  0  0  0  0  0  0  0  0  0
    1.3990    0.8730    0.2469 C   0  0  0  0  0  0  0  0  0  0  0  0
    1.9894   -0.3878   -0.2869 C   0  0  0  0  0  0  0  0  0  0  0  0
    0.9709   -1.5030   -0.4553 C   0  0  0  0  0  0  0  0  0  0  0  0
    0.4866   -2.0660    1.5953 H   0  0  0  0  0  0  0  0  0  0  0  0
   -1.7375   -1.1531    1.6529 H   0  0  0  0  0  0  0  0  0  0  0  0
   -2.9275   -0.3481   -0.2822 H   0  0  0  0  0  0  0  0  0  0  0  0
   -1.6327   -0.9723   -1.3004 H   0  0  0  0  0  0  0  0  0  0  0  0
   -0.5643    1.0837   -1.4350 H   0  0  0  0  0  0  0  0  0  0  0  0
   -2.1897    1.6751   -0.8916 H   0  0  0  0  0  0  0  0  0  0  0  0
   -1.4647    1.7778    1.3899 H   0  0  0  0  0  0  0  0  0  0  0  0
   -0.2733    2.5757    0.3039 H   0  0  0  0  0  0  0  0  0  0  0  0
    1.2321    1.5722   -0.6035 H   0  0  0  0  0  0  0  0  0  0  0  0
    2.1622    1.3597    0.9109 H   0  0  0  0  0  0  0  0  0  0  0  0
    2.8304   -0.7587    0.3448 H   0  0  0  0  0  0  0  0  0  0  0  0
    2.4282   -0.2081   -1.2901 H   0  0  0  0  0  0  0  0  0  0  0  0
    1.5726   -2.4398   -0.5594 H   0  0  0  0  0  0  0  0  0  0  0  0
    0.4157   -1.4006   -1.4052 H   0  0  0  0  0  0  0  0  0  0  0  0
  1  2  2  3
  2  3  1  0
  3  4  1  0
  4  5  1  0
  5  6  1  0
  6  7  1  0
  7  8  1  0
  8  9  1  0
  9  1  1  0
  1 10  1  0
  2 11  1  0
  3 12  1  0
  3 13  1  0
  4 14  1  0
  4 15  1  0
  5 16  1  0
  5 17  1  0
  7 18  1  0
  7 19  1  0
  8 20  1  0
  8 21  1  0
  9 22  1  0
  9 23  1  0
M  END
