
     RDKit          3D

 14 16  0  0  0  0  0  0  0  0999 V2000
    1.5500    0.0765    0.1915 C   0  0  0  0  0  0  0  0  0  0  0  0
    0.7983    1.1658    0.1531 C   0  0  0  0  0  0  0  0  0  0  0  0
   -0.6776    0.9744   -0.0877 C   0  0  0  0  0  0  0  0  0  0  0  0
   -0.9967   -0.2285   -0.8581 C   0  0  0  0  0  0  0  0  0  0  0  0
    0.0498   -1.0662   -1.1403 O   0  0  0  0  0  0  0  0  0  0  0  0
    0.7727   -1.1867    0.0418 C   0  0  0  0  0  0  0  0  0  0  0  0
   -0.2001   -1.1260    1.0358 O   0  0  0  0  0  0  0  0  0  0  0  0
   -1.1509   -0.2445    0.6102 C   0  0  0  0  0  0  0  0  0  0  0  0
    2.6120    0.1168    0.3185 H   0  0  0  0  0  0  0  0  0  0  0  0
    1.1362    2.1816    0.2772 H   0  0  0  0  0  0  0  0  0  0  0  0
   -1.3093    1.8469   -0.1597 H   0  0  0  0  0  0  0  0  0  0  0  0
   -1.8509   -0.2691   -1.5533 H   0  0  0  0  0  0  0  0  0  0  0  0
    1.3749   -2.0867    0.0481 H   0  0  0  0  0  0  0  0  0  0  0  0
   -2.1084   -0.1543    1.1228 H   0  0  0  0  0  0  0  0  0  0  0  0
  1  2  2  0
  2  3  1  0
  3  4  1  0
  4  5  1  0
  5  6  1  0
  6  7  1  0
  7  8  1  0
  6  1  1  0
  8  3  1  0
  8  4  1  0
  1  9  1  0
  2 10  1  0
  3 11  1  0
  4 12  1  0
  6 13  1  0
  8 14  1  0
M  END
