
     RDKit          3D

 21 23  0  0  0  0  0  0  0  0999 V2000
   -1.7773    0.2451    0.9451 C   0  0  0  0  0  0  0  0  0  0  0  0
   -0.9999    1.2395    0.6370 C   0  0  0  0  0  0  0  0  0  0  0  0
   -0.3121    0.9773   -0.6382 C   0  0  0  0  0  0  0  0  0  0  0  0
    1.1616    1.2310   -0.4473 C   0  0  0  0  0  0  0  0  0  0  0  0
    1.7791   -0.0831   -0.0810 C   0  0  0  0  0  0  0  0  0  0  0  0
    1.2358   -0.9185    1.0059 C   0  0  0  0  0  0  0  0  0  0  0  0
    0.7711   -1.1603   -0.3726 C   0  0  0  0  0  0  0  0  0  0  0  0
   -0.4676   -0.5070   -0.8773 C   0  0  0  0  0  0  0  0  0  0  0  0
   -1.6971   -0.7965   -0.0918 C   0  0  0  0  0  0  0  0  0  0  0  0
   -2.4079    0.1525    1.8222 H   0  0  0  0  0  0  0  0  0  0  0  0
   -0.8658    2.1450    1.2283 H   0  0  0  0  0  0  0  0  0  0  0  0
   -0.7684    1.5957   -1.4222 H   0  0  0  0  0  0  0  0  0  0  0  0
    1.3537    2.0289    0.3049 H   0  0  0  0  0  0  0  0  0  0  0  0
    1.5646    1.5933   -1.4149 H   0  0  0  0  0  0  0  0  0  0  0  0
    2.7771   -0.2754   -0.4817 H   0  0  0  0  0  0  0  0  0  0  0  0
    1.9368   -1.6796    1.4173 H   0  0  0  0  0  0  0  0  0  0  0  0
    0.5482   -0.5193    1.7811 H   0  0  0  0  0  0  0  0  0  0  0  0
    1.0974   -2.0548   -0.9540 H   0  0  0  0  0  0  0  0  0  0  0  0
   -0.6578   -0.7438   -1.9387 H   0  0  0  0  0  0  0  0  0  0  0  0
   -1.6878   -1.8194    0.3377 H   0  0  0  0  0  0  0  0  0  0  0  0
   -2.5837   -0.6505   -0.7598 H   0  0  0  0  0  0  0  0  0  0  0  0
  1  2  2  0
  2  3  1  0
  3  4  1  0
  4  5  1  0
  5  6  1  0
  6  7  1  0
  7  8  1  0
  8  9  1  0
  9  1  1  0
  8  3  1  0
  7  5  1  0
  1 10  1  0
  2 11  1  0
  3 12  1  0
  4 13  1  0
  4 14  1  0
  5 15  1  0
  6 16  1  0
  6 17  1  0
  7 18  1  0
  8 19  1  0
  9 20  1  0
  9 21  1  0
M  END
