
     RDKit          3D

 18 18  0  0  0  0  0  0  0  0999 V2000
    1.8955   -0.6528   -0.1253 C   0  0  0  0  0  0  0  0  0  0  0  0
    1.8534    0.6475    0.1186 C   0  0  0  0  0  0  0  0  0  0  0  0
    0.8112    1.6638    0.2007 C   0  0  0  0  0  0  0  0  0  0  0  0
   -0.5218    1.6041    0.0515 C   0  0  0  0  0  0  0  0  0  0  0  0
   -1.5634    0.6231   -0.2397 C   0  0  0  0  0  0  0  0  0  0  0  0
   -1.3923   -0.6886    0.4890 C   0  0  0  0  0  0  0  0  0  0  0  0
   -0.4824   -1.6202   -0.1797 C   0  0  0  0  0  0  0  0  0  0  0  0
    0.8195   -1.6061   -0.4229 C   0  0  0  0  0  0  0  0  0  0  0  0
    2.8916   -1.1004   -0.1038 H   0  0  0  0  0  0  0  0  0  0  0  0
    2.8615    1.0270    0.2994 H   0  0  0  0  0  0  0  0  0  0  0  0
    1.1824    2.6574    0.4249 H   0  0  0  0  0  0  0  0  0  0  0  0
   -0.9080    2.6044    0.1981 H   0  0  0  0  0  0  0  0  0  0  0  0
   -1.6878    0.4201   -1.3399 H   0  0  0  0  0  0  0  0  0  0  0  0
   -2.5383    1.0408    0.0872 H   0  0  0  0  0  0  0  0  0  0  0  0
   -1.1017   -0.4490    1.5314 H   0  0  0  0  0  0  0  0  0  0  0  0
   -2.4032   -1.1620    0.5470 H   0  0  0  0  0  0  0  0  0  0  0  0
   -0.9156   -2.5266   -0.5763 H   0  0  0  0  0  0  0  0  0  0  0  0
    1.1993   -2.4825   -0.9602 H   0  0  0  0  0  0  0  0  0  0  0  0
  1  2  2  3
  2  3  1  0
  3  4  2  3
  4  5  1  0
  5  6  1  0
  6  7  1  0
  7  8  2  3
  8  1  1  0
  1  9  1  0
  2 10  1  0
  3 11  1  0
  4 12  1  0
  5 13  1  0
  5 14  1  0
  6 15  1  0
  6 16  1  0
  7 17  1  0
  8 18  1  0
M  END
