
     RDKit          3D

 16 18  0  0  0  0  0  0  0  0999 V2000
   -0.7864    1.1753   -0.6513 C   0  0  0  0  0  0  0  0  0  0  0  0
    0.4224    0.7320   -0.5186 C   0  0  0  0  0  0  0  0  0  0  0  0
    0.2747   -0.7049    0.0221 C   0  0  0  0  0  0  0  0  0  0  0  0
   -0.9336   -0.5997    0.8467 C   0  0  0  0  0  0  0  0  0  0  0  0
   -1.8106    0.1615   -0.2298 C   0  0  0  0  0  0  0  0  0  0  0  0
    1.6670   -0.5388    0.4527 C   0  0  0  0  0  0  0  0  0  0  0  0
    2.5344   -0.6707   -0.6387 O   0  0  0  0  0  0  0  0  0  0  0  0
    1.8727    0.4900   -0.4526 C   0  0  0  0  0  0  0  0  0  0  0  0
   -1.0809    2.1484   -1.0162 H   0  0  0  0  0  0  0  0  0  0  0  0
    0.1790   -1.4206   -0.8395 H   0  0  0  0  0  0  0  0  0  0  0  0
   -0.8678   -0.0125    1.7533 H   0  0  0  0  0  0  0  0  0  0  0  0
   -1.4298   -1.5853    0.9329 H   0  0  0  0  0  0  0  0  0  0  0  0
   -2.6515    0.5583    0.3093 H   0  0  0  0  0  0  0  0  0  0  0  0
   -1.9784   -0.5075   -1.0678 H   0  0  0  0  0  0  0  0  0  0  0  0
    2.0294   -0.6020    1.4706 H   0  0  0  0  0  0  0  0  0  0  0  0
    2.5595    1.3763   -0.3732 H   0  0  0  0  0  0  0  0  0  0  0  0
  1  2  2  0
  2  3  1  0
  3  4  1  0
  4  5  1  0
  3  6  1  0
  6  7  1  0
  7  8  1  0
  5  1  1  0
  8  6  1  0
  8  2  1  0
  1  9  1  0
  3 10  1  0
  4 11  1  0
  4 12  1  0
  5 13  1  0
  5 14  1  0
  6 15  1  0
  8 16  1  0
M  END
