
     RDKit          3D

 17 19  0  0  0  0  0  0  0  0999 V2000
   -1.7458    1.2255    0.4250 C   0  0  0  0  0  0  0  0  0  0  0  0
   -0.6545    0.8610    1.1430 C   0  0  0  0  0  0  0  0  0  0  0  0
    0.0138   -0.0443    0.1666 C   0  0  0  0  0  0  0  0  0  0  0  0
    1.3059   -0.5991    0.4841 C   0  0  0  0  0  0  0  0  0  0  0  0
    2.4441   -0.2269   -0.4658 C   0  0  0  0  0  0  0  0  0  0  0  0
    1.9113   -1.5528   -0.3824 O   0  0  0  0  0  0  0  0  0  0  0  0
   -1.1124   -0.9214   -0.3106 C   0  0  0  0  0  0  0  0  0  0  0  0
   -1.5078    0.4522   -0.8339 C   0  0  0  0  0  0  0  0  0  0  0  0
   -0.1452    0.6690   -1.0340 O   0  0  0  0  0  0  0  0  0  0  0  0
   -2.5499    1.8912    0.7063 H   0  0  0  0  0  0  0  0  0  0  0  0
   -0.3634    1.1540    2.1448 H   0  0  0  0  0  0  0  0  0  0  0  0
    1.5820   -0.7234    1.5474 H   0  0  0  0  0  0  0  0  0  0  0  0
    2.1737    0.2567   -1.4187 H   0  0  0  0  0  0  0  0  0  0  0  0
    3.4399   -0.0621   -0.0171 H   0  0  0  0  0  0  0  0  0  0  0  0
   -1.7374   -1.2431    0.5398 H   0  0  0  0  0  0  0  0  0  0  0  0
   -0.8675   -1.6645   -1.0617 H   0  0  0  0  0  0  0  0  0  0  0  0
   -2.1869    0.5282   -1.6328 H   0  0  0  0  0  0  0  0  0  0  0  0
  1  2  2  0
  2  3  1  0
  3  4  1  0
  4  5  1  0
  5  6  1  0
  3  7  1  0
  7  8  1  0
  8  9  1  0
  8  1  1  0
  9  3  1  0
  6  4  1  0
  1 10  1  0
  2 11  1  0
  4 12  1  0
  5 13  1  0
  5 14  1  0
  7 15  1  0
  7 16  1  0
  8 17  1  0
M  END
