
     RDKit          3D

 21 22  0  0  0  0  0  0  0  0999 V2000
    1.7522    1.0305    0.3584 C   0  0  0  0  0  0  0  0  0  0  0  0
    0.7180    1.5253   -0.2984 C   0  0  0  0  0  0  0  0  0  0  0  0
   -0.3185    0.8444   -1.1209 C   0  0  0  0  0  0  0  0  0  0  0  0
   -0.8607   -0.3094   -0.3102 C   0  0  0  0  0  0  0  0  0  0  0  0
   -2.2831   -0.5245   -0.0857 C   0  0  0  0  0  0  0  0  0  0  0  0
   -1.4769    0.1460    1.0117 C   0  0  0  0  0  0  0  0  0  0  0  0
    0.1400   -1.4150   -0.2245 C   0  0  0  0  0  0  0  0  0  0  0  0
    1.0729   -1.2249    0.7926 O   0  0  0  0  0  0  0  0  0  0  0  0
    2.1241   -0.4212    0.4168 C   0  0  0  0  0  0  0  0  0  0  0  0
    2.3997    1.7346    0.9111 H   0  0  0  0  0  0  0  0  0  0  0  0
    0.6153    2.5980   -0.2207 H   0  0  0  0  0  0  0  0  0  0  0  0
   -1.1316    1.5443   -1.3930 H   0  0  0  0  0  0  0  0  0  0  0  0
    0.1707    0.3900   -2.0269 H   0  0  0  0  0  0  0  0  0  0  0  0
   -3.0768    0.0534   -0.5893 H   0  0  0  0  0  0  0  0  0  0  0  0
   -2.6007   -1.5559    0.1769 H   0  0  0  0  0  0  0  0  0  0  0  0
   -1.6666    1.2073    1.1791 H   0  0  0  0  0  0  0  0  0  0  0  0
   -1.2453   -0.4227    1.9285 H   0  0  0  0  0  0  0  0  0  0  0  0
   -0.4259   -2.3500    0.0611 H   0  0  0  0  0  0  0  0  0  0  0  0
    0.5940   -1.5973   -1.2003 H   0  0  0  0  0  0  0  0  0  0  0  0
    2.9148   -0.5210    1.1941 H   0  0  0  0  0  0  0  0  0  0  0  0
    2.5844   -0.7318   -0.5604 H   0  0  0  0  0  0  0  0  0  0  0  0
  1  2  2  0
  2  3  1  0
  3  4  1  0
  4  5  1  0
  5  6  1  0
  4  7  1  0
  7  8  1  0
  8  9  1  0
  9  1  1  0
  6  4  1  0
  1 10  1  0
  2 11  1  0
  3 12  1  0
  3 13  1  0
  5 14  1  0
  5 15  1  0
  6 16  1  0
  6 17  1  0
  7 18  1  0
  7 19  1  0
  9 20  1  0
  9 21  1  0
M  END
