
     RDKit          3D

 19 21  0  0  0  0  0  0  0  0999 V2000
    1.4367    1.2563    0.2852 C   0  0  0  0  0  0  0  0  0  0  0  0
    0.3188    0.5713    0.4043 C   0  0  0  0  0  0  0  0  0  0  0  0
    0.5954   -0.9046    0.2627 C   0  0  0  0  0  0  0  0  0  0  0  0
   -0.5450   -1.3048   -0.6127 C   0  0  0  0  0  0  0  0  0  0  0  0
   -1.7428   -0.5547   -0.0694 C   0  0  0  0  0  0  0  0  0  0  0  0
   -2.0391    0.8211   -0.5208 C   0  0  0  0  0  0  0  0  0  0  0  0
   -1.1382    0.6663    0.6238 C   0  0  0  0  0  0  0  0  0  0  0  0
    1.8425   -0.9288   -0.3496 O   0  0  0  0  0  0  0  0  0  0  0  0
    2.5037    0.2315    0.0570 C   0  0  0  0  0  0  0  0  0  0  0  0
    1.6112    2.3253    0.3321 H   0  0  0  0  0  0  0  0  0  0  0  0
    0.5826   -1.3340    1.2622 H   0  0  0  0  0  0  0  0  0  0  0  0
   -0.3253   -1.0742   -1.6602 H   0  0  0  0  0  0  0  0  0  0  0  0
   -0.7188   -2.4051   -0.4465 H   0  0  0  0  0  0  0  0  0  0  0  0
   -2.5360   -1.1174    0.4243 H   0  0  0  0  0  0  0  0  0  0  0  0
   -1.5444    1.1489   -1.4790 H   0  0  0  0  0  0  0  0  0  0  0  0
   -3.0563    1.1905   -0.3678 H   0  0  0  0  0  0  0  0  0  0  0  0
   -1.4586    0.7488    1.6772 H   0  0  0  0  0  0  0  0  0  0  0  0
    3.0742    0.1120    0.9789 H   0  0  0  0  0  0  0  0  0  0  0  0
    3.1393    0.5515   -0.8016 H   0  0  0  0  0  0  0  0  0  0  0  0
  1  2  2  0
  2  3  1  0
  3  4  1  0
  4  5  1  0
  5  6  1  0
  6  7  1  0
  3  8  1  0
  8  9  1  0
  9  1  1  0
  7  2  1  0
  7  5  1  0
  1 10  1  0
  3 11  1  0
  4 12  1  0
  4 13  1  0
  5 14  1  0
  6 15  1  0
  6 16  1  0
  7 17  1  0
  9 18  1  0
  9 19  1  0
M  END
