
     RDKit          3D

 16 18  0  0  0  0  0  0  0  0999 V2000
    1.6876    0.4324    0.7541 C   0  0  0  0  0  0  0  0  0  0  0  0
    1.8080    0.1413   -0.5526 C   0  0  0  0  0  0  0  0  0  0  0  0
    0.6490   -0.8052   -0.7287 C   0  0  0  0  0  0  0  0  0  0  0  0
    0.8239   -1.5942    0.4368 O   0  0  0  0  0  0  0  0  0  0  0  0
    0.4719   -0.3960    1.1073 C   0  0  0  0  0  0  0  0  0  0  0  0
   -0.4357   -0.1421   -0.0085 C   0  0  0  0  0  0  0  0  0  0  0  0
   -1.1819    1.0219   -0.3258 C   0  0  0  0  0  0  0  0  0  0  0  0
   -1.8463   -0.3676   -0.0989 C   0  0  0  0  0  0  0  0  0  0  0  0
    2.2834    1.0756    1.3896 H   0  0  0  0  0  0  0  0  0  0  0  0
    2.5023    0.4572   -1.3012 H   0  0  0  0  0  0  0  0  0  0  0  0
    0.5397   -1.3039   -1.6543 H   0  0  0  0  0  0  0  0  0  0  0  0
    0.1846   -0.4547    2.1189 H   0  0  0  0  0  0  0  0  0  0  0  0
   -1.2592    1.4432   -1.3376 H   0  0  0  0  0  0  0  0  0  0  0  0
   -1.4221    1.7553    0.4984 H   0  0  0  0  0  0  0  0  0  0  0  0
   -2.2557   -0.8154   -1.0393 H   0  0  0  0  0  0  0  0  0  0  0  0
   -2.5495   -0.4478    0.7418 H   0  0  0  0  0  0  0  0  0  0  0  0
  1  2  2  0
  2  3  1  0
  3  4  1  0
  4  5  1  0
  5  6  1  0
  6  7  1  0
  7  8  1  0
  5  1  1  0
  8  6  1  0
  6  3  1  0
  1  9  1  0
  2 10  1  0
  3 11  1  0
  5 12  1  0
  7 13  1  0
  7 14  1  0
  8 15  1  0
  8 16  1  0
M  END
