
     RDKit          3D

 21 23  0  0  0  0  0  0  0  0999 V2000
    1.6214   -1.0584   -0.2521 C   0  0  0  0  0  0  0  0  0  0  0  0
    0.7927   -0.9321   -1.2699 C   0  0  0  0  0  0  0  0  0  0  0  0
   -0.1645    0.1960   -1.2151 C   0  0  0  0  0  0  0  0  0  0  0  0
    0.5698    1.4499   -0.6995 C   0  0  0  0  0  0  0  0  0  0  0  0
    0.3802    0.8385    0.6989 C   0  0  0  0  0  0  0  0  0  0  0  0
    1.5823   -0.0717    0.8956 C   0  0  0  0  0  0  0  0  0  0  0  0
   -0.7787    0.1310    0.1532 C   0  0  0  0  0  0  0  0  0  0  0  0
   -1.4467   -1.0260    0.7030 C   0  0  0  0  0  0  0  0  0  0  0  0
   -2.1719    0.3212    0.4297 C   0  0  0  0  0  0  0  0  0  0  0  0
    2.3502   -1.8493   -0.1860 H   0  0  0  0  0  0  0  0  0  0  0  0
    0.8106   -1.6046   -2.0867 H   0  0  0  0  0  0  0  0  0  0  0  0
   -0.8139    0.3575   -2.0640 H   0  0  0  0  0  0  0  0  0  0  0  0
    1.6164    1.5021   -1.0256 H   0  0  0  0  0  0  0  0  0  0  0  0
   -0.0565    2.3323   -0.8258 H   0  0  0  0  0  0  0  0  0  0  0  0
    0.2395    1.5889    1.4813 H   0  0  0  0  0  0  0  0  0  0  0  0
    2.4912    0.5403    0.8013 H   0  0  0  0  0  0  0  0  0  0  0  0
    1.5336   -0.6186    1.8529 H   0  0  0  0  0  0  0  0  0  0  0  0
   -1.6903   -1.8574   -0.0088 H   0  0  0  0  0  0  0  0  0  0  0  0
   -1.3685   -1.3179    1.7643 H   0  0  0  0  0  0  0  0  0  0  0  0
   -2.8845    0.2794   -0.4459 H   0  0  0  0  0  0  0  0  0  0  0  0
   -2.6124    0.7989    1.2990 H   0  0  0  0  0  0  0  0  0  0  0  0
  1  2  2  0
  2  3  1  0
  3  4  1  0
  4  5  1  0
  5  6  1  0
  5  7  1  0
  7  8  1  0
  8  9  1  0
  6  1  1  0
  9  7  1  0
  7  3  1  0
  1 10  1  0
  2 11  1  0
  3 12  1  0
  4 13  1  0
  4 14  1  0
  5 15  1  0
  6 16  1  0
  6 17  1  0
  8 18  1  0
  8 19  1  0
  9 20  1  0
  9 21  1  0
M  END
