
     RDKit          3D

 21 22  0  0  0  0  0  0  0  0999 V2000
   -0.6801   -0.2132   -1.2353 C   0  0  0  0  0  0  0  0  0  0  0  0
    0.0475   -0.2976   -0.1326 C   0  0  0  0  0  0  0  0  0  0  0  0
    1.5053   -0.5481   -0.1304 C   0  0  0  0  0  0  0  0  0  0  0  0
    2.4504    0.1801   -0.9590 C   0  0  0  0  0  0  0  0  0  0  0  0
    2.3240    0.5847    0.5354 C   0  0  0  0  0  0  0  0  0  0  0  0
   -0.5731   -0.1405    1.2320 C   0  0  0  0  0  0  0  0  0  0  0  0
   -2.0584    0.0060    1.1617 C   0  0  0  0  0  0  0  0  0  0  0  0
   -2.4969    0.6711    0.0309 O   0  0  0  0  0  0  0  0  0  0  0  0
   -2.1432    0.0418   -1.1417 C   0  0  0  0  0  0  0  0  0  0  0  0
   -0.2141   -0.3288   -2.1958 H   0  0  0  0  0  0  0  0  0  0  0  0
    1.7805   -1.5689    0.1978 H   0  0  0  0  0  0  0  0  0  0  0  0
    2.1780    0.9835   -1.6584 H   0  0  0  0  0  0  0  0  0  0  0  0
    3.4152   -0.2999   -1.1956 H   0  0  0  0  0  0  0  0  0  0  0  0
    3.1390    0.2774    1.2072 H   0  0  0  0  0  0  0  0  0  0  0  0
    1.7909    1.5340    0.7409 H   0  0  0  0  0  0  0  0  0  0  0  0
   -0.2984   -1.0630    1.7850 H   0  0  0  0  0  0  0  0  0  0  0  0
   -0.0859    0.7254    1.6967 H   0  0  0  0  0  0  0  0  0  0  0  0
   -2.3790    0.6179    2.0383 H   0  0  0  0  0  0  0  0  0  0  0  0
   -2.5596   -0.9886    1.2829 H   0  0  0  0  0  0  0  0  0  0  0  0
   -2.4395    0.7340   -1.9786 H   0  0  0  0  0  0  0  0  0  0  0  0
   -2.7025   -0.9072   -1.2815 H   0  0  0  0  0  0  0  0  0  0  0  0
  1  2  2  0
  2  3  1  0
  3  4  1  0
  4  5  1  0
  2  6  1  0
  6  7  1  0
  7  8  1  0
  8  9  1  0
  9  1  1  0
  5  3  1  0
  1 10  1  0
  3 11  1  0
  4 12  1  0
  4 13  1  0
  5 14  1  0
  5 15  1  0
  6 16  1  0
  6 17  1  0
  7 18  1  0
  7 19  1  0
  9 20  1  0
  9 21  1  0
M  END
