
     RDKit          3D

 17 19  0  0  0  0  0  0  0  0999 V2000
    1.7245   -0.2694   -0.3982 C   0  0  0  0  0  0  0  0  0  0  0  0
    1.1830    0.9342   -0.2422 C   0  0  0  0  0  0  0  0  0  0  0  0
    0.1876    0.8262    0.8723 C   0  0  0  0  0  0  0  0  0  0  0  0
    0.8035   -0.2426    1.5906 O   0  0  0  0  0  0  0  0  0  0  0  0
    0.9834   -1.1595    0.5337 C   0  0  0  0  0  0  0  0  0  0  0  0
   -0.2506   -1.6036    0.0005 O   0  0  0  0  0  0  0  0  0  0  0  0
   -0.7905   -0.5845   -0.6973 C   0  0  0  0  0  0  0  0  0  0  0  0
   -1.9185    0.2439   -0.6542 C   0  0  0  0  0  0  0  0  0  0  0  0
   -1.1450    0.3597    0.5138 C   0  0  0  0  0  0  0  0  0  0  0  0
    2.5290   -0.5623   -1.0533 H   0  0  0  0  0  0  0  0  0  0  0  0
    1.4354    1.8096   -0.8271 H   0  0  0  0  0  0  0  0  0  0  0  0
    0.2568    1.7449    1.4650 H   0  0  0  0  0  0  0  0  0  0  0  0
    1.5548   -2.0449    0.8427 H   0  0  0  0  0  0  0  0  0  0  0  0
    0.0050   -0.2099   -1.4120 H   0  0  0  0  0  0  0  0  0  0  0  0
   -2.9335   -0.2366   -0.6291 H   0  0  0  0  0  0  0  0  0  0  0  0
   -2.0005    1.1503   -1.3142 H   0  0  0  0  0  0  0  0  0  0  0  0
   -1.6243   -0.1555    1.4090 H   0  0  0  0  0  0  0  0  0  0  0  0
  1  2  2  0
  2  3  1  0
  3  4  1  0
  4  5  1  0
  5  6  1  0
  6  7  1  0
  7  8  1  0
  8  9  1  0
  5  1  1  0
  9  7  1  0
  9  3  1  0
  1 10  1  0
  2 11  1  0
  3 12  1  0
  5 13  1  0
  7 14  1  0
  8 15  1  0
  8 16  1  0
  9 17  1  0
M  END
