
     RDKit          3D

 19 19  0  0  0  0  0  0  0  0999 V2000
    1.6100   -0.9079    0.5695 C   0  0  0  0  0  0  0  0  0  0  0  0
    0.6366   -1.8052    0.3653 C   0  0  0  0  0  0  0  0  0  0  0  0
   -0.3488   -1.7185   -0.7038 C   0  0  0  0  0  0  0  0  0  0  0  0
   -1.3637   -0.8603   -0.6526 C   0  0  0  0  0  0  0  0  0  0  0  0
   -1.6538    0.0814    0.4197 C   0  0  0  0  0  0  0  0  0  0  0  0
   -1.1784    1.4426    0.3243 C   0  0  0  0  0  0  0  0  0  0  0  0
   -0.0150    1.9318   -0.0057 C   0  0  0  0  0  0  0  0  0  0  0  0
    1.2418    1.3854   -0.3999 C   0  0  0  0  0  0  0  0  0  0  0  0
    1.8948    0.2830   -0.1873 C   0  0  0  0  0  0  0  0  0  0  0  0
    2.2520   -1.1619    1.4440 H   0  0  0  0  0  0  0  0  0  0  0  0
    0.5754   -2.7177    1.0083 H   0  0  0  0  0  0  0  0  0  0  0  0
   -0.2898   -2.3941   -1.5851 H   0  0  0  0  0  0  0  0  0  0  0  0
   -2.0442   -0.8697   -1.5208 H   0  0  0  0  0  0  0  0  0  0  0  0
   -2.7725    0.0653    0.6316 H   0  0  0  0  0  0  0  0  0  0  0  0
   -1.2610   -0.2999    1.4282 H   0  0  0  0  0  0  0  0  0  0  0  0
   -2.0099    2.1692    0.5989 H   0  0  0  0  0  0  0  0  0  0  0  0
   -0.0570    3.0685    0.0500 H   0  0  0  0  0  0  0  0  0  0  0  0
    1.8477    2.0869   -1.0915 H   0  0  0  0  0  0  0  0  0  0  0  0
    2.9358    0.2212   -0.6930 H   0  0  0  0  0  0  0  0  0  0  0  0
  1  2  2  3
  2  3  1  0
  3  4  2  3
  4  5  1  0
  5  6  1  0
  6  7  2  3
  7  8  1  0
  8  9  2  3
  9  1  1  0
  1 10  1  0
  2 11  1  0
  3 12  1  0
  4 13  1  0
  5 14  1  0
  5 15  1  0
  6 16  1  0
  7 17  1  0
  8 18  1  0
  9 19  1  0
M  END
