
     RDKit          3D

 19 20  0  0  0  0  0  0  0  0999 V2000
   -2.2820    0.6989   -0.0572 C   0  0  0  0  0  0  0  0  0  0  0  0
   -1.2915    1.5159   -0.4044 C   0  0  0  0  0  0  0  0  0  0  0  0
   -0.0198    0.8347   -0.2680 C   0  0  0  0  0  0  0  0  0  0  0  0
    1.2390    1.1251   -0.0736 C   0  0  0  0  0  0  0  0  0  0  0  0
    2.3145    0.1078    0.0159 C   0  0  0  0  0  0  0  0  0  0  0  0
    1.8591   -1.0853   -0.5325 O   0  0  0  0  0  0  0  0  0  0  0  0
    0.7003   -1.4479    0.1978 C   0  0  0  0  0  0  0  0  0  0  0  0
   -0.3997   -0.6179   -0.4136 C   0  0  0  0  0  0  0  0  0  0  0  0
   -1.6836   -0.5976    0.3373 C   0  0  0  0  0  0  0  0  0  0  0  0
   -3.3261    0.9893   -0.0800 H   0  0  0  0  0  0  0  0  0  0  0  0
   -1.3892    2.5447   -0.7397 H   0  0  0  0  0  0  0  0  0  0  0  0
    1.4945    2.1683    0.0241 H   0  0  0  0  0  0  0  0  0  0  0  0
    3.2528    0.4580   -0.4472 H   0  0  0  0  0  0  0  0  0  0  0  0
    2.5019   -0.1162    1.1076 H   0  0  0  0  0  0  0  0  0  0  0  0
    0.8980   -1.1907    1.2396 H   0  0  0  0  0  0  0  0  0  0  0  0
    0.5440   -2.5197    0.0001 H   0  0  0  0  0  0  0  0  0  0  0  0
   -0.5623   -0.9019   -1.4511 H   0  0  0  0  0  0  0  0  0  0  0  0
   -2.3591   -1.4409    0.1040 H   0  0  0  0  0  0  0  0  0  0  0  0
   -1.4910   -0.5248    1.4409 H   0  0  0  0  0  0  0  0  0  0  0  0
  1  2  2  0
  2  3  1  0
  3  4  2  0
  4  5  1  0
  5  6  1  0
  6  7  1  0
  7  8  1  0
  8  9  1  0
  9  1  1  0
  8  3  1  0
  1 10  1  0
  2 11  1  0
  4 12  1  0
  5 13  1  0
  5 14  1  0
  7 15  1  0
  7 16  1  0
  8 17  1  0
  9 18  1  0
  9 19  1  0
M  END
