
     RDKit          3D

 21 23  0  0  0  0  0  0  0  0999 V2000
    1.7583    0.8833    0.3269 C   0  0  0  0  0  0  0  0  0  0  0  0
    0.5652    1.4260    0.6304 C   0  0  0  0  0  0  0  0  0  0  0  0
   -0.5395    0.9648   -0.2454 C   0  0  0  0  0  0  0  0  0  0  0  0
   -1.8938    0.7870    0.3453 C   0  0  0  0  0  0  0  0  0  0  0  0
   -1.8769   -0.6114   -0.3151 C   0  0  0  0  0  0  0  0  0  0  0  0
   -0.4557   -0.5385   -0.2321 C   0  0  0  0  0  0  0  0  0  0  0  0
    0.2907   -1.3150    0.7452 C   0  0  0  0  0  0  0  0  0  0  0  0
    0.7088   -1.1029   -0.7217 C   0  0  0  0  0  0  0  0  0  0  0  0
    1.8598   -0.0839   -0.8042 C   0  0  0  0  0  0  0  0  0  0  0  0
    2.6436    1.1391    0.8921 H   0  0  0  0  0  0  0  0  0  0  0  0
    0.4663    2.1231    1.4383 H   0  0  0  0  0  0  0  0  0  0  0  0
   -0.4794    1.4443   -1.2267 H   0  0  0  0  0  0  0  0  0  0  0  0
   -1.9105    0.7321    1.4499 H   0  0  0  0  0  0  0  0  0  0  0  0
   -2.6254    1.4705   -0.0809 H   0  0  0  0  0  0  0  0  0  0  0  0
   -2.3957   -0.5485   -1.3126 H   0  0  0  0  0  0  0  0  0  0  0  0
   -2.4230   -1.2992    0.3636 H   0  0  0  0  0  0  0  0  0  0  0  0
   -0.1203   -2.3402    0.9750 H   0  0  0  0  0  0  0  0  0  0  0  0
    0.8213   -0.8242    1.5506 H   0  0  0  0  0  0  0  0  0  0  0  0
    0.8895   -2.0152   -1.3176 H   0  0  0  0  0  0  0  0  0  0  0  0
    2.7990   -0.6819   -0.6777 H   0  0  0  0  0  0  0  0  0  0  0  0
    1.9175    0.3907   -1.7831 H   0  0  0  0  0  0  0  0  0  0  0  0
  1  2  2  0
  2  3  1  0
  3  4  1  0
  4  5  1  0
  5  6  1  0
  6  7  1  0
  7  8  1  0
  8  9  1  0
  9  1  1  0
  6  3  1  0
  8  6  1  0
  1 10  1  0
  2 11  1  0
  3 12  1  0
  4 13  1  0
  4 14  1  0
  5 15  1  0
  5 16  1  0
  7 17  1  0
  7 18  1  0
  8 19  1  0
  9 20  1  0
  9 21  1  0
M  END
