
     RDKit          3D

 17 19  0  0  0  0  0  0  0  0999 V2000
    1.3827   -0.5553   -0.6623 C   0  0  0  0  0  0  0  0  0  0  0  0
    1.3393    0.7642   -0.5535 C   0  0  0  0  0  0  0  0  0  0  0  0
    0.5426    1.0275    0.6784 C   0  0  0  0  0  0  0  0  0  0  0  0
    0.9492   -0.0857    1.4592 O   0  0  0  0  0  0  0  0  0  0  0  0
    0.6369   -1.0937    0.5096 C   0  0  0  0  0  0  0  0  0  0  0  0
   -0.8603   -1.0109    0.3042 C   0  0  0  0  0  0  0  0  0  0  0  0
   -1.2254   -0.0057   -0.7646 C   0  0  0  0  0  0  0  0  0  0  0  0
   -0.9452    0.9028    0.4117 C   0  0  0  0  0  0  0  0  0  0  0  0
   -1.4597   -0.1246    1.2090 O   0  0  0  0  0  0  0  0  0  0  0  0
    1.8572   -1.1355   -1.4356 H   0  0  0  0  0  0  0  0  0  0  0  0
    1.7659    1.5268   -1.1842 H   0  0  0  0  0  0  0  0  0  0  0  0
    0.7830    1.9766    1.1597 H   0  0  0  0  0  0  0  0  0  0  0  0
    0.9832   -2.0642    0.8497 H   0  0  0  0  0  0  0  0  0  0  0  0
   -1.3444   -1.9786    0.1847 H   0  0  0  0  0  0  0  0  0  0  0  0
   -0.5774    0.0707   -1.6210 H   0  0  0  0  0  0  0  0  0  0  0  0
   -2.3223   -0.0462   -0.9340 H   0  0  0  0  0  0  0  0  0  0  0  0
   -1.5052    1.8318    0.3889 H   0  0  0  0  0  0  0  0  0  0  0  0
  1  2  2  0
  2  3  1  0
  3  4  1  0
  4  5  1  0
  5  6  1  0
  6  7  1  0
  7  8  1  0
  8  9  1  0
  5  1  1  0
  9  6  1  0
  8  3  1  0
  1 10  1  0
  2 11  1  0
  3 12  1  0
  5 13  1  0
  6 14  1  0
  7 15  1  0
  7 16  1  0
  8 17  1  0
M  END
