
     RDKit          3D

 21 22  0  0  0  0  0  0  0  0999 V2000
    1.1296    1.3928   -0.2247 C   0  0  0  0  0  0  0  0  0  0  0  0
   -0.1714    1.3153   -0.1816 C   0  0  0  0  0  0  0  0  0  0  0  0
   -1.0713    0.1810    0.1043 C   0  0  0  0  0  0  0  0  0  0  0  0
   -0.4898   -0.8886    0.9218 C   0  0  0  0  0  0  0  0  0  0  0  0
    0.7274   -1.3951    0.8179 C   0  0  0  0  0  0  0  0  0  0  0  0
    1.8087   -1.0220   -0.1357 C   0  0  0  0  0  0  0  0  0  0  0  0
    2.1854    0.4252   -0.0151 C   0  0  0  0  0  0  0  0  0  0  0  0
   -1.9639   -0.2003   -1.0349 C   0  0  0  0  0  0  0  0  0  0  0  0
   -2.5338    0.4210    0.2175 C   0  0  0  0  0  0  0  0  0  0  0  0
    1.4960    2.4125   -0.4745 H   0  0  0  0  0  0  0  0  0  0  0  0
   -0.7414    2.2492   -0.3924 H   0  0  0  0  0  0  0  0  0  0  0  0
   -1.1183   -1.3046    1.6852 H   0  0  0  0  0  0  0  0  0  0  0  0
    0.9781   -2.1802    1.5082 H   0  0  0  0  0  0  0  0  0  0  0  0
    2.7033   -1.6176    0.1301 H   0  0  0  0  0  0  0  0  0  0  0  0
    1.5384   -1.2905   -1.1941 H   0  0  0  0  0  0  0  0  0  0  0  0
    2.6945    0.5196    0.9888 H   0  0  0  0  0  0  0  0  0  0  0  0
    2.9721    0.5924   -0.8133 H   0  0  0  0  0  0  0  0  0  0  0  0
   -2.1853   -1.3047   -1.1210 H   0  0  0  0  0  0  0  0  0  0  0  0
   -2.0175    0.4208   -1.9487 H   0  0  0  0  0  0  0  0  0  0  0  0
   -3.0689   -0.1992    0.9543 H   0  0  0  0  0  0  0  0  0  0  0  0
   -2.8718    1.4729    0.2080 H   0  0  0  0  0  0  0  0  0  0  0  0
  1  2  2  0
  2  3  1  0
  3  4  1  0
  4  5  2  0
  5  6  1  0
  6  7  1  0
  3  8  1  0
  8  9  1  0
  7  1  1  0
  9  3  1  0
  1 10  1  0
  2 11  1  0
  4 12  1  0
  5 13  1  0
  6 14  1  0
  6 15  1  0
  7 16  1  0
  7 17  1  0
  8 18  1  0
  8 19  1  0
  9 20  1  0
  9 21  1  0
M  END
