
     RDKit          3D

 19 21  0  0  0  0  0  0  0  0999 V2000
    1.0394    1.0855   -0.7681 C   0  0  0  0  0  0  0  0  0  0  0  0
   -0.2400    0.8053   -0.5505 C   0  0  0  0  0  0  0  0  0  0  0  0
   -1.6705    1.0757   -0.7233 C   0  0  0  0  0  0  0  0  0  0  0  0
   -1.8921   -0.4011   -0.3396 C   0  0  0  0  0  0  0  0  0  0  0  0
   -1.6800   -0.6309    1.0966 C   0  0  0  0  0  0  0  0  0  0  0  0
   -0.4918   -0.3840    0.3016 C   0  0  0  0  0  0  0  0  0  0  0  0
    0.4060   -1.3935    0.0611 O   0  0  0  0  0  0  0  0  0  0  0  0
    1.6328   -0.9796    0.5413 C   0  0  0  0  0  0  0  0  0  0  0  0
    2.1002    0.2287   -0.1738 C   0  0  0  0  0  0  0  0  0  0  0  0
    1.3791    1.9219   -1.3680 H   0  0  0  0  0  0  0  0  0  0  0  0
   -2.0289    1.2359   -1.7568 H   0  0  0  0  0  0  0  0  0  0  0  0
   -2.0826    1.7194    0.0507 H   0  0  0  0  0  0  0  0  0  0  0  0
   -2.0009   -1.1535   -1.1088 H   0  0  0  0  0  0  0  0  0  0  0  0
   -2.0871    0.1631    1.7890 H   0  0  0  0  0  0  0  0  0  0  0  0
   -1.8472   -1.6365    1.4707 H   0  0  0  0  0  0  0  0  0  0  0  0
    1.5801   -0.7178    1.6400 H   0  0  0  0  0  0  0  0  0  0  0  0
    2.3920   -1.7882    0.3826 H   0  0  0  0  0  0  0  0  0  0  0  0
    2.7125    0.9181    0.4768 H   0  0  0  0  0  0  0  0  0  0  0  0
    2.7790   -0.0686   -1.0215 H   0  0  0  0  0  0  0  0  0  0  0  0
  1  2  2  0
  2  3  1  0
  3  4  1  0
  4  5  1  0
  5  6  1  0
  6  7  1  0
  7  8  1  0
  8  9  1  0
  9  1  1  0
  6  2  1  0
  6  4  1  0
  1 10  1  0
  3 11  1  0
  3 12  1  0
  4 13  1  0
  5 14  1  0
  5 15  1  0
  8 16  1  0
  8 17  1  0
  9 18  1  0
  9 19  1  0
M  END
