
     RDKit          3D

 19 21  0  0  0  0  0  0  0  0999 V2000
   -0.4442    1.6121   -0.0827 C   0  0  0  0  0  0  0  0  0  0  0  0
    0.8565    1.4416   -0.2227 C   0  0  0  0  0  0  0  0  0  0  0  0
    1.3806    0.0620   -0.1995 C   0  0  0  0  0  0  0  0  0  0  0  0
    0.7941   -0.7786    0.9018 C   0  0  0  0  0  0  0  0  0  0  0  0
   -0.5552   -0.3175    1.3374 C   0  0  0  0  0  0  0  0  0  0  0  0
   -1.2237    0.3667    0.1614 C   0  0  0  0  0  0  0  0  0  0  0  0
   -0.9208   -0.5257   -1.0535 C   0  0  0  0  0  0  0  0  0  0  0  0
    0.5284   -0.8934   -1.0022 C   0  0  0  0  0  0  0  0  0  0  0  0
    0.7165   -1.8384   -0.0193 O   0  0  0  0  0  0  0  0  0  0  0  0
   -0.9736    2.5448   -0.1284 H   0  0  0  0  0  0  0  0  0  0  0  0
    1.5453    2.2583   -0.3519 H   0  0  0  0  0  0  0  0  0  0  0  0
    2.4411   -0.0840   -0.3717 H   0  0  0  0  0  0  0  0  0  0  0  0
    1.4809   -1.0336    1.7312 H   0  0  0  0  0  0  0  0  0  0  0  0
   -0.4251    0.3786    2.1873 H   0  0  0  0  0  0  0  0  0  0  0  0
   -1.1934   -1.1748    1.6739 H   0  0  0  0  0  0  0  0  0  0  0  0
   -2.2900    0.5284    0.3026 H   0  0  0  0  0  0  0  0  0  0  0  0
   -1.1711   -0.0168   -1.9886 H   0  0  0  0  0  0  0  0  0  0  0  0
   -1.5399   -1.4411   -0.8920 H   0  0  0  0  0  0  0  0  0  0  0  0
    0.9937   -1.0887   -1.9832 H   0  0  0  0  0  0  0  0  0  0  0  0
  1  2  2  0
  2  3  1  0
  3  4  1  0
  4  5  1  0
  5  6  1  0
  6  7  1  0
  7  8  1  0
  8  9  1  0
  6  1  1  0
  8  3  1  0
  9  4  1  0
  1 10  1  0
  2 11  1  0
  3 12  1  0
  4 13  1  0
  5 14  1  0
  5 15  1  0
  6 16  1  0
  7 17  1  0
  7 18  1  0
  8 19  1  0
M  END
