
     RDKit          3D

 17 19  0  0  0  0  0  0  0  0999 V2000
   -0.0528    1.3813   -0.4909 C   0  0  0  0  0  0  0  0  0  0  0  0
    0.9229    0.5970   -0.0442 C   0  0  0  0  0  0  0  0  0  0  0  0
    2.1766    0.0968    0.5824 C   0  0  0  0  0  0  0  0  0  0  0  0
    1.4872   -1.1266    0.7623 O   0  0  0  0  0  0  0  0  0  0  0  0
    0.6898   -0.8728   -0.3213 C   0  0  0  0  0  0  0  0  0  0  0  0
   -0.7767   -1.0859   -0.2111 C   0  0  0  0  0  0  0  0  0  0  0  0
   -1.5076   -0.1366    0.6690 C   0  0  0  0  0  0  0  0  0  0  0  0
   -1.4179    0.7370   -0.5909 C   0  0  0  0  0  0  0  0  0  0  0  0
   -1.3750   -0.4398   -1.3146 O   0  0  0  0  0  0  0  0  0  0  0  0
    0.1082    2.4197   -0.7690 H   0  0  0  0  0  0  0  0  0  0  0  0
    2.4436    0.5418    1.5502 H   0  0  0  0  0  0  0  0  0  0  0  0
    3.0436    0.0245   -0.0905 H   0  0  0  0  0  0  0  0  0  0  0  0
    1.0679   -1.2003   -1.3085 H   0  0  0  0  0  0  0  0  0  0  0  0
   -1.0705   -2.1338   -0.0757 H   0  0  0  0  0  0  0  0  0  0  0  0
   -2.5347   -0.4955    0.8696 H   0  0  0  0  0  0  0  0  0  0  0  0
   -0.9590    0.2783    1.5346 H   0  0  0  0  0  0  0  0  0  0  0  0
   -2.2456    1.4150   -0.7514 H   0  0  0  0  0  0  0  0  0  0  0  0
  1  2  2  0
  2  3  1  0
  3  4  1  0
  4  5  1  0
  5  6  1  0
  6  7  1  0
  7  8  1  0
  8  9  1  0
  8  1  1  0
  5  2  1  0
  9  6  1  0
  1 10  1  0
  3 11  1  0
  3 12  1  0
  5 13  1  0
  6 14  1  0
  7 15  1  0
  7 16  1  0
  8 17  1  0
M  END
