
     RDKit          3D

 17 19  0  0  0  0  0  0  0  0999 V2000
   -0.4836    1.5155   -0.1613 C   0  0  0  0  0  0  0  0  0  0  0  0
   -1.3144    0.6274   -0.6875 C   0  0  0  0  0  0  0  0  0  0  0  0
   -1.1264   -0.7525   -0.1582 C   0  0  0  0  0  0  0  0  0  0  0  0
   -1.1374   -0.5222    1.2474 O   0  0  0  0  0  0  0  0  0  0  0  0
    0.2290   -0.2117    1.4251 C   0  0  0  0  0  0  0  0  0  0  0  0
    0.7184   -1.4591    0.9435 O   0  0  0  0  0  0  0  0  0  0  0  0
    0.2646   -1.2683   -0.3875 C   0  0  0  0  0  0  0  0  0  0  0  0
    1.1798   -0.0818   -0.7118 C   0  0  0  0  0  0  0  0  0  0  0  0
    0.7186    0.8184    0.4516 C   0  0  0  0  0  0  0  0  0  0  0  0
   -0.6107    2.5760   -0.1523 H   0  0  0  0  0  0  0  0  0  0  0  0
   -2.0576    0.8379   -1.4180 H   0  0  0  0  0  0  0  0  0  0  0  0
   -1.9168   -1.4457   -0.4384 H   0  0  0  0  0  0  0  0  0  0  0  0
    0.4919   -0.0397    2.4587 H   0  0  0  0  0  0  0  0  0  0  0  0
    0.3795   -2.1114   -1.0220 H   0  0  0  0  0  0  0  0  0  0  0  0
    2.2164   -0.3323   -0.5032 H   0  0  0  0  0  0  0  0  0  0  0  0
    0.9748    0.3566   -1.6833 H   0  0  0  0  0  0  0  0  0  0  0  0
    1.4741    1.4928    0.7974 H   0  0  0  0  0  0  0  0  0  0  0  0
  1  2  2  0
  2  3  1  0
  3  4  1  0
  4  5  1  0
  5  6  1  0
  6  7  1  0
  7  8  1  0
  8  9  1  0
  9  1  1  0
  7  3  1  0
  9  5  1  0
  1 10  1  0
  2 11  1  0
  3 12  1  0
  5 13  1  0
  7 14  1  0
  8 15  1  0
  8 16  1  0
  9 17  1  0
M  END
