
     RDKit          3D

 19 21  0  0  0  0  0  0  0  0999 V2000
    1.4515   -0.9985   -0.9163 C   0  0  0  0  0  0  0  0  0  0  0  0
    0.1626   -1.2996   -0.8567 C   0  0  0  0  0  0  0  0  0  0  0  0
   -0.4705   -0.5495    0.2083 C   0  0  0  0  0  0  0  0  0  0  0  0
   -1.7578   -0.8095    0.8080 C   0  0  0  0  0  0  0  0  0  0  0  0
   -1.6998    0.3050   -0.1500 C   0  0  0  0  0  0  0  0  0  0  0  0
   -1.3941    1.5932    0.1937 O   0  0  0  0  0  0  0  0  0  0  0  0
   -0.0079    1.7312   -0.0260 C   0  0  0  0  0  0  0  0  0  0  0  0
    0.4983    0.4855    0.7055 C   0  0  0  0  0  0  0  0  0  0  0  0
    1.8065   -0.0000    0.1231 C   0  0  0  0  0  0  0  0  0  0  0  0
    2.1674   -1.4044   -1.6105 H   0  0  0  0  0  0  0  0  0  0  0  0
   -0.3075   -2.0051   -1.5221 H   0  0  0  0  0  0  0  0  0  0  0  0
   -1.8793   -0.5285    1.8953 H   0  0  0  0  0  0  0  0  0  0  0  0
   -2.2978   -1.7129    0.5489 H   0  0  0  0  0  0  0  0  0  0  0  0
   -2.1633    0.1011   -1.1547 H   0  0  0  0  0  0  0  0  0  0  0  0
    0.2476    1.5671   -1.0980 H   0  0  0  0  0  0  0  0  0  0  0  0
    0.3891    2.6542    0.3853 H   0  0  0  0  0  0  0  0  0  0  0  0
    0.5220    0.6104    1.7860 H   0  0  0  0  0  0  0  0  0  0  0  0
    2.3185   -0.5726    0.9410 H   0  0  0  0  0  0  0  0  0  0  0  0
    2.4145    0.8328   -0.2607 H   0  0  0  0  0  0  0  0  0  0  0  0
  1  2  2  0
  2  3  1  0
  3  4  1  0
  4  5  1  0
  5  6  1  0
  6  7  1  0
  7  8  1  0
  8  9  1  0
  9  1  1  0
  5  3  1  0
  8  3  1  0
  1 10  1  0
  2 11  1  0
  4 12  1  0
  4 13  1  0
  5 14  1  0
  7 15  1  0
  7 16  1  0
  8 17  1  0
  9 18  1  0
  9 19  1  0
M  END
