
     RDKit          3D

 19 20  0  0  0  0  0  0  0  0999 V2000
   -2.6784    0.8621    0.2117 C   0  0  0  0  0  0  0  0  0  0  0  0
   -1.4540    1.3486    0.1266 C   0  0  0  0  0  0  0  0  0  0  0  0
   -0.6265    0.3918   -0.6356 C   0  0  0  0  0  0  0  0  0  0  0  0
    0.1956   -0.3782    0.1823 O   0  0  0  0  0  0  0  0  0  0  0  0
    1.5382   -0.1803   -0.0867 C   0  0  0  0  0  0  0  0  0  0  0  0
    2.5360   -0.1099    1.0156 C   0  0  0  0  0  0  0  0  0  0  0  0
    2.5374   -1.2458    0.0337 C   0  0  0  0  0  0  0  0  0  0  0  0
   -1.5371   -0.3797   -1.3116 O   0  0  0  0  0  0  0  0  0  0  0  0
   -2.6769   -0.4426   -0.5047 C   0  0  0  0  0  0  0  0  0  0  0  0
   -3.5536    1.3144    0.7116 H   0  0  0  0  0  0  0  0  0  0  0  0
   -1.1615    2.3087    0.5688 H   0  0  0  0  0  0  0  0  0  0  0  0
   -0.0059    1.0048   -1.3350 H   0  0  0  0  0  0  0  0  0  0  0  0
    1.7160    0.5619   -0.9120 H   0  0  0  0  0  0  0  0  0  0  0  0
    3.3261    0.6671    0.9801 H   0  0  0  0  0  0  0  0  0  0  0  0
    2.2547   -0.3841    2.0510 H   0  0  0  0  0  0  0  0  0  0  0  0
    2.2943   -2.2651    0.4198 H   0  0  0  0  0  0  0  0  0  0  0  0
    3.4031   -1.2560   -0.6649 H   0  0  0  0  0  0  0  0  0  0  0  0
   -3.5848   -0.5913   -1.1086 H   0  0  0  0  0  0  0  0  0  0  0  0
   -2.5226   -1.2263    0.2580 H   0  0  0  0  0  0  0  0  0  0  0  0
  1  2  2  0
  2  3  1  0
  3  4  1  0
  4  5  1  0
  5  6  1  0
  6  7  1  0
  3  8  1  0
  8  9  1  0
  9  1  1  0
  7  5  1  0
  1 10  1  0
  2 11  1  0
  3 12  1  0
  5 13  1  0
  6 14  1  0
  6 15  1  0
  7 16  1  0
  7 17  1  0
  9 18  1  0
  9 19  1  0
M  END
