
     RDKit          3D

 19 21  0  0  0  0  0  0  0  0999 V2000
    1.8032   -0.2794   -0.2297 C   0  0  0  0  0  0  0  0  0  0  0  0
    1.2018   -1.4112    0.0675 C   0  0  0  0  0  0  0  0  0  0  0  0
   -0.2467   -1.3628   -0.2707 C   0  0  0  0  0  0  0  0  0  0  0  0
   -1.0440   -0.8581    0.8984 C   0  0  0  0  0  0  0  0  0  0  0  0
   -1.3589    0.3889    0.0896 C   0  0  0  0  0  0  0  0  0  0  0  0
   -0.7248    1.5729    0.6630 C   0  0  0  0  0  0  0  0  0  0  0  0
    0.4916    1.7617    0.1740 C   0  0  0  0  0  0  0  0  0  0  0  0
    0.8415    0.7036   -0.8154 C   0  0  0  0  0  0  0  0  0  0  0  0
   -0.4240   -0.0644   -1.0077 C   0  0  0  0  0  0  0  0  0  0  0  0
    2.8601   -0.0258   -0.0928 H   0  0  0  0  0  0  0  0  0  0  0  0
    1.6627   -2.2881    0.5023 H   0  0  0  0  0  0  0  0  0  0  0  0
   -0.6465   -2.2536   -0.7850 H   0  0  0  0  0  0  0  0  0  0  0  0
   -1.9686   -1.4484    1.1176 H   0  0  0  0  0  0  0  0  0  0  0  0
   -0.4929   -0.6954    1.8298 H   0  0  0  0  0  0  0  0  0  0  0  0
   -2.3991    0.4636   -0.2362 H   0  0  0  0  0  0  0  0  0  0  0  0
   -1.1703    2.2292    1.3956 H   0  0  0  0  0  0  0  0  0  0  0  0
    1.1795    2.5685    0.4316 H   0  0  0  0  0  0  0  0  0  0  0  0
    1.2838    1.1068   -1.7240 H   0  0  0  0  0  0  0  0  0  0  0  0
   -0.8483   -0.1081   -2.0077 H   0  0  0  0  0  0  0  0  0  0  0  0
  1  2  2  0
  2  3  1  0
  3  4  1  0
  4  5  1  0
  5  6  1  0
  6  7  2  0
  7  8  1  0
  8  9  1  0
  8  1  1  0
  9  3  1  0
  9  5  1  0
  1 10  1  0
  2 11  1  0
  3 12  1  0
  4 13  1  0
  4 14  1  0
  5 15  1  0
  6 16  1  0
  7 17  1  0
  8 18  1  0
  9 19  1  0
M  END
