
     RDKit          3D

 21 23  0  0  0  0  0  0  0  0999 V2000
    1.3473    0.7074   -1.3595 C   0  0  0  0  0  0  0  0  0  0  0  0
    1.3673    1.4878   -0.2787 C   0  0  0  0  0  0  0  0  0  0  0  0
    0.8962    0.5794    0.8011 C   0  0  0  0  0  0  0  0  0  0  0  0
    1.7538   -0.6556    0.4711 C   0  0  0  0  0  0  0  0  0  0  0  0
    0.8832   -0.6080   -0.7975 C   0  0  0  0  0  0  0  0  0  0  0  0
   -0.2057   -0.1416    0.0992 C   0  0  0  0  0  0  0  0  0  0  0  0
   -1.3229    0.6456   -0.4703 C   0  0  0  0  0  0  0  0  0  0  0  0
   -2.2712   -0.3378    0.2328 C   0  0  0  0  0  0  0  0  0  0  0  0
   -1.0533   -1.0781    0.8101 C   0  0  0  0  0  0  0  0  0  0  0  0
    1.5897    0.9096   -2.3936 H   0  0  0  0  0  0  0  0  0  0  0  0
    1.6490    2.5208   -0.1808 H   0  0  0  0  0  0  0  0  0  0  0  0
    0.8305    0.8963    1.7918 H   0  0  0  0  0  0  0  0  0  0  0  0
    2.7889   -0.3463    0.3067 H   0  0  0  0  0  0  0  0  0  0  0  0
    1.5626   -1.5228    1.1089 H   0  0  0  0  0  0  0  0  0  0  0  0
    0.8218   -1.4523   -1.4045 H   0  0  0  0  0  0  0  0  0  0  0  0
   -1.4282    1.6975   -0.0796 H   0  0  0  0  0  0  0  0  0  0  0  0
   -1.3853    0.6405   -1.5598 H   0  0  0  0  0  0  0  0  0  0  0  0
   -2.8805    0.1273    1.0062 H   0  0  0  0  0  0  0  0  0  0  0  0
   -2.8067   -0.9280   -0.5475 H   0  0  0  0  0  0  0  0  0  0  0  0
   -1.0894   -2.1363    0.5114 H   0  0  0  0  0  0  0  0  0  0  0  0
   -1.0471   -1.0058    1.9326 H   0  0  0  0  0  0  0  0  0  0  0  0
  1  2  2  0
  2  3  1  0
  3  4  1  0
  4  5  1  0
  5  6  1  0
  6  7  1  0
  7  8  1  0
  8  9  1  0
  5  1  1  0
  9  6  1  0
  6  3  1  0
  1 10  1  0
  2 11  1  0
  3 12  1  0
  4 13  1  0
  4 14  1  0
  5 15  1  0
  7 16  1  0
  7 17  1  0
  8 18  1  0
  8 19  1  0
  9 20  1  0
  9 21  1  0
M  END
