
     RDKit          3D

 17 19  0  0  0  0  0  0  0  0999 V2000
    1.7485   -0.0729   -0.3256 C   0  0  0  0  0  0  0  0  0  0  0  0
    1.1081    1.0930   -0.3125 C   0  0  0  0  0  0  0  0  0  0  0  0
   -0.2921    1.0831    0.1694 C   0  0  0  0  0  0  0  0  0  0  0  0
   -1.2832    0.4718   -0.8191 C   0  0  0  0  0  0  0  0  0  0  0  0
   -1.0821   -0.8552   -0.1322 C   0  0  0  0  0  0  0  0  0  0  0  0
    0.0108   -1.5894   -0.5106 O   0  0  0  0  0  0  0  0  0  0  0  0
    1.0779   -1.2496    0.3080 C   0  0  0  0  0  0  0  0  0  0  0  0
    0.5227   -0.7651    1.5053 O   0  0  0  0  0  0  0  0  0  0  0  0
   -0.5864   -0.0927    1.0712 C   0  0  0  0  0  0  0  0  0  0  0  0
    2.7239   -0.1492   -0.7849 H   0  0  0  0  0  0  0  0  0  0  0  0
    1.5521    2.0299   -0.6307 H   0  0  0  0  0  0  0  0  0  0  0  0
   -0.6478    2.0393    0.6126 H   0  0  0  0  0  0  0  0  0  0  0  0
   -0.9666    0.5152   -1.8730 H   0  0  0  0  0  0  0  0  0  0  0  0
   -2.2946    0.8714   -0.5970 H   0  0  0  0  0  0  0  0  0  0  0  0
   -2.0171   -1.4044    0.0554 H   0  0  0  0  0  0  0  0  0  0  0  0
    1.7962   -2.0546    0.4623 H   0  0  0  0  0  0  0  0  0  0  0  0
   -1.3705    0.1296    1.8014 H   0  0  0  0  0  0  0  0  0  0  0  0
  1  2  2  0
  2  3  1  0
  3  4  1  0
  4  5  1  0
  5  6  1  0
  6  7  1  0
  7  8  1  0
  8  9  1  0
  7  1  1  0
  9  3  1  0
  9  5  1  0
  1 10  1  0
  2 11  1  0
  3 12  1  0
  4 13  1  0
  4 14  1  0
  5 15  1  0
  7 16  1  0
  9 17  1  0
M  END
