
     RDKit          3D

 19 21  0  0  0  0  0  0  0  0999 V2000
   -1.3248   -0.8939   -0.8128 C   0  0  0  0  0  0  0  0  0  0  0  0
   -0.0368   -0.6067   -0.5980 C   0  0  0  0  0  0  0  0  0  0  0  0
    0.1262    0.3490    0.5715 C   0  0  0  0  0  0  0  0  0  0  0  0
   -0.7269    1.5189    0.1931 C   0  0  0  0  0  0  0  0  0  0  0  0
   -2.0726    1.1580    0.1425 O   0  0  0  0  0  0  0  0  0  0  0  0
   -2.2878   -0.2198    0.1245 C   0  0  0  0  0  0  0  0  0  0  0  0
    1.5892    0.3910    0.3519 C   0  0  0  0  0  0  0  0  0  0  0  0
    2.3019   -0.9494    0.3610 C   0  0  0  0  0  0  0  0  0  0  0  0
    1.4225   -0.5899   -0.7607 C   0  0  0  0  0  0  0  0  0  0  0  0
   -1.5818   -1.5554   -1.6021 H   0  0  0  0  0  0  0  0  0  0  0  0
   -0.2284   -0.1590    1.4953 H   0  0  0  0  0  0  0  0  0  0  0  0
   -0.5709    2.4092    0.8104 H   0  0  0  0  0  0  0  0  0  0  0  0
   -0.4487    1.8036   -0.8625 H   0  0  0  0  0  0  0  0  0  0  0  0
   -2.2009   -0.6684    1.1308 H   0  0  0  0  0  0  0  0  0  0  0  0
   -3.2948   -0.3881   -0.2887 H   0  0  0  0  0  0  0  0  0  0  0  0
    2.1680    1.3035    0.2358 H   0  0  0  0  0  0  0  0  0  0  0  0
    3.3915   -0.9162    0.1526 H   0  0  0  0  0  0  0  0  0  0  0  0
    1.9197   -1.6534    1.1202 H   0  0  0  0  0  0  0  0  0  0  0  0
    1.8555   -0.3330   -1.7650 H   0  0  0  0  0  0  0  0  0  0  0  0
  1  2  2  0
  2  3  1  0
  3  4  1  0
  4  5  1  0
  5  6  1  0
  3  7  1  0
  7  8  1  0
  8  9  1  0
  6  1  1  0
  9  7  1  0
  9  2  1  0
  1 10  1  0
  3 11  1  0
  4 12  1  0
  4 13  1  0
  6 14  1  0
  6 15  1  0
  7 16  1  0
  8 17  1  0
  8 18  1  0
  9 19  1  0
M  END
