
     RDKit          3D

 19 21  0  0  0  0  0  0  0  0999 V2000
    1.4852   -0.4902   -0.8508 C   0  0  0  0  0  0  0  0  0  0  0  0
    1.4441    0.8219   -0.6608 C   0  0  0  0  0  0  0  0  0  0  0  0
    0.3964    1.1036    0.4046 C   0  0  0  0  0  0  0  0  0  0  0  0
    0.6894   -0.1503    1.2469 C   0  0  0  0  0  0  0  0  0  0  0  0
    0.5084   -1.1295    0.0733 C   0  0  0  0  0  0  0  0  0  0  0  0
   -0.8503   -0.9360   -0.5716 C   0  0  0  0  0  0  0  0  0  0  0  0
   -1.7906   -0.1385    0.2690 C   0  0  0  0  0  0  0  0  0  0  0  0
   -0.9302    0.9674   -0.2627 C   0  0  0  0  0  0  0  0  0  0  0  0
   -0.8142    0.1856   -1.4391 O   0  0  0  0  0  0  0  0  0  0  0  0
    2.1114   -1.0027   -1.5472 H   0  0  0  0  0  0  0  0  0  0  0  0
    2.0245    1.5893   -1.1461 H   0  0  0  0  0  0  0  0  0  0  0  0
    0.5815    2.0228    0.9352 H   0  0  0  0  0  0  0  0  0  0  0  0
    1.7782   -0.1082    1.4667 H   0  0  0  0  0  0  0  0  0  0  0  0
    0.0397   -0.3058    2.0741 H   0  0  0  0  0  0  0  0  0  0  0  0
    0.7381   -2.1498    0.3393 H   0  0  0  0  0  0  0  0  0  0  0  0
   -1.2549   -1.8128   -1.0816 H   0  0  0  0  0  0  0  0  0  0  0  0
   -2.8050   -0.0706   -0.1607 H   0  0  0  0  0  0  0  0  0  0  0  0
   -1.8450   -0.3093    1.3323 H   0  0  0  0  0  0  0  0  0  0  0  0
   -1.5066    1.9129   -0.4209 H   0  0  0  0  0  0  0  0  0  0  0  0
  1  2  2  0
  2  3  1  0
  3  4  1  0
  4  5  1  0
  5  6  1  0
  6  7  1  0
  7  8  1  0
  8  9  1  0
  5  1  1  0
  9  6  1  0
  8  3  1  0
  1 10  1  0
  2 11  1  0
  3 12  1  0
  4 13  1  0
  4 14  1  0
  5 15  1  0
  6 16  1  0
  7 17  1  0
  7 18  1  0
  8 19  1  0
M  END
