
     RDKit          3D

 21 23  0  0  0  0  0  0  0  0999 V2000
    1.4492   -1.2533    0.3550 C   0  0  0  0  0  0  0  0  0  0  0  0
    0.1800   -0.9484    0.1616 C   0  0  0  0  0  0  0  0  0  0  0  0
   -1.2013   -1.4890    0.1020 C   0  0  0  0  0  0  0  0  0  0  0  0
   -2.1098   -0.3666   -0.2253 C   0  0  0  0  0  0  0  0  0  0  0  0
   -1.2131    0.7942   -0.5845 C   0  0  0  0  0  0  0  0  0  0  0  0
   -0.6555    1.4688    0.6643 C   0  0  0  0  0  0  0  0  0  0  0  0
    0.0946    0.4829   -0.0942 C   0  0  0  0  0  0  0  0  0  0  0  0
    1.4248    0.8182   -0.6776 C   0  0  0  0  0  0  0  0  0  0  0  0
    2.3214   -0.0339    0.2399 C   0  0  0  0  0  0  0  0  0  0  0  0
    1.8611   -2.2227    0.5689 H   0  0  0  0  0  0  0  0  0  0  0  0
   -1.4139   -1.9675    1.0859 H   0  0  0  0  0  0  0  0  0  0  0  0
   -1.2940   -2.2697   -0.7112 H   0  0  0  0  0  0  0  0  0  0  0  0
   -2.7691   -0.0677    0.6454 H   0  0  0  0  0  0  0  0  0  0  0  0
   -2.7747   -0.6581   -1.0639 H   0  0  0  0  0  0  0  0  0  0  0  0
   -1.4737    1.4135   -1.4501 H   0  0  0  0  0  0  0  0  0  0  0  0
   -1.0144    1.2043    1.6534 H   0  0  0  0  0  0  0  0  0  0  0  0
   -0.3056    2.5326    0.5696 H   0  0  0  0  0  0  0  0  0  0  0  0
    1.5615    0.5028   -1.7254 H   0  0  0  0  0  0  0  0  0  0  0  0
    1.6538    1.8762   -0.4894 H   0  0  0  0  0  0  0  0  0  0  0  0
    2.4101    0.4195    1.2294 H   0  0  0  0  0  0  0  0  0  0  0  0
    3.2685   -0.2362   -0.2540 H   0  0  0  0  0  0  0  0  0  0  0  0
  1  2  2  0
  2  3  1  0
  3  4  1  0
  4  5  1  0
  5  6  1  0
  6  7  1  0
  7  8  1  0
  8  9  1  0
  9  1  1  0
  7  2  1  0
  7  5  1  0
  1 10  1  0
  3 11  1  0
  3 12  1  0
  4 13  1  0
  4 14  1  0
  5 15  1  0
  6 16  1  0
  6 17  1  0
  8 18  1  0
  8 19  1  0
  9 20  1  0
  9 21  1  0
M  END
