
     RDKit          3D

 20 21  0  0  0  0  0  0  0  0999 V2000
    1.9040    0.1966    0.4761 C   0  0  0  0  0  0  0  0  0  0  0  0
    1.5260   -1.0588    0.3347 C   0  0  0  0  0  0  0  0  0  0  0  0
    0.2428   -1.4185   -0.3499 C   0  0  0  0  0  0  0  0  0  0  0  0
   -0.6773   -0.2244   -0.3006 C   0  0  0  0  0  0  0  0  0  0  0  0
    0.0122    0.9228   -0.9680 C   0  0  0  0  0  0  0  0  0  0  0  0
    1.1259    1.3660   -0.0116 C   0  0  0  0  0  0  0  0  0  0  0  0
   -1.3606    0.1313    0.9902 C   0  0  0  0  0  0  0  0  0  0  0  0
   -2.1123   -0.4049   -0.2275 C   0  0  0  0  0  0  0  0  0  0  0  0
    2.8380    0.4066    0.9771 H   0  0  0  0  0  0  0  0  0  0  0  0
    2.1444   -1.8874    0.7171 H   0  0  0  0  0  0  0  0  0  0  0  0
   -0.1986   -2.3269    0.0656 H   0  0  0  0  0  0  0  0  0  0  0  0
    0.5115   -1.5882   -1.4216 H   0  0  0  0  0  0  0  0  0  0  0  0
    0.4501    0.6363   -1.9467 H   0  0  0  0  0  0  0  0  0  0  0  0
   -0.6484    1.8211   -1.0848 H   0  0  0  0  0  0  0  0  0  0  0  0
    0.6168    1.7985    0.8743 H   0  0  0  0  0  0  0  0  0  0  0  0
    1.7606    2.1374   -0.4447 H   0  0  0  0  0  0  0  0  0  0  0  0
   -1.2520   -0.4895    1.8770 H   0  0  0  0  0  0  0  0  0  0  0  0
   -1.5377    1.2118    1.2235 H   0  0  0  0  0  0  0  0  0  0  0  0
   -2.8700    0.2366   -0.6853 H   0  0  0  0  0  0  0  0  0  0  0  0
   -2.4753   -1.4664   -0.0949 H   0  0  0  0  0  0  0  0  0  0  0  0
  1  2  2  0
  2  3  1  0
  3  4  1  0
  4  5  1  0
  5  6  1  0
  4  7  1  0
  7  8  1  0
  6  1  1  0
  8  4  1  0
  1  9  1  0
  2 10  1  0
  3 11  1  0
  3 12  1  0
  5 13  1  0
  5 14  1  0
  6 15  1  0
  6 16  1  0
  7 17  1  0
  7 18  1  0
  8 19  1  0
  8 20  1  0
M  END
