
     RDKit          3D

 19 21  0  0  0  0  0  0  0  0999 V2000
    1.8046   -0.8926   -0.3355 C   0  0  0  0  0  0  0  0  0  0  0  0
    0.7548   -1.6086    0.0440 C   0  0  0  0  0  0  0  0  0  0  0  0
   -0.2799   -0.7364    0.6633 C   0  0  0  0  0  0  0  0  0  0  0  0
   -1.6112   -0.9409    0.0305 C   0  0  0  0  0  0  0  0  0  0  0  0
   -1.8645    0.0694   -0.8484 O   0  0  0  0  0  0  0  0  0  0  0  0
   -0.8314    0.9642   -0.8485 C   0  0  0  0  0  0  0  0  0  0  0  0
   -0.6672    1.8254    0.3521 C   0  0  0  0  0  0  0  0  0  0  0  0
    0.1268    0.6205    0.2324 C   0  0  0  0  0  0  0  0  0  0  0  0
    1.5856    0.5591   -0.0074 C   0  0  0  0  0  0  0  0  0  0  0  0
    2.6743   -1.2872   -0.8034 H   0  0  0  0  0  0  0  0  0  0  0  0
    0.6858   -2.6810   -0.0905 H   0  0  0  0  0  0  0  0  0  0  0  0
   -0.2965   -0.8885    1.7579 H   0  0  0  0  0  0  0  0  0  0  0  0
   -2.3727   -1.0433    0.8305 H   0  0  0  0  0  0  0  0  0  0  0  0
   -1.5965   -1.9173   -0.5118 H   0  0  0  0  0  0  0  0  0  0  0  0
   -0.3787    1.2328   -1.8161 H   0  0  0  0  0  0  0  0  0  0  0  0
   -0.1448    2.7965    0.2448 H   0  0  0  0  0  0  0  0  0  0  0  0
   -1.5453    1.8886    1.0228 H   0  0  0  0  0  0  0  0  0  0  0  0
    2.1125    0.8212    0.9321 H   0  0  0  0  0  0  0  0  0  0  0  0
    1.8444    1.2181   -0.8485 H   0  0  0  0  0  0  0  0  0  0  0  0
  1  2  2  0
  2  3  1  0
  3  4  1  0
  4  5  1  0
  5  6  1  0
  6  7  1  0
  7  8  1  0
  8  9  1  0
  9  1  1  0
  8  3  1  0
  8  6  1  0
  1 10  1  0
  2 11  1  0
  3 12  1  0
  4 13  1  0
  4 14  1  0
  6 15  1  0
  7 16  1  0
  7 17  1  0
  9 18  1  0
  9 19  1  0
M  END
