
     RDKit          3D

 19 21  0  0  0  0  0  0  0  0999 V2000
    0.1158   -1.3911    0.8309 C   0  0  0  0  0  0  0  0  0  0  0  0
   -1.1585   -1.1113    0.6401 C   0  0  0  0  0  0  0  0  0  0  0  0
   -1.4302   -0.3705   -0.6087 C   0  0  0  0  0  0  0  0  0  0  0  0
   -1.5938    1.1430   -0.2984 C   0  0  0  0  0  0  0  0  0  0  0  0
   -0.1559    1.0970    0.1720 C   0  0  0  0  0  0  0  0  0  0  0  0
    1.0323    1.2110    0.6904 C   0  0  0  0  0  0  0  0  0  0  0  0
    1.9707    0.1718    0.1514 C   0  0  0  0  0  0  0  0  0  0  0  0
    0.9207   -0.8714   -0.2880 C   0  0  0  0  0  0  0  0  0  0  0  0
   -0.0188    0.0422   -0.9680 C   0  0  0  0  0  0  0  0  0  0  0  0
    0.4895   -1.9419    1.7208 H   0  0  0  0  0  0  0  0  0  0  0  0
   -1.9691   -1.3928    1.3340 H   0  0  0  0  0  0  0  0  0  0  0  0
   -2.0645   -0.7739   -1.3655 H   0  0  0  0  0  0  0  0  0  0  0  0
   -2.3519    1.2558    0.4609 H   0  0  0  0  0  0  0  0  0  0  0  0
   -1.7148    1.7855   -1.1541 H   0  0  0  0  0  0  0  0  0  0  0  0
    1.2966    1.9770    1.4281 H   0  0  0  0  0  0  0  0  0  0  0  0
    2.6738   -0.2175    0.8791 H   0  0  0  0  0  0  0  0  0  0  0  0
    2.4000    0.5700   -0.7763 H   0  0  0  0  0  0  0  0  0  0  0  0
    1.3803   -1.6485   -0.9179 H   0  0  0  0  0  0  0  0  0  0  0  0
    0.1776    0.4656   -1.9306 H   0  0  0  0  0  0  0  0  0  0  0  0
  1  2  2  0
  2  3  1  0
  3  4  1  0
  4  5  1  0
  5  6  2  0
  6  7  1  0
  7  8  1  0
  8  9  1  0
  8  1  1  0
  9  3  1  0
  9  5  1  0
  1 10  1  0
  2 11  1  0
  3 12  1  0
  4 13  1  0
  4 14  1  0
  6 15  1  0
  7 16  1  0
  7 17  1  0
  8 18  1  0
  9 19  1  0
M  END
