
     RDKit          3D

 19 21  0  0  0  0  0  0  0  0999 V2000
    1.2864    1.2828   -0.3848 C   0  0  0  0  0  0  0  0  0  0  0  0
    0.0292    1.3379   -0.0271 C   0  0  0  0  0  0  0  0  0  0  0  0
   -0.7603    0.0752    0.2138 C   0  0  0  0  0  0  0  0  0  0  0  0
   -1.6991   -0.3060   -0.8379 C   0  0  0  0  0  0  0  0  0  0  0  0
   -2.1839    0.1751    0.5387 C   0  0  0  0  0  0  0  0  0  0  0  0
    0.1198   -0.9096    0.9498 C   0  0  0  0  0  0  0  0  0  0  0  0
    0.5518   -1.9889    0.1001 O   0  0  0  0  0  0  0  0  0  0  0  0
    1.4681   -0.9975    0.4703 C   0  0  0  0  0  0  0  0  0  0  0  0
    1.9472   -0.0326   -0.5574 C   0  0  0  0  0  0  0  0  0  0  0  0
    1.8173    2.2288   -0.5474 H   0  0  0  0  0  0  0  0  0  0  0  0
   -0.4939    2.2996    0.1098 H   0  0  0  0  0  0  0  0  0  0  0  0
   -1.8653    0.3865   -1.6985 H   0  0  0  0  0  0  0  0  0  0  0  0
   -1.9248   -1.3612   -1.1023 H   0  0  0  0  0  0  0  0  0  0  0  0
   -2.6418    1.2046    0.5173 H   0  0  0  0  0  0  0  0  0  0  0  0
   -2.6878   -0.5964    1.1450 H   0  0  0  0  0  0  0  0  0  0  0  0
   -0.1078   -1.1697    1.9967 H   0  0  0  0  0  0  0  0  0  0  0  0
    2.2554   -1.3710    1.1656 H   0  0  0  0  0  0  0  0  0  0  0  0
    1.8353   -0.4286   -1.5909 H   0  0  0  0  0  0  0  0  0  0  0  0
    3.0544    0.1711   -0.4609 H   0  0  0  0  0  0  0  0  0  0  0  0
  1  2  2  0
  2  3  1  0
  3  4  1  0
  4  5  1  0
  3  6  1  0
  6  7  1  0
  7  8  1  0
  8  9  1  0
  9  1  1  0
  5  3  1  0
  8  6  1  0
  1 10  1  0
  2 11  1  0
  4 12  1  0
  4 13  1  0
  5 14  1  0
  5 15  1  0
  6 16  1  0
  8 17  1  0
  9 18  1  0
  9 19  1  0
M  END
