
     RDKit          3D

 19 21  0  0  0  0  0  0  0  0999 V2000
   -1.4679    0.8773    1.1145 C   0  0  0  0  0  0  0  0  0  0  0  0
   -0.1734    0.6079    1.1452 C   0  0  0  0  0  0  0  0  0  0  0  0
    0.1757   -0.2193    0.0020 C   0  0  0  0  0  0  0  0  0  0  0  0
   -1.0921   -0.8325   -0.4962 C   0  0  0  0  0  0  0  0  0  0  0  0
   -2.1032    0.2410   -0.0718 C   0  0  0  0  0  0  0  0  0  0  0  0
    1.3995   -1.0351    0.0175 C   0  0  0  0  0  0  0  0  0  0  0  0
    2.1867    0.2438   -0.0464 C   0  0  0  0  0  0  0  0  0  0  0  0
    1.0938    0.3388   -1.0390 C   0  0  0  0  0  0  0  0  0  0  0  0
    1.3766   -0.9779   -1.3763 O   0  0  0  0  0  0  0  0  0  0  0  0
   -2.0191    1.4877    1.8576 H   0  0  0  0  0  0  0  0  0  0  0  0
    0.4682    0.9982    1.9615 H   0  0  0  0  0  0  0  0  0  0  0  0
   -1.3310   -1.8139   -0.0715 H   0  0  0  0  0  0  0  0  0  0  0  0
   -1.0651   -0.8565   -1.6144 H   0  0  0  0  0  0  0  0  0  0  0  0
   -3.0689   -0.2472    0.2308 H   0  0  0  0  0  0  0  0  0  0  0  0
   -2.2771    0.9312   -0.9012 H   0  0  0  0  0  0  0  0  0  0  0  0
    1.6287   -1.8490    0.5692 H   0  0  0  0  0  0  0  0  0  0  0  0
    3.2199    0.1381   -0.4402 H   0  0  0  0  0  0  0  0  0  0  0  0
    2.1571    0.8792    0.8414 H   0  0  0  0  0  0  0  0  0  0  0  0
    0.8918    1.0881   -1.6828 H   0  0  0  0  0  0  0  0  0  0  0  0
  1  2  2  0
  2  3  1  0
  3  4  1  0
  4  5  1  0
  3  6  1  0
  6  7  1  0
  7  8  1  0
  8  9  1  0
  5  1  1  0
  9  6  1  0
  8  3  1  0
  1 10  1  0
  2 11  1  0
  4 12  1  0
  4 13  1  0
  5 14  1  0
  5 15  1  0
  6 16  1  0
  7 17  1  0
  7 18  1  0
  8 19  1  0
M  END
