
     RDKit          3D

 19 20  0  0  0  0  0  0  0  0999 V2000
   -0.1405    1.7433    0.1058 C   0  0  0  0  0  0  0  0  0  0  0  0
    1.1457    1.4724    0.2305 C   0  0  0  0  0  0  0  0  0  0  0  0
    1.8169    0.1887   -0.1864 C   0  0  0  0  0  0  0  0  0  0  0  0
    0.9476   -0.9353    0.3639 C   0  0  0  0  0  0  0  0  0  0  0  0
    0.3204   -1.6502   -0.6292 O   0  0  0  0  0  0  0  0  0  0  0  0
   -1.0331   -1.6687   -0.3731 C   0  0  0  0  0  0  0  0  0  0  0  0
   -1.1972   -0.4000    0.4698 C   0  0  0  0  0  0  0  0  0  0  0  0
   -1.2346    0.8359   -0.3878 C   0  0  0  0  0  0  0  0  0  0  0  0
   -0.0195   -0.4681    1.2394 O   0  0  0  0  0  0  0  0  0  0  0  0
   -0.4596    2.7419    0.3921 H   0  0  0  0  0  0  0  0  0  0  0  0
    1.7846    2.2356    0.6713 H   0  0  0  0  0  0  0  0  0  0  0  0
    1.6968    0.1528   -1.3070 H   0  0  0  0  0  0  0  0  0  0  0  0
    2.8512    0.1294    0.1314 H   0  0  0  0  0  0  0  0  0  0  0  0
    1.6419   -1.6062    0.9186 H   0  0  0  0  0  0  0  0  0  0  0  0
   -1.2555   -2.5138    0.3297 H   0  0  0  0  0  0  0  0  0  0  0  0
   -1.6742   -1.6685   -1.2536 H   0  0  0  0  0  0  0  0  0  0  0  0
   -2.1034   -0.4484    1.1009 H   0  0  0  0  0  0  0  0  0  0  0  0
   -2.1940    1.3435   -0.4017 H   0  0  0  0  0  0  0  0  0  0  0  0
   -0.8933    0.5156   -1.4147 H   0  0  0  0  0  0  0  0  0  0  0  0
  1  2  2  0
  2  3  1  0
  3  4  1  0
  4  5  1  0
  5  6  1  0
  6  7  1  0
  7  8  1  0
  7  9  1  0
  8  1  1  0
  9  4  1  0
  1 10  1  0
  2 11  1  0
  3 12  1  0
  3 13  1  0
  4 14  1  0
  6 15  1  0
  6 16  1  0
  7 17  1  0
  8 18  1  0
  8 19  1  0
M  END
