
     RDKit          3D

 21 22  0  0  0  0  0  0  0  0999 V2000
    1.7216    0.5321   -0.8004 C   0  0  0  0  0  0  0  0  0  0  0  0
    1.0012    1.6266   -0.6190 C   0  0  0  0  0  0  0  0  0  0  0  0
   -0.2181    1.7429    0.1741 C   0  0  0  0  0  0  0  0  0  0  0  0
   -1.1404    0.6053   -0.0306 C   0  0  0  0  0  0  0  0  0  0  0  0
   -2.2200    0.5105    0.8389 O   0  0  0  0  0  0  0  0  0  0  0  0
   -2.0108   -0.8836    0.8097 C   0  0  0  0  0  0  0  0  0  0  0  0
   -0.5550   -0.5893    0.7363 C   0  0  0  0  0  0  0  0  0  0  0  0
    0.2907   -1.4160   -0.1435 C   0  0  0  0  0  0  0  0  0  0  0  0
    1.6417   -0.8411   -0.3620 C   0  0  0  0  0  0  0  0  0  0  0  0
    2.5966    0.7345   -1.4473 H   0  0  0  0  0  0  0  0  0  0  0  0
    1.3685    2.5392   -1.1232 H   0  0  0  0  0  0  0  0  0  0  0  0
   -0.7440    2.6891   -0.1496 H   0  0  0  0  0  0  0  0  0  0  0  0
   -0.0358    1.8715    1.2539 H   0  0  0  0  0  0  0  0  0  0  0  0
   -1.3889    0.3221   -1.0629 H   0  0  0  0  0  0  0  0  0  0  0  0
   -2.3703   -1.4105    1.7076 H   0  0  0  0  0  0  0  0  0  0  0  0
   -2.4275   -1.2572   -0.1594 H   0  0  0  0  0  0  0  0  0  0  0  0
   -0.0977   -0.3132    1.6872 H   0  0  0  0  0  0  0  0  0  0  0  0
    0.4137   -2.4236    0.3087 H   0  0  0  0  0  0  0  0  0  0  0  0
   -0.2256   -1.6017   -1.1267 H   0  0  0  0  0  0  0  0  0  0  0  0
    2.1685   -1.4952   -1.0879 H   0  0  0  0  0  0  0  0  0  0  0  0
    2.2315   -0.9421    0.5960 H   0  0  0  0  0  0  0  0  0  0  0  0
  1  2  2  0
  2  3  1  0
  3  4  1  0
  4  5  1  0
  5  6  1  0
  6  7  1  0
  7  8  1  0
  8  9  1  0
  9  1  1  0
  7  4  1  0
  1 10  1  0
  2 11  1  0
  3 12  1  0
  3 13  1  0
  4 14  1  0
  6 15  1  0
  6 16  1  0
  7 17  1  0
  8 18  1  0
  8 19  1  0
  9 20  1  0
  9 21  1  0
M  END
