
     RDKit          3D

 19 21  0  0  0  0  0  0  0  0999 V2000
    1.7851    0.2593   -0.1857 C   0  0  0  0  0  0  0  0  0  0  0  0
    1.4422   -1.0273   -0.2458 C   0  0  0  0  0  0  0  0  0  0  0  0
    0.0279   -1.4469   -0.1632 C   0  0  0  0  0  0  0  0  0  0  0  0
   -0.9709   -0.7601    0.6503 C   0  0  0  0  0  0  0  0  0  0  0  0
   -0.7122    0.3904    1.5358 C   0  0  0  0  0  0  0  0  0  0  0  0
    0.1732    1.3207    1.1346 O   0  0  0  0  0  0  0  0  0  0  0  0
    0.6654    1.2395   -0.1291 C   0  0  0  0  0  0  0  0  0  0  0  0
   -0.4162    0.8415   -1.1037 C   0  0  0  0  0  0  0  0  0  0  0  0
   -0.9303   -0.5182   -0.7993 C   0  0  0  0  0  0  0  0  0  0  0  0
    2.8034    0.6168   -0.1760 H   0  0  0  0  0  0  0  0  0  0  0  0
    2.2519   -1.7320   -0.3569 H   0  0  0  0  0  0  0  0  0  0  0  0
   -0.1340   -2.5267   -0.4190 H   0  0  0  0  0  0  0  0  0  0  0  0
   -1.8396   -1.3986    0.9906 H   0  0  0  0  0  0  0  0  0  0  0  0
   -1.6990    0.9006    1.7391 H   0  0  0  0  0  0  0  0  0  0  0  0
   -0.3849   -0.0039    2.5419 H   0  0  0  0  0  0  0  0  0  0  0  0
    1.0538    2.2243   -0.4840 H   0  0  0  0  0  0  0  0  0  0  0  0
   -1.2575    1.5668   -0.9468 H   0  0  0  0  0  0  0  0  0  0  0  0
   -0.1070    0.9220   -2.1460 H   0  0  0  0  0  0  0  0  0  0  0  0
   -1.7515   -0.8683   -1.4368 H   0  0  0  0  0  0  0  0  0  0  0  0
  1  2  2  0
  2  3  1  0
  3  4  1  0
  4  5  1  0
  5  6  1  0
  6  7  1  0
  7  8  1  0
  8  9  1  0
  7  1  1  0
  9  3  1  0
  9  4  1  0
  1 10  1  0
  2 11  1  0
  3 12  1  0
  4 13  1  0
  5 14  1  0
  5 15  1  0
  7 16  1  0
  8 17  1  0
  8 18  1  0
  9 19  1  0
M  END
