
     RDKit          3D

 17 19  0  0  0  0  0  0  0  0999 V2000
    0.8348    1.2415   -0.5623 C   0  0  0  0  0  0  0  0  0  0  0  0
    1.6600    0.2413   -0.3219 C   0  0  0  0  0  0  0  0  0  0  0  0
    1.1363   -0.9896    0.3425 C   0  0  0  0  0  0  0  0  0  0  0  0
   -0.2269   -1.3746   -0.0978 C   0  0  0  0  0  0  0  0  0  0  0  0
   -0.8337   -0.6903   -1.1088 O   0  0  0  0  0  0  0  0  0  0  0  0
   -1.5095    0.4109   -0.6584 C   0  0  0  0  0  0  0  0  0  0  0  0
   -0.4826    1.2618    0.1018 C   0  0  0  0  0  0  0  0  0  0  0  0
   -0.3031    0.5878    1.3191 O   0  0  0  0  0  0  0  0  0  0  0  0
   -0.0715   -0.7376    1.1861 C   0  0  0  0  0  0  0  0  0  0  0  0
    1.1182    2.0244   -1.2285 H   0  0  0  0  0  0  0  0  0  0  0  0
    2.7040    0.2594   -0.5799 H   0  0  0  0  0  0  0  0  0  0  0  0
    1.8574   -1.7089    0.7255 H   0  0  0  0  0  0  0  0  0  0  0  0
   -0.4224   -2.4751   -0.1064 H   0  0  0  0  0  0  0  0  0  0  0  0
   -2.0131    0.9958   -1.4197 H   0  0  0  0  0  0  0  0  0  0  0  0
   -2.2812    0.0520    0.0782 H   0  0  0  0  0  0  0  0  0  0  0  0
   -0.9266    2.2427    0.2238 H   0  0  0  0  0  0  0  0  0  0  0  0
   -0.2402   -1.3415    2.1068 H   0  0  0  0  0  0  0  0  0  0  0  0
  1  2  2  0
  2  3  1  0
  3  4  1  0
  4  5  1  0
  5  6  1  0
  6  7  1  0
  7  8  1  0
  8  9  1  0
  7  1  1  0
  9  3  1  0
  9  4  1  0
  1 10  1  0
  2 11  1  0
  3 12  1  0
  4 13  1  0
  6 14  1  0
  6 15  1  0
  7 16  1  0
  9 17  1  0
M  END
