
     RDKit          3D

 19 21  0  0  0  0  0  0  0  0999 V2000
   -2.0536   -0.1966   -0.9122 C   0  0  0  0  0  0  0  0  0  0  0  0
   -1.8747    0.8014   -0.0851 C   0  0  0  0  0  0  0  0  0  0  0  0
   -0.6350    0.7487    0.6881 C   0  0  0  0  0  0  0  0  0  0  0  0
   -0.2071   -0.3955    1.4874 C   0  0  0  0  0  0  0  0  0  0  0  0
    0.1093   -0.4106    0.0496 C   0  0  0  0  0  0  0  0  0  0  0  0
    1.4115   -0.0834   -0.5354 C   0  0  0  0  0  0  0  0  0  0  0  0
    2.5542    0.4627    0.1241 C   0  0  0  0  0  0  0  0  0  0  0  0
    1.6775    1.3755   -0.5257 O   0  0  0  0  0  0  0  0  0  0  0  0
   -0.9035   -1.1211   -0.8177 C   0  0  0  0  0  0  0  0  0  0  0  0
   -2.9400   -0.2936   -1.5614 H   0  0  0  0  0  0  0  0  0  0  0  0
   -2.6080    1.6258    0.0219 H   0  0  0  0  0  0  0  0  0  0  0  0
   -0.1043    1.7083    0.8366 H   0  0  0  0  0  0  0  0  0  0  0  0
    0.6034   -0.2244    2.2254 H   0  0  0  0  0  0  0  0  0  0  0  0
   -0.9640   -1.1132    1.8613 H   0  0  0  0  0  0  0  0  0  0  0  0
    1.5437   -0.3989   -1.6138 H   0  0  0  0  0  0  0  0  0  0  0  0
    2.6374    0.5388    1.2283 H   0  0  0  0  0  0  0  0  0  0  0  0
    3.5357    0.4176   -0.3868 H   0  0  0  0  0  0  0  0  0  0  0  0
   -1.2796   -2.0389   -0.2850 H   0  0  0  0  0  0  0  0  0  0  0  0
   -0.5028   -1.4028   -1.7997 H   0  0  0  0  0  0  0  0  0  0  0  0
  1  2  2  0
  2  3  1  0
  3  4  1  0
  4  5  1  0
  5  6  1  0
  6  7  1  0
  7  8  1  0
  5  9  1  0
  9  1  1  0
  5  3  1  0
  8  6  1  0
  1 10  1  0
  2 11  1  0
  3 12  1  0
  4 13  1  0
  4 14  1  0
  6 15  1  0
  7 16  1  0
  7 17  1  0
  9 18  1  0
  9 19  1  0
M  END
