
     RDKit          3D

 21 22  0  0  0  0  0  0  0  0999 V2000
    1.4457   -1.0511   -0.7599 C   0  0  0  0  0  0  0  0  0  0  0  0
    0.2483   -1.5327   -0.4680 C   0  0  0  0  0  0  0  0  0  0  0  0
   -0.6558   -0.9193    0.5407 C   0  0  0  0  0  0  0  0  0  0  0  0
   -1.7919   -0.2160   -0.1642 C   0  0  0  0  0  0  0  0  0  0  0  0
   -1.3846    1.1664   -0.5692 C   0  0  0  0  0  0  0  0  0  0  0  0
   -0.0402    1.2548   -0.8335 O   0  0  0  0  0  0  0  0  0  0  0  0
    0.7724    1.0320    0.2500 C   0  0  0  0  0  0  0  0  0  0  0  0
    1.9837    0.2388   -0.2612 C   0  0  0  0  0  0  0  0  0  0  0  0
    0.1205    0.1320    1.2993 C   0  0  0  0  0  0  0  0  0  0  0  0
    2.0834   -1.6379   -1.4102 H   0  0  0  0  0  0  0  0  0  0  0  0
   -0.1210   -2.4258   -0.9787 H   0  0  0  0  0  0  0  0  0  0  0  0
   -1.0170   -1.7370    1.2049 H   0  0  0  0  0  0  0  0  0  0  0  0
   -2.0239   -0.7984   -1.0789 H   0  0  0  0  0  0  0  0  0  0  0  0
   -2.7078   -0.1759    0.4893 H   0  0  0  0  0  0  0  0  0  0  0  0
   -1.6395    1.9426    0.1810 H   0  0  0  0  0  0  0  0  0  0  0  0
   -1.9228    1.4215   -1.5182 H   0  0  0  0  0  0  0  0  0  0  0  0
    1.1396    1.9703    0.7098 H   0  0  0  0  0  0  0  0  0  0  0  0
    2.4159    0.8679   -1.0731 H   0  0  0  0  0  0  0  0  0  0  0  0
    2.6760    0.1099    0.5949 H   0  0  0  0  0  0  0  0  0  0  0  0
    0.9170   -0.3790    1.8808 H   0  0  0  0  0  0  0  0  0  0  0  0
   -0.4979    0.7368    1.9646 H   0  0  0  0  0  0  0  0  0  0  0  0
  1  2  2  0
  2  3  1  0
  3  4  1  0
  4  5  1  0
  5  6  1  0
  6  7  1  0
  7  8  1  0
  7  9  1  0
  8  1  1  0
  9  3  1  0
  1 10  1  0
  2 11  1  0
  3 12  1  0
  4 13  1  0
  4 14  1  0
  5 15  1  0
  5 16  1  0
  7 17  1  0
  8 18  1  0
  8 19  1  0
  9 20  1  0
  9 21  1  0
M  END
