
     RDKit          3D

 15 15  0  0  0  0  0  0  0  0999 V2000
    1.4764    0.5456    0.0110 C   0  0  0  0  0  0  0  0  0  0  0  0
    1.3482   -0.7197    0.3445 C   0  0  0  0  0  0  0  0  0  0  0  0
    0.1158   -1.5022    0.5059 C   0  0  0  0  0  0  0  0  0  0  0  0
   -1.0242   -0.8402    0.7549 O   0  0  0  0  0  0  0  0  0  0  0  0
   -1.5537    0.0085   -0.1469 C   0  0  0  0  0  0  0  0  0  0  0  0
   -0.8773    1.2866   -0.3577 C   0  0  0  0  0  0  0  0  0  0  0  0
    0.4222    1.5164   -0.2898 C   0  0  0  0  0  0  0  0  0  0  0  0
    2.5052    0.9479   -0.0566 H   0  0  0  0  0  0  0  0  0  0  0  0
    2.2808   -1.2217    0.5154 H   0  0  0  0  0  0  0  0  0  0  0  0
    0.2439   -2.2962    1.2867 H   0  0  0  0  0  0  0  0  0  0  0  0
   -0.0139   -2.0885   -0.4523 H   0  0  0  0  0  0  0  0  0  0  0  0
   -1.5734   -0.5270   -1.1422 H   0  0  0  0  0  0  0  0  0  0  0  0
   -2.6348    0.1663    0.1058 H   0  0  0  0  0  0  0  0  0  0  0  0
   -1.4808    2.1774   -0.6007 H   0  0  0  0  0  0  0  0  0  0  0  0
    0.7656    2.5468   -0.4779 H   0  0  0  0  0  0  0  0  0  0  0  0
  1  2  2  0
  2  3  1  0
  3  4  1  0
  4  5  1  0
  5  6  1  0
  6  7  2  0
  7  1  1  0
  1  8  1  0
  2  9  1  0
  3 10  1  0
  3 11  1  0
  5 12  1  0
  5 13  1  0
  6 14  1  0
  7 15  1  0
M  END
