
     RDKit          3D

 21 22  0  0  0  0  0  0  0  0999 V2000
    1.9508    1.0731    0.3551 C   0  0  0  0  0  0  0  0  0  0  0  0
    0.7694    1.6306    0.4484 C   0  0  0  0  0  0  0  0  0  0  0  0
   -0.6100    1.1810    0.3773 C   0  0  0  0  0  0  0  0  0  0  0  0
   -0.8786   -0.1745   -0.0935 C   0  0  0  0  0  0  0  0  0  0  0  0
    0.0522   -0.7903   -1.0197 C   0  0  0  0  0  0  0  0  0  0  0  0
    1.3727   -0.8846   -0.9535 C   0  0  0  0  0  0  0  0  0  0  0  0
    2.2381   -0.3651    0.1191 C   0  0  0  0  0  0  0  0  0  0  0  0
   -1.6926   -1.0910    0.7919 C   0  0  0  0  0  0  0  0  0  0  0  0
   -2.3782   -0.4774   -0.3815 C   0  0  0  0  0  0  0  0  0  0  0  0
    2.7848    1.7491    0.4643 H   0  0  0  0  0  0  0  0  0  0  0  0
    0.8345    2.7224    0.6270 H   0  0  0  0  0  0  0  0  0  0  0  0
   -1.0795    1.3284    1.3943 H   0  0  0  0  0  0  0  0  0  0  0  0
   -1.1735    1.9115   -0.2760 H   0  0  0  0  0  0  0  0  0  0  0  0
   -0.3529   -1.2533   -1.9111 H   0  0  0  0  0  0  0  0  0  0  0  0
    1.8748   -1.3998   -1.7762 H   0  0  0  0  0  0  0  0  0  0  0  0
    3.2906   -0.4383   -0.2239 H   0  0  0  0  0  0  0  0  0  0  0  0
    2.1609   -0.9820    1.0298 H   0  0  0  0  0  0  0  0  0  0  0  0
   -2.0346   -0.7379    1.7813 H   0  0  0  0  0  0  0  0  0  0  0  0
   -1.4571   -2.1866    0.7481 H   0  0  0  0  0  0  0  0  0  0  0  0
   -3.0834    0.3538   -0.2826 H   0  0  0  0  0  0  0  0  0  0  0  0
   -2.5881   -1.1690   -1.2186 H   0  0  0  0  0  0  0  0  0  0  0  0
  1  2  2  0
  2  3  1  0
  3  4  1  0
  4  5  1  0
  5  6  2  0
  6  7  1  0
  4  8  1  0
  8  9  1  0
  7  1  1  0
  9  4  1  0
  1 10  1  0
  2 11  1  0
  3 12  1  0
  3 13  1  0
  5 14  1  0
  6 15  1  0
  7 16  1  0
  7 17  1  0
  8 18  1  0
  8 19  1  0
  9 20  1  0
  9 21  1  0
M  END
