
     RDKit          3D

 19 21  0  0  0  0  0  0  0  0999 V2000
   -0.1577    1.3671   -0.2988 C   0  0  0  0  0  0  0  0  0  0  0  0
    0.9947    0.8310   -0.0560 C   0  0  0  0  0  0  0  0  0  0  0  0
    2.4197    0.7714    0.3085 C   0  0  0  0  0  0  0  0  0  0  0  0
    2.1706   -0.5083    0.8536 O   0  0  0  0  0  0  0  0  0  0  0  0
    1.1876   -0.6386   -0.1444 C   0  0  0  0  0  0  0  0  0  0  0  0
   -0.0630   -1.2739    0.4203 C   0  0  0  0  0  0  0  0  0  0  0  0
   -1.2106   -0.8256   -0.4025 C   0  0  0  0  0  0  0  0  0  0  0  0
   -2.2450   -0.0084    0.3152 C   0  0  0  0  0  0  0  0  0  0  0  0
   -1.3362    0.6106   -0.6870 C   0  0  0  0  0  0  0  0  0  0  0  0
   -0.2500    2.4610   -0.2056 H   0  0  0  0  0  0  0  0  0  0  0  0
    2.7613    1.4954    1.0754 H   0  0  0  0  0  0  0  0  0  0  0  0
    3.0932    0.6381   -0.5611 H   0  0  0  0  0  0  0  0  0  0  0  0
    1.5422   -1.0318   -1.0958 H   0  0  0  0  0  0  0  0  0  0  0  0
   -0.1461   -0.9245    1.4857 H   0  0  0  0  0  0  0  0  0  0  0  0
   -0.0160   -2.3600    0.4465 H   0  0  0  0  0  0  0  0  0  0  0  0
   -1.5387   -1.5140   -1.2175 H   0  0  0  0  0  0  0  0  0  0  0  0
   -2.1094    0.1668    1.4028 H   0  0  0  0  0  0  0  0  0  0  0  0
   -3.2852   -0.1670    0.0248 H   0  0  0  0  0  0  0  0  0  0  0  0
   -1.8114    0.9108   -1.6639 H   0  0  0  0  0  0  0  0  0  0  0  0
  1  2  2  0
  2  3  1  0
  3  4  1  0
  4  5  1  0
  5  6  1  0
  6  7  1  0
  7  8  1  0
  8  9  1  0
  9  1  1  0
  5  2  1  0
  9  7  1  0
  1 10  1  0
  3 11  1  0
  3 12  1  0
  5 13  1  0
  6 14  1  0
  6 15  1  0
  7 16  1  0
  8 17  1  0
  8 18  1  0
  9 19  1  0
M  END
