
     RDKit          3D

 21 23  0  0  0  0  0  0  0  0999 V2000
   -1.7552    1.4385   -0.6028 C   0  0  0  0  0  0  0  0  0  0  0  0
   -0.6316    1.0145   -1.1644 C   0  0  0  0  0  0  0  0  0  0  0  0
   -0.0728   -0.1637   -0.4850 C   0  0  0  0  0  0  0  0  0  0  0  0
    1.3946   -0.4173   -0.4698 C   0  0  0  0  0  0  0  0  0  0  0  0
    2.3551    0.5514    0.1271 C   0  0  0  0  0  0  0  0  0  0  0  0
    2.0220   -0.7244    0.8735 C   0  0  0  0  0  0  0  0  0  0  0  0
   -0.9345   -1.4353   -0.4119 C   0  0  0  0  0  0  0  0  0  0  0  0
   -0.9489   -0.3486    0.6744 C   0  0  0  0  0  0  0  0  0  0  0  0
   -2.1042    0.5953    0.5378 C   0  0  0  0  0  0  0  0  0  0  0  0
   -2.3732    2.2991   -0.9156 H   0  0  0  0  0  0  0  0  0  0  0  0
   -0.1868    1.4936   -2.0278 H   0  0  0  0  0  0  0  0  0  0  0  0
    1.8085   -0.9853   -1.3435 H   0  0  0  0  0  0  0  0  0  0  0  0
    1.9657    1.5118    0.5045 H   0  0  0  0  0  0  0  0  0  0  0  0
    3.3896    0.5936   -0.2443 H   0  0  0  0  0  0  0  0  0  0  0  0
    1.4559   -0.5970    1.7977 H   0  0  0  0  0  0  0  0  0  0  0  0
    2.7705   -1.5492    0.8843 H   0  0  0  0  0  0  0  0  0  0  0  0
   -0.4347   -2.3516   -0.0999 H   0  0  0  0  0  0  0  0  0  0  0  0
   -1.7840   -1.5164   -1.0929 H   0  0  0  0  0  0  0  0  0  0  0  0
   -0.5803   -0.6262    1.6845 H   0  0  0  0  0  0  0  0  0  0  0  0
   -3.0639    0.0633    0.2978 H   0  0  0  0  0  0  0  0  0  0  0  0
   -2.2916    1.1540    1.4764 H   0  0  0  0  0  0  0  0  0  0  0  0
  1  2  2  0
  2  3  1  0
  3  4  1  0
  4  5  1  0
  5  6  1  0
  3  7  1  0
  7  8  1  0
  8  9  1  0
  9  1  1  0
  8  3  1  0
  6  4  1  0
  1 10  1  0
  2 11  1  0
  4 12  1  0
  5 13  1  0
  5 14  1  0
  6 15  1  0
  6 16  1  0
  7 17  1  0
  7 18  1  0
  8 19  1  0
  9 20  1  0
  9 21  1  0
M  END
