
     RDKit          3D

 17 17  0  0  0  0  0  0  0  0999 V2000
   -0.8308    1.1884   -0.3290 C   0  0  0  0  0  0  0  0  0  0  0  0
    0.4641    1.4196   -0.2342 C   0  0  0  0  0  0  0  0  0  0  0  0
    1.5032    0.5809    0.4515 C   0  0  0  0  0  0  0  0  0  0  0  0
    1.3340   -0.8431   -0.0840 C   0  0  0  0  0  0  0  0  0  0  0  0
    0.2780   -1.4055    0.6158 O   0  0  0  0  0  0  0  0  0  0  0  0
   -0.9306   -1.2762   -0.0268 C   0  0  0  0  0  0  0  0  0  0  0  0
   -1.5957    0.0525    0.2097 C   0  0  0  0  0  0  0  0  0  0  0  0
   -1.3801    1.9367   -0.8730 H   0  0  0  0  0  0  0  0  0  0  0  0
    0.8624    2.3281   -0.7034 H   0  0  0  0  0  0  0  0  0  0  0  0
    1.3025    0.6489    1.5257 H   0  0  0  0  0  0  0  0  0  0  0  0
    2.5154    0.9143    0.2293 H   0  0  0  0  0  0  0  0  0  0  0  0
    1.1103   -0.7465   -1.1836 H   0  0  0  0  0  0  0  0  0  0  0  0
    2.2786   -1.3966    0.0977 H   0  0  0  0  0  0  0  0  0  0  0  0
   -0.8830   -1.4875   -1.1161 H   0  0  0  0  0  0  0  0  0  0  0  0
   -1.6152   -2.0534    0.4089 H   0  0  0  0  0  0  0  0  0  0  0  0
   -1.8103    0.1491    1.3050 H   0  0  0  0  0  0  0  0  0  0  0  0
   -2.6028   -0.0096   -0.2935 H   0  0  0  0  0  0  0  0  0  0  0  0
  1  2  2  0
  2  3  1  0
  3  4  1  0
  4  5  1  0
  5  6  1  0
  6  7  1  0
  7  1  1  0
  1  8  1  0
  2  9  1  0
  3 10  1  0
  3 11  1  0
  4 12  1  0
  4 13  1  0
  6 14  1  0
  6 15  1  0
  7 16  1  0
  7 17  1  0
M  END
