
     RDKit          3D

 19 21  0  0  0  0  0  0  0  0999 V2000
   -2.0592    0.5475    0.7029 C   0  0  0  0  0  0  0  0  0  0  0  0
   -0.8918    1.2120    0.8121 C   0  0  0  0  0  0  0  0  0  0  0  0
    0.0643    0.2660    0.1569 C   0  0  0  0  0  0  0  0  0  0  0  0
    1.4559    0.5841    0.0968 C   0  0  0  0  0  0  0  0  0  0  0  0
    2.5136   -0.1988   -0.4890 C   0  0  0  0  0  0  0  0  0  0  0  0
    1.9161    0.7673   -1.3278 O   0  0  0  0  0  0  0  0  0  0  0  0
   -0.7170   -0.1409   -1.0686 C   0  0  0  0  0  0  0  0  0  0  0  0
   -1.6911   -0.6743   -0.0059 C   0  0  0  0  0  0  0  0  0  0  0  0
   -0.4032   -1.0699    0.7391 C   0  0  0  0  0  0  0  0  0  0  0  0
   -3.0061    0.9052    1.0800 H   0  0  0  0  0  0  0  0  0  0  0  0
   -0.6967    2.1782    1.2575 H   0  0  0  0  0  0  0  0  0  0  0  0
    1.7756    1.5439    0.6049 H   0  0  0  0  0  0  0  0  0  0  0  0
    2.3320   -1.2310   -0.8425 H   0  0  0  0  0  0  0  0  0  0  0  0
    3.5784    0.0560   -0.2428 H   0  0  0  0  0  0  0  0  0  0  0  0
   -0.2541   -0.9900   -1.6272 H   0  0  0  0  0  0  0  0  0  0  0  0
   -1.1357    0.6605   -1.6764 H   0  0  0  0  0  0  0  0  0  0  0  0
   -2.3681   -1.4241   -0.2713 H   0  0  0  0  0  0  0  0  0  0  0  0
    0.0924   -1.9081    0.2463 H   0  0  0  0  0  0  0  0  0  0  0  0
   -0.5057   -1.0835    1.8258 H   0  0  0  0  0  0  0  0  0  0  0  0
  1  2  2  0
  2  3  1  0
  3  4  1  0
  4  5  1  0
  5  6  1  0
  3  7  1  0
  7  8  1  0
  8  9  1  0
  8  1  1  0
  9  3  1  0
  6  4  1  0
  1 10  1  0
  2 11  1  0
  4 12  1  0
  5 13  1  0
  5 14  1  0
  7 15  1  0
  7 16  1  0
  8 17  1  0
  9 18  1  0
  9 19  1  0
M  END
