
     RDKit          3D

 21 23  0  0  0  0  0  0  0  0999 V2000
   -2.0869    0.4456    0.2120 C   0  0  0  0  0  0  0  0  0  0  0  0
   -1.3129    1.5180    0.2901 C   0  0  0  0  0  0  0  0  0  0  0  0
    0.0541    1.1620   -0.0700 C   0  0  0  0  0  0  0  0  0  0  0  0
    0.7115    0.2311    0.9492 C   0  0  0  0  0  0  0  0  0  0  0  0
    1.8596   -0.2802    0.1026 C   0  0  0  0  0  0  0  0  0  0  0  0
    1.1127   -0.5978   -1.1972 C   0  0  0  0  0  0  0  0  0  0  0  0
   -0.2297    0.0354   -1.0919 C   0  0  0  0  0  0  0  0  0  0  0  0
   -1.1718   -0.7009   -0.1522 C   0  0  0  0  0  0  0  0  0  0  0  0
   -0.2862   -0.9109    1.0502 C   0  0  0  0  0  0  0  0  0  0  0  0
   -3.1478    0.3076    0.3569 H   0  0  0  0  0  0  0  0  0  0  0  0
   -1.6612    2.4920    0.5773 H   0  0  0  0  0  0  0  0  0  0  0  0
    0.6957    1.9269   -0.4553 H   0  0  0  0  0  0  0  0  0  0  0  0
    0.9804    0.6933    1.8721 H   0  0  0  0  0  0  0  0  0  0  0  0
    2.5066    0.5868   -0.1324 H   0  0  0  0  0  0  0  0  0  0  0  0
    2.3697   -1.1393    0.5172 H   0  0  0  0  0  0  0  0  0  0  0  0
    1.0123   -1.7181   -1.2696 H   0  0  0  0  0  0  0  0  0  0  0  0
    1.6425   -0.2103   -2.0680 H   0  0  0  0  0  0  0  0  0  0  0  0
   -0.6808    0.3953   -1.9940 H   0  0  0  0  0  0  0  0  0  0  0  0
   -1.6592   -1.5549   -0.5525 H   0  0  0  0  0  0  0  0  0  0  0  0
   -0.8902   -0.7902    1.9690 H   0  0  0  0  0  0  0  0  0  0  0  0
    0.1818   -1.8915    1.0865 H   0  0  0  0  0  0  0  0  0  0  0  0
  1  2  2  0
  2  3  1  0
  3  4  1  0
  4  5  1  0
  5  6  1  0
  6  7  1  0
  7  8  1  0
  8  9  1  0
  8  1  1  0
  7  3  1  0
  9  4  1  0
  1 10  1  0
  2 11  1  0
  3 12  1  0
  4 13  1  0
  5 14  1  0
  5 15  1  0
  6 16  1  0
  6 17  1  0
  7 18  1  0
  8 19  1  0
  9 20  1  0
  9 21  1  0
M  END
