
     RDKit          3D

 23 24  0  0  0  0  0  0  0  0999 V2000
   -0.1615   -0.8275    0.7487 C   0  0  0  0  0  0  0  0  0  0  0  0
    0.3247    0.2889    0.2377 C   0  0  0  0  0  0  0  0  0  0  0  0
    1.7966    0.4157    0.0590 C   0  0  0  0  0  0  0  0  0  0  0  0
    2.3983   -0.3712   -1.0455 C   0  0  0  0  0  0  0  0  0  0  0  0
    2.7155   -0.6732    0.4373 C   0  0  0  0  0  0  0  0  0  0  0  0
   -0.5324    1.4380   -0.1721 C   0  0  0  0  0  0  0  0  0  0  0  0
   -1.9824    1.1191   -0.2728 C   0  0  0  0  0  0  0  0  0  0  0  0
   -2.2734   -0.3524   -0.3001 C   0  0  0  0  0  0  0  0  0  0  0  0
   -1.6312   -0.9593    0.9292 C   0  0  0  0  0  0  0  0  0  0  0  0
    0.4411   -1.6717    1.0530 H   0  0  0  0  0  0  0  0  0  0  0  0
    2.2390    1.4505    0.1940 H   0  0  0  0  0  0  0  0  0  0  0  0
    3.2529   -0.0149   -1.6298 H   0  0  0  0  0  0  0  0  0  0  0  0
    1.7421   -1.0840   -1.5831 H   0  0  0  0  0  0  0  0  0  0  0  0
    3.7591   -0.4204    0.7789 H   0  0  0  0  0  0  0  0  0  0  0  0
    2.4293   -1.6798    0.7277 H   0  0  0  0  0  0  0  0  0  0  0  0
   -0.1813    1.7127   -1.2106 H   0  0  0  0  0  0  0  0  0  0  0  0
   -0.4029    2.3106    0.5034 H   0  0  0  0  0  0  0  0  0  0  0  0
   -2.5382    1.5386    0.6127 H   0  0  0  0  0  0  0  0  0  0  0  0
   -2.4515    1.5595   -1.2016 H   0  0  0  0  0  0  0  0  0  0  0  0
   -1.7471   -0.7733   -1.1944 H   0  0  0  0  0  0  0  0  0  0  0  0
   -3.3388   -0.5438   -0.3744 H   0  0  0  0  0  0  0  0  0  0  0  0
   -1.9603   -2.0174    0.9779 H   0  0  0  0  0  0  0  0  0  0  0  0
   -1.8976   -0.4449    1.8598 H   0  0  0  0  0  0  0  0  0  0  0  0
  1  2  2  0
  2  3  1  0
  3  4  1  0
  4  5  1  0
  2  6  1  0
  6  7  1  0
  7  8  1  0
  8  9  1  0
  9  1  1  0
  5  3  1  0
  1 10  1  0
  3 11  1  0
  4 12  1  0
  4 13  1  0
  5 14  1  0
  5 15  1  0
  6 16  1  0
  6 17  1  0
  7 18  1  0
  7 19  1  0
  8 20  1  0
  8 21  1  0
  9 22  1  0
  9 23  1  0
M  END
