
     RDKit          3D

 19 21  0  0  0  0  0  0  0  0999 V2000
   -0.4988   -1.4945    0.2078 C   0  0  0  0  0  0  0  0  0  0  0  0
    0.6876   -0.9551   -0.0207 C   0  0  0  0  0  0  0  0  0  0  0  0
    0.6330    0.4286   -0.6131 C   0  0  0  0  0  0  0  0  0  0  0  0
   -0.3285    1.2948    0.1548 C   0  0  0  0  0  0  0  0  0  0  0  0
   -1.6976    0.6899    0.2687 C   0  0  0  0  0  0  0  0  0  0  0  0
   -1.7451   -0.7697   -0.1035 C   0  0  0  0  0  0  0  0  0  0  0  0
    2.0747    0.5581   -0.2659 C   0  0  0  0  0  0  0  0  0  0  0  0
    2.8930   -0.3148   -0.9722 O   0  0  0  0  0  0  0  0  0  0  0  0
    2.1493   -0.9517   -0.0108 C   0  0  0  0  0  0  0  0  0  0  0  0
   -0.5341   -2.4850    0.6297 H   0  0  0  0  0  0  0  0  0  0  0  0
    0.4942    0.4354   -1.7163 H   0  0  0  0  0  0  0  0  0  0  0  0
   -0.3604    2.2799   -0.3556 H   0  0  0  0  0  0  0  0  0  0  0  0
    0.1198    1.4739    1.1541 H   0  0  0  0  0  0  0  0  0  0  0  0
   -2.3664    1.2219   -0.4390 H   0  0  0  0  0  0  0  0  0  0  0  0
   -2.0824    0.8983    1.2876 H   0  0  0  0  0  0  0  0  0  0  0  0
   -2.0402   -0.9288   -1.1634 H   0  0  0  0  0  0  0  0  0  0  0  0
   -2.5493   -1.2242    0.5124 H   0  0  0  0  0  0  0  0  0  0  0  0
    2.4433    1.1519    0.5623 H   0  0  0  0  0  0  0  0  0  0  0  0
    2.7080   -1.3088    0.8831 H   0  0  0  0  0  0  0  0  0  0  0  0
  1  2  2  0
  2  3  1  0
  3  4  1  0
  4  5  1  0
  5  6  1  0
  3  7  1  0
  7  8  1  0
  8  9  1  0
  6  1  1  0
  9  7  1  0
  9  2  1  0
  1 10  1  0
  3 11  1  0
  4 12  1  0
  4 13  1  0
  5 14  1  0
  5 15  1  0
  6 16  1  0
  6 17  1  0
  7 18  1  0
  9 19  1  0
M  END
