
     RDKit          3D

 16 18  0  0  0  0  0  0  0  0999 V2000
    1.5424   -0.0710    0.5387 C   0  0  0  0  0  0  0  0  0  0  0  0
    0.9766   -1.2448    0.4528 C   0  0  0  0  0  0  0  0  0  0  0  0
   -0.4178   -1.3827   -0.0071 C   0  0  0  0  0  0  0  0  0  0  0  0
   -1.2736   -0.8015    0.9569 O   0  0  0  0  0  0  0  0  0  0  0  0
   -1.5025    0.3087    0.1841 C   0  0  0  0  0  0  0  0  0  0  0  0
   -0.4188    1.0560   -0.4914 C   0  0  0  0  0  0  0  0  0  0  0  0
    0.8878    1.2144    0.2012 C   0  0  0  0  0  0  0  0  0  0  0  0
   -0.7842   -0.2718   -0.9592 C   0  0  0  0  0  0  0  0  0  0  0  0
    2.5788   -0.0122    0.8845 H   0  0  0  0  0  0  0  0  0  0  0  0
    1.5384   -2.1271    0.7226 H   0  0  0  0  0  0  0  0  0  0  0  0
   -0.7418   -2.3752   -0.3258 H   0  0  0  0  0  0  0  0  0  0  0  0
   -2.5527    0.6584    0.0966 H   0  0  0  0  0  0  0  0  0  0  0  0
   -0.7713    1.9103   -1.1184 H   0  0  0  0  0  0  0  0  0  0  0  0
    0.7046    1.7433    1.1666 H   0  0  0  0  0  0  0  0  0  0  0  0
    1.5282    1.8798   -0.4014 H   0  0  0  0  0  0  0  0  0  0  0  0
   -1.2941   -0.4845   -1.9008 H   0  0  0  0  0  0  0  0  0  0  0  0
  1  2  2  0
  2  3  1  0
  3  4  1  0
  4  5  1  0
  5  6  1  0
  6  7  1  0
  6  8  1  0
  7  1  1  0
  8  3  1  0
  8  5  1  0
  1  9  1  0
  2 10  1  0
  3 11  1  0
  5 12  1  0
  6 13  1  0
  7 14  1  0
  7 15  1  0
  8 16  1  0
M  END
