
     RDKit          3D

 21 22  0  0  0  0  0  0  0  0999 V2000
    2.1382    0.6526    0.4134 C   0  0  0  0  0  0  0  0  0  0  0  0
    1.1304    1.5019    0.4453 C   0  0  0  0  0  0  0  0  0  0  0  0
   -0.2201    1.5394   -0.0889 C   0  0  0  0  0  0  0  0  0  0  0  0
   -0.8614    0.3152   -0.5470 C   0  0  0  0  0  0  0  0  0  0  0  0
   -2.1656    0.0040    0.2042 C   0  0  0  0  0  0  0  0  0  0  0  0
   -1.7908   -1.4459    0.0089 C   0  0  0  0  0  0  0  0  0  0  0  0
   -0.3692   -0.9807   -0.1509 C   0  0  0  0  0  0  0  0  0  0  0  0
    0.8757   -1.4140   -0.0354 C   0  0  0  0  0  0  0  0  0  0  0  0
    2.0995   -0.6590   -0.2901 C   0  0  0  0  0  0  0  0  0  0  0  0
    3.0356    0.9510    0.9377 H   0  0  0  0  0  0  0  0  0  0  0  0
    1.3882    2.4086    1.0254 H   0  0  0  0  0  0  0  0  0  0  0  0
   -0.2191    2.3222   -0.9086 H   0  0  0  0  0  0  0  0  0  0  0  0
   -0.8732    2.0240    0.6993 H   0  0  0  0  0  0  0  0  0  0  0  0
   -1.1461    0.3658   -1.6367 H   0  0  0  0  0  0  0  0  0  0  0  0
   -2.0839    0.3021    1.2705 H   0  0  0  0  0  0  0  0  0  0  0  0
   -3.0784    0.2921   -0.3130 H   0  0  0  0  0  0  0  0  0  0  0  0
   -1.9568   -2.1026    0.8746 H   0  0  0  0  0  0  0  0  0  0  0  0
   -2.1891   -1.9012   -0.9204 H   0  0  0  0  0  0  0  0  0  0  0  0
    1.0225   -2.4601    0.2880 H   0  0  0  0  0  0  0  0  0  0  0  0
    2.2986   -0.4770   -1.3656 H   0  0  0  0  0  0  0  0  0  0  0  0
    2.9651   -1.2384    0.0892 H   0  0  0  0  0  0  0  0  0  0  0  0
  1  2  2  0
  2  3  1  0
  3  4  1  0
  4  5  1  0
  5  6  1  0
  6  7  1  0
  7  8  2  0
  8  9  1  0
  9  1  1  0
  7  4  1  0
  1 10  1  0
  2 11  1  0
  3 12  1  0
  3 13  1  0
  4 14  1  0
  5 15  1  0
  5 16  1  0
  6 17  1  0
  6 18  1  0
  8 19  1  0
  9 20  1  0
  9 21  1  0
M  END
