
     RDKit          3D

 18 19  0  0  0  0  0  0  0  0999 V2000
    1.3388   -1.2180   -0.0347 C   0  0  0  0  0  0  0  0  0  0  0  0
    0.0205   -1.2263   -0.0401 C   0  0  0  0  0  0  0  0  0  0  0  0
   -0.7488   -0.0001    0.2069 C   0  0  0  0  0  0  0  0  0  0  0  0
   -1.8316    0.4539   -0.6834 C   0  0  0  0  0  0  0  0  0  0  0  0
   -2.1656   -0.1798    0.6309 C   0  0  0  0  0  0  0  0  0  0  0  0
    0.0215    1.0165    0.7640 O   0  0  0  0  0  0  0  0  0  0  0  0
    1.1318    1.1862   -0.0920 C   0  0  0  0  0  0  0  0  0  0  0  0
    2.0602    0.0340    0.2220 C   0  0  0  0  0  0  0  0  0  0  0  0
    1.9458   -2.1090   -0.2141 H   0  0  0  0  0  0  0  0  0  0  0  0
   -0.4723   -2.1700   -0.2331 H   0  0  0  0  0  0  0  0  0  0  0  0
   -2.0094   -0.0908   -1.6285 H   0  0  0  0  0  0  0  0  0  0  0  0
   -2.0620    1.5252   -0.7472 H   0  0  0  0  0  0  0  0  0  0  0  0
   -2.5843   -1.1905    0.5603 H   0  0  0  0  0  0  0  0  0  0  0  0
   -2.5244    0.4519    1.4693 H   0  0  0  0  0  0  0  0  0  0  0  0
    1.6822    2.1197    0.1338 H   0  0  0  0  0  0  0  0  0  0  0  0
    0.8229    1.1263   -1.1561 H   0  0  0  0  0  0  0  0  0  0  0  0
    2.9552    0.1578   -0.4273 H   0  0  0  0  0  0  0  0  0  0  0  0
    2.4194    0.1131    1.2694 H   0  0  0  0  0  0  0  0  0  0  0  0
  1  2  2  0
  2  3  1  0
  3  4  1  0
  4  5  1  0
  3  6  1  0
  6  7  1  0
  7  8  1  0
  8  1  1  0
  5  3  1  0
  1  9  1  0
  2 10  1  0
  4 11  1  0
  4 12  1  0
  5 13  1  0
  5 14  1  0
  7 15  1  0
  7 16  1  0
  8 17  1  0
  8 18  1  0
M  END
