
     RDKit          3D

 21 23  0  0  0  0  0  0  0  0999 V2000
    1.3350    0.2506   -1.3330 C   0  0  0  0  0  0  0  0  0  0  0  0
    1.2576   -1.0491   -1.0815 C   0  0  0  0  0  0  0  0  0  0  0  0
    0.5519   -1.1797    0.2253 C   0  0  0  0  0  0  0  0  0  0  0  0
    1.1423    0.0095    0.9603 C   0  0  0  0  0  0  0  0  0  0  0  0
    1.0079    1.0595   -0.1457 C   0  0  0  0  0  0  0  0  0  0  0  0
   -0.4539    1.4681   -0.1429 C   0  0  0  0  0  0  0  0  0  0  0  0
   -1.3963    0.3367   -0.2735 C   0  0  0  0  0  0  0  0  0  0  0  0
   -1.8406   -0.4395    0.9434 C   0  0  0  0  0  0  0  0  0  0  0  0
   -0.9152   -1.0073   -0.0444 C   0  0  0  0  0  0  0  0  0  0  0  0
    1.6061    0.6581   -2.2959 H   0  0  0  0  0  0  0  0  0  0  0  0
    1.6060   -1.8960   -1.6497 H   0  0  0  0  0  0  0  0  0  0  0  0
    0.7416   -2.1292    0.7324 H   0  0  0  0  0  0  0  0  0  0  0  0
    0.6093    0.2765    1.8652 H   0  0  0  0  0  0  0  0  0  0  0  0
    2.2161   -0.1840    1.0877 H   0  0  0  0  0  0  0  0  0  0  0  0
    1.6386    1.9279    0.0151 H   0  0  0  0  0  0  0  0  0  0  0  0
   -0.6258    1.9684    0.8440 H   0  0  0  0  0  0  0  0  0  0  0  0
   -0.6252    2.2429   -0.9263 H   0  0  0  0  0  0  0  0  0  0  0  0
   -2.2162    0.4878   -1.0309 H   0  0  0  0  0  0  0  0  0  0  0  0
   -2.8855   -0.8011    1.0044 H   0  0  0  0  0  0  0  0  0  0  0  0
   -1.4193   -0.1825    1.9344 H   0  0  0  0  0  0  0  0  0  0  0  0
   -1.3344   -1.8174   -0.6883 H   0  0  0  0  0  0  0  0  0  0  0  0
  1  2  2  0
  2  3  1  0
  3  4  1  0
  4  5  1  0
  5  6  1  0
  6  7  1  0
  7  8  1  0
  8  9  1  0
  5  1  1  0
  9  7  1  0
  9  3  1  0
  1 10  1  0
  2 11  1  0
  3 12  1  0
  4 13  1  0
  4 14  1  0
  5 15  1  0
  6 16  1  0
  6 17  1  0
  7 18  1  0
  8 19  1  0
  8 20  1  0
  9 21  1  0
M  END
