
     RDKit          3D

 18 20  0  0  0  0  0  0  0  0999 V2000
   -0.2331   -1.4840    0.4946 C   0  0  0  0  0  0  0  0  0  0  0  0
    0.9087   -0.8874    0.2264 C   0  0  0  0  0  0  0  0  0  0  0  0
    2.1075   -0.1216   -0.0711 C   0  0  0  0  0  0  0  0  0  0  0  0
    1.1824    1.0616   -0.5851 C   0  0  0  0  0  0  0  0  0  0  0  0
   -0.1878    0.7593   -0.9261 C   0  0  0  0  0  0  0  0  0  0  0  0
   -1.5317    0.4849   -0.4326 C   0  0  0  0  0  0  0  0  0  0  0  0
   -1.5129   -0.6504    0.6114 C   0  0  0  0  0  0  0  0  0  0  0  0
    0.4495    0.6202    0.4589 C   0  0  0  0  0  0  0  0  0  0  0  0
   -0.2304   -2.5606    0.6199 H   0  0  0  0  0  0  0  0  0  0  0  0
    2.7369    0.1869    0.7641 H   0  0  0  0  0  0  0  0  0  0  0  0
    2.7471   -0.4572   -0.9121 H   0  0  0  0  0  0  0  0  0  0  0  0
    1.6819    2.0399   -0.6586 H   0  0  0  0  0  0  0  0  0  0  0  0
   -0.0505    0.0239   -1.7667 H   0  0  0  0  0  0  0  0  0  0  0  0
   -1.9888    1.3861    0.1011 H   0  0  0  0  0  0  0  0  0  0  0  0
   -2.2350    0.2866   -1.2424 H   0  0  0  0  0  0  0  0  0  0  0  0
   -2.3255   -1.3562    0.3266 H   0  0  0  0  0  0  0  0  0  0  0  0
   -1.6432   -0.2753    1.6237 H   0  0  0  0  0  0  0  0  0  0  0  0
    0.1249    0.9432    1.3680 H   0  0  0  0  0  0  0  0  0  0  0  0
  1  2  2  0
  2  3  1  0
  3  4  1  0
  4  5  1  0
  5  6  1  0
  6  7  1  0
  5  8  1  0
  7  1  1  0
  8  2  1  0
  8  4  1  0
  1  9  1  0
  3 10  1  0
  3 11  1  0
  4 12  1  0
  5 13  1  0
  6 14  1  0
  6 15  1  0
  7 16  1  0
  7 17  1  0
  8 18  1  0
M  END
