
     RDKit          3D

 17 19  0  0  0  0  0  0  0  0999 V2000
   -1.2176    0.9891   -0.7073 C   0  0  0  0  0  0  0  0  0  0  0  0
   -0.0108    0.4944   -0.4703 C   0  0  0  0  0  0  0  0  0  0  0  0
    1.4631    0.6367   -0.4886 C   0  0  0  0  0  0  0  0  0  0  0  0
    1.9094   -0.3430    0.5406 C   0  0  0  0  0  0  0  0  0  0  0  0
    0.8246   -1.0220    1.0122 O   0  0  0  0  0  0  0  0  0  0  0  0
   -0.2369   -0.8658    0.1761 C   0  0  0  0  0  0  0  0  0  0  0  0
   -1.4525   -0.4481    0.9599 C   0  0  0  0  0  0  0  0  0  0  0  0
   -2.7315   -0.4526    0.7545 O   0  0  0  0  0  0  0  0  0  0  0  0
   -2.1819   -0.0045   -0.3303 C   0  0  0  0  0  0  0  0  0  0  0  0
   -1.3848    1.9774   -1.1153 H   0  0  0  0  0  0  0  0  0  0  0  0
    1.8750    0.2820   -1.4795 H   0  0  0  0  0  0  0  0  0  0  0  0
    1.7995    1.6813   -0.2913 H   0  0  0  0  0  0  0  0  0  0  0  0
    2.4467    0.2155    1.3383 H   0  0  0  0  0  0  0  0  0  0  0  0
    2.6519   -1.0931    0.1542 H   0  0  0  0  0  0  0  0  0  0  0  0
   -0.3786   -1.6619   -0.5371 H   0  0  0  0  0  0  0  0  0  0  0  0
   -1.1391    0.4081    1.6414 H   0  0  0  0  0  0  0  0  0  0  0  0
   -2.2364   -0.7935   -1.1573 H   0  0  0  0  0  0  0  0  0  0  0  0
  1  2  2  0
  2  3  1  0
  3  4  1  0
  4  5  1  0
  5  6  1  0
  6  7  1  0
  7  8  1  0
  8  9  1  0
  9  1  1  0
  6  2  1  0
  9  7  1  0
  1 10  1  0
  3 11  1  0
  3 12  1  0
  4 13  1  0
  4 14  1  0
  6 15  1  0
  7 16  1  0
  9 17  1  0
M  END
