
     RDKit          3D

 19 21  0  0  0  0  0  0  0  0999 V2000
    1.9439    0.7865   -0.1762 C   0  0  0  0  0  0  0  0  0  0  0  0
    2.0396   -0.4481   -0.7189 C   0  0  0  0  0  0  0  0  0  0  0  0
    0.9677   -1.1701    0.0400 C   0  0  0  0  0  0  0  0  0  0  0  0
    1.2580   -0.7027    1.3481 O   0  0  0  0  0  0  0  0  0  0  0  0
    0.8467    0.5495    0.8284 C   0  0  0  0  0  0  0  0  0  0  0  0
   -0.1359   -0.2167    0.0443 C   0  0  0  0  0  0  0  0  0  0  0  0
   -0.6973    0.3241   -1.1916 C   0  0  0  0  0  0  0  0  0  0  0  0
   -1.9938    0.5508   -0.3970 C   0  0  0  0  0  0  0  0  0  0  0  0
   -1.4575   -0.5140    0.5746 C   0  0  0  0  0  0  0  0  0  0  0  0
    2.4957    1.6843   -0.3991 H   0  0  0  0  0  0  0  0  0  0  0  0
    2.7008   -0.8219   -1.4865 H   0  0  0  0  0  0  0  0  0  0  0  0
    0.8589   -2.2148   -0.0960 H   0  0  0  0  0  0  0  0  0  0  0  0
    0.5954    1.3173    1.5021 H   0  0  0  0  0  0  0  0  0  0  0  0
   -0.8775   -0.4057   -2.0253 H   0  0  0  0  0  0  0  0  0  0  0  0
   -0.2368    1.2440   -1.5701 H   0  0  0  0  0  0  0  0  0  0  0  0
   -2.9064    0.2792   -0.9186 H   0  0  0  0  0  0  0  0  0  0  0  0
   -1.9337    1.5577    0.0565 H   0  0  0  0  0  0  0  0  0  0  0  0
   -1.6442   -0.2675    1.6394 H   0  0  0  0  0  0  0  0  0  0  0  0
   -1.8236   -1.5319    0.3478 H   0  0  0  0  0  0  0  0  0  0  0  0
  1  2  2  0
  2  3  1  0
  3  4  1  0
  4  5  1  0
  5  6  1  0
  6  7  1  0
  7  8  1  0
  8  9  1  0
  5  1  1  0
  9  6  1  0
  6  3  1  0
  1 10  1  0
  2 11  1  0
  3 12  1  0
  5 13  1  0
  7 14  1  0
  7 15  1  0
  8 16  1  0
  8 17  1  0
  9 18  1  0
  9 19  1  0
M  END
