
     RDKit          3D

 19 21  0  0  0  0  0  0  0  0999 V2000
   -2.0348    0.5383   -0.2931 C   0  0  0  0  0  0  0  0  0  0  0  0
   -0.8913    1.1893   -0.1373 C   0  0  0  0  0  0  0  0  0  0  0  0
    0.2017    0.2434    0.1351 C   0  0  0  0  0  0  0  0  0  0  0  0
   -0.5676   -0.9065    0.7731 C   0  0  0  0  0  0  0  0  0  0  0  0
   -1.7766   -0.9078   -0.1337 C   0  0  0  0  0  0  0  0  0  0  0  0
    1.4152    0.7175    0.8308 C   0  0  0  0  0  0  0  0  0  0  0  0
    2.2112    0.1141   -0.3409 C   0  0  0  0  0  0  0  0  0  0  0  0
    1.9701   -1.2069   -0.6641 O   0  0  0  0  0  0  0  0  0  0  0  0
    1.0472   -0.2012   -1.0011 C   0  0  0  0  0  0  0  0  0  0  0  0
   -3.0347    0.9359   -0.5048 H   0  0  0  0  0  0  0  0  0  0  0  0
   -0.8049    2.2804   -0.2076 H   0  0  0  0  0  0  0  0  0  0  0  0
    0.0416   -1.8213    0.6867 H   0  0  0  0  0  0  0  0  0  0  0  0
   -0.8672   -0.6489    1.7866 H   0  0  0  0  0  0  0  0  0  0  0  0
   -1.4338   -1.3626   -1.1014 H   0  0  0  0  0  0  0  0  0  0  0  0
   -2.6308   -1.4591    0.2970 H   0  0  0  0  0  0  0  0  0  0  0  0
    1.5491    1.8188    0.7927 H   0  0  0  0  0  0  0  0  0  0  0  0
    1.7109    0.2136    1.7554 H   0  0  0  0  0  0  0  0  0  0  0  0
    3.1595    0.5583   -0.6239 H   0  0  0  0  0  0  0  0  0  0  0  0
    0.7352   -0.0953   -2.0494 H   0  0  0  0  0  0  0  0  0  0  0  0
  1  2  2  0
  2  3  1  0
  3  4  1  0
  4  5  1  0
  3  6  1  0
  6  7  1  0
  7  8  1  0
  8  9  1  0
  5  1  1  0
  9  7  1  0
  9  3  1  0
  1 10  1  0
  2 11  1  0
  4 12  1  0
  4 13  1  0
  5 14  1  0
  5 15  1  0
  6 16  1  0
  6 17  1  0
  7 18  1  0
  9 19  1  0
M  END
