
     RDKit          3D

 21 22  0  0  0  0  0  0  0  0999 V2000
   -1.2848    0.9527    0.5944 C   0  0  0  0  0  0  0  0  0  0  0  0
   -1.7693   -0.2684    0.7418 C   0  0  0  0  0  0  0  0  0  0  0  0
   -1.0022   -1.2039   -0.1210 C   0  0  0  0  0  0  0  0  0  0  0  0
   -0.6311   -0.3245   -1.2752 C   0  0  0  0  0  0  0  0  0  0  0  0
   -0.4631    1.0374   -0.6503 C   0  0  0  0  0  0  0  0  0  0  0  0
    1.0118    1.1991   -0.3159 C   0  0  0  0  0  0  0  0  0  0  0  0
    1.2961    0.2705    0.8408 C   0  0  0  0  0  0  0  0  0  0  0  0
    1.2511   -1.1784    0.4356 C   0  0  0  0  0  0  0  0  0  0  0  0
    0.0241   -1.7631    0.5554 O   0  0  0  0  0  0  0  0  0  0  0  0
   -1.4395    1.8028    1.2626 H   0  0  0  0  0  0  0  0  0  0  0  0
   -2.5864   -0.5590    1.3783 H   0  0  0  0  0  0  0  0  0  0  0  0
   -1.7121   -1.9851   -0.5174 H   0  0  0  0  0  0  0  0  0  0  0  0
   -1.5103   -0.2585   -1.9533 H   0  0  0  0  0  0  0  0  0  0  0  0
    0.2187   -0.6584   -1.8615 H   0  0  0  0  0  0  0  0  0  0  0  0
   -0.8139    1.8020   -1.3477 H   0  0  0  0  0  0  0  0  0  0  0  0
    1.5771    0.9285   -1.2061 H   0  0  0  0  0  0  0  0  0  0  0  0
    1.2357    2.2285   -0.0282 H   0  0  0  0  0  0  0  0  0  0  0  0
    0.6107    0.4861    1.6716 H   0  0  0  0  0  0  0  0  0  0  0  0
    2.3273    0.5137    1.2113 H   0  0  0  0  0  0  0  0  0  0  0  0
    1.7181   -1.3037   -0.5637 H   0  0  0  0  0  0  0  0  0  0  0  0
    1.9417   -1.7184    1.1485 H   0  0  0  0  0  0  0  0  0  0  0  0
  1  2  2  0
  2  3  1  0
  3  4  1  0
  4  5  1  0
  5  6  1  0
  6  7  1  0
  7  8  1  0
  8  9  1  0
  5  1  1  0
  9  3  1  0
  1 10  1  0
  2 11  1  0
  3 12  1  0
  4 13  1  0
  4 14  1  0
  5 15  1  0
  6 16  1  0
  6 17  1  0
  7 18  1  0
  7 19  1  0
  8 20  1  0
  8 21  1  0
M  END
