
     RDKit          3D

 21 22  0  0  0  0  0  0  0  0999 V2000
   -0.7358   -0.7207    1.3808 C   0  0  0  0  0  0  0  0  0  0  0  0
   -0.7235    0.6044    1.3325 C   0  0  0  0  0  0  0  0  0  0  0  0
   -0.9225    1.0929   -0.0574 C   0  0  0  0  0  0  0  0  0  0  0  0
    0.3869    1.5012   -0.6945 C   0  0  0  0  0  0  0  0  0  0  0  0
    1.4353    1.1807    0.1123 O   0  0  0  0  0  0  0  0  0  0  0  0
    1.6709   -0.1318    0.3382 C   0  0  0  0  0  0  0  0  0  0  0  0
    0.8861   -1.1047   -0.4644 C   0  0  0  0  0  0  0  0  0  0  0  0
   -0.5540   -1.2229   -0.0223 C   0  0  0  0  0  0  0  0  0  0  0  0
   -1.3677   -0.1813   -0.7903 C   0  0  0  0  0  0  0  0  0  0  0  0
   -0.8526   -1.3624    2.2491 H   0  0  0  0  0  0  0  0  0  0  0  0
   -0.5810    1.2152    2.2324 H   0  0  0  0  0  0  0  0  0  0  0  0
   -1.6867    1.8695   -0.0755 H   0  0  0  0  0  0  0  0  0  0  0  0
    0.5109    1.0590   -1.7194 H   0  0  0  0  0  0  0  0  0  0  0  0
    0.4198    2.6105   -0.8687 H   0  0  0  0  0  0  0  0  0  0  0  0
    1.5334   -0.3837    1.4244 H   0  0  0  0  0  0  0  0  0  0  0  0
    2.7619   -0.3300    0.1372 H   0  0  0  0  0  0  0  0  0  0  0  0
    0.9597   -0.9236   -1.5486 H   0  0  0  0  0  0  0  0  0  0  0  0
    1.3515   -2.1217   -0.3034 H   0  0  0  0  0  0  0  0  0  0  0  0
   -0.9887   -2.2117   -0.1805 H   0  0  0  0  0  0  0  0  0  0  0  0
   -2.4361   -0.2979   -0.6230 H   0  0  0  0  0  0  0  0  0  0  0  0
   -1.0677   -0.1410   -1.8589 H   0  0  0  0  0  0  0  0  0  0  0  0
  1  2  2  0
  2  3  1  0
  3  4  1  0
  4  5  1  0
  5  6  1  0
  6  7  1  0
  7  8  1  0
  8  9  1  0
  8  1  1  0
  9  3  1  0
  1 10  1  0
  2 11  1  0
  3 12  1  0
  4 13  1  0
  4 14  1  0
  6 15  1  0
  6 16  1  0
  7 17  1  0
  7 18  1  0
  8 19  1  0
  9 20  1  0
  9 21  1  0
M  END
