
     RDKit          3D

 19 20  0  0  0  0  0  0  0  0999 V2000
    1.9644    1.0514    0.0489 C   0  0  0  0  0  0  0  0  0  0  0  0
    2.2185   -0.2518    0.2930 C   0  0  0  0  0  0  0  0  0  0  0  0
    1.3250   -1.4197    0.2328 C   0  0  0  0  0  0  0  0  0  0  0  0
    0.0207   -1.5268    0.3684 C   0  0  0  0  0  0  0  0  0  0  0  0
   -1.1924   -0.8025    0.6104 C   0  0  0  0  0  0  0  0  0  0  0  0
   -1.9988   -0.4967   -0.6760 C   0  0  0  0  0  0  0  0  0  0  0  0
   -1.4539    0.5422    0.2735 C   0  0  0  0  0  0  0  0  0  0  0  0
   -0.5201    1.5033   -0.2305 C   0  0  0  0  0  0  0  0  0  0  0  0
    0.7533    1.7624   -0.3512 C   0  0  0  0  0  0  0  0  0  0  0  0
    2.8408    1.6674    0.1806 H   0  0  0  0  0  0  0  0  0  0  0  0
    3.2220   -0.4810    0.5741 H   0  0  0  0  0  0  0  0  0  0  0  0
    1.8662   -2.3349    0.0466 H   0  0  0  0  0  0  0  0  0  0  0  0
   -0.2157   -2.6027    0.2447 H   0  0  0  0  0  0  0  0  0  0  0  0
   -1.8432   -1.2838    1.4064 H   0  0  0  0  0  0  0  0  0  0  0  0
   -3.0755   -0.7532   -0.6792 H   0  0  0  0  0  0  0  0  0  0  0  0
   -1.4973   -0.6582   -1.6467 H   0  0  0  0  0  0  0  0  0  0  0  0
   -2.3193    1.0315    0.8505 H   0  0  0  0  0  0  0  0  0  0  0  0
   -1.0817    2.3423   -0.6925 H   0  0  0  0  0  0  0  0  0  0  0  0
    0.9870    2.7108   -0.8540 H   0  0  0  0  0  0  0  0  0  0  0  0
  1  2  2  3
  2  3  1  0
  3  4  2  3
  4  5  1  0
  5  6  1  0
  6  7  1  0
  7  8  1  0
  8  9  2  3
  9  1  1  0
  7  5  1  0
  1 10  1  0
  2 11  1  0
  3 12  1  0
  4 13  1  0
  5 14  1  0
  6 15  1  0
  6 16  1  0
  7 17  1  0
  8 18  1  0
  9 19  1  0
M  END
