
     RDKit          3D

 19 21  0  0  0  0  0  0  0  0999 V2000
   -0.7282    1.4859   -0.5644 C   0  0  0  0  0  0  0  0  0  0  0  0
    0.5714    1.6370   -0.4302 C   0  0  0  0  0  0  0  0  0  0  0  0
    1.2844    0.3350   -0.4745 C   0  0  0  0  0  0  0  0  0  0  0  0
    1.4600   -0.2600    0.9004 C   0  0  0  0  0  0  0  0  0  0  0  0
    0.3964   -1.2992    0.5657 C   0  0  0  0  0  0  0  0  0  0  0  0
   -0.7362   -1.0837    1.3039 O   0  0  0  0  0  0  0  0  0  0  0  0
   -1.6776   -0.4569    0.5523 C   0  0  0  0  0  0  0  0  0  0  0  0
   -1.0603    0.0310   -0.7193 C   0  0  0  0  0  0  0  0  0  0  0  0
    0.2384   -0.7065   -0.7787 C   0  0  0  0  0  0  0  0  0  0  0  0
   -1.5032    2.2428   -0.5724 H   0  0  0  0  0  0  0  0  0  0  0  0
    1.0806    2.5793   -0.3024 H   0  0  0  0  0  0  0  0  0  0  0  0
    2.1732    0.3279   -1.1136 H   0  0  0  0  0  0  0  0  0  0  0  0
    2.4377   -0.7178    1.0981 H   0  0  0  0  0  0  0  0  0  0  0  0
    1.1857    0.4235    1.7347 H   0  0  0  0  0  0  0  0  0  0  0  0
    0.7854   -2.3301    0.5307 H   0  0  0  0  0  0  0  0  0  0  0  0
   -2.0999    0.3926    1.1462 H   0  0  0  0  0  0  0  0  0  0  0  0
   -2.5454   -1.1329    0.3626 H   0  0  0  0  0  0  0  0  0  0  0  0
   -1.7069   -0.1657   -1.5789 H   0  0  0  0  0  0  0  0  0  0  0  0
    0.4442   -1.3020   -1.6600 H   0  0  0  0  0  0  0  0  0  0  0  0
  1  2  2  0
  2  3  1  0
  3  4  1  0
  4  5  1  0
  5  6  1  0
  6  7  1  0
  7  8  1  0
  8  9  1  0
  8  1  1  0
  9  3  1  0
  9  5  1  0
  1 10  1  0
  2 11  1  0
  3 12  1  0
  4 13  1  0
  4 14  1  0
  5 15  1  0
  7 16  1  0
  7 17  1  0
  8 18  1  0
  9 19  1  0
M  END
