
     RDKit          3D

 16 18  0  0  0  0  0  0  0  0999 V2000
    0.6349   -1.2581    0.4475 C   0  0  0  0  0  0  0  0  0  0  0  0
    1.5609   -0.3355    0.6439 C   0  0  0  0  0  0  0  0  0  0  0  0
    1.1467    0.8635   -0.1488 C   0  0  0  0  0  0  0  0  0  0  0  0
   -0.1858    1.4499    0.0042 C   0  0  0  0  0  0  0  0  0  0  0  0
   -1.4919    1.1643   -0.3820 O   0  0  0  0  0  0  0  0  0  0  0  0
   -1.6281   -0.1535    0.1757 C   0  0  0  0  0  0  0  0  0  0  0  0
   -0.4515   -0.8147   -0.4554 C   0  0  0  0  0  0  0  0  0  0  0  0
    0.2387    0.3788   -1.0264 C   0  0  0  0  0  0  0  0  0  0  0  0
    0.6790   -2.2534    0.9149 H   0  0  0  0  0  0  0  0  0  0  0  0
    2.4671   -0.4225    1.2689 H   0  0  0  0  0  0  0  0  0  0  0  0
    1.9691    1.5634   -0.4242 H   0  0  0  0  0  0  0  0  0  0  0  0
   -0.3132    1.3361    1.0928 H   0  0  0  0  0  0  0  0  0  0  0  0
   -2.6009   -0.5789   -0.0775 H   0  0  0  0  0  0  0  0  0  0  0  0
   -1.4280   -0.0347    1.2482 H   0  0  0  0  0  0  0  0  0  0  0  0
   -0.7176   -1.5778   -1.2111 H   0  0  0  0  0  0  0  0  0  0  0  0
    0.1204    0.6729   -2.0705 H   0  0  0  0  0  0  0  0  0  0  0  0
  1  2  2  0
  2  3  1  0
  3  4  1  0
  4  5  1  0
  5  6  1  0
  6  7  1  0
  7  8  1  0
  7  1  1  0
  8  3  1  0
  8  4  1  0
  1  9  1  0
  2 10  1  0
  3 11  1  0
  4 12  1  0
  6 13  1  0
  6 14  1  0
  7 15  1  0
  8 16  1  0
M  END
