
     RDKit          3D

 17 18  0  0  0  0  0  0  0  0999 V2000
   -2.1002    0.4977   -0.0559 C   0  0  0  0  0  0  0  0  0  0  0  0
   -1.0436    1.1961   -0.4454 C   0  0  0  0  0  0  0  0  0  0  0  0
    0.2590    0.5797   -0.2325 C   0  0  0  0  0  0  0  0  0  0  0  0
    1.4779    1.0301    0.0503 C   0  0  0  0  0  0  0  0  0  0  0  0
    2.3364   -0.1920    0.1248 C   0  0  0  0  0  0  0  0  0  0  0  0
    1.3926   -1.1760    0.5140 O   0  0  0  0  0  0  0  0  0  0  0  0
    0.3495   -0.9041   -0.3407 C   0  0  0  0  0  0  0  0  0  0  0  0
   -0.8284   -1.5454   -0.0962 O   0  0  0  0  0  0  0  0  0  0  0  0
   -1.8034   -0.8274    0.5493 C   0  0  0  0  0  0  0  0  0  0  0  0
   -3.0789    0.9096   -0.1925 H   0  0  0  0  0  0  0  0  0  0  0  0
   -1.0692    2.1742   -0.8989 H   0  0  0  0  0  0  0  0  0  0  0  0
    1.7173    2.0711    0.1820 H   0  0  0  0  0  0  0  0  0  0  0  0
    3.1330   -0.0868    0.8727 H   0  0  0  0  0  0  0  0  0  0  0  0
    2.7038   -0.3772   -0.9053 H   0  0  0  0  0  0  0  0  0  0  0  0
    0.7156   -1.1959   -1.3710 H   0  0  0  0  0  0  0  0  0  0  0  0
   -2.7103   -1.4571    0.6304 H   0  0  0  0  0  0  0  0  0  0  0  0
   -1.4512   -0.6965    1.6151 H   0  0  0  0  0  0  0  0  0  0  0  0
  1  2  2  0
  2  3  1  0
  3  4  2  0
  4  5  1  0
  5  6  1  0
  6  7  1  0
  7  8  1  0
  8  9  1  0
  9  1  1  0
  7  3  1  0
  1 10  1  0
  2 11  1  0
  4 12  1  0
  5 13  1  0
  5 14  1  0
  7 15  1  0
  9 16  1  0
  9 17  1  0
M  END
