
     RDKit          3D

 19 21  0  0  0  0  0  0  0  0999 V2000
    1.5783   -0.0241   -0.6090 C   0  0  0  0  0  0  0  0  0  0  0  0
    0.8656    1.0886   -0.7773 C   0  0  0  0  0  0  0  0  0  0  0  0
   -0.1290    1.3693    0.2329 C   0  0  0  0  0  0  0  0  0  0  0  0
   -1.5298    1.1784    0.2886 C   0  0  0  0  0  0  0  0  0  0  0  0
   -0.8492   -0.0265    0.3786 C   0  0  0  0  0  0  0  0  0  0  0  0
   -0.8357   -0.9263   -0.8678 C   0  0  0  0  0  0  0  0  0  0  0  0
    0.1813   -1.8572   -0.6735 O   0  0  0  0  0  0  0  0  0  0  0  0
    1.0800   -1.1883    0.1919 C   0  0  0  0  0  0  0  0  0  0  0  0
    0.0539   -0.7363    1.2520 C   0  0  0  0  0  0  0  0  0  0  0  0
    2.5821   -0.1523   -1.0527 H   0  0  0  0  0  0  0  0  0  0  0  0
    1.0592    1.7033   -1.6294 H   0  0  0  0  0  0  0  0  0  0  0  0
    0.3657    1.7576    1.1762 H   0  0  0  0  0  0  0  0  0  0  0  0
   -2.1290    1.3959   -0.6464 H   0  0  0  0  0  0  0  0  0  0  0  0
   -2.0904    1.6180    1.1627 H   0  0  0  0  0  0  0  0  0  0  0  0
   -0.5819   -0.2454   -1.7111 H   0  0  0  0  0  0  0  0  0  0  0  0
   -1.8192   -1.3775   -1.0437 H   0  0  0  0  0  0  0  0  0  0  0  0
    1.8597   -1.8080    0.5873 H   0  0  0  0  0  0  0  0  0  0  0  0
    0.6366   -0.1355    1.9847 H   0  0  0  0  0  0  0  0  0  0  0  0
   -0.2982   -1.6336    1.7558 H   0  0  0  0  0  0  0  0  0  0  0  0
  1  2  2  0
  2  3  1  0
  3  4  1  0
  4  5  1  0
  5  6  1  0
  6  7  1  0
  7  8  1  0
  8  9  1  0
  8  1  1  0
  5  3  1  0
  9  5  1  0
  1 10  1  0
  2 11  1  0
  3 12  1  0
  4 13  1  0
  4 14  1  0
  6 15  1  0
  6 16  1  0
  8 17  1  0
  9 18  1  0
  9 19  1  0
M  END
