
     RDKit          3D

 19 22  0  0  0  0  0  0  0  0999 V2000
    1.3861    1.3643   -0.3215 C   0  0  0  0  0  0  0  0  0  0  0  0
    0.2220    0.8079   -0.4790 C   0  0  0  0  0  0  0  0  0  0  0  0
    0.2648   -0.3774    0.7859 C   0  0  0  0  0  0  0  0  0  0  0  0
    1.5170   -0.7786    0.4904 C   0  0  0  0  0  0  0  0  0  0  0  0
    2.0966    0.6525    0.7662 C   0  0  0  0  0  0  0  0  0  0  0  0
    0.2586   -1.1526   -0.3312 C   0  0  0  0  0  0  0  0  0  0  0  0
   -0.9106   -0.0149   -0.4674 C   0  0  0  0  0  0  0  0  0  0  0  0
   -2.0406   -0.2648   -1.2558 C   0  0  0  0  0  0  0  0  0  0  0  0
   -2.0867   -0.1146    0.3049 C   0  0  0  0  0  0  0  0  0  0  0  0
    1.8484    2.2035   -0.8422 H   0  0  0  0  0  0  0  0  0  0  0  0
   -0.4820   -0.1620    1.4663 H   0  0  0  0  0  0  0  0  0  0  0  0
    2.1991   -1.5815    0.6507 H   0  0  0  0  0  0  0  0  0  0  0  0
    3.1707    0.6282    0.7052 H   0  0  0  0  0  0  0  0  0  0  0  0
    1.7196    0.9363    1.7477 H   0  0  0  0  0  0  0  0  0  0  0  0
    0.6395   -1.1317   -1.3500 H   0  0  0  0  0  0  0  0  0  0  0  0
   -2.5238    0.5640   -1.8123 H   0  0  0  0  0  0  0  0  0  0  0  0
   -2.2760   -1.3127   -1.6085 H   0  0  0  0  0  0  0  0  0  0  0  0
   -2.6037    0.7841    0.6968 H   0  0  0  0  0  0  0  0  0  0  0  0
   -2.3991   -1.0500    0.8538 H   0  0  0  0  0  0  0  0  0  0  0  0
  1  2  2  0
  2  3  1  0
  3  4  1  0
  4  5  1  0
  4  6  1  0
  6  7  1  0
  7  8  1  0
  8  9  1  0
  5  1  1  0
  9  7  1  0
  7  2  1  0
  6  3  1  0
  1 10  1  0
  3 11  1  0
  4 12  1  0
  5 13  1  0
  5 14  1  0
  6 15  1  0
  8 16  1  0
  8 17  1  0
  9 18  1  0
  9 19  1  0
M  END
