
     RDKit          3D

 16 17  0  0  0  0  0  0  0  0999 V2000
   -1.2517   -0.9672    0.5324 C   0  0  0  0  0  0  0  0  0  0  0  0
   -0.1034   -1.5872    0.2801 C   0  0  0  0  0  0  0  0  0  0  0  0
    0.8786   -0.8529   -0.5668 C   0  0  0  0  0  0  0  0  0  0  0  0
    1.5804    0.2210    0.1980 C   0  0  0  0  0  0  0  0  0  0  0  0
    0.9840    1.3658   -0.1233 C   0  0  0  0  0  0  0  0  0  0  0  0
   -0.3172    0.9449   -0.7438 C   0  0  0  0  0  0  0  0  0  0  0  0
   -1.2458    0.5237    0.3740 C   0  0  0  0  0  0  0  0  0  0  0  0
    0.1122   -0.1370   -1.5108 O   0  0  0  0  0  0  0  0  0  0  0  0
   -2.1549   -1.4992    0.8380 H   0  0  0  0  0  0  0  0  0  0  0  0
    0.0625   -2.5700    0.6894 H   0  0  0  0  0  0  0  0  0  0  0  0
    1.5758   -1.5223   -1.0879 H   0  0  0  0  0  0  0  0  0  0  0  0
    2.4076    0.1111    0.8796 H   0  0  0  0  0  0  0  0  0  0  0  0
    1.3527    2.3737    0.0281 H   0  0  0  0  0  0  0  0  0  0  0  0
   -0.7516    1.7491   -1.3642 H   0  0  0  0  0  0  0  0  0  0  0  0
   -2.2585    0.9315    0.2119 H   0  0  0  0  0  0  0  0  0  0  0  0
   -0.8706    0.9151    1.3653 H   0  0  0  0  0  0  0  0  0  0  0  0
  1  2  2  0
  2  3  1  0
  3  4  1  0
  4  5  2  0
  5  6  1  0
  6  7  1  0
  6  8  1  0
  7  1  1  0
  8  3  1  0
  1  9  1  0
  2 10  1  0
  3 11  1  0
  4 12  1  0
  5 13  1  0
  6 14  1  0
  7 15  1  0
  7 16  1  0
M  END
