
     RDKit          3D

 19 21  0  0  0  0  0  0  0  0999 V2000
    1.9230    0.7853    0.3051 C   0  0  0  0  0  0  0  0  0  0  0  0
    0.8448    1.5646    0.3855 C   0  0  0  0  0  0  0  0  0  0  0  0
   -0.4822    0.9671    0.2746 C   0  0  0  0  0  0  0  0  0  0  0  0
   -0.4460   -0.4175    0.9397 C   0  0  0  0  0  0  0  0  0  0  0  0
   -1.8504   -0.8508    0.6607 C   0  0  0  0  0  0  0  0  0  0  0  0
   -2.0025   -0.5094   -0.6412 C   0  0  0  0  0  0  0  0  0  0  0  0
   -0.6900    0.1192   -0.9577 C   0  0  0  0  0  0  0  0  0  0  0  0
    0.2501   -0.8926   -0.2999 C   0  0  0  0  0  0  0  0  0  0  0  0
    1.6749   -0.5034   -0.4190 C   0  0  0  0  0  0  0  0  0  0  0  0
    2.8883    1.0510    0.7204 H   0  0  0  0  0  0  0  0  0  0  0  0
    0.9435    2.6507    0.5342 H   0  0  0  0  0  0  0  0  0  0  0  0
   -1.3285    1.5845    0.5790 H   0  0  0  0  0  0  0  0  0  0  0  0
   -0.0319   -0.5152    1.8923 H   0  0  0  0  0  0  0  0  0  0  0  0
   -2.5540   -1.3155    1.3321 H   0  0  0  0  0  0  0  0  0  0  0  0
   -2.8681   -0.6648   -1.2701 H   0  0  0  0  0  0  0  0  0  0  0  0
   -0.4752    0.4812   -1.9112 H   0  0  0  0  0  0  0  0  0  0  0  0
   -0.0019   -1.9390   -0.5161 H   0  0  0  0  0  0  0  0  0  0  0  0
    1.8785   -0.2841   -1.5023 H   0  0  0  0  0  0  0  0  0  0  0  0
    2.3275   -1.3110   -0.1061 H   0  0  0  0  0  0  0  0  0  0  0  0
  1  2  2  0
  2  3  1  0
  3  4  1  0
  4  5  1  0
  5  6  2  0
  6  7  1  0
  7  8  1  0
  8  9  1  0
  9  1  1  0
  7  3  1  0
  8  4  1  0
  1 10  1  0
  2 11  1  0
  3 12  1  0
  4 13  1  0
  5 14  1  0
  6 15  1  0
  7 16  1  0
  8 17  1  0
  9 18  1  0
  9 19  1  0
M  END
