
     RDKit          3D

 19 21  0  0  0  0  0  0  0  0999 V2000
    1.2098    1.2182    0.3019 C   0  0  0  0  0  0  0  0  0  0  0  0
    0.0131    0.8449   -0.0666 C   0  0  0  0  0  0  0  0  0  0  0  0
   -1.4307    1.2654   -0.2428 C   0  0  0  0  0  0  0  0  0  0  0  0
   -2.1768    0.0457    0.2158 C   0  0  0  0  0  0  0  0  0  0  0  0
   -1.6724   -0.5505    1.3491 O   0  0  0  0  0  0  0  0  0  0  0  0
   -1.2098   -1.1166    0.1643 C   0  0  0  0  0  0  0  0  0  0  0  0
    0.0195   -0.5615   -0.4953 C   0  0  0  0  0  0  0  0  0  0  0  0
    1.3008   -1.1268    0.0673 C   0  0  0  0  0  0  0  0  0  0  0  0
    2.1582    0.1119    0.1618 C   0  0  0  0  0  0  0  0  0  0  0  0
    1.4601    2.2458    0.6717 H   0  0  0  0  0  0  0  0  0  0  0  0
   -1.6139    1.5403   -1.2878 H   0  0  0  0  0  0  0  0  0  0  0  0
   -1.6133    2.1040    0.4330 H   0  0  0  0  0  0  0  0  0  0  0  0
   -3.2295   -0.1079   -0.0927 H   0  0  0  0  0  0  0  0  0  0  0  0
   -1.6500   -2.0681   -0.1857 H   0  0  0  0  0  0  0  0  0  0  0  0
   -0.0328   -0.6209   -1.5970 H   0  0  0  0  0  0  0  0  0  0  0  0
    1.1802   -1.6576    1.0103 H   0  0  0  0  0  0  0  0  0  0  0  0
    1.7132   -1.8062   -0.7310 H   0  0  0  0  0  0  0  0  0  0  0  0
    2.7874    0.1881   -0.7561 H   0  0  0  0  0  0  0  0  0  0  0  0
    2.7868    0.0517    1.0798 H   0  0  0  0  0  0  0  0  0  0  0  0
  1  2  2  0
  2  3  1  0
  3  4  1  0
  4  5  1  0
  5  6  1  0
  6  7  1  0
  7  8  1  0
  8  9  1  0
  9  1  1  0
  7  2  1  0
  6  4  1  0
  1 10  1  0
  3 11  1  0
  3 12  1  0
  4 13  1  0
  6 14  1  0
  7 15  1  0
  8 16  1  0
  8 17  1  0
  9 18  1  0
  9 19  1  0
M  END
