
     RDKit          3D

 17 19  0  0  0  0  0  0  0  0999 V2000
    2.0163   -0.4253   -0.4873 C   0  0  0  0  0  0  0  0  0  0  0  0
    0.8141   -0.9134   -0.7495 C   0  0  0  0  0  0  0  0  0  0  0  0
   -0.1310   -0.1902    0.0875 C   0  0  0  0  0  0  0  0  0  0  0  0
   -1.0613    0.7763   -0.5780 C   0  0  0  0  0  0  0  0  0  0  0  0
   -2.2008    0.1267    0.1724 C   0  0  0  0  0  0  0  0  0  0  0  0
   -2.4170   -1.1895   -0.1412 O   0  0  0  0  0  0  0  0  0  0  0  0
   -1.3002   -0.9179    0.6408 C   0  0  0  0  0  0  0  0  0  0  0  0
    0.6166    0.4088    1.1117 O   0  0  0  0  0  0  0  0  0  0  0  0
    1.8538    0.6314    0.5347 C   0  0  0  0  0  0  0  0  0  0  0  0
    2.9814   -0.7281   -0.9312 H   0  0  0  0  0  0  0  0  0  0  0  0
    0.6379   -1.6993   -1.4611 H   0  0  0  0  0  0  0  0  0  0  0  0
   -1.2039    0.6715   -1.6623 H   0  0  0  0  0  0  0  0  0  0  0  0
   -0.8851    1.8451   -0.3203 H   0  0  0  0  0  0  0  0  0  0  0  0
   -2.8734    0.7167    0.7851 H   0  0  0  0  0  0  0  0  0  0  0  0
   -1.3008   -1.3500    1.6489 H   0  0  0  0  0  0  0  0  0  0  0  0
    2.6521    0.6054    1.3078 H   0  0  0  0  0  0  0  0  0  0  0  0
    1.8014    1.6321    0.0420 H   0  0  0  0  0  0  0  0  0  0  0  0
  1  2  2  0
  2  3  1  0
  3  4  1  0
  4  5  1  0
  5  6  1  0
  6  7  1  0
  3  8  1  0
  8  9  1  0
  9  1  1  0
  7  3  1  0
  7  5  1  0
  1 10  1  0
  2 11  1  0
  4 12  1  0
  4 13  1  0
  5 14  1  0
  7 15  1  0
  9 16  1  0
  9 17  1  0
M  END
