
     RDKit          3D

 20 21  0  0  0  0  0  0  0  0999 V2000
   -0.2547    0.8354    1.3935 C   0  0  0  0  0  0  0  0  0  0  0  0
   -0.6038   -0.4581    1.4604 C   0  0  0  0  0  0  0  0  0  0  0  0
   -0.3436   -1.2113    0.1791 C   0  0  0  0  0  0  0  0  0  0  0  0
   -1.1691   -0.5185   -0.8775 C   0  0  0  0  0  0  0  0  0  0  0  0
   -0.8140    0.9414   -0.9483 C   0  0  0  0  0  0  0  0  0  0  0  0
    0.2874    1.2545    0.0448 C   0  0  0  0  0  0  0  0  0  0  0  0
    1.5079    0.3848   -0.1805 C   0  0  0  0  0  0  0  0  0  0  0  0
    1.1390   -1.0779   -0.1144 C   0  0  0  0  0  0  0  0  0  0  0  0
   -0.3386    1.5265    2.1943 H   0  0  0  0  0  0  0  0  0  0  0  0
   -1.0253   -0.9188    2.3305 H   0  0  0  0  0  0  0  0  0  0  0  0
   -0.6269   -2.2688    0.2682 H   0  0  0  0  0  0  0  0  0  0  0  0
   -1.0684   -1.0102   -1.8703 H   0  0  0  0  0  0  0  0  0  0  0  0
   -2.2447   -0.6831   -0.5839 H   0  0  0  0  0  0  0  0  0  0  0  0
   -1.7177    1.5090   -0.5779 H   0  0  0  0  0  0  0  0  0  0  0  0
   -0.6163    1.3127   -1.9519 H   0  0  0  0  0  0  0  0  0  0  0  0
    0.5617    2.3093    0.0240 H   0  0  0  0  0  0  0  0  0  0  0  0
    2.1810    0.5813    0.7033 H   0  0  0  0  0  0  0  0  0  0  0  0
    2.0765    0.6562   -1.0776 H   0  0  0  0  0  0  0  0  0  0  0  0
    1.6840   -1.6259    0.6822 H   0  0  0  0  0  0  0  0  0  0  0  0
    1.3853   -1.5385   -1.0983 H   0  0  0  0  0  0  0  0  0  0  0  0
  1  2  2  0
  2  3  1  0
  3  4  1  0
  4  5  1  0
  5  6  1  0
  6  7  1  0
  7  8  1  0
  6  1  1  0
  8  3  1  0
  1  9  1  0
  2 10  1  0
  3 11  1  0
  4 12  1  0
  4 13  1  0
  5 14  1  0
  5 15  1  0
  6 16  1  0
  7 17  1  0
  7 18  1  0
  8 19  1  0
  8 20  1  0
M  END
