
     RDKit          3D

 17 19  0  0  0  0  0  0  0  0999 V2000
   -1.1888    1.1623    0.2812 C   0  0  0  0  0  0  0  0  0  0  0  0
   -1.5961    0.0390    0.8223 C   0  0  0  0  0  0  0  0  0  0  0  0
   -0.9596   -1.1487    0.2281 C   0  0  0  0  0  0  0  0  0  0  0  0
    0.5072   -1.3066    0.1712 C   0  0  0  0  0  0  0  0  0  0  0  0
    1.2381   -0.4618    0.9888 O   0  0  0  0  0  0  0  0  0  0  0  0
    1.8307    0.5929    0.3295 C   0  0  0  0  0  0  0  0  0  0  0  0
    0.9905    1.4007   -0.3893 O   0  0  0  0  0  0  0  0  0  0  0  0
   -0.1995    0.8306   -0.7707 C   0  0  0  0  0  0  0  0  0  0  0  0
   -0.1742   -0.6340   -0.9494 C   0  0  0  0  0  0  0  0  0  0  0  0
   -1.5316    2.1688    0.5688 H   0  0  0  0  0  0  0  0  0  0  0  0
   -2.3292   -0.0155    1.6281 H   0  0  0  0  0  0  0  0  0  0  0  0
   -1.6490   -1.9869   -0.0058 H   0  0  0  0  0  0  0  0  0  0  0  0
    0.8931   -2.3214   -0.0386 H   0  0  0  0  0  0  0  0  0  0  0  0
    2.3071    1.2255    1.1148 H   0  0  0  0  0  0  0  0  0  0  0  0
    2.6730    0.2788   -0.3382 H   0  0  0  0  0  0  0  0  0  0  0  0
   -0.5742    1.2989   -1.7167 H   0  0  0  0  0  0  0  0  0  0  0  0
   -0.2374   -1.1227   -1.9240 H   0  0  0  0  0  0  0  0  0  0  0  0
  1  2  2  0
  2  3  1  0
  3  4  1  0
  4  5  1  0
  5  6  1  0
  6  7  1  0
  7  8  1  0
  8  9  1  0
  8  1  1  0
  9  3  1  0
  9  4  1  0
  1 10  1  0
  2 11  1  0
  3 12  1  0
  4 13  1  0
  6 14  1  0
  6 15  1  0
  8 16  1  0
  9 17  1  0
M  END
