
     RDKit          3D

 21 23  0  0  0  0  0  0  0  0999 V2000
    1.0700    1.3349   -0.6747 C   0  0  0  0  0  0  0  0  0  0  0  0
    0.0584    0.5964   -0.2575 C   0  0  0  0  0  0  0  0  0  0  0  0
    0.6216   -0.7864    0.1401 C   0  0  0  0  0  0  0  0  0  0  0  0
    2.0382   -0.4984    0.4494 C   0  0  0  0  0  0  0  0  0  0  0  0
    2.3676    0.5746   -0.6030 C   0  0  0  0  0  0  0  0  0  0  0  0
   -0.4424   -0.7534    1.1969 C   0  0  0  0  0  0  0  0  0  0  0  0
   -1.2138    0.0240    0.1505 C   0  0  0  0  0  0  0  0  0  0  0  0
   -2.4574    0.6988    0.3372 C   0  0  0  0  0  0  0  0  0  0  0  0
   -2.2726   -0.4904   -0.6662 C   0  0  0  0  0  0  0  0  0  0  0  0
    1.0253    2.3548   -1.0304 H   0  0  0  0  0  0  0  0  0  0  0  0
    0.4434   -1.5169   -0.6833 H   0  0  0  0  0  0  0  0  0  0  0  0
    2.2577   -0.1845    1.4643 H   0  0  0  0  0  0  0  0  0  0  0  0
    2.6691   -1.3744    0.1987 H   0  0  0  0  0  0  0  0  0  0  0  0
    3.1454    1.2735   -0.2524 H   0  0  0  0  0  0  0  0  0  0  0  0
    2.6731    0.1467   -1.5657 H   0  0  0  0  0  0  0  0  0  0  0  0
   -0.0930   -0.1193    2.0532 H   0  0  0  0  0  0  0  0  0  0  0  0
   -0.8919   -1.7101    1.4577 H   0  0  0  0  0  0  0  0  0  0  0  0
   -2.7005    1.6621   -0.1433 H   0  0  0  0  0  0  0  0  0  0  0  0
   -3.0881    0.4722    1.2188 H   0  0  0  0  0  0  0  0  0  0  0  0
   -2.4379   -0.2689   -1.7272 H   0  0  0  0  0  0  0  0  0  0  0  0
   -2.7722   -1.4353   -0.3468 H   0  0  0  0  0  0  0  0  0  0  0  0
  1  2  2  0
  2  3  1  0
  3  4  1  0
  4  5  1  0
  3  6  1  0
  6  7  1  0
  7  8  1  0
  8  9  1  0
  5  1  1  0
  9  7  1  0
  7  2  1  0
  1 10  1  0
  3 11  1  0
  4 12  1  0
  4 13  1  0
  5 14  1  0
  5 15  1  0
  6 16  1  0
  6 17  1  0
  8 18  1  0
  8 19  1  0
  9 20  1  0
  9 21  1  0
M  END
