
     RDKit          3D

 19 20  0  0  0  0  0  0  0  0999 V2000
    0.4101   -0.0529   -1.2251 C   0  0  0  0  0  0  0  0  0  0  0  0
   -0.3786   -0.4143   -0.2186 C   0  0  0  0  0  0  0  0  0  0  0  0
   -1.8262   -0.5168   -0.4625 C   0  0  0  0  0  0  0  0  0  0  0  0
   -2.6593    0.4094    0.4072 C   0  0  0  0  0  0  0  0  0  0  0  0
   -2.6676   -0.9614    0.5516 O   0  0  0  0  0  0  0  0  0  0  0  0
    0.2722   -0.6883    1.0865 C   0  0  0  0  0  0  0  0  0  0  0  0
    1.2262    0.2242    1.4337 O   0  0  0  0  0  0  0  0  0  0  0  0
    1.9875    0.7233    0.4244 C   0  0  0  0  0  0  0  0  0  0  0  0
    1.8683    0.0246   -0.8836 C   0  0  0  0  0  0  0  0  0  0  0  0
    0.0547    0.1735   -2.2234 H   0  0  0  0  0  0  0  0  0  0  0  0
   -2.1456   -0.6223   -1.5127 H   0  0  0  0  0  0  0  0  0  0  0  0
   -3.5226    0.9329   -0.0400 H   0  0  0  0  0  0  0  0  0  0  0  0
   -2.1883    0.9553    1.2290 H   0  0  0  0  0  0  0  0  0  0  0  0
    0.7100   -1.7072    1.0746 H   0  0  0  0  0  0  0  0  0  0  0  0
   -0.5155   -0.6680    1.8949 H   0  0  0  0  0  0  0  0  0  0  0  0
    1.6752    1.7976    0.2662 H   0  0  0  0  0  0  0  0  0  0  0  0
    3.0871    0.7770    0.6778 H   0  0  0  0  0  0  0  0  0  0  0  0
    2.3815    0.6236   -1.6599 H   0  0  0  0  0  0  0  0  0  0  0  0
    2.2311   -1.0102   -0.8200 H   0  0  0  0  0  0  0  0  0  0  0  0
  1  2  2  0
  2  3  1  0
  3  4  1  0
  4  5  1  0
  2  6  1  0
  6  7  1  0
  7  8  1  0
  8  9  1  0
  9  1  1  0
  5  3  1  0
  1 10  1  0
  3 11  1  0
  4 12  1  0
  4 13  1  0
  6 14  1  0
  6 15  1  0
  8 16  1  0
  8 17  1  0
  9 18  1  0
  9 19  1  0
M  END
