
     RDKit          3D

 19 21  0  0  0  0  0  0  0  0999 V2000
   -0.9622    0.1007   -1.2526 C   0  0  0  0  0  0  0  0  0  0  0  0
   -0.0332   -0.1487   -0.3336 C   0  0  0  0  0  0  0  0  0  0  0  0
    1.4439    0.0475   -0.4045 C   0  0  0  0  0  0  0  0  0  0  0  0
    2.2753   -0.5087    0.7035 C   0  0  0  0  0  0  0  0  0  0  0  0
    2.0503    0.9604    0.5835 C   0  0  0  0  0  0  0  0  0  0  0  0
   -0.8741   -0.6790    0.7888 C   0  0  0  0  0  0  0  0  0  0  0  0
   -1.9794    0.3232    0.8800 C   0  0  0  0  0  0  0  0  0  0  0  0
   -2.1971   -0.2457   -0.4973 C   0  0  0  0  0  0  0  0  0  0  0  0
   -1.7835   -1.4814    0.0597 O   0  0  0  0  0  0  0  0  0  0  0  0
   -0.9361    0.4500   -2.2659 H   0  0  0  0  0  0  0  0  0  0  0  0
    1.8207    0.0584   -1.4525 H   0  0  0  0  0  0  0  0  0  0  0  0
    1.7169   -1.0679    1.4827 H   0  0  0  0  0  0  0  0  0  0  0  0
    3.2393   -0.9598    0.3865 H   0  0  0  0  0  0  0  0  0  0  0  0
    1.3797    1.4052    1.3636 H   0  0  0  0  0  0  0  0  0  0  0  0
    2.8540    1.6415    0.2531 H   0  0  0  0  0  0  0  0  0  0  0  0
   -0.4121   -1.0819    1.6427 H   0  0  0  0  0  0  0  0  0  0  0  0
   -2.7760    0.0001    1.5629 H   0  0  0  0  0  0  0  0  0  0  0  0
   -1.6853    1.3813    0.9313 H   0  0  0  0  0  0  0  0  0  0  0  0
   -3.1411   -0.1951   -0.9617 H   0  0  0  0  0  0  0  0  0  0  0  0
  1  2  2  0
  2  3  1  0
  3  4  1  0
  4  5  1  0
  2  6  1  0
  6  7  1  0
  7  8  1  0
  8  9  1  0
  8  1  1  0
  5  3  1  0
  9  6  1  0
  1 10  1  0
  3 11  1  0
  4 12  1  0
  4 13  1  0
  5 14  1  0
  5 15  1  0
  6 16  1  0
  7 17  1  0
  7 18  1  0
  8 19  1  0
M  END
