
     RDKit          3D

 19 21  0  0  0  0  0  0  0  0999 V2000
    1.6507    0.7663    0.6285 C   0  0  0  0  0  0  0  0  0  0  0  0
    0.5928    1.4640    0.2308 C   0  0  0  0  0  0  0  0  0  0  0  0
   -0.4750    0.9151   -0.6058 C   0  0  0  0  0  0  0  0  0  0  0  0
   -0.5432   -0.5576   -0.6966 C   0  0  0  0  0  0  0  0  0  0  0  0
    0.5221   -1.3434   -0.0695 C   0  0  0  0  0  0  0  0  0  0  0  0
    1.7949   -0.6448    0.2257 C   0  0  0  0  0  0  0  0  0  0  0  0
   -1.8677   -0.4827    0.0749 C   0  0  0  0  0  0  0  0  0  0  0  0
   -2.8563    0.2239   -0.5867 O   0  0  0  0  0  0  0  0  0  0  0  0
   -1.8400    0.8785    0.1002 C   0  0  0  0  0  0  0  0  0  0  0  0
    2.4154    1.2190    1.2484 H   0  0  0  0  0  0  0  0  0  0  0  0
    0.5140    2.5014    0.5433 H   0  0  0  0  0  0  0  0  0  0  0  0
   -0.6341    1.4741   -1.5672 H   0  0  0  0  0  0  0  0  0  0  0  0
   -0.8072   -0.8787   -1.7465 H   0  0  0  0  0  0  0  0  0  0  0  0
    0.7646   -2.2230   -0.7368 H   0  0  0  0  0  0  0  0  0  0  0  0
    0.1475   -1.8218    0.8824 H   0  0  0  0  0  0  0  0  0  0  0  0
    2.4992   -0.6817   -0.6510 H   0  0  0  0  0  0  0  0  0  0  0  0
    2.2980   -1.1766    1.0876 H   0  0  0  0  0  0  0  0  0  0  0  0
   -2.1124   -1.2714    0.7871 H   0  0  0  0  0  0  0  0  0  0  0  0
   -2.0633    1.6394    0.8514 H   0  0  0  0  0  0  0  0  0  0  0  0
  1  2  2  0
  2  3  1  0
  3  4  1  0
  4  5  1  0
  5  6  1  0
  4  7  1  0
  7  8  1  0
  8  9  1  0
  6  1  1  0
  9  7  1  0
  9  3  1  0
  1 10  1  0
  2 11  1  0
  3 12  1  0
  4 13  1  0
  5 14  1  0
  5 15  1  0
  6 16  1  0
  6 17  1  0
  7 18  1  0
  9 19  1  0
M  END
