
     RDKit          3D

 13 14  0  0  0  0  0  0  0  0999 V2000
    0.5340   -1.1847   -0.0363 C   0  0  0  0  0  0  0  0  0  0  0  0
    1.3858   -0.1828    0.0903 C   0  0  0  0  0  0  0  0  0  0  0  0
    0.6499    1.0466   -0.3952 C   0  0  0  0  0  0  0  0  0  0  0  0
   -0.3223    1.4538    0.4986 O   0  0  0  0  0  0  0  0  0  0  0  0
   -1.1601    0.3470    0.6388 C   0  0  0  0  0  0  0  0  0  0  0  0
   -0.7136   -0.5378   -0.5068 C   0  0  0  0  0  0  0  0  0  0  0  0
   -0.1690    0.4263   -1.3769 O   0  0  0  0  0  0  0  0  0  0  0  0
    0.6437   -2.2236    0.1375 H   0  0  0  0  0  0  0  0  0  0  0  0
    2.4010   -0.2472    0.4671 H   0  0  0  0  0  0  0  0  0  0  0  0
    1.2909    1.8066   -0.7888 H   0  0  0  0  0  0  0  0  0  0  0  0
   -0.8697   -0.1115    1.6303 H   0  0  0  0  0  0  0  0  0  0  0  0
   -2.2175    0.5755    0.5707 H   0  0  0  0  0  0  0  0  0  0  0  0
   -1.4533   -1.1681   -0.9293 H   0  0  0  0  0  0  0  0  0  0  0  0
  1  2  2  0
  2  3  1  0
  3  4  1  0
  4  5  1  0
  5  6  1  0
  6  7  1  0
  6  1  1  0
  7  3  1  0
  1  8  1  0
  2  9  1  0
  3 10  1  0
  5 11  1  0
  5 12  1  0
  6 13  1  0
M  END
