
     RDKit          3D

 17 18  0  0  0  0  0  0  0  0999 V2000
    1.6645   -0.0058   -0.1715 C   0  0  0  0  0  0  0  0  0  0  0  0
    1.1434    1.2078   -0.1664 C   0  0  0  0  0  0  0  0  0  0  0  0
   -0.3468    1.4551   -0.0513 C   0  0  0  0  0  0  0  0  0  0  0  0
   -0.9799    0.1687   -0.4015 C   0  0  0  0  0  0  0  0  0  0  0  0
   -1.7363   -0.7825    0.3285 C   0  0  0  0  0  0  0  0  0  0  0  0
   -0.3658   -0.8159    0.6524 C   0  0  0  0  0  0  0  0  0  0  0  0
    0.8534   -1.2457   -0.0655 C   0  0  0  0  0  0  0  0  0  0  0  0
    2.7284   -0.0894   -0.2569 H   0  0  0  0  0  0  0  0  0  0  0  0
    1.7387    2.1176   -0.2418 H   0  0  0  0  0  0  0  0  0  0  0  0
   -0.5588    2.2259   -0.8254 H   0  0  0  0  0  0  0  0  0  0  0  0
   -0.6177    1.8773    0.9162 H   0  0  0  0  0  0  0  0  0  0  0  0
   -0.8047   -0.0660   -1.4897 H   0  0  0  0  0  0  0  0  0  0  0  0
   -2.1881   -1.6453   -0.2165 H   0  0  0  0  0  0  0  0  0  0  0  0
   -2.4667   -0.4093    1.0900 H   0  0  0  0  0  0  0  0  0  0  0  0
   -0.0758   -0.3546    1.6468 H   0  0  0  0  0  0  0  0  0  0  0  0
    1.3905   -2.0895    0.3819 H   0  0  0  0  0  0  0  0  0  0  0  0
    0.6218   -1.5483   -1.1293 H   0  0  0  0  0  0  0  0  0  0  0  0
  1  2  2  0
  2  3  1  0
  3  4  1  0
  4  5  1  0
  5  6  1  0
  6  7  1  0
  7  1  1  0
  6  4  1  0
  1  8  1  0
  2  9  1  0
  3 10  1  0
  3 11  1  0
  4 12  1  0
  5 13  1  0
  5 14  1  0
  6 15  1  0
  7 16  1  0
  7 17  1  0
M  END
