
     RDKit          3D

 18 19  0  0  0  0  0  0  0  0999 V2000
    2.2385   -0.0202    0.2146 C   0  0  0  0  0  0  0  0  0  0  0  0
    1.3867   -0.7804    0.8916 C   0  0  0  0  0  0  0  0  0  0  0  0
    0.1777   -0.8892    0.0750 C   0  0  0  0  0  0  0  0  0  0  0  0
   -1.0026   -0.1638    0.6018 C   0  0  0  0  0  0  0  0  0  0  0  0
   -2.3078   -0.2052   -0.1654 C   0  0  0  0  0  0  0  0  0  0  0  0
   -1.4732    1.0204   -0.2458 C   0  0  0  0  0  0  0  0  0  0  0  0
    0.4788   -0.3750   -1.1844 O   0  0  0  0  0  0  0  0  0  0  0  0
    1.6111    0.3955   -1.0742 C   0  0  0  0  0  0  0  0  0  0  0  0
    3.2338    0.2789    0.5032 H   0  0  0  0  0  0  0  0  0  0  0  0
    1.5559   -1.2305    1.8581 H   0  0  0  0  0  0  0  0  0  0  0  0
   -0.1066   -1.9502   -0.1068 H   0  0  0  0  0  0  0  0  0  0  0  0
   -1.0758    0.0656    1.7061 H   0  0  0  0  0  0  0  0  0  0  0  0
   -3.2516   -0.0939    0.4039 H   0  0  0  0  0  0  0  0  0  0  0  0
   -2.3853   -0.8615   -1.0476 H   0  0  0  0  0  0  0  0  0  0  0  0
   -0.9661    1.1894   -1.2274 H   0  0  0  0  0  0  0  0  0  0  0  0
   -1.7897    1.9416    0.2401 H   0  0  0  0  0  0  0  0  0  0  0  0
    1.4057    1.4779   -1.0069 H   0  0  0  0  0  0  0  0  0  0  0  0
    2.2707    0.2008   -1.9452 H   0  0  0  0  0  0  0  0  0  0  0  0
  1  2  2  0
  2  3  1  0
  3  4  1  0
  4  5  1  0
  5  6  1  0
  3  7  1  0
  7  8  1  0
  8  1  1  0
  6  4  1  0
  1  9  1  0
  2 10  1  0
  3 11  1  0
  4 12  1  0
  5 13  1  0
  5 14  1  0
  6 15  1  0
  6 16  1  0
  8 17  1  0
  8 18  1  0
M  END
