
     RDKit          3D

 17 18  0  0  0  0  0  0  0  0999 V2000
    1.6641    0.0890    0.1704 C   0  0  0  0  0  0  0  0  0  0  0  0
    0.9684    1.1695   -0.2044 C   0  0  0  0  0  0  0  0  0  0  0  0
   -0.4090    1.2294   -0.7173 C   0  0  0  0  0  0  0  0  0  0  0  0
   -1.3777    0.9727    0.3934 C   0  0  0  0  0  0  0  0  0  0  0  0
   -1.5122   -0.3475    0.4751 C   0  0  0  0  0  0  0  0  0  0  0  0
   -0.8535   -0.9429   -0.6905 C   0  0  0  0  0  0  0  0  0  0  0  0
    0.2263   -1.7342   -0.4145 O   0  0  0  0  0  0  0  0  0  0  0  0
    1.0996   -1.2266    0.5125 C   0  0  0  0  0  0  0  0  0  0  0  0
   -0.5926    0.1067   -1.5579 O   0  0  0  0  0  0  0  0  0  0  0  0
    2.7569    0.2114    0.2227 H   0  0  0  0  0  0  0  0  0  0  0  0
    1.4941    2.1156   -0.1152 H   0  0  0  0  0  0  0  0  0  0  0  0
   -0.6195    2.1674   -1.2535 H   0  0  0  0  0  0  0  0  0  0  0  0
   -1.8494    1.7380    0.9845 H   0  0  0  0  0  0  0  0  0  0  0  0
   -2.0301   -0.8449    1.2867 H   0  0  0  0  0  0  0  0  0  0  0  0
   -1.6160   -1.5920   -1.2119 H   0  0  0  0  0  0  0  0  0  0  0  0
    0.6902   -1.1609    1.5413 H   0  0  0  0  0  0  0  0  0  0  0  0
    1.9603   -1.9507    0.5788 H   0  0  0  0  0  0  0  0  0  0  0  0
  1  2  2  0
  2  3  1  0
  3  4  1  0
  4  5  2  0
  5  6  1  0
  6  7  1  0
  7  8  1  0
  6  9  1  0
  8  1  1  0
  9  3  1  0
  1 10  1  0
  2 11  1  0
  3 12  1  0
  4 13  1  0
  5 14  1  0
  6 15  1  0
  8 16  1  0
  8 17  1  0
M  END
