
     RDKit          3D

 19 20  0  0  0  0  0  0  0  0999 V2000
   -1.1614   -0.9425   -0.0880 C   0  0  0  0  0  0  0  0  0  0  0  0
   -0.3725    0.0422    0.3086 C   0  0  0  0  0  0  0  0  0  0  0  0
    1.0229   -0.0096    0.7212 C   0  0  0  0  0  0  0  0  0  0  0  0
    1.8519   -1.1619    0.2648 C   0  0  0  0  0  0  0  0  0  0  0  0
    2.9122   -0.2534    0.0541 O   0  0  0  0  0  0  0  0  0  0  0  0
    2.0023    0.8045   -0.0784 C   0  0  0  0  0  0  0  0  0  0  0  0
   -1.2065    1.2700    0.2590 C   0  0  0  0  0  0  0  0  0  0  0  0
   -2.5398    0.7998    0.2966 O   0  0  0  0  0  0  0  0  0  0  0  0
   -2.4971   -0.3867   -0.4018 C   0  0  0  0  0  0  0  0  0  0  0  0
   -0.9296   -2.0032   -0.1887 H   0  0  0  0  0  0  0  0  0  0  0  0
    1.2028    0.1838    1.8175 H   0  0  0  0  0  0  0  0  0  0  0  0
    1.5938   -1.6480   -0.6730 H   0  0  0  0  0  0  0  0  0  0  0  0
    2.0693   -1.8833    1.1055 H   0  0  0  0  0  0  0  0  0  0  0  0
    2.4206    1.6927    0.4317 H   0  0  0  0  0  0  0  0  0  0  0  0
    1.7018    1.0300   -1.1161 H   0  0  0  0  0  0  0  0  0  0  0  0
   -1.0889    1.8890    1.1843 H   0  0  0  0  0  0  0  0  0  0  0  0
   -1.0261    1.8642   -0.6610 H   0  0  0  0  0  0  0  0  0  0  0  0
   -3.3232   -1.0252    0.0048 H   0  0  0  0  0  0  0  0  0  0  0  0
   -2.6326   -0.2623   -1.4943 H   0  0  0  0  0  0  0  0  0  0  0  0
  1  2  2  0
  2  3  1  0
  3  4  1  0
  4  5  1  0
  5  6  1  0
  2  7  1  0
  7  8  1  0
  8  9  1  0
  9  1  1  0
  6  3  1  0
  1 10  1  0
  3 11  1  0
  4 12  1  0
  4 13  1  0
  6 14  1  0
  6 15  1  0
  7 16  1  0
  7 17  1  0
  9 18  1  0
  9 19  1  0
M  END
