
     RDKit          3D

 21 22  0  0  0  0  0  0  0  0999 V2000
   -1.2980    0.9351    0.6153 C   0  0  0  0  0  0  0  0  0  0  0  0
   -0.7219   -0.1689    0.1493 C   0  0  0  0  0  0  0  0  0  0  0  0
    0.6530   -0.6214    0.4179 C   0  0  0  0  0  0  0  0  0  0  0  0
    1.6071    0.4572    0.8888 C   0  0  0  0  0  0  0  0  0  0  0  0
    2.6397   -0.0739   -0.0565 C   0  0  0  0  0  0  0  0  0  0  0  0
    1.5323   -0.7699   -0.8158 C   0  0  0  0  0  0  0  0  0  0  0  0
   -1.7472   -0.8385   -0.6884 C   0  0  0  0  0  0  0  0  0  0  0  0
   -2.9572   -0.2919   -0.2580 O   0  0  0  0  0  0  0  0  0  0  0  0
   -2.6958    1.0099    0.0983 C   0  0  0  0  0  0  0  0  0  0  0  0
   -0.7768    1.6309    1.2661 H   0  0  0  0  0  0  0  0  0  0  0  0
    0.7473   -1.5425    1.0336 H   0  0  0  0  0  0  0  0  0  0  0  0
    1.8501    0.4296    1.9626 H   0  0  0  0  0  0  0  0  0  0  0  0
    1.2827    1.4746    0.5913 H   0  0  0  0  0  0  0  0  0  0  0  0
    3.3132   -0.7902    0.4528 H   0  0  0  0  0  0  0  0  0  0  0  0
    3.1523    0.7271   -0.6302 H   0  0  0  0  0  0  0  0  0  0  0  0
    1.1733   -0.2410   -1.7134 H   0  0  0  0  0  0  0  0  0  0  0  0
    1.7516   -1.8266   -1.0859 H   0  0  0  0  0  0  0  0  0  0  0  0
   -1.6450   -0.6136   -1.7665 H   0  0  0  0  0  0  0  0  0  0  0  0
   -1.7976   -1.9215   -0.5296 H   0  0  0  0  0  0  0  0  0  0  0  0
   -2.6628    1.6550   -0.8036 H   0  0  0  0  0  0  0  0  0  0  0  0
   -3.4002    1.3806    0.8718 H   0  0  0  0  0  0  0  0  0  0  0  0
  1  2  2  0
  2  3  1  0
  3  4  1  0
  4  5  1  0
  5  6  1  0
  2  7  1  0
  7  8  1  0
  8  9  1  0
  9  1  1  0
  6  3  1  0
  1 10  1  0
  3 11  1  0
  4 12  1  0
  4 13  1  0
  5 14  1  0
  5 15  1  0
  6 16  1  0
  6 17  1  0
  7 18  1  0
  7 19  1  0
  9 20  1  0
  9 21  1  0
M  END
