
     RDKit          3D

 16 18  0  0  0  0  0  0  0  0999 V2000
    1.5861    0.3759   -0.0365 C   0  0  0  0  0  0  0  0  0  0  0  0
    0.7622    1.3692   -0.3018 C   0  0  0  0  0  0  0  0  0  0  0  0
   -0.6874    1.1869   -0.2932 C   0  0  0  0  0  0  0  0  0  0  0  0
   -1.3710    0.0318   -0.8888 C   0  0  0  0  0  0  0  0  0  0  0  0
   -0.8894   -1.2512   -0.8495 O   0  0  0  0  0  0  0  0  0  0  0  0
   -0.3187   -1.1605    0.4222 C   0  0  0  0  0  0  0  0  0  0  0  0
    1.1626   -1.0052    0.2930 C   0  0  0  0  0  0  0  0  0  0  0  0
   -1.0667    0.1062    0.6308 C   0  0  0  0  0  0  0  0  0  0  0  0
    2.6564    0.5585   -0.0546 H   0  0  0  0  0  0  0  0  0  0  0  0
    1.2074    2.3315   -0.5275 H   0  0  0  0  0  0  0  0  0  0  0  0
   -1.2910    2.1168   -0.2189 H   0  0  0  0  0  0  0  0  0  0  0  0
   -2.4175    0.1286   -1.1991 H   0  0  0  0  0  0  0  0  0  0  0  0
   -0.6407   -1.9357    1.1423 H   0  0  0  0  0  0  0  0  0  0  0  0
    1.4948   -1.6415   -0.5821 H   0  0  0  0  0  0  0  0  0  0  0  0
    1.7229   -1.4155    1.1576 H   0  0  0  0  0  0  0  0  0  0  0  0
   -1.9102    0.2040    1.3061 H   0  0  0  0  0  0  0  0  0  0  0  0
  1  2  2  0
  2  3  1  0
  3  4  1  0
  4  5  1  0
  5  6  1  0
  6  7  1  0
  6  8  1  0
  7  1  1  0
  8  3  1  0
  8  4  1  0
  1  9  1  0
  2 10  1  0
  3 11  1  0
  4 12  1  0
  6 13  1  0
  7 14  1  0
  7 15  1  0
  8 16  1  0
M  END
