
     RDKit          3D

 19 21  0  0  0  0  0  0  0  0999 V2000
    2.0516   -0.2279    0.4272 C   0  0  0  0  0  0  0  0  0  0  0  0
    1.5201    0.9844    0.3231 C   0  0  0  0  0  0  0  0  0  0  0  0
    0.3295    0.8710   -0.4948 C   0  0  0  0  0  0  0  0  0  0  0  0
   -0.8286    1.6890   -0.3017 C   0  0  0  0  0  0  0  0  0  0  0  0
   -1.8902    0.9113   -0.2650 C   0  0  0  0  0  0  0  0  0  0  0  0
   -1.4590   -0.5330   -0.4353 C   0  0  0  0  0  0  0  0  0  0  0  0
   -0.9411   -0.9906    0.9214 C   0  0  0  0  0  0  0  0  0  0  0  0
   -0.1026   -0.5088   -0.1528 C   0  0  0  0  0  0  0  0  0  0  0  0
    1.1705   -1.2065   -0.3594 C   0  0  0  0  0  0  0  0  0  0  0  0
    2.9381   -0.5415    0.9518 H   0  0  0  0  0  0  0  0  0  0  0  0
    1.9197    1.8659    0.7720 H   0  0  0  0  0  0  0  0  0  0  0  0
    0.6382    0.8376   -1.6054 H   0  0  0  0  0  0  0  0  0  0  0  0
   -0.8611    2.8100   -0.1953 H   0  0  0  0  0  0  0  0  0  0  0  0
   -2.9047    1.2124   -0.1378 H   0  0  0  0  0  0  0  0  0  0  0  0
   -2.0756   -1.1854   -1.0408 H   0  0  0  0  0  0  0  0  0  0  0  0
   -0.9753   -2.1137    1.0078 H   0  0  0  0  0  0  0  0  0  0  0  0
   -1.2173   -0.4959    1.8462 H   0  0  0  0  0  0  0  0  0  0  0  0
    1.4987   -1.1968   -1.4027 H   0  0  0  0  0  0  0  0  0  0  0  0
    1.1892   -2.1816    0.1416 H   0  0  0  0  0  0  0  0  0  0  0  0
  1  2  2  0
  2  3  1  0
  3  4  1  0
  4  5  2  0
  5  6  1  0
  6  7  1  0
  7  8  1  0
  8  9  1  0
  9  1  1  0
  8  3  1  0
  8  6  1  0
  1 10  1  0
  2 11  1  0
  3 12  1  0
  4 13  1  0
  5 14  1  0
  6 15  1  0
  7 16  1  0
  7 17  1  0
  9 18  1  0
  9 19  1  0
M  END
