
     RDKit          3D

 23 24  0  0  0  0  0  0  0  0999 V2000
   -2.2587   -0.8304    0.0266 C   0  0  0  0  0  0  0  0  0  0  0  0
   -2.3746    0.4807   -0.0508 C   0  0  0  0  0  0  0  0  0  0  0  0
   -1.1881    1.3485    0.2425 C   0  0  0  0  0  0  0  0  0  0  0  0
    0.0400    0.7675   -0.3620 C   0  0  0  0  0  0  0  0  0  0  0  0
    1.3091    1.1834    0.3393 C   0  0  0  0  0  0  0  0  0  0  0  0
    2.2919    0.1407   -0.1318 C   0  0  0  0  0  0  0  0  0  0  0  0
    1.4926   -1.1623   -0.1111 C   0  0  0  0  0  0  0  0  0  0  0  0
    0.0937   -0.7159   -0.4554 C   0  0  0  0  0  0  0  0  0  0  0  0
   -0.9465   -1.3981    0.4038 C   0  0  0  0  0  0  0  0  0  0  0  0
   -3.0871   -1.4727   -0.1767 H   0  0  0  0  0  0  0  0  0  0  0  0
   -3.3410    0.8977   -0.3288 H   0  0  0  0  0  0  0  0  0  0  0  0
   -1.0998    1.5330    1.3409 H   0  0  0  0  0  0  0  0  0  0  0  0
   -1.4182    2.3395   -0.2316 H   0  0  0  0  0  0  0  0  0  0  0  0
    0.1351    1.1872   -1.4061 H   0  0  0  0  0  0  0  0  0  0  0  0
    1.6864    2.1706   -0.0052 H   0  0  0  0  0  0  0  0  0  0  0  0
    1.2050    1.2093    1.4391 H   0  0  0  0  0  0  0  0  0  0  0  0
    2.5818    0.3984   -1.1687 H   0  0  0  0  0  0  0  0  0  0  0  0
    3.1714    0.0512    0.5359 H   0  0  0  0  0  0  0  0  0  0  0  0
    1.5800   -1.6725    0.8462 H   0  0  0  0  0  0  0  0  0  0  0  0
    1.9196   -1.7812   -0.9427 H   0  0  0  0  0  0  0  0  0  0  0  0
   -0.1427   -1.0395   -1.5124 H   0  0  0  0  0  0  0  0  0  0  0  0
   -0.8587   -2.4800    0.2182 H   0  0  0  0  0  0  0  0  0  0  0  0
   -0.7911   -1.1552    1.4909 H   0  0  0  0  0  0  0  0  0  0  0  0
  1  2  2  0
  2  3  1  0
  3  4  1  0
  4  5  1  0
  5  6  1  0
  6  7  1  0
  7  8  1  0
  8  9  1  0
  9  1  1  0
  8  4  1  0
  1 10  1  0
  2 11  1  0
  3 12  1  0
  3 13  1  0
  4 14  1  0
  5 15  1  0
  5 16  1  0
  6 17  1  0
  6 18  1  0
  7 19  1  0
  7 20  1  0
  8 21  1  0
  9 22  1  0
  9 23  1  0
M  END
