
     RDKit          3D

 18 19  0  0  0  0  0  0  0  0999 V2000
   -1.0027    1.2929    0.3627 C   0  0  0  0  0  0  0  0  0  0  0  0
    0.1611    1.1571    0.9464 C   0  0  0  0  0  0  0  0  0  0  0  0
    1.0411    0.0188    0.6770 C   0  0  0  0  0  0  0  0  0  0  0  0
    1.8501    0.1020   -0.6136 C   0  0  0  0  0  0  0  0  0  0  0  0
    1.2175   -1.0648   -1.0444 O   0  0  0  0  0  0  0  0  0  0  0  0
    0.3992   -1.1746    0.0801 C   0  0  0  0  0  0  0  0  0  0  0  0
   -1.0626   -1.0800   -0.1748 C   0  0  0  0  0  0  0  0  0  0  0  0
   -1.5183    0.2835   -0.6298 C   0  0  0  0  0  0  0  0  0  0  0  0
   -1.6332    2.1613    0.5920 H   0  0  0  0  0  0  0  0  0  0  0  0
    0.4650    1.9247    1.6502 H   0  0  0  0  0  0  0  0  0  0  0  0
    1.6962   -0.2328    1.5627 H   0  0  0  0  0  0  0  0  0  0  0  0
    1.6171    1.0115   -1.2157 H   0  0  0  0  0  0  0  0  0  0  0  0
    2.9448    0.0138   -0.4642 H   0  0  0  0  0  0  0  0  0  0  0  0
    0.6087   -2.1113    0.6747 H   0  0  0  0  0  0  0  0  0  0  0  0
   -1.5943   -1.3047    0.7726 H   0  0  0  0  0  0  0  0  0  0  0  0
   -1.3325   -1.8244   -0.9568 H   0  0  0  0  0  0  0  0  0  0  0  0
   -1.2340    0.5282   -1.6513 H   0  0  0  0  0  0  0  0  0  0  0  0
   -2.6233    0.2989   -0.5678 H   0  0  0  0  0  0  0  0  0  0  0  0
  1  2  2  0
  2  3  1  0
  3  4  1  0
  4  5  1  0
  5  6  1  0
  6  7  1  0
  7  8  1  0
  8  1  1  0
  6  3  1  0
  1  9  1  0
  2 10  1  0
  3 11  1  0
  4 12  1  0
  4 13  1  0
  6 14  1  0
  7 15  1  0
  7 16  1  0
  8 17  1  0
  8 18  1  0
M  END
