
     RDKit          3D

 17 19  0  0  0  0  0  0  0  0999 V2000
   -1.2197   -0.0725    1.0934 C   0  0  0  0  0  0  0  0  0  0  0  0
   -1.6077    0.5756   -0.0215 C   0  0  0  0  0  0  0  0  0  0  0  0
   -0.4873    0.4734   -1.0300 C   0  0  0  0  0  0  0  0  0  0  0  0
   -0.5240   -0.8564   -1.4672 O   0  0  0  0  0  0  0  0  0  0  0  0
   -0.1736   -1.6526   -0.3733 C   0  0  0  0  0  0  0  0  0  0  0  0
    0.1144   -0.6743    0.7563 C   0  0  0  0  0  0  0  0  0  0  0  0
    0.6780    0.4404   -0.0953 C   0  0  0  0  0  0  0  0  0  0  0  0
    1.8742    1.0456   -0.0834 C   0  0  0  0  0  0  0  0  0  0  0  0
    0.7642    1.7146    0.6502 O   0  0  0  0  0  0  0  0  0  0  0  0
   -1.7736   -0.1284    2.0171 H   0  0  0  0  0  0  0  0  0  0  0  0
   -2.5170    1.0882   -0.2295 H   0  0  0  0  0  0  0  0  0  0  0  0
   -0.4975    1.2047   -1.7943 H   0  0  0  0  0  0  0  0  0  0  0  0
   -0.9813   -2.3675   -0.1103 H   0  0  0  0  0  0  0  0  0  0  0  0
    0.7207   -2.2376   -0.6511 H   0  0  0  0  0  0  0  0  0  0  0  0
    0.6967   -1.0242    1.5601 H   0  0  0  0  0  0  0  0  0  0  0  0
    2.2654    1.6819   -0.8867 H   0  0  0  0  0  0  0  0  0  0  0  0
    2.6680    0.7891    0.6655 H   0  0  0  0  0  0  0  0  0  0  0  0
  1  2  2  0
  2  3  1  0
  3  4  1  0
  4  5  1  0
  5  6  1  0
  6  7  1  0
  7  8  1  0
  8  9  1  0
  6  1  1  0
  9  7  1  0
  7  3  1  0
  1 10  1  0
  2 11  1  0
  3 12  1  0
  5 13  1  0
  5 14  1  0
  6 15  1  0
  8 16  1  0
  8 17  1  0
M  END
