
     RDKit          3D

 19 21  0  0  0  0  0  0  0  0999 V2000
    1.2144   -1.2431    0.3148 C   0  0  0  0  0  0  0  0  0  0  0  0
    1.9776   -0.1857    0.4766 C   0  0  0  0  0  0  0  0  0  0  0  0
    1.4264    0.9812   -0.2602 C   0  0  0  0  0  0  0  0  0  0  0  0
    0.1345    1.5087    0.1996 C   0  0  0  0  0  0  0  0  0  0  0  0
   -0.6442    0.9261    1.1570 O   0  0  0  0  0  0  0  0  0  0  0  0
   -1.7399    0.3391    0.4782 C   0  0  0  0  0  0  0  0  0  0  0  0
   -1.2635   -1.0671    0.1717 C   0  0  0  0  0  0  0  0  0  0  0  0
    0.0700   -0.9116   -0.5444 C   0  0  0  0  0  0  0  0  0  0  0  0
    0.2412    0.5035   -0.9565 C   0  0  0  0  0  0  0  0  0  0  0  0
    1.4134   -2.2369    0.7651 H   0  0  0  0  0  0  0  0  0  0  0  0
    2.8969   -0.2090    1.0880 H   0  0  0  0  0  0  0  0  0  0  0  0
    2.1342    1.6981   -0.7013 H   0  0  0  0  0  0  0  0  0  0  0  0
   -0.1059    2.5521   -0.0420 H   0  0  0  0  0  0  0  0  0  0  0  0
   -1.9412    0.8562   -0.4629 H   0  0  0  0  0  0  0  0  0  0  0  0
   -2.6454    0.3436    1.1112 H   0  0  0  0  0  0  0  0  0  0  0  0
   -1.1457   -1.6225    1.1313 H   0  0  0  0  0  0  0  0  0  0  0  0
   -1.9777   -1.5850   -0.5006 H   0  0  0  0  0  0  0  0  0  0  0  0
    0.0605   -1.5139   -1.4877 H   0  0  0  0  0  0  0  0  0  0  0  0
   -0.1057    0.8663   -1.9379 H   0  0  0  0  0  0  0  0  0  0  0  0
  1  2  2  0
  2  3  1  0
  3  4  1  0
  4  5  1  0
  5  6  1  0
  6  7  1  0
  7  8  1  0
  8  9  1  0
  8  1  1  0
  9  3  1  0
  9  4  1  0
  1 10  1  0
  2 11  1  0
  3 12  1  0
  4 13  1  0
  6 14  1  0
  6 15  1  0
  7 16  1  0
  7 17  1  0
  8 18  1  0
  9 19  1  0
M  END
