
     RDKit          3D

 21 22  0  0  0  0  0  0  0  0999 V2000
   -1.1135    1.2799   -0.7166 C   0  0  0  0  0  0  0  0  0  0  0  0
   -1.6240    0.0738   -0.8414 C   0  0  0  0  0  0  0  0  0  0  0  0
   -1.5593   -1.0560    0.1588 C   0  0  0  0  0  0  0  0  0  0  0  0
   -0.1087   -1.4628    0.2374 C   0  0  0  0  0  0  0  0  0  0  0  0
    0.8279   -0.3369   -0.1201 C   0  0  0  0  0  0  0  0  0  0  0  0
    0.7526    0.8319    0.7910 C   0  0  0  0  0  0  0  0  0  0  0  0
   -0.3453    1.8084    0.4586 C   0  0  0  0  0  0  0  0  0  0  0  0
    2.2374   -0.7570   -0.5056 C   0  0  0  0  0  0  0  0  0  0  0  0
    1.3213   -0.2523   -1.3957 O   0  0  0  0  0  0  0  0  0  0  0  0
   -1.2343    2.0035   -1.5205 H   0  0  0  0  0  0  0  0  0  0  0  0
   -2.1377   -0.1077   -1.7592 H   0  0  0  0  0  0  0  0  0  0  0  0
   -2.2368   -1.8697   -0.0936 H   0  0  0  0  0  0  0  0  0  0  0  0
   -1.8043   -0.5666    1.1415 H   0  0  0  0  0  0  0  0  0  0  0  0
    0.1555   -1.9440    1.1802 H   0  0  0  0  0  0  0  0  0  0  0  0
    0.0331   -2.2459   -0.5639 H   0  0  0  0  0  0  0  0  0  0  0  0
    1.7083    1.4075    0.7707 H   0  0  0  0  0  0  0  0  0  0  0  0
    0.6723    0.4464    1.8422 H   0  0  0  0  0  0  0  0  0  0  0  0
   -0.0201    2.8346    0.3322 H   0  0  0  0  0  0  0  0  0  0  0  0
   -1.0706    1.7791    1.3172 H   0  0  0  0  0  0  0  0  0  0  0  0
    3.0755   -0.0510   -0.2782 H   0  0  0  0  0  0  0  0  0  0  0  0
    2.4706   -1.8155   -0.4352 H   0  0  0  0  0  0  0  0  0  0  0  0
  1  2  2  0
  2  3  1  0
  3  4  1  0
  4  5  1  0
  5  6  1  0
  6  7  1  0
  5  8  1  0
  8  9  1  0
  7  1  1  0
  9  5  1  0
  1 10  1  0
  2 11  1  0
  3 12  1  0
  3 13  1  0
  4 14  1  0
  4 15  1  0
  6 16  1  0
  6 17  1  0
  7 18  1  0
  7 19  1  0
  8 20  1  0
  8 21  1  0
M  END
