
     RDKit          3D

 19 19  0  0  0  0  0  0  0  0999 V2000
   -0.0034    2.1516   -0.0957 C   0  0  0  0  0  0  0  0  0  0  0  0
    1.2279    1.6259   -0.0998 C   0  0  0  0  0  0  0  0  0  0  0  0
    1.2733    0.2258   -0.1665 C   0  0  0  0  0  0  0  0  0  0  0  0
    2.0819   -0.7822   -0.2792 O   0  0  0  0  0  0  0  0  0  0  0  0
    1.1492   -1.8856   -0.0859 C   0  0  0  0  0  0  0  0  0  0  0  0
   -0.1008   -1.5870   -0.5118 O   0  0  0  0  0  0  0  0  0  0  0  0
   -1.1003   -1.1302    0.2668 C   0  0  0  0  0  0  0  0  0  0  0  0
   -1.6706    0.2106   -0.0265 C   0  0  0  0  0  0  0  0  0  0  0  0
   -1.2527    1.4043   -0.1556 C   0  0  0  0  0  0  0  0  0  0  0  0
   -0.0007    3.2716   -0.0353 H   0  0  0  0  0  0  0  0  0  0  0  0
    2.0734    2.2749   -0.0538 H   0  0  0  0  0  0  0  0  0  0  0  0
    0.8504    0.0097    0.8732 H   0  0  0  0  0  0  0  0  0  0  0  0
    0.5699    0.0134   -1.0293 H   0  0  0  0  0  0  0  0  0  0  0  0
    1.5759   -2.7975   -0.5423 H   0  0  0  0  0  0  0  0  0  0  0  0
    1.1095   -2.0268    1.0225 H   0  0  0  0  0  0  0  0  0  0  0  0
   -1.9057   -1.9379    0.0981 H   0  0  0  0  0  0  0  0  0  0  0  0
   -0.9846   -1.3009    1.3844 H   0  0  0  0  0  0  0  0  0  0  0  0
   -2.8019    0.1139   -0.1686 H   0  0  0  0  0  0  0  0  0  0  0  0
   -2.0906    2.1463   -0.3947 H   0  0  0  0  0  0  0  0  0  0  0  0
  1  2  2  3
  2  3  1  0
  3  4  1  0
  4  5  1  0
  5  6  1  0
  6  7  1  0
  7  8  1  0
  8  9  2  3
  9  1  1  0
  1 10  1  0
  2 11  1  0
  3 12  1  0
  3 13  1  0
  5 14  1  0
  5 15  1  0
  7 16  1  0
  7 17  1  0
  8 18  1  0
  9 19  1  0
M  END
