
     RDKit          3D

 19 21  0  0  0  0  0  0  0  0999 V2000
    0.0997    1.6763    0.7465 C   0  0  0  0  0  0  0  0  0  0  0  0
   -1.1027    1.3733    0.2951 C   0  0  0  0  0  0  0  0  0  0  0  0
   -1.2611    0.1853   -0.5137 C   0  0  0  0  0  0  0  0  0  0  0  0
   -1.7688   -1.1162   -0.1180 C   0  0  0  0  0  0  0  0  0  0  0  0
   -0.3824   -0.9126    0.1481 C   0  0  0  0  0  0  0  0  0  0  0  0
    0.8186   -1.2081   -0.6649 C   0  0  0  0  0  0  0  0  0  0  0  0
    1.6710    0.0232   -0.3078 C   0  0  0  0  0  0  0  0  0  0  0  0
    1.0246    0.5011    0.9702 C   0  0  0  0  0  0  0  0  0  0  0  0
    0.1273   -0.5179    1.3681 O   0  0  0  0  0  0  0  0  0  0  0  0
    0.4237    2.6961    0.9514 H   0  0  0  0  0  0  0  0  0  0  0  0
   -1.9290    2.0094    0.5340 H   0  0  0  0  0  0  0  0  0  0  0  0
   -1.1286    0.3604   -1.6080 H   0  0  0  0  0  0  0  0  0  0  0  0
   -2.0740   -1.8132   -0.9127 H   0  0  0  0  0  0  0  0  0  0  0  0
   -2.4456   -1.2213    0.7809 H   0  0  0  0  0  0  0  0  0  0  0  0
    0.6171   -1.1358   -1.7433 H   0  0  0  0  0  0  0  0  0  0  0  0
    1.3309   -2.1399   -0.4633 H   0  0  0  0  0  0  0  0  0  0  0  0
    2.7284   -0.2608   -0.1792 H   0  0  0  0  0  0  0  0  0  0  0  0
    1.5210    0.8176   -1.0638 H   0  0  0  0  0  0  0  0  0  0  0  0
    1.7297    0.6829    1.7804 H   0  0  0  0  0  0  0  0  0  0  0  0
  1  2  2  0
  2  3  1  0
  3  4  1  0
  4  5  1  0
  5  6  1  0
  6  7  1  0
  7  8  1  0
  8  9  1  0
  8  1  1  0
  5  3  1  0
  9  5  1  0
  1 10  1  0
  2 11  1  0
  3 12  1  0
  4 13  1  0
  4 14  1  0
  6 15  1  0
  6 16  1  0
  7 17  1  0
  7 18  1  0
  8 19  1  0
M  END
