
     RDKit          3D

 21 23  0  0  0  0  0  0  0  0999 V2000
   -2.0685    0.1613   -0.3484 C   0  0  0  0  0  0  0  0  0  0  0  0
   -1.6386   -1.0692   -0.5721 C   0  0  0  0  0  0  0  0  0  0  0  0
   -0.2438   -1.5066   -0.2840 C   0  0  0  0  0  0  0  0  0  0  0  0
    0.0774   -1.2783    1.2095 C   0  0  0  0  0  0  0  0  0  0  0  0
    0.5906   -0.4585    0.1372 C   0  0  0  0  0  0  0  0  0  0  0  0
    1.9799   -0.0421   -0.0509 C   0  0  0  0  0  0  0  0  0  0  0  0
    1.4310    1.3817    0.2326 C   0  0  0  0  0  0  0  0  0  0  0  0
    0.1713    0.8619   -0.3503 C   0  0  0  0  0  0  0  0  0  0  0  0
   -1.1552    1.1989    0.2170 C   0  0  0  0  0  0  0  0  0  0  0  0
   -3.0881    0.4032   -0.5807 H   0  0  0  0  0  0  0  0  0  0  0  0
   -2.3242   -1.8007   -0.9834 H   0  0  0  0  0  0  0  0  0  0  0  0
    0.0742   -2.4722   -0.7167 H   0  0  0  0  0  0  0  0  0  0  0  0
    0.7983   -2.0321    1.6388 H   0  0  0  0  0  0  0  0  0  0  0  0
   -0.6925   -0.9875    1.9049 H   0  0  0  0  0  0  0  0  0  0  0  0
    2.4462   -0.1169   -1.0379 H   0  0  0  0  0  0  0  0  0  0  0  0
    2.6377   -0.3777    0.7895 H   0  0  0  0  0  0  0  0  0  0  0  0
    1.9762    2.1309   -0.3845 H   0  0  0  0  0  0  0  0  0  0  0  0
    1.4275    1.6096    1.3068 H   0  0  0  0  0  0  0  0  0  0  0  0
    0.1799    1.0038   -1.4721 H   0  0  0  0  0  0  0  0  0  0  0  0
   -1.4658    2.2287   -0.0575 H   0  0  0  0  0  0  0  0  0  0  0  0
   -1.1136    1.1618    1.3205 H   0  0  0  0  0  0  0  0  0  0  0  0
  1  2  2  0
  2  3  1  0
  3  4  1  0
  4  5  1  0
  5  6  1  0
  6  7  1  0
  7  8  1  0
  8  9  1  0
  9  1  1  0
  5  3  1  0
  8  5  1  0
  1 10  1  0
  2 11  1  0
  3 12  1  0
  4 13  1  0
  4 14  1  0
  6 15  1  0
  6 16  1  0
  7 17  1  0
  7 18  1  0
  8 19  1  0
  9 20  1  0
  9 21  1  0
M  END
