
     RDKit          3D

 21 23  0  0  0  0  0  0  0  0999 V2000
    1.6440    1.1734   -0.0879 C   0  0  0  0  0  0  0  0  0  0  0  0
    0.3843    1.5854   -0.0034 C   0  0  0  0  0  0  0  0  0  0  0  0
   -0.6661    0.6540    0.3678 C   0  0  0  0  0  0  0  0  0  0  0  0
   -1.9724    0.5976   -0.3772 C   0  0  0  0  0  0  0  0  0  0  0  0
   -1.6206   -0.8425   -0.7387 C   0  0  0  0  0  0  0  0  0  0  0  0
   -0.3460   -0.7445    0.0906 C   0  0  0  0  0  0  0  0  0  0  0  0
    0.9561   -1.0662   -0.5332 C   0  0  0  0  0  0  0  0  0  0  0  0
    2.0322   -0.2528    0.1920 C   0  0  0  0  0  0  0  0  0  0  0  0
   -0.5149   -0.2951    1.4820 C   0  0  0  0  0  0  0  0  0  0  0  0
    2.4246    1.8721   -0.3650 H   0  0  0  0  0  0  0  0  0  0  0  0
    0.2143    2.6539   -0.2308 H   0  0  0  0  0  0  0  0  0  0  0  0
   -2.8283    0.6830    0.3238 H   0  0  0  0  0  0  0  0  0  0  0  0
   -2.0937    1.2672   -1.2255 H   0  0  0  0  0  0  0  0  0  0  0  0
   -1.4760   -1.0383   -1.8019 H   0  0  0  0  0  0  0  0  0  0  0  0
   -2.3080   -1.5745   -0.2595 H   0  0  0  0  0  0  0  0  0  0  0  0
    1.1713   -2.1419   -0.4241 H   0  0  0  0  0  0  0  0  0  0  0  0
    1.0327   -0.7738   -1.6029 H   0  0  0  0  0  0  0  0  0  0  0  0
    3.0342   -0.4693   -0.2329 H   0  0  0  0  0  0  0  0  0  0  0  0
    2.0723   -0.4873    1.2546 H   0  0  0  0  0  0  0  0  0  0  0  0
    0.2975   -0.1073    2.1782 H   0  0  0  0  0  0  0  0  0  0  0  0
   -1.4376   -0.6930    1.9938 H   0  0  0  0  0  0  0  0  0  0  0  0
  1  2  2  0
  2  3  1  0
  3  4  1  0
  4  5  1  0
  5  6  1  0
  6  7  1  0
  7  8  1  0
  6  9  1  0
  8  1  1  0
  6  3  1  0
  9  3  1  0
  1 10  1  0
  2 11  1  0
  4 12  1  0
  4 13  1  0
  5 14  1  0
  5 15  1  0
  7 16  1  0
  7 17  1  0
  8 18  1  0
  8 19  1  0
  9 20  1  0
  9 21  1  0
M  END
