
     RDKit          3D

 19 20  0  0  0  0  0  0  0  0999 V2000
    0.6924    1.6860    0.2947 C   0  0  0  0  0  0  0  0  0  0  0  0
   -0.6281    1.7085    0.3613 C   0  0  0  0  0  0  0  0  0  0  0  0
   -1.6395    0.6278    0.2486 C   0  0  0  0  0  0  0  0  0  0  0  0
   -1.1453   -0.3500   -0.7690 C   0  0  0  0  0  0  0  0  0  0  0  0
   -0.5400   -1.5876   -0.1674 C   0  0  0  0  0  0  0  0  0  0  0  0
   -0.1136   -1.5685    1.1584 O   0  0  0  0  0  0  0  0  0  0  0  0
    0.8274   -1.7070   -0.0047 C   0  0  0  0  0  0  0  0  0  0  0  0
    1.7503   -0.6015   -0.0089 C   0  0  0  0  0  0  0  0  0  0  0  0
    1.7793    0.7318    0.1002 C   0  0  0  0  0  0  0  0  0  0  0  0
    1.0591    2.7063    0.4293 H   0  0  0  0  0  0  0  0  0  0  0  0
   -1.0515    2.6970    0.5290 H   0  0  0  0  0  0  0  0  0  0  0  0
   -1.7351    0.0687    1.2184 H   0  0  0  0  0  0  0  0  0  0  0  0
   -2.6435    1.0363    0.0178 H   0  0  0  0  0  0  0  0  0  0  0  0
   -0.3456    0.0935   -1.4339 H   0  0  0  0  0  0  0  0  0  0  0  0
   -1.9913   -0.5596   -1.4615 H   0  0  0  0  0  0  0  0  0  0  0  0
   -1.1326   -2.4979   -0.4077 H   0  0  0  0  0  0  0  0  0  0  0  0
    1.3009   -2.7268    0.0087 H   0  0  0  0  0  0  0  0  0  0  0  0
    2.7929   -0.9320   -0.1473 H   0  0  0  0  0  0  0  0  0  0  0  0
    2.7637    1.1749    0.0339 H   0  0  0  0  0  0  0  0  0  0  0  0
  1  2  2  3
  2  3  1  0
  3  4  1  0
  4  5  1  0
  5  6  1  0
  6  7  1  0
  7  8  1  0
  8  9  2  3
  9  1  1  0
  7  5  1  0
  1 10  1  0
  2 11  1  0
  3 12  1  0
  3 13  1  0
  4 14  1  0
  4 15  1  0
  5 16  1  0
  7 17  1  0
  8 18  1  0
  9 19  1  0
M  END
