
     RDKit          3D

 16 18  0  0  0  0  0  0  0  0999 V2000
    1.3191   -1.1971    0.3305 C   0  0  0  0  0  0  0  0  0  0  0  0
    0.0821   -0.7954    0.1240 C   0  0  0  0  0  0  0  0  0  0  0  0
   -1.3817   -0.6991   -0.0388 C   0  0  0  0  0  0  0  0  0  0  0  0
   -2.1748    0.4813    0.2380 C   0  0  0  0  0  0  0  0  0  0  0  0
   -1.0367    0.6786   -0.7244 C   0  0  0  0  0  0  0  0  0  0  0  0
    0.2581    0.7223   -0.0393 C   0  0  0  0  0  0  0  0  0  0  0  0
    1.4767    0.8342   -0.6278 O   0  0  0  0  0  0  0  0  0  0  0  0
    2.2871   -0.0434    0.1648 C   0  0  0  0  0  0  0  0  0  0  0  0
    1.6080   -2.2287    0.5878 H   0  0  0  0  0  0  0  0  0  0  0  0
   -1.8720   -1.4532   -0.7239 H   0  0  0  0  0  0  0  0  0  0  0  0
   -3.1689    0.5965   -0.2509 H   0  0  0  0  0  0  0  0  0  0  0  0
   -2.0943    1.1003    1.1630 H   0  0  0  0  0  0  0  0  0  0  0  0
   -1.1847    0.7057   -1.7981 H   0  0  0  0  0  0  0  0  0  0  0  0
    0.1717    1.2009    0.9793 H   0  0  0  0  0  0  0  0  0  0  0  0
    3.1314   -0.3000   -0.4951 H   0  0  0  0  0  0  0  0  0  0  0  0
    2.5786    0.3972    1.1108 H   0  0  0  0  0  0  0  0  0  0  0  0
  1  2  2  0
  2  3  1  0
  3  4  1  0
  4  5  1  0
  5  6  1  0
  6  7  1  0
  7  8  1  0
  8  1  1  0
  6  2  1  0
  5  3  1  0
  1  9  1  0
  3 10  1  0
  4 11  1  0
  4 12  1  0
  5 13  1  0
  6 14  1  0
  8 15  1  0
  8 16  1  0
M  END
