
     RDKit          3D

 15 16  0  0  0  0  0  0  0  0999 V2000
   -1.5132    0.6196    0.1983 C   0  0  0  0  0  0  0  0  0  0  0  0
   -0.3875    1.2487   -0.0899 C   0  0  0  0  0  0  0  0  0  0  0  0
    0.8856    0.6072   -0.5002 C   0  0  0  0  0  0  0  0  0  0  0  0
    1.8063   -0.0057    0.4659 C   0  0  0  0  0  0  0  0  0  0  0  0
    0.7787   -0.8495   -0.2999 C   0  0  0  0  0  0  0  0  0  0  0  0
   -0.2358   -1.3142    0.4792 O   0  0  0  0  0  0  0  0  0  0  0  0
   -1.4993   -0.8710    0.1016 C   0  0  0  0  0  0  0  0  0  0  0  0
   -2.4295    1.1262    0.4959 H   0  0  0  0  0  0  0  0  0  0  0  0
   -0.4435    2.3505   -0.0050 H   0  0  0  0  0  0  0  0  0  0  0  0
    1.3300    1.0261   -1.4284 H   0  0  0  0  0  0  0  0  0  0  0  0
    2.8650   -0.1031    0.1650 H   0  0  0  0  0  0  0  0  0  0  0  0
    1.6815    0.1110    1.5582 H   0  0  0  0  0  0  0  0  0  0  0  0
    1.1809   -1.4779   -1.1406 H   0  0  0  0  0  0  0  0  0  0  0  0
   -2.2027   -1.2308    0.8799 H   0  0  0  0  0  0  0  0  0  0  0  0
   -1.8164   -1.2372   -0.8798 H   0  0  0  0  0  0  0  0  0  0  0  0
  1  2  2  0
  2  3  1  0
  3  4  1  0
  4  5  1  0
  5  6  1  0
  6  7  1  0
  7  1  1  0
  5  3  1  0
  1  8  1  0
  2  9  1  0
  3 10  1  0
  4 11  1  0
  4 12  1  0
  5 13  1  0
  7 14  1  0
  7 15  1  0
M  END
