
     RDKit          3D

 21 21  0  0  0  0  0  0  0  0999 V2000
    0.2141    1.8518    0.5319 C   0  0  0  0  0  0  0  0  0  0  0  0
   -1.0200    1.4198    0.5351 C   0  0  0  0  0  0  0  0  0  0  0  0
   -1.5341    0.4379   -0.4474 C   0  0  0  0  0  0  0  0  0  0  0  0
   -1.7772   -0.8869    0.1705 C   0  0  0  0  0  0  0  0  0  0  0  0
   -0.6585   -1.3624    0.8017 O   0  0  0  0  0  0  0  0  0  0  0  0
    0.3738   -1.6123   -0.1023 C   0  0  0  0  0  0  0  0  0  0  0  0
    1.5856   -0.8743    0.3593 C   0  0  0  0  0  0  0  0  0  0  0  0
    1.8883    0.3117   -0.4532 C   0  0  0  0  0  0  0  0  0  0  0  0
    1.2900    1.4913   -0.3720 C   0  0  0  0  0  0  0  0  0  0  0  0
    0.4546    2.5986    1.3057 H   0  0  0  0  0  0  0  0  0  0  0  0
   -1.7571    1.7659    1.2782 H   0  0  0  0  0  0  0  0  0  0  0  0
   -0.8591    0.3906   -1.3223 H   0  0  0  0  0  0  0  0  0  0  0  0
   -2.5128    0.8044   -0.8612 H   0  0  0  0  0  0  0  0  0  0  0  0
   -2.6153   -0.8329    0.8960 H   0  0  0  0  0  0  0  0  0  0  0  0
   -2.0667   -1.6188   -0.6088 H   0  0  0  0  0  0  0  0  0  0  0  0
    0.5484   -2.7107   -0.0857 H   0  0  0  0  0  0  0  0  0  0  0  0
    0.1349   -1.3541   -1.1290 H   0  0  0  0  0  0  0  0  0  0  0  0
    1.4668   -0.6475    1.4398 H   0  0  0  0  0  0  0  0  0  0  0  0
    2.4488   -1.5991    0.3398 H   0  0  0  0  0  0  0  0  0  0  0  0
    2.6986    0.1710   -1.1999 H   0  0  0  0  0  0  0  0  0  0  0  0
    1.6968    2.2562   -1.0763 H   0  0  0  0  0  0  0  0  0  0  0  0
  1  2  2  3
  2  3  1  0
  3  4  1  0
  4  5  1  0
  5  6  1  0
  6  7  1  0
  7  8  1  0
  8  9  2  3
  9  1  1  0
  1 10  1  0
  2 11  1  0
  3 12  1  0
  3 13  1  0
  4 14  1  0
  4 15  1  0
  6 16  1  0
  6 17  1  0
  7 18  1  0
  7 19  1  0
  8 20  1  0
  9 21  1  0
M  END
