
     RDKit          3D

 17 19  0  0  0  0  0  0  0  0999 V2000
   -0.9788    0.9150   -1.0685 C   0  0  0  0  0  0  0  0  0  0  0  0
    0.3195    1.1197   -0.9112 C   0  0  0  0  0  0  0  0  0  0  0  0
    0.9462    0.3437    0.1973 C   0  0  0  0  0  0  0  0  0  0  0  0
    2.0934   -0.4604   -0.1247 C   0  0  0  0  0  0  0  0  0  0  0  0
    2.1459    0.7524    0.7285 O   0  0  0  0  0  0  0  0  0  0  0  0
   -0.1428   -0.1669    1.0885 C   0  0  0  0  0  0  0  0  0  0  0  0
   -1.0654   -1.1147    0.3556 C   0  0  0  0  0  0  0  0  0  0  0  0
   -1.7113    0.1950   -0.0020 C   0  0  0  0  0  0  0  0  0  0  0  0
   -1.2147    0.7010    1.2209 O   0  0  0  0  0  0  0  0  0  0  0  0
   -1.4922    1.2625   -1.9496 H   0  0  0  0  0  0  0  0  0  0  0  0
    0.9024    1.8042   -1.5400 H   0  0  0  0  0  0  0  0  0  0  0  0
    2.6824   -0.2586   -1.0410 H   0  0  0  0  0  0  0  0  0  0  0  0
    2.3713   -1.3739    0.4127 H   0  0  0  0  0  0  0  0  0  0  0  0
    0.2111   -0.6095    2.0600 H   0  0  0  0  0  0  0  0  0  0  0  0
   -1.6792   -1.6729    1.0620 H   0  0  0  0  0  0  0  0  0  0  0  0
   -0.5935   -1.6720   -0.4657 H   0  0  0  0  0  0  0  0  0  0  0  0
   -2.7943    0.2355   -0.0227 H   0  0  0  0  0  0  0  0  0  0  0  0
  1  2  2  0
  2  3  1  0
  3  4  1  0
  4  5  1  0
  3  6  1  0
  6  7  1  0
  7  8  1  0
  8  9  1  0
  8  1  1  0
  5  3  1  0
  9  6  1  0
  1 10  1  0
  2 11  1  0
  4 12  1  0
  4 13  1  0
  6 14  1  0
  7 15  1  0
  7 16  1  0
  8 17  1  0
M  END
