
     RDKit          3D

 21 22  0  0  0  0  0  0  0  0999 V2000
   -0.7921    1.5372    0.3619 C   0  0  0  0  0  0  0  0  0  0  0  0
    0.5534    1.5396    0.2603 C   0  0  0  0  0  0  0  0  0  0  0  0
    1.4216    0.6414   -0.4872 C   0  0  0  0  0  0  0  0  0  0  0  0
    2.6074   -0.0564   -0.1091 C   0  0  0  0  0  0  0  0  0  0  0  0
    1.4147   -0.6777    0.3616 C   0  0  0  0  0  0  0  0  0  0  0  0
    0.4432   -1.5196   -0.3112 C   0  0  0  0  0  0  0  0  0  0  0  0
   -0.8944   -1.5343   -0.3095 C   0  0  0  0  0  0  0  0  0  0  0  0
   -1.9286   -0.6903    0.3860 C   0  0  0  0  0  0  0  0  0  0  0  0
   -1.9144    0.7115   -0.1781 C   0  0  0  0  0  0  0  0  0  0  0  0
   -1.1333    2.3441    1.0009 H   0  0  0  0  0  0  0  0  0  0  0  0
    1.0043    2.3412    0.8333 H   0  0  0  0  0  0  0  0  0  0  0  0
    1.1013    0.5336   -1.5667 H   0  0  0  0  0  0  0  0  0  0  0  0
    3.2506   -0.4758   -0.9354 H   0  0  0  0  0  0  0  0  0  0  0  0
    3.2928    0.4056    0.6576 H   0  0  0  0  0  0  0  0  0  0  0  0
    1.1794   -0.5602    1.4577 H   0  0  0  0  0  0  0  0  0  0  0  0
    0.8001   -2.3118   -0.9573 H   0  0  0  0  0  0  0  0  0  0  0  0
   -1.3260   -2.3143   -0.9396 H   0  0  0  0  0  0  0  0  0  0  0  0
   -1.5764   -0.5880    1.4549 H   0  0  0  0  0  0  0  0  0  0  0  0
   -2.9099   -1.1498    0.3778 H   0  0  0  0  0  0  0  0  0  0  0  0
   -2.8688    1.2373   -0.0728 H   0  0  0  0  0  0  0  0  0  0  0  0
   -1.7252    0.5867   -1.2851 H   0  0  0  0  0  0  0  0  0  0  0  0
  1  2  2  3
  2  3  1  0
  3  4  1  0
  4  5  1  0
  5  6  1  0
  6  7  2  3
  7  8  1  0
  8  9  1  0
  9  1  1  0
  5  3  1  0
  1 10  1  0
  2 11  1  0
  3 12  1  0
  4 13  1  0
  4 14  1  0
  5 15  1  0
  6 16  1  0
  7 17  1  0
  8 18  1  0
  8 19  1  0
  9 20  1  0
  9 21  1  0
M  END
