
     RDKit          3D

 19 20  0  0  0  0  0  0  0  0999 V2000
    1.2984   -1.1283   -0.2726 C   0  0  0  0  0  0  0  0  0  0  0  0
    0.1147   -1.6564   -0.0142 C   0  0  0  0  0  0  0  0  0  0  0  0
   -1.1393   -1.0972    0.5439 C   0  0  0  0  0  0  0  0  0  0  0  0
   -1.7332   -0.1305   -0.4027 C   0  0  0  0  0  0  0  0  0  0  0  0
   -2.4121    0.9870    0.2781 O   0  0  0  0  0  0  0  0  0  0  0  0
   -1.2148    1.1690   -0.5221 C   0  0  0  0  0  0  0  0  0  0  0  0
   -0.0887    1.6092    0.2916 C   0  0  0  0  0  0  0  0  0  0  0  0
    1.1701    1.2270    0.4373 C   0  0  0  0  0  0  0  0  0  0  0  0
    1.9876    0.1757   -0.1697 C   0  0  0  0  0  0  0  0  0  0  0  0
    1.9709   -1.8714   -0.6846 H   0  0  0  0  0  0  0  0  0  0  0  0
    0.0844   -2.6931   -0.2678 H   0  0  0  0  0  0  0  0  0  0  0  0
   -1.8637   -1.9536    0.6656 H   0  0  0  0  0  0  0  0  0  0  0  0
   -0.9537   -0.6299    1.5344 H   0  0  0  0  0  0  0  0  0  0  0  0
   -2.3240   -0.5741   -1.2258 H   0  0  0  0  0  0  0  0  0  0  0  0
   -1.4777    1.7668   -1.4320 H   0  0  0  0  0  0  0  0  0  0  0  0
   -0.3388    2.4484    0.9296 H   0  0  0  0  0  0  0  0  0  0  0  0
    1.7523    1.8011    1.1603 H   0  0  0  0  0  0  0  0  0  0  0  0
    2.2225    0.5026   -1.2214 H   0  0  0  0  0  0  0  0  0  0  0  0
    2.9451    0.0475    0.3722 H   0  0  0  0  0  0  0  0  0  0  0  0
  1  2  2  3
  2  3  1  0
  3  4  1  0
  4  5  1  0
  5  6  1  0
  6  7  1  0
  7  8  2  3
  8  9  1  0
  9  1  1  0
  6  4  1  0
  1 10  1  0
  2 11  1  0
  3 12  1  0
  3 13  1  0
  4 14  1  0
  6 15  1  0
  7 16  1  0
  8 17  1  0
  9 18  1  0
  9 19  1  0
M  END
