
     RDKit          3D

 19 21  0  0  0  0  0  0  0  0999 V2000
    1.9321   -0.5875    0.5397 C   0  0  0  0  0  0  0  0  0  0  0  0
    1.4791    0.5934    0.9420 C   0  0  0  0  0  0  0  0  0  0  0  0
    0.2911    0.8566    0.0886 C   0  0  0  0  0  0  0  0  0  0  0  0
    0.8998    0.3904   -1.2611 C   0  0  0  0  0  0  0  0  0  0  0  0
    1.1761   -1.0166   -0.6858 C   0  0  0  0  0  0  0  0  0  0  0  0
   -0.1304   -1.3809   -0.3504 O   0  0  0  0  0  0  0  0  0  0  0  0
   -0.7228   -0.2507    0.2016 C   0  0  0  0  0  0  0  0  0  0  0  0
   -2.1072    0.1628   -0.3074 C   0  0  0  0  0  0  0  0  0  0  0  0
   -1.8410   -0.2615    1.1060 C   0  0  0  0  0  0  0  0  0  0  0  0
    2.7140   -1.1830    0.9854 H   0  0  0  0  0  0  0  0  0  0  0  0
    1.8437    1.2533    1.7031 H   0  0  0  0  0  0  0  0  0  0  0  0
   -0.0752    1.8537    0.0657 H   0  0  0  0  0  0  0  0  0  0  0  0
    0.1447    0.3641   -2.0458 H   0  0  0  0  0  0  0  0  0  0  0  0
    1.8196    0.9239   -1.4863 H   0  0  0  0  0  0  0  0  0  0  0  0
    1.6929   -1.6615   -1.3465 H   0  0  0  0  0  0  0  0  0  0  0  0
   -2.6144   -0.5307   -1.0031 H   0  0  0  0  0  0  0  0  0  0  0  0
   -2.3214    1.2205   -0.4534 H   0  0  0  0  0  0  0  0  0  0  0  0
   -1.8944    0.4860    1.9243 H   0  0  0  0  0  0  0  0  0  0  0  0
   -2.2863   -1.2324    1.3833 H   0  0  0  0  0  0  0  0  0  0  0  0
  1  2  2  0
  2  3  1  0
  3  4  1  0
  4  5  1  0
  5  6  1  0
  6  7  1  0
  7  8  1  0
  8  9  1  0
  5  1  1  0
  9  7  1  0
  7  3  1  0
  1 10  1  0
  2 11  1  0
  3 12  1  0
  4 13  1  0
  4 14  1  0
  5 15  1  0
  8 16  1  0
  8 17  1  0
  9 18  1  0
  9 19  1  0
M  END
