
     RDKit          3D

 19 21  0  0  0  0  0  0  0  0999 V2000
   -1.3104    1.4282   -0.3021 C   0  0  0  0  0  0  0  0  0  0  0  0
   -0.0592    1.5204    0.0915 C   0  0  0  0  0  0  0  0  0  0  0  0
    0.6627    0.4636    0.7864 C   0  0  0  0  0  0  0  0  0  0  0  0
    2.0661    0.0847    0.4640 C   0  0  0  0  0  0  0  0  0  0  0  0
    1.4992   -1.1405   -0.2246 C   0  0  0  0  0  0  0  0  0  0  0  0
    0.1508   -0.9097    0.4174 C   0  0  0  0  0  0  0  0  0  0  0  0
   -1.0432   -0.9190   -0.4696 C   0  0  0  0  0  0  0  0  0  0  0  0
   -2.0172    0.1629   -0.0136 C   0  0  0  0  0  0  0  0  0  0  0  0
    0.0432   -0.3919    1.6757 O   0  0  0  0  0  0  0  0  0  0  0  0
   -1.7984    2.2234   -0.8056 H   0  0  0  0  0  0  0  0  0  0  0  0
    0.4553    2.4697   -0.1309 H   0  0  0  0  0  0  0  0  0  0  0  0
    2.6170   -0.2234    1.3827 H   0  0  0  0  0  0  0  0  0  0  0  0
    2.6542    0.7560   -0.1554 H   0  0  0  0  0  0  0  0  0  0  0  0
    1.9725   -2.0894    0.0410 H   0  0  0  0  0  0  0  0  0  0  0  0
    1.4287   -0.9369   -1.3277 H   0  0  0  0  0  0  0  0  0  0  0  0
   -1.5049   -1.9003   -0.4987 H   0  0  0  0  0  0  0  0  0  0  0  0
   -0.6976   -0.6805   -1.5148 H   0  0  0  0  0  0  0  0  0  0  0  0
   -2.9911    0.0828   -0.5120 H   0  0  0  0  0  0  0  0  0  0  0  0
   -2.1276   -0.0001    1.0961 H   0  0  0  0  0  0  0  0  0  0  0  0
  1  2  2  0
  2  3  1  0
  3  4  1  0
  4  5  1  0
  5  6  1  0
  6  7  1  0
  7  8  1  0
  6  9  1  0
  8  1  1  0
  6  3  1  0
  9  3  1  0
  1 10  1  0
  2 11  1  0
  4 12  1  0
  4 13  1  0
  5 14  1  0
  5 15  1  0
  7 16  1  0
  7 17  1  0
  8 18  1  0
  8 19  1  0
M  END
