
     RDKit          3D

 17 18  0  0  0  0  0  0  0  0999 V2000
    0.8441    1.2519    0.6274 C   0  0  0  0  0  0  0  0  0  0  0  0
   -0.3558    0.8386    0.2816 C   0  0  0  0  0  0  0  0  0  0  0  0
   -1.8133    0.6537    0.0971 C   0  0  0  0  0  0  0  0  0  0  0  0
   -1.4855   -0.8530    0.0249 C   0  0  0  0  0  0  0  0  0  0  0  0
   -0.2267   -0.3823   -0.6141 C   0  0  0  0  0  0  0  0  0  0  0  0
    1.0801   -0.9491   -0.1072 C   0  0  0  0  0  0  0  0  0  0  0  0
    1.8599    0.3690    0.0051 C   0  0  0  0  0  0  0  0  0  0  0  0
    1.1183    2.1067    1.2707 H   0  0  0  0  0  0  0  0  0  0  0  0
   -2.4623    0.9342    0.9232 H   0  0  0  0  0  0  0  0  0  0  0  0
   -2.1304    1.0378   -0.9007 H   0  0  0  0  0  0  0  0  0  0  0  0
   -2.1865   -1.4331   -0.5745 H   0  0  0  0  0  0  0  0  0  0  0  0
   -1.3063   -1.2202    1.0727 H   0  0  0  0  0  0  0  0  0  0  0  0
   -0.2893   -0.1802   -1.6778 H   0  0  0  0  0  0  0  0  0  0  0  0
    0.9798   -1.4563    0.8540 H   0  0  0  0  0  0  0  0  0  0  0  0
    1.5099   -1.6190   -0.8571 H   0  0  0  0  0  0  0  0  0  0  0  0
    2.7651    0.2361    0.6084 H   0  0  0  0  0  0  0  0  0  0  0  0
    2.0988    0.6651   -1.0338 H   0  0  0  0  0  0  0  0  0  0  0  0
  1  2  2  0
  2  3  1  0
  3  4  1  0
  4  5  1  0
  5  6  1  0
  6  7  1  0
  7  1  1  0
  5  2  1  0
  1  8  1  0
  3  9  1  0
  3 10  1  0
  4 11  1  0
  4 12  1  0
  5 13  1  0
  6 14  1  0
  6 15  1  0
  7 16  1  0
  7 17  1  0
M  END
