
     RDKit          3D

 19 21  0  0  0  0  0  0  0  0999 V2000
    2.2746    0.9091   -0.1040 C   0  0  0  0  0  0  0  0  0  0  0  0
    1.0266    1.3534    0.1493 C   0  0  0  0  0  0  0  0  0  0  0  0
    0.3206    0.0555    0.4138 C   0  0  0  0  0  0  0  0  0  0  0  0
   -1.0617    0.0535    0.7934 C   0  0  0  0  0  0  0  0  0  0  0  0
   -2.0842    0.6211   -0.0835 C   0  0  0  0  0  0  0  0  0  0  0  0
   -2.0422   -0.8809    0.0161 C   0  0  0  0  0  0  0  0  0  0  0  0
    0.8123   -0.7853   -0.7404 C   0  0  0  0  0  0  0  0  0  0  0  0
    2.0708   -0.5754    0.0603 C   0  0  0  0  0  0  0  0  0  0  0  0
    1.2719   -0.6018    1.1965 O   0  0  0  0  0  0  0  0  0  0  0  0
    3.1709    1.4614   -0.3547 H   0  0  0  0  0  0  0  0  0  0  0  0
    0.6376    2.3640    0.1600 H   0  0  0  0  0  0  0  0  0  0  0  0
   -1.2897    0.0901    1.8996 H   0  0  0  0  0  0  0  0  0  0  0  0
   -1.8299    0.9973   -1.1064 H   0  0  0  0  0  0  0  0  0  0  0  0
   -2.9976    1.0647    0.3784 H   0  0  0  0  0  0  0  0  0  0  0  0
   -2.7852   -1.4238    0.6160 H   0  0  0  0  0  0  0  0  0  0  0  0
   -1.6064   -1.4620   -0.8148 H   0  0  0  0  0  0  0  0  0  0  0  0
    0.8121   -0.2215   -1.6865 H   0  0  0  0  0  0  0  0  0  0  0  0
    0.4039   -1.7984   -0.7496 H   0  0  0  0  0  0  0  0  0  0  0  0
    2.8957   -1.2210   -0.0434 H   0  0  0  0  0  0  0  0  0  0  0  0
  1  2  2  0
  2  3  1  0
  3  4  1  0
  4  5  1  0
  5  6  1  0
  3  7  1  0
  7  8  1  0
  8  9  1  0
  8  1  1  0
  9  3  1  0
  6  4  1  0
  1 10  1  0
  2 11  1  0
  4 12  1  0
  5 13  1  0
  5 14  1  0
  6 15  1  0
  6 16  1  0
  7 17  1  0
  7 18  1  0
  8 19  1  0
M  END
