
     RDKit          3D

 19 21  0  0  0  0  0  0  0  0999 V2000
    1.5560    0.9324    0.0114 C   0  0  0  0  0  0  0  0  0  0  0  0
    0.3636    1.3606    0.3307 C   0  0  0  0  0  0  0  0  0  0  0  0
   -0.8510    0.4721    0.5031 C   0  0  0  0  0  0  0  0  0  0  0  0
   -0.2625   -0.8090    0.9438 C   0  0  0  0  0  0  0  0  0  0  0  0
    0.4757   -1.1560   -0.3653 C   0  0  0  0  0  0  0  0  0  0  0  0
    1.8589   -0.5290   -0.2212 C   0  0  0  0  0  0  0  0  0  0  0  0
   -0.1593   -0.3740   -1.3644 O   0  0  0  0  0  0  0  0  0  0  0  0
   -1.3908   -0.1825   -0.8377 C   0  0  0  0  0  0  0  0  0  0  0  0
   -2.0056    0.8872   -0.1551 C   0  0  0  0  0  0  0  0  0  0  0  0
    2.3562    1.6482   -0.0906 H   0  0  0  0  0  0  0  0  0  0  0  0
    0.2024    2.4151    0.4888 H   0  0  0  0  0  0  0  0  0  0  0  0
    0.4559   -0.7002    1.7653 H   0  0  0  0  0  0  0  0  0  0  0  0
   -0.9985   -1.6294    1.1152 H   0  0  0  0  0  0  0  0  0  0  0  0
    0.4839   -2.2087   -0.5810 H   0  0  0  0  0  0  0  0  0  0  0  0
    2.3942   -0.9201    0.6631 H   0  0  0  0  0  0  0  0  0  0  0  0
    2.4519   -0.6459   -1.1326 H   0  0  0  0  0  0  0  0  0  0  0  0
   -1.9020   -1.1872   -0.7116 H   0  0  0  0  0  0  0  0  0  0  0  0
   -3.0077    0.7391    0.3241 H   0  0  0  0  0  0  0  0  0  0  0  0
   -2.0212    1.8871   -0.6861 H   0  0  0  0  0  0  0  0  0  0  0  0
  1  2  2  0
  2  3  1  0
  3  4  1  0
  4  5  1  0
  5  6  1  0
  5  7  1  0
  7  8  1  0
  8  9  1  0
  6  1  1  0
  8  3  1  0
  9  3  1  0
  1 10  1  0
  2 11  1  0
  4 12  1  0
  4 13  1  0
  5 14  1  0
  6 15  1  0
  6 16  1  0
  8 17  1  0
  9 18  1  0
  9 19  1  0
M  END
