
     RDKit          3D

 19 21  0  0  0  0  0  0  0  0999 V2000
   -0.3914    1.2492    1.0095 C   0  0  0  0  0  0  0  0  0  0  0  0
    0.6865    0.5726    1.3776 C   0  0  0  0  0  0  0  0  0  0  0  0
    1.0110   -0.6042    0.5201 C   0  0  0  0  0  0  0  0  0  0  0  0
    1.2029   -0.0123   -0.8850 C   0  0  0  0  0  0  0  0  0  0  0  0
   -0.0694    0.6688   -1.3078 C   0  0  0  0  0  0  0  0  0  0  0  0
   -1.0963    0.6779   -0.1861 C   0  0  0  0  0  0  0  0  0  0  0  0
   -1.4008   -0.7962    0.0997 C   0  0  0  0  0  0  0  0  0  0  0  0
   -1.1721   -1.2774    1.3699 O   0  0  0  0  0  0  0  0  0  0  0  0
   -0.2162   -1.5124    0.4095 C   0  0  0  0  0  0  0  0  0  0  0  0
   -0.7353    2.1343    1.5224 H   0  0  0  0  0  0  0  0  0  0  0  0
    1.3285    0.7868    2.2109 H   0  0  0  0  0  0  0  0  0  0  0  0
    1.8790   -1.1611    0.8565 H   0  0  0  0  0  0  0  0  0  0  0  0
    2.0067    0.7660   -0.7667 H   0  0  0  0  0  0  0  0  0  0  0  0
    1.5725   -0.7466   -1.5951 H   0  0  0  0  0  0  0  0  0  0  0  0
    0.1297    1.6794   -1.7066 H   0  0  0  0  0  0  0  0  0  0  0  0
   -0.4896    0.0497   -2.1517 H   0  0  0  0  0  0  0  0  0  0  0  0
   -1.9776    1.2441   -0.4805 H   0  0  0  0  0  0  0  0  0  0  0  0
   -2.3085   -1.1808   -0.3849 H   0  0  0  0  0  0  0  0  0  0  0  0
    0.0404   -2.5376    0.0883 H   0  0  0  0  0  0  0  0  0  0  0  0
  1  2  2  0
  2  3  1  0
  3  4  1  0
  4  5  1  0
  5  6  1  0
  6  7  1  0
  7  8  1  0
  8  9  1  0
  6  1  1  0
  9  7  1  0
  9  3  1  0
  1 10  1  0
  2 11  1  0
  3 12  1  0
  4 13  1  0
  4 14  1  0
  5 15  1  0
  5 16  1  0
  6 17  1  0
  7 18  1  0
  9 19  1  0
M  END
