
     RDKit          3D

 19 21  0  0  0  0  0  0  0  0999 V2000
    2.2120    0.8341   -0.3170 C   0  0  0  0  0  0  0  0  0  0  0  0
    1.0459    1.2154   -0.8778 C   0  0  0  0  0  0  0  0  0  0  0  0
    0.0876    0.1178   -0.7232 C   0  0  0  0  0  0  0  0  0  0  0  0
    0.6090   -0.4375    0.5892 C   0  0  0  0  0  0  0  0  0  0  0  0
   -0.3606   -0.4964    1.4225 C   0  0  0  0  0  0  0  0  0  0  0  0
   -1.6385   -0.0082    0.8661 C   0  0  0  0  0  0  0  0  0  0  0  0
   -2.2643   -0.7499   -0.2359 C   0  0  0  0  0  0  0  0  0  0  0  0
   -1.3433    0.3949   -0.5354 C   0  0  0  0  0  0  0  0  0  0  0  0
    2.0252   -0.5846    0.2427 C   0  0  0  0  0  0  0  0  0  0  0  0
    3.1358    1.3514   -0.2325 H   0  0  0  0  0  0  0  0  0  0  0  0
    0.8871    2.1598   -1.3433 H   0  0  0  0  0  0  0  0  0  0  0  0
    0.2827   -0.7098   -1.4688 H   0  0  0  0  0  0  0  0  0  0  0  0
   -0.3293   -0.8637    2.4754 H   0  0  0  0  0  0  0  0  0  0  0  0
   -2.2048    0.7712    1.4375 H   0  0  0  0  0  0  0  0  0  0  0  0
   -3.3306   -0.5353   -0.4310 H   0  0  0  0  0  0  0  0  0  0  0  0
   -1.9517   -1.7940   -0.4407 H   0  0  0  0  0  0  0  0  0  0  0  0
   -1.7529    1.3323   -0.9405 H   0  0  0  0  0  0  0  0  0  0  0  0
    2.1996   -1.2693   -0.5956 H   0  0  0  0  0  0  0  0  0  0  0  0
    2.6911   -0.7282    1.1083 H   0  0  0  0  0  0  0  0  0  0  0  0
  1  2  2  0
  2  3  1  0
  3  4  1  0
  4  5  2  0
  5  6  1  0
  6  7  1  0
  7  8  1  0
  4  9  1  0
  9  1  1  0
  8  3  1  0
  8  6  1  0
  1 10  1  0
  2 11  1  0
  3 12  1  0
  5 13  1  0
  6 14  1  0
  7 15  1  0
  7 16  1  0
  8 17  1  0
  9 18  1  0
  9 19  1  0
M  END
