
     RDKit          3D

 15 16  0  0  0  0  0  0  0  0999 V2000
    1.5242    1.0096    0.1048 C   0  0  0  0  0  0  0  0  0  0  0  0
    0.2437    1.1864   -0.1825 C   0  0  0  0  0  0  0  0  0  0  0  0
   -0.3571   -0.1212   -0.3824 C   0  0  0  0  0  0  0  0  0  0  0  0
   -1.7501   -0.3690   -0.7366 C   0  0  0  0  0  0  0  0  0  0  0  0
   -1.3851   -0.4943    0.7143 C   0  0  0  0  0  0  0  0  0  0  0  0
    0.6707   -0.9964   -0.6233 O   0  0  0  0  0  0  0  0  0  0  0  0
    1.7549   -0.4619    0.0886 C   0  0  0  0  0  0  0  0  0  0  0  0
    2.3066    1.7236    0.3192 H   0  0  0  0  0  0  0  0  0  0  0  0
   -0.1668    2.1988   -0.2300 H   0  0  0  0  0  0  0  0  0  0  0  0
   -2.4384    0.4055   -1.0762 H   0  0  0  0  0  0  0  0  0  0  0  0
   -1.9542   -1.3656   -1.2211 H   0  0  0  0  0  0  0  0  0  0  0  0
   -1.7078    0.2975    1.4086 H   0  0  0  0  0  0  0  0  0  0  0  0
   -1.1854   -1.4624    1.1640 H   0  0  0  0  0  0  0  0  0  0  0  0
    2.6985   -0.6464   -0.4427 H   0  0  0  0  0  0  0  0  0  0  0  0
    1.7463   -0.9043    1.0953 H   0  0  0  0  0  0  0  0  0  0  0  0
  1  2  2  0
  2  3  1  0
  3  4  1  0
  4  5  1  0
  3  6  1  0
  6  7  1  0
  7  1  1  0
  5  3  1  0
  1  8  1  0
  2  9  1  0
  4 10  1  0
  4 11  1  0
  5 12  1  0
  5 13  1  0
  7 14  1  0
  7 15  1  0
M  END
