
     RDKit          3D

 19 20  0  0  0  0  0  0  0  0999 V2000
   -1.6267   -0.6391    0.6699 C   0  0  0  0  0  0  0  0  0  0  0  0
   -0.6788   -1.5473    0.4296 C   0  0  0  0  0  0  0  0  0  0  0  0
    0.5519   -1.4588   -0.4174 C   0  0  0  0  0  0  0  0  0  0  0  0
    1.5879   -1.0531    0.3763 O   0  0  0  0  0  0  0  0  0  0  0  0
    1.9658    0.2175    0.0268 C   0  0  0  0  0  0  0  0  0  0  0  0
    0.7363    0.7362   -0.7124 C   0  0  0  0  0  0  0  0  0  0  0  0
   -0.2675    1.3266    0.2274 C   0  0  0  0  0  0  0  0  0  0  0  0
   -1.6406    0.7249    0.0411 C   0  0  0  0  0  0  0  0  0  0  0  0
    0.3000   -0.4242   -1.3416 O   0  0  0  0  0  0  0  0  0  0  0  0
   -2.4169   -0.8856    1.3399 H   0  0  0  0  0  0  0  0  0  0  0  0
   -0.8002   -2.5093    0.9156 H   0  0  0  0  0  0  0  0  0  0  0  0
    0.7353   -2.3818   -0.9889 H   0  0  0  0  0  0  0  0  0  0  0  0
    2.7610    0.1172   -0.7655 H   0  0  0  0  0  0  0  0  0  0  0  0
    2.2742    0.8642    0.8484 H   0  0  0  0  0  0  0  0  0  0  0  0
    1.0000    1.4944   -1.4638 H   0  0  0  0  0  0  0  0  0  0  0  0
    0.0158    1.1110    1.2988 H   0  0  0  0  0  0  0  0  0  0  0  0
   -0.3143    2.4322    0.1544 H   0  0  0  0  0  0  0  0  0  0  0  0
   -2.4459    1.3463    0.4266 H   0  0  0  0  0  0  0  0  0  0  0  0
   -1.7374    0.5288   -1.0652 H   0  0  0  0  0  0  0  0  0  0  0  0
  1  2  2  0
  2  3  1  0
  3  4  1  0
  4  5  1  0
  5  6  1  0
  6  7  1  0
  7  8  1  0
  6  9  1  0
  8  1  1  0
  9  3  1  0
  1 10  1  0
  2 11  1  0
  3 12  1  0
  5 13  1  0
  5 14  1  0
  6 15  1  0
  7 16  1  0
  7 17  1  0
  8 18  1  0
  8 19  1  0
M  END
