
     RDKit          3D

 19 20  0  0  0  0  0  0  0  0999 V2000
    2.0583   -0.8381   -0.2573 C   0  0  0  0  0  0  0  0  0  0  0  0
    0.8048   -1.2445   -0.1370 C   0  0  0  0  0  0  0  0  0  0  0  0
   -0.0208   -0.0136   -0.2223 C   0  0  0  0  0  0  0  0  0  0  0  0
   -1.3705   -0.2519   -0.7915 C   0  0  0  0  0  0  0  0  0  0  0  0
   -2.3094    0.2611    0.2508 C   0  0  0  0  0  0  0  0  0  0  0  0
   -1.6023    0.8678    1.2402 O   0  0  0  0  0  0  0  0  0  0  0  0
   -0.2733    0.6088    1.1146 C   0  0  0  0  0  0  0  0  0  0  0  0
    0.7653    0.8642   -0.9616 O   0  0  0  0  0  0  0  0  0  0  0  0
    2.0245    0.6487   -0.4185 C   0  0  0  0  0  0  0  0  0  0  0  0
    2.9632   -1.4157   -0.2485 H   0  0  0  0  0  0  0  0  0  0  0  0
    0.5078   -2.2721   -0.0063 H   0  0  0  0  0  0  0  0  0  0  0  0
   -1.5037   -1.3647   -0.8927 H   0  0  0  0  0  0  0  0  0  0  0  0
   -1.5448    0.1670   -1.7877 H   0  0  0  0  0  0  0  0  0  0  0  0
   -3.0318    0.9711   -0.2035 H   0  0  0  0  0  0  0  0  0  0  0  0
   -2.8981   -0.5757    0.7041 H   0  0  0  0  0  0  0  0  0  0  0  0
    0.2895    1.5802    1.2424 H   0  0  0  0  0  0  0  0  0  0  0  0
    0.1322   -0.0847    1.8926 H   0  0  0  0  0  0  0  0  0  0  0  0
    2.8438    0.9457   -1.0720 H   0  0  0  0  0  0  0  0  0  0  0  0
    2.1654    1.1467    0.5543 H   0  0  0  0  0  0  0  0  0  0  0  0
  1  2  2  0
  2  3  1  0
  3  4  1  0
  4  5  1  0
  5  6  1  0
  6  7  1  0
  3  8  1  0
  8  9  1  0
  9  1  1  0
  7  3  1  0
  1 10  1  0
  2 11  1  0
  4 12  1  0
  4 13  1  0
  5 14  1  0
  5 15  1  0
  7 16  1  0
  7 17  1  0
  9 18  1  0
  9 19  1  0
M  END
