
     RDKit          3D

 18 19  0  0  0  0  0  0  0  0999 V2000
    1.4331   -1.1594   -0.5315 C   0  0  0  0  0  0  0  0  0  0  0  0
    1.8921   -0.1433    0.1932 C   0  0  0  0  0  0  0  0  0  0  0  0
    0.8943    0.9669    0.2050 C   0  0  0  0  0  0  0  0  0  0  0  0
   -0.3606    0.1945   -0.0536 C   0  0  0  0  0  0  0  0  0  0  0  0
    0.0823   -0.7982   -1.0617 C   0  0  0  0  0  0  0  0  0  0  0  0
   -1.6310    0.8972   -0.2110 C   0  0  0  0  0  0  0  0  0  0  0  0
   -1.8484    0.7535    1.1778 O   0  0  0  0  0  0  0  0  0  0  0  0
   -1.0078   -0.3296    1.1856 C   0  0  0  0  0  0  0  0  0  0  0  0
    1.9257   -2.1045   -0.7272 H   0  0  0  0  0  0  0  0  0  0  0  0
    2.8448   -0.1142    0.7030 H   0  0  0  0  0  0  0  0  0  0  0  0
    0.8407    1.4861    1.1693 H   0  0  0  0  0  0  0  0  0  0  0  0
    1.1199    1.7259   -0.5703 H   0  0  0  0  0  0  0  0  0  0  0  0
    0.2561   -0.2467   -2.0312 H   0  0  0  0  0  0  0  0  0  0  0  0
   -0.5698   -1.6653   -1.1870 H   0  0  0  0  0  0  0  0  0  0  0  0
   -2.3897    0.2686   -0.7311 H   0  0  0  0  0  0  0  0  0  0  0  0
   -1.6411    1.9483   -0.5333 H   0  0  0  0  0  0  0  0  0  0  0  0
   -0.2841   -0.4005    2.0164 H   0  0  0  0  0  0  0  0  0  0  0  0
   -1.5565   -1.2794    0.9875 H   0  0  0  0  0  0  0  0  0  0  0  0
  1  2  2  0
  2  3  1  0
  3  4  1  0
  4  5  1  0
  4  6  1  0
  6  7  1  0
  7  8  1  0
  5  1  1  0
  8  4  1  0
  1  9  1  0
  2 10  1  0
  3 11  1  0
  3 12  1  0
  5 13  1  0
  5 14  1  0
  6 15  1  0
  6 16  1  0
  8 17  1  0
  8 18  1  0
M  END
