
     RDKit          3D

 17 19  0  0  0  0  0  0  0  0999 V2000
    1.7014    0.7658    0.0693 C   0  0  0  0  0  0  0  0  0  0  0  0
    1.8597   -0.5404   -0.1369 C   0  0  0  0  0  0  0  0  0  0  0  0
    0.5604   -1.1527    0.2666 C   0  0  0  0  0  0  0  0  0  0  0  0
    0.2349   -0.3038    1.3549 O   0  0  0  0  0  0  0  0  0  0  0  0
    0.3488    0.9178    0.6444 C   0  0  0  0  0  0  0  0  0  0  0  0
   -0.7099    0.6853   -0.4189 C   0  0  0  0  0  0  0  0  0  0  0  0
   -1.9734    0.1757    0.1699 C   0  0  0  0  0  0  0  0  0  0  0  0
   -1.7788   -1.0661   -0.4517 O   0  0  0  0  0  0  0  0  0  0  0  0
   -0.4636   -0.7701   -0.7550 C   0  0  0  0  0  0  0  0  0  0  0  0
    2.3880    1.5809   -0.1263 H   0  0  0  0  0  0  0  0  0  0  0  0
    2.7411   -1.0277   -0.5133 H   0  0  0  0  0  0  0  0  0  0  0  0
    0.6104   -2.1905    0.5317 H   0  0  0  0  0  0  0  0  0  0  0  0
    0.1901    1.7869    1.2565 H   0  0  0  0  0  0  0  0  0  0  0  0
   -0.7436    1.3852   -1.2390 H   0  0  0  0  0  0  0  0  0  0  0  0
   -1.9240    0.0064    1.2838 H   0  0  0  0  0  0  0  0  0  0  0  0
   -2.8583    0.7337   -0.1455 H   0  0  0  0  0  0  0  0  0  0  0  0
   -0.1832   -0.9865   -1.7905 H   0  0  0  0  0  0  0  0  0  0  0  0
  1  2  2  0
  2  3  1  0
  3  4  1  0
  4  5  1  0
  5  6  1  0
  6  7  1  0
  7  8  1  0
  8  9  1  0
  5  1  1  0
  9  6  1  0
  9  3  1  0
  1 10  1  0
  2 11  1  0
  3 12  1  0
  5 13  1  0
  6 14  1  0
  7 15  1  0
  7 16  1  0
  9 17  1  0
M  END
