
     RDKit          3D

 21 22  0  0  0  0  0  0  0  0999 V2000
   -1.6830    0.6913   -0.2769 C   0  0  0  0  0  0  0  0  0  0  0  0
   -0.6277    1.4877   -0.2331 C   0  0  0  0  0  0  0  0  0  0  0  0
    0.6977    1.1260    0.3419 C   0  0  0  0  0  0  0  0  0  0  0  0
    1.4936    0.4718   -0.7712 C   0  0  0  0  0  0  0  0  0  0  0  0
    1.0871   -0.9820   -0.7129 C   0  0  0  0  0  0  0  0  0  0  0  0
    0.2889   -1.1733    0.5429 C   0  0  0  0  0  0  0  0  0  0  0  0
    0.5662    0.0435    1.3980 C   0  0  0  0  0  0  0  0  0  0  0  0
   -0.9870   -1.5182    0.3961 O   0  0  0  0  0  0  0  0  0  0  0  0
   -1.9200   -0.7408   -0.1224 C   0  0  0  0  0  0  0  0  0  0  0  0
   -2.6070    1.2587   -0.4810 H   0  0  0  0  0  0  0  0  0  0  0  0
   -0.7304    2.4800   -0.6458 H   0  0  0  0  0  0  0  0  0  0  0  0
    1.2039    2.0013    0.7751 H   0  0  0  0  0  0  0  0  0  0  0  0
    1.1926    0.8835   -1.7673 H   0  0  0  0  0  0  0  0  0  0  0  0
    2.5726    0.6275   -0.5639 H   0  0  0  0  0  0  0  0  0  0  0  0
    0.4761   -1.2906   -1.5784 H   0  0  0  0  0  0  0  0  0  0  0  0
    2.0170   -1.5772   -0.7501 H   0  0  0  0  0  0  0  0  0  0  0  0
    0.8019   -2.0200    1.0961 H   0  0  0  0  0  0  0  0  0  0  0  0
   -0.2808    0.2512    2.0870 H   0  0  0  0  0  0  0  0  0  0  0  0
    1.5288   -0.0383    1.9337 H   0  0  0  0  0  0  0  0  0  0  0  0
   -2.8761   -0.8498    0.4750 H   0  0  0  0  0  0  0  0  0  0  0  0
   -2.2142   -1.1323   -1.1429 H   0  0  0  0  0  0  0  0  0  0  0  0
  1  2  2  0
  2  3  1  0
  3  4  1  0
  4  5  1  0
  5  6  1  0
  6  7  1  0
  6  8  1  0
  8  9  1  0
  9  1  1  0
  7  3  1  0
  1 10  1  0
  2 11  1  0
  3 12  1  0
  4 13  1  0
  4 14  1  0
  5 15  1  0
  5 16  1  0
  6 17  1  0
  7 18  1  0
  7 19  1  0
  9 20  1  0
  9 21  1  0
M  END
