
     RDKit          3D

 19 21  0  0  0  0  0  0  0  0999 V2000
    0.7081    1.6353    0.0478 C   0  0  0  0  0  0  0  0  0  0  0  0
   -0.5963    1.5021    0.2148 C   0  0  0  0  0  0  0  0  0  0  0  0
   -1.4632    0.3816   -0.1363 C   0  0  0  0  0  0  0  0  0  0  0  0
   -1.6744   -0.7797    0.7866 C   0  0  0  0  0  0  0  0  0  0  0  0
   -0.8656   -0.8856   -0.4682 C   0  0  0  0  0  0  0  0  0  0  0  0
    0.5949   -1.0354   -0.4751 C   0  0  0  0  0  0  0  0  0  0  0  0
    1.3339   -0.6046    0.7270 C   0  0  0  0  0  0  0  0  0  0  0  0
    1.7111    0.5505   -0.1915 C   0  0  0  0  0  0  0  0  0  0  0  0
    1.2856   -0.1725   -1.3100 O   0  0  0  0  0  0  0  0  0  0  0  0
    1.1462    2.6276    0.0801 H   0  0  0  0  0  0  0  0  0  0  0  0
   -1.1418    2.3415    0.6851 H   0  0  0  0  0  0  0  0  0  0  0  0
   -2.4046    0.6986   -0.6766 H   0  0  0  0  0  0  0  0  0  0  0  0
   -2.6984   -1.2547    0.8330 H   0  0  0  0  0  0  0  0  0  0  0  0
   -1.1816   -0.8164    1.7769 H   0  0  0  0  0  0  0  0  0  0  0  0
   -1.3909   -1.4930   -1.2659 H   0  0  0  0  0  0  0  0  0  0  0  0
    0.8857   -2.0925   -0.7479 H   0  0  0  0  0  0  0  0  0  0  0  0
    0.7729   -0.2671    1.5980 H   0  0  0  0  0  0  0  0  0  0  0  0
    2.2282   -1.1973    1.0161 H   0  0  0  0  0  0  0  0  0  0  0  0
    2.7501    0.8612   -0.1726 H   0  0  0  0  0  0  0  0  0  0  0  0
  1  2  2  0
  2  3  1  0
  3  4  1  0
  4  5  1  0
  5  6  1  0
  6  7  1  0
  7  8  1  0
  8  9  1  0
  8  1  1  0
  5  3  1  0
  9  6  1  0
  1 10  1  0
  2 11  1  0
  3 12  1  0
  4 13  1  0
  4 14  1  0
  5 15  1  0
  6 16  1  0
  7 17  1  0
  7 18  1  0
  8 19  1  0
M  END
