
     RDKit          3D

 15 17  0  0  0  0  0  0  0  0999 V2000
   -1.6693    0.3931   -0.1390 C   0  0  0  0  0  0  0  0  0  0  0  0
   -1.4543   -0.9204   -0.1010 C   0  0  0  0  0  0  0  0  0  0  0  0
    0.0156   -1.0174    0.0146 C   0  0  0  0  0  0  0  0  0  0  0  0
    0.5471    0.0391   -0.8994 C   0  0  0  0  0  0  0  0  0  0  0  0
    1.6119    0.2771    0.1349 C   0  0  0  0  0  0  0  0  0  0  0  0
    0.3614    0.1202    0.9444 C   0  0  0  0  0  0  0  0  0  0  0  0
   -0.3096    0.9646   -0.0941 C   0  0  0  0  0  0  0  0  0  0  0  0
   -2.5697    0.9841   -0.1900 H   0  0  0  0  0  0  0  0  0  0  0  0
   -2.1273   -1.7664   -0.1395 H   0  0  0  0  0  0  0  0  0  0  0  0
    0.4974   -1.9531    0.1179 H   0  0  0  0  0  0  0  0  0  0  0  0
    0.6584    0.0040   -1.8932 H   0  0  0  0  0  0  0  0  0  0  0  0
    2.0523    1.2876    0.1576 H   0  0  0  0  0  0  0  0  0  0  0  0
    2.2928   -0.5698    0.2766 H   0  0  0  0  0  0  0  0  0  0  0  0
    0.2515    0.1458    1.9333 H   0  0  0  0  0  0  0  0  0  0  0  0
   -0.1583    2.0114   -0.1230 H   0  0  0  0  0  0  0  0  0  0  0  0
  1  2  2  0
  2  3  1  0
  3  4  1  0
  4  5  1  0
  5  6  1  0
  6  7  1  0
  7  1  1  0
  6  3  1  0
  7  4  1  0
  1  8  1  0
  2  9  1  0
  3 10  1  0
  4 11  1  0
  5 12  1  0
  5 13  1  0
  6 14  1  0
  7 15  1  0
M  END
