
     RDKit          3D

 14 16  0  0  0  0  0  0  0  0999 V2000
    0.5005    1.4002    0.0462 C   0  0  0  0  0  0  0  0  0  0  0  0
    1.4102    0.4667   -0.1319 C   0  0  0  0  0  0  0  0  0  0  0  0
    1.0641   -0.9568   -0.0744 C   0  0  0  0  0  0  0  0  0  0  0  0
    0.4395   -1.4350   -1.2252 O   0  0  0  0  0  0  0  0  0  0  0  0
   -0.3261   -1.3400   -0.0693 C   0  0  0  0  0  0  0  0  0  0  0  0
   -1.3419   -0.2602    0.0910 C   0  0  0  0  0  0  0  0  0  0  0  0
   -1.5694    0.6616   -0.9269 O   0  0  0  0  0  0  0  0  0  0  0  0
   -0.8867    1.0554    0.3076 C   0  0  0  0  0  0  0  0  0  0  0  0
    0.8003    2.4348   -0.0048 H   0  0  0  0  0  0  0  0  0  0  0  0
    2.4393    0.7469   -0.3257 H   0  0  0  0  0  0  0  0  0  0  0  0
    1.7984   -1.6059    0.4462 H   0  0  0  0  0  0  0  0  0  0  0  0
   -0.5689   -2.3475    0.3544 H   0  0  0  0  0  0  0  0  0  0  0  0
   -2.3009   -0.5862    0.5779 H   0  0  0  0  0  0  0  0  0  0  0  0
   -1.4582    1.7659    0.9350 H   0  0  0  0  0  0  0  0  0  0  0  0
  1  2  2  0
  2  3  1  0
  3  4  1  0
  4  5  1  0
  5  6  1  0
  6  7  1  0
  7  8  1  0
  8  1  1  0
  5  3  1  0
  8  6  1  0
  1  9  1  0
  2 10  1  0
  3 11  1  0
  5 12  1  0
  6 13  1  0
  8 14  1  0
M  END
