
     RDKit          3D

 21 23  0  0  0  0  0  0  0  0999 V2000
    1.6139    0.6590   -0.5728 C   0  0  0  0  0  0  0  0  0  0  0  0
    1.8712   -0.6365   -0.6322 C   0  0  0  0  0  0  0  0  0  0  0  0
    1.1010   -1.4084    0.3511 C   0  0  0  0  0  0  0  0  0  0  0  0
   -0.3577   -1.3554    0.4161 C   0  0  0  0  0  0  0  0  0  0  0  0
   -1.1834   -0.7423   -0.6866 C   0  0  0  0  0  0  0  0  0  0  0  0
   -1.7703    0.5478   -0.0970 C   0  0  0  0  0  0  0  0  0  0  0  0
   -0.6270    1.5481   -0.1383 C   0  0  0  0  0  0  0  0  0  0  0  0
    0.6194    0.9594    0.4723 C   0  0  0  0  0  0  0  0  0  0  0  0
    0.4038   -0.3357    1.1638 C   0  0  0  0  0  0  0  0  0  0  0  0
    2.0604    1.4415   -1.2009 H   0  0  0  0  0  0  0  0  0  0  0  0
    2.5767   -1.0731   -1.3350 H   0  0  0  0  0  0  0  0  0  0  0  0
    1.6178   -2.2346    0.8753 H   0  0  0  0  0  0  0  0  0  0  0  0
   -0.8627   -2.1277    1.0389 H   0  0  0  0  0  0  0  0  0  0  0  0
   -1.9931   -1.4502   -0.9417 H   0  0  0  0  0  0  0  0  0  0  0  0
   -0.5523   -0.5280   -1.5681 H   0  0  0  0  0  0  0  0  0  0  0  0
   -2.0905    0.3400    0.9459 H   0  0  0  0  0  0  0  0  0  0  0  0
   -2.6219    0.9149   -0.6752 H   0  0  0  0  0  0  0  0  0  0  0  0
   -0.9379    2.4975    0.3415 H   0  0  0  0  0  0  0  0  0  0  0  0
   -0.4387    1.7300   -1.2376 H   0  0  0  0  0  0  0  0  0  0  0  0
    0.9876    1.6973    1.2234 H   0  0  0  0  0  0  0  0  0  0  0  0
    0.5839   -0.4437    2.2572 H   0  0  0  0  0  0  0  0  0  0  0  0
  1  2  2  0
  2  3  1  0
  3  4  1  0
  4  5  1  0
  5  6  1  0
  6  7  1  0
  7  8  1  0
  8  9  1  0
  8  1  1  0
  9  3  1  0
  9  4  1  0
  1 10  1  0
  2 11  1  0
  3 12  1  0
  4 13  1  0
  5 14  1  0
  5 15  1  0
  6 16  1  0
  6 17  1  0
  7 18  1  0
  7 19  1  0
  8 20  1  0
  9 21  1  0
M  END
