
     RDKit          3D

 21 23  0  0  0  0  0  0  0  0999 V2000
    2.0819   -0.3029    0.9203 C   0  0  0  0  0  0  0  0  0  0  0  0
    2.0673    0.3045   -0.2597 C   0  0  0  0  0  0  0  0  0  0  0  0
    0.7695    0.0644   -0.9500 C   0  0  0  0  0  0  0  0  0  0  0  0
   -0.0689    1.3125   -1.0100 C   0  0  0  0  0  0  0  0  0  0  0  0
   -0.7127    0.8853    0.2839 C   0  0  0  0  0  0  0  0  0  0  0  0
   -2.0788    0.2991    0.0629 C   0  0  0  0  0  0  0  0  0  0  0  0
   -1.3958   -1.0390   -0.2096 C   0  0  0  0  0  0  0  0  0  0  0  0
   -0.1105   -0.4281    0.1568 C   0  0  0  0  0  0  0  0  0  0  0  0
    0.7872   -1.0091    1.1278 C   0  0  0  0  0  0  0  0  0  0  0  0
    2.9395   -0.2688    1.6161 H   0  0  0  0  0  0  0  0  0  0  0  0
    2.9065    0.8904   -0.6407 H   0  0  0  0  0  0  0  0  0  0  0  0
    0.7828   -0.5815   -1.8223 H   0  0  0  0  0  0  0  0  0  0  0  0
   -0.7802    1.2965   -1.8580 H   0  0  0  0  0  0  0  0  0  0  0  0
    0.4998    2.2578   -0.8870 H   0  0  0  0  0  0  0  0  0  0  0  0
   -0.5619    1.5127    1.1501 H   0  0  0  0  0  0  0  0  0  0  0  0
   -2.7131    0.3106    0.9626 H   0  0  0  0  0  0  0  0  0  0  0  0
   -2.6196    0.6693   -0.8454 H   0  0  0  0  0  0  0  0  0  0  0  0
   -1.8238   -1.8120    0.4200 H   0  0  0  0  0  0  0  0  0  0  0  0
   -1.4463   -1.3209   -1.2833 H   0  0  0  0  0  0  0  0  0  0  0  0
    0.9837   -2.0852    0.8711 H   0  0  0  0  0  0  0  0  0  0  0  0
    0.4935   -0.9554    2.1944 H   0  0  0  0  0  0  0  0  0  0  0  0
  1  2  2  0
  2  3  1  0
  3  4  1  0
  4  5  1  0
  5  6  1  0
  6  7  1  0
  7  8  1  0
  8  9  1  0
  9  1  1  0
  8  3  1  0
  8  5  1  0
  1 10  1  0
  2 11  1  0
  3 12  1  0
  4 13  1  0
  4 14  1  0
  5 15  1  0
  6 16  1  0
  6 17  1  0
  7 18  1  0
  7 19  1  0
  9 20  1  0
  9 21  1  0
M  END
