
     RDKit          3D

 21 22  0  0  0  0  0  0  0  0999 V2000
    1.5784    1.1817   -0.3244 C   0  0  0  0  0  0  0  0  0  0  0  0
    0.3618    1.6804   -0.2186 C   0  0  0  0  0  0  0  0  0  0  0  0
   -0.9042    1.0726    0.2185 C   0  0  0  0  0  0  0  0  0  0  0  0
   -1.5374    0.1970   -0.8279 C   0  0  0  0  0  0  0  0  0  0  0  0
   -0.7960   -1.1126   -0.8113 C   0  0  0  0  0  0  0  0  0  0  0  0
   -0.1642   -1.2059    0.5609 C   0  0  0  0  0  0  0  0  0  0  0  0
    1.3259   -1.2260    0.3370 C   0  0  0  0  0  0  0  0  0  0  0  0
    2.0468   -0.1982   -0.0555 C   0  0  0  0  0  0  0  0  0  0  0  0
   -0.5597    0.0387    1.2978 C   0  0  0  0  0  0  0  0  0  0  0  0
    2.3836    1.8267   -0.6488 H   0  0  0  0  0  0  0  0  0  0  0  0
    0.2919    2.7137   -0.5041 H   0  0  0  0  0  0  0  0  0  0  0  0
   -1.6389    1.8066    0.5706 H   0  0  0  0  0  0  0  0  0  0  0  0
   -2.5805   -0.0070   -0.5078 H   0  0  0  0  0  0  0  0  0  0  0  0
   -1.5912    0.6642   -1.8249 H   0  0  0  0  0  0  0  0  0  0  0  0
   -1.5083   -1.9585   -0.9306 H   0  0  0  0  0  0  0  0  0  0  0  0
   -0.0625   -1.1471   -1.6278 H   0  0  0  0  0  0  0  0  0  0  0  0
   -0.4909   -2.0905    1.1134 H   0  0  0  0  0  0  0  0  0  0  0  0
    1.8111   -2.1773    0.5228 H   0  0  0  0  0  0  0  0  0  0  0  0
    3.1000   -0.3882   -0.1959 H   0  0  0  0  0  0  0  0  0  0  0  0
    0.3308    0.4278    1.8620 H   0  0  0  0  0  0  0  0  0  0  0  0
   -1.3966   -0.0982    1.9946 H   0  0  0  0  0  0  0  0  0  0  0  0
  1  2  2  0
  2  3  1  0
  3  4  1  0
  4  5  1  0
  5  6  1  0
  6  7  1  0
  7  8  2  0
  6  9  1  0
  8  1  1  0
  9  3  1  0
  1 10  1  0
  2 11  1  0
  3 12  1  0
  4 13  1  0
  4 14  1  0
  5 15  1  0
  5 16  1  0
  6 17  1  0
  7 18  1  0
  8 19  1  0
  9 20  1  0
  9 21  1  0
M  END
