
     RDKit          3D

 21 23  0  0  0  0  0  0  0  0999 V2000
   -0.6711   -1.0308    0.8409 C   0  0  0  0  0  0  0  0  0  0  0  0
    0.5733   -0.6269    0.7169 C   0  0  0  0  0  0  0  0  0  0  0  0
    2.0529   -0.8190    0.8838 C   0  0  0  0  0  0  0  0  0  0  0  0
    2.1984    0.2028   -0.2568 C   0  0  0  0  0  0  0  0  0  0  0  0
    0.8435    0.6953    0.1180 C   0  0  0  0  0  0  0  0  0  0  0  0
   -0.1136    1.0438   -0.9809 C   0  0  0  0  0  0  0  0  0  0  0  0
   -1.5465    0.8252   -0.6084 C   0  0  0  0  0  0  0  0  0  0  0  0
   -2.1688   -0.4431   -1.1037 C   0  0  0  0  0  0  0  0  0  0  0  0
   -1.7917   -0.2045    0.3955 C   0  0  0  0  0  0  0  0  0  0  0  0
   -0.8935   -2.0133    1.2891 H   0  0  0  0  0  0  0  0  0  0  0  0
    2.4566   -0.4982    1.8411 H   0  0  0  0  0  0  0  0  0  0  0  0
    2.4134   -1.8339    0.6150 H   0  0  0  0  0  0  0  0  0  0  0  0
    3.0269    0.8891   -0.0421 H   0  0  0  0  0  0  0  0  0  0  0  0
    2.2166   -0.2824   -1.2602 H   0  0  0  0  0  0  0  0  0  0  0  0
    0.8833    1.5309    0.8641 H   0  0  0  0  0  0  0  0  0  0  0  0
    0.1320    0.4178   -1.8610 H   0  0  0  0  0  0  0  0  0  0  0  0
    0.0295    2.0991   -1.2774 H   0  0  0  0  0  0  0  0  0  0  0  0
   -2.1848    1.7309   -0.5828 H   0  0  0  0  0  0  0  0  0  0  0  0
   -3.2604   -0.4596   -1.2998 H   0  0  0  0  0  0  0  0  0  0  0  0
   -1.5495   -1.1445   -1.6731 H   0  0  0  0  0  0  0  0  0  0  0  0
   -2.6465   -0.0786    1.0795 H   0  0  0  0  0  0  0  0  0  0  0  0
  1  2  2  0
  2  3  1  0
  3  4  1  0
  4  5  1  0
  5  6  1  0
  6  7  1  0
  7  8  1  0
  8  9  1  0
  9  1  1  0
  5  2  1  0
  9  7  1  0
  1 10  1  0
  3 11  1  0
  3 12  1  0
  4 13  1  0
  4 14  1  0
  5 15  1  0
  6 16  1  0
  6 17  1  0
  7 18  1  0
  8 19  1  0
  8 20  1  0
  9 21  1  0
M  END
