
     RDKit          3D

 21 23  0  0  0  0  0  0  0  0999 V2000
    2.2514    0.1613    0.8200 C   0  0  0  0  0  0  0  0  0  0  0  0
    2.1908   -0.5514   -0.2998 C   0  0  0  0  0  0  0  0  0  0  0  0
    0.9423   -0.3289   -1.0354 C   0  0  0  0  0  0  0  0  0  0  0  0
   -0.2022   -1.2772   -0.6814 C   0  0  0  0  0  0  0  0  0  0  0  0
   -0.9447   -0.1133   -0.1626 C   0  0  0  0  0  0  0  0  0  0  0  0
   -2.2919    0.2795   -0.5680 C   0  0  0  0  0  0  0  0  0  0  0  0
   -1.9250   -0.1007    0.8876 C   0  0  0  0  0  0  0  0  0  0  0  0
    0.2492    0.7740   -0.2547 C   0  0  0  0  0  0  0  0  0  0  0  0
    1.0335    0.9757    0.9974 C   0  0  0  0  0  0  0  0  0  0  0  0
    3.0747    0.1653    1.5309 H   0  0  0  0  0  0  0  0  0  0  0  0
    2.9787   -1.2335   -0.6474 H   0  0  0  0  0  0  0  0  0  0  0  0
    1.0241   -0.1154   -2.1090 H   0  0  0  0  0  0  0  0  0  0  0  0
    0.1443   -2.0438    0.0323 H   0  0  0  0  0  0  0  0  0  0  0  0
   -0.6632   -1.6938   -1.6079 H   0  0  0  0  0  0  0  0  0  0  0  0
   -2.4542    1.3619   -0.7709 H   0  0  0  0  0  0  0  0  0  0  0  0
   -2.8853   -0.4738   -1.1353 H   0  0  0  0  0  0  0  0  0  0  0  0
   -1.9380    0.7419    1.6083 H   0  0  0  0  0  0  0  0  0  0  0  0
   -2.4269   -1.0023    1.2724 H   0  0  0  0  0  0  0  0  0  0  0  0
    0.0751    1.6783   -0.8779 H   0  0  0  0  0  0  0  0  0  0  0  0
    0.4825    0.7259    1.9211 H   0  0  0  0  0  0  0  0  0  0  0  0
    1.2846    2.0704    1.0803 H   0  0  0  0  0  0  0  0  0  0  0  0
  1  2  2  0
  2  3  1  0
  3  4  1  0
  4  5  1  0
  5  6  1  0
  6  7  1  0
  5  8  1  0
  8  9  1  0
  9  1  1  0
  8  3  1  0
  7  5  1  0
  1 10  1  0
  2 11  1  0
  3 12  1  0
  4 13  1  0
  4 14  1  0
  6 15  1  0
  6 16  1  0
  7 17  1  0
  7 18  1  0
  8 19  1  0
  9 20  1  0
  9 21  1  0
M  END
