
     RDKit          3D

 21 23  0  0  0  0  0  0  0  0999 V2000
    2.2051   -0.2869   -0.4446 C   0  0  0  0  0  0  0  0  0  0  0  0
    1.4137    0.3788   -1.2542 C   0  0  0  0  0  0  0  0  0  0  0  0
    0.1215    0.6693   -0.5952 C   0  0  0  0  0  0  0  0  0  0  0  0
   -1.1534    0.1894   -1.2196 C   0  0  0  0  0  0  0  0  0  0  0  0
   -1.8271   -0.7344   -0.2523 C   0  0  0  0  0  0  0  0  0  0  0  0
   -1.0493   -0.6910    1.0340 C   0  0  0  0  0  0  0  0  0  0  0  0
    0.1874    0.1019    0.7712 C   0  0  0  0  0  0  0  0  0  0  0  0
    1.5437   -0.5299    0.8673 C   0  0  0  0  0  0  0  0  0  0  0  0
    0.0349    1.5625    0.5775 C   0  0  0  0  0  0  0  0  0  0  0  0
    3.2094   -0.6326   -0.6585 H   0  0  0  0  0  0  0  0  0  0  0  0
    1.6588    0.6796   -2.2646 H   0  0  0  0  0  0  0  0  0  0  0  0
   -0.8725   -0.3244   -2.1768 H   0  0  0  0  0  0  0  0  0  0  0  0
   -1.7996    1.0717   -1.4748 H   0  0  0  0  0  0  0  0  0  0  0  0
   -1.8938   -1.7796   -0.6140 H   0  0  0  0  0  0  0  0  0  0  0  0
   -2.8598   -0.3264   -0.0492 H   0  0  0  0  0  0  0  0  0  0  0  0
   -1.6154   -0.1673    1.8457 H   0  0  0  0  0  0  0  0  0  0  0  0
   -0.8029   -1.6912    1.4343 H   0  0  0  0  0  0  0  0  0  0  0  0
    2.1118   -0.0631    1.7150 H   0  0  0  0  0  0  0  0  0  0  0  0
    1.4545   -1.6017    1.0430 H   0  0  0  0  0  0  0  0  0  0  0  0
   -0.9562    1.9974    0.8067 H   0  0  0  0  0  0  0  0  0  0  0  0
    0.8892    2.1777    0.9090 H   0  0  0  0  0  0  0  0  0  0  0  0
  1  2  2  0
  2  3  1  0
  3  4  1  0
  4  5  1  0
  5  6  1  0
  6  7  1  0
  7  8  1  0
  7  9  1  0
  8  1  1  0
  7  3  1  0
  9  3  1  0
  1 10  1  0
  2 11  1  0
  4 12  1  0
  4 13  1  0
  5 14  1  0
  5 15  1  0
  6 16  1  0
  6 17  1  0
  8 18  1  0
  8 19  1  0
  9 20  1  0
  9 21  1  0
M  END
