
     RDKit          3D

 19 21  0  0  0  0  0  0  0  0999 V2000
   -1.7503   -0.8517   -0.9248 C   0  0  0  0  0  0  0  0  0  0  0  0
   -0.4416   -0.8909   -1.0117 C   0  0  0  0  0  0  0  0  0  0  0  0
    0.1761    0.0344   -0.0725 C   0  0  0  0  0  0  0  0  0  0  0  0
    1.4073    0.8202   -0.4702 C   0  0  0  0  0  0  0  0  0  0  0  0
    2.5822    0.1257   -0.8420 C   0  0  0  0  0  0  0  0  0  0  0  0
    2.4590    0.5973    0.5332 O   0  0  0  0  0  0  0  0  0  0  0  0
   -0.0390   -0.2916    1.3837 C   0  0  0  0  0  0  0  0  0  0  0  0
   -0.9168    0.7007    0.6326 C   0  0  0  0  0  0  0  0  0  0  0  0
   -2.1684    0.1197    0.0988 C   0  0  0  0  0  0  0  0  0  0  0  0
   -2.4811   -1.4474   -1.5178 H   0  0  0  0  0  0  0  0  0  0  0  0
    0.0531   -1.5764   -1.7410 H   0  0  0  0  0  0  0  0  0  0  0  0
    1.2435    1.8723   -0.6904 H   0  0  0  0  0  0  0  0  0  0  0  0
    3.4187    0.6534   -1.3517 H   0  0  0  0  0  0  0  0  0  0  0  0
    2.6636   -0.9776   -0.8237 H   0  0  0  0  0  0  0  0  0  0  0  0
   -0.4614   -1.2856    1.6370 H   0  0  0  0  0  0  0  0  0  0  0  0
    0.6792    0.0922    2.1241 H   0  0  0  0  0  0  0  0  0  0  0  0
   -0.8652    1.7617    0.9457 H   0  0  0  0  0  0  0  0  0  0  0  0
   -2.7338   -0.3706    0.9336 H   0  0  0  0  0  0  0  0  0  0  0  0
   -2.8252    0.9141   -0.3748 H   0  0  0  0  0  0  0  0  0  0  0  0
  1  2  2  0
  2  3  1  0
  3  4  1  0
  4  5  1  0
  5  6  1  0
  3  7  1  0
  7  8  1  0
  8  9  1  0
  9  1  1  0
  8  3  1  0
  6  4  1  0
  1 10  1  0
  2 11  1  0
  4 12  1  0
  5 13  1  0
  5 14  1  0
  7 15  1  0
  7 16  1  0
  8 17  1  0
  9 18  1  0
  9 19  1  0
M  END
