
     RDKit          3D

 13 13  0  0  0  0  0  0  0  0999 V2000
    1.1833    0.5741   -0.2355 C   0  0  0  0  0  0  0  0  0  0  0  0
    0.1082    1.3090   -0.0191 C   0  0  0  0  0  0  0  0  0  0  0  0
   -1.1245    0.4571    0.0491 C   0  0  0  0  0  0  0  0  0  0  0  0
   -0.5212   -0.8922    0.4424 C   0  0  0  0  0  0  0  0  0  0  0  0
    0.7665   -0.8374   -0.3328 C   0  0  0  0  0  0  0  0  0  0  0  0
    2.2102    0.9736   -0.3246 H   0  0  0  0  0  0  0  0  0  0  0  0
    0.1299    2.4046    0.0944 H   0  0  0  0  0  0  0  0  0  0  0  0
   -1.6507    0.3771   -0.8933 H   0  0  0  0  0  0  0  0  0  0  0  0
   -1.7188    0.8486    0.8974 H   0  0  0  0  0  0  0  0  0  0  0  0
   -0.2621   -0.9024    1.5269 H   0  0  0  0  0  0  0  0  0  0  0  0
   -1.1814   -1.7130    0.1413 H   0  0  0  0  0  0  0  0  0  0  0  0
    1.5196   -1.5444    0.0662 H   0  0  0  0  0  0  0  0  0  0  0  0
    0.5411   -1.0548   -1.4124 H   0  0  0  0  0  0  0  0  0  0  0  0
  1  2  2  0
  2  3  1  0
  3  4  1  0
  4  5  1  0
  5  1  1  0
  1  6  1  0
  2  7  1  0
  3  8  1  0
  3  9  1  0
  4 10  1  0
  4 11  1  0
  5 12  1  0
  5 13  1  0
M  END
