
     RDKit          3D

 21 22  0  0  0  0  0  0  0  0999 V2000
    1.6635   -0.0665   -1.0048 C   0  0  0  0  0  0  0  0  0  0  0  0
    1.1849    1.1530   -0.8785 C   0  0  0  0  0  0  0  0  0  0  0  0
    0.1896    1.4632    0.1748 C   0  0  0  0  0  0  0  0  0  0  0  0
    0.3485    0.4228    1.2558 C   0  0  0  0  0  0  0  0  0  0  0  0
    0.0058   -0.9108    0.6424 C   0  0  0  0  0  0  0  0  0  0  0  0
    1.1098   -1.2662   -0.3312 C   0  0  0  0  0  0  0  0  0  0  0  0
   -1.3269   -0.8637   -0.0316 C   0  0  0  0  0  0  0  0  0  0  0  0
   -1.8961    0.4950   -0.2091 C   0  0  0  0  0  0  0  0  0  0  0  0
   -1.0467    1.5196   -0.3894 O   0  0  0  0  0  0  0  0  0  0  0  0
    2.5237   -0.2175   -1.6444 H   0  0  0  0  0  0  0  0  0  0  0  0
    1.5206    1.9272   -1.5457 H   0  0  0  0  0  0  0  0  0  0  0  0
    0.3889    2.4503    0.6723 H   0  0  0  0  0  0  0  0  0  0  0  0
    1.4290    0.4018    1.5133 H   0  0  0  0  0  0  0  0  0  0  0  0
   -0.2124    0.6467    2.1641 H   0  0  0  0  0  0  0  0  0  0  0  0
   -0.0448   -1.6414    1.4882 H   0  0  0  0  0  0  0  0  0  0  0  0
    0.7132   -1.9567   -1.1283 H   0  0  0  0  0  0  0  0  0  0  0  0
    1.9212   -1.7920    0.2290 H   0  0  0  0  0  0  0  0  0  0  0  0
   -2.0756   -1.5084    0.5190 H   0  0  0  0  0  0  0  0  0  0  0  0
   -1.2052   -1.4032   -1.0177 H   0  0  0  0  0  0  0  0  0  0  0  0
   -2.5727    0.4525   -1.1135 H   0  0  0  0  0  0  0  0  0  0  0  0
   -2.6182    0.6945    0.6353 H   0  0  0  0  0  0  0  0  0  0  0  0
  1  2  2  0
  2  3  1  0
  3  4  1  0
  4  5  1  0
  5  6  1  0
  5  7  1  0
  7  8  1  0
  8  9  1  0
  6  1  1  0
  9  3  1  0
  1 10  1  0
  2 11  1  0
  3 12  1  0
  4 13  1  0
  4 14  1  0
  5 15  1  0
  6 16  1  0
  6 17  1  0
  7 18  1  0
  7 19  1  0
  8 20  1  0
  8 21  1  0
M  END
