
     RDKit          3D

 21 23  0  0  0  0  0  0  0  0999 V2000
    1.1123   -1.4103    0.2049 C   0  0  0  0  0  0  0  0  0  0  0  0
   -0.0990   -0.9827   -0.0697 C   0  0  0  0  0  0  0  0  0  0  0  0
   -1.5549   -1.3361   -0.0342 C   0  0  0  0  0  0  0  0  0  0  0  0
   -2.2189    0.0088    0.2302 C   0  0  0  0  0  0  0  0  0  0  0  0
   -1.1176    1.0708    0.1555 C   0  0  0  0  0  0  0  0  0  0  0  0
   -0.0947    0.3826   -0.6794 C   0  0  0  0  0  0  0  0  0  0  0  0
    1.2985    0.8550   -0.5886 C   0  0  0  0  0  0  0  0  0  0  0  0
    2.0377    0.8928    0.6916 C   0  0  0  0  0  0  0  0  0  0  0  0
    2.0953   -0.3263   -0.1689 C   0  0  0  0  0  0  0  0  0  0  0  0
    1.3429   -2.3803    0.6279 H   0  0  0  0  0  0  0  0  0  0  0  0
   -1.7927   -2.0875    0.7312 H   0  0  0  0  0  0  0  0  0  0  0  0
   -1.8027   -1.7359   -1.0382 H   0  0  0  0  0  0  0  0  0  0  0  0
   -2.9718    0.1664   -0.5628 H   0  0  0  0  0  0  0  0  0  0  0  0
   -2.6609    0.0637    1.2450 H   0  0  0  0  0  0  0  0  0  0  0  0
   -0.7449    1.3567    1.1449 H   0  0  0  0  0  0  0  0  0  0  0  0
   -1.5788    1.9435   -0.3918 H   0  0  0  0  0  0  0  0  0  0  0  0
   -0.4007    0.3430   -1.7499 H   0  0  0  0  0  0  0  0  0  0  0  0
    1.7206    1.4049   -1.4786 H   0  0  0  0  0  0  0  0  0  0  0  0
    1.4571    0.8031    1.6198 H   0  0  0  0  0  0  0  0  0  0  0  0
    2.9188    1.5620    0.7124 H   0  0  0  0  0  0  0  0  0  0  0  0
    3.0545   -0.5942   -0.6014 H   0  0  0  0  0  0  0  0  0  0  0  0
  1  2  2  0
  2  3  1  0
  3  4  1  0
  4  5  1  0
  5  6  1  0
  6  7  1  0
  7  8  1  0
  8  9  1  0
  9  1  1  0
  6  2  1  0
  9  7  1  0
  1 10  1  0
  3 11  1  0
  3 12  1  0
  4 13  1  0
  4 14  1  0
  5 15  1  0
  5 16  1  0
  6 17  1  0
  7 18  1  0
  8 19  1  0
  8 20  1  0
  9 21  1  0
M  END
