
     RDKit          3D

 19 20  0  0  0  0  0  0  0  0999 V2000
   -1.0633   -1.1210    0.7329 C   0  0  0  0  0  0  0  0  0  0  0  0
    0.1849   -1.4383    0.4807 C   0  0  0  0  0  0  0  0  0  0  0  0
    0.9712   -0.7456   -0.5858 C   0  0  0  0  0  0  0  0  0  0  0  0
    1.8568    0.2595    0.1610 C   0  0  0  0  0  0  0  0  0  0  0  0
    0.9387    1.3345    0.6347 C   0  0  0  0  0  0  0  0  0  0  0  0
   -0.2699    1.5347    0.1232 C   0  0  0  0  0  0  0  0  0  0  0  0
   -0.8553    0.6424   -0.9092 C   0  0  0  0  0  0  0  0  0  0  0  0
   -1.8135   -0.3699   -0.3154 C   0  0  0  0  0  0  0  0  0  0  0  0
    0.1891   -0.0707   -1.4811 O   0  0  0  0  0  0  0  0  0  0  0  0
   -1.5470   -1.3821    1.6530 H   0  0  0  0  0  0  0  0  0  0  0  0
    0.6960   -2.2106    1.0309 H   0  0  0  0  0  0  0  0  0  0  0  0
    1.5643   -1.5102   -1.1033 H   0  0  0  0  0  0  0  0  0  0  0  0
    2.5411    0.7308   -0.5702 H   0  0  0  0  0  0  0  0  0  0  0  0
    2.3985   -0.2265    0.9992 H   0  0  0  0  0  0  0  0  0  0  0  0
    1.2569    1.9874    1.4287 H   0  0  0  0  0  0  0  0  0  0  0  0
   -0.8801    2.3763    0.4522 H   0  0  0  0  0  0  0  0  0  0  0  0
   -1.3573    1.2189   -1.6965 H   0  0  0  0  0  0  0  0  0  0  0  0
   -2.0736   -1.0962   -1.0996 H   0  0  0  0  0  0  0  0  0  0  0  0
   -2.7375    0.0868    0.0647 H   0  0  0  0  0  0  0  0  0  0  0  0
  1  2  2  0
  2  3  1  0
  3  4  1  0
  4  5  1  0
  5  6  2  0
  6  7  1  0
  7  8  1  0
  7  9  1  0
  8  1  1  0
  9  3  1  0
  1 10  1  0
  2 11  1  0
  3 12  1  0
  4 13  1  0
  4 14  1  0
  5 15  1  0
  6 16  1  0
  7 17  1  0
  8 18  1  0
  8 19  1  0
M  END
