
     RDKit          3D

 21 22  0  0  0  0  0  0  0  0999 V2000
   -1.5894    1.2900    0.1514 C   0  0  0  0  0  0  0  0  0  0  0  0
   -0.2907    1.6611    0.1007 C   0  0  0  0  0  0  0  0  0  0  0  0
    0.6334    0.6106   -0.3825 C   0  0  0  0  0  0  0  0  0  0  0  0
    2.0313    0.7015    0.0701 C   0  0  0  0  0  0  0  0  0  0  0  0
    2.4007   -0.5156    0.6318 O   0  0  0  0  0  0  0  0  0  0  0  0
    1.3950   -1.4504    0.3170 C   0  0  0  0  0  0  0  0  0  0  0  0
    0.1678   -0.6348    0.4021 C   0  0  0  0  0  0  0  0  0  0  0  0
   -1.0326   -1.1082   -0.3226 C   0  0  0  0  0  0  0  0  0  0  0  0
   -2.0907   -0.0311   -0.2297 C   0  0  0  0  0  0  0  0  0  0  0  0
   -2.2845    2.0480    0.5048 H   0  0  0  0  0  0  0  0  0  0  0  0
   -0.0201    2.6473    0.3991 H   0  0  0  0  0  0  0  0  0  0  0  0
    0.4816    0.4541   -1.4542 H   0  0  0  0  0  0  0  0  0  0  0  0
    2.2566    1.5584    0.7366 H   0  0  0  0  0  0  0  0  0  0  0  0
    2.6847    0.8436   -0.8348 H   0  0  0  0  0  0  0  0  0  0  0  0
    1.3565   -2.2440    1.0883 H   0  0  0  0  0  0  0  0  0  0  0  0
    1.6241   -1.8211   -0.6857 H   0  0  0  0  0  0  0  0  0  0  0  0
   -0.0258   -0.3662    1.4576 H   0  0  0  0  0  0  0  0  0  0  0  0
   -1.4298   -2.0785    0.0343 H   0  0  0  0  0  0  0  0  0  0  0  0
   -0.7564   -1.1909   -1.4146 H   0  0  0  0  0  0  0  0  0  0  0  0
   -2.7221   -0.0065   -1.1625 H   0  0  0  0  0  0  0  0  0  0  0  0
   -2.7893   -0.3673    0.5928 H   0  0  0  0  0  0  0  0  0  0  0  0
  1  2  2  0
  2  3  1  0
  3  4  1  0
  4  5  1  0
  5  6  1  0
  6  7  1  0
  7  8  1  0
  8  9  1  0
  9  1  1  0
  7  3  1  0
  1 10  1  0
  2 11  1  0
  3 12  1  0
  4 13  1  0
  4 14  1  0
  6 15  1  0
  6 16  1  0
  7 17  1  0
  8 18  1  0
  8 19  1  0
  9 20  1  0
  9 21  1  0
M  END
