
     RDKit          3D

 19 21  0  0  0  0  0  0  0  0999 V2000
    2.4333    0.1447   -0.2259 C   0  0  0  0  0  0  0  0  0  0  0  0
    1.7643    1.2808   -0.1309 C   0  0  0  0  0  0  0  0  0  0  0  0
    0.3408    1.1086    0.1502 C   0  0  0  0  0  0  0  0  0  0  0  0
   -0.5254    0.3508   -0.7703 C   0  0  0  0  0  0  0  0  0  0  0  0
   -1.9706    0.1499   -0.4113 C   0  0  0  0  0  0  0  0  0  0  0  0
   -1.9443   -0.6714    0.8308 C   0  0  0  0  0  0  0  0  0  0  0  0
   -0.6515   -0.8581    1.2242 O   0  0  0  0  0  0  0  0  0  0  0  0
    0.2085   -0.3642    0.2877 C   0  0  0  0  0  0  0  0  0  0  0  0
    1.5163   -0.9934   -0.0137 C   0  0  0  0  0  0  0  0  0  0  0  0
    3.5151    0.0176   -0.4316 H   0  0  0  0  0  0  0  0  0  0  0  0
    2.2625    2.2549   -0.2570 H   0  0  0  0  0  0  0  0  0  0  0  0
   -0.1525    1.7512    0.9379 H   0  0  0  0  0  0  0  0  0  0  0  0
   -0.2119    0.2091   -1.8199 H   0  0  0  0  0  0  0  0  0  0  0  0
   -2.5290    1.1051   -0.2873 H   0  0  0  0  0  0  0  0  0  0  0  0
   -2.4257   -0.4584   -1.2401 H   0  0  0  0  0  0  0  0  0  0  0  0
   -2.5359   -0.1305    1.6227 H   0  0  0  0  0  0  0  0  0  0  0  0
   -2.4107   -1.6837    0.6861 H   0  0  0  0  0  0  0  0  0  0  0  0
    1.8215   -1.6445    0.8287 H   0  0  0  0  0  0  0  0  0  0  0  0
    1.4952   -1.5685   -0.9804 H   0  0  0  0  0  0  0  0  0  0  0  0
  1  2  2  0
  2  3  1  0
  3  4  1  0
  4  5  1  0
  5  6  1  0
  6  7  1  0
  7  8  1  0
  8  9  1  0
  9  1  1  0
  8  3  1  0
  8  4  1  0
  1 10  1  0
  2 11  1  0
  3 12  1  0
  4 13  1  0
  5 14  1  0
  5 15  1  0
  6 16  1  0
  6 17  1  0
  9 18  1  0
  9 19  1  0
M  END
