
     RDKit          3D

 21 22  0  0  0  0  0  0  0  0999 V2000
    2.2760   -0.5696    0.3925 C   0  0  0  0  0  0  0  0  0  0  0  0
    1.3692   -1.4295   -0.0300 C   0  0  0  0  0  0  0  0  0  0  0  0
    0.1045   -1.1498   -0.7047 C   0  0  0  0  0  0  0  0  0  0  0  0
   -0.7768   -0.0893   -0.2300 C   0  0  0  0  0  0  0  0  0  0  0  0
   -0.3045    1.0156    0.6035 C   0  0  0  0  0  0  0  0  0  0  0  0
    1.0356    1.5780    0.3433 C   0  0  0  0  0  0  0  0  0  0  0  0
    2.1621    0.8891    0.2518 C   0  0  0  0  0  0  0  0  0  0  0  0
   -2.2210   -0.4451   -0.0531 C   0  0  0  0  0  0  0  0  0  0  0  0
   -1.8395    0.3189   -1.2602 C   0  0  0  0  0  0  0  0  0  0  0  0
    3.1952   -0.9361    0.8760 H   0  0  0  0  0  0  0  0  0  0  0  0
    1.6305   -2.4914    0.1674 H   0  0  0  0  0  0  0  0  0  0  0  0
    0.2907   -0.9539   -1.8137 H   0  0  0  0  0  0  0  0  0  0  0  0
   -0.4658   -2.1317   -0.7443 H   0  0  0  0  0  0  0  0  0  0  0  0
   -1.0290    1.8622    0.5802 H   0  0  0  0  0  0  0  0  0  0  0  0
   -0.3489    0.6778    1.6867 H   0  0  0  0  0  0  0  0  0  0  0  0
    1.1312    2.6596    0.2108 H   0  0  0  0  0  0  0  0  0  0  0  0
    3.1055    1.4320    0.0657 H   0  0  0  0  0  0  0  0  0  0  0  0
   -2.5171   -1.5091   -0.2278 H   0  0  0  0  0  0  0  0  0  0  0  0
   -2.7931    0.0122    0.7747 H   0  0  0  0  0  0  0  0  0  0  0  0
   -2.1882    1.3807   -1.2654 H   0  0  0  0  0  0  0  0  0  0  0  0
   -1.8165   -0.1206   -2.2552 H   0  0  0  0  0  0  0  0  0  0  0  0
  1  2  2  0
  2  3  1  0
  3  4  1  0
  4  5  1  0
  5  6  1  0
  6  7  2  0
  4  8  1  0
  8  9  1  0
  7  1  1  0
  9  4  1  0
  1 10  1  0
  2 11  1  0
  3 12  1  0
  3 13  1  0
  5 14  1  0
  5 15  1  0
  6 16  1  0
  7 17  1  0
  8 18  1  0
  8 19  1  0
  9 20  1  0
  9 21  1  0
M  END
