
     RDKit          3D

 23 24  0  0  0  0  0  0  0  0999 V2000
   -1.5682   -0.1545    1.2304 C   0  0  0  0  0  0  0  0  0  0  0  0
   -1.0407    1.0559    1.0853 C   0  0  0  0  0  0  0  0  0  0  0  0
   -0.5930    1.2972   -0.2998 C   0  0  0  0  0  0  0  0  0  0  0  0
    0.8906    1.4438   -0.3831 C   0  0  0  0  0  0  0  0  0  0  0  0
    1.6528    0.3072    0.2282 C   0  0  0  0  0  0  0  0  0  0  0  0
    1.3048   -1.0110   -0.3958 C   0  0  0  0  0  0  0  0  0  0  0  0
    0.1141   -1.6793    0.2307 C   0  0  0  0  0  0  0  0  0  0  0  0
   -1.1699   -0.9592    0.0158 C   0  0  0  0  0  0  0  0  0  0  0  0
   -1.1281    0.1029   -1.0314 C   0  0  0  0  0  0  0  0  0  0  0  0
   -2.1717   -0.5482    2.0340 H   0  0  0  0  0  0  0  0  0  0  0  0
   -0.9550    1.7707    1.8931 H   0  0  0  0  0  0  0  0  0  0  0  0
   -1.0550    2.1957   -0.7349 H   0  0  0  0  0  0  0  0  0  0  0  0
    1.1721    2.3682    0.1562 H   0  0  0  0  0  0  0  0  0  0  0  0
    1.2202    1.5672   -1.4242 H   0  0  0  0  0  0  0  0  0  0  0  0
    2.7371    0.5129    0.0574 H   0  0  0  0  0  0  0  0  0  0  0  0
    1.5412    0.2764    1.3434 H   0  0  0  0  0  0  0  0  0  0  0  0
    1.2396   -0.8849   -1.4776 H   0  0  0  0  0  0  0  0  0  0  0  0
    2.1802   -1.7028   -0.2183 H   0  0  0  0  0  0  0  0  0  0  0  0
    0.0584   -2.7148   -0.1409 H   0  0  0  0  0  0  0  0  0  0  0  0
    0.3387   -1.7423    1.3354 H   0  0  0  0  0  0  0  0  0  0  0  0
   -1.9626   -1.6843   -0.2543 H   0  0  0  0  0  0  0  0  0  0  0  0
   -2.1995    0.3369   -1.3036 H   0  0  0  0  0  0  0  0  0  0  0  0
   -0.6061   -0.1535   -1.9459 H   0  0  0  0  0  0  0  0  0  0  0  0
  1  2  2  0
  2  3  1  0
  3  4  1  0
  4  5  1  0
  5  6  1  0
  6  7  1  0
  7  8  1  0
  8  9  1  0
  8  1  1  0
  9  3  1  0
  1 10  1  0
  2 11  1  0
  3 12  1  0
  4 13  1  0
  4 14  1  0
  5 15  1  0
  5 16  1  0
  6 17  1  0
  6 18  1  0
  7 19  1  0
  7 20  1  0
  8 21  1  0
  9 22  1  0
  9 23  1  0
M  END
