
     RDKit          3D

 19 22  0  0  0  0  0  0  0  0999 V2000
   -1.9128    0.8332    0.2800 C   0  0  0  0  0  0  0  0  0  0  0  0
   -1.0954    1.3367   -0.6059 C   0  0  0  0  0  0  0  0  0  0  0  0
    0.0618    0.4524   -0.7608 C   0  0  0  0  0  0  0  0  0  0  0  0
   -0.1799   -0.8626   -1.3816 C   0  0  0  0  0  0  0  0  0  0  0  0
   -0.2131   -0.7807    0.0826 C   0  0  0  0  0  0  0  0  0  0  0  0
   -1.4402   -0.4474    0.8499 C   0  0  0  0  0  0  0  0  0  0  0  0
    1.1391   -0.6865    0.7586 C   0  0  0  0  0  0  0  0  0  0  0  0
    2.3393   -0.2723    0.0405 C   0  0  0  0  0  0  0  0  0  0  0  0
    1.2301    0.7217    0.1226 C   0  0  0  0  0  0  0  0  0  0  0  0
   -2.8624    1.2921    0.5905 H   0  0  0  0  0  0  0  0  0  0  0  0
   -1.2485    2.2597   -1.1405 H   0  0  0  0  0  0  0  0  0  0  0  0
    0.6366   -1.4374   -1.8571 H   0  0  0  0  0  0  0  0  0  0  0  0
   -1.1541   -1.0075   -1.8863 H   0  0  0  0  0  0  0  0  0  0  0  0
   -2.2359   -1.1991    0.6523 H   0  0  0  0  0  0  0  0  0  0  0  0
   -1.2590   -0.3101    1.9345 H   0  0  0  0  0  0  0  0  0  0  0  0
    1.1762   -0.7700    1.8406 H   0  0  0  0  0  0  0  0  0  0  0  0
    2.5695   -0.6032   -1.0056 H   0  0  0  0  0  0  0  0  0  0  0  0
    3.2284   -0.0356    0.6193 H   0  0  0  0  0  0  0  0  0  0  0  0
    1.2202    1.5167    0.8665 H   0  0  0  0  0  0  0  0  0  0  0  0
  1  2  2  0
  2  3  1  0
  3  4  1  0
  4  5  1  0
  5  6  1  0
  5  7  1  0
  7  8  1  0
  8  9  1  0
  6  1  1  0
  9  7  1  0
  5  3  1  0
  9  3  1  0
  1 10  1  0
  2 11  1  0
  4 12  1  0
  4 13  1  0
  6 14  1  0
  6 15  1  0
  7 16  1  0
  8 17  1  0
  8 18  1  0
  9 19  1  0
M  END
