
     RDKit          3D

 21 22  0  0  0  0  0  0  0  0999 V2000
    0.4347    1.5631    0.3743 C   0  0  0  0  0  0  0  0  0  0  0  0
   -0.6404    0.8760    0.0532 C   0  0  0  0  0  0  0  0  0  0  0  0
   -2.1217    0.8725    0.0624 C   0  0  0  0  0  0  0  0  0  0  0  0
   -2.0593   -0.6418   -0.0892 C   0  0  0  0  0  0  0  0  0  0  0  0
   -0.6610   -0.4802   -0.5960 C   0  0  0  0  0  0  0  0  0  0  0  0
    0.3329   -1.3311    0.1381 C   0  0  0  0  0  0  0  0  0  0  0  0
    1.7459   -1.0813   -0.2704 C   0  0  0  0  0  0  0  0  0  0  0  0
    1.9827    0.1941   -0.7512 O   0  0  0  0  0  0  0  0  0  0  0  0
    1.8638    1.1874    0.1839 C   0  0  0  0  0  0  0  0  0  0  0  0
    0.2896    2.5262    0.8365 H   0  0  0  0  0  0  0  0  0  0  0  0
   -2.5377    1.2073    1.0245 H   0  0  0  0  0  0  0  0  0  0  0  0
   -2.5303    1.3849   -0.8260 H   0  0  0  0  0  0  0  0  0  0  0  0
   -2.1254   -1.1446    0.8824 H   0  0  0  0  0  0  0  0  0  0  0  0
   -2.7664   -1.0434   -0.8551 H   0  0  0  0  0  0  0  0  0  0  0  0
   -0.5444   -0.4024   -1.6772 H   0  0  0  0  0  0  0  0  0  0  0  0
    0.0635   -2.3976   -0.0477 H   0  0  0  0  0  0  0  0  0  0  0  0
    0.1933   -1.1631    1.2234 H   0  0  0  0  0  0  0  0  0  0  0  0
    2.4356   -1.3907    0.5321 H   0  0  0  0  0  0  0  0  0  0  0  0
    1.9641   -1.7797   -1.1310 H   0  0  0  0  0  0  0  0  0  0  0  0
    2.3075    0.9437    1.1675 H   0  0  0  0  0  0  0  0  0  0  0  0
    2.3732    2.1008   -0.2346 H   0  0  0  0  0  0  0  0  0  0  0  0
  1  2  2  0
  2  3  1  0
  3  4  1  0
  4  5  1  0
  5  6  1  0
  6  7  1  0
  7  8  1  0
  8  9  1  0
  9  1  1  0
  5  2  1  0
  1 10  1  0
  3 11  1  0
  3 12  1  0
  4 13  1  0
  4 14  1  0
  5 15  1  0
  6 16  1  0
  6 17  1  0
  7 18  1  0
  7 19  1  0
  9 20  1  0
  9 21  1  0
M  END
