
     RDKit          3D

 18 20  0  0  0  0  0  0  0  0999 V2000
    1.6359    0.2377   -0.0745 C   0  0  0  0  0  0  0  0  0  0  0  0
    0.9851    1.3821    0.1837 C   0  0  0  0  0  0  0  0  0  0  0  0
   -0.4763    1.3554    0.1575 C   0  0  0  0  0  0  0  0  0  0  0  0
   -1.1135    0.1678    0.7570 C   0  0  0  0  0  0  0  0  0  0  0  0
   -0.1194   -0.8982    1.1074 C   0  0  0  0  0  0  0  0  0  0  0  0
    0.7594   -0.9773   -0.1458 C   0  0  0  0  0  0  0  0  0  0  0  0
   -0.2475   -0.7306   -1.2294 C   0  0  0  0  0  0  0  0  0  0  0  0
   -1.1043    0.3578   -0.7061 C   0  0  0  0  0  0  0  0  0  0  0  0
    2.6910    0.1649   -0.2221 H   0  0  0  0  0  0  0  0  0  0  0  0
    1.4978    2.3114    0.4076 H   0  0  0  0  0  0  0  0  0  0  0  0
   -1.0157    2.3216    0.2703 H   0  0  0  0  0  0  0  0  0  0  0  0
   -2.0912    0.2161    1.2563 H   0  0  0  0  0  0  0  0  0  0  0  0
   -0.5692   -1.8782    1.2827 H   0  0  0  0  0  0  0  0  0  0  0  0
    0.5701   -0.5728    1.9274 H   0  0  0  0  0  0  0  0  0  0  0  0
    1.3087   -1.9062   -0.2209 H   0  0  0  0  0  0  0  0  0  0  0  0
    0.2159   -0.5294   -2.2095 H   0  0  0  0  0  0  0  0  0  0  0  0
   -0.8835   -1.6613   -1.2968 H   0  0  0  0  0  0  0  0  0  0  0  0
   -2.0435    0.6392   -1.2449 H   0  0  0  0  0  0  0  0  0  0  0  0
  1  2  2  0
  2  3  1  0
  3  4  1  0
  4  5  1  0
  5  6  1  0
  6  7  1  0
  7  8  1  0
  6  1  1  0
  8  3  1  0
  8  4  1  0
  1  9  1  0
  2 10  1  0
  3 11  1  0
  4 12  1  0
  5 13  1  0
  5 14  1  0
  6 15  1  0
  7 16  1  0
  7 17  1  0
  8 18  1  0
M  END
