
     RDKit          3D

 20 21  0  0  0  0  0  0  0  0999 V2000
    1.2679    1.4289   -0.1204 C   0  0  0  0  0  0  0  0  0  0  0  0
   -0.0430    1.3879   -0.3271 C   0  0  0  0  0  0  0  0  0  0  0  0
   -0.7914    0.1287   -0.0653 C   0  0  0  0  0  0  0  0  0  0  0  0
   -0.0748   -0.9784   -0.7668 C   0  0  0  0  0  0  0  0  0  0  0  0
    1.4018   -1.0184   -0.4722 C   0  0  0  0  0  0  0  0  0  0  0  0
    1.8705    0.1379    0.3772 C   0  0  0  0  0  0  0  0  0  0  0  0
   -2.2678    0.1262   -0.0276 C   0  0  0  0  0  0  0  0  0  0  0  0
   -1.4847   -0.0817    1.2258 C   0  0  0  0  0  0  0  0  0  0  0  0
    1.8688    2.3179   -0.2932 H   0  0  0  0  0  0  0  0  0  0  0  0
   -0.5795    2.2412   -0.6791 H   0  0  0  0  0  0  0  0  0  0  0  0
   -0.2576   -0.8785   -1.8648 H   0  0  0  0  0  0  0  0  0  0  0  0
   -0.5475   -1.9425   -0.4458 H   0  0  0  0  0  0  0  0  0  0  0  0
    1.6483   -1.9646    0.0621 H   0  0  0  0  0  0  0  0  0  0  0  0
    1.9871   -1.0411   -1.4138 H   0  0  0  0  0  0  0  0  0  0  0  0
    1.5275   -0.0253    1.4306 H   0  0  0  0  0  0  0  0  0  0  0  0
    2.9571    0.2046    0.4091 H   0  0  0  0  0  0  0  0  0  0  0  0
   -2.7715   -0.7451   -0.5078 H   0  0  0  0  0  0  0  0  0  0  0  0
   -2.8258    1.0828   -0.1533 H   0  0  0  0  0  0  0  0  0  0  0  0
   -1.4015   -1.1121    1.6411 H   0  0  0  0  0  0  0  0  0  0  0  0
   -1.4841    0.7316    1.9913 H   0  0  0  0  0  0  0  0  0  0  0  0
  1  2  2  0
  2  3  1  0
  3  4  1  0
  4  5  1  0
  5  6  1  0
  3  7  1  0
  7  8  1  0
  6  1  1  0
  8  3  1  0
  1  9  1  0
  2 10  1  0
  4 11  1  0
  4 12  1  0
  5 13  1  0
  5 14  1  0
  6 15  1  0
  6 16  1  0
  7 17  1  0
  7 18  1  0
  8 19  1  0
  8 20  1  0
M  END
