
     RDKit          3D

 19 21  0  0  0  0  0  0  0  0999 V2000
    1.3552    1.0881    0.0030 C   0  0  0  0  0  0  0  0  0  0  0  0
    0.1320    1.5937    0.0427 C   0  0  0  0  0  0  0  0  0  0  0  0
   -1.0894    0.8303    0.4238 C   0  0  0  0  0  0  0  0  0  0  0  0
   -0.6140   -0.3231    1.2278 C   0  0  0  0  0  0  0  0  0  0  0  0
    0.2224   -1.0286    0.1384 C   0  0  0  0  0  0  0  0  0  0  0  0
    1.5924   -0.3892    0.2107 C   0  0  0  0  0  0  0  0  0  0  0  0
   -0.3937   -0.5549   -1.1858 C   0  0  0  0  0  0  0  0  0  0  0  0
   -1.7124   -0.0767   -0.6856 C   0  0  0  0  0  0  0  0  0  0  0  0
   -2.1481    1.0834   -0.2743 O   0  0  0  0  0  0  0  0  0  0  0  0
    2.2467    1.6856   -0.1769 H   0  0  0  0  0  0  0  0  0  0  0  0
    0.0111    2.6332   -0.2194 H   0  0  0  0  0  0  0  0  0  0  0  0
    0.0208    0.0262    2.0448 H   0  0  0  0  0  0  0  0  0  0  0  0
   -1.4681   -0.9392    1.5210 H   0  0  0  0  0  0  0  0  0  0  0  0
    0.2190   -2.1042    0.2471 H   0  0  0  0  0  0  0  0  0  0  0  0
    2.1669   -0.7268   -0.6810 H   0  0  0  0  0  0  0  0  0  0  0  0
    2.1268   -0.5976    1.1369 H   0  0  0  0  0  0  0  0  0  0  0  0
    0.2036    0.2132   -1.6749 H   0  0  0  0  0  0  0  0  0  0  0  0
   -0.5362   -1.4664   -1.7885 H   0  0  0  0  0  0  0  0  0  0  0  0
   -2.3351   -0.9468   -0.3097 H   0  0  0  0  0  0  0  0  0  0  0  0
  1  2  2  0
  2  3  1  0
  3  4  1  0
  4  5  1  0
  5  6  1  0
  5  7  1  0
  7  8  1  0
  8  9  1  0
  6  1  1  0
  8  3  1  0
  9  3  1  0
  1 10  1  0
  2 11  1  0
  4 12  1  0
  4 13  1  0
  5 14  1  0
  6 15  1  0
  6 16  1  0
  7 17  1  0
  7 18  1  0
  8 19  1  0
M  END
