
     RDKit          3D

 19 20  0  0  0  0  0  0  0  0999 V2000
   -0.9771    1.8786    0.1098 C   0  0  0  0  0  0  0  0  0  0  0  0
   -1.8519    0.8976    0.2062 C   0  0  0  0  0  0  0  0  0  0  0  0
   -1.5218   -0.5471    0.2710 C   0  0  0  0  0  0  0  0  0  0  0  0
   -0.3861   -0.9381   -0.6091 C   0  0  0  0  0  0  0  0  0  0  0  0
    0.9650   -0.6277   -0.0294 C   0  0  0  0  0  0  0  0  0  0  0  0
    1.2758    0.8169   -0.0160 C   0  0  0  0  0  0  0  0  0  0  0  0
    0.4605    1.8600    0.0423 C   0  0  0  0  0  0  0  0  0  0  0  0
    1.8289   -1.6104    0.5613 C   0  0  0  0  0  0  0  0  0  0  0  0
    1.9929   -1.3463   -0.7825 O   0  0  0  0  0  0  0  0  0  0  0  0
   -1.4173    2.8727    0.0753 H   0  0  0  0  0  0  0  0  0  0  0  0
   -2.8858    1.2043    0.2384 H   0  0  0  0  0  0  0  0  0  0  0  0
   -1.3719   -0.8961    1.3094 H   0  0  0  0  0  0  0  0  0  0  0  0
   -2.4397   -1.0860   -0.0988 H   0  0  0  0  0  0  0  0  0  0  0  0
   -0.4279   -2.0524   -0.7375 H   0  0  0  0  0  0  0  0  0  0  0  0
   -0.5340   -0.5167   -1.6253 H   0  0  0  0  0  0  0  0  0  0  0  0
    2.3152    1.1190   -0.0587 H   0  0  0  0  0  0  0  0  0  0  0  0
    0.9227    2.8594    0.0399 H   0  0  0  0  0  0  0  0  0  0  0  0
    2.6036   -1.2706    1.2880 H   0  0  0  0  0  0  0  0  0  0  0  0
    1.4489   -2.6173    0.7926 H   0  0  0  0  0  0  0  0  0  0  0  0
  1  2  2  0
  2  3  1  0
  3  4  1  0
  4  5  1  0
  5  6  1  0
  6  7  2  0
  5  8  1  0
  8  9  1  0
  7  1  1  0
  9  5  1  0
  1 10  1  0
  2 11  1  0
  3 12  1  0
  3 13  1  0
  4 14  1  0
  4 15  1  0
  6 16  1  0
  7 17  1  0
  8 18  1  0
  8 19  1  0
M  END
