
     RDKit          3D

 19 21  0  0  0  0  0  0  0  0999 V2000
   -0.3086   -1.0036   -1.0403 C   0  0  0  0  0  0  0  0  0  0  0  0
    0.3287   -0.0688   -0.3598 C   0  0  0  0  0  0  0  0  0  0  0  0
    1.6476    0.4847   -0.7498 C   0  0  0  0  0  0  0  0  0  0  0  0
    2.8087    0.3072    0.1709 C   0  0  0  0  0  0  0  0  0  0  0  0
    2.1640    1.5629   -0.0326 O   0  0  0  0  0  0  0  0  0  0  0  0
   -0.4726    0.2462    0.7988 C   0  0  0  0  0  0  0  0  0  0  0  0
   -1.5976    1.0192    1.1081 C   0  0  0  0  0  0  0  0  0  0  0  0
   -1.8498    0.1699    0.0375 C   0  0  0  0  0  0  0  0  0  0  0  0
   -1.6118   -1.2736   -0.3039 C   0  0  0  0  0  0  0  0  0  0  0  0
    0.0095   -1.4855   -1.9302 H   0  0  0  0  0  0  0  0  0  0  0  0
    1.8874    0.4195   -1.8313 H   0  0  0  0  0  0  0  0  0  0  0  0
    2.6965   -0.1418    1.1608 H   0  0  0  0  0  0  0  0  0  0  0  0
    3.8226    0.2561   -0.2697 H   0  0  0  0  0  0  0  0  0  0  0  0
   -0.2911   -0.5932    1.5570 H   0  0  0  0  0  0  0  0  0  0  0  0
   -2.1491    0.8693    2.0737 H   0  0  0  0  0  0  0  0  0  0  0  0
   -1.5014    2.1370    0.9586 H   0  0  0  0  0  0  0  0  0  0  0  0
   -1.8898    0.7052   -0.9650 H   0  0  0  0  0  0  0  0  0  0  0  0
   -2.3627   -1.7134   -0.9522 H   0  0  0  0  0  0  0  0  0  0  0  0
   -1.3304   -1.8971    0.5694 H   0  0  0  0  0  0  0  0  0  0  0  0
  1  2  2  0
  2  3  1  0
  3  4  1  0
  4  5  1  0
  2  6  1  0
  6  7  1  0
  7  8  1  0
  8  9  1  0
  9  1  1  0
  5  3  1  0
  8  6  1  0
  1 10  1  0
  3 11  1  0
  4 12  1  0
  4 13  1  0
  6 14  1  0
  7 15  1  0
  7 16  1  0
  8 17  1  0
  9 18  1  0
  9 19  1  0
M  END
