
     RDKit          3D

 19 20  0  0  0  0  0  0  0  0999 V2000
    1.8995    0.2767   -0.5341 C   0  0  0  0  0  0  0  0  0  0  0  0
    1.1466    1.3560   -0.7078 C   0  0  0  0  0  0  0  0  0  0  0  0
   -0.2022    1.8094   -0.2435 C   0  0  0  0  0  0  0  0  0  0  0  0
   -0.4662    1.0894    0.9466 O   0  0  0  0  0  0  0  0  0  0  0  0
   -1.3844    0.0941    0.7750 C   0  0  0  0  0  0  0  0  0  0  0  0
   -1.5505   -0.6180   -0.5237 C   0  0  0  0  0  0  0  0  0  0  0  0
   -0.9187   -1.2760    0.6892 C   0  0  0  0  0  0  0  0  0  0  0  0
    0.5206   -1.5197    0.7069 C   0  0  0  0  0  0  0  0  0  0  0  0
    1.6259   -0.9470    0.2496 C   0  0  0  0  0  0  0  0  0  0  0  0
    2.8567    0.2786   -1.0330 H   0  0  0  0  0  0  0  0  0  0  0  0
    1.6333    2.0837   -1.3424 H   0  0  0  0  0  0  0  0  0  0  0  0
   -0.9730    1.5603   -1.0139 H   0  0  0  0  0  0  0  0  0  0  0  0
   -0.2128    2.8831    0.0223 H   0  0  0  0  0  0  0  0  0  0  0  0
   -2.3381    0.2639    1.3535 H   0  0  0  0  0  0  0  0  0  0  0  0
   -0.8406   -0.4585   -1.3481 H   0  0  0  0  0  0  0  0  0  0  0  0
   -2.5623   -0.8925   -0.8365 H   0  0  0  0  0  0  0  0  0  0  0  0
   -1.5643   -2.0852    1.1063 H   0  0  0  0  0  0  0  0  0  0  0  0
    0.7912   -2.4211    1.2404 H   0  0  0  0  0  0  0  0  0  0  0  0
    2.5392   -1.4771    0.4932 H   0  0  0  0  0  0  0  0  0  0  0  0
  1  2  2  3
  2  3  1  0
  3  4  1  0
  4  5  1  0
  5  6  1  0
  6  7  1  0
  7  8  1  0
  8  9  2  3
  9  1  1  0
  7  5  1  0
  1 10  1  0
  2 11  1  0
  3 12  1  0
  3 13  1  0
  5 14  1  0
  6 15  1  0
  6 16  1  0
  7 17  1  0
  8 18  1  0
  9 19  1  0
M  END
