
     RDKit          3D

 19 21  0  0  0  0  0  0  0  0999 V2000
    2.0172    0.1288    0.4931 C   0  0  0  0  0  0  0  0  0  0  0  0
    1.0797    0.9160    0.9753 C   0  0  0  0  0  0  0  0  0  0  0  0
   -0.2967    1.2688    0.6071 C   0  0  0  0  0  0  0  0  0  0  0  0
   -1.5056    0.6582    0.1506 C   0  0  0  0  0  0  0  0  0  0  0  0
   -1.9908   -0.7743    0.1092 C   0  0  0  0  0  0  0  0  0  0  0  0
   -0.6923   -1.5259    0.0125 C   0  0  0  0  0  0  0  0  0  0  0  0
    0.2305   -0.7712   -0.4602 C   0  0  0  0  0  0  0  0  0  0  0  0
    1.6626   -0.7033   -0.8201 C   0  0  0  0  0  0  0  0  0  0  0  0
   -0.4286    0.5827   -0.8098 C   0  0  0  0  0  0  0  0  0  0  0  0
    2.9960   -0.0499    0.8408 H   0  0  0  0  0  0  0  0  0  0  0  0
    1.4270    1.4538    1.9112 H   0  0  0  0  0  0  0  0  0  0  0  0
   -0.3892    2.4580    0.5113 H   0  0  0  0  0  0  0  0  0  0  0  0
   -2.3374    1.3964   -0.1489 H   0  0  0  0  0  0  0  0  0  0  0  0
   -2.4399   -0.9900    1.0998 H   0  0  0  0  0  0  0  0  0  0  0  0
   -2.6498   -0.9547   -0.7421 H   0  0  0  0  0  0  0  0  0  0  0  0
   -0.6082   -2.5639    0.3165 H   0  0  0  0  0  0  0  0  0  0  0  0
    1.8377   -0.0699   -1.6809 H   0  0  0  0  0  0  0  0  0  0  0  0
    2.1890   -1.6412   -0.7637 H   0  0  0  0  0  0  0  0  0  0  0  0
   -0.1012    1.1814   -1.6015 H   0  0  0  0  0  0  0  0  0  0  0  0
  1  2  2  0
  2  3  1  0
  3  4  1  0
  4  5  1  0
  5  6  1  0
  6  7  2  0
  7  8  1  0
  7  9  1  0
  8  1  1  0
  9  3  1  0
  9  4  1  0
  1 10  1  0
  2 11  1  0
  3 12  1  0
  4 13  1  0
  5 14  1  0
  5 15  1  0
  6 16  1  0
  8 17  1  0
  8 18  1  0
  9 19  1  0
M  END
