
     RDKit          3D

 21 22  0  0  0  0  0  0  0  0999 V2000
    0.4693    1.4989   -0.5373 C   0  0  0  0  0  0  0  0  0  0  0  0
   -0.8266    1.2164   -0.5543 C   0  0  0  0  0  0  0  0  0  0  0  0
   -1.7431    0.4262    0.3155 C   0  0  0  0  0  0  0  0  0  0  0  0
   -1.6607   -1.0206   -0.1693 C   0  0  0  0  0  0  0  0  0  0  0  0
   -0.2527   -1.4318   -0.4542 C   0  0  0  0  0  0  0  0  0  0  0  0
    0.3837   -2.4023    0.2732 O   0  0  0  0  0  0  0  0  0  0  0  0
    0.6565   -1.1181    0.7068 C   0  0  0  0  0  0  0  0  0  0  0  0
    1.8446   -0.3710    0.2043 C   0  0  0  0  0  0  0  0  0  0  0  0
    1.5665    1.1240    0.3942 C   0  0  0  0  0  0  0  0  0  0  0  0
    0.7528    2.1198   -1.3687 H   0  0  0  0  0  0  0  0  0  0  0  0
   -1.3234    1.6646   -1.3921 H   0  0  0  0  0  0  0  0  0  0  0  0
   -1.4455    0.5113    1.3868 H   0  0  0  0  0  0  0  0  0  0  0  0
   -2.7856    0.7440    0.1656 H   0  0  0  0  0  0  0  0  0  0  0  0
   -2.2179   -1.0284   -1.1520 H   0  0  0  0  0  0  0  0  0  0  0  0
   -2.2016   -1.6706    0.5261 H   0  0  0  0  0  0  0  0  0  0  0  0
    0.1220   -1.2796   -1.4809 H   0  0  0  0  0  0  0  0  0  0  0  0
    0.2082   -0.7891    1.6553 H   0  0  0  0  0  0  0  0  0  0  0  0
    2.0044   -0.5008   -0.8885 H   0  0  0  0  0  0  0  0  0  0  0  0
    2.7947   -0.6547    0.6903 H   0  0  0  0  0  0  0  0  0  0  0  0
    2.4696    1.7322    0.2475 H   0  0  0  0  0  0  0  0  0  0  0  0
    1.1849    1.2295    1.4317 H   0  0  0  0  0  0  0  0  0  0  0  0
  1  2  2  3
  2  3  1  0
  3  4  1  0
  4  5  1  0
  5  6  1  0
  6  7  1  0
  7  8  1  0
  8  9  1  0
  9  1  1  0
  7  5  1  0
  1 10  1  0
  2 11  1  0
  3 12  1  0
  3 13  1  0
  4 14  1  0
  4 15  1  0
  5 16  1  0
  7 17  1  0
  8 18  1  0
  8 19  1  0
  9 20  1  0
  9 21  1  0
M  END
