
     RDKit          3D

 18 19  0  0  0  0  0  0  0  0999 V2000
   -1.0961    1.0773    0.6190 C   0  0  0  0  0  0  0  0  0  0  0  0
    0.0696    1.5743    0.2551 C   0  0  0  0  0  0  0  0  0  0  0  0
    1.1184    0.6639   -0.2395 C   0  0  0  0  0  0  0  0  0  0  0  0
    1.3999   -0.3091    0.8839 C   0  0  0  0  0  0  0  0  0  0  0  0
    0.4606   -1.2455    0.8543 C   0  0  0  0  0  0  0  0  0  0  0  0
   -0.4158   -1.0782   -0.3357 C   0  0  0  0  0  0  0  0  0  0  0  0
   -1.5672   -0.1559   -0.0620 C   0  0  0  0  0  0  0  0  0  0  0  0
    0.5532   -0.3272   -1.2647 C   0  0  0  0  0  0  0  0  0  0  0  0
   -1.7085    1.5530    1.4002 H   0  0  0  0  0  0  0  0  0  0  0  0
    0.2496    2.6297    0.3209 H   0  0  0  0  0  0  0  0  0  0  0  0
    2.0203    1.1550   -0.5847 H   0  0  0  0  0  0  0  0  0  0  0  0
    2.2429   -0.1747    1.5381 H   0  0  0  0  0  0  0  0  0  0  0  0
    0.3634   -2.0137    1.6008 H   0  0  0  0  0  0  0  0  0  0  0  0
   -0.7326   -2.0263   -0.7729 H   0  0  0  0  0  0  0  0  0  0  0  0
   -2.4021   -0.6423    0.4673 H   0  0  0  0  0  0  0  0  0  0  0  0
   -1.9495    0.1803   -1.0696 H   0  0  0  0  0  0  0  0  0  0  0  0
    1.3486   -1.0226   -1.5230 H   0  0  0  0  0  0  0  0  0  0  0  0
    0.0454    0.1619   -2.0875 H   0  0  0  0  0  0  0  0  0  0  0  0
  1  2  2  0
  2  3  1  0
  3  4  1  0
  4  5  2  0
  5  6  1  0
  6  7  1  0
  6  8  1  0
  7  1  1  0
  8  3  1  0
  1  9  1  0
  2 10  1  0
  3 11  1  0
  4 12  1  0
  5 13  1  0
  6 14  1  0
  7 15  1  0
  7 16  1  0
  8 17  1  0
  8 18  1  0
M  END
