
     RDKit          3D

 17 19  0  0  0  0  0  0  0  0999 V2000
   -1.7393    0.8560    0.7925 C   0  0  0  0  0  0  0  0  0  0  0  0
   -0.4321    1.0073    0.9104 C   0  0  0  0  0  0  0  0  0  0  0  0
    0.2704    0.0578    0.1935 C   0  0  0  0  0  0  0  0  0  0  0  0
    1.1695   -0.6721    0.8668 O   0  0  0  0  0  0  0  0  0  0  0  0
    2.3332   -0.3970    0.1154 C   0  0  0  0  0  0  0  0  0  0  0  0
    1.8754   -0.1146   -1.1969 O   0  0  0  0  0  0  0  0  0  0  0  0
    0.5760   -0.5894   -1.0761 C   0  0  0  0  0  0  0  0  0  0  0  0
   -0.6277   -0.0089   -0.9561 C   0  0  0  0  0  0  0  0  0  0  0  0
   -1.8708   -0.3451   -0.1229 C   0  0  0  0  0  0  0  0  0  0  0  0
   -2.5466    1.4056    1.2096 H   0  0  0  0  0  0  0  0  0  0  0  0
   -0.0170    1.8216    1.5271 H   0  0  0  0  0  0  0  0  0  0  0  0
    3.0410   -1.2369    0.1268 H   0  0  0  0  0  0  0  0  0  0  0  0
    2.7277    0.5495    0.5001 H   0  0  0  0  0  0  0  0  0  0  0  0
    0.6084   -1.7274   -1.1268 H   0  0  0  0  0  0  0  0  0  0  0  0
   -0.8093    0.9959   -1.4571 H   0  0  0  0  0  0  0  0  0  0  0  0
   -2.7825   -0.3153   -0.7172 H   0  0  0  0  0  0  0  0  0  0  0  0
   -1.7762   -1.2869    0.4109 H   0  0  0  0  0  0  0  0  0  0  0  0
  1  2  2  0
  2  3  1  0
  3  4  1  0
  4  5  1  0
  5  6  1  0
  6  7  1  0
  7  8  1  0
  8  9  1  0
  9  1  1  0
  7  3  1  0
  8  3  1  0
  1 10  1  0
  2 11  1  0
  5 12  1  0
  5 13  1  0
  7 14  1  0
  8 15  1  0
  9 16  1  0
  9 17  1  0
M  END
