
     RDKit          3D

 18 19  0  0  0  0  0  0  0  0999 V2000
    0.6874    1.3671   -0.5070 C   0  0  0  0  0  0  0  0  0  0  0  0
    1.6034    0.4962   -0.0615 C   0  0  0  0  0  0  0  0  0  0  0  0
    0.9874   -0.6384    0.7245 C   0  0  0  0  0  0  0  0  0  0  0  0
    0.1438   -1.4122   -0.2690 C   0  0  0  0  0  0  0  0  0  0  0  0
   -0.8050   -0.4635   -1.0066 C   0  0  0  0  0  0  0  0  0  0  0  0
   -0.7295    0.8886   -0.2967 C   0  0  0  0  0  0  0  0  0  0  0  0
   -0.9255    0.5670    1.1810 C   0  0  0  0  0  0  0  0  0  0  0  0
    0.2033   -0.0337    1.7034 O   0  0  0  0  0  0  0  0  0  0  0  0
    0.9244    2.3074   -0.9661 H   0  0  0  0  0  0  0  0  0  0  0  0
    2.6521    0.5779   -0.2323 H   0  0  0  0  0  0  0  0  0  0  0  0
    1.7259   -1.3078    1.1451 H   0  0  0  0  0  0  0  0  0  0  0  0
    0.8570   -1.7875   -1.0507 H   0  0  0  0  0  0  0  0  0  0  0  0
   -0.4329   -2.2074    0.2075 H   0  0  0  0  0  0  0  0  0  0  0  0
   -1.8587   -0.8102   -0.8699 H   0  0  0  0  0  0  0  0  0  0  0  0
   -0.5983   -0.3975   -2.0685 H   0  0  0  0  0  0  0  0  0  0  0  0
   -1.4463    1.6101   -0.6777 H   0  0  0  0  0  0  0  0  0  0  0  0
   -1.2327    1.4371    1.7666 H   0  0  0  0  0  0  0  0  0  0  0  0
   -1.7556   -0.1932    1.2777 H   0  0  0  0  0  0  0  0  0  0  0  0
  1  2  2  0
  2  3  1  0
  3  4  1  0
  4  5  1  0
  5  6  1  0
  6  7  1  0
  7  8  1  0
  6  1  1  0
  8  3  1  0
  1  9  1  0
  2 10  1  0
  3 11  1  0
  4 12  1  0
  4 13  1  0
  5 14  1  0
  5 15  1  0
  6 16  1  0
  7 17  1  0
  7 18  1  0
M  END
