
     RDKit          3D

 21 22  0  0  0  0  0  0  0  0999 V2000
    1.5415    0.8928    0.4397 C   0  0  0  0  0  0  0  0  0  0  0  0
    0.5063    1.7357    0.4548 C   0  0  0  0  0  0  0  0  0  0  0  0
   -0.9256    1.3009    0.2879 C   0  0  0  0  0  0  0  0  0  0  0  0
   -0.9736    0.5619   -1.0404 C   0  0  0  0  0  0  0  0  0  0  0  0
   -0.6935   -0.8505   -0.5953 C   0  0  0  0  0  0  0  0  0  0  0  0
    0.7415   -1.2188   -0.6143 C   0  0  0  0  0  0  0  0  0  0  0  0
    1.5726   -0.5846    0.4640 C   0  0  0  0  0  0  0  0  0  0  0  0
   -1.3245   -0.8564    0.7625 C   0  0  0  0  0  0  0  0  0  0  0  0
   -1.2274    0.4037    1.2758 O   0  0  0  0  0  0  0  0  0  0  0  0
    2.5057    1.4325    0.4030 H   0  0  0  0  0  0  0  0  0  0  0  0
    0.7050    2.7901    0.5945 H   0  0  0  0  0  0  0  0  0  0  0  0
   -1.5863    2.1896    0.2939 H   0  0  0  0  0  0  0  0  0  0  0  0
   -2.0062    0.6376   -1.4379 H   0  0  0  0  0  0  0  0  0  0  0  0
   -0.2077    0.9470   -1.7335 H   0  0  0  0  0  0  0  0  0  0  0  0
   -1.2518   -1.5392   -1.2455 H   0  0  0  0  0  0  0  0  0  0  0  0
    1.1740   -0.8937   -1.5909 H   0  0  0  0  0  0  0  0  0  0  0  0
    0.8280   -2.3162   -0.4900 H   0  0  0  0  0  0  0  0  0  0  0  0
    2.6396   -0.8899    0.2559 H   0  0  0  0  0  0  0  0  0  0  0  0
    1.3590   -1.0094    1.4749 H   0  0  0  0  0  0  0  0  0  0  0  0
   -0.9522   -1.6590    1.4174 H   0  0  0  0  0  0  0  0  0  0  0  0
   -2.4244   -1.0742    0.6233 H   0  0  0  0  0  0  0  0  0  0  0  0
  1  2  2  0
  2  3  1  0
  3  4  1  0
  4  5  1  0
  5  6  1  0
  6  7  1  0
  5  8  1  0
  8  9  1  0
  7  1  1  0
  9  3  1  0
  1 10  1  0
  2 11  1  0
  3 12  1  0
  4 13  1  0
  4 14  1  0
  5 15  1  0
  6 16  1  0
  6 17  1  0
  7 18  1  0
  7 19  1  0
  8 20  1  0
  8 21  1  0
M  END
