
     RDKit          3D

 19 20  0  0  0  0  0  0  0  0999 V2000
    1.9115    0.2658    0.4227 C   0  0  0  0  0  0  0  0  0  0  0  0
    1.5758   -1.0025    0.2493 C   0  0  0  0  0  0  0  0  0  0  0  0
    0.4582   -1.5072   -0.5436 C   0  0  0  0  0  0  0  0  0  0  0  0
   -0.8473   -0.8870   -0.3032 C   0  0  0  0  0  0  0  0  0  0  0  0
   -1.1416   -0.8664    1.0804 O   0  0  0  0  0  0  0  0  0  0  0  0
   -1.7998    0.3606    0.8969 C   0  0  0  0  0  0  0  0  0  0  0  0
   -1.0948    0.5217   -0.4364 C   0  0  0  0  0  0  0  0  0  0  0  0
   -0.0264    1.4955   -0.4771 C   0  0  0  0  0  0  0  0  0  0  0  0
    1.2493    1.4511   -0.1332 C   0  0  0  0  0  0  0  0  0  0  0  0
    2.7799    0.4921    1.0483 H   0  0  0  0  0  0  0  0  0  0  0  0
    2.2250   -1.6894    0.7665 H   0  0  0  0  0  0  0  0  0  0  0  0
    0.7446   -1.4563   -1.6130 H   0  0  0  0  0  0  0  0  0  0  0  0
    0.3630   -2.6058   -0.3035 H   0  0  0  0  0  0  0  0  0  0  0  0
   -1.6573   -1.5054   -0.7942 H   0  0  0  0  0  0  0  0  0  0  0  0
   -1.5557    1.1310    1.6402 H   0  0  0  0  0  0  0  0  0  0  0  0
   -2.8895    0.1628    0.8297 H   0  0  0  0  0  0  0  0  0  0  0  0
   -1.8870    0.7920   -1.1980 H   0  0  0  0  0  0  0  0  0  0  0  0
   -0.2770    2.4956   -0.8678 H   0  0  0  0  0  0  0  0  0  0  0  0
    1.8690    2.3519   -0.2642 H   0  0  0  0  0  0  0  0  0  0  0  0
  1  2  2  0
  2  3  1  0
  3  4  1  0
  4  5  1  0
  5  6  1  0
  6  7  1  0
  7  8  1  0
  8  9  2  0
  9  1  1  0
  7  4  1  0
  1 10  1  0
  2 11  1  0
  3 12  1  0
  3 13  1  0
  4 14  1  0
  6 15  1  0
  6 16  1  0
  7 17  1  0
  8 18  1  0
  9 19  1  0
M  END
