
     RDKit          3D

 21 23  0  0  0  0  0  0  0  0999 V2000
    1.6270    0.7958   -0.8654 C   0  0  0  0  0  0  0  0  0  0  0  0
    0.4216    1.3336   -0.7529 C   0  0  0  0  0  0  0  0  0  0  0  0
   -0.5074    1.0212    0.3862 C   0  0  0  0  0  0  0  0  0  0  0  0
   -1.8484    0.4592   -0.1300 C   0  0  0  0  0  0  0  0  0  0  0  0
   -1.6727   -1.0766   -0.0528 C   0  0  0  0  0  0  0  0  0  0  0  0
   -0.1924   -1.1283   -0.2260 C   0  0  0  0  0  0  0  0  0  0  0  0
    0.9744   -1.0405    0.5543 C   0  0  0  0  0  0  0  0  0  0  0  0
    2.1919   -0.1836    0.1349 C   0  0  0  0  0  0  0  0  0  0  0  0
   -0.0083   -0.1840    1.0359 C   0  0  0  0  0  0  0  0  0  0  0  0
    2.2823    1.0486   -1.7159 H   0  0  0  0  0  0  0  0  0  0  0  0
    0.0677    2.0403   -1.5146 H   0  0  0  0  0  0  0  0  0  0  0  0
   -0.6598    1.9079    1.0099 H   0  0  0  0  0  0  0  0  0  0  0  0
   -2.5866    0.7131    0.6307 H   0  0  0  0  0  0  0  0  0  0  0  0
   -2.0637    0.7891   -1.1402 H   0  0  0  0  0  0  0  0  0  0  0  0
   -2.0369   -1.4630    0.9104 H   0  0  0  0  0  0  0  0  0  0  0  0
   -2.1701   -1.5717   -0.8975 H   0  0  0  0  0  0  0  0  0  0  0  0
   -0.0155   -0.6405   -1.2395 H   0  0  0  0  0  0  0  0  0  0  0  0
    1.3118   -1.8978    1.1621 H   0  0  0  0  0  0  0  0  0  0  0  0
    2.4718    0.3530    1.0654 H   0  0  0  0  0  0  0  0  0  0  0  0
    2.9773   -0.7918   -0.3034 H   0  0  0  0  0  0  0  0  0  0  0  0
   -0.5638   -0.4841    1.9485 H   0  0  0  0  0  0  0  0  0  0  0  0
  1  2  2  0
  2  3  1  0
  3  4  1  0
  4  5  1  0
  5  6  1  0
  6  7  1  0
  7  8  1  0
  7  9  1  0
  8  1  1  0
  9  3  1  0
  9  6  1  0
  1 10  1  0
  2 11  1  0
  3 12  1  0
  4 13  1  0
  4 14  1  0
  5 15  1  0
  5 16  1  0
  6 17  1  0
  7 18  1  0
  8 19  1  0
  8 20  1  0
  9 21  1  0
M  END
