
     RDKit          3D

 19 20  0  0  0  0  0  0  0  0999 V2000
   -0.8700    1.1266    0.2073 C   0  0  0  0  0  0  0  0  0  0  0  0
    0.2739    0.4800    0.2306 C   0  0  0  0  0  0  0  0  0  0  0  0
    1.6674    0.8300    0.5619 C   0  0  0  0  0  0  0  0  0  0  0  0
    2.4264   -0.1237   -0.3274 C   0  0  0  0  0  0  0  0  0  0  0  0
    1.6038   -1.1783   -0.6259 O   0  0  0  0  0  0  0  0  0  0  0  0
    0.3435   -0.9732   -0.1479 C   0  0  0  0  0  0  0  0  0  0  0  0
   -0.6915   -1.1761   -1.0546 O   0  0  0  0  0  0  0  0  0  0  0  0
   -1.8721   -1.0176   -0.2904 C   0  0  0  0  0  0  0  0  0  0  0  0
   -2.1566    0.4411   -0.1961 C   0  0  0  0  0  0  0  0  0  0  0  0
   -0.8810    2.1632    0.4822 H   0  0  0  0  0  0  0  0  0  0  0  0
    1.9212    1.8907    0.3574 H   0  0  0  0  0  0  0  0  0  0  0  0
    1.8447    0.6230    1.6418 H   0  0  0  0  0  0  0  0  0  0  0  0
    3.3487   -0.4228    0.2099 H   0  0  0  0  0  0  0  0  0  0  0  0
    2.6607    0.4150   -1.2789 H   0  0  0  0  0  0  0  0  0  0  0  0
    0.1662   -1.5708    0.7738 H   0  0  0  0  0  0  0  0  0  0  0  0
   -2.6923   -1.6159   -0.7064 H   0  0  0  0  0  0  0  0  0  0  0  0
   -1.7006   -1.3952    0.7487 H   0  0  0  0  0  0  0  0  0  0  0  0
   -2.4810    0.8882   -1.1582 H   0  0  0  0  0  0  0  0  0  0  0  0
   -2.9114    0.6160    0.5721 H   0  0  0  0  0  0  0  0  0  0  0  0
  1  2  2  0
  2  3  1  0
  3  4  1  0
  4  5  1  0
  5  6  1  0
  6  7  1  0
  7  8  1  0
  8  9  1  0
  9  1  1  0
  6  2  1  0
  1 10  1  0
  3 11  1  0
  3 12  1  0
  4 13  1  0
  4 14  1  0
  6 15  1  0
  8 16  1  0
  8 17  1  0
  9 18  1  0
  9 19  1  0
M  END
