
     RDKit          3D

 19 21  0  0  0  0  0  0  0  0999 V2000
    0.0994    1.7467   -0.1769 C   0  0  0  0  0  0  0  0  0  0  0  0
    1.3060    1.2581    0.1092 C   0  0  0  0  0  0  0  0  0  0  0  0
    1.7109   -0.1948    0.1500 C   0  0  0  0  0  0  0  0  0  0  0  0
    0.8000   -0.9150   -0.8586 C   0  0  0  0  0  0  0  0  0  0  0  0
   -0.0043   -1.0565    0.3346 C   0  0  0  0  0  0  0  0  0  0  0  0
   -1.3293   -1.5457    0.5003 C   0  0  0  0  0  0  0  0  0  0  0  0
   -1.1020   -0.1372    0.6627 C   0  0  0  0  0  0  0  0  0  0  0  0
   -1.1817    0.9508   -0.3448 C   0  0  0  0  0  0  0  0  0  0  0  0
    1.0351   -0.8960    1.1562 O   0  0  0  0  0  0  0  0  0  0  0  0
    0.0033    2.8290   -0.3074 H   0  0  0  0  0  0  0  0  0  0  0  0
    2.0819    1.9879    0.3372 H   0  0  0  0  0  0  0  0  0  0  0  0
    2.7720   -0.3908    0.0400 H   0  0  0  0  0  0  0  0  0  0  0  0
    0.4910   -0.2254   -1.6701 H   0  0  0  0  0  0  0  0  0  0  0  0
    1.2180   -1.8784   -1.2216 H   0  0  0  0  0  0  0  0  0  0  0  0
   -1.8541   -1.9455   -0.4180 H   0  0  0  0  0  0  0  0  0  0  0  0
   -1.6091   -2.1388    1.3918 H   0  0  0  0  0  0  0  0  0  0  0  0
   -1.0850    0.2639    1.7216 H   0  0  0  0  0  0  0  0  0  0  0  0
   -1.3395    0.6429   -1.3746 H   0  0  0  0  0  0  0  0  0  0  0  0
   -2.0126    1.6448   -0.0316 H   0  0  0  0  0  0  0  0  0  0  0  0
  1  2  2  0
  2  3  1  0
  3  4  1  0
  4  5  1  0
  5  6  1  0
  6  7  1  0
  7  8  1  0
  5  9  1  0
  8  1  1  0
  9  3  1  0
  7  5  1  0
  1 10  1  0
  2 11  1  0
  3 12  1  0
  4 13  1  0
  4 14  1  0
  6 15  1  0
  6 16  1  0
  7 17  1  0
  8 18  1  0
  8 19  1  0
M  END
