
     RDKit          3D

 21 23  0  0  0  0  0  0  0  0999 V2000
    2.7575    0.0022    0.3616 C   0  0  0  0  0  0  0  0  0  0  0  0
    1.8692    0.2609    1.3035 C   0  0  0  0  0  0  0  0  0  0  0  0
    0.5186   -0.1055    0.8754 C   0  0  0  0  0  0  0  0  0  0  0  0
    0.7037   -0.7484   -0.4376 C   0  0  0  0  0  0  0  0  0  0  0  0
    2.1302   -0.5838   -0.8554 C   0  0  0  0  0  0  0  0  0  0  0  0
   -0.0544    0.5609   -0.3017 C   0  0  0  0  0  0  0  0  0  0  0  0
   -1.4998    0.4654   -0.6725 C   0  0  0  0  0  0  0  0  0  0  0  0
   -2.5887    0.9143    0.1992 C   0  0  0  0  0  0  0  0  0  0  0  0
   -2.3517   -0.5903   -0.0391 C   0  0  0  0  0  0  0  0  0  0  0  0
    3.8430    0.1944    0.4553 H   0  0  0  0  0  0  0  0  0  0  0  0
    2.1552    0.6996    2.2785 H   0  0  0  0  0  0  0  0  0  0  0  0
   -0.1942   -0.5016    1.6285 H   0  0  0  0  0  0  0  0  0  0  0  0
    0.1451   -1.6656   -0.6732 H   0  0  0  0  0  0  0  0  0  0  0  0
    2.1494    0.1929   -1.6631 H   0  0  0  0  0  0  0  0  0  0  0  0
    2.6226   -1.5270   -1.1654 H   0  0  0  0  0  0  0  0  0  0  0  0
    0.4418    1.5026   -0.6267 H   0  0  0  0  0  0  0  0  0  0  0  0
   -1.6744    0.6257   -1.7777 H   0  0  0  0  0  0  0  0  0  0  0  0
   -3.5177    1.3268   -0.2565 H   0  0  0  0  0  0  0  0  0  0  0  0
   -2.4141    1.2757    1.2273 H   0  0  0  0  0  0  0  0  0  0  0  0
   -3.0601   -1.1233   -0.6793 H   0  0  0  0  0  0  0  0  0  0  0  0
   -1.9811   -1.1759    0.8189 H   0  0  0  0  0  0  0  0  0  0  0  0
  1  2  2  0
  2  3  1  0
  3  4  1  0
  4  5  1  0
  4  6  1  0
  6  7  1  0
  7  8  1  0
  8  9  1  0
  5  1  1  0
  9  7  1  0
  6  3  1  0
  1 10  1  0
  2 11  1  0
  3 12  1  0
  4 13  1  0
  5 14  1  0
  5 15  1  0
  6 16  1  0
  7 17  1  0
  8 18  1  0
  8 19  1  0
  9 20  1  0
  9 21  1  0
M  END
