
     RDKit          3D

 19 22  0  0  0  0  0  0  0  0999 V2000
    1.8472   -0.6545    0.2719 C   0  0  0  0  0  0  0  0  0  0  0  0
    1.7466    0.6421    0.5528 C   0  0  0  0  0  0  0  0  0  0  0  0
    0.3076    1.0356    0.5279 C   0  0  0  0  0  0  0  0  0  0  0  0
   -0.3037   -0.2856    1.0234 C   0  0  0  0  0  0  0  0  0  0  0  0
   -1.6749   -0.2107    0.4912 C   0  0  0  0  0  0  0  0  0  0  0  0
   -1.3700    0.1189   -0.9788 C   0  0  0  0  0  0  0  0  0  0  0  0
   -0.0631   -0.4985   -1.2569 C   0  0  0  0  0  0  0  0  0  0  0  0
    0.4605   -1.1415    0.0015 C   0  0  0  0  0  0  0  0  0  0  0  0
   -0.2137    1.0052   -0.8812 C   0  0  0  0  0  0  0  0  0  0  0  0
    2.7297   -1.2816    0.2324 H   0  0  0  0  0  0  0  0  0  0  0  0
    2.5697    1.3076    0.7655 H   0  0  0  0  0  0  0  0  0  0  0  0
    0.0473    1.8848    1.1212 H   0  0  0  0  0  0  0  0  0  0  0  0
   -0.1250   -0.5157    2.0330 H   0  0  0  0  0  0  0  0  0  0  0  0
   -2.2858   -1.1189    0.5850 H   0  0  0  0  0  0  0  0  0  0  0  0
   -2.1934    0.6793    0.9499 H   0  0  0  0  0  0  0  0  0  0  0  0
   -2.1795    0.2283   -1.6846 H   0  0  0  0  0  0  0  0  0  0  0  0
    0.3173   -0.7450   -2.2345 H   0  0  0  0  0  0  0  0  0  0  0  0
    0.3032   -2.1910    0.1020 H   0  0  0  0  0  0  0  0  0  0  0  0
    0.0800    1.7412   -1.6219 H   0  0  0  0  0  0  0  0  0  0  0  0
  1  2  2  0
  2  3  1  0
  3  4  1  0
  4  5  1  0
  5  6  1  0
  6  7  1  0
  7  8  1  0
  7  9  1  0
  8  1  1  0
  9  3  1  0
  8  4  1  0
  9  6  1  0
  1 10  1  0
  2 11  1  0
  3 12  1  0
  4 13  1  0
  5 14  1  0
  5 15  1  0
  6 16  1  0
  7 17  1  0
  8 18  1  0
  9 19  1  0
M  END
