
     RDKit          3D

 21 22  0  0  0  0  0  0  0  0999 V2000
   -0.6710    1.2628   -0.3908 C   0  0  0  0  0  0  0  0  0  0  0  0
   -0.2179    0.0359   -0.3064 C   0  0  0  0  0  0  0  0  0  0  0  0
    1.0499   -0.5339   -0.8482 C   0  0  0  0  0  0  0  0  0  0  0  0
    1.9756   -1.1096    0.1671 C   0  0  0  0  0  0  0  0  0  0  0  0
    2.9024    0.0149   -0.2433 C   0  0  0  0  0  0  0  0  0  0  0  0
    1.9945    0.3779   -1.2485 O   0  0  0  0  0  0  0  0  0  0  0  0
   -1.2174   -0.7543    0.4575 C   0  0  0  0  0  0  0  0  0  0  0  0
   -2.4950    0.0527    0.4541 C   0  0  0  0  0  0  0  0  0  0  0  0
   -1.9729    1.4656    0.2694 C   0  0  0  0  0  0  0  0  0  0  0  0
   -0.1222    2.0699   -0.9116 H   0  0  0  0  0  0  0  0  0  0  0  0
    0.8345   -1.2503   -1.6577 H   0  0  0  0  0  0  0  0  0  0  0  0
    1.6532   -1.0982    1.2161 H   0  0  0  0  0  0  0  0  0  0  0  0
    2.4368   -2.0917   -0.1269 H   0  0  0  0  0  0  0  0  0  0  0  0
    3.0182    0.7867    0.5375 H   0  0  0  0  0  0  0  0  0  0  0  0
    3.8482   -0.2874   -0.7110 H   0  0  0  0  0  0  0  0  0  0  0  0
   -1.3818   -1.7113   -0.0767 H   0  0  0  0  0  0  0  0  0  0  0  0
   -0.8725   -0.9602    1.4898 H   0  0  0  0  0  0  0  0  0  0  0  0
   -3.1597   -0.2124   -0.3764 H   0  0  0  0  0  0  0  0  0  0  0  0
   -3.0137   -0.0947    1.4096 H   0  0  0  0  0  0  0  0  0  0  0  0
   -2.6995    2.0383   -0.3405 H   0  0  0  0  0  0  0  0  0  0  0  0
   -1.8897    1.9993    1.2371 H   0  0  0  0  0  0  0  0  0  0  0  0
  1  2  2  0
  2  3  1  0
  3  4  1  0
  4  5  1  0
  5  6  1  0
  2  7  1  0
  7  8  1  0
  8  9  1  0
  9  1  1  0
  6  3  1  0
  1 10  1  0
  3 11  1  0
  4 12  1  0
  4 13  1  0
  5 14  1  0
  5 15  1  0
  7 16  1  0
  7 17  1  0
  8 18  1  0
  8 19  1  0
  9 20  1  0
  9 21  1  0
M  END
