
     RDKit          3D

 19 21  0  0  0  0  0  0  0  0999 V2000
    0.8734    1.4207   -0.3029 C   0  0  0  0  0  0  0  0  0  0  0  0
    1.7647    0.4430   -0.4322 C   0  0  0  0  0  0  0  0  0  0  0  0
    1.4625   -0.9774   -0.3671 C   0  0  0  0  0  0  0  0  0  0  0  0
    1.7057   -1.8896    0.5599 O   0  0  0  0  0  0  0  0  0  0  0  0
    0.7272   -1.1080    0.9820 C   0  0  0  0  0  0  0  0  0  0  0  0
   -0.7043   -1.0154    0.6850 C   0  0  0  0  0  0  0  0  0  0  0  0
   -1.3793   -0.9010   -0.5853 C   0  0  0  0  0  0  0  0  0  0  0  0
   -1.2795    0.2830    0.4159 C   0  0  0  0  0  0  0  0  0  0  0  0
   -0.5593    1.4331   -0.0760 C   0  0  0  0  0  0  0  0  0  0  0  0
    1.3253    2.4190   -0.3887 H   0  0  0  0  0  0  0  0  0  0  0  0
    2.7731    0.7727   -0.5959 H   0  0  0  0  0  0  0  0  0  0  0  0
    0.9585   -1.3662   -1.2678 H   0  0  0  0  0  0  0  0  0  0  0  0
    1.0445   -0.4029    1.8089 H   0  0  0  0  0  0  0  0  0  0  0  0
   -1.2725   -1.6293    1.4626 H   0  0  0  0  0  0  0  0  0  0  0  0
   -2.4071   -1.3596   -0.7107 H   0  0  0  0  0  0  0  0  0  0  0  0
   -0.9364   -0.7440   -1.5833 H   0  0  0  0  0  0  0  0  0  0  0  0
   -2.2868    0.5352    0.8753 H   0  0  0  0  0  0  0  0  0  0  0  0
   -0.7792    2.3352    0.5790 H   0  0  0  0  0  0  0  0  0  0  0  0
   -1.0305    1.7517   -1.0587 H   0  0  0  0  0  0  0  0  0  0  0  0
  1  2  2  0
  2  3  1  0
  3  4  1  0
  4  5  1  0
  5  6  1  0
  6  7  1  0
  7  8  1  0
  8  9  1  0
  9  1  1  0
  5  3  1  0
  8  6  1  0
  1 10  1  0
  2 11  1  0
  3 12  1  0
  5 13  1  0
  6 14  1  0
  7 15  1  0
  7 16  1  0
  8 17  1  0
  9 18  1  0
  9 19  1  0
M  END
