
     RDKit          3D

 19 20  0  0  0  0  0  0  0  0999 V2000
   -0.3882    1.3007    0.1846 C   0  0  0  0  0  0  0  0  0  0  0  0
    0.8346    0.7931    0.0768 C   0  0  0  0  0  0  0  0  0  0  0  0
    2.2812    0.9310    0.3607 C   0  0  0  0  0  0  0  0  0  0  0  0
    2.4191   -0.4210   -0.0261 O   0  0  0  0  0  0  0  0  0  0  0  0
    1.1633   -0.4959   -0.5949 C   0  0  0  0  0  0  0  0  0  0  0  0
    0.2409   -1.5468   -0.0329 C   0  0  0  0  0  0  0  0  0  0  0  0
   -0.6673   -1.0623    0.8748 O   0  0  0  0  0  0  0  0  0  0  0  0
   -1.8667   -0.6480    0.3048 C   0  0  0  0  0  0  0  0  0  0  0  0
   -1.7004    0.7438   -0.3137 C   0  0  0  0  0  0  0  0  0  0  0  0
   -0.4110    2.2480    0.7093 H   0  0  0  0  0  0  0  0  0  0  0  0
    2.5348    1.0757    1.4255 H   0  0  0  0  0  0  0  0  0  0  0  0
    2.7680    1.6518   -0.3134 H   0  0  0  0  0  0  0  0  0  0  0  0
    1.2121   -0.4356   -1.6978 H   0  0  0  0  0  0  0  0  0  0  0  0
   -0.2406   -2.1265   -0.8460 H   0  0  0  0  0  0  0  0  0  0  0  0
    0.9014   -2.2729    0.5213 H   0  0  0  0  0  0  0  0  0  0  0  0
   -2.5795   -0.5076    1.1591 H   0  0  0  0  0  0  0  0  0  0  0  0
   -2.3041   -1.3649   -0.3910 H   0  0  0  0  0  0  0  0  0  0  0  0
   -2.4915    1.4335    0.0119 H   0  0  0  0  0  0  0  0  0  0  0  0
   -1.7062    0.7038   -1.4129 H   0  0  0  0  0  0  0  0  0  0  0  0
  1  2  2  0
  2  3  1  0
  3  4  1  0
  4  5  1  0
  5  6  1  0
  6  7  1  0
  7  8  1  0
  8  9  1  0
  9  1  1  0
  5  2  1  0
  1 10  1  0
  3 11  1  0
  3 12  1  0
  5 13  1  0
  6 14  1  0
  6 15  1  0
  8 16  1  0
  8 17  1  0
  9 18  1  0
  9 19  1  0
M  END
