
     RDKit          3D

 21 22  0  0  0  0  0  0  0  0999 V2000
   -1.1281    1.3352    0.8182 C   0  0  0  0  0  0  0  0  0  0  0  0
    0.1647    1.1404    0.6814 C   0  0  0  0  0  0  0  0  0  0  0  0
    0.7262   -0.0383    0.0548 C   0  0  0  0  0  0  0  0  0  0  0  0
   -0.1862   -1.1907   -0.1695 C   0  0  0  0  0  0  0  0  0  0  0  0
   -1.5629   -0.7135   -0.5506 C   0  0  0  0  0  0  0  0  0  0  0  0
   -2.0920    0.3478    0.3332 C   0  0  0  0  0  0  0  0  0  0  0  0
    1.6183    0.3370   -1.1116 C   0  0  0  0  0  0  0  0  0  0  0  0
    2.5811    0.6939   -0.1654 O   0  0  0  0  0  0  0  0  0  0  0  0
    2.0895   -0.3890    0.6028 C   0  0  0  0  0  0  0  0  0  0  0  0
   -1.5155    2.2613    1.3080 H   0  0  0  0  0  0  0  0  0  0  0  0
    0.8425    1.9030    1.0583 H   0  0  0  0  0  0  0  0  0  0  0  0
   -0.3025   -1.7901    0.7654 H   0  0  0  0  0  0  0  0  0  0  0  0
    0.1806   -1.8490   -0.9557 H   0  0  0  0  0  0  0  0  0  0  0  0
   -2.2420   -1.6102   -0.4523 H   0  0  0  0  0  0  0  0  0  0  0  0
   -1.5290   -0.3697   -1.6044 H   0  0  0  0  0  0  0  0  0  0  0  0
   -2.8742    0.9151   -0.2521 H   0  0  0  0  0  0  0  0  0  0  0  0
   -2.6573   -0.1166    1.1926 H   0  0  0  0  0  0  0  0  0  0  0  0
    1.2323    1.1936   -1.7171 H   0  0  0  0  0  0  0  0  0  0  0  0
    1.9880   -0.5076   -1.7052 H   0  0  0  0  0  0  0  0  0  0  0  0
    2.5356   -1.3122    0.1897 H   0  0  0  0  0  0  0  0  0  0  0  0
    2.1308   -0.2405    1.6795 H   0  0  0  0  0  0  0  0  0  0  0  0
  1  2  2  0
  2  3  1  0
  3  4  1  0
  4  5  1  0
  5  6  1  0
  3  7  1  0
  7  8  1  0
  8  9  1  0
  6  1  1  0
  9  3  1  0
  1 10  1  0
  2 11  1  0
  4 12  1  0
  4 13  1  0
  5 14  1  0
  5 15  1  0
  6 16  1  0
  6 17  1  0
  7 18  1  0
  7 19  1  0
  9 20  1  0
  9 21  1  0
M  END
