
     RDKit          3D

 19 20  0  0  0  0  0  0  0  0999 V2000
    1.2441    1.2302    0.5790 C   0  0  0  0  0  0  0  0  0  0  0  0
   -0.0676    1.0522    0.4956 C   0  0  0  0  0  0  0  0  0  0  0  0
   -0.8134   -0.0222   -0.2171 C   0  0  0  0  0  0  0  0  0  0  0  0
   -2.1320   -0.4747    0.2272 C   0  0  0  0  0  0  0  0  0  0  0  0
   -1.9874    0.4459   -0.9913 C   0  0  0  0  0  0  0  0  0  0  0  0
    0.0988   -0.8976   -0.8270 O   0  0  0  0  0  0  0  0  0  0  0  0
    0.9106   -1.5202    0.0723 C   0  0  0  0  0  0  0  0  0  0  0  0
    2.1210   -0.9555    0.3046 O   0  0  0  0  0  0  0  0  0  0  0  0
    2.2716    0.3539   -0.0502 C   0  0  0  0  0  0  0  0  0  0  0  0
    1.6028    2.0978    1.1616 H   0  0  0  0  0  0  0  0  0  0  0  0
   -0.6565    1.7815    1.0115 H   0  0  0  0  0  0  0  0  0  0  0  0
   -2.4318   -1.5157    0.0058 H   0  0  0  0  0  0  0  0  0  0  0  0
   -2.5498    0.0105    1.1427 H   0  0  0  0  0  0  0  0  0  0  0  0
   -2.3701    1.4775   -0.8578 H   0  0  0  0  0  0  0  0  0  0  0  0
   -2.2067    0.0074   -1.9840 H   0  0  0  0  0  0  0  0  0  0  0  0
    0.3937   -1.6854    1.0603 H   0  0  0  0  0  0  0  0  0  0  0  0
    1.0896   -2.5688   -0.3090 H   0  0  0  0  0  0  0  0  0  0  0  0
    3.2681    0.6959    0.3294 H   0  0  0  0  0  0  0  0  0  0  0  0
    2.2150    0.4874   -1.1536 H   0  0  0  0  0  0  0  0  0  0  0  0
  1  2  2  0
  2  3  1  0
  3  4  1  0
  4  5  1  0
  3  6  1  0
  6  7  1  0
  7  8  1  0
  8  9  1  0
  9  1  1  0
  5  3  1  0
  1 10  1  0
  2 11  1  0
  4 12  1  0
  4 13  1  0
  5 14  1  0
  5 15  1  0
  7 16  1  0
  7 17  1  0
  9 18  1  0
  9 19  1  0
M  END
