
     RDKit          3D

 18 20  0  0  0  0  0  0  0  0999 V2000
   -0.8105    1.4365   -0.1732 C   0  0  0  0  0  0  0  0  0  0  0  0
    0.3247    1.4170   -0.8162 C   0  0  0  0  0  0  0  0  0  0  0  0
    1.2436    0.3017   -0.8119 C   0  0  0  0  0  0  0  0  0  0  0  0
    1.9524   -0.1775    0.3950 C   0  0  0  0  0  0  0  0  0  0  0  0
    0.7265   -0.9136   -0.2234 C   0  0  0  0  0  0  0  0  0  0  0  0
   -0.4588   -0.8513    0.6383 C   0  0  0  0  0  0  0  0  0  0  0  0
   -1.8464   -0.9145    0.0406 C   0  0  0  0  0  0  0  0  0  0  0  0
   -1.2969    0.3253    0.6371 C   0  0  0  0  0  0  0  0  0  0  0  0
   -1.4661    2.3484   -0.2335 H   0  0  0  0  0  0  0  0  0  0  0  0
    0.6273    2.3200   -1.4177 H   0  0  0  0  0  0  0  0  0  0  0  0
    1.8487    0.2096   -1.7513 H   0  0  0  0  0  0  0  0  0  0  0  0
    2.9343   -0.6683    0.2741 H   0  0  0  0  0  0  0  0  0  0  0  0
    1.8355    0.3154    1.3643 H   0  0  0  0  0  0  0  0  0  0  0  0
    1.0158   -1.8866   -0.7237 H   0  0  0  0  0  0  0  0  0  0  0  0
   -0.3399   -1.4165    1.6135 H   0  0  0  0  0  0  0  0  0  0  0  0
   -2.6248   -1.4341    0.6338 H   0  0  0  0  0  0  0  0  0  0  0  0
   -1.9002   -1.0844   -1.0440 H   0  0  0  0  0  0  0  0  0  0  0  0
   -1.7651    0.6729    1.5981 H   0  0  0  0  0  0  0  0  0  0  0  0
  1  2  2  0
  2  3  1  0
  3  4  1  0
  4  5  1  0
  5  6  1  0
  6  7  1  0
  7  8  1  0
  8  1  1  0
  5  3  1  0
  8  6  1  0
  1  9  1  0
  2 10  1  0
  3 11  1  0
  4 12  1  0
  4 13  1  0
  5 14  1  0
  6 15  1  0
  7 16  1  0
  7 17  1  0
  8 18  1  0
M  END
