
     RDKit          3D

 19 21  0  0  0  0  0  0  0  0999 V2000
   -1.0865    1.2319   -0.3056 C   0  0  0  0  0  0  0  0  0  0  0  0
    0.1507    0.7724   -0.4230 C   0  0  0  0  0  0  0  0  0  0  0  0
    1.6022    0.8200   -0.6465 C   0  0  0  0  0  0  0  0  0  0  0  0
    2.5174    0.4573    0.4386 C   0  0  0  0  0  0  0  0  0  0  0  0
    1.7671   -0.6451   -0.1814 C   0  0  0  0  0  0  0  0  0  0  0  0
    0.2838   -0.7164   -0.2122 C   0  0  0  0  0  0  0  0  0  0  0  0
   -0.3387   -0.9249    1.0348 O   0  0  0  0  0  0  0  0  0  0  0  0
   -1.7044   -0.9326    0.7722 C   0  0  0  0  0  0  0  0  0  0  0  0
   -2.1719    0.2712   -0.0039 C   0  0  0  0  0  0  0  0  0  0  0  0
   -1.2750    2.2705   -0.4288 H   0  0  0  0  0  0  0  0  0  0  0  0
    1.9923    0.9968   -1.6693 H   0  0  0  0  0  0  0  0  0  0  0  0
    3.6017    0.4981    0.2068 H   0  0  0  0  0  0  0  0  0  0  0  0
    2.2985    0.7457    1.4885 H   0  0  0  0  0  0  0  0  0  0  0  0
    2.2852   -1.3377   -0.8579 H   0  0  0  0  0  0  0  0  0  0  0  0
   -0.1754   -1.3368   -0.9772 H   0  0  0  0  0  0  0  0  0  0  0  0
   -1.8768   -1.8762    0.1721 H   0  0  0  0  0  0  0  0  0  0  0  0
   -2.3009   -1.0382    1.7097 H   0  0  0  0  0  0  0  0  0  0  0  0
   -2.9996    0.7953    0.5494 H   0  0  0  0  0  0  0  0  0  0  0  0
   -2.5697   -0.0511   -1.0133 H   0  0  0  0  0  0  0  0  0  0  0  0
  1  2  2  0
  2  3  1  0
  3  4  1  0
  4  5  1  0
  5  6  1  0
  6  7  1  0
  7  8  1  0
  8  9  1  0
  9  1  1  0
  6  2  1  0
  5  3  1  0
  1 10  1  0
  3 11  1  0
  4 12  1  0
  4 13  1  0
  5 14  1  0
  6 15  1  0
  8 16  1  0
  8 17  1  0
  9 18  1  0
  9 19  1  0
M  END
