
     RDKit          3D

 17 20  0  0  0  0  0  0  0  0999 V2000
    1.7319    0.4580    0.2174 C   0  0  0  0  0  0  0  0  0  0  0  0
    0.8631    1.4284    0.1609 C   0  0  0  0  0  0  0  0  0  0  0  0
   -0.3571    1.0275   -0.5775 C   0  0  0  0  0  0  0  0  0  0  0  0
   -1.4260    1.7373   -0.2836 O   0  0  0  0  0  0  0  0  0  0  0  0
   -1.6035    0.5261    0.1662 C   0  0  0  0  0  0  0  0  0  0  0  0
   -0.9011   -0.4078    1.0548 C   0  0  0  0  0  0  0  0  0  0  0  0
   -0.1507   -1.2352   -0.0111 C   0  0  0  0  0  0  0  0  0  0  0  0
    1.1517   -0.7215   -0.4987 C   0  0  0  0  0  0  0  0  0  0  0  0
   -0.0166   -0.2376   -1.1860 C   0  0  0  0  0  0  0  0  0  0  0  0
    2.7103    0.4864    0.6971 H   0  0  0  0  0  0  0  0  0  0  0  0
    1.0601    2.4202    0.6255 H   0  0  0  0  0  0  0  0  0  0  0  0
   -2.3383   -0.0574   -0.4943 H   0  0  0  0  0  0  0  0  0  0  0  0
   -0.1415    0.0197    1.7172 H   0  0  0  0  0  0  0  0  0  0  0  0
   -1.6126   -1.0785    1.5595 H   0  0  0  0  0  0  0  0  0  0  0  0
   -0.3899   -2.2673   -0.1860 H   0  0  0  0  0  0  0  0  0  0  0  0
    1.8779   -1.4462   -0.8560 H   0  0  0  0  0  0  0  0  0  0  0  0
   -0.4579   -0.6521   -2.1054 H   0  0  0  0  0  0  0  0  0  0  0  0
  1  2  2  0
  2  3  1  0
  3  4  1  0
  4  5  1  0
  5  6  1  0
  6  7  1  0
  7  8  1  0
  8  9  1  0
  8  1  1  0
  5  3  1  0
  9  7  1  0
  9  3  1  0
  1 10  1  0
  2 11  1  0
  5 12  1  0
  6 13  1  0
  6 14  1  0
  7 15  1  0
  8 16  1  0
  9 17  1  0
M  END
