
     RDKit          3D

 19 21  0  0  0  0  0  0  0  0999 V2000
    1.5727   -0.2855    0.8756 C   0  0  0  0  0  0  0  0  0  0  0  0
    1.3505    0.9884    0.5191 C   0  0  0  0  0  0  0  0  0  0  0  0
    0.1133    0.9761   -0.2364 C   0  0  0  0  0  0  0  0  0  0  0  0
    0.5886   -0.0905   -1.1450 C   0  0  0  0  0  0  0  0  0  0  0  0
    0.8606   -1.1667   -0.0989 C   0  0  0  0  0  0  0  0  0  0  0  0
   -0.4000   -1.5517    0.3541 O   0  0  0  0  0  0  0  0  0  0  0  0
   -1.4548   -0.9638   -0.3223 C   0  0  0  0  0  0  0  0  0  0  0  0
   -1.2666    0.5681   -0.2528 C   0  0  0  0  0  0  0  0  0  0  0  0
   -0.8051    1.0918    0.9086 C   0  0  0  0  0  0  0  0  0  0  0  0
    2.1584   -0.6304    1.7105 H   0  0  0  0  0  0  0  0  0  0  0  0
    1.9362    1.8642    0.7273 H   0  0  0  0  0  0  0  0  0  0  0  0
    1.5752    0.2534   -1.5797 H   0  0  0  0  0  0  0  0  0  0  0  0
    0.0192   -0.4020   -1.9922 H   0  0  0  0  0  0  0  0  0  0  0  0
    1.4694   -1.9825   -0.4801 H   0  0  0  0  0  0  0  0  0  0  0  0
   -2.3665   -1.1500    0.3003 H   0  0  0  0  0  0  0  0  0  0  0  0
   -1.6591   -1.3275   -1.3154 H   0  0  0  0  0  0  0  0  0  0  0  0
   -1.8961    1.1351   -0.9884 H   0  0  0  0  0  0  0  0  0  0  0  0
   -0.9622    2.1833    1.1768 H   0  0  0  0  0  0  0  0  0  0  0  0
   -0.8336    0.4904    1.8388 H   0  0  0  0  0  0  0  0  0  0  0  0
  1  2  2  0
  2  3  1  0
  3  4  1  0
  4  5  1  0
  5  6  1  0
  6  7  1  0
  7  8  1  0
  8  9  1  0
  5  1  1  0
  8  3  1  0
  9  3  1  0
  1 10  1  0
  2 11  1  0
  4 12  1  0
  4 13  1  0
  5 14  1  0
  7 15  1  0
  7 16  1  0
  8 17  1  0
  9 18  1  0
  9 19  1  0
M  END
