
     RDKit          3D

 19 20  0  0  0  0  0  0  0  0999 V2000
   -0.5436    1.0306    0.7760 C   0  0  0  0  0  0  0  0  0  0  0  0
    0.2706    0.3699   -0.0319 C   0  0  0  0  0  0  0  0  0  0  0  0
    1.6794    0.7998   -0.1196 C   0  0  0  0  0  0  0  0  0  0  0  0
    2.7605   -0.0900    0.2214 C   0  0  0  0  0  0  0  0  0  0  0  0
    2.4685    0.0569   -1.1323 O   0  0  0  0  0  0  0  0  0  0  0  0
   -0.2388   -0.7639   -0.8151 C   0  0  0  0  0  0  0  0  0  0  0  0
   -1.6277   -1.1897   -0.4142 C   0  0  0  0  0  0  0  0  0  0  0  0
   -1.9687   -0.7820    0.8668 O   0  0  0  0  0  0  0  0  0  0  0  0
   -1.9788    0.6030    0.8741 C   0  0  0  0  0  0  0  0  0  0  0  0
   -0.2297    1.8731    1.3781 H   0  0  0  0  0  0  0  0  0  0  0  0
    1.9168    1.8894   -0.2081 H   0  0  0  0  0  0  0  0  0  0  0  0
    3.7487    0.3190    0.5042 H   0  0  0  0  0  0  0  0  0  0  0  0
    2.5204   -1.0423    0.7270 H   0  0  0  0  0  0  0  0  0  0  0  0
   -0.2407   -0.4341   -1.8956 H   0  0  0  0  0  0  0  0  0  0  0  0
    0.5032   -1.5917   -0.7445 H   0  0  0  0  0  0  0  0  0  0  0  0
   -2.3513   -0.7192   -1.1113 H   0  0  0  0  0  0  0  0  0  0  0  0
   -1.7239   -2.2903   -0.5540 H   0  0  0  0  0  0  0  0  0  0  0  0
   -2.4710    1.0442    1.7522 H   0  0  0  0  0  0  0  0  0  0  0  0
   -2.4940    0.9173   -0.0735 H   0  0  0  0  0  0  0  0  0  0  0  0
  1  2  2  0
  2  3  1  0
  3  4  1  0
  4  5  1  0
  2  6  1  0
  6  7  1  0
  7  8  1  0
  8  9  1  0
  9  1  1  0
  5  3  1  0
  1 10  1  0
  3 11  1  0
  4 12  1  0
  4 13  1  0
  6 14  1  0
  6 15  1  0
  7 16  1  0
  7 17  1  0
  9 18  1  0
  9 19  1  0
M  END
