
     RDKit          3D

 17 19  0  0  0  0  0  0  0  0999 V2000
    1.3497    0.9613    0.2386 C   0  0  0  0  0  0  0  0  0  0  0  0
    1.7266    0.0771   -0.6333 C   0  0  0  0  0  0  0  0  0  0  0  0
    0.8246   -1.0858   -0.6193 C   0  0  0  0  0  0  0  0  0  0  0  0
   -0.1916   -0.8768   -1.5615 O   0  0  0  0  0  0  0  0  0  0  0  0
   -1.0966   -0.7995   -0.5327 C   0  0  0  0  0  0  0  0  0  0  0  0
   -1.7471    0.4891   -0.2829 C   0  0  0  0  0  0  0  0  0  0  0  0
   -1.0704    1.2456    0.5513 C   0  0  0  0  0  0  0  0  0  0  0  0
    0.1451    0.5280    0.9659 C   0  0  0  0  0  0  0  0  0  0  0  0
   -0.0668   -0.8640    0.5299 C   0  0  0  0  0  0  0  0  0  0  0  0
    1.8720    1.9187    0.4096 H   0  0  0  0  0  0  0  0  0  0  0  0
    2.5841    0.1053   -1.3278 H   0  0  0  0  0  0  0  0  0  0  0  0
    1.3224   -2.0736   -0.7025 H   0  0  0  0  0  0  0  0  0  0  0  0
   -1.8086   -1.6438   -0.5944 H   0  0  0  0  0  0  0  0  0  0  0  0
   -2.6910    0.7926   -0.7377 H   0  0  0  0  0  0  0  0  0  0  0  0
   -1.3076    2.2568    0.9252 H   0  0  0  0  0  0  0  0  0  0  0  0
    0.3132    0.6164    2.0790 H   0  0  0  0  0  0  0  0  0  0  0  0
   -0.1581   -1.6472    1.2925 H   0  0  0  0  0  0  0  0  0  0  0  0
  1  2  2  0
  2  3  1  0
  3  4  1  0
  4  5  1  0
  5  6  1  0
  6  7  2  0
  7  8  1  0
  8  9  1  0
  8  1  1  0
  9  3  1  0
  9  5  1  0
  1 10  1  0
  2 11  1  0
  3 12  1  0
  5 13  1  0
  6 14  1  0
  7 15  1  0
  8 16  1  0
  9 17  1  0
M  END
