
     RDKit          3D

 19 22  0  0  0  0  0  0  0  0999 V2000
    1.6933    0.0371   -0.7206 C   0  0  0  0  0  0  0  0  0  0  0  0
    1.1966    1.2589   -0.5816 C   0  0  0  0  0  0  0  0  0  0  0  0
   -0.0068    1.5320    0.2400 C   0  0  0  0  0  0  0  0  0  0  0  0
   -1.2639    0.8007    0.0397 C   0  0  0  0  0  0  0  0  0  0  0  0
   -1.2841   -0.4325   -0.8033 C   0  0  0  0  0  0  0  0  0  0  0  0
   -0.3571   -1.4197   -0.1775 C   0  0  0  0  0  0  0  0  0  0  0  0
    1.0814   -1.1215   -0.0685 C   0  0  0  0  0  0  0  0  0  0  0  0
    0.2044   -0.8371    1.0609 C   0  0  0  0  0  0  0  0  0  0  0  0
   -0.3792    0.4959    1.1895 C   0  0  0  0  0  0  0  0  0  0  0  0
    2.5776   -0.0742   -1.3405 H   0  0  0  0  0  0  0  0  0  0  0  0
    1.6758    2.0966   -1.0797 H   0  0  0  0  0  0  0  0  0  0  0  0
   -0.1209    2.5897    0.6136 H   0  0  0  0  0  0  0  0  0  0  0  0
   -2.2335    1.3249    0.1868 H   0  0  0  0  0  0  0  0  0  0  0  0
   -2.3291   -0.8268   -0.8150 H   0  0  0  0  0  0  0  0  0  0  0  0
   -1.0219   -0.2540   -1.8659 H   0  0  0  0  0  0  0  0  0  0  0  0
   -0.7073   -2.4582   -0.1048 H   0  0  0  0  0  0  0  0  0  0  0  0
    1.7456   -2.0207    0.0422 H   0  0  0  0  0  0  0  0  0  0  0  0
    0.2979   -1.4654    1.9861 H   0  0  0  0  0  0  0  0  0  0  0  0
   -0.7688    0.7745    2.1986 H   0  0  0  0  0  0  0  0  0  0  0  0
  1  2  2  0
  2  3  1  0
  3  4  1  0
  4  5  1  0
  5  6  1  0
  6  7  1  0
  7  8  1  0
  8  9  1  0
  7  1  1  0
  9  3  1  0
  9  4  1  0
  8  6  1  0
  1 10  1  0
  2 11  1  0
  3 12  1  0
  4 13  1  0
  5 14  1  0
  5 15  1  0
  6 16  1  0
  7 17  1  0
  8 18  1  0
  9 19  1  0
M  END
