
     RDKit          3D

 19 21  0  0  0  0  0  0  0  0999 V2000
   -0.3583    0.6628    1.7373 C   0  0  0  0  0  0  0  0  0  0  0  0
    0.9302    0.4731    1.4749 C   0  0  0  0  0  0  0  0  0  0  0  0
    1.0899    0.2922    0.0139 C   0  0  0  0  0  0  0  0  0  0  0  0
    1.7738   -0.8232   -0.5373 C   0  0  0  0  0  0  0  0  0  0  0  0
    2.3405    0.5585   -0.4927 O   0  0  0  0  0  0  0  0  0  0  0  0
   -0.1473    0.8431   -0.6020 C   0  0  0  0  0  0  0  0  0  0  0  0
   -0.9214   -0.2136   -1.3815 C   0  0  0  0  0  0  0  0  0  0  0  0
   -1.3089   -0.7947   -0.0136 C   0  0  0  0  0  0  0  0  0  0  0  0
   -1.1661    0.6276    0.5032 C   0  0  0  0  0  0  0  0  0  0  0  0
   -0.8203    0.8290    2.7225 H   0  0  0  0  0  0  0  0  0  0  0  0
    1.6852    0.4647    2.2533 H   0  0  0  0  0  0  0  0  0  0  0  0
    1.6675   -1.0756   -1.6063 H   0  0  0  0  0  0  0  0  0  0  0  0
    2.3956   -1.5238    0.0749 H   0  0  0  0  0  0  0  0  0  0  0  0
   -0.1187    1.8289   -1.0517 H   0  0  0  0  0  0  0  0  0  0  0  0
   -1.8231    0.1726   -1.8869 H   0  0  0  0  0  0  0  0  0  0  0  0
   -0.3256   -0.8832   -1.9970 H   0  0  0  0  0  0  0  0  0  0  0  0
   -0.5033   -1.4695    0.3521 H   0  0  0  0  0  0  0  0  0  0  0  0
   -2.3241   -1.1962   -0.0248 H   0  0  0  0  0  0  0  0  0  0  0  0
   -2.0656    1.2273    0.4615 H   0  0  0  0  0  0  0  0  0  0  0  0
  1  2  2  0
  2  3  1  0
  3  4  1  0
  4  5  1  0
  3  6  1  0
  6  7  1  0
  7  8  1  0
  8  9  1  0
  9  1  1  0
  5  3  1  0
  9  6  1  0
  1 10  1  0
  2 11  1  0
  4 12  1  0
  4 13  1  0
  6 14  1  0
  7 15  1  0
  7 16  1  0
  8 17  1  0
  8 18  1  0
  9 19  1  0
M  END
