
     RDKit          3D

 16 18  0  0  0  0  0  0  0  0999 V2000
   -0.5592    1.5241    0.1960 C   0  0  0  0  0  0  0  0  0  0  0  0
   -1.4792    0.6610    0.5692 C   0  0  0  0  0  0  0  0  0  0  0  0
   -1.2169   -0.6820    0.0321 C   0  0  0  0  0  0  0  0  0  0  0  0
    0.0699   -1.3804    0.1610 C   0  0  0  0  0  0  0  0  0  0  0  0
    1.3094   -0.8248    0.7127 C   0  0  0  0  0  0  0  0  0  0  0  0
    1.5496    0.4030    0.2726 C   0  0  0  0  0  0  0  0  0  0  0  0
    0.4575    0.8334   -0.6578 C   0  0  0  0  0  0  0  0  0  0  0  0
   -0.1904   -0.4748   -1.0135 C   0  0  0  0  0  0  0  0  0  0  0  0
   -0.5259    2.5582    0.4516 H   0  0  0  0  0  0  0  0  0  0  0  0
   -2.3236    0.9206    1.1968 H   0  0  0  0  0  0  0  0  0  0  0  0
   -2.0915   -1.3242   -0.2516 H   0  0  0  0  0  0  0  0  0  0  0  0
    0.0569   -2.4906   -0.0787 H   0  0  0  0  0  0  0  0  0  0  0  0
    1.9699   -1.3376    1.4017 H   0  0  0  0  0  0  0  0  0  0  0  0
    2.3869    1.0665    0.5014 H   0  0  0  0  0  0  0  0  0  0  0  0
    0.7875    1.4443   -1.4896 H   0  0  0  0  0  0  0  0  0  0  0  0
   -0.2010   -0.8968   -2.0040 H   0  0  0  0  0  0  0  0  0  0  0  0
  1  2  2  0
  2  3  1  0
  3  4  1  0
  4  5  1  0
  5  6  2  0
  6  7  1  0
  7  8  1  0
  7  1  1  0
  8  3  1  0
  8  4  1  0
  1  9  1  0
  2 10  1  0
  3 11  1  0
  4 12  1  0
  5 13  1  0
  6 14  1  0
  7 15  1  0
  8 16  1  0
M  END
