
     RDKit          3D

 19 21  0  0  0  0  0  0  0  0999 V2000
   -0.1952    0.9806   -1.3319 C   0  0  0  0  0  0  0  0  0  0  0  0
    0.8457    0.5267   -0.6648 C   0  0  0  0  0  0  0  0  0  0  0  0
    2.1581    0.2644   -0.0280 C   0  0  0  0  0  0  0  0  0  0  0  0
    1.2979   -0.3278    1.1215 C   0  0  0  0  0  0  0  0  0  0  0  0
    0.4451   -0.7846   -0.0007 C   0  0  0  0  0  0  0  0  0  0  0  0
   -1.0205   -0.7827    0.0594 C   0  0  0  0  0  0  0  0  0  0  0  0
   -1.7243    0.2585    0.8321 C   0  0  0  0  0  0  0  0  0  0  0  0
   -2.3203    0.7403   -0.3611 O   0  0  0  0  0  0  0  0  0  0  0  0
   -1.3824    0.0706   -1.1481 C   0  0  0  0  0  0  0  0  0  0  0  0
   -0.2634    1.8706   -1.9449 H   0  0  0  0  0  0  0  0  0  0  0  0
    2.7314    1.1406    0.2917 H   0  0  0  0  0  0  0  0  0  0  0  0
    2.7094   -0.5090   -0.5793 H   0  0  0  0  0  0  0  0  0  0  0  0
    1.8464   -1.0976    1.6936 H   0  0  0  0  0  0  0  0  0  0  0  0
    0.9433    0.5417    1.7116 H   0  0  0  0  0  0  0  0  0  0  0  0
    0.9334   -1.5903   -0.5661 H   0  0  0  0  0  0  0  0  0  0  0  0
   -1.5508   -1.7513    0.0702 H   0  0  0  0  0  0  0  0  0  0  0  0
   -1.1455    1.0014    1.3858 H   0  0  0  0  0  0  0  0  0  0  0  0
   -2.5770   -0.0936    1.4851 H   0  0  0  0  0  0  0  0  0  0  0  0
   -1.7313   -0.4584   -2.0261 H   0  0  0  0  0  0  0  0  0  0  0  0
  1  2  2  0
  2  3  1  0
  3  4  1  0
  4  5  1  0
  5  6  1  0
  6  7  1  0
  7  8  1  0
  8  9  1  0
  9  1  1  0
  5  2  1  0
  9  6  1  0
  1 10  1  0
  3 11  1  0
  3 12  1  0
  4 13  1  0
  4 14  1  0
  5 15  1  0
  6 16  1  0
  7 17  1  0
  7 18  1  0
  9 19  1  0
M  END
