
     RDKit          3D

 16 17  0  0  0  0  0  0  0  0999 V2000
    0.6317    1.4363   -0.1398 C   0  0  0  0  0  0  0  0  0  0  0  0
   -0.6910    1.4144   -0.0267 C   0  0  0  0  0  0  0  0  0  0  0  0
   -1.5020    0.2640    0.2985 C   0  0  0  0  0  0  0  0  0  0  0  0
   -2.2091   -0.5687   -0.4469 O   0  0  0  0  0  0  0  0  0  0  0  0
   -0.9174   -0.8534   -0.5681 C   0  0  0  0  0  0  0  0  0  0  0  0
    0.0293   -1.5415    0.2920 C   0  0  0  0  0  0  0  0  0  0  0  0
    0.9988   -0.7419    0.8055 O   0  0  0  0  0  0  0  0  0  0  0  0
    1.5236    0.2622    0.0509 C   0  0  0  0  0  0  0  0  0  0  0  0
    1.0859    2.3841   -0.3870 H   0  0  0  0  0  0  0  0  0  0  0  0
   -1.2351    2.3401   -0.1906 H   0  0  0  0  0  0  0  0  0  0  0  0
   -1.5645    0.0654    1.4081 H   0  0  0  0  0  0  0  0  0  0  0  0
   -0.4953   -0.5560   -1.5715 H   0  0  0  0  0  0  0  0  0  0  0  0
    0.4689   -2.4076   -0.2931 H   0  0  0  0  0  0  0  0  0  0  0  0
   -0.4360   -2.0751    1.1781 H   0  0  0  0  0  0  0  0  0  0  0  0
    1.8685   -0.0482   -0.9648 H   0  0  0  0  0  0  0  0  0  0  0  0
    2.4435    0.6259    0.5553 H   0  0  0  0  0  0  0  0  0  0  0  0
  1  2  2  0
  2  3  1  0
  3  4  1  0
  4  5  1  0
  5  6  1  0
  6  7  1  0
  7  8  1  0
  8  1  1  0
  5  3  1  0
  1  9  1  0
  2 10  1  0
  3 11  1  0
  5 12  1  0
  6 13  1  0
  6 14  1  0
  8 15  1  0
  8 16  1  0
M  END
