
     RDKit          3D

 17 19  0  0  0  0  0  0  0  0999 V2000
   -0.4274    1.5536    0.3194 C   0  0  0  0  0  0  0  0  0  0  0  0
    0.7852    1.1920   -0.0743 C   0  0  0  0  0  0  0  0  0  0  0  0
    0.5870   -0.0309   -0.9702 C   0  0  0  0  0  0  0  0  0  0  0  0
    1.6662   -0.8362   -0.7492 O   0  0  0  0  0  0  0  0  0  0  0  0
    1.5808   -1.1076    0.6122 C   0  0  0  0  0  0  0  0  0  0  0  0
    0.3075   -0.7435    1.0483 O   0  0  0  0  0  0  0  0  0  0  0  0
   -0.4731   -0.6570   -0.1396 C   0  0  0  0  0  0  0  0  0  0  0  0
   -1.8425   -0.6381    0.0523 C   0  0  0  0  0  0  0  0  0  0  0  0
   -1.3626    0.6370   -0.2787 C   0  0  0  0  0  0  0  0  0  0  0  0
   -0.6347    2.3879    0.9692 H   0  0  0  0  0  0  0  0  0  0  0  0
    1.7394    1.6422    0.1664 H   0  0  0  0  0  0  0  0  0  0  0  0
    0.3179    0.2197   -1.9785 H   0  0  0  0  0  0  0  0  0  0  0  0
    1.8147   -2.1646    0.7638 H   0  0  0  0  0  0  0  0  0  0  0  0
    2.3032   -0.4785    1.1939 H   0  0  0  0  0  0  0  0  0  0  0  0
   -2.5246   -1.1725   -0.6664 H   0  0  0  0  0  0  0  0  0  0  0  0
   -2.2823   -0.7642    1.0887 H   0  0  0  0  0  0  0  0  0  0  0  0
   -1.5548    0.9607   -1.3573 H   0  0  0  0  0  0  0  0  0  0  0  0
  1  2  2  0
  2  3  1  0
  3  4  1  0
  4  5  1  0
  5  6  1  0
  6  7  1  0
  7  8  1  0
  8  9  1  0
  9  1  1  0
  7  3  1  0
  9  7  1  0
  1 10  1  0
  2 11  1  0
  3 12  1  0
  5 13  1  0
  5 14  1  0
  8 15  1  0
  8 16  1  0
  9 17  1  0
M  END
