
     RDKit          3D

 21 23  0  0  0  0  0  0  0  0999 V2000
    0.0302    1.4149    0.7239 C   0  0  0  0  0  0  0  0  0  0  0  0
    0.9847    0.6064    0.2995 C   0  0  0  0  0  0  0  0  0  0  0  0
    2.3129   -0.0658    0.1797 C   0  0  0  0  0  0  0  0  0  0  0  0
    1.5988   -1.2789   -0.4390 C   0  0  0  0  0  0  0  0  0  0  0  0
    0.5515   -0.3056   -0.8301 C   0  0  0  0  0  0  0  0  0  0  0  0
   -0.8830   -0.6408   -0.6281 C   0  0  0  0  0  0  0  0  0  0  0  0
   -1.3913   -0.5044    0.7809 C   0  0  0  0  0  0  0  0  0  0  0  0
   -1.3839    1.0135    0.5366 C   0  0  0  0  0  0  0  0  0  0  0  0
   -1.6503    0.6661   -0.9171 C   0  0  0  0  0  0  0  0  0  0  0  0
    0.2826    2.3406    1.1945 H   0  0  0  0  0  0  0  0  0  0  0  0
    2.7753   -0.3735    1.1324 H   0  0  0  0  0  0  0  0  0  0  0  0
    3.0273    0.4289   -0.4718 H   0  0  0  0  0  0  0  0  0  0  0  0
    1.2377   -2.0133    0.2794 H   0  0  0  0  0  0  0  0  0  0  0  0
    2.1645   -1.6700   -1.3126 H   0  0  0  0  0  0  0  0  0  0  0  0
    0.7119    0.2332   -1.8018 H   0  0  0  0  0  0  0  0  0  0  0  0
   -1.2736   -1.5040   -1.1938 H   0  0  0  0  0  0  0  0  0  0  0  0
   -2.4139   -0.8699    0.8585 H   0  0  0  0  0  0  0  0  0  0  0  0
   -0.6858   -0.7761    1.5809 H   0  0  0  0  0  0  0  0  0  0  0  0
   -2.1453    1.5738    1.0568 H   0  0  0  0  0  0  0  0  0  0  0  0
   -1.1514    1.3132   -1.6437 H   0  0  0  0  0  0  0  0  0  0  0  0
   -2.6989    0.4118   -1.0817 H   0  0  0  0  0  0  0  0  0  0  0  0
  1  2  2  0
  2  3  1  0
  3  4  1  0
  4  5  1  0
  5  6  1  0
  6  7  1  0
  7  8  1  0
  8  9  1  0
  8  1  1  0
  5  2  1  0
  9  6  1  0
  1 10  1  0
  3 11  1  0
  3 12  1  0
  4 13  1  0
  4 14  1  0
  5 15  1  0
  6 16  1  0
  7 17  1  0
  7 18  1  0
  8 19  1  0
  9 20  1  0
  9 21  1  0
M  END
