
     RDKit          3D

 19 22  0  0  0  0  0  0  0  0999 V2000
    2.2457    0.8908   -0.3697 C   0  0  0  0  0  0  0  0  0  0  0  0
    1.7629   -0.1472    0.5476 C   0  0  0  0  0  0  0  0  0  0  0  0
    1.0002   -1.2800   -0.1495 C   0  0  0  0  0  0  0  0  0  0  0  0
   -0.0738   -0.3022   -0.3716 C   0  0  0  0  0  0  0  0  0  0  0  0
   -0.8785   -0.3781   -1.4455 O   0  0  0  0  0  0  0  0  0  0  0  0
   -2.0557   -0.2948   -0.7293 C   0  0  0  0  0  0  0  0  0  0  0  0
   -2.2730    0.7270    0.3162 C   0  0  0  0  0  0  0  0  0  0  0  0
   -1.2735   -0.3509    0.5329 C   0  0  0  0  0  0  0  0  0  0  0  0
    0.7929    0.8602   -0.1440 C   0  0  0  0  0  0  0  0  0  0  0  0
    2.7031    0.4984   -1.3257 H   0  0  0  0  0  0  0  0  0  0  0  0
    2.8278    1.7047    0.0905 H   0  0  0  0  0  0  0  0  0  0  0  0
    1.7601   -0.0824    1.6286 H   0  0  0  0  0  0  0  0  0  0  0  0
    0.7969   -2.1522    0.4837 H   0  0  0  0  0  0  0  0  0  0  0  0
    1.5677   -1.5669   -1.0674 H   0  0  0  0  0  0  0  0  0  0  0  0
   -2.8416   -1.0611   -0.8745 H   0  0  0  0  0  0  0  0  0  0  0  0
   -1.8530    1.7520    0.2108 H   0  0  0  0  0  0  0  0  0  0  0  0
   -3.1987    0.6621    0.8822 H   0  0  0  0  0  0  0  0  0  0  0  0
   -1.3872   -1.1363    1.2754 H   0  0  0  0  0  0  0  0  0  0  0  0
    0.3775    1.6568    0.5094 H   0  0  0  0  0  0  0  0  0  0  0  0
  1  2  1  0
  2  3  1  0
  3  4  1  0
  4  5  1  0
  5  6  1  0
  6  7  1  0
  7  8  1  0
  4  9  1  0
  9  1  1  0
  9  2  1  0
  8  4  1  0
  8  6  1  0
  1 10  1  0
  1 11  1  0
  2 12  1  0
  3 13  1  0
  3 14  1  0
  6 15  1  0
  7 16  1  0
  7 17  1  0
  8 18  1  0
  9 19  1  0
M  END
