
     RDKit          3D

 18 20  0  0  0  0  0  0  0  0999 V2000
   -0.2701   -1.3900   -0.1103 C   0  0  0  0  0  0  0  0  0  0  0  0
    1.0757   -0.8683   -0.5143 C   0  0  0  0  0  0  0  0  0  0  0  0
    1.4954    0.1828    0.4626 C   0  0  0  0  0  0  0  0  0  0  0  0
    0.7480    1.0429   -0.4920 C   0  0  0  0  0  0  0  0  0  0  0  0
    1.0085    0.0983   -1.5085 O   0  0  0  0  0  0  0  0  0  0  0  0
   -0.7260    1.0752   -0.2853 C   0  0  0  0  0  0  0  0  0  0  0  0
   -1.4024    0.6155    0.9204 C   0  0  0  0  0  0  0  0  0  0  0  0
   -1.2785   -0.2957   -0.2744 C   0  0  0  0  0  0  0  0  0  0  0  0
   -0.5664   -2.3205   -0.6321 H   0  0  0  0  0  0  0  0  0  0  0  0
   -0.1842   -1.6831    0.9763 H   0  0  0  0  0  0  0  0  0  0  0  0
    1.8246   -1.6277   -0.7838 H   0  0  0  0  0  0  0  0  0  0  0  0
    1.1254    0.1201    1.4803 H   0  0  0  0  0  0  0  0  0  0  0  0
    2.5873    0.3663    0.3916 H   0  0  0  0  0  0  0  0  0  0  0  0
    1.2348    1.9928   -0.7824 H   0  0  0  0  0  0  0  0  0  0  0  0
   -1.2490    1.8616   -0.8842 H   0  0  0  0  0  0  0  0  0  0  0  0
   -0.8651    0.3430    1.8646 H   0  0  0  0  0  0  0  0  0  0  0  0
   -2.4275    0.9608    1.1111 H   0  0  0  0  0  0  0  0  0  0  0  0
   -2.1305   -0.4740   -0.9395 H   0  0  0  0  0  0  0  0  0  0  0  0
  1  2  1  0
  2  3  1  0
  3  4  1  0
  4  5  1  0
  4  6  1  0
  6  7  1  0
  7  8  1  0
  8  1  1  0
  5  2  1  0
  8  6  1  0
  1  9  1  0
  1 10  1  0
  2 11  1  0
  3 12  1  0
  3 13  1  0
  4 14  1  0
  6 15  1  0
  7 16  1  0
  7 17  1  0
  8 18  1  0
M  END
