
     RDKit          3D

 17 20  0  0  0  0  0  0  0  0999 V2000
   -1.5036   -0.4752    0.4267 C   0  0  0  0  0  0  0  0  0  0  0  0
   -0.6900   -0.7502   -0.8440 C   0  0  0  0  0  0  0  0  0  0  0  0
   -1.0741    0.5486   -1.2545 O   0  0  0  0  0  0  0  0  0  0  0  0
   -0.9611    0.8974    0.1125 C   0  0  0  0  0  0  0  0  0  0  0  0
    0.4926    1.0510    0.4015 C   0  0  0  0  0  0  0  0  0  0  0  0
    1.3982    0.4950   -0.6532 C   0  0  0  0  0  0  0  0  0  0  0  0
    2.2664    0.1475    0.3739 O   0  0  0  0  0  0  0  0  0  0  0  0
    1.0414   -0.2353    0.9032 C   0  0  0  0  0  0  0  0  0  0  0  0
    0.7413   -0.8235   -0.4441 C   0  0  0  0  0  0  0  0  0  0  0  0
   -2.5873   -0.4990    0.2936 H   0  0  0  0  0  0  0  0  0  0  0  0
   -1.0626   -1.0065    1.2626 H   0  0  0  0  0  0  0  0  0  0  0  0
   -1.0858   -1.5246   -1.4919 H   0  0  0  0  0  0  0  0  0  0  0  0
   -1.6431    1.6681    0.4551 H   0  0  0  0  0  0  0  0  0  0  0  0
    0.8370    1.9779    0.8442 H   0  0  0  0  0  0  0  0  0  0  0  0
    1.6492    0.9311   -1.5270 H   0  0  0  0  0  0  0  0  0  0  0  0
    0.8850   -0.6735    1.7976 H   0  0  0  0  0  0  0  0  0  0  0  0
    1.2965   -1.7288   -0.6560 H   0  0  0  0  0  0  0  0  0  0  0  0
  1  2  1  0
  2  3  1  0
  3  4  1  0
  4  5  1  0
  5  6  1  0
  6  7  1  0
  7  8  1  0
  8  9  1  0
  4  1  1  0
  8  5  1  0
  9  2  1  0
  9  6  1  0
  1 10  1  0
  1 11  1  0
  2 12  1  0
  4 13  1  0
  5 14  1  0
  6 15  1  0
  8 16  1  0
  9 17  1  0
M  END
