
     RDKit          3D

 19 21  0  0  0  0  0  0  0  0999 V2000
   -0.7592   -1.3458    0.2952 C   0  0  0  0  0  0  0  0  0  0  0  0
    0.6120   -1.3580   -0.3424 C   0  0  0  0  0  0  0  0  0  0  0  0
    1.5401   -1.0201    0.6375 O   0  0  0  0  0  0  0  0  0  0  0  0
    1.9179    0.2873    0.4262 C   0  0  0  0  0  0  0  0  0  0  0  0
    0.8559    0.7689   -0.5483 C   0  0  0  0  0  0  0  0  0  0  0  0
    0.6922   -0.3865   -1.3326 O   0  0  0  0  0  0  0  0  0  0  0  0
   -0.4063    1.1310    0.1749 C   0  0  0  0  0  0  0  0  0  0  0  0
   -1.6614    0.9284   -0.5934 C   0  0  0  0  0  0  0  0  0  0  0  0
   -1.2742    0.0335    0.5638 C   0  0  0  0  0  0  0  0  0  0  0  0
   -0.6274   -1.8342    1.3015 H   0  0  0  0  0  0  0  0  0  0  0  0
   -1.4381   -1.9637   -0.3185 H   0  0  0  0  0  0  0  0  0  0  0  0
    0.8450   -2.3684   -0.6844 H   0  0  0  0  0  0  0  0  0  0  0  0
    1.9240    0.9185    1.3156 H   0  0  0  0  0  0  0  0  0  0  0  0
    2.9358    0.3462   -0.0217 H   0  0  0  0  0  0  0  0  0  0  0  0
    1.2325    1.6089   -1.1606 H   0  0  0  0  0  0  0  0  0  0  0  0
   -0.3180    1.9886    0.8488 H   0  0  0  0  0  0  0  0  0  0  0  0
   -2.4331    1.7062   -0.4409 H   0  0  0  0  0  0  0  0  0  0  0  0
   -1.6978    0.4182   -1.5576 H   0  0  0  0  0  0  0  0  0  0  0  0
   -1.9400    0.1411    1.4371 H   0  0  0  0  0  0  0  0  0  0  0  0
  1  2  1  0
  2  3  1  0
  3  4  1  0
  4  5  1  0
  5  6  1  0
  5  7  1  0
  7  8  1  0
  8  9  1  0
  9  1  1  0
  6  2  1  0
  9  7  1  0
  1 10  1  0
  1 11  1  0
  2 12  1  0
  4 13  1  0
  4 14  1  0
  5 15  1  0
  7 16  1  0
  8 17  1  0
  8 18  1  0
  9 19  1  0
M  END
