
     RDKit          3D

 19 22  0  0  0  0  0  0  0  0999 V2000
    1.8617   -0.7759   -0.7189 C   0  0  0  0  0  0  0  0  0  0  0  0
    1.5557   -0.3827    0.7204 C   0  0  0  0  0  0  0  0  0  0  0  0
    0.4066   -0.9344    1.2117 O   0  0  0  0  0  0  0  0  0  0  0  0
   -0.6599   -0.1378    0.9332 C   0  0  0  0  0  0  0  0  0  0  0  0
   -1.8340   -0.6893    0.1271 C   0  0  0  0  0  0  0  0  0  0  0  0
   -1.2044   -0.0582   -1.0924 C   0  0  0  0  0  0  0  0  0  0  0  0
   -0.2299    0.7271   -0.2952 C   0  0  0  0  0  0  0  0  0  0  0  0
   -0.6512    1.3318    1.0362 C   0  0  0  0  0  0  0  0  0  0  0  0
    1.2387    0.5158   -0.4175 C   0  0  0  0  0  0  0  0  0  0  0  0
    1.2228   -1.5387   -1.2073 H   0  0  0  0  0  0  0  0  0  0  0  0
    2.9266   -0.7449   -1.0243 H   0  0  0  0  0  0  0  0  0  0  0  0
    2.3814   -0.0625    1.3689 H   0  0  0  0  0  0  0  0  0  0  0  0
   -1.9270   -1.7750    0.1195 H   0  0  0  0  0  0  0  0  0  0  0  0
   -2.7721   -0.1509    0.4257 H   0  0  0  0  0  0  0  0  0  0  0  0
   -1.9004    0.4823   -1.7468 H   0  0  0  0  0  0  0  0  0  0  0  0
   -0.7073   -0.8728   -1.6947 H   0  0  0  0  0  0  0  0  0  0  0  0
   -1.6436    1.8203    1.1088 H   0  0  0  0  0  0  0  0  0  0  0  0
    0.1124    1.7738    1.6701 H   0  0  0  0  0  0  0  0  0  0  0  0
    1.8240    1.4719   -0.5244 H   0  0  0  0  0  0  0  0  0  0  0  0
  1  2  1  0
  2  3  1  0
  3  4  1  0
  4  5  1  0
  5  6  1  0
  6  7  1  0
  7  8  1  0
  7  9  1  0
  9  1  1  0
  9  2  1  0
  7  4  1  0
  8  4  1  0
  1 10  1  0
  1 11  1  0
  2 12  1  0
  5 13  1  0
  5 14  1  0
  6 15  1  0
  6 16  1  0
  8 17  1  0
  8 18  1  0
  9 19  1  0
M  END
