
     RDKit          3D

 19 21  0  0  0  0  0  0  0  0999 V2000
   -1.0125   -0.4248    1.0133 C   0  0  0  0  0  0  0  0  0  0  0  0
   -1.6071    0.5445   -0.0162 C   0  0  0  0  0  0  0  0  0  0  0  0
   -1.3053   -0.5429   -1.0556 C   0  0  0  0  0  0  0  0  0  0  0  0
   -0.1571   -0.9372   -0.1567 C   0  0  0  0  0  0  0  0  0  0  0  0
    0.9934    0.0106   -0.2699 C   0  0  0  0  0  0  0  0  0  0  0  0
    0.5324    1.4210   -0.1753 C   0  0  0  0  0  0  0  0  0  0  0  0
   -0.8079    1.6213   -0.2553 O   0  0  0  0  0  0  0  0  0  0  0  0
    2.2238   -0.4301    0.5256 C   0  0  0  0  0  0  0  0  0  0  0  0
    2.1763   -0.3387   -0.8525 O   0  0  0  0  0  0  0  0  0  0  0  0
   -1.7551   -1.1356    1.3800 H   0  0  0  0  0  0  0  0  0  0  0  0
   -0.3889    0.0849    1.7881 H   0  0  0  0  0  0  0  0  0  0  0  0
   -2.6557    0.7812    0.1189 H   0  0  0  0  0  0  0  0  0  0  0  0
   -2.1001   -1.3025   -1.0191 H   0  0  0  0  0  0  0  0  0  0  0  0
   -1.0503   -0.1064   -2.0185 H   0  0  0  0  0  0  0  0  0  0  0  0
    0.0611   -1.9983   -0.0691 H   0  0  0  0  0  0  0  0  0  0  0  0
    0.9519    1.8753    0.7477 H   0  0  0  0  0  0  0  0  0  0  0  0
    1.0118    1.9854   -1.0291 H   0  0  0  0  0  0  0  0  0  0  0  0
    2.6320    0.3774    1.1431 H   0  0  0  0  0  0  0  0  0  0  0  0
    2.2571   -1.4852    0.8904 H   0  0  0  0  0  0  0  0  0  0  0  0
  1  2  1  0
  2  3  1  0
  3  4  1  0
  4  5  1  0
  5  6  1  0
  6  7  1  0
  5  8  1  0
  8  9  1  0
  4  1  1  0
  9  5  1  0
  7  2  1  0
  1 10  1  0
  1 11  1  0
  2 12  1  0
  3 13  1  0
  3 14  1  0
  4 15  1  0
  6 16  1  0
  6 17  1  0
  8 18  1  0
  8 19  1  0
M  END
