
     RDKit          3D

 21 23  0  0  0  0  0  0  0  0999 V2000
   -0.7822   -0.8424    1.0147 C   0  0  0  0  0  0  0  0  0  0  0  0
   -1.1136    0.5306    0.4561 C   0  0  0  0  0  0  0  0  0  0  0  0
   -1.2371   -0.1018   -0.8684 C   0  0  0  0  0  0  0  0  0  0  0  0
   -0.3658   -1.2497   -0.3452 C   0  0  0  0  0  0  0  0  0  0  0  0
    1.0525   -1.0066   -0.7215 C   0  0  0  0  0  0  0  0  0  0  0  0
    1.7034   -0.0099    0.1263 C   0  0  0  0  0  0  0  0  0  0  0  0
    2.3775    1.1003   -0.1660 O   0  0  0  0  0  0  0  0  0  0  0  0
    1.0742    1.3222   -0.3377 C   0  0  0  0  0  0  0  0  0  0  0  0
   -0.0119    1.5275    0.6265 C   0  0  0  0  0  0  0  0  0  0  0  0
   -0.1083   -0.8948    1.8518 H   0  0  0  0  0  0  0  0  0  0  0  0
   -1.7373   -1.3861    1.2903 H   0  0  0  0  0  0  0  0  0  0  0  0
   -2.0561    0.9055    0.9280 H   0  0  0  0  0  0  0  0  0  0  0  0
   -0.9173    0.3789   -1.7721 H   0  0  0  0  0  0  0  0  0  0  0  0
   -2.2839   -0.5008   -1.0128 H   0  0  0  0  0  0  0  0  0  0  0  0
   -0.7352   -2.2594   -0.6433 H   0  0  0  0  0  0  0  0  0  0  0  0
    1.0566   -0.6564   -1.7946 H   0  0  0  0  0  0  0  0  0  0  0  0
    1.6473   -1.9475   -0.7341 H   0  0  0  0  0  0  0  0  0  0  0  0
    1.6992   -0.2394    1.2096 H   0  0  0  0  0  0  0  0  0  0  0  0
    0.7852    1.4157   -1.4006 H   0  0  0  0  0  0  0  0  0  0  0  0
    0.3950    1.3723    1.6670 H   0  0  0  0  0  0  0  0  0  0  0  0
   -0.4423    2.5416    0.6259 H   0  0  0  0  0  0  0  0  0  0  0  0
  1  2  1  0
  2  3  1  0
  3  4  1  0
  4  5  1  0
  5  6  1  0
  6  7  1  0
  7  8  1  0
  8  9  1  0
  4  1  1  0
  8  6  1  0
  9  2  1  0
  1 10  1  0
  1 11  1  0
  2 12  1  0
  3 13  1  0
  3 14  1  0
  4 15  1  0
  5 16  1  0
  5 17  1  0
  6 18  1  0
  8 19  1  0
  9 20  1  0
  9 21  1  0
M  END
