
     RDKit          3D

 14 16  0  0  0  0  0  0  0  0999 V2000
    1.7930   -0.0715    0.1539 C   0  0  0  0  0  0  0  0  0  0  0  0
    0.6640    0.7854   -0.2586 C   0  0  0  0  0  0  0  0  0  0  0  0
    0.5346   -0.3085    0.8072 C   0  0  0  0  0  0  0  0  0  0  0  0
   -0.5602   -0.8871   -0.0991 C   0  0  0  0  0  0  0  0  0  0  0  0
   -1.7447   -0.2338   -0.6494 C   0  0  0  0  0  0  0  0  0  0  0  0
   -0.7944    0.6405   -0.1023 C   0  0  0  0  0  0  0  0  0  0  0  0
    2.0992   -0.8209   -0.6366 H   0  0  0  0  0  0  0  0  0  0  0  0
    2.6455    0.2160    0.7668 H   0  0  0  0  0  0  0  0  0  0  0  0
    0.9687    1.8436    0.0245 H   0  0  0  0  0  0  0  0  0  0  0  0
    0.2656   -0.0252    1.8297 H   0  0  0  0  0  0  0  0  0  0  0  0
   -0.1148   -1.4645   -0.8943 H   0  0  0  0  0  0  0  0  0  0  0  0
   -1.9615   -0.1141   -1.7556 H   0  0  0  0  0  0  0  0  0  0  0  0
   -2.6949   -0.5389   -0.1397 H   0  0  0  0  0  0  0  0  0  0  0  0
   -1.1002    0.9790    0.9534 H   0  0  0  0  0  0  0  0  0  0  0  0
  1  2  1  0
  2  3  1  0
  3  4  1  0
  4  5  1  0
  5  6  1  0
  3  1  1  0
  6  4  1  0
  6  2  1  0
  1  7  1  0
  1  8  1  0
  2  9  1  0
  3 10  1  0
  4 11  1  0
  5 12  1  0
  5 13  1  0
  6 14  1  0
M  END
