
     RDKit          3D

 19 22  0  0  0  0  0  0  0  0999 V2000
    1.8028    0.7585    0.2526 C   0  0  0  0  0  0  0  0  0  0  0  0
    1.2911   -0.6170    0.1557 C   0  0  0  0  0  0  0  0  0  0  0  0
    0.3958   -0.9419   -1.0159 C   0  0  0  0  0  0  0  0  0  0  0  0
   -0.8783   -0.1976   -0.8375 C   0  0  0  0  0  0  0  0  0  0  0  0
   -0.9696    1.2673   -0.8198 C   0  0  0  0  0  0  0  0  0  0  0  0
   -0.7847    0.5345    0.4397 C   0  0  0  0  0  0  0  0  0  0  0  0
   -1.7222   -0.5875    0.8532 C   0  0  0  0  0  0  0  0  0  0  0  0
   -2.0460   -0.8774   -0.4642 O   0  0  0  0  0  0  0  0  0  0  0  0
    0.5976    0.4034    0.9921 C   0  0  0  0  0  0  0  0  0  0  0  0
    2.7248    0.9298    0.8724 H   0  0  0  0  0  0  0  0  0  0  0  0
    1.8120    1.3531   -0.6700 H   0  0  0  0  0  0  0  0  0  0  0  0
    1.7273   -1.4619    0.7426 H   0  0  0  0  0  0  0  0  0  0  0  0
    0.2248   -2.0123   -1.1448 H   0  0  0  0  0  0  0  0  0  0  0  0
    0.9519   -0.5980   -1.9319 H   0  0  0  0  0  0  0  0  0  0  0  0
   -0.1010    1.8228   -1.2008 H   0  0  0  0  0  0  0  0  0  0  0  0
   -1.9378    1.7048   -1.1287 H   0  0  0  0  0  0  0  0  0  0  0  0
   -2.5367   -0.3132    1.5210 H   0  0  0  0  0  0  0  0  0  0  0  0
   -1.1869   -1.4847    1.2847 H   0  0  0  0  0  0  0  0  0  0  0  0
    0.6350    0.3175    2.0995 H   0  0  0  0  0  0  0  0  0  0  0  0
  1  2  1  0
  2  3  1  0
  3  4  1  0
  4  5  1  0
  5  6  1  0
  6  7  1  0
  7  8  1  0
  6  9  1  0
  9  1  1  0
  9  2  1  0
  6  4  1  0
  8  4  1  0
  1 10  1  0
  1 11  1  0
  2 12  1  0
  3 13  1  0
  3 14  1  0
  5 15  1  0
  5 16  1  0
  7 17  1  0
  7 18  1  0
  9 19  1  0
M  END
