
     RDKit          3D

 19 22  0  0  0  0  0  0  0  0999 V2000
    1.6756    0.1475    0.7020 C   0  0  0  0  0  0  0  0  0  0  0  0
    1.0176   -1.0229   -0.0459 C   0  0  0  0  0  0  0  0  0  0  0  0
   -0.0247   -1.5581    0.6823 O   0  0  0  0  0  0  0  0  0  0  0  0
   -0.9875   -0.6677    1.0478 C   0  0  0  0  0  0  0  0  0  0  0  0
   -1.6260    0.0648   -0.0639 C   0  0  0  0  0  0  0  0  0  0  0  0
   -0.9103   -0.1145   -1.3678 C   0  0  0  0  0  0  0  0  0  0  0  0
    0.5389    0.0151   -1.0362 C   0  0  0  0  0  0  0  0  0  0  0  0
    0.5722    1.0071    0.1305 C   0  0  0  0  0  0  0  0  0  0  0  0
   -0.6949    0.7539    0.8581 C   0  0  0  0  0  0  0  0  0  0  0  0
    1.7081    0.0410    1.7841 H   0  0  0  0  0  0  0  0  0  0  0  0
    2.6300    0.3761    0.1810 H   0  0  0  0  0  0  0  0  0  0  0  0
    1.7065   -1.7714   -0.4233 H   0  0  0  0  0  0  0  0  0  0  0  0
   -1.6417   -0.9745    1.8876 H   0  0  0  0  0  0  0  0  0  0  0  0
   -2.6837    0.3738   -0.0426 H   0  0  0  0  0  0  0  0  0  0  0  0
   -1.1933    0.7042   -2.0351 H   0  0  0  0  0  0  0  0  0  0  0  0
   -1.0840   -1.0825   -1.8550 H   0  0  0  0  0  0  0  0  0  0  0  0
    1.2215    0.2383   -1.8554 H   0  0  0  0  0  0  0  0  0  0  0  0
    0.8277    2.0122   -0.1695 H   0  0  0  0  0  0  0  0  0  0  0  0
   -1.0519    1.4577    1.6211 H   0  0  0  0  0  0  0  0  0  0  0  0
  1  2  1  0
  2  3  1  0
  3  4  1  0
  4  5  1  0
  5  6  1  0
  6  7  1  0
  7  8  1  0
  8  9  1  0
  8  1  1  0
  7  2  1  0
  9  4  1  0
  9  5  1  0
  1 10  1  0
  1 11  1  0
  2 12  1  0
  4 13  1  0
  5 14  1  0
  6 15  1  0
  6 16  1  0
  7 17  1  0
  8 18  1  0
  9 19  1  0
M  END
