
     RDKit          3D

 20 22  0  0  0  0  0  0  0  0999 V2000
   -0.0553   -1.4202   -0.5010 C   0  0  0  0  0  0  0  0  0  0  0  0
    1.1753   -0.6082   -0.2457 C   0  0  0  0  0  0  0  0  0  0  0  0
    0.9792    0.7803   -0.8146 C   0  0  0  0  0  0  0  0  0  0  0  0
   -0.2177    1.2731   -0.0164 C   0  0  0  0  0  0  0  0  0  0  0  0
   -1.4822    0.6766   -0.6398 C   0  0  0  0  0  0  0  0  0  0  0  0
   -1.1432   -0.5834    0.1412 C   0  0  0  0  0  0  0  0  0  0  0  0
   -0.4183    0.2946    1.1112 C   0  0  0  0  0  0  0  0  0  0  0  0
    0.9830   -0.2961    1.2499 C   0  0  0  0  0  0  0  0  0  0  0  0
   -0.2446   -1.6654   -1.5436 H   0  0  0  0  0  0  0  0  0  0  0  0
    0.0277   -2.3447    0.1360 H   0  0  0  0  0  0  0  0  0  0  0  0
    2.1166   -1.0705   -0.4679 H   0  0  0  0  0  0  0  0  0  0  0  0
    0.7111    0.7585   -1.8796 H   0  0  0  0  0  0  0  0  0  0  0  0
    1.8650    1.4135   -0.6717 H   0  0  0  0  0  0  0  0  0  0  0  0
   -0.2527    2.3278    0.2133 H   0  0  0  0  0  0  0  0  0  0  0  0
   -2.3841    1.1477   -0.2015 H   0  0  0  0  0  0  0  0  0  0  0  0
   -1.4255    0.6014   -1.7194 H   0  0  0  0  0  0  0  0  0  0  0  0
   -2.0339   -1.1010    0.4738 H   0  0  0  0  0  0  0  0  0  0  0  0
   -0.9055    0.6230    2.0028 H   0  0  0  0  0  0  0  0  0  0  0  0
    1.7187    0.4386    1.5870 H   0  0  0  0  0  0  0  0  0  0  0  0
    0.9862   -1.2454    1.7858 H   0  0  0  0  0  0  0  0  0  0  0  0
  1  2  1  0
  2  3  1  0
  3  4  1  0
  4  5  1  0
  5  6  1  0
  6  7  1  0
  7  8  1  0
  6  1  1  0
  8  2  1  0
  7  4  1  0
  1  9  1  0
  1 10  1  0
  2 11  1  0
  3 12  1  0
  3 13  1  0
  4 14  1  0
  5 15  1  0
  5 16  1  0
  6 17  1  0
  7 18  1  0
  8 19  1  0
  8 20  1  0
M  END
