
     RDKit          3D

 21 24  0  0  0  0  0  0  0  0999 V2000
   -1.0541    0.1690    1.2200 C   0  0  0  0  0  0  0  0  0  0  0  0
   -1.1839    0.6221   -0.2305 C   0  0  0  0  0  0  0  0  0  0  0  0
   -1.0906   -0.7271   -0.9379 C   0  0  0  0  0  0  0  0  0  0  0  0
    0.1406   -1.3050   -0.2922 C   0  0  0  0  0  0  0  0  0  0  0  0
    0.1189   -0.7983    1.1138 C   0  0  0  0  0  0  0  0  0  0  0  0
    1.3405   -0.0069    0.8434 C   0  0  0  0  0  0  0  0  0  0  0  0
    1.3016    0.8931   -0.2899 C   0  0  0  0  0  0  0  0  0  0  0  0
   -0.0297    1.4295   -0.6976 C   0  0  0  0  0  0  0  0  0  0  0  0
    1.3853   -0.5485   -0.5573 C   0  0  0  0  0  0  0  0  0  0  0  0
   -1.9814   -0.3110    1.5234 H   0  0  0  0  0  0  0  0  0  0  0  0
   -0.7152    0.9919    1.8717 H   0  0  0  0  0  0  0  0  0  0  0  0
   -2.1275    1.1303   -0.4096 H   0  0  0  0  0  0  0  0  0  0  0  0
   -1.9596   -1.3192   -0.5651 H   0  0  0  0  0  0  0  0  0  0  0  0
   -1.0490   -0.6483   -2.0154 H   0  0  0  0  0  0  0  0  0  0  0  0
    0.2101   -2.3881   -0.3540 H   0  0  0  0  0  0  0  0  0  0  0  0
    0.1976   -1.5322    1.9142 H   0  0  0  0  0  0  0  0  0  0  0  0
    2.2234   -0.0213    1.4844 H   0  0  0  0  0  0  0  0  0  0  0  0
    2.1762    1.5183   -0.4872 H   0  0  0  0  0  0  0  0  0  0  0  0
   -0.0441    1.3925   -1.8284 H   0  0  0  0  0  0  0  0  0  0  0  0
   -0.1762    2.5016   -0.4125 H   0  0  0  0  0  0  0  0  0  0  0  0
    2.3168   -1.0424   -0.8932 H   0  0  0  0  0  0  0  0  0  0  0  0
  1  2  1  0
  2  3  1  0
  3  4  1  0
  4  5  1  0
  5  6  1  0
  6  7  1  0
  7  8  1  0
  7  9  1  0
  5  1  1  0
  9  6  1  0
  8  2  1  0
  9  4  1  0
  1 10  1  0
  1 11  1  0
  2 12  1  0
  3 13  1  0
  3 14  1  0
  4 15  1  0
  5 16  1  0
  6 17  1  0
  7 18  1  0
  8 19  1  0
  8 20  1  0
  9 21  1  0
M  END
