
     RDKit          3D

 21 24  0  0  0  0  0  0  0  0999 V2000
    0.3576    1.4022   -0.5964 C   0  0  0  0  0  0  0  0  0  0  0  0
    1.3400    0.6919    0.2365 C   0  0  0  0  0  0  0  0  0  0  0  0
    2.3517   -0.2522   -0.0082 C   0  0  0  0  0  0  0  0  0  0  0  0
    1.0545   -0.7966   -0.1802 C   0  0  0  0  0  0  0  0  0  0  0  0
    0.0101   -1.2180    0.7537 C   0  0  0  0  0  0  0  0  0  0  0  0
   -1.4427   -1.1345    0.2557 C   0  0  0  0  0  0  0  0  0  0  0  0
   -1.6598   -0.1558   -0.8743 C   0  0  0  0  0  0  0  0  0  0  0  0
   -1.0142    0.9359   -0.0669 C   0  0  0  0  0  0  0  0  0  0  0  0
   -0.8929   -0.0476    1.0603 C   0  0  0  0  0  0  0  0  0  0  0  0
    0.3985    2.4932   -0.5922 H   0  0  0  0  0  0  0  0  0  0  0  0
    0.3788    1.0653   -1.6600 H   0  0  0  0  0  0  0  0  0  0  0  0
    1.1361    0.9381    1.3260 H   0  0  0  0  0  0  0  0  0  0  0  0
    3.0421   -0.1888   -0.8972 H   0  0  0  0  0  0  0  0  0  0  0  0
    2.9638   -0.6272    0.8652 H   0  0  0  0  0  0  0  0  0  0  0  0
    0.7472   -0.9657   -1.2569 H   0  0  0  0  0  0  0  0  0  0  0  0
    0.2335   -1.8646    1.5945 H   0  0  0  0  0  0  0  0  0  0  0  0
   -2.1768   -1.8589    0.5638 H   0  0  0  0  0  0  0  0  0  0  0  0
   -1.1413   -0.4135   -1.7940 H   0  0  0  0  0  0  0  0  0  0  0  0
   -2.7504    0.0867   -1.0021 H   0  0  0  0  0  0  0  0  0  0  0  0
   -1.6572    1.7700    0.2211 H   0  0  0  0  0  0  0  0  0  0  0  0
   -1.2786    0.1403    2.0517 H   0  0  0  0  0  0  0  0  0  0  0  0
  1  2  1  0
  2  3  1  0
  3  4  1  0
  4  5  1  0
  5  6  1  0
  6  7  1  0
  7  8  1  0
  8  9  1  0
  8  1  1  0
  4  2  1  0
  9  5  1  0
  9  6  1  0
  1 10  1  0
  1 11  1  0
  2 12  1  0
  3 13  1  0
  3 14  1  0
  4 15  1  0
  5 16  1  0
  6 17  1  0
  7 18  1  0
  7 19  1  0
  8 20  1  0
  9 21  1  0
M  END
