
     RDKit          3D

 19 22  0  0  0  0  0  0  0  0999 V2000
    2.2514   -0.0546    0.1315 C   0  0  0  0  0  0  0  0  0  0  0  0
    1.1551   -0.5012   -0.7368 C   0  0  0  0  0  0  0  0  0  0  0  0
    1.0719   -0.5528    0.8325 C   0  0  0  0  0  0  0  0  0  0  0  0
   -0.1824    0.2582    1.0102 C   0  0  0  0  0  0  0  0  0  0  0  0
   -0.0883    1.4707    0.0673 C   0  0  0  0  0  0  0  0  0  0  0  0
   -0.0640    0.3514   -0.9878 C   0  0  0  0  0  0  0  0  0  0  0  0
   -1.0649   -0.3003   -0.0717 C   0  0  0  0  0  0  0  0  0  0  0  0
   -2.3951   -0.4609   -0.1611 C   0  0  0  0  0  0  0  0  0  0  0  0
   -1.4274   -1.5938   -0.1552 O   0  0  0  0  0  0  0  0  0  0  0  0
    2.5480    1.0050    0.0697 H   0  0  0  0  0  0  0  0  0  0  0  0
    3.1388   -0.7321    0.1521 H   0  0  0  0  0  0  0  0  0  0  0  0
    1.2016   -1.5161   -1.2013 H   0  0  0  0  0  0  0  0  0  0  0  0
    1.0741   -1.5415    1.2838 H   0  0  0  0  0  0  0  0  0  0  0  0
   -0.5762    0.4286    1.9824 H   0  0  0  0  0  0  0  0  0  0  0  0
    0.8100    2.0614    0.1493 H   0  0  0  0  0  0  0  0  0  0  0  0
   -1.0589    1.9776    0.0495 H   0  0  0  0  0  0  0  0  0  0  0  0
   -0.3381    0.6083   -1.9789 H   0  0  0  0  0  0  0  0  0  0  0  0
   -3.0945   -0.5009    0.6983 H   0  0  0  0  0  0  0  0  0  0  0  0
   -2.9611   -0.4073   -1.1337 H   0  0  0  0  0  0  0  0  0  0  0  0
  1  2  1  0
  2  3  1  0
  3  4  1  0
  4  5  1  0
  5  6  1  0
  6  7  1  0
  7  8  1  0
  8  9  1  0
  3  1  1  0
  7  4  1  0
  6  2  1  0
  9  7  1  0
  1 10  1  0
  1 11  1  0
  2 12  1  0
  3 13  1  0
  4 14  1  0
  5 15  1  0
  5 16  1  0
  6 17  1  0
  8 18  1  0
  8 19  1  0
M  END
