
     RDKit          3D

 21 23  0  0  0  0  0  0  0  0999 V2000
    2.1902   -0.5336   -0.8421 C   0  0  0  0  0  0  0  0  0  0  0  0
    1.3688   -0.9522    0.3294 C   0  0  0  0  0  0  0  0  0  0  0  0
   -0.0958   -1.1296    0.2043 C   0  0  0  0  0  0  0  0  0  0  0  0
   -0.8760    0.1388    0.0547 C   0  0  0  0  0  0  0  0  0  0  0  0
   -1.9133    0.5014    1.0885 C   0  0  0  0  0  0  0  0  0  0  0  0
   -2.2897    0.1159   -0.3291 C   0  0  0  0  0  0  0  0  0  0  0  0
   -0.0294    1.2337   -0.5296 C   0  0  0  0  0  0  0  0  0  0  0  0
    1.1442    1.4516    0.1191 O   0  0  0  0  0  0  0  0  0  0  0  0
    1.9212    0.3698    0.3692 C   0  0  0  0  0  0  0  0  0  0  0  0
    1.7435   -0.2499   -1.8011 H   0  0  0  0  0  0  0  0  0  0  0  0
    3.2664   -0.8673   -0.9184 H   0  0  0  0  0  0  0  0  0  0  0  0
    1.8714   -1.7416    0.9623 H   0  0  0  0  0  0  0  0  0  0  0  0
   -0.4915   -1.6451    1.1236 H   0  0  0  0  0  0  0  0  0  0  0  0
   -0.3680   -1.8367   -0.6340 H   0  0  0  0  0  0  0  0  0  0  0  0
   -2.1067   -0.2726    1.8643 H   0  0  0  0  0  0  0  0  0  0  0  0
   -2.0283    1.5471    1.4195 H   0  0  0  0  0  0  0  0  0  0  0  0
   -2.7932   -0.8627   -0.4999 H   0  0  0  0  0  0  0  0  0  0  0  0
   -2.7118    0.9167   -0.9781 H   0  0  0  0  0  0  0  0  0  0  0  0
   -0.6423    2.1796   -0.4333 H   0  0  0  0  0  0  0  0  0  0  0  0
    0.0557    1.0681   -1.6233 H   0  0  0  0  0  0  0  0  0  0  0  0
    2.7846    0.5687    1.0540 H   0  0  0  0  0  0  0  0  0  0  0  0
  1  2  1  0
  2  3  1  0
  3  4  1  0
  4  5  1  0
  5  6  1  0
  4  7  1  0
  7  8  1  0
  8  9  1  0
  9  1  1  0
  9  2  1  0
  6  4  1  0
  1 10  1  0
  1 11  1  0
  2 12  1  0
  3 13  1  0
  3 14  1  0
  5 15  1  0
  5 16  1  0
  6 17  1  0
  6 18  1  0
  7 19  1  0
  7 20  1  0
  9 21  1  0
M  END
