
     RDKit          3D

 17 20  0  0  0  0  0  0  0  0999 V2000
   -1.4455    1.3399   -0.1618 C   0  0  0  0  0  0  0  0  0  0  0  0
   -1.1695    0.2183    0.6325 C   0  0  0  0  0  0  0  0  0  0  0  0
   -1.0704   -1.2284    0.3880 C   0  0  0  0  0  0  0  0  0  0  0  0
   -0.0760   -1.9954    1.1264 O   0  0  0  0  0  0  0  0  0  0  0  0
    0.4073   -1.4489   -0.0051 C   0  0  0  0  0  0  0  0  0  0  0  0
    0.8661   -0.0107   -0.1464 C   0  0  0  0  0  0  0  0  0  0  0  0
    2.0509    0.5314    0.2547 C   0  0  0  0  0  0  0  0  0  0  0  0
    1.9885    0.1243   -1.1125 O   0  0  0  0  0  0  0  0  0  0  0  0
   -0.3697    0.6056   -0.6804 C   0  0  0  0  0  0  0  0  0  0  0  0
   -2.4424    1.3688   -0.6884 H   0  0  0  0  0  0  0  0  0  0  0  0
   -1.2391    2.3839    0.2099 H   0  0  0  0  0  0  0  0  0  0  0  0
   -0.6470    0.4813    1.6075 H   0  0  0  0  0  0  0  0  0  0  0  0
   -1.8217   -1.8140   -0.1386 H   0  0  0  0  0  0  0  0  0  0  0  0
    0.6058   -2.1355   -0.8543 H   0  0  0  0  0  0  0  0  0  0  0  0
    2.8223   -0.0443    0.8030 H   0  0  0  0  0  0  0  0  0  0  0  0
    2.1910    1.6260    0.3686 H   0  0  0  0  0  0  0  0  0  0  0  0
   -0.6505   -0.0021   -1.6030 H   0  0  0  0  0  0  0  0  0  0  0  0
  1  2  1  0
  2  3  1  0
  3  4  1  0
  4  5  1  0
  5  6  1  0
  6  7  1  0
  7  8  1  0
  6  9  1  0
  9  1  1  0
  9  2  1  0
  5  3  1  0
  8  6  1  0
  1 10  1  0
  1 11  1  0
  2 12  1  0
  3 13  1  0
  5 14  1  0
  7 15  1  0
  7 16  1  0
  9 17  1  0
M  END
