
     RDKit          3D

 19 22  0  0  0  0  0  0  0  0999 V2000
    1.6519   -1.4518    0.5788 C   0  0  0  0  0  0  0  0  0  0  0  0
    0.3778   -0.8782    0.9234 C   0  0  0  0  0  0  0  0  0  0  0  0
    1.2940   -0.3677   -0.2751 C   0  0  0  0  0  0  0  0  0  0  0  0
    0.4644    0.8576    0.0217 C   0  0  0  0  0  0  0  0  0  0  0  0
    0.5778    2.1338   -0.3487 C   0  0  0  0  0  0  0  0  0  0  0  0
    0.7473    1.6931    1.0650 O   0  0  0  0  0  0  0  0  0  0  0  0
   -0.6062   -0.1553    0.0544 C   0  0  0  0  0  0  0  0  0  0  0  0
   -1.9965   -0.0161    0.2357 C   0  0  0  0  0  0  0  0  0  0  0  0
   -1.3630   -0.6998   -1.0239 C   0  0  0  0  0  0  0  0  0  0  0  0
    2.5932   -1.3106    1.1934 H   0  0  0  0  0  0  0  0  0  0  0  0
    1.6177   -2.5324    0.2435 H   0  0  0  0  0  0  0  0  0  0  0  0
    0.4742   -0.2365    1.8621 H   0  0  0  0  0  0  0  0  0  0  0  0
    0.9318   -0.7286   -1.2949 H   0  0  0  0  0  0  0  0  0  0  0  0
    1.5542    2.6134   -0.6419 H   0  0  0  0  0  0  0  0  0  0  0  0
   -0.2617    2.8461   -0.4760 H   0  0  0  0  0  0  0  0  0  0  0  0
   -2.5437    0.9235   -0.0101 H   0  0  0  0  0  0  0  0  0  0  0  0
   -2.5446   -0.7141    0.9190 H   0  0  0  0  0  0  0  0  0  0  0  0
   -1.5114   -1.8193   -1.0570 H   0  0  0  0  0  0  0  0  0  0  0  0
   -1.4573   -0.1570   -1.9691 H   0  0  0  0  0  0  0  0  0  0  0  0
  1  2  1  0
  2  3  1  0
  3  4  1  0
  4  5  1  0
  5  6  1  0
  4  7  1  0
  7  8  1  0
  8  9  1  0
  3  1  1  0
  6  4  1  0
  9  7  1  0
  7  2  1  0
  1 10  1  0
  1 11  1  0
  2 12  1  0
  3 13  1  0
  5 14  1  0
  5 15  1  0
  8 16  1  0
  8 17  1  0
  9 18  1  0
  9 19  1  0
M  END
