
     RDKit          3D

 18 20  0  0  0  0  0  0  0  0999 V2000
    1.0809   -1.0248    0.1388 C   0  0  0  0  0  0  0  0  0  0  0  0
    1.3386    0.4346   -0.2009 C   0  0  0  0  0  0  0  0  0  0  0  0
    0.3995    1.3532    0.5409 C   0  0  0  0  0  0  0  0  0  0  0  0
   -0.9476    0.8096    0.0602 C   0  0  0  0  0  0  0  0  0  0  0  0
   -1.2796   -0.5188    0.6841 C   0  0  0  0  0  0  0  0  0  0  0  0
   -0.3597   -1.1711   -0.3055 C   0  0  0  0  0  0  0  0  0  0  0  0
   -0.5285    0.0596   -1.1819 C   0  0  0  0  0  0  0  0  0  0  0  0
    0.7642    0.4904   -1.4935 O   0  0  0  0  0  0  0  0  0  0  0  0
    1.7176   -1.6169   -0.5510 H   0  0  0  0  0  0  0  0  0  0  0  0
    1.2249   -1.2538    1.1958 H   0  0  0  0  0  0  0  0  0  0  0  0
    2.3772    0.7210   -0.1797 H   0  0  0  0  0  0  0  0  0  0  0  0
    0.5050    1.3333    1.6201 H   0  0  0  0  0  0  0  0  0  0  0  0
    0.5380    2.3707    0.0898 H   0  0  0  0  0  0  0  0  0  0  0  0
   -1.7444    1.5370   -0.0400 H   0  0  0  0  0  0  0  0  0  0  0  0
   -0.8747   -0.5714    1.7070 H   0  0  0  0  0  0  0  0  0  0  0  0
   -2.3210   -0.8243    0.6406 H   0  0  0  0  0  0  0  0  0  0  0  0
   -0.6530   -2.1195   -0.7341 H   0  0  0  0  0  0  0  0  0  0  0  0
   -1.2374   -0.0090   -1.9907 H   0  0  0  0  0  0  0  0  0  0  0  0
  1  2  1  0
  2  3  1  0
  3  4  1  0
  4  5  1  0
  5  6  1  0
  6  7  1  0
  7  8  1  0
  6  1  1  0
  8  2  1  0
  7  4  1  0
  1  9  1  0
  1 10  1  0
  2 11  1  0
  3 12  1  0
  3 13  1  0
  4 14  1  0
  5 15  1  0
  5 16  1  0
  6 17  1  0
  7 18  1  0
M  END
