
     RDKit          3D

 19 22  0  0  0  0  0  0  0  0999 V2000
   -1.6956   -0.5685    0.7121 C   0  0  0  0  0  0  0  0  0  0  0  0
   -0.7710   -1.1387   -0.3601 C   0  0  0  0  0  0  0  0  0  0  0  0
    0.6537   -1.0567    0.1290 C   0  0  0  0  0  0  0  0  0  0  0  0
    1.1758    0.3063   -0.2059 C   0  0  0  0  0  0  0  0  0  0  0  0
    2.3702    0.8025    0.3354 C   0  0  0  0  0  0  0  0  0  0  0  0
    2.2642    0.4386   -1.0460 O   0  0  0  0  0  0  0  0  0  0  0  0
   -0.0819    1.0966   -0.4869 C   0  0  0  0  0  0  0  0  0  0  0  0
   -1.3125    0.7955    0.2526 C   0  0  0  0  0  0  0  0  0  0  0  0
   -0.9739    0.1252   -1.1056 C   0  0  0  0  0  0  0  0  0  0  0  0
   -1.4378   -0.8689    1.7219 H   0  0  0  0  0  0  0  0  0  0  0  0
   -2.7514   -0.7929    0.3977 H   0  0  0  0  0  0  0  0  0  0  0  0
   -1.0871   -2.0759   -0.8068 H   0  0  0  0  0  0  0  0  0  0  0  0
    1.2866   -1.8845   -0.2920 H   0  0  0  0  0  0  0  0  0  0  0  0
    0.6594   -1.1538    1.2540 H   0  0  0  0  0  0  0  0  0  0  0  0
    3.0438    0.1399    0.9183 H   0  0  0  0  0  0  0  0  0  0  0  0
    2.4947    1.9091    0.5184 H   0  0  0  0  0  0  0  0  0  0  0  0
   -0.0087    2.0866   -0.9518 H   0  0  0  0  0  0  0  0  0  0  0  0
   -2.1043    1.5421    0.2700 H   0  0  0  0  0  0  0  0  0  0  0  0
   -1.7242    0.2977   -1.8487 H   0  0  0  0  0  0  0  0  0  0  0  0
  1  2  1  0
  2  3  1  0
  3  4  1  0
  4  5  1  0
  5  6  1  0
  4  7  1  0
  7  8  1  0
  8  9  1  0
  8  1  1  0
  9  2  1  0
  6  4  1  0
  9  7  1  0
  1 10  1  0
  1 11  1  0
  2 12  1  0
  3 13  1  0
  3 14  1  0
  5 15  1  0
  5 16  1  0
  7 17  1  0
  8 18  1  0
  9 19  1  0
M  END
