
     RDKit          3D

 13 14  0  0  0  0  0  0  0  0999 V2000
   -0.1616    1.1117    0.4009 C   0  0  0  0  0  0  0  0  0  0  0  0
   -0.4757    0.2101   -0.7612 C   0  0  0  0  0  0  0  0  0  0  0  0
   -0.7760   -0.8486    0.2691 C   0  0  0  0  0  0  0  0  0  0  0  0
    0.4720   -0.1842    0.7813 C   0  0  0  0  0  0  0  0  0  0  0  0
    0.9477   -0.2550   -0.6623 C   0  0  0  0  0  0  0  0  0  0  0  0
   -1.0092    1.4614    1.0014 H   0  0  0  0  0  0  0  0  0  0  0  0
    0.5248    1.9303    0.0897 H   0  0  0  0  0  0  0  0  0  0  0  0
   -1.0001    0.4260   -1.5807 H   0  0  0  0  0  0  0  0  0  0  0  0
   -0.6454   -1.8871   -0.0824 H   0  0  0  0  0  0  0  0  0  0  0  0
   -1.6930   -0.6949    0.8642 H   0  0  0  0  0  0  0  0  0  0  0  0
    1.0067   -0.4173    1.5868 H   0  0  0  0  0  0  0  0  0  0  0  0
    1.7140    0.4600   -0.9506 H   0  0  0  0  0  0  0  0  0  0  0  0
    1.0959   -1.3124   -0.9560 H   0  0  0  0  0  0  0  0  0  0  0  0
  1  2  1  0
  2  3  1  0
  3  4  1  0
  4  5  1  0
  4  1  1  0
  5  2  1  0
  1  6  1  0
  1  7  1  0
  2  8  1  0
  3  9  1  0
  3 10  1  0
  4 11  1  0
  5 12  1  0
  5 13  1  0
M  END
