
     RDKit          3D

 21 24  0  0  0  0  0  0  0  0999 V2000
   -2.0610   -0.4976    0.4105 C   0  0  0  0  0  0  0  0  0  0  0  0
   -1.2991    0.8205    0.4765 C   0  0  0  0  0  0  0  0  0  0  0  0
    0.0408    0.5691    1.1279 C   0  0  0  0  0  0  0  0  0  0  0  0
    0.8845   -0.0645    0.0573 C   0  0  0  0  0  0  0  0  0  0  0  0
    2.2442    0.4464   -0.2585 C   0  0  0  0  0  0  0  0  0  0  0  0
    2.0310   -0.8588    0.4424 C   0  0  0  0  0  0  0  0  0  0  0  0
   -0.0068   -0.3369   -1.1013 C   0  0  0  0  0  0  0  0  0  0  0  0
   -1.4240   -0.7269   -0.9343 C   0  0  0  0  0  0  0  0  0  0  0  0
   -1.0379    0.6832   -0.9932 C   0  0  0  0  0  0  0  0  0  0  0  0
   -3.1434   -0.4145    0.4384 H   0  0  0  0  0  0  0  0  0  0  0  0
   -1.7089   -1.2652    1.1245 H   0  0  0  0  0  0  0  0  0  0  0  0
   -1.8624    1.6828    0.8179 H   0  0  0  0  0  0  0  0  0  0  0  0
   -0.0862   -0.2107    1.9305 H   0  0  0  0  0  0  0  0  0  0  0  0
    0.4306    1.5087    1.5069 H   0  0  0  0  0  0  0  0  0  0  0  0
    2.5901    0.3276   -1.3229 H   0  0  0  0  0  0  0  0  0  0  0  0
    2.5684    1.3472    0.2955 H   0  0  0  0  0  0  0  0  0  0  0  0
    2.3485   -1.8044   -0.0227 H   0  0  0  0  0  0  0  0  0  0  0  0
    2.3210   -0.8214    1.5343 H   0  0  0  0  0  0  0  0  0  0  0  0
    0.4752   -0.6446   -2.0377 H   0  0  0  0  0  0  0  0  0  0  0  0
   -1.9719   -1.1452   -1.7691 H   0  0  0  0  0  0  0  0  0  0  0  0
   -1.3327    1.4051   -1.7229 H   0  0  0  0  0  0  0  0  0  0  0  0
  1  2  1  0
  2  3  1  0
  3  4  1  0
  4  5  1  0
  5  6  1  0
  4  7  1  0
  7  8  1  0
  8  9  1  0
  8  1  1  0
  9  2  1  0
  6  4  1  0
  9  7  1  0
  1 10  1  0
  1 11  1  0
  2 12  1  0
  3 13  1  0
  3 14  1  0
  5 15  1  0
  5 16  1  0
  6 17  1  0
  6 18  1  0
  7 19  1  0
  8 20  1  0
  9 21  1  0
M  END
