
     RDKit          3D

 19 21  0  0  0  0  0  0  0  0999 V2000
   -1.3461   -0.7864    0.2728 C   0  0  0  0  0  0  0  0  0  0  0  0
   -1.5105    0.6729   -0.0270 C   0  0  0  0  0  0  0  0  0  0  0  0
   -0.4151    1.4249    0.6747 C   0  0  0  0  0  0  0  0  0  0  0  0
    0.2850    1.1019   -0.5956 C   0  0  0  0  0  0  0  0  0  0  0  0
   -0.9749    1.0674   -1.2309 O   0  0  0  0  0  0  0  0  0  0  0  0
    0.8522   -0.2680   -0.6793 C   0  0  0  0  0  0  0  0  0  0  0  0
    1.8989   -0.6569    0.3012 C   0  0  0  0  0  0  0  0  0  0  0  0
    0.9132   -1.1089    1.1695 O   0  0  0  0  0  0  0  0  0  0  0  0
    0.0517   -1.2660    0.0882 C   0  0  0  0  0  0  0  0  0  0  0  0
   -2.0992   -1.3934   -0.2758 H   0  0  0  0  0  0  0  0  0  0  0  0
   -1.6024   -0.9210    1.3602 H   0  0  0  0  0  0  0  0  0  0  0  0
   -2.5318    1.0319    0.1081 H   0  0  0  0  0  0  0  0  0  0  0  0
   -0.0549    0.9749    1.6015 H   0  0  0  0  0  0  0  0  0  0  0  0
   -0.6285    2.4877    0.7957 H   0  0  0  0  0  0  0  0  0  0  0  0
    0.9205    1.9195   -0.9398 H   0  0  0  0  0  0  0  0  0  0  0  0
    1.0678   -0.5766   -1.7239 H   0  0  0  0  0  0  0  0  0  0  0  0
    2.5446    0.1515    0.6703 H   0  0  0  0  0  0  0  0  0  0  0  0
    2.4956   -1.5362   -0.0509 H   0  0  0  0  0  0  0  0  0  0  0  0
    0.1340   -2.3192   -0.2787 H   0  0  0  0  0  0  0  0  0  0  0  0
  1  2  1  0
  2  3  1  0
  3  4  1  0
  4  5  1  0
  4  6  1  0
  6  7  1  0
  7  8  1  0
  8  9  1  0
  9  1  1  0
  5  2  1  0
  9  6  1  0
  1 10  1  0
  1 11  1  0
  2 12  1  0
  3 13  1  0
  3 14  1  0
  4 15  1  0
  6 16  1  0
  7 17  1  0
  7 18  1  0
  9 19  1  0
M  END
