
     RDKit          3D

 21 24  0  0  0  0  0  0  0  0999 V2000
    2.2903    1.1337   -0.2598 C   0  0  0  0  0  0  0  0  0  0  0  0
    1.5134    0.4942    0.7435 C   0  0  0  0  0  0  0  0  0  0  0  0
    0.9153   -0.9097    0.7346 C   0  0  0  0  0  0  0  0  0  0  0  0
    0.0364   -0.2432   -0.3148 C   0  0  0  0  0  0  0  0  0  0  0  0
   -0.8317   -1.0560   -1.1401 C   0  0  0  0  0  0  0  0  0  0  0  0
   -2.0117   -0.1734   -0.7092 C   0  0  0  0  0  0  0  0  0  0  0  0
   -2.2175    0.0761    0.7421 C   0  0  0  0  0  0  0  0  0  0  0  0
   -0.9841    0.6917    0.0969 C   0  0  0  0  0  0  0  0  0  0  0  0
    1.3642    0.2065   -0.8150 C   0  0  0  0  0  0  0  0  0  0  0  0
    3.4097    0.9629   -0.2100 H   0  0  0  0  0  0  0  0  0  0  0  0
    2.1309    2.2169   -0.5520 H   0  0  0  0  0  0  0  0  0  0  0  0
    0.6936    1.1704    1.1528 H   0  0  0  0  0  0  0  0  0  0  0  0
    0.4441   -1.1638    1.6780 H   0  0  0  0  0  0  0  0  0  0  0  0
    1.5380   -1.6742    0.2585 H   0  0  0  0  0  0  0  0  0  0  0  0
   -0.6467   -0.9112   -2.2369 H   0  0  0  0  0  0  0  0  0  0  0  0
   -0.9271   -2.1120   -0.8631 H   0  0  0  0  0  0  0  0  0  0  0  0
   -2.5849    0.3322   -1.4838 H   0  0  0  0  0  0  0  0  0  0  0  0
   -1.9910   -0.8118    1.3973 H   0  0  0  0  0  0  0  0  0  0  0  0
   -3.0212    0.7591    1.0008 H   0  0  0  0  0  0  0  0  0  0  0  0
   -1.0177    1.7592   -0.1879 H   0  0  0  0  0  0  0  0  0  0  0  0
    1.8977   -0.7476   -1.1437 H   0  0  0  0  0  0  0  0  0  0  0  0
  1  2  1  0
  2  3  1  0
  3  4  1  0
  4  5  1  0
  5  6  1  0
  6  7  1  0
  7  8  1  0
  4  9  1  0
  9  1  1  0
  9  2  1  0
  8  4  1  0
  8  6  1  0
  1 10  1  0
  1 11  1  0
  2 12  1  0
  3 13  1  0
  3 14  1  0
  5 15  1  0
  5 16  1  0
  6 17  1  0
  7 18  1  0
  7 19  1  0
  8 20  1  0
  9 21  1  0
M  END
