
     RDKit          3D

 19 21  0  0  0  0  0  0  0  0999 V2000
   -1.5901    0.6414   -0.0447 C   0  0  0  0  0  0  0  0  0  0  0  0
   -0.3175    0.6327   -0.9056 C   0  0  0  0  0  0  0  0  0  0  0  0
   -0.5223   -0.8904   -0.9562 C   0  0  0  0  0  0  0  0  0  0  0  0
   -1.0541   -0.7036    0.4726 C   0  0  0  0  0  0  0  0  0  0  0  0
    0.1511   -0.5207    1.3465 C   0  0  0  0  0  0  0  0  0  0  0  0
    1.2946   -1.0667    0.7573 O   0  0  0  0  0  0  0  0  0  0  0  0
    1.8822   -0.0908   -0.0087 C   0  0  0  0  0  0  0  0  0  0  0  0
    0.8062    1.0050    0.0133 C   0  0  0  0  0  0  0  0  0  0  0  0
    0.4351    0.8673    1.3753 O   0  0  0  0  0  0  0  0  0  0  0  0
   -1.5919    1.4202    0.7217 H   0  0  0  0  0  0  0  0  0  0  0  0
   -2.4690    0.5108   -0.6645 H   0  0  0  0  0  0  0  0  0  0  0  0
   -0.3964    1.1425   -1.8557 H   0  0  0  0  0  0  0  0  0  0  0  0
   -1.3303   -1.1365   -1.6541 H   0  0  0  0  0  0  0  0  0  0  0  0
    0.3940   -1.4759   -0.9910 H   0  0  0  0  0  0  0  0  0  0  0  0
   -1.8098   -1.4087    0.7839 H   0  0  0  0  0  0  0  0  0  0  0  0
    0.0386   -0.9334    2.3582 H   0  0  0  0  0  0  0  0  0  0  0  0
    2.7677    0.3835    0.5024 H   0  0  0  0  0  0  0  0  0  0  0  0
    2.1026   -0.3628   -1.0388 H   0  0  0  0  0  0  0  0  0  0  0  0
    1.2094    1.9861   -0.2119 H   0  0  0  0  0  0  0  0  0  0  0  0
  1  2  1  0
  2  3  1  0
  3  4  1  0
  4  5  1  0
  5  6  1  0
  6  7  1  0
  7  8  1  0
  8  9  1  0
  4  1  1  0
  9  5  1  0
  8  2  1  0
  1 10  1  0
  1 11  1  0
  2 12  1  0
  3 13  1  0
  3 14  1  0
  4 15  1  0
  5 16  1  0
  7 17  1  0
  7 18  1  0
  8 19  1  0
M  END
