
     RDKit          3D

 21 24  0  0  0  0  0  0  0  0999 V2000
   -1.1000    1.1998    0.6346 C   0  0  0  0  0  0  0  0  0  0  0  0
   -1.5058   -0.2677    0.7922 C   0  0  0  0  0  0  0  0  0  0  0  0
   -1.3474   -0.9011   -0.5633 C   0  0  0  0  0  0  0  0  0  0  0  0
   -0.8944    0.2454   -1.4600 C   0  0  0  0  0  0  0  0  0  0  0  0
   -0.0327    0.9933   -0.4450 C   0  0  0  0  0  0  0  0  0  0  0  0
    0.7545   -0.1281    0.1322 C   0  0  0  0  0  0  0  0  0  0  0  0
    1.8939   -0.0114    1.0096 C   0  0  0  0  0  0  0  0  0  0  0  0
    2.0355   -0.5304   -0.4090 C   0  0  0  0  0  0  0  0  0  0  0  0
   -0.3475   -1.1064    0.4855 C   0  0  0  0  0  0  0  0  0  0  0  0
   -0.5792    1.5849    1.5110 H   0  0  0  0  0  0  0  0  0  0  0  0
   -1.9209    1.8246    0.2794 H   0  0  0  0  0  0  0  0  0  0  0  0
   -2.3631   -0.5403    1.3808 H   0  0  0  0  0  0  0  0  0  0  0  0
   -2.0314   -1.6517   -0.9308 H   0  0  0  0  0  0  0  0  0  0  0  0
   -0.3399   -0.0870   -2.3304 H   0  0  0  0  0  0  0  0  0  0  0  0
   -1.7770    0.8605   -1.6532 H   0  0  0  0  0  0  0  0  0  0  0  0
    0.4550    1.8591   -0.7881 H   0  0  0  0  0  0  0  0  0  0  0  0
    2.3813    0.9141    1.3143 H   0  0  0  0  0  0  0  0  0  0  0  0
    2.0389   -0.8387    1.7648 H   0  0  0  0  0  0  0  0  0  0  0  0
    2.5608    0.2211   -1.0701 H   0  0  0  0  0  0  0  0  0  0  0  0
    2.2302   -1.5823   -0.6007 H   0  0  0  0  0  0  0  0  0  0  0  0
   -0.1108   -2.0576    0.9464 H   0  0  0  0  0  0  0  0  0  0  0  0
  1  2  1  0
  2  3  1  0
  3  4  1  0
  4  5  1  0
  5  6  1  0
  6  7  1  0
  7  8  1  0
  6  9  1  0
  5  1  1  0
  8  6  1  0
  9  2  1  0
  9  3  1  0
  1 10  1  0
  1 11  1  0
  2 12  1  0
  3 13  1  0
  4 14  1  0
  4 15  1  0
  5 16  1  0
  7 17  1  0
  7 18  1  0
  8 19  1  0
  8 20  1  0
  9 21  1  0
M  END
