
     RDKit          3D

 15 17  0  0  0  0  0  0  0  0999 V2000
   -1.6471    0.9142    0.1507 C   0  0  0  0  0  0  0  0  0  0  0  0
   -1.3275   -0.5247    0.0092 C   0  0  0  0  0  0  0  0  0  0  0  0
   -0.0592   -1.0075   -0.6100 C   0  0  0  0  0  0  0  0  0  0  0  0
    0.7350    0.0679    0.0391 C   0  0  0  0  0  0  0  0  0  0  0  0
    2.0780    0.1450    0.2183 C   0  0  0  0  0  0  0  0  0  0  0  0
    1.3738    0.9981   -0.7690 O   0  0  0  0  0  0  0  0  0  0  0  0
   -0.4275    0.4184    0.8766 C   0  0  0  0  0  0  0  0  0  0  0  0
   -1.4085    1.6104   -0.6857 H   0  0  0  0  0  0  0  0  0  0  0  0
   -2.5567    1.1502    0.7179 H   0  0  0  0  0  0  0  0  0  0  0  0
   -1.9275   -1.2651    0.5782 H   0  0  0  0  0  0  0  0  0  0  0  0
   -0.0038   -0.9823   -1.7150 H   0  0  0  0  0  0  0  0  0  0  0  0
    0.2558   -2.0114   -0.1989 H   0  0  0  0  0  0  0  0  0  0  0  0
    2.7998   -0.5152   -0.3133 H   0  0  0  0  0  0  0  0  0  0  0  0
    2.5829    0.7965    0.9594 H   0  0  0  0  0  0  0  0  0  0  0  0
   -0.4675    0.2054    1.9528 H   0  0  0  0  0  0  0  0  0  0  0  0
  1  2  1  0
  2  3  1  0
  3  4  1  0
  4  5  1  0
  5  6  1  0
  4  7  1  0
  7  1  1  0
  7  2  1  0
  6  4  1  0
  1  8  1  0
  1  9  1  0
  2 10  1  0
  3 11  1  0
  3 12  1  0
  5 13  1  0
  5 14  1  0
  7 15  1  0
M  END
