
     RDKit          3D

 19 22  0  0  0  0  0  0  0  0999 V2000
    1.5696   -0.3948   -0.3828 C   0  0  0  0  0  0  0  0  0  0  0  0
    0.9887    0.5598    0.6719 C   0  0  0  0  0  0  0  0  0  0  0  0
    0.0632    1.4882   -0.0607 C   0  0  0  0  0  0  0  0  0  0  0  0
   -1.1179    0.7709   -0.6185 C   0  0  0  0  0  0  0  0  0  0  0  0
   -1.7461   -0.2249    0.2643 C   0  0  0  0  0  0  0  0  0  0  0  0
   -1.0903   -0.3903    1.4536 O   0  0  0  0  0  0  0  0  0  0  0  0
    0.2307   -0.6340    1.2156 C   0  0  0  0  0  0  0  0  0  0  0  0
    0.3286   -1.2165   -0.2013 C   0  0  0  0  0  0  0  0  0  0  0  0
   -0.8816   -0.6539   -0.8545 C   0  0  0  0  0  0  0  0  0  0  0  0
    1.7041    0.1012   -1.3524 H   0  0  0  0  0  0  0  0  0  0  0  0
    2.4503   -0.8960    0.0393 H   0  0  0  0  0  0  0  0  0  0  0  0
    1.7283    1.0093    1.3308 H   0  0  0  0  0  0  0  0  0  0  0  0
   -0.2346    2.3607    0.5687 H   0  0  0  0  0  0  0  0  0  0  0  0
    0.6477    1.9057   -0.9250 H   0  0  0  0  0  0  0  0  0  0  0  0
   -1.7792    1.3487   -1.2658 H   0  0  0  0  0  0  0  0  0  0  0  0
   -2.8176   -0.4558    0.1612 H   0  0  0  0  0  0  0  0  0  0  0  0
    0.7888   -1.2209    1.9541 H   0  0  0  0  0  0  0  0  0  0  0  0
    0.4262   -2.3005   -0.2451 H   0  0  0  0  0  0  0  0  0  0  0  0
   -1.2591   -1.1567   -1.7532 H   0  0  0  0  0  0  0  0  0  0  0  0
  1  2  1  0
  2  3  1  0
  3  4  1  0
  4  5  1  0
  5  6  1  0
  6  7  1  0
  7  8  1  0
  8  9  1  0
  8  1  1  0
  7  2  1  0
  9  4  1  0
  9  5  1  0
  1 10  1  0
  1 11  1  0
  2 12  1  0
  3 13  1  0
  3 14  1  0
  4 15  1  0
  5 16  1  0
  7 17  1  0
  8 18  1  0
  9 19  1  0
M  END
