
     RDKit          3D

 21 23  0  0  0  0  0  0  0  0999 V2000
   -1.4594   -0.0378   -1.1169 C   0  0  0  0  0  0  0  0  0  0  0  0
   -1.5062   -0.6733    0.2726 C   0  0  0  0  0  0  0  0  0  0  0  0
   -1.3820    0.7632    0.7695 C   0  0  0  0  0  0  0  0  0  0  0  0
   -0.4447    0.8973   -0.4446 C   0  0  0  0  0  0  0  0  0  0  0  0
    0.6507    0.0162   -0.0400 C   0  0  0  0  0  0  0  0  0  0  0  0
    1.6512    0.4945    0.9523 C   0  0  0  0  0  0  0  0  0  0  0  0
    2.5989   -0.3255    0.3195 O   0  0  0  0  0  0  0  0  0  0  0  0
    1.8385   -0.1906   -0.8599 C   0  0  0  0  0  0  0  0  0  0  0  0
   -0.1208   -1.2468    0.3795 C   0  0  0  0  0  0  0  0  0  0  0  0
   -1.0424   -0.7022   -1.8722 H   0  0  0  0  0  0  0  0  0  0  0  0
   -2.4317    0.4397   -1.3265 H   0  0  0  0  0  0  0  0  0  0  0  0
   -2.3528   -1.2379    0.5428 H   0  0  0  0  0  0  0  0  0  0  0  0
   -0.8753    0.8842    1.7333 H   0  0  0  0  0  0  0  0  0  0  0  0
   -2.3030    1.3264    0.6084 H   0  0  0  0  0  0  0  0  0  0  0  0
   -0.3144    1.8637   -0.8551 H   0  0  0  0  0  0  0  0  0  0  0  0
    1.8737    1.5673    0.8882 H   0  0  0  0  0  0  0  0  0  0  0  0
    1.3654    0.1419    1.9780 H   0  0  0  0  0  0  0  0  0  0  0  0
    2.1620    0.6941   -1.4031 H   0  0  0  0  0  0  0  0  0  0  0  0
    1.8597   -1.0786   -1.5186 H   0  0  0  0  0  0  0  0  0  0  0  0
    0.0669   -2.0335   -0.3899 H   0  0  0  0  0  0  0  0  0  0  0  0
    0.1656   -1.5621    1.3824 H   0  0  0  0  0  0  0  0  0  0  0  0
  1  2  1  0
  2  3  1  0
  3  4  1  0
  4  5  1  0
  5  6  1  0
  6  7  1  0
  7  8  1  0
  5  9  1  0
  4  1  1  0
  8  5  1  0
  9  2  1  0
  1 10  1  0
  1 11  1  0
  2 12  1  0
  3 13  1  0
  3 14  1  0
  4 15  1  0
  6 16  1  0
  6 17  1  0
  8 18  1  0
  8 19  1  0
  9 20  1  0
  9 21  1  0
M  END
