
     RDKit          3D

 18 20  0  0  0  0  0  0  0  0999 V2000
   -1.9510   -0.0943    0.9834 C   0  0  0  0  0  0  0  0  0  0  0  0
   -1.3921    0.8625   -0.0287 C   0  0  0  0  0  0  0  0  0  0  0  0
    0.0960    1.0753   -0.1155 C   0  0  0  0  0  0  0  0  0  0  0  0
    0.6431   -0.2767   -0.3718 C   0  0  0  0  0  0  0  0  0  0  0  0
    1.8569   -0.6586    0.5046 C   0  0  0  0  0  0  0  0  0  0  0  0
    1.9868   -0.4967   -0.9652 C   0  0  0  0  0  0  0  0  0  0  0  0
   -0.3721   -1.1721   -0.5204 O   0  0  0  0  0  0  0  0  0  0  0  0
   -1.5778   -0.5422   -0.4093 C   0  0  0  0  0  0  0  0  0  0  0  0
   -2.9988    0.0562    1.2597 H   0  0  0  0  0  0  0  0  0  0  0  0
   -1.2729   -0.3625    1.8222 H   0  0  0  0  0  0  0  0  0  0  0  0
   -2.0384    1.6848   -0.3915 H   0  0  0  0  0  0  0  0  0  0  0  0
    0.4262    1.4470    0.8822 H   0  0  0  0  0  0  0  0  0  0  0  0
    0.3125    1.8291   -0.8749 H   0  0  0  0  0  0  0  0  0  0  0  0
    1.7257   -1.6279    0.9892 H   0  0  0  0  0  0  0  0  0  0  0  0
    2.2764    0.1455    1.1542 H   0  0  0  0  0  0  0  0  0  0  0  0
    2.5091    0.4096   -1.3079 H   0  0  0  0  0  0  0  0  0  0  0  0
    2.1678   -1.4483   -1.5225 H   0  0  0  0  0  0  0  0  0  0  0  0
   -2.3974   -0.8306   -1.0880 H   0  0  0  0  0  0  0  0  0  0  0  0
  1  2  1  0
  2  3  1  0
  3  4  1  0
  4  5  1  0
  5  6  1  0
  4  7  1  0
  7  8  1  0
  8  1  1  0
  8  2  1  0
  6  4  1  0
  1  9  1  0
  1 10  1  0
  2 11  1  0
  3 12  1  0
  3 13  1  0
  5 14  1  0
  5 15  1  0
  6 16  1  0
  6 17  1  0
  8 18  1  0
M  END
