
     RDKit          3D

 16 18  0  0  0  0  0  0  0  0999 V2000
   -1.6504    0.2231    0.0763 C   0  0  0  0  0  0  0  0  0  0  0  0
   -0.4866    0.1107    1.0717 C   0  0  0  0  0  0  0  0  0  0  0  0
    0.3458    1.2293    0.9664 O   0  0  0  0  0  0  0  0  0  0  0  0
    1.0657    1.0395   -0.2059 C   0  0  0  0  0  0  0  0  0  0  0  0
    1.4907   -0.4324   -0.0266 C   0  0  0  0  0  0  0  0  0  0  0  0
    0.0819   -0.9384    0.1490 C   0  0  0  0  0  0  0  0  0  0  0  0
   -0.6156   -0.2016   -0.9727 C   0  0  0  0  0  0  0  0  0  0  0  0
    0.1763    0.9012   -1.2763 O   0  0  0  0  0  0  0  0  0  0  0  0
   -2.3901   -0.5880    0.2101 H   0  0  0  0  0  0  0  0  0  0  0  0
   -2.0485    1.2272   -0.0556 H   0  0  0  0  0  0  0  0  0  0  0  0
   -0.7625   -0.2021    2.0741 H   0  0  0  0  0  0  0  0  0  0  0  0
    1.8841    1.7027   -0.3713 H   0  0  0  0  0  0  0  0  0  0  0  0
    1.8815   -0.7515   -0.9919 H   0  0  0  0  0  0  0  0  0  0  0  0
    2.1337   -0.5670    0.8332 H   0  0  0  0  0  0  0  0  0  0  0  0
   -0.1111   -1.9618    0.3150 H   0  0  0  0  0  0  0  0  0  0  0  0
   -0.9948   -0.7908   -1.7955 H   0  0  0  0  0  0  0  0  0  0  0  0
  1  2  1  0
  2  3  1  0
  3  4  1  0
  4  5  1  0
  5  6  1  0
  6  7  1  0
  7  8  1  0
  7  1  1  0
  6  2  1  0
  8  4  1  0
  1  9  1  0
  1 10  1  0
  2 11  1  0
  4 12  1  0
  5 13  1  0
  5 14  1  0
  6 15  1  0
  7 16  1  0
M  END
