
     RDKit          3D

 19 22  0  0  0  0  0  0  0  0999 V2000
    2.5082   -0.2143   -0.0808 C   0  0  0  0  0  0  0  0  0  0  0  0
    1.4103    0.6724   -0.5606 C   0  0  0  0  0  0  0  0  0  0  0  0
    1.2863   -0.8931   -0.4923 C   0  0  0  0  0  0  0  0  0  0  0  0
    0.1285   -0.9163    0.5093 C   0  0  0  0  0  0  0  0  0  0  0  0
    0.3533    0.1201    1.4588 O   0  0  0  0  0  0  0  0  0  0  0  0
    0.2014    0.9680    0.3252 C   0  0  0  0  0  0  0  0  0  0  0  0
   -0.8177    0.0205   -0.0774 C   0  0  0  0  0  0  0  0  0  0  0  0
   -2.1725    0.2041    0.6408 C   0  0  0  0  0  0  0  0  0  0  0  0
   -1.9594   -0.0110   -0.8310 C   0  0  0  0  0  0  0  0  0  0  0  0
    2.6829   -0.1677    1.0338 H   0  0  0  0  0  0  0  0  0  0  0  0
    3.4142   -0.2012   -0.6793 H   0  0  0  0  0  0  0  0  0  0  0  0
    1.4743    1.1185   -1.5485 H   0  0  0  0  0  0  0  0  0  0  0  0
    1.1290   -1.3401   -1.4815 H   0  0  0  0  0  0  0  0  0  0  0  0
   -0.1539   -1.8701    0.9070 H   0  0  0  0  0  0  0  0  0  0  0  0
   -0.0018    2.0005    0.5396 H   0  0  0  0  0  0  0  0  0  0  0  0
   -2.5017   -0.6113    1.2922 H   0  0  0  0  0  0  0  0  0  0  0  0
   -2.4302    1.2584    0.9259 H   0  0  0  0  0  0  0  0  0  0  0  0
   -2.2269    0.8420   -1.5222 H   0  0  0  0  0  0  0  0  0  0  0  0
   -2.3241   -0.9794   -1.2846 H   0  0  0  0  0  0  0  0  0  0  0  0
  1  2  1  0
  2  3  1  0
  3  4  1  0
  4  5  1  0
  5  6  1  0
  6  7  1  0
  7  8  1  0
  8  9  1  0
  3  1  1  0
  7  4  1  0
  6  2  1  0
  9  7  1  0
  1 10  1  0
  1 11  1  0
  2 12  1  0
  3 13  1  0
  4 14  1  0
  6 15  1  0
  8 16  1  0
  8 17  1  0
  9 18  1  0
  9 19  1  0
M  END
