
     RDKit          3D

 19 22  0  0  0  0  0  0  0  0999 V2000
    1.3311   -0.1828    0.7060 C   0  0  0  0  0  0  0  0  0  0  0  0
    0.8449    1.1733    0.2719 C   0  0  0  0  0  0  0  0  0  0  0  0
    1.0616    1.2591   -1.1123 O   0  0  0  0  0  0  0  0  0  0  0  0
   -0.1591    0.6429   -1.2945 C   0  0  0  0  0  0  0  0  0  0  0  0
   -0.6267    1.1998    0.0148 C   0  0  0  0  0  0  0  0  0  0  0  0
   -1.3341    0.1070    0.7552 C   0  0  0  0  0  0  0  0  0  0  0  0
   -0.8978   -1.1633    0.0881 C   0  0  0  0  0  0  0  0  0  0  0  0
    0.5603   -1.3035    0.0884 C   0  0  0  0  0  0  0  0  0  0  0  0
   -0.1307   -0.8402   -1.1238 C   0  0  0  0  0  0  0  0  0  0  0  0
    2.3916   -0.2706    0.3314 H   0  0  0  0  0  0  0  0  0  0  0  0
    1.3981   -0.2100    1.7977 H   0  0  0  0  0  0  0  0  0  0  0  0
    1.2724    1.9932    0.8478 H   0  0  0  0  0  0  0  0  0  0  0  0
   -0.6747    0.9753   -2.1971 H   0  0  0  0  0  0  0  0  0  0  0  0
   -1.0863    2.1891    0.0098 H   0  0  0  0  0  0  0  0  0  0  0  0
   -0.9324    0.0756    1.8032 H   0  0  0  0  0  0  0  0  0  0  0  0
   -2.4188    0.2292    0.8049 H   0  0  0  0  0  0  0  0  0  0  0  0
   -1.5186   -2.0708    0.1290 H   0  0  0  0  0  0  0  0  0  0  0  0
    1.0700   -2.2971    0.0929 H   0  0  0  0  0  0  0  0  0  0  0  0
   -0.1511   -1.5063   -2.0132 H   0  0  0  0  0  0  0  0  0  0  0  0
  1  2  1  0
  2  3  1  0
  3  4  1  0
  4  5  1  0
  5  6  1  0
  6  7  1  0
  7  8  1  0
  8  9  1  0
  8  1  1  0
  5  2  1  0
  9  7  1  0
  9  4  1  0
  1 10  1  0
  1 11  1  0
  2 12  1  0
  4 13  1  0
  5 14  1  0
  6 15  1  0
  6 16  1  0
  7 17  1  0
  8 18  1  0
  9 19  1  0
M  END
