
     RDKit          3D

 18 20  0  0  0  0  0  0  0  0999 V2000
   -0.5124    1.1138    0.7670 C   0  0  0  0  0  0  0  0  0  0  0  0
   -0.7776    0.9780   -0.7147 C   0  0  0  0  0  0  0  0  0  0  0  0
   -1.3201   -0.4593   -0.7522 C   0  0  0  0  0  0  0  0  0  0  0  0
   -0.1059   -1.1012   -0.1378 C   0  0  0  0  0  0  0  0  0  0  0  0
    0.1745   -0.2263    1.0540 C   0  0  0  0  0  0  0  0  0  0  0  0
    1.6169   -0.1824    0.5802 C   0  0  0  0  0  0  0  0  0  0  0  0
    1.0111   -0.3523   -0.8238 C   0  0  0  0  0  0  0  0  0  0  0  0
    0.4552    0.8089   -1.3373 O   0  0  0  0  0  0  0  0  0  0  0  0
   -1.4438    1.2262    1.3494 H   0  0  0  0  0  0  0  0  0  0  0  0
    0.1866    1.9623    0.8909 H   0  0  0  0  0  0  0  0  0  0  0  0
   -1.4224    1.7013   -1.1511 H   0  0  0  0  0  0  0  0  0  0  0  0
   -2.1492   -0.5781   -0.0224 H   0  0  0  0  0  0  0  0  0  0  0  0
   -1.5497   -0.7900   -1.7619 H   0  0  0  0  0  0  0  0  0  0  0  0
   -0.0515   -2.1553   -0.0417 H   0  0  0  0  0  0  0  0  0  0  0  0
   -0.0128   -0.6581    2.0246 H   0  0  0  0  0  0  0  0  0  0  0  0
    2.1317   -1.1216    0.8576 H   0  0  0  0  0  0  0  0  0  0  0  0
    2.1471    0.7540    0.7395 H   0  0  0  0  0  0  0  0  0  0  0  0
    1.6222   -0.9200   -1.5202 H   0  0  0  0  0  0  0  0  0  0  0  0
  1  2  1  0
  2  3  1  0
  3  4  1  0
  4  5  1  0
  5  6  1  0
  6  7  1  0
  7  8  1  0
  5  1  1  0
  8  2  1  0
  7  4  1  0
  1  9  1  0
  1 10  1  0
  2 11  1  0
  3 12  1  0
  3 13  1  0
  4 14  1  0
  5 15  1  0
  6 16  1  0
  6 17  1  0
  7 18  1  0
M  END
