
     RDKit          3D

 15 17  0  0  0  0  0  0  0  0999 V2000
   -1.6365   -0.4533   -0.1008 C   0  0  0  0  0  0  0  0  0  0  0  0
   -1.0204    0.8026   -0.4898 C   0  0  0  0  0  0  0  0  0  0  0  0
    0.1710    0.8548   -1.2552 O   0  0  0  0  0  0  0  0  0  0  0  0
    0.8816   -0.2146   -0.8486 C   0  0  0  0  0  0  0  0  0  0  0  0
    1.9053   -0.4606    0.0988 C   0  0  0  0  0  0  0  0  0  0  0  0
    0.8151    0.2264    0.6685 C   0  0  0  0  0  0  0  0  0  0  0  0
   -0.6153    0.0088    0.8061 C   0  0  0  0  0  0  0  0  0  0  0  0
   -2.7221   -0.3162    0.2178 H   0  0  0  0  0  0  0  0  0  0  0  0
   -1.6327   -1.3956   -0.6945 H   0  0  0  0  0  0  0  0  0  0  0  0
   -1.4765    1.7705   -0.3001 H   0  0  0  0  0  0  0  0  0  0  0  0
    0.2974   -1.1427   -1.1120 H   0  0  0  0  0  0  0  0  0  0  0  0
    2.8967    0.0460   -0.0807 H   0  0  0  0  0  0  0  0  0  0  0  0
    2.1174   -1.4973    0.4708 H   0  0  0  0  0  0  0  0  0  0  0  0
    1.0427    1.3348    0.8393 H   0  0  0  0  0  0  0  0  0  0  0  0
   -1.0237    0.4367    1.7806 H   0  0  0  0  0  0  0  0  0  0  0  0
  1  2  1  0
  2  3  1  0
  3  4  1  0
  4  5  1  0
  5  6  1  0
  6  7  1  0
  7  1  1  0
  7  2  1  0
  6  4  1  0
  1  8  1  0
  1  9  1  0
  2 10  1  0
  4 11  1  0
  5 12  1  0
  5 13  1  0
  6 14  1  0
  7 15  1  0
M  END
