
     RDKit          3D

 19 22  0  0  0  0  0  0  0  0999 V2000
   -2.2627    0.6631    0.2658 C   0  0  0  0  0  0  0  0  0  0  0  0
   -1.9350   -0.7618    0.2760 C   0  0  0  0  0  0  0  0  0  0  0  0
   -0.6502   -1.1457   -0.4721 C   0  0  0  0  0  0  0  0  0  0  0  0
    0.0905   -0.2174    0.3825 C   0  0  0  0  0  0  0  0  0  0  0  0
   -1.1313    0.1539    1.1210 C   0  0  0  0  0  0  0  0  0  0  0  0
    1.0680    0.7746   -0.0647 C   0  0  0  0  0  0  0  0  0  0  0  0
    2.4686    0.4627   -0.4433 C   0  0  0  0  0  0  0  0  0  0  0  0
    2.4034   -0.8395    0.0531 O   0  0  0  0  0  0  0  0  0  0  0  0
    1.4134   -0.3680    0.9286 C   0  0  0  0  0  0  0  0  0  0  0  0
   -1.9401    1.2334   -0.6522 H   0  0  0  0  0  0  0  0  0  0  0  0
   -3.1523    1.0701    0.7471 H   0  0  0  0  0  0  0  0  0  0  0  0
   -2.5639   -1.5492    0.6850 H   0  0  0  0  0  0  0  0  0  0  0  0
   -0.7447   -0.7868   -1.5117 H   0  0  0  0  0  0  0  0  0  0  0  0
   -0.4924   -2.2314   -0.3547 H   0  0  0  0  0  0  0  0  0  0  0  0
   -1.1972    0.1687    2.2078 H   0  0  0  0  0  0  0  0  0  0  0  0
    0.9370    1.7944    0.4042 H   0  0  0  0  0  0  0  0  0  0  0  0
    3.2172    1.0281    0.1814 H   0  0  0  0  0  0  0  0  0  0  0  0
    2.7519    0.5606   -1.5019 H   0  0  0  0  0  0  0  0  0  0  0  0
    1.7199   -0.0098    1.9260 H   0  0  0  0  0  0  0  0  0  0  0  0
  1  2  1  0
  2  3  1  0
  3  4  1  0
  4  5  1  0
  4  6  1  0
  6  7  1  0
  7  8  1  0
  8  9  1  0
  5  1  1  0
  9  6  1  0
  5  2  1  0
  9  4  1  0
  1 10  1  0
  1 11  1  0
  2 12  1  0
  3 13  1  0
  3 14  1  0
  5 15  1  0
  6 16  1  0
  7 17  1  0
  7 18  1  0
  9 19  1  0
M  END
