
     RDKit          3D

 17 19  0  0  0  0  0  0  0  0999 V2000
   -0.4158   -1.0665   -0.8113 C   0  0  0  0  0  0  0  0  0  0  0  0
   -1.3273   -0.2545    0.0425 C   0  0  0  0  0  0  0  0  0  0  0  0
   -1.2387    1.2321    0.0919 C   0  0  0  0  0  0  0  0  0  0  0  0
   -0.5127    0.4203    1.0695 C   0  0  0  0  0  0  0  0  0  0  0  0
    0.9363    0.0660    0.8408 C   0  0  0  0  0  0  0  0  0  0  0  0
    1.6090    0.4354   -0.4159 C   0  0  0  0  0  0  0  0  0  0  0  0
    0.9870   -0.9020   -0.2908 C   0  0  0  0  0  0  0  0  0  0  0  0
   -0.4226   -0.8017   -1.8810 H   0  0  0  0  0  0  0  0  0  0  0  0
   -0.6844   -2.1482   -0.6465 H   0  0  0  0  0  0  0  0  0  0  0  0
   -2.3234   -0.6861    0.2740 H   0  0  0  0  0  0  0  0  0  0  0  0
   -0.7468    1.7239   -0.7802 H   0  0  0  0  0  0  0  0  0  0  0  0
   -2.1454    1.7899    0.4160 H   0  0  0  0  0  0  0  0  0  0  0  0
   -0.8530    0.4767    2.1339 H   0  0  0  0  0  0  0  0  0  0  0  0
    1.5566   -0.2130    1.7189 H   0  0  0  0  0  0  0  0  0  0  0  0
    2.7261    0.5355   -0.3450 H   0  0  0  0  0  0  0  0  0  0  0  0
    1.1818    1.1600   -1.1331 H   0  0  0  0  0  0  0  0  0  0  0  0
    1.6735   -1.7677   -0.2839 H   0  0  0  0  0  0  0  0  0  0  0  0
  1  2  1  0
  2  3  1  0
  3  4  1  0
  4  5  1  0
  5  6  1  0
  6  7  1  0
  7  1  1  0
  4  2  1  0
  7  5  1  0
  1  8  1  0
  1  9  1  0
  2 10  1  0
  3 11  1  0
  3 12  1  0
  4 13  1  0
  5 14  1  0
  6 15  1  0
  6 16  1  0
  7 17  1  0
M  END
