
     RDKit          3D

 19 22  0  0  0  0  0  0  0  0999 V2000
    2.3022   -0.0194   -0.1392 C   0  0  0  0  0  0  0  0  0  0  0  0
    1.1573    0.9224    0.0457 C   0  0  0  0  0  0  0  0  0  0  0  0
    0.8128    0.1444    1.2854 C   0  0  0  0  0  0  0  0  0  0  0  0
   -0.5588    0.1437    1.4218 O   0  0  0  0  0  0  0  0  0  0  0  0
   -0.9813   -0.0267    0.0837 C   0  0  0  0  0  0  0  0  0  0  0  0
   -2.1187    0.7171   -0.4532 C   0  0  0  0  0  0  0  0  0  0  0  0
   -2.1847   -0.7783   -0.2494 C   0  0  0  0  0  0  0  0  0  0  0  0
    0.3085   -0.1162   -0.6352 C   0  0  0  0  0  0  0  0  0  0  0  0
    1.1753   -0.9174    0.2772 C   0  0  0  0  0  0  0  0  0  0  0  0
    3.1186    0.0166    0.5837 H   0  0  0  0  0  0  0  0  0  0  0  0
    2.5908   -0.0625   -1.2126 H   0  0  0  0  0  0  0  0  0  0  0  0
    1.1291    1.9112   -0.0823 H   0  0  0  0  0  0  0  0  0  0  0  0
    1.4323    0.2560    2.1546 H   0  0  0  0  0  0  0  0  0  0  0  0
   -1.9924    1.1168   -1.4936 H   0  0  0  0  0  0  0  0  0  0  0  0
   -2.6951    1.3847    0.2017 H   0  0  0  0  0  0  0  0  0  0  0  0
   -2.2473   -1.4229   -1.1424 H   0  0  0  0  0  0  0  0  0  0  0  0
   -2.8044   -1.1261    0.6200 H   0  0  0  0  0  0  0  0  0  0  0  0
    0.3638   -0.2379   -1.6880 H   0  0  0  0  0  0  0  0  0  0  0  0
    1.1923   -1.9052    0.4222 H   0  0  0  0  0  0  0  0  0  0  0  0
  1  2  1  0
  2  3  1  0
  3  4  1  0
  4  5  1  0
  5  6  1  0
  6  7  1  0
  5  8  1  0
  8  9  1  0
  9  1  1  0
  8  2  1  0
  9  3  1  0
  7  5  1  0
  1 10  1  0
  1 11  1  0
  2 12  1  0
  3 13  1  0
  6 14  1  0
  6 15  1  0
  7 16  1  0
  7 17  1  0
  8 18  1  0
  9 19  1  0
M  END
