
     RDKit          3D

 21 24  0  0  0  0  0  0  0  0999 V2000
    1.0944    1.3062   -0.6646 C   0  0  0  0  0  0  0  0  0  0  0  0
    1.9134    0.1064   -0.3320 C   0  0  0  0  0  0  0  0  0  0  0  0
    1.3510   -1.0979    0.3041 C   0  0  0  0  0  0  0  0  0  0  0  0
   -0.0962   -1.4767    0.1241 C   0  0  0  0  0  0  0  0  0  0  0  0
   -0.8047   -0.1488    0.0455 C   0  0  0  0  0  0  0  0  0  0  0  0
   -1.7577    0.0553   -1.0723 C   0  0  0  0  0  0  0  0  0  0  0  0
   -2.2206    0.0038    0.3899 C   0  0  0  0  0  0  0  0  0  0  0  0
    0.1578    0.9123    0.4718 C   0  0  0  0  0  0  0  0  0  0  0  0
    1.3071    0.1422    1.0438 C   0  0  0  0  0  0  0  0  0  0  0  0
    1.6163    2.2529   -0.3558 H   0  0  0  0  0  0  0  0  0  0  0  0
    0.6613    1.2986   -1.6622 H   0  0  0  0  0  0  0  0  0  0  0  0
    2.9790    0.1921   -0.4958 H   0  0  0  0  0  0  0  0  0  0  0  0
    2.0334   -1.8866    0.5951 H   0  0  0  0  0  0  0  0  0  0  0  0
   -0.4087   -1.9685    1.0910 H   0  0  0  0  0  0  0  0  0  0  0  0
   -0.2875   -2.1333   -0.7245 H   0  0  0  0  0  0  0  0  0  0  0  0
   -2.0691   -0.8138   -1.6998 H   0  0  0  0  0  0  0  0  0  0  0  0
   -1.8440    1.0249   -1.6025 H   0  0  0  0  0  0  0  0  0  0  0  0
   -2.7472   -0.9071    0.7334 H   0  0  0  0  0  0  0  0  0  0  0  0
   -2.5282    0.9875    0.7972 H   0  0  0  0  0  0  0  0  0  0  0  0
   -0.2035    1.7199    1.0970 H   0  0  0  0  0  0  0  0  0  0  0  0
    1.8537    0.4308    1.9168 H   0  0  0  0  0  0  0  0  0  0  0  0
  1  2  1  0
  2  3  1  0
  3  4  1  0
  4  5  1  0
  5  6  1  0
  6  7  1  0
  5  8  1  0
  8  9  1  0
  8  1  1  0
  9  2  1  0
  9  3  1  0
  7  5  1  0
  1 10  1  0
  1 11  1  0
  2 12  1  0
  3 13  1  0
  4 14  1  0
  4 15  1  0
  6 16  1  0
  6 17  1  0
  7 18  1  0
  7 19  1  0
  8 20  1  0
  9 21  1  0
M  END
