
     RDKit          3D

 18 20  0  0  0  0  0  0  0  0999 V2000
    0.0066    0.7012   -1.0759 C   0  0  0  0  0  0  0  0  0  0  0  0
    1.1887    0.6005   -0.2079 C   0  0  0  0  0  0  0  0  0  0  0  0
    2.2112   -0.3626   -0.0651 C   0  0  0  0  0  0  0  0  0  0  0  0
    0.9650   -0.8035    0.4475 C   0  0  0  0  0  0  0  0  0  0  0  0
    0.2465   -0.5030    1.5387 O   0  0  0  0  0  0  0  0  0  0  0  0
   -0.9554    0.0641    1.1835 C   0  0  0  0  0  0  0  0  0  0  0  0
   -1.8668   -0.6102    0.1983 C   0  0  0  0  0  0  0  0  0  0  0  0
   -1.1788    0.6465   -0.1029 C   0  0  0  0  0  0  0  0  0  0  0  0
   -0.0401    1.5513   -1.7524 H   0  0  0  0  0  0  0  0  0  0  0  0
   -0.0494   -0.2196   -1.7130 H   0  0  0  0  0  0  0  0  0  0  0  0
    1.2203    1.4813    0.5045 H   0  0  0  0  0  0  0  0  0  0  0  0
    2.6225   -0.8505   -0.9943 H   0  0  0  0  0  0  0  0  0  0  0  0
    3.0843   -0.1174    0.6082 H   0  0  0  0  0  0  0  0  0  0  0  0
    0.4272   -1.5801   -0.1744 H   0  0  0  0  0  0  0  0  0  0  0  0
   -1.5088    0.4954    2.0607 H   0  0  0  0  0  0  0  0  0  0  0  0
   -1.6073   -1.5794   -0.2523 H   0  0  0  0  0  0  0  0  0  0  0  0
   -2.9850   -0.5163    0.3372 H   0  0  0  0  0  0  0  0  0  0  0  0
   -1.7805    1.6021   -0.1473 H   0  0  0  0  0  0  0  0  0  0  0  0
  1  2  1  0
  2  3  1  0
  3  4  1  0
  4  5  1  0
  5  6  1  0
  6  7  1  0
  7  8  1  0
  8  1  1  0
  4  2  1  0
  8  6  1  0
  1  9  1  0
  1 10  1  0
  2 11  1  0
  3 12  1  0
  3 13  1  0
  4 14  1  0
  6 15  1  0
  7 16  1  0
  7 17  1  0
  8 18  1  0
M  END
