
     RDKit          3D

 21 23  0  0  0  0  0  0  0  0999 V2000
   -1.0414    1.2275   -0.2233 C   0  0  0  0  0  0  0  0  0  0  0  0
   -1.7439   -0.0758   -0.6085 C   0  0  0  0  0  0  0  0  0  0  0  0
   -1.7804   -0.3253    0.9026 C   0  0  0  0  0  0  0  0  0  0  0  0
   -0.3996    0.3320    0.8411 C   0  0  0  0  0  0  0  0  0  0  0  0
    0.3787   -0.6773    0.0668 C   0  0  0  0  0  0  0  0  0  0  0  0
    1.7096   -0.1719   -0.4211 C   0  0  0  0  0  0  0  0  0  0  0  0
    2.7253    0.2950    0.5520 C   0  0  0  0  0  0  0  0  0  0  0  0
    1.9813    1.1631   -0.2493 O   0  0  0  0  0  0  0  0  0  0  0  0
   -0.5898   -0.8855   -1.1154 C   0  0  0  0  0  0  0  0  0  0  0  0
   -1.7867    1.9210    0.2041 H   0  0  0  0  0  0  0  0  0  0  0  0
   -0.3599    1.6152   -0.9776 H   0  0  0  0  0  0  0  0  0  0  0  0
   -2.6553   -0.0225   -1.1326 H   0  0  0  0  0  0  0  0  0  0  0  0
   -1.7593   -1.3983    1.1387 H   0  0  0  0  0  0  0  0  0  0  0  0
   -2.5555    0.2858    1.3729 H   0  0  0  0  0  0  0  0  0  0  0  0
   -0.0190    0.7842    1.7143 H   0  0  0  0  0  0  0  0  0  0  0  0
    0.4573   -1.6253    0.6083 H   0  0  0  0  0  0  0  0  0  0  0  0
    2.0957   -0.7036   -1.3133 H   0  0  0  0  0  0  0  0  0  0  0  0
    3.8118    0.2061    0.2786 H   0  0  0  0  0  0  0  0  0  0  0  0
    2.4854    0.3922    1.6303 H   0  0  0  0  0  0  0  0  0  0  0  0
   -0.1463   -0.3916   -2.0051 H   0  0  0  0  0  0  0  0  0  0  0  0
   -0.8079   -1.9449   -1.2634 H   0  0  0  0  0  0  0  0  0  0  0  0
  1  2  1  0
  2  3  1  0
  3  4  1  0
  4  5  1  0
  5  6  1  0
  6  7  1  0
  7  8  1  0
  5  9  1  0
  4  1  1  0
  8  6  1  0
  9  2  1  0
  1 10  1  0
  1 11  1  0
  2 12  1  0
  3 13  1  0
  3 14  1  0
  4 15  1  0
  5 16  1  0
  6 17  1  0
  7 18  1  0
  7 19  1  0
  9 20  1  0
  9 21  1  0
M  END
