
     RDKit          3D

 21 24  0  0  0  0  0  0  0  0999 V2000
    1.9482   -0.2128    0.7561 C   0  0  0  0  0  0  0  0  0  0  0  0
    1.1679   -0.7683   -0.3600 C   0  0  0  0  0  0  0  0  0  0  0  0
   -0.2663   -1.1803   -0.2253 C   0  0  0  0  0  0  0  0  0  0  0  0
   -1.0558   -0.3801   -1.2651 C   0  0  0  0  0  0  0  0  0  0  0  0
   -1.1562    0.9817   -0.6663 C   0  0  0  0  0  0  0  0  0  0  0  0
   -0.9972    0.7881    0.8188 C   0  0  0  0  0  0  0  0  0  0  0  0
   -0.8654   -0.6757    1.0555 C   0  0  0  0  0  0  0  0  0  0  0  0
    0.0543    1.4393    0.0683 C   0  0  0  0  0  0  0  0  0  0  0  0
    1.2953    0.6872   -0.2085 C   0  0  0  0  0  0  0  0  0  0  0  0
    1.6257   -0.2994    1.8149 H   0  0  0  0  0  0  0  0  0  0  0  0
    3.0643   -0.3628    0.6677 H   0  0  0  0  0  0  0  0  0  0  0  0
    1.6945   -1.2424   -1.2293 H   0  0  0  0  0  0  0  0  0  0  0  0
   -0.4324   -2.2648   -0.3810 H   0  0  0  0  0  0  0  0  0  0  0  0
   -2.0362   -0.8389   -1.4169 H   0  0  0  0  0  0  0  0  0  0  0  0
   -0.4118   -0.4004   -2.1865 H   0  0  0  0  0  0  0  0  0  0  0  0
   -1.8993    1.7073   -1.0526 H   0  0  0  0  0  0  0  0  0  0  0  0
   -1.6945    1.3727    1.4484 H   0  0  0  0  0  0  0  0  0  0  0  0
   -0.3044   -0.9442    1.9568 H   0  0  0  0  0  0  0  0  0  0  0  0
   -1.8841   -1.1459    1.1798 H   0  0  0  0  0  0  0  0  0  0  0  0
    0.1631    2.5311    0.1563 H   0  0  0  0  0  0  0  0  0  0  0  0
    1.9903    1.2083   -0.9309 H   0  0  0  0  0  0  0  0  0  0  0  0
  1  2  1  0
  2  3  1  0
  3  4  1  0
  4  5  1  0
  5  6  1  0
  6  7  1  0
  6  8  1  0
  8  9  1  0
  9  1  1  0
  9  2  1  0
  7  3  1  0
  8  5  1  0
  1 10  1  0
  1 11  1  0
  2 12  1  0
  3 13  1  0
  4 14  1  0
  4 15  1  0
  5 16  1  0
  6 17  1  0
  7 18  1  0
  7 19  1  0
  8 20  1  0
  9 21  1  0
M  END
