
     RDKit          3D

 19 21  0  0  0  0  0  0  0  0999 V2000
   -2.0480    0.2200   -0.3973 C   0  0  0  0  0  0  0  0  0  0  0  0
   -1.2970   -0.1747    0.8538 C   0  0  0  0  0  0  0  0  0  0  0  0
    0.0191    0.4802    1.0304 C   0  0  0  0  0  0  0  0  0  0  0  0
    0.8798    0.3657   -0.1898 C   0  0  0  0  0  0  0  0  0  0  0  0
    0.7605   -0.9002   -0.9327 C   0  0  0  0  0  0  0  0  0  0  0  0
   -0.3847   -1.5795   -0.8913 O   0  0  0  0  0  0  0  0  0  0  0  0
   -1.4444   -1.1464   -0.2088 C   0  0  0  0  0  0  0  0  0  0  0  0
    2.2886    0.8868    0.0376 C   0  0  0  0  0  0  0  0  0  0  0  0
    1.3781    1.4785   -0.8173 O   0  0  0  0  0  0  0  0  0  0  0  0
   -3.1263    0.3852   -0.2393 H   0  0  0  0  0  0  0  0  0  0  0  0
   -1.5828    0.9331   -1.1083 H   0  0  0  0  0  0  0  0  0  0  0  0
   -1.8833   -0.2970    1.8038 H   0  0  0  0  0  0  0  0  0  0  0  0
    0.5746    0.1684    1.9297 H   0  0  0  0  0  0  0  0  0  0  0  0
   -0.1711    1.5862    1.1732 H   0  0  0  0  0  0  0  0  0  0  0  0
    1.5952   -1.5825   -0.5895 H   0  0  0  0  0  0  0  0  0  0  0  0
    1.0282   -0.6939   -2.0123 H   0  0  0  0  0  0  0  0  0  0  0  0
   -2.2391   -1.9343   -0.0336 H   0  0  0  0  0  0  0  0  0  0  0  0
    3.1414    0.3211   -0.3455 H   0  0  0  0  0  0  0  0  0  0  0  0
    2.5112    1.4833    0.9373 H   0  0  0  0  0  0  0  0  0  0  0  0
  1  2  1  0
  2  3  1  0
  3  4  1  0
  4  5  1  0
  5  6  1  0
  6  7  1  0
  4  8  1  0
  8  9  1  0
  7  1  1  0
  7  2  1  0
  9  4  1  0
  1 10  1  0
  1 11  1  0
  2 12  1  0
  3 13  1  0
  3 14  1  0
  5 15  1  0
  5 16  1  0
  7 17  1  0
  8 18  1  0
  8 19  1  0
M  END
