
     RDKit          3D

 18 20  0  0  0  0  0  0  0  0999 V2000
   -1.3775    0.0999    0.8459 C   0  0  0  0  0  0  0  0  0  0  0  0
   -1.1337    0.8209   -0.4627 C   0  0  0  0  0  0  0  0  0  0  0  0
   -0.8685   -0.5594   -1.0711 C   0  0  0  0  0  0  0  0  0  0  0  0
   -0.4025   -0.9612    0.3049 C   0  0  0  0  0  0  0  0  0  0  0  0
    0.9543   -0.4112    0.6319 C   0  0  0  0  0  0  0  0  0  0  0  0
    1.9602   -0.0738   -0.3663 C   0  0  0  0  0  0  0  0  0  0  0  0
    1.0778    0.9778    0.1875 C   0  0  0  0  0  0  0  0  0  0  0  0
    0.0373    1.5150   -0.5053 O   0  0  0  0  0  0  0  0  0  0  0  0
   -1.0113    0.5900    1.7475 H   0  0  0  0  0  0  0  0  0  0  0  0
   -2.3791   -0.3278    0.8948 H   0  0  0  0  0  0  0  0  0  0  0  0
   -2.0076    1.3388   -0.8236 H   0  0  0  0  0  0  0  0  0  0  0  0
   -0.1279   -0.5328   -1.8648 H   0  0  0  0  0  0  0  0  0  0  0  0
   -1.8312   -1.0210   -1.3166 H   0  0  0  0  0  0  0  0  0  0  0  0
   -0.6227   -1.9779    0.6274 H   0  0  0  0  0  0  0  0  0  0  0  0
    1.2437   -0.5975    1.7065 H   0  0  0  0  0  0  0  0  0  0  0  0
    3.0320   -0.1193   -0.0111 H   0  0  0  0  0  0  0  0  0  0  0  0
    1.8498   -0.4884   -1.3721 H   0  0  0  0  0  0  0  0  0  0  0  0
    1.6070    1.7279    0.8471 H   0  0  0  0  0  0  0  0  0  0  0  0
  1  2  1  0
  2  3  1  0
  3  4  1  0
  4  5  1  0
  5  6  1  0
  6  7  1  0
  7  8  1  0
  4  1  1  0
  7  5  1  0
  8  2  1  0
  1  9  1  0
  1 10  1  0
  2 11  1  0
  3 12  1  0
  3 13  1  0
  4 14  1  0
  5 15  1  0
  6 16  1  0
  6 17  1  0
  7 18  1  0
M  END
