
     RDKit          3D

 16 18  0  0  0  0  0  0  0  0999 V2000
   -1.2649   -0.7290   -0.2465 C   0  0  0  0  0  0  0  0  0  0  0  0
    0.0619   -1.2911   -0.5597 C   0  0  0  0  0  0  0  0  0  0  0  0
    0.9046   -2.0398    0.1209 O   0  0  0  0  0  0  0  0  0  0  0  0
    0.8938   -0.8461    0.6710 C   0  0  0  0  0  0  0  0  0  0  0  0
    1.3849    0.4732    0.2390 C   0  0  0  0  0  0  0  0  0  0  0  0
    0.1479    1.3463    0.0592 C   0  0  0  0  0  0  0  0  0  0  0  0
   -0.8019    1.2982    1.0729 O   0  0  0  0  0  0  0  0  0  0  0  0
   -1.0885    0.7732   -0.1931 C   0  0  0  0  0  0  0  0  0  0  0  0
   -2.0356   -1.0537   -0.9592 H   0  0  0  0  0  0  0  0  0  0  0  0
   -1.5718   -1.0952    0.7765 H   0  0  0  0  0  0  0  0  0  0  0  0
    0.4284   -0.9891   -1.5673 H   0  0  0  0  0  0  0  0  0  0  0  0
    0.3654   -0.8049    1.6588 H   0  0  0  0  0  0  0  0  0  0  0  0
    2.1322    0.9400    0.8985 H   0  0  0  0  0  0  0  0  0  0  0  0
    1.8841    0.3714   -0.7656 H   0  0  0  0  0  0  0  0  0  0  0  0
    0.4039    2.3412   -0.3801 H   0  0  0  0  0  0  0  0  0  0  0  0
   -1.8443    1.3053   -0.8253 H   0  0  0  0  0  0  0  0  0  0  0  0
  1  2  1  0
  2  3  1  0
  3  4  1  0
  4  5  1  0
  5  6  1  0
  6  7  1  0
  7  8  1  0
  8  1  1  0
  4  2  1  0
  8  6  1  0
  1  9  1  0
  1 10  1  0
  2 11  1  0
  4 12  1  0
  5 13  1  0
  5 14  1  0
  6 15  1  0
  8 16  1  0
M  END
