
     RDKit          3D

 19 22  0  0  0  0  0  0  0  0999 V2000
   -0.9299    1.1347   -0.6093 C   0  0  0  0  0  0  0  0  0  0  0  0
   -0.6729   -0.3266   -0.9860 C   0  0  0  0  0  0  0  0  0  0  0  0
   -1.1232   -0.9728    0.3373 C   0  0  0  0  0  0  0  0  0  0  0  0
   -0.0875   -0.2298    1.1915 C   0  0  0  0  0  0  0  0  0  0  0  0
   -0.1391    1.1918    0.7028 C   0  0  0  0  0  0  0  0  0  0  0  0
    1.1804    1.5110    0.3109 O   0  0  0  0  0  0  0  0  0  0  0  0
    1.6792    0.3631   -0.2808 C   0  0  0  0  0  0  0  0  0  0  0  0
    0.7906   -0.6214   -0.9495 C   0  0  0  0  0  0  0  0  0  0  0  0
    1.1734   -0.7231    0.5460 C   0  0  0  0  0  0  0  0  0  0  0  0
   -0.5671    1.8351   -1.3518 H   0  0  0  0  0  0  0  0  0  0  0  0
   -1.9879    1.2397   -0.3239 H   0  0  0  0  0  0  0  0  0  0  0  0
   -1.2202   -0.6682   -1.8379 H   0  0  0  0  0  0  0  0  0  0  0  0
   -0.9193   -2.0376    0.2687 H   0  0  0  0  0  0  0  0  0  0  0  0
   -2.1414   -0.6882    0.5895 H   0  0  0  0  0  0  0  0  0  0  0  0
   -0.1891   -0.3822    2.2395 H   0  0  0  0  0  0  0  0  0  0  0  0
   -0.5401    1.9069    1.4082 H   0  0  0  0  0  0  0  0  0  0  0  0
    2.7331    0.4376   -0.5769 H   0  0  0  0  0  0  0  0  0  0  0  0
    1.2471   -1.3816   -1.5688 H   0  0  0  0  0  0  0  0  0  0  0  0
    1.7139   -1.5883    0.8905 H   0  0  0  0  0  0  0  0  0  0  0  0
  1  2  1  0
  2  3  1  0
  3  4  1  0
  4  5  1  0
  5  6  1  0
  6  7  1  0
  7  8  1  0
  8  9  1  0
  5  1  1  0
  9  7  1  0
  8  2  1  0
  9  4  1  0
  1 10  1  0
  1 11  1  0
  2 12  1  0
  3 13  1  0
  3 14  1  0
  4 15  1  0
  5 16  1  0
  7 17  1  0
  8 18  1  0
  9 19  1  0
M  END
