
     RDKit          3D

 21 24  0  0  0  0  0  0  0  0999 V2000
    1.4238   -0.2441   -1.0640 C   0  0  0  0  0  0  0  0  0  0  0  0
    0.8164    1.0525   -0.5044 C   0  0  0  0  0  0  0  0  0  0  0  0
    1.5194    0.6383    0.7972 C   0  0  0  0  0  0  0  0  0  0  0  0
    1.1537   -0.7864    0.3485 C   0  0  0  0  0  0  0  0  0  0  0  0
   -0.3018   -0.9599    0.5935 C   0  0  0  0  0  0  0  0  0  0  0  0
   -1.0221    0.2934    0.9931 C   0  0  0  0  0  0  0  0  0  0  0  0
   -2.2236   -0.2976    0.3036 C   0  0  0  0  0  0  0  0  0  0  0  0
   -1.0778   -0.5921   -0.6353 C   0  0  0  0  0  0  0  0  0  0  0  0
   -0.6495    0.8216   -0.3679 C   0  0  0  0  0  0  0  0  0  0  0  0
    0.8563   -0.7161   -1.8572 H   0  0  0  0  0  0  0  0  0  0  0  0
    2.4979   -0.0708   -1.2266 H   0  0  0  0  0  0  0  0  0  0  0  0
    1.1684    1.9655   -0.9564 H   0  0  0  0  0  0  0  0  0  0  0  0
    1.0293    0.9749    1.7056 H   0  0  0  0  0  0  0  0  0  0  0  0
    2.6144    0.7427    0.7547 H   0  0  0  0  0  0  0  0  0  0  0  0
    1.8391   -1.5617    0.6753 H   0  0  0  0  0  0  0  0  0  0  0  0
   -0.6348   -1.8245    1.1647 H   0  0  0  0  0  0  0  0  0  0  0  0
   -0.9945    0.7758    1.8633 H   0  0  0  0  0  0  0  0  0  0  0  0
   -2.6627   -1.1508    0.8248 H   0  0  0  0  0  0  0  0  0  0  0  0
   -2.9158    0.4173   -0.1704 H   0  0  0  0  0  0  0  0  0  0  0  0
   -1.1221   -1.0696   -1.5086 H   0  0  0  0  0  0  0  0  0  0  0  0
   -1.3140    1.5916   -0.7789 H   0  0  0  0  0  0  0  0  0  0  0  0
  1  2  1  0
  2  3  1  0
  3  4  1  0
  4  5  1  0
  5  6  1  0
  6  7  1  0
  7  8  1  0
  8  9  1  0
  4  1  1  0
  8  5  1  0
  9  2  1  0
  9  6  1  0
  1 10  1  0
  1 11  1  0
  2 12  1  0
  3 13  1  0
  3 14  1  0
  4 15  1  0
  5 16  1  0
  6 17  1  0
  7 18  1  0
  7 19  1  0
  8 20  1  0
  9 21  1  0
M  END
