
     RDKit          3D

 17 20  0  0  0  0  0  0  0  0999 V2000
    0.5628    1.3331   -0.0854 C   0  0  0  0  0  0  0  0  0  0  0  0
   -0.4774    0.7124   -0.9900 C   0  0  0  0  0  0  0  0  0  0  0  0
    0.1578   -0.3609   -1.5848 O   0  0  0  0  0  0  0  0  0  0  0  0
    0.9612   -0.9321   -0.6422 C   0  0  0  0  0  0  0  0  0  0  0  0
    1.3365    0.1208    0.3675 C   0  0  0  0  0  0  0  0  0  0  0  0
    0.4656   -1.0069    0.7242 C   0  0  0  0  0  0  0  0  0  0  0  0
   -0.9767   -0.6752    0.9366 C   0  0  0  0  0  0  0  0  0  0  0  0
   -1.8501   -1.1999   -0.1633 O   0  0  0  0  0  0  0  0  0  0  0  0
   -1.5648    0.1530   -0.0795 C   0  0  0  0  0  0  0  0  0  0  0  0
    0.0314    1.8011    0.7685 H   0  0  0  0  0  0  0  0  0  0  0  0
    1.1925    2.0782   -0.5988 H   0  0  0  0  0  0  0  0  0  0  0  0
   -0.9375    1.4071   -1.6859 H   0  0  0  0  0  0  0  0  0  0  0  0
    1.7049   -1.6692   -0.9659 H   0  0  0  0  0  0  0  0  0  0  0  0
    2.3900    0.1713    0.6130 H   0  0  0  0  0  0  0  0  0  0  0  0
    0.8526   -1.8058    1.3851 H   0  0  0  0  0  0  0  0  0  0  0  0
   -1.4429   -0.9791    1.8816 H   0  0  0  0  0  0  0  0  0  0  0  0
   -2.4058    0.8519    0.1192 H   0  0  0  0  0  0  0  0  0  0  0  0
  1  2  1  0
  2  3  1  0
  3  4  1  0
  4  5  1  0
  5  6  1  0
  6  7  1  0
  7  8  1  0
  8  9  1  0
  5  1  1  0
  9  7  1  0
  9  2  1  0
  6  4  1  0
  1 10  1  0
  1 11  1  0
  2 12  1  0
  4 13  1  0
  5 14  1  0
  6 15  1  0
  7 16  1  0
  9 17  1  0
M  END
