
     RDKit          3D

 18 20  0  0  0  0  0  0  0  0999 V2000
   -0.8125   -0.1992    1.2589 C   0  0  0  0  0  0  0  0  0  0  0  0
   -1.1030    0.8552    0.2034 C   0  0  0  0  0  0  0  0  0  0  0  0
   -1.5006   -0.3348   -0.6799 C   0  0  0  0  0  0  0  0  0  0  0  0
   -0.3228   -0.9997    0.0441 C   0  0  0  0  0  0  0  0  0  0  0  0
    0.8721   -0.2062   -0.3515 C   0  0  0  0  0  0  0  0  0  0  0  0
    2.1907   -0.3723    0.0366 C   0  0  0  0  0  0  0  0  0  0  0  0
    1.7023   -0.5759   -1.3720 O   0  0  0  0  0  0  0  0  0  0  0  0
    0.2314    1.1960   -0.3811 C   0  0  0  0  0  0  0  0  0  0  0  0
    0.0249    0.0226    1.9325 H   0  0  0  0  0  0  0  0  0  0  0  0
   -1.7269   -0.6077    1.6864 H   0  0  0  0  0  0  0  0  0  0  0  0
   -1.8277    1.5949    0.3959 H   0  0  0  0  0  0  0  0  0  0  0  0
   -1.3596   -0.1822   -1.7488 H   0  0  0  0  0  0  0  0  0  0  0  0
   -2.4659   -0.7165   -0.3298 H   0  0  0  0  0  0  0  0  0  0  0  0
   -0.3078   -2.0513    0.1142 H   0  0  0  0  0  0  0  0  0  0  0  0
    2.6076   -1.3468    0.3583 H   0  0  0  0  0  0  0  0  0  0  0  0
    2.9089    0.4885    0.0801 H   0  0  0  0  0  0  0  0  0  0  0  0
    0.8134    1.9204    0.1797 H   0  0  0  0  0  0  0  0  0  0  0  0
    0.0753    1.5150   -1.4267 H   0  0  0  0  0  0  0  0  0  0  0  0
  1  2  1  0
  2  3  1  0
  3  4  1  0
  4  5  1  0
  5  6  1  0
  6  7  1  0
  5  8  1  0
  4  1  1  0
  7  5  1  0
  8  2  1  0
  1  9  1  0
  1 10  1  0
  2 11  1  0
  3 12  1  0
  3 13  1  0
  4 14  1  0
  6 15  1  0
  6 16  1  0
  8 17  1  0
  8 18  1  0
M  END
