
     RDKit          3D

 21 24  0  0  0  0  0  0  0  0999 V2000
   -0.1182    1.2334   -0.9225 C   0  0  0  0  0  0  0  0  0  0  0  0
   -1.2922    0.6839   -0.2246 C   0  0  0  0  0  0  0  0  0  0  0  0
   -1.0163    0.1137    1.1401 C   0  0  0  0  0  0  0  0  0  0  0  0
    0.3855    0.3479    1.5068 C   0  0  0  0  0  0  0  0  0  0  0  0
    1.4226   -0.0855    0.5620 C   0  0  0  0  0  0  0  0  0  0  0  0
    1.1538    0.5077   -0.7824 C   0  0  0  0  0  0  0  0  0  0  0  0
    1.0873   -0.9389   -0.5434 C   0  0  0  0  0  0  0  0  0  0  0  0
   -0.2732   -1.4958   -0.6457 C   0  0  0  0  0  0  0  0  0  0  0  0
   -1.3411   -0.7471    0.0362 C   0  0  0  0  0  0  0  0  0  0  0  0
   -0.3609    1.3412   -2.0054 H   0  0  0  0  0  0  0  0  0  0  0  0
    0.0396    2.2933   -0.5637 H   0  0  0  0  0  0  0  0  0  0  0  0
   -2.2055    1.3090   -0.2640 H   0  0  0  0  0  0  0  0  0  0  0  0
   -1.7605    0.2441    1.9495 H   0  0  0  0  0  0  0  0  0  0  0  0
    0.6177   -0.0903    2.5223 H   0  0  0  0  0  0  0  0  0  0  0  0
    0.5151    1.4601    1.6694 H   0  0  0  0  0  0  0  0  0  0  0  0
    2.4610   -0.0943    0.9528 H   0  0  0  0  0  0  0  0  0  0  0  0
    1.9867    0.8692   -1.4084 H   0  0  0  0  0  0  0  0  0  0  0  0
    1.8923   -1.5772   -0.9768 H   0  0  0  0  0  0  0  0  0  0  0  0
   -0.5394   -1.5636   -1.7425 H   0  0  0  0  0  0  0  0  0  0  0  0
   -0.3140   -2.5650   -0.2982 H   0  0  0  0  0  0  0  0  0  0  0  0
   -2.3404   -1.2457    0.0386 H   0  0  0  0  0  0  0  0  0  0  0  0
  1  2  1  0
  2  3  1  0
  3  4  1  0
  4  5  1  0
  5  6  1  0
  6  7  1  0
  7  8  1  0
  8  9  1  0
  6  1  1  0
  9  2  1  0
  9  3  1  0
  7  5  1  0
  1 10  1  0
  1 11  1  0
  2 12  1  0
  3 13  1  0
  4 14  1  0
  4 15  1  0
  5 16  1  0
  6 17  1  0
  7 18  1  0
  8 19  1  0
  8 20  1  0
  9 21  1  0
M  END
