
     RDKit          3D

 19 22  0  0  0  0  0  0  0  0999 V2000
    1.2331    0.5969    0.5757 C   0  0  0  0  0  0  0  0  0  0  0  0
    0.4300    1.3256   -0.4130 C   0  0  0  0  0  0  0  0  0  0  0  0
   -0.9255    0.8783   -0.6932 C   0  0  0  0  0  0  0  0  0  0  0  0
   -1.5515    0.0100    0.3246 C   0  0  0  0  0  0  0  0  0  0  0  0
   -0.6387   -1.0752    0.7386 C   0  0  0  0  0  0  0  0  0  0  0  0
    0.7247   -0.6936    1.0554 C   0  0  0  0  0  0  0  0  0  0  0  0
    0.3590   -1.5376   -0.1948 C   0  0  0  0  0  0  0  0  0  0  0  0
    0.5954   -0.8885   -1.3373 O   0  0  0  0  0  0  0  0  0  0  0  0
    0.0885    0.3271   -1.5559 C   0  0  0  0  0  0  0  0  0  0  0  0
    1.4317    1.2873    1.4489 H   0  0  0  0  0  0  0  0  0  0  0  0
    2.2640    0.4309    0.1404 H   0  0  0  0  0  0  0  0  0  0  0  0
    0.8174    2.3006   -0.7377 H   0  0  0  0  0  0  0  0  0  0  0  0
   -1.6180    1.6490   -1.1334 H   0  0  0  0  0  0  0  0  0  0  0  0
   -2.5333   -0.3644    0.0065 H   0  0  0  0  0  0  0  0  0  0  0  0
   -1.7553    0.6440    1.2386 H   0  0  0  0  0  0  0  0  0  0  0  0
   -1.1100   -1.8476    1.4069 H   0  0  0  0  0  0  0  0  0  0  0  0
    1.3062   -1.1902    1.8421 H   0  0  0  0  0  0  0  0  0  0  0  0
    0.7003   -2.5831   -0.1308 H   0  0  0  0  0  0  0  0  0  0  0  0
    0.1820    0.7306   -2.5819 H   0  0  0  0  0  0  0  0  0  0  0  0
  1  2  1  0
  2  3  1  0
  3  4  1  0
  4  5  1  0
  5  6  1  0
  6  7  1  0
  7  8  1  0
  8  9  1  0
  6  1  1  0
  9  2  1  0
  9  3  1  0
  7  5  1  0
  1 10  1  0
  1 11  1  0
  2 12  1  0
  3 13  1  0
  4 14  1  0
  4 15  1  0
  5 16  1  0
  6 17  1  0
  7 18  1  0
  9 19  1  0
M  END
