
     RDKit          3D

 21 23  0  0  0  0  0  0  0  0999 V2000
   -0.2563    1.4459    0.2323 C   0  0  0  0  0  0  0  0  0  0  0  0
   -1.3194    0.4251    0.2418 C   0  0  0  0  0  0  0  0  0  0  0  0
   -1.1549   -0.4828   -0.9635 C   0  0  0  0  0  0  0  0  0  0  0  0
   -0.2450   -1.3183   -0.1287 C   0  0  0  0  0  0  0  0  0  0  0  0
   -1.0380   -0.7921    1.0825 C   0  0  0  0  0  0  0  0  0  0  0  0
    1.1361   -0.8795    0.0167 C   0  0  0  0  0  0  0  0  0  0  0  0
    1.6133    0.2547   -0.7810 C   0  0  0  0  0  0  0  0  0  0  0  0
    1.1277    0.9993    0.4359 C   0  0  0  0  0  0  0  0  0  0  0  0
    1.3388   -0.1080    1.1856 O   0  0  0  0  0  0  0  0  0  0  0  0
   -0.4764    2.2974    0.9441 H   0  0  0  0  0  0  0  0  0  0  0  0
   -0.2856    1.9546   -0.7799 H   0  0  0  0  0  0  0  0  0  0  0  0
   -2.3217    0.8019    0.4313 H   0  0  0  0  0  0  0  0  0  0  0  0
   -0.7922   -0.0394   -1.8745 H   0  0  0  0  0  0  0  0  0  0  0  0
   -2.1187   -1.0189   -1.1315 H   0  0  0  0  0  0  0  0  0  0  0  0
   -0.3896   -2.3997   -0.3144 H   0  0  0  0  0  0  0  0  0  0  0  0
   -0.4213   -0.6487    1.9734 H   0  0  0  0  0  0  0  0  0  0  0  0
   -1.9353   -1.4090    1.1930 H   0  0  0  0  0  0  0  0  0  0  0  0
    1.8613   -1.7389    0.0610 H   0  0  0  0  0  0  0  0  0  0  0  0
    2.7200    0.3117   -0.8511 H   0  0  0  0  0  0  0  0  0  0  0  0
    1.1662    0.5010   -1.7354 H   0  0  0  0  0  0  0  0  0  0  0  0
    1.7911    1.8437    0.7623 H   0  0  0  0  0  0  0  0  0  0  0  0
  1  2  1  0
  2  3  1  0
  3  4  1  0
  4  5  1  0
  4  6  1  0
  6  7  1  0
  7  8  1  0
  8  9  1  0
  8  1  1  0
  5  2  1  0
  9  6  1  0
  1 10  1  0
  1 11  1  0
  2 12  1  0
  3 13  1  0
  3 14  1  0
  4 15  1  0
  5 16  1  0
  5 17  1  0
  6 18  1  0
  7 19  1  0
  7 20  1  0
  8 21  1  0
M  END
