
     RDKit          3D

 21 23  0  0  0  0  0  0  0  0999 V2000
    1.2229    0.6766    0.6529 C   0  0  0  0  0  0  0  0  0  0  0  0
   -0.2237    1.0751    0.7170 C   0  0  0  0  0  0  0  0  0  0  0  0
   -0.8458    1.0626   -0.6870 C   0  0  0  0  0  0  0  0  0  0  0  0
   -0.6577   -0.4159   -1.0278 C   0  0  0  0  0  0  0  0  0  0  0  0
    0.8108   -0.6389   -1.3862 C   0  0  0  0  0  0  0  0  0  0  0  0
    1.3871   -0.6710    0.0375 C   0  0  0  0  0  0  0  0  0  0  0  0
    0.5048   -1.6144    0.6046 O   0  0  0  0  0  0  0  0  0  0  0  0
   -0.7649   -1.1431    0.2949 C   0  0  0  0  0  0  0  0  0  0  0  0
   -1.0551   -0.0578    1.3405 C   0  0  0  0  0  0  0  0  0  0  0  0
    1.6289    0.6579    1.6667 H   0  0  0  0  0  0  0  0  0  0  0  0
    1.7514    1.4238    0.0466 H   0  0  0  0  0  0  0  0  0  0  0  0
   -0.4101    2.0001    1.2505 H   0  0  0  0  0  0  0  0  0  0  0  0
   -1.9269    1.2165   -0.5830 H   0  0  0  0  0  0  0  0  0  0  0  0
   -0.3331    1.7268   -1.3762 H   0  0  0  0  0  0  0  0  0  0  0  0
   -1.3399   -0.7682   -1.7904 H   0  0  0  0  0  0  0  0  0  0  0  0
    0.9095   -1.6533   -1.7765 H   0  0  0  0  0  0  0  0  0  0  0  0
    1.2305    0.1584   -1.9891 H   0  0  0  0  0  0  0  0  0  0  0  0
    2.4130   -1.0316    0.0618 H   0  0  0  0  0  0  0  0  0  0  0  0
   -1.5377   -1.9100    0.2702 H   0  0  0  0  0  0  0  0  0  0  0  0
   -2.1008    0.2387    1.3428 H   0  0  0  0  0  0  0  0  0  0  0  0
   -0.6632   -0.3324    2.3303 H   0  0  0  0  0  0  0  0  0  0  0  0
  1  2  1  0
  2  3  1  0
  3  4  1  0
  4  5  1  0
  5  6  1  0
  6  7  1  0
  7  8  1  0
  8  9  1  0
  6  1  1  0
  9  2  1  0
  8  4  1  0
  1 10  1  0
  1 11  1  0
  2 12  1  0
  3 13  1  0
  3 14  1  0
  4 15  1  0
  5 16  1  0
  5 17  1  0
  6 18  1  0
  8 19  1  0
  9 20  1  0
  9 21  1  0
M  END
