
     RDKit          3D

 19 21  0  0  0  0  0  0  0  0999 V2000
   -1.1650   -1.1916    0.1074 C   0  0  0  0  0  0  0  0  0  0  0  0
    0.0735   -1.2322   -0.7497 C   0  0  0  0  0  0  0  0  0  0  0  0
    1.2426   -0.9326    0.1213 C   0  0  0  0  0  0  0  0  0  0  0  0
    1.5461    0.5192    0.3036 C   0  0  0  0  0  0  0  0  0  0  0  0
    1.3663    1.4126   -0.7569 O   0  0  0  0  0  0  0  0  0  0  0  0
    0.5792    1.4612    0.5032 C   0  0  0  0  0  0  0  0  0  0  0  0
   -0.8462    1.2951    0.2195 C   0  0  0  0  0  0  0  0  0  0  0  0
   -1.2745    0.1313   -0.5689 C   0  0  0  0  0  0  0  0  0  0  0  0
   -0.3466   -0.1714   -1.5269 O   0  0  0  0  0  0  0  0  0  0  0  0
   -1.0005   -1.1957    1.1917 H   0  0  0  0  0  0  0  0  0  0  0  0
   -1.9385   -1.9181   -0.2098 H   0  0  0  0  0  0  0  0  0  0  0  0
    0.1871   -2.2090   -1.2404 H   0  0  0  0  0  0  0  0  0  0  0  0
    1.0336   -1.3559    1.1283 H   0  0  0  0  0  0  0  0  0  0  0  0
    2.1433   -1.4642   -0.2657 H   0  0  0  0  0  0  0  0  0  0  0  0
    2.5471    0.6364    0.7783 H   0  0  0  0  0  0  0  0  0  0  0  0
    0.8197    2.4229    1.0358 H   0  0  0  0  0  0  0  0  0  0  0  0
   -1.4274    1.2947    1.1869 H   0  0  0  0  0  0  0  0  0  0  0  0
   -1.2184    2.2250   -0.3040 H   0  0  0  0  0  0  0  0  0  0  0  0
   -2.3213    0.2720   -0.9539 H   0  0  0  0  0  0  0  0  0  0  0  0
  1  2  1  0
  2  3  1  0
  3  4  1  0
  4  5  1  0
  5  6  1  0
  6  7  1  0
  7  8  1  0
  8  9  1  0
  8  1  1  0
  9  2  1  0
  6  4  1  0
  1 10  1  0
  1 11  1  0
  2 12  1  0
  3 13  1  0
  3 14  1  0
  4 15  1  0
  6 16  1  0
  7 17  1  0
  7 18  1  0
  8 19  1  0
M  END
