
     RDKit          3D

 17 20  0  0  0  0  0  0  0  0999 V2000
    0.8822   -1.0620    0.7469 C   0  0  0  0  0  0  0  0  0  0  0  0
    1.1172    0.4149    0.5609 C   0  0  0  0  0  0  0  0  0  0  0  0
    0.1621    1.0713    1.3671 O   0  0  0  0  0  0  0  0  0  0  0  0
   -0.9031    1.2629    0.4728 C   0  0  0  0  0  0  0  0  0  0  0  0
   -0.1941    1.7997   -0.6309 O   0  0  0  0  0  0  0  0  0  0  0  0
    0.6734    0.7088   -0.8354 C   0  0  0  0  0  0  0  0  0  0  0  0
   -0.3105   -0.3763   -1.1275 C   0  0  0  0  0  0  0  0  0  0  0  0
   -0.4823   -1.2268    0.0626 C   0  0  0  0  0  0  0  0  0  0  0  0
   -1.3845   -0.0591   -0.0324 C   0  0  0  0  0  0  0  0  0  0  0  0
    0.8716   -1.3915    1.7827 H   0  0  0  0  0  0  0  0  0  0  0  0
    1.6012   -1.5910    0.0922 H   0  0  0  0  0  0  0  0  0  0  0  0
    2.1358    0.7384    0.7792 H   0  0  0  0  0  0  0  0  0  0  0  0
   -1.6685    1.9345    0.8415 H   0  0  0  0  0  0  0  0  0  0  0  0
    1.4388    0.8801   -1.5623 H   0  0  0  0  0  0  0  0  0  0  0  0
   -0.6630   -0.6111   -2.1182 H   0  0  0  0  0  0  0  0  0  0  0  0
   -0.8556   -2.2449   -0.1038 H   0  0  0  0  0  0  0  0  0  0  0  0
   -2.4207   -0.2478   -0.2954 H   0  0  0  0  0  0  0  0  0  0  0  0
  1  2  1  0
  2  3  1  0
  3  4  1  0
  4  5  1  0
  5  6  1  0
  6  7  1  0
  7  8  1  0
  8  9  1  0
  8  1  1  0
  6  2  1  0
  9  7  1  0
  9  4  1  0
  1 10  1  0
  1 11  1  0
  2 12  1  0
  4 13  1  0
  6 14  1  0
  7 15  1  0
  8 16  1  0
  9 17  1  0
M  END
