
     RDKit          3D

 17 20  0  0  0  0  0  0  0  0999 V2000
   -0.3172    1.2023   -0.0754 C   0  0  0  0  0  0  0  0  0  0  0  0
   -0.3715    0.0172   -1.0694 C   0  0  0  0  0  0  0  0  0  0  0  0
   -0.9481   -1.1331   -0.3931 C   0  0  0  0  0  0  0  0  0  0  0  0
   -1.8768   -1.4685    0.4092 O   0  0  0  0  0  0  0  0  0  0  0  0
   -1.1473   -0.5717    1.0397 C   0  0  0  0  0  0  0  0  0  0  0  0
    0.0780    0.1927    1.0532 C   0  0  0  0  0  0  0  0  0  0  0  0
    1.3335   -0.2689    0.5055 C   0  0  0  0  0  0  0  0  0  0  0  0
    1.6477   -1.2543   -0.3378 O   0  0  0  0  0  0  0  0  0  0  0  0
    1.1696   -0.1737   -1.0295 C   0  0  0  0  0  0  0  0  0  0  0  0
   -1.2972    1.6224    0.1102 H   0  0  0  0  0  0  0  0  0  0  0  0
    0.4949    1.8829   -0.2892 H   0  0  0  0  0  0  0  0  0  0  0  0
   -0.7219    0.3055   -2.0410 H   0  0  0  0  0  0  0  0  0  0  0  0
   -0.2836   -2.0637   -0.4484 H   0  0  0  0  0  0  0  0  0  0  0  0
   -1.9803    0.1869    1.2296 H   0  0  0  0  0  0  0  0  0  0  0  0
    0.1917    0.7221    2.0065 H   0  0  0  0  0  0  0  0  0  0  0  0
    2.2408    0.2814    0.9064 H   0  0  0  0  0  0  0  0  0  0  0  0
    1.7877    0.5203   -1.5765 H   0  0  0  0  0  0  0  0  0  0  0  0
  1  2  1  0
  2  3  1  0
  3  4  1  0
  4  5  1  0
  5  6  1  0
  6  7  1  0
  7  8  1  0
  8  9  1  0
  6  1  1  0
  9  7  1  0
  9  2  1  0
  5  3  1  0
  1 10  1  0
  1 11  1  0
  2 12  1  0
  3 13  1  0
  5 14  1  0
  6 15  1  0
  7 16  1  0
  9 17  1  0
M  END
