
     RDKit          3D

 18 20  0  0  0  0  0  0  0  0999 V2000
   -1.4443    0.1188    0.1590 C   0  0  0  0  0  0  0  0  0  0  0  0
   -0.5114   -0.1033   -1.0288 C   0  0  0  0  0  0  0  0  0  0  0  0
    0.3113   -1.2833   -0.6385 C   0  0  0  0  0  0  0  0  0  0  0  0
    1.0662   -0.7487    0.5641 C   0  0  0  0  0  0  0  0  0  0  0  0
    0.2176   -0.8185    1.6916 O   0  0  0  0  0  0  0  0  0  0  0  0
   -0.4000    0.3681    1.2584 C   0  0  0  0  0  0  0  0  0  0  0  0
    0.8644    0.7374    0.5804 C   0  0  0  0  0  0  0  0  0  0  0  0
    0.4255    1.0957   -0.8215 C   0  0  0  0  0  0  0  0  0  0  0  0
   -1.9591   -0.8383    0.3269 H   0  0  0  0  0  0  0  0  0  0  0  0
   -2.0790    0.9873    0.0431 H   0  0  0  0  0  0  0  0  0  0  0  0
   -0.9920   -0.1238   -1.9803 H   0  0  0  0  0  0  0  0  0  0  0  0
   -0.3956   -2.0796   -0.2798 H   0  0  0  0  0  0  0  0  0  0  0  0
    0.9413   -1.7048   -1.4080 H   0  0  0  0  0  0  0  0  0  0  0  0
    2.0737   -1.1277    0.7118 H   0  0  0  0  0  0  0  0  0  0  0  0
   -0.7365    1.0259    2.0625 H   0  0  0  0  0  0  0  0  0  0  0  0
    1.5835    1.3608    1.0632 H   0  0  0  0  0  0  0  0  0  0  0  0
    1.2297    1.1284   -1.5485 H   0  0  0  0  0  0  0  0  0  0  0  0
   -0.1953    2.0058   -0.7555 H   0  0  0  0  0  0  0  0  0  0  0  0
  1  2  1  0
  2  3  1  0
  3  4  1  0
  4  5  1  0
  5  6  1  0
  6  7  1  0
  7  8  1  0
  6  1  1  0
  8  2  1  0
  7  4  1  0
  1  9  1  0
  1 10  1  0
  2 11  1  0
  3 12  1  0
  3 13  1  0
  4 14  1  0
  6 15  1  0
  7 16  1  0
  8 17  1  0
  8 18  1  0
M  END
