
     RDKit          3D

 16 18  0  0  0  0  0  0  0  0999 V2000
   -1.4910   -0.2330    0.4491 C   0  0  0  0  0  0  0  0  0  0  0  0
   -0.1531   -0.0514    1.2017 C   0  0  0  0  0  0  0  0  0  0  0  0
    0.4098   -1.2593    0.7061 O   0  0  0  0  0  0  0  0  0  0  0  0
    0.4229   -0.8884   -0.6666 C   0  0  0  0  0  0  0  0  0  0  0  0
    1.4895    0.2156   -0.4694 C   0  0  0  0  0  0  0  0  0  0  0  0
    0.5110    1.0138    0.4226 C   0  0  0  0  0  0  0  0  0  0  0  0
   -0.3887    1.3059   -0.6375 O   0  0  0  0  0  0  0  0  0  0  0  0
   -0.7726   -0.0363   -0.9072 C   0  0  0  0  0  0  0  0  0  0  0  0
   -1.8665   -1.2496    0.5364 H   0  0  0  0  0  0  0  0  0  0  0  0
   -2.1854    0.5709    0.6545 H   0  0  0  0  0  0  0  0  0  0  0  0
   -0.2370    0.0169    2.2446 H   0  0  0  0  0  0  0  0  0  0  0  0
    0.6824   -1.6408   -1.3449 H   0  0  0  0  0  0  0  0  0  0  0  0
    2.3474   -0.1397    0.0795 H   0  0  0  0  0  0  0  0  0  0  0  0
    1.6690    0.7138   -1.4187 H   0  0  0  0  0  0  0  0  0  0  0  0
    0.9321    1.8468    0.9035 H   0  0  0  0  0  0  0  0  0  0  0  0
   -1.3695   -0.1852   -1.7538 H   0  0  0  0  0  0  0  0  0  0  0  0
  1  2  1  0
  2  3  1  0
  3  4  1  0
  4  5  1  0
  5  6  1  0
  6  7  1  0
  7  8  1  0
  8  1  1  0
  6  2  1  0
  8  4  1  0
  1  9  1  0
  1 10  1  0
  2 11  1  0
  4 12  1  0
  5 13  1  0
  5 14  1  0
  6 15  1  0
  8 16  1  0
M  END
