
     RDKit          3D

 18 20  0  0  0  0  0  0  0  0999 V2000
    1.1665   -1.0317   -0.3375 C   0  0  0  0  0  0  0  0  0  0  0  0
    1.4290    0.3948    0.0172 C   0  0  0  0  0  0  0  0  0  0  0  0
    0.5604    1.4896   -0.5429 C   0  0  0  0  0  0  0  0  0  0  0  0
    0.2523    0.8706    0.7478 C   0  0  0  0  0  0  0  0  0  0  0  0
   -0.7353   -0.2588    0.7991 C   0  0  0  0  0  0  0  0  0  0  0  0
   -1.8652   -0.0125   -0.1689 C   0  0  0  0  0  0  0  0  0  0  0  0
   -1.1333   -0.7172   -1.1257 O   0  0  0  0  0  0  0  0  0  0  0  0
   -0.3020   -1.2881   -0.1973 C   0  0  0  0  0  0  0  0  0  0  0  0
    1.6808   -1.6640    0.4359 H   0  0  0  0  0  0  0  0  0  0  0  0
    1.5843   -1.3485   -1.3044 H   0  0  0  0  0  0  0  0  0  0  0  0
    2.4238    0.6636    0.4200 H   0  0  0  0  0  0  0  0  0  0  0  0
    1.0078    2.5157   -0.5277 H   0  0  0  0  0  0  0  0  0  0  0  0
    0.0103    1.2909   -1.4746 H   0  0  0  0  0  0  0  0  0  0  0  0
    0.2973    1.5197    1.6376 H   0  0  0  0  0  0  0  0  0  0  0  0
   -1.0055   -0.6464    1.7844 H   0  0  0  0  0  0  0  0  0  0  0  0
   -2.7920   -0.4867    0.1731 H   0  0  0  0  0  0  0  0  0  0  0  0
   -2.0229    1.0541   -0.3776 H   0  0  0  0  0  0  0  0  0  0  0  0
   -0.5564   -2.3452    0.0416 H   0  0  0  0  0  0  0  0  0  0  0  0
  1  2  1  0
  2  3  1  0
  3  4  1  0
  4  5  1  0
  5  6  1  0
  6  7  1  0
  7  8  1  0
  8  1  1  0
  4  2  1  0
  8  5  1  0
  1  9  1  0
  1 10  1  0
  2 11  1  0
  3 12  1  0
  3 13  1  0
  4 14  1  0
  5 15  1  0
  6 16  1  0
  6 17  1  0
  8 18  1  0
M  END
