
     RDKit          3D

 21 23  0  0  0  0  0  0  0  0999 V2000
   -0.7061   -1.5046    0.2484 C   0  0  0  0  0  0  0  0  0  0  0  0
   -1.1304   -0.2105    0.9626 C   0  0  0  0  0  0  0  0  0  0  0  0
   -1.5368    0.5967   -0.2807 C   0  0  0  0  0  0  0  0  0  0  0  0
   -0.2144    0.4829   -1.0558 C   0  0  0  0  0  0  0  0  0  0  0  0
    0.7073    1.4771   -0.3323 C   0  0  0  0  0  0  0  0  0  0  0  0
    1.0418    0.6056    0.8897 C   0  0  0  0  0  0  0  0  0  0  0  0
    1.5417   -0.6370    0.1366 C   0  0  0  0  0  0  0  0  0  0  0  0
    0.3054   -0.8895   -0.7317 C   0  0  0  0  0  0  0  0  0  0  0  0
   -0.0781    0.3544    1.6290 O   0  0  0  0  0  0  0  0  0  0  0  0
   -1.5345   -1.8865   -0.3481 H   0  0  0  0  0  0  0  0  0  0  0  0
   -0.2418   -2.2134    0.9315 H   0  0  0  0  0  0  0  0  0  0  0  0
   -1.9619   -0.3666    1.6435 H   0  0  0  0  0  0  0  0  0  0  0  0
   -2.3362    0.0602   -0.7944 H   0  0  0  0  0  0  0  0  0  0  0  0
   -1.7222    1.6414   -0.0576 H   0  0  0  0  0  0  0  0  0  0  0  0
   -0.3240    0.7004   -2.1078 H   0  0  0  0  0  0  0  0  0  0  0  0
    0.1411    2.3707   -0.0392 H   0  0  0  0  0  0  0  0  0  0  0  0
    1.6245    1.6701   -0.8956 H   0  0  0  0  0  0  0  0  0  0  0  0
    1.8098    1.0462    1.5166 H   0  0  0  0  0  0  0  0  0  0  0  0
    1.7694   -1.4639    0.7998 H   0  0  0  0  0  0  0  0  0  0  0  0
    2.3410   -0.3103   -0.5317 H   0  0  0  0  0  0  0  0  0  0  0  0
    0.5043   -1.5235   -1.5826 H   0  0  0  0  0  0  0  0  0  0  0  0
  1  2  1  0
  2  3  1  0
  3  4  1  0
  4  5  1  0
  5  6  1  0
  6  7  1  0
  7  8  1  0
  6  9  1  0
  8  1  1  0
  9  2  1  0
  8  4  1  0
  1 10  1  0
  1 11  1  0
  2 12  1  0
  3 13  1  0
  3 14  1  0
  4 15  1  0
  5 16  1  0
  5 17  1  0
  6 18  1  0
  7 19  1  0
  7 20  1  0
  8 21  1  0
M  END
