
     RDKit          3D

 11 12  0  0  0  0  0  0  0  0999 V2000
    1.0480   -0.2129   -0.0092 C   0  0  0  0  0  0  0  0  0  0  0  0
   -0.0421    0.2089    0.9269 C   0  0  0  0  0  0  0  0  0  0  0  0
   -1.0204   -0.3118   -0.0703 C   0  0  0  0  0  0  0  0  0  0  0  0
    0.0027    0.4910   -0.8082 C   0  0  0  0  0  0  0  0  0  0  0  0
   -0.0690    1.4075    0.2310 O   0  0  0  0  0  0  0  0  0  0  0  0
    1.0181   -1.3028   -0.1919 H   0  0  0  0  0  0  0  0  0  0  0  0
    2.0209    0.2600    0.0906 H   0  0  0  0  0  0  0  0  0  0  0  0
   -0.0603    0.0914    1.9281 H   0  0  0  0  0  0  0  0  0  0  0  0
   -2.0408    0.0636   -0.0373 H   0  0  0  0  0  0  0  0  0  0  0  0
   -0.8772   -1.3938   -0.2650 H   0  0  0  0  0  0  0  0  0  0  0  0
    0.0202    0.6988   -1.7946 H   0  0  0  0  0  0  0  0  0  0  0  0
  1  2  1  0
  2  3  1  0
  3  4  1  0
  4  5  1  0
  4  1  1  0
  5  2  1  0
  1  6  1  0
  1  7  1  0
  2  8  1  0
  3  9  1  0
  3 10  1  0
  4 11  1  0
M  END
