
     RDKit          3D

 19 21  0  0  0  0  0  0  0  0999 V2000
   -1.5290   -0.7212   -0.5381 C   0  0  0  0  0  0  0  0  0  0  0  0
   -1.4812   -0.5936    0.9946 C   0  0  0  0  0  0  0  0  0  0  0  0
   -1.7022    0.9026    0.7199 C   0  0  0  0  0  0  0  0  0  0  0  0
   -0.7428    0.5841   -0.4361 C   0  0  0  0  0  0  0  0  0  0  0  0
    0.4536    0.1533    0.3357 C   0  0  0  0  0  0  0  0  0  0  0  0
    1.5060   -0.4844   -0.4964 C   0  0  0  0  0  0  0  0  0  0  0  0
    2.8204    0.2576   -0.5853 C   0  0  0  0  0  0  0  0  0  0  0  0
    2.5912   -1.0536    0.1159 O   0  0  0  0  0  0  0  0  0  0  0  0
   -0.1491   -0.7594    1.2417 O   0  0  0  0  0  0  0  0  0  0  0  0
   -0.9690   -1.5740   -0.9358 H   0  0  0  0  0  0  0  0  0  0  0  0
   -2.5700   -0.5899   -0.9249 H   0  0  0  0  0  0  0  0  0  0  0  0
   -2.2277   -1.1032    1.5462 H   0  0  0  0  0  0  0  0  0  0  0  0
   -2.7249    1.1111    0.4292 H   0  0  0  0  0  0  0  0  0  0  0  0
   -1.2205    1.5295    1.4747 H   0  0  0  0  0  0  0  0  0  0  0  0
   -0.7023    1.2322   -1.2552 H   0  0  0  0  0  0  0  0  0  0  0  0
    0.8653    0.9619    0.9891 H   0  0  0  0  0  0  0  0  0  0  0  0
    1.1737   -0.8886   -1.4885 H   0  0  0  0  0  0  0  0  0  0  0  0
    3.5220    0.0547   -1.3962 H   0  0  0  0  0  0  0  0  0  0  0  0
    3.0863    0.9812    0.2096 H   0  0  0  0  0  0  0  0  0  0  0  0
  1  2  1  0
  2  3  1  0
  3  4  1  0
  4  5  1  0
  5  6  1  0
  6  7  1  0
  7  8  1  0
  5  9  1  0
  4  1  1  0
  8  6  1  0
  9  2  1  0
  1 10  1  0
  1 11  1  0
  2 12  1  0
  3 13  1  0
  3 14  1  0
  4 15  1  0
  5 16  1  0
  6 17  1  0
  7 18  1  0
  7 19  1  0
M  END
