
     RDKit          3D

 19 21  0  0  0  0  0  0  0  0999 V2000
   -2.3703    0.7954   -0.1694 C   0  0  0  0  0  0  0  0  0  0  0  0
   -1.7733   -0.4667   -0.1180 C   0  0  0  0  0  0  0  0  0  0  0  0
   -0.6714   -1.0763    0.6774 C   0  0  0  0  0  0  0  0  0  0  0  0
    0.4672   -0.7192   -0.3032 C   0  0  0  0  0  0  0  0  0  0  0  0
    1.7416   -0.4049    0.3841 C   0  0  0  0  0  0  0  0  0  0  0  0
    2.5630    0.7465    0.1688 C   0  0  0  0  0  0  0  0  0  0  0  0
    1.7047    0.6822    1.2977 O   0  0  0  0  0  0  0  0  0  0  0  0
   -0.0268    0.3568   -1.0739 O   0  0  0  0  0  0  0  0  0  0  0  0
   -0.9728    0.8931   -0.2740 C   0  0  0  0  0  0  0  0  0  0  0  0
   -2.9050    1.1783    0.7462 H   0  0  0  0  0  0  0  0  0  0  0  0
   -2.9850    1.0942   -1.0682 H   0  0  0  0  0  0  0  0  0  0  0  0
   -1.8559   -1.0757   -1.0765 H   0  0  0  0  0  0  0  0  0  0  0  0
   -0.5034   -0.4921    1.6145 H   0  0  0  0  0  0  0  0  0  0  0  0
   -0.7532   -2.1490    0.8288 H   0  0  0  0  0  0  0  0  0  0  0  0
    0.6219   -1.5459   -1.0232 H   0  0  0  0  0  0  0  0  0  0  0  0
    2.2147   -1.3012    0.8642 H   0  0  0  0  0  0  0  0  0  0  0  0
    3.6536    0.6674    0.3658 H   0  0  0  0  0  0  0  0  0  0  0  0
    2.3151    1.5488   -0.5554 H   0  0  0  0  0  0  0  0  0  0  0  0
   -0.4647    1.2684    0.6698 H   0  0  0  0  0  0  0  0  0  0  0  0
  1  2  1  0
  2  3  1  0
  3  4  1  0
  4  5  1  0
  5  6  1  0
  6  7  1  0
  4  8  1  0
  8  9  1  0
  9  1  1  0
  9  2  1  0
  7  5  1  0
  1 10  1  0
  1 11  1  0
  2 12  1  0
  3 13  1  0
  3 14  1  0
  4 15  1  0
  5 16  1  0
  6 17  1  0
  6 18  1  0
  9 19  1  0
M  END
