
     RDKit          3D

 19 22  0  0  0  0  0  0  0  0999 V2000
    2.3476   -0.0787   -0.2281 C   0  0  0  0  0  0  0  0  0  0  0  0
    1.3624    0.8768    0.1497 C   0  0  0  0  0  0  0  0  0  0  0  0
    1.0559   -0.5737   -0.3079 C   0  0  0  0  0  0  0  0  0  0  0  0
   -0.1478   -0.3207   -1.0963 C   0  0  0  0  0  0  0  0  0  0  0  0
   -0.5518    1.0353   -0.9077 O   0  0  0  0  0  0  0  0  0  0  0  0
   -0.0629    1.0682    0.4428 C   0  0  0  0  0  0  0  0  0  0  0  0
   -0.8784   -0.0580    0.9851 C   0  0  0  0  0  0  0  0  0  0  0  0
   -2.2927   -0.0917    0.4443 C   0  0  0  0  0  0  0  0  0  0  0  0
   -1.3398   -0.8783   -0.2885 C   0  0  0  0  0  0  0  0  0  0  0  0
    3.0927   -0.3219    0.5782 H   0  0  0  0  0  0  0  0  0  0  0  0
    2.9245   -0.1523   -1.2033 H   0  0  0  0  0  0  0  0  0  0  0  0
    1.5851    1.7197   -0.5752 H   0  0  0  0  0  0  0  0  0  0  0  0
    0.8591   -1.2383    0.6038 H   0  0  0  0  0  0  0  0  0  0  0  0
   -0.1709   -0.6197   -2.1302 H   0  0  0  0  0  0  0  0  0  0  0  0
   -0.2305    2.0322    0.9081 H   0  0  0  0  0  0  0  0  0  0  0  0
   -0.6186   -0.6252    1.8639 H   0  0  0  0  0  0  0  0  0  0  0  0
   -3.0312   -0.6217    1.0392 H   0  0  0  0  0  0  0  0  0  0  0  0
   -2.6971    0.8318   -0.0413 H   0  0  0  0  0  0  0  0  0  0  0  0
   -1.2057   -1.9838   -0.1321 H   0  0  0  0  0  0  0  0  0  0  0  0
  1  2  1  0
  2  3  1  0
  3  4  1  0
  4  5  1  0
  5  6  1  0
  6  7  1  0
  7  8  1  0
  8  9  1  0
  3  1  1  0
  9  4  1  0
  6  2  1  0
  9  7  1  0
  1 10  1  0
  1 11  1  0
  2 12  1  0
  3 13  1  0
  4 14  1  0
  6 15  1  0
  7 16  1  0
  8 17  1  0
  8 18  1  0
  9 19  1  0
M  END
