
     RDKit          3D

 21 23  0  0  0  0  0  0  0  0999 V2000
   -1.0723    0.7345   -0.7337 C   0  0  0  0  0  0  0  0  0  0  0  0
   -0.6900    0.9136    0.7431 C   0  0  0  0  0  0  0  0  0  0  0  0
   -1.6222   -0.2911    0.9628 C   0  0  0  0  0  0  0  0  0  0  0  0
   -1.0711   -0.7625   -0.3934 C   0  0  0  0  0  0  0  0  0  0  0  0
    0.3125   -1.2800   -0.1523 C   0  0  0  0  0  0  0  0  0  0  0  0
    1.3564   -0.5471   -1.0044 C   0  0  0  0  0  0  0  0  0  0  0  0
    1.6283    0.6762   -0.1980 C   0  0  0  0  0  0  0  0  0  0  0  0
    0.7197    0.4856    1.0109 C   0  0  0  0  0  0  0  0  0  0  0  0
    0.7754   -0.9237    1.1371 O   0  0  0  0  0  0  0  0  0  0  0  0
   -0.3271    1.0516   -1.4502 H   0  0  0  0  0  0  0  0  0  0  0  0
   -2.1132    1.0676   -0.8656 H   0  0  0  0  0  0  0  0  0  0  0  0
   -1.0307    1.8399    1.1975 H   0  0  0  0  0  0  0  0  0  0  0  0
   -2.6563    0.0435    0.8646 H   0  0  0  0  0  0  0  0  0  0  0  0
   -1.3497   -0.9267    1.8037 H   0  0  0  0  0  0  0  0  0  0  0  0
   -1.7503   -1.3693   -0.9799 H   0  0  0  0  0  0  0  0  0  0  0  0
    0.3532   -2.3599   -0.2797 H   0  0  0  0  0  0  0  0  0  0  0  0
    1.0101   -0.3791   -2.0217 H   0  0  0  0  0  0  0  0  0  0  0  0
    2.2501   -1.2316   -1.0321 H   0  0  0  0  0  0  0  0  0  0  0  0
    2.6897    0.6758    0.1805 H   0  0  0  0  0  0  0  0  0  0  0  0
    1.4825    1.6245   -0.7042 H   0  0  0  0  0  0  0  0  0  0  0  0
    1.1050    0.9582    1.9148 H   0  0  0  0  0  0  0  0  0  0  0  0
  1  2  1  0
  2  3  1  0
  3  4  1  0
  4  5  1  0
  5  6  1  0
  6  7  1  0
  7  8  1  0
  8  9  1  0
  4  1  1  0
  9  5  1  0
  8  2  1  0
  1 10  1  0
  1 11  1  0
  2 12  1  0
  3 13  1  0
  3 14  1  0
  4 15  1  0
  5 16  1  0
  6 17  1  0
  6 18  1  0
  7 19  1  0
  7 20  1  0
  8 21  1  0
M  END
