
     RDKit          3D

 21 23  0  0  0  0  0  0  0  0999 V2000
   -1.6294    0.4762   -0.5764 C   0  0  0  0  0  0  0  0  0  0  0  0
   -1.0002    1.1961    0.5833 C   0  0  0  0  0  0  0  0  0  0  0  0
    0.4906    1.4890    0.3504 C   0  0  0  0  0  0  0  0  0  0  0  0
    1.1950    0.2241    0.6164 C   0  0  0  0  0  0  0  0  0  0  0  0
    2.2173   -0.4512   -0.1067 C   0  0  0  0  0  0  0  0  0  0  0  0
    0.8980   -0.6193   -0.6663 C   0  0  0  0  0  0  0  0  0  0  0  0
   -0.1596   -1.5596   -0.2814 C   0  0  0  0  0  0  0  0  0  0  0  0
   -1.3739   -0.7844    0.1769 C   0  0  0  0  0  0  0  0  0  0  0  0
   -1.1628   -0.0164    1.2990 O   0  0  0  0  0  0  0  0  0  0  0  0
   -1.2137    0.6132   -1.5593 H   0  0  0  0  0  0  0  0  0  0  0  0
   -2.7404    0.6911   -0.5588 H   0  0  0  0  0  0  0  0  0  0  0  0
   -1.5627    2.0309    1.0005 H   0  0  0  0  0  0  0  0  0  0  0  0
    0.7824    2.2477    1.0851 H   0  0  0  0  0  0  0  0  0  0  0  0
    0.6765    1.8464   -0.6747 H   0  0  0  0  0  0  0  0  0  0  0  0
    0.8688   -0.2357    1.5946 H   0  0  0  0  0  0  0  0  0  0  0  0
    2.6942   -1.3457    0.3554 H   0  0  0  0  0  0  0  0  0  0  0  0
    2.9671    0.1440   -0.6689 H   0  0  0  0  0  0  0  0  0  0  0  0
    0.6952   -0.0757   -1.6101 H   0  0  0  0  0  0  0  0  0  0  0  0
    0.1055   -2.2910    0.4826 H   0  0  0  0  0  0  0  0  0  0  0  0
   -0.4831   -2.1356   -1.1813 H   0  0  0  0  0  0  0  0  0  0  0  0
   -2.2650   -1.4440    0.3396 H   0  0  0  0  0  0  0  0  0  0  0  0
  1  2  1  0
  2  3  1  0
  3  4  1  0
  4  5  1  0
  5  6  1  0
  6  7  1  0
  7  8  1  0
  8  9  1  0
  8  1  1  0
  9  2  1  0
  6  4  1  0
  1 10  1  0
  1 11  1  0
  2 12  1  0
  3 13  1  0
  3 14  1  0
  4 15  1  0
  5 16  1  0
  5 17  1  0
  6 18  1  0
  7 19  1  0
  7 20  1  0
  8 21  1  0
M  END
