
     RDKit          3D

 15 18  0  0  0  0  0  0  0  0999 V2000
   -0.6578    1.0718   -0.6919 C   0  0  0  0  0  0  0  0  0  0  0  0
    0.8237    0.8172   -0.5358 C   0  0  0  0  0  0  0  0  0  0  0  0
    0.9964   -0.6330   -0.4921 C   0  0  0  0  0  0  0  0  0  0  0  0
    0.9185    0.2347    0.8070 C   0  0  0  0  0  0  0  0  0  0  0  0
   -0.3620   -0.4358    1.0947 C   0  0  0  0  0  0  0  0  0  0  0  0
   -1.2572   -0.1547   -0.0489 C   0  0  0  0  0  0  0  0  0  0  0  0
   -0.2979   -1.2488   -0.1229 C   0  0  0  0  0  0  0  0  0  0  0  0
   -0.9680    1.2316   -1.7260 H   0  0  0  0  0  0  0  0  0  0  0  0
   -0.9394    1.9430   -0.0679 H   0  0  0  0  0  0  0  0  0  0  0  0
    1.5628    1.4603   -0.9984 H   0  0  0  0  0  0  0  0  0  0  0  0
    1.9157   -1.1759   -0.6435 H   0  0  0  0  0  0  0  0  0  0  0  0
    1.7974    0.2042    1.4264 H   0  0  0  0  0  0  0  0  0  0  0  0
   -0.6883   -0.7692    2.0665 H   0  0  0  0  0  0  0  0  0  0  0  0
   -2.3233   -0.2431    0.1282 H   0  0  0  0  0  0  0  0  0  0  0  0
   -0.5206   -2.3023   -0.1954 H   0  0  0  0  0  0  0  0  0  0  0  0
  1  2  1  0
  2  3  1  0
  3  4  1  0
  4  5  1  0
  5  6  1  0
  6  7  1  0
  6  1  1  0
  4  2  1  0
  7  5  1  0
  7  3  1  0
  1  8  1  0
  1  9  1  0
  2 10  1  0
  3 11  1  0
  4 12  1  0
  5 13  1  0
  6 14  1  0
  7 15  1  0
M  END
