
     RDKit          3D

 18 21  0  0  0  0  0  0  0  0999 V2000
    1.7368   -0.1863    0.3364 C   0  0  0  0  0  0  0  0  0  0  0  0
    0.4742    0.2746    1.0850 C   0  0  0  0  0  0  0  0  0  0  0  0
    0.2200    1.1090   -0.1581 C   0  0  0  0  0  0  0  0  0  0  0  0
   -1.2325    1.0323   -0.4455 C   0  0  0  0  0  0  0  0  0  0  0  0
   -1.5173   -0.4209   -0.1103 C   0  0  0  0  0  0  0  0  0  0  0  0
   -0.5658   -0.7911    0.9285 C   0  0  0  0  0  0  0  0  0  0  0  0
   -0.3275   -1.1236   -0.5893 C   0  0  0  0  0  0  0  0  0  0  0  0
    0.7696   -0.1409   -0.8573 C   0  0  0  0  0  0  0  0  0  0  0  0
    2.5410    0.5404    0.3046 H   0  0  0  0  0  0  0  0  0  0  0  0
    1.9738   -1.2348    0.5444 H   0  0  0  0  0  0  0  0  0  0  0  0
    0.6128    0.7698    2.0147 H   0  0  0  0  0  0  0  0  0  0  0  0
    0.7663    2.0143   -0.2818 H   0  0  0  0  0  0  0  0  0  0  0  0
   -1.8620    1.7375    0.0933 H   0  0  0  0  0  0  0  0  0  0  0  0
   -1.3860    1.1116   -1.5621 H   0  0  0  0  0  0  0  0  0  0  0  0
   -2.5119   -0.8311   -0.1714 H   0  0  0  0  0  0  0  0  0  0  0  0
   -0.6080   -1.6690    1.5526 H   0  0  0  0  0  0  0  0  0  0  0  0
   -0.2667   -2.1651   -0.8601 H   0  0  0  0  0  0  0  0  0  0  0  0
    1.1833   -0.0266   -1.8238 H   0  0  0  0  0  0  0  0  0  0  0  0
  1  2  1  0
  2  3  1  0
  3  4  1  0
  4  5  1  0
  5  6  1  0
  6  7  1  0
  7  8  1  0
  8  1  1  0
  6  2  1  0
  8  3  1  0
  7  5  1  0
  1  9  1  0
  1 10  1  0
  2 11  1  0
  3 12  1  0
  4 13  1  0
  4 14  1  0
  5 15  1  0
  6 16  1  0
  7 17  1  0
  8 18  1  0
M  END
