
     RDKit          3D

 19 22  0  0  0  0  0  0  0  0999 V2000
    1.1154   -1.0658    0.4547 C   0  0  0  0  0  0  0  0  0  0  0  0
    1.1943   -0.1860   -0.8017 C   0  0  0  0  0  0  0  0  0  0  0  0
    0.9133    1.2168   -0.3725 C   0  0  0  0  0  0  0  0  0  0  0  0
   -0.4819    1.4033    0.1140 C   0  0  0  0  0  0  0  0  0  0  0  0
   -0.8917    0.3337    1.0214 C   0  0  0  0  0  0  0  0  0  0  0  0
   -0.3769   -1.0168    0.6953 C   0  0  0  0  0  0  0  0  0  0  0  0
   -0.9118   -0.8851   -0.7131 C   0  0  0  0  0  0  0  0  0  0  0  0
    0.1594   -0.7453   -1.5591 O   0  0  0  0  0  0  0  0  0  0  0  0
   -1.4766    0.4402   -0.3539 C   0  0  0  0  0  0  0  0  0  0  0  0
    1.3777   -2.0962    0.1553 H   0  0  0  0  0  0  0  0  0  0  0  0
    1.7122   -0.6463    1.2583 H   0  0  0  0  0  0  0  0  0  0  0  0
    2.1782   -0.3039   -1.2424 H   0  0  0  0  0  0  0  0  0  0  0  0
    1.2179    1.9429   -1.1572 H   0  0  0  0  0  0  0  0  0  0  0  0
    1.5979    1.4344    0.4977 H   0  0  0  0  0  0  0  0  0  0  0  0
   -0.8203    2.4219    0.3250 H   0  0  0  0  0  0  0  0  0  0  0  0
   -1.5539    0.5222    1.8881 H   0  0  0  0  0  0  0  0  0  0  0  0
   -0.7995   -1.8144    1.3057 H   0  0  0  0  0  0  0  0  0  0  0  0
   -1.6303   -1.6617   -0.9979 H   0  0  0  0  0  0  0  0  0  0  0  0
   -2.5236    0.7061   -0.5179 H   0  0  0  0  0  0  0  0  0  0  0  0
  1  2  1  0
  2  3  1  0
  3  4  1  0
  4  5  1  0
  5  6  1  0
  6  7  1  0
  7  8  1  0
  7  9  1  0
  6  1  1  0
  8  2  1  0
  9  4  1  0
  9  5  1  0
  1 10  1  0
  1 11  1  0
  2 12  1  0
  3 13  1  0
  3 14  1  0
  4 15  1  0
  5 16  1  0
  6 17  1  0
  7 18  1  0
  9 19  1  0
M  END
