
     RDKit          3D

 19 22  0  0  0  0  0  0  0  0999 V2000
    1.4811   -0.9550    0.4988 C   0  0  0  0  0  0  0  0  0  0  0  0
    1.9790    0.3529   -0.0597 C   0  0  0  0  0  0  0  0  0  0  0  0
    0.9286    1.4379   -0.2496 C   0  0  0  0  0  0  0  0  0  0  0  0
   -0.1272    1.2961    0.6515 O   0  0  0  0  0  0  0  0  0  0  0  0
   -0.7711    0.1300    0.3658 C   0  0  0  0  0  0  0  0  0  0  0  0
   -1.9059   -0.4206    1.0592 C   0  0  0  0  0  0  0  0  0  0  0  0
   -2.1309    0.2910   -0.2562 C   0  0  0  0  0  0  0  0  0  0  0  0
    0.2342   -0.7716   -0.3455 C   0  0  0  0  0  0  0  0  0  0  0  0
    0.9735    0.2679   -1.1231 C   0  0  0  0  0  0  0  0  0  0  0  0
    2.1298   -1.7929    0.1978 H   0  0  0  0  0  0  0  0  0  0  0  0
    1.3225   -0.8522    1.5945 H   0  0  0  0  0  0  0  0  0  0  0  0
    3.0074    0.5094   -0.3493 H   0  0  0  0  0  0  0  0  0  0  0  0
    1.2454    2.4342   -0.5644 H   0  0  0  0  0  0  0  0  0  0  0  0
   -2.0677   -1.5324    0.9656 H   0  0  0  0  0  0  0  0  0  0  0  0
   -2.3491    0.0003    1.9745 H   0  0  0  0  0  0  0  0  0  0  0  0
   -2.2777   -0.2679   -1.1801 H   0  0  0  0  0  0  0  0  0  0  0  0
   -2.6561    1.2681   -0.1510 H   0  0  0  0  0  0  0  0  0  0  0  0
   -0.1604   -1.6332   -0.8531 H   0  0  0  0  0  0  0  0  0  0  0  0
    1.1448    0.2382   -2.1758 H   0  0  0  0  0  0  0  0  0  0  0  0
  1  2  1  0
  2  3  1  0
  3  4  1  0
  4  5  1  0
  5  6  1  0
  6  7  1  0
  5  8  1  0
  8  9  1  0
  8  1  1  0
  9  2  1  0
  9  3  1  0
  7  5  1  0
  1 10  1  0
  1 11  1  0
  2 12  1  0
  3 13  1  0
  6 14  1  0
  6 15  1  0
  7 16  1  0
  7 17  1  0
  8 18  1  0
  9 19  1  0
M  END
