
     RDKit          3D

 19 22  0  0  0  0  0  0  0  0999 V2000
   -2.0419    0.4864    0.1866 C   0  0  0  0  0  0  0  0  0  0  0  0
   -1.2626   -0.7727   -0.0537 C   0  0  0  0  0  0  0  0  0  0  0  0
   -0.2294   -0.6413   -1.1294 C   0  0  0  0  0  0  0  0  0  0  0  0
    0.9365    0.0384   -0.5154 C   0  0  0  0  0  0  0  0  0  0  0  0
    1.9721   -0.8195    0.2056 C   0  0  0  0  0  0  0  0  0  0  0  0
    1.4290   -0.3592    1.4011 O   0  0  0  0  0  0  0  0  0  0  0  0
    0.4941    0.5216    0.8093 C   0  0  0  0  0  0  0  0  0  0  0  0
    0.9773    1.4705   -0.1940 C   0  0  0  0  0  0  0  0  0  0  0  0
   -0.9117    0.1777    1.0492 C   0  0  0  0  0  0  0  0  0  0  0  0
   -2.0146    1.2956   -0.5920 H   0  0  0  0  0  0  0  0  0  0  0  0
   -3.0514    0.3287    0.5833 H   0  0  0  0  0  0  0  0  0  0  0  0
   -1.6245   -1.7460    0.2688 H   0  0  0  0  0  0  0  0  0  0  0  0
    0.0430   -1.6101   -1.5490 H   0  0  0  0  0  0  0  0  0  0  0  0
   -0.6458   -0.0229   -1.9757 H   0  0  0  0  0  0  0  0  0  0  0  0
    2.9930   -0.4346    0.0652 H   0  0  0  0  0  0  0  0  0  0  0  0
    1.8029   -1.8721   -0.0381 H   0  0  0  0  0  0  0  0  0  0  0  0
    0.2737    2.2019   -0.5905 H   0  0  0  0  0  0  0  0  0  0  0  0
    2.0053    1.8987   -0.0402 H   0  0  0  0  0  0  0  0  0  0  0  0
   -1.1449   -0.1411    2.1087 H   0  0  0  0  0  0  0  0  0  0  0  0
  1  2  1  0
  2  3  1  0
  3  4  1  0
  4  5  1  0
  5  6  1  0
  6  7  1  0
  7  8  1  0
  7  9  1  0
  9  1  1  0
  9  2  1  0
  7  4  1  0
  8  4  1  0
  1 10  1  0
  1 11  1  0
  2 12  1  0
  3 13  1  0
  3 14  1  0
  5 15  1  0
  5 16  1  0
  8 17  1  0
  8 18  1  0
  9 19  1  0
M  END
