
     RDKit          3D

 21 24  0  0  0  0  0  0  0  0999 V2000
   -1.4775   -1.6991    0.1279 C   0  0  0  0  0  0  0  0  0  0  0  0
   -0.2092   -1.4259   -0.5785 C   0  0  0  0  0  0  0  0  0  0  0  0
   -1.3957   -0.4135   -0.6084 C   0  0  0  0  0  0  0  0  0  0  0  0
   -0.4160    0.6186   -0.1530 C   0  0  0  0  0  0  0  0  0  0  0  0
   -0.6494    1.5391    0.9562 C   0  0  0  0  0  0  0  0  0  0  0  0
   -0.5909    1.9909   -0.4855 C   0  0  0  0  0  0  0  0  0  0  0  0
    0.6774   -0.2923   -0.1736 C   0  0  0  0  0  0  0  0  0  0  0  0
    2.0657   -0.1608   -0.4814 C   0  0  0  0  0  0  0  0  0  0  0  0
    1.6360   -0.5709    0.9233 C   0  0  0  0  0  0  0  0  0  0  0  0
   -1.5877   -1.5918    1.2236 H   0  0  0  0  0  0  0  0  0  0  0  0
   -2.1361   -2.4636   -0.3367 H   0  0  0  0  0  0  0  0  0  0  0  0
    0.0064   -1.9679   -1.4987 H   0  0  0  0  0  0  0  0  0  0  0  0
   -1.8251   -0.2904   -1.6236 H   0  0  0  0  0  0  0  0  0  0  0  0
   -1.6035    1.4539    1.4798 H   0  0  0  0  0  0  0  0  0  0  0  0
    0.2593    1.8354    1.5525 H   0  0  0  0  0  0  0  0  0  0  0  0
    0.1886    2.7171   -0.7739 H   0  0  0  0  0  0  0  0  0  0  0  0
   -1.6069    2.3163   -0.8604 H   0  0  0  0  0  0  0  0  0  0  0  0
    2.5439    0.8257   -0.5099 H   0  0  0  0  0  0  0  0  0  0  0  0
    2.5752   -0.9369   -1.0965 H   0  0  0  0  0  0  0  0  0  0  0  0
    1.8223   -1.6398    1.1738 H   0  0  0  0  0  0  0  0  0  0  0  0
    1.7231    0.1560    1.7429 H   0  0  0  0  0  0  0  0  0  0  0  0
  1  2  1  0
  2  3  1  0
  3  4  1  0
  4  5  1  0
  5  6  1  0
  4  7  1  0
  7  8  1  0
  8  9  1  0
  3  1  1  0
  6  4  1  0
  9  7  1  0
  7  2  1  0
  1 10  1  0
  1 11  1  0
  2 12  1  0
  3 13  1  0
  5 14  1  0
  5 15  1  0
  6 16  1  0
  6 17  1  0
  8 18  1  0
  8 19  1  0
  9 20  1  0
  9 21  1  0
M  END
