
     RDKit          3D

 17 20  0  0  0  0  0  0  0  0999 V2000
    1.6137   -0.1782   -0.5709 C   0  0  0  0  0  0  0  0  0  0  0  0
    0.5558   -1.1902   -0.3123 C   0  0  0  0  0  0  0  0  0  0  0  0
   -0.8350   -1.1539   -0.0695 C   0  0  0  0  0  0  0  0  0  0  0  0
   -1.8246   -0.3095   -0.5237 O   0  0  0  0  0  0  0  0  0  0  0  0
   -1.7407    0.8804    0.2528 C   0  0  0  0  0  0  0  0  0  0  0  0
   -0.2580    1.0170    0.3244 C   0  0  0  0  0  0  0  0  0  0  0  0
   -0.0677    1.2182   -1.1591 O   0  0  0  0  0  0  0  0  0  0  0  0
    0.9087    1.1699   -0.2771 C   0  0  0  0  0  0  0  0  0  0  0  0
   -0.0897   -0.3973    0.8704 C   0  0  0  0  0  0  0  0  0  0  0  0
    2.5234   -0.2700    0.0262 H   0  0  0  0  0  0  0  0  0  0  0  0
    1.9096   -0.2372   -1.6385 H   0  0  0  0  0  0  0  0  0  0  0  0
    1.0830   -2.1500   -0.0086 H   0  0  0  0  0  0  0  0  0  0  0  0
   -1.3251   -2.1020    0.3150 H   0  0  0  0  0  0  0  0  0  0  0  0
   -2.3052    1.6911   -0.1676 H   0  0  0  0  0  0  0  0  0  0  0  0
   -2.1893    0.6183    1.2476 H   0  0  0  0  0  0  0  0  0  0  0  0
    1.6492    1.9766   -0.0940 H   0  0  0  0  0  0  0  0  0  0  0  0
    0.3920   -0.5834    1.7851 H   0  0  0  0  0  0  0  0  0  0  0  0
  1  2  1  0
  2  3  1  0
  3  4  1  0
  4  5  1  0
  5  6  1  0
  6  7  1  0
  7  8  1  0
  6  9  1  0
  8  1  1  0
  9  2  1  0
  9  3  1  0
  8  6  1  0
  1 10  1  0
  1 11  1  0
  2 12  1  0
  3 13  1  0
  5 14  1  0
  5 15  1  0
  8 16  1  0
  9 17  1  0
M  END
