
     RDKit          3D

 16 18  0  0  0  0  0  0  0  0999 V2000
   -1.6375    0.1530    0.1867 C   0  0  0  0  0  0  0  0  0  0  0  0
   -0.5436    0.9168   -0.5700 C   0  0  0  0  0  0  0  0  0  0  0  0
   -0.5220   -0.2094   -1.4284 O   0  0  0  0  0  0  0  0  0  0  0  0
   -0.6860   -0.9727   -0.2464 C   0  0  0  0  0  0  0  0  0  0  0  0
    0.5928   -0.9514    0.5351 C   0  0  0  0  0  0  0  0  0  0  0  0
    1.6337   -0.0998   -0.1954 C   0  0  0  0  0  0  0  0  0  0  0  0
    0.6621    0.9561    0.3222 C   0  0  0  0  0  0  0  0  0  0  0  0
    0.5021    0.1214    1.4525 O   0  0  0  0  0  0  0  0  0  0  0  0
   -1.6528    0.3575    1.2539 H   0  0  0  0  0  0  0  0  0  0  0  0
   -2.5768    0.0425   -0.3498 H   0  0  0  0  0  0  0  0  0  0  0  0
   -0.8594    1.8436   -1.0353 H   0  0  0  0  0  0  0  0  0  0  0  0
   -1.1684   -1.9429   -0.3929 H   0  0  0  0  0  0  0  0  0  0  0  0
    0.9559   -1.8869    0.9470 H   0  0  0  0  0  0  0  0  0  0  0  0
    1.5873   -0.1541   -1.2876 H   0  0  0  0  0  0  0  0  0  0  0  0
    2.6228   -0.0955    0.2477 H   0  0  0  0  0  0  0  0  0  0  0  0
    1.0898    1.9219    0.5605 H   0  0  0  0  0  0  0  0  0  0  0  0
  1  2  1  0
  2  3  1  0
  3  4  1  0
  4  5  1  0
  5  6  1  0
  6  7  1  0
  7  8  1  0
  4  1  1  0
  8  5  1  0
  7  2  1  0
  1  9  1  0
  1 10  1  0
  2 11  1  0
  4 12  1  0
  5 13  1  0
  6 14  1  0
  6 15  1  0
  7 16  1  0
M  END
