
     RDKit          3D

 19 23  0  0  0  0  0  0  0  0999 V2000
   -1.9090    0.2189   -0.2062 C   0  0  0  0  0  0  0  0  0  0  0  0
   -0.9233   -0.3743    0.8143 C   0  0  0  0  0  0  0  0  0  0  0  0
   -0.1965    0.9656    0.6713 C   0  0  0  0  0  0  0  0  0  0  0  0
   -0.6139    0.7854   -0.7978 C   0  0  0  0  0  0  0  0  0  0  0  0
    0.2787   -0.3689   -1.1605 C   0  0  0  0  0  0  0  0  0  0  0  0
    0.0568   -1.2453    0.0833 C   0  0  0  0  0  0  0  0  0  0  0  0
    1.3639   -0.7945    0.5838 C   0  0  0  0  0  0  0  0  0  0  0  0
    1.2573    0.6864    0.6817 C   0  0  0  0  0  0  0  0  0  0  0  0
    1.5796    0.0255   -0.5945 C   0  0  0  0  0  0  0  0  0  0  0  0
   -2.3598   -0.5151   -0.8763 H   0  0  0  0  0  0  0  0  0  0  0  0
   -2.5606    0.9825    0.2273 H   0  0  0  0  0  0  0  0  0  0  0  0
   -1.2957   -0.6444    1.7642 H   0  0  0  0  0  0  0  0  0  0  0  0
   -0.6086    1.8021    1.1871 H   0  0  0  0  0  0  0  0  0  0  0  0
   -0.6699    1.6451   -1.4044 H   0  0  0  0  0  0  0  0  0  0  0  0
    0.1826   -0.8399   -2.1084 H   0  0  0  0  0  0  0  0  0  0  0  0
   -0.1687   -2.2728   -0.0868 H   0  0  0  0  0  0  0  0  0  0  0  0
    2.0840   -1.3911    1.1098 H   0  0  0  0  0  0  0  0  0  0  0  0
    1.9807    1.3034    1.2107 H   0  0  0  0  0  0  0  0  0  0  0  0
    2.5223    0.0313   -1.0987 H   0  0  0  0  0  0  0  0  0  0  0  0
  1  2  1  0
  2  3  1  0
  3  4  1  0
  4  5  1  0
  5  6  1  0
  6  7  1  0
  7  8  1  0
  8  9  1  0
  4  1  1  0
  9  5  1  0
  6  2  1  0
  9  7  1  0
  8  3  1  0
  1 10  1  0
  1 11  1  0
  2 12  1  0
  3 13  1  0
  4 14  1  0
  5 15  1  0
  6 16  1  0
  7 17  1  0
  8 18  1  0
  9 19  1  0
M  END
