
     RDKit          3D

 21 23  0  0  0  0  0  0  0  0999 V2000
    1.9381    0.5678   -0.5869 C   0  0  0  0  0  0  0  0  0  0  0  0
    1.5249   -0.8584   -0.3808 C   0  0  0  0  0  0  0  0  0  0  0  0
    0.0645   -0.9702   -0.7948 C   0  0  0  0  0  0  0  0  0  0  0  0
   -0.7732   -0.0798    0.0556 C   0  0  0  0  0  0  0  0  0  0  0  0
   -2.1461    0.3493   -0.3792 C   0  0  0  0  0  0  0  0  0  0  0  0
   -2.0041   -0.7168    0.6361 C   0  0  0  0  0  0  0  0  0  0  0  0
   -0.0087    0.9520    0.8220 C   0  0  0  0  0  0  0  0  0  0  0  0
    1.4548    0.6382    0.8376 C   0  0  0  0  0  0  0  0  0  0  0  0
    1.5957   -0.7353    1.0089 O   0  0  0  0  0  0  0  0  0  0  0  0
    1.3111    1.1048   -1.3108 H   0  0  0  0  0  0  0  0  0  0  0  0
    3.0059    0.7609   -0.7549 H   0  0  0  0  0  0  0  0  0  0  0  0
    2.1689   -1.6119   -0.8358 H   0  0  0  0  0  0  0  0  0  0  0  0
   -0.2008   -2.0537   -0.6108 H   0  0  0  0  0  0  0  0  0  0  0  0
   -0.0560   -0.7779   -1.8705 H   0  0  0  0  0  0  0  0  0  0  0  0
   -2.5364    1.3295   -0.0190 H   0  0  0  0  0  0  0  0  0  0  0  0
   -2.4489    0.1015   -1.3955 H   0  0  0  0  0  0  0  0  0  0  0  0
   -2.1378   -0.5551    1.7081 H   0  0  0  0  0  0  0  0  0  0  0  0
   -2.2822   -1.7339    0.2994 H   0  0  0  0  0  0  0  0  0  0  0  0
   -0.1214    1.9225    0.2547 H   0  0  0  0  0  0  0  0  0  0  0  0
   -0.4310    1.1272    1.8244 H   0  0  0  0  0  0  0  0  0  0  0  0
    2.0826    1.2393    1.4921 H   0  0  0  0  0  0  0  0  0  0  0  0
  1  2  1  0
  2  3  1  0
  3  4  1  0
  4  5  1  0
  5  6  1  0
  4  7  1  0
  7  8  1  0
  8  9  1  0
  8  1  1  0
  9  2  1  0
  6  4  1  0
  1 10  1  0
  1 11  1  0
  2 12  1  0
  3 13  1  0
  3 14  1  0
  5 15  1  0
  5 16  1  0
  6 17  1  0
  6 18  1  0
  7 19  1  0
  7 20  1  0
  8 21  1  0
M  END
