
     RDKit          3D

 19 22  0  0  0  0  0  0  0  0999 V2000
   -2.0575    0.1645   -0.4968 C   0  0  0  0  0  0  0  0  0  0  0  0
   -1.4088   -0.2331    0.7406 C   0  0  0  0  0  0  0  0  0  0  0  0
   -0.9748   -0.8441   -0.6255 C   0  0  0  0  0  0  0  0  0  0  0  0
    0.3774   -0.2947   -0.9124 C   0  0  0  0  0  0  0  0  0  0  0  0
    1.4009   -0.8049    0.0832 C   0  0  0  0  0  0  0  0  0  0  0  0
    1.9323    0.6409    0.0620 C   0  0  0  0  0  0  0  0  0  0  0  0
    0.4586    0.9510   -0.0155 C   0  0  0  0  0  0  0  0  0  0  0  0
   -0.0929    0.3094    1.2134 C   0  0  0  0  0  0  0  0  0  0  0  0
    0.7643   -0.8207    1.2980 O   0  0  0  0  0  0  0  0  0  0  0  0
   -1.8724    1.1759   -0.9603 H   0  0  0  0  0  0  0  0  0  0  0  0
   -3.0701   -0.1931   -0.6830 H   0  0  0  0  0  0  0  0  0  0  0  0
   -1.9305   -0.8903    1.4353 H   0  0  0  0  0  0  0  0  0  0  0  0
   -1.1809   -1.9193   -0.7014 H   0  0  0  0  0  0  0  0  0  0  0  0
    0.6927   -0.1611   -1.9270 H   0  0  0  0  0  0  0  0  0  0  0  0
    2.0700   -1.5703   -0.2084 H   0  0  0  0  0  0  0  0  0  0  0  0
    2.3792    0.9597    1.0067 H   0  0  0  0  0  0  0  0  0  0  0  0
    2.5137    0.7638   -0.8516 H   0  0  0  0  0  0  0  0  0  0  0  0
    0.1105    1.8642   -0.3901 H   0  0  0  0  0  0  0  0  0  0  0  0
   -0.1118    0.9021    2.1090 H   0  0  0  0  0  0  0  0  0  0  0  0
  1  2  1  0
  2  3  1  0
  3  4  1  0
  4  5  1  0
  5  6  1  0
  6  7  1  0
  7  8  1  0
  8  9  1  0
  3  1  1  0
  7  4  1  0
  8  2  1  0
  9  5  1  0
  1 10  1  0
  1 11  1  0
  2 12  1  0
  3 13  1  0
  4 14  1  0
  5 15  1  0
  6 16  1  0
  6 17  1  0
  7 18  1  0
  8 19  1  0
M  END
