
     RDKit          3D

 19 21  0  0  0  0  0  0  0  0999 V2000
   -0.2755    1.4225    0.3153 C   0  0  0  0  0  0  0  0  0  0  0  0
   -1.2910    0.5571   -0.3496 C   0  0  0  0  0  0  0  0  0  0  0  0
   -1.4952   -0.7323    0.3745 C   0  0  0  0  0  0  0  0  0  0  0  0
   -0.4782   -1.1816   -0.6395 C   0  0  0  0  0  0  0  0  0  0  0  0
   -0.7743   -0.0902   -1.4487 O   0  0  0  0  0  0  0  0  0  0  0  0
    0.8928   -1.1036   -0.0289 C   0  0  0  0  0  0  0  0  0  0  0  0
    1.6791    0.0803   -0.5137 C   0  0  0  0  0  0  0  0  0  0  0  0
    1.0056    0.7186    0.6413 C   0  0  0  0  0  0  0  0  0  0  0  0
    0.8277   -0.5144    1.2461 O   0  0  0  0  0  0  0  0  0  0  0  0
   -0.0369    2.3053   -0.2998 H   0  0  0  0  0  0  0  0  0  0  0  0
   -0.7177    1.7560    1.2963 H   0  0  0  0  0  0  0  0  0  0  0  0
   -2.2382    1.1076   -0.4939 H   0  0  0  0  0  0  0  0  0  0  0  0
   -2.4876   -1.2042    0.2422 H   0  0  0  0  0  0  0  0  0  0  0  0
   -1.1232   -0.6707    1.4058 H   0  0  0  0  0  0  0  0  0  0  0  0
   -0.7449   -2.1297   -1.1239 H   0  0  0  0  0  0  0  0  0  0  0  0
    1.4394   -2.0555    0.0555 H   0  0  0  0  0  0  0  0  0  0  0  0
    1.3666    0.3672   -1.5270 H   0  0  0  0  0  0  0  0  0  0  0  0
    2.7696   -0.0475   -0.3482 H   0  0  0  0  0  0  0  0  0  0  0  0
    1.6818    1.4153    1.1960 H   0  0  0  0  0  0  0  0  0  0  0  0
  1  2  1  0
  2  3  1  0
  3  4  1  0
  4  5  1  0
  4  6  1  0
  6  7  1  0
  7  8  1  0
  8  9  1  0
  8  1  1  0
  5  2  1  0
  9  6  1  0
  1 10  1  0
  1 11  1  0
  2 12  1  0
  3 13  1  0
  3 14  1  0
  4 15  1  0
  6 16  1  0
  7 17  1  0
  7 18  1  0
  8 19  1  0
M  END
