
     RDKit          3D

 16 18  0  0  0  0  0  0  0  0999 V2000
   -1.4833    0.7384   -0.3078 C   0  0  0  0  0  0  0  0  0  0  0  0
   -1.2876   -0.5690    0.3998 C   0  0  0  0  0  0  0  0  0  0  0  0
   -0.3273   -0.6809    1.3672 O   0  0  0  0  0  0  0  0  0  0  0  0
    0.8505   -1.1325    0.7303 C   0  0  0  0  0  0  0  0  0  0  0  0
    0.8681   -0.1996   -0.4317 C   0  0  0  0  0  0  0  0  0  0  0  0
    1.4093    1.1820   -0.0550 C   0  0  0  0  0  0  0  0  0  0  0  0
    1.9360    0.3282   -1.0106 O   0  0  0  0  0  0  0  0  0  0  0  0
   -0.5269   -0.2016   -0.9072 C   0  0  0  0  0  0  0  0  0  0  0  0
   -2.4876    0.8697   -0.7790 H   0  0  0  0  0  0  0  0  0  0  0  0
   -1.1496    1.6436    0.2234 H   0  0  0  0  0  0  0  0  0  0  0  0
   -2.0690   -1.3407    0.2824 H   0  0  0  0  0  0  0  0  0  0  0  0
    0.6154   -2.1631    0.3812 H   0  0  0  0  0  0  0  0  0  0  0  0
    1.6973   -1.0646    1.4054 H   0  0  0  0  0  0  0  0  0  0  0  0
    0.8219    2.0634   -0.3683 H   0  0  0  0  0  0  0  0  0  0  0  0
    1.9620    1.3112    0.8717 H   0  0  0  0  0  0  0  0  0  0  0  0
   -0.8293   -0.7843   -1.8018 H   0  0  0  0  0  0  0  0  0  0  0  0
  1  2  1  0
  2  3  1  0
  3  4  1  0
  4  5  1  0
  5  6  1  0
  6  7  1  0
  5  8  1  0
  8  1  1  0
  8  2  1  0
  7  5  1  0
  1  9  1  0
  1 10  1  0
  2 11  1  0
  4 12  1  0
  4 13  1  0
  6 14  1  0
  6 15  1  0
  8 16  1  0
M  END
