
     RDKit          3D

 19 23  0  0  0  0  0  0  0  0999 V2000
    1.4159    1.2427    0.7910 C   0  0  0  0  0  0  0  0  0  0  0  0
    0.4060    1.3820   -0.2507 C   0  0  0  0  0  0  0  0  0  0  0  0
    1.3885    0.3087   -0.3713 C   0  0  0  0  0  0  0  0  0  0  0  0
    0.8553   -1.0777   -0.2546 C   0  0  0  0  0  0  0  0  0  0  0  0
   -0.2256   -1.2919    0.6859 C   0  0  0  0  0  0  0  0  0  0  0  0
   -1.2554   -0.2286    0.7382 C   0  0  0  0  0  0  0  0  0  0  0  0
   -1.0131    0.9645   -0.0304 C   0  0  0  0  0  0  0  0  0  0  0  0
   -1.4103   -0.2182   -0.7727 C   0  0  0  0  0  0  0  0  0  0  0  0
   -0.4373   -1.3235   -0.8574 C   0  0  0  0  0  0  0  0  0  0  0  0
    2.2487    1.9778    0.8636 H   0  0  0  0  0  0  0  0  0  0  0  0
    1.0410    0.8747    1.7893 H   0  0  0  0  0  0  0  0  0  0  0  0
    0.5029    2.2122   -1.0117 H   0  0  0  0  0  0  0  0  0  0  0  0
    2.2635    0.4076   -1.0680 H   0  0  0  0  0  0  0  0  0  0  0  0
    1.6217   -1.8811   -0.3391 H   0  0  0  0  0  0  0  0  0  0  0  0
   -0.3434   -2.2224    1.2308 H   0  0  0  0  0  0  0  0  0  0  0  0
   -2.1972   -0.3535    1.2725 H   0  0  0  0  0  0  0  0  0  0  0  0
   -1.7287    1.7921    0.0403 H   0  0  0  0  0  0  0  0  0  0  0  0
   -2.3894   -0.2610   -1.2338 H   0  0  0  0  0  0  0  0  0  0  0  0
   -0.7431   -2.3045   -1.2219 H   0  0  0  0  0  0  0  0  0  0  0  0
  1  2  1  0
  2  3  1  0
  3  4  1  0
  4  5  1  0
  5  6  1  0
  6  7  1  0
  7  8  1  0
  8  9  1  0
  3  1  1  0
  9  4  1  0
  7  2  1  0
  9  5  1  0
  8  6  1  0
  1 10  1  0
  1 11  1  0
  2 12  1  0
  3 13  1  0
  4 14  1  0
  5 15  1  0
  6 16  1  0
  7 17  1  0
  8 18  1  0
  9 19  1  0
M  END
