
     RDKit          3D

 18 20  0  0  0  0  0  0  0  0999 V2000
   -2.0245   -0.3495   -0.6113 C   0  0  0  0  0  0  0  0  0  0  0  0
   -1.4496    0.5750    0.3742 C   0  0  0  0  0  0  0  0  0  0  0  0
   -0.1729    1.2921   -0.0937 C   0  0  0  0  0  0  0  0  0  0  0  0
    0.4851   -0.0189    0.0125 C   0  0  0  0  0  0  0  0  0  0  0  0
    1.3755   -0.2679    1.1952 C   0  0  0  0  0  0  0  0  0  0  0  0
    2.4632   -0.1799    0.3196 O   0  0  0  0  0  0  0  0  0  0  0  0
    1.6346   -0.3600   -0.8138 C   0  0  0  0  0  0  0  0  0  0  0  0
   -0.7599   -0.7821   -0.0064 C   0  0  0  0  0  0  0  0  0  0  0  0
   -2.9583   -0.8644   -0.3099 H   0  0  0  0  0  0  0  0  0  0  0  0
   -2.0739    0.0069   -1.6725 H   0  0  0  0  0  0  0  0  0  0  0  0
   -1.7505    0.6496    1.4145 H   0  0  0  0  0  0  0  0  0  0  0  0
    0.1851    2.0728    0.5786 H   0  0  0  0  0  0  0  0  0  0  0  0
   -0.2416    1.6295   -1.1548 H   0  0  0  0  0  0  0  0  0  0  0  0
    1.3393    0.4770    1.9945 H   0  0  0  0  0  0  0  0  0  0  0  0
    1.2502   -1.3287    1.5288 H   0  0  0  0  0  0  0  0  0  0  0  0
    1.6645   -1.3872   -1.1819 H   0  0  0  0  0  0  0  0  0  0  0  0
    1.8806    0.4162   -1.5731 H   0  0  0  0  0  0  0  0  0  0  0  0
   -0.8471   -1.5804    0.7890 H   0  0  0  0  0  0  0  0  0  0  0  0
  1  2  1  0
  2  3  1  0
  3  4  1  0
  4  5  1  0
  5  6  1  0
  6  7  1  0
  4  8  1  0
  8  1  1  0
  8  2  1  0
  7  4  1  0
  1  9  1  0
  1 10  1  0
  2 11  1  0
  3 12  1  0
  3 13  1  0
  5 14  1  0
  5 15  1  0
  7 16  1  0
  7 17  1  0
  8 18  1  0
M  END
