
     RDKit          3D

 17 20  0  0  0  0  0  0  0  0999 V2000
   -0.3766   -0.5326    1.1844 C   0  0  0  0  0  0  0  0  0  0  0  0
    1.0258   -0.6161    0.7044 C   0  0  0  0  0  0  0  0  0  0  0  0
    0.9826   -0.8348   -0.8017 C   0  0  0  0  0  0  0  0  0  0  0  0
   -0.2614   -0.8561   -1.3216 O   0  0  0  0  0  0  0  0  0  0  0  0
   -1.1120    0.1433   -1.0164 C   0  0  0  0  0  0  0  0  0  0  0  0
   -1.2384    0.4361    0.4644 C   0  0  0  0  0  0  0  0  0  0  0  0
   -0.5937    1.3722   -0.4491 C   0  0  0  0  0  0  0  0  0  0  0  0
    0.7499    1.5304   -0.3604 O   0  0  0  0  0  0  0  0  0  0  0  0
    1.4867    0.4024   -0.2258 C   0  0  0  0  0  0  0  0  0  0  0  0
   -0.8219   -1.5590    1.0118 H   0  0  0  0  0  0  0  0  0  0  0  0
   -0.4361   -0.4133    2.3042 H   0  0  0  0  0  0  0  0  0  0  0  0
    1.7439   -1.1597    1.3094 H   0  0  0  0  0  0  0  0  0  0  0  0
    1.6665   -1.6271   -1.1353 H   0  0  0  0  0  0  0  0  0  0  0  0
   -2.0229    0.2138   -1.6493 H   0  0  0  0  0  0  0  0  0  0  0  0
   -2.2328    0.6089    0.8988 H   0  0  0  0  0  0  0  0  0  0  0  0
   -1.1576    2.3215   -0.6541 H   0  0  0  0  0  0  0  0  0  0  0  0
    2.5979    0.5700   -0.2638 H   0  0  0  0  0  0  0  0  0  0  0  0
  1  2  1  0
  2  3  1  0
  3  4  1  0
  4  5  1  0
  5  6  1  0
  6  7  1  0
  7  8  1  0
  8  9  1  0
  6  1  1  0
  9  2  1  0
  9  3  1  0
  7  5  1  0
  1 10  1  0
  1 11  1  0
  2 12  1  0
  3 13  1  0
  5 14  1  0
  6 15  1  0
  7 16  1  0
  9 17  1  0
M  END
