
     RDKit          3D

 19 21  0  0  0  0  0  0  0  0999 V2000
    1.4288   -0.4848   -0.1029 C   0  0  0  0  0  0  0  0  0  0  0  0
    0.0787   -1.1320   -0.2135 C   0  0  0  0  0  0  0  0  0  0  0  0
   -0.8035   -0.3659   -1.2141 C   0  0  0  0  0  0  0  0  0  0  0  0
   -0.7874    0.9988   -0.5585 C   0  0  0  0  0  0  0  0  0  0  0  0
    0.4368    1.5740   -0.8865 O   0  0  0  0  0  0  0  0  0  0  0  0
    1.2901    0.9952    0.0215 C   0  0  0  0  0  0  0  0  0  0  0  0
    0.6207    1.2484    1.2425 O   0  0  0  0  0  0  0  0  0  0  0  0
   -0.6530    0.7637    0.9290 C   0  0  0  0  0  0  0  0  0  0  0  0
   -0.6973   -0.7461    1.0497 C   0  0  0  0  0  0  0  0  0  0  0  0
    2.0986   -0.8168   -0.9116 H   0  0  0  0  0  0  0  0  0  0  0  0
    1.8740   -0.8514    0.8687 H   0  0  0  0  0  0  0  0  0  0  0  0
    0.0882   -2.1983   -0.3974 H   0  0  0  0  0  0  0  0  0  0  0  0
   -0.3578   -0.3707   -2.2085 H   0  0  0  0  0  0  0  0  0  0  0  0
   -1.8053   -0.8153   -1.1468 H   0  0  0  0  0  0  0  0  0  0  0  0
   -1.6505    1.6112   -0.7762 H   0  0  0  0  0  0  0  0  0  0  0  0
    2.2561    1.5179   -0.0314 H   0  0  0  0  0  0  0  0  0  0  0  0
   -1.4099    1.2569    1.5300 H   0  0  0  0  0  0  0  0  0  0  0  0
   -0.2610   -1.1371    1.9536 H   0  0  0  0  0  0  0  0  0  0  0  0
   -1.7464   -1.0475    0.8525 H   0  0  0  0  0  0  0  0  0  0  0  0
  1  2  1  0
  2  3  1  0
  3  4  1  0
  4  5  1  0
  5  6  1  0
  6  7  1  0
  7  8  1  0
  8  9  1  0
  6  1  1  0
  9  2  1  0
  8  4  1  0
  1 10  1  0
  1 11  1  0
  2 12  1  0
  3 13  1  0
  3 14  1  0
  4 15  1  0
  6 16  1  0
  8 17  1  0
  9 18  1  0
  9 19  1  0
M  END
