
     RDKit          3D

 20 22  0  0  0  0  0  0  0  0999 V2000
   -1.5815    0.1915    0.1151 C   0  0  0  0  0  0  0  0  0  0  0  0
   -0.3823    0.7088    0.9432 C   0  0  0  0  0  0  0  0  0  0  0  0
    0.1819    1.5649   -0.2138 C   0  0  0  0  0  0  0  0  0  0  0  0
    0.4256    0.3252   -1.1075 C   0  0  0  0  0  0  0  0  0  0  0  0
    1.5615   -0.2115   -0.2043 C   0  0  0  0  0  0  0  0  0  0  0  0
    0.6077   -0.3984    0.9976 C   0  0  0  0  0  0  0  0  0  0  0  0
   -0.1623   -1.5458    0.3041 C   0  0  0  0  0  0  0  0  0  0  0  0
   -0.6717   -0.6272   -0.8298 C   0  0  0  0  0  0  0  0  0  0  0  0
   -2.0714    1.0026   -0.4276 H   0  0  0  0  0  0  0  0  0  0  0  0
   -2.2298   -0.4531    0.7067 H   0  0  0  0  0  0  0  0  0  0  0  0
   -0.6331    1.2396    1.8098 H   0  0  0  0  0  0  0  0  0  0  0  0
   -0.5706    2.2236   -0.6347 H   0  0  0  0  0  0  0  0  0  0  0  0
    1.1206    2.0247    0.0937 H   0  0  0  0  0  0  0  0  0  0  0  0
    0.7118    0.5412   -2.0945 H   0  0  0  0  0  0  0  0  0  0  0  0
    2.3151    0.5409   -0.0124 H   0  0  0  0  0  0  0  0  0  0  0  0
    1.9058   -1.1628   -0.6004 H   0  0  0  0  0  0  0  0  0  0  0  0
    1.0699   -0.6535    1.9012 H   0  0  0  0  0  0  0  0  0  0  0  0
   -0.9760   -1.9118    0.9241 H   0  0  0  0  0  0  0  0  0  0  0  0
    0.5489   -2.2808   -0.0590 H   0  0  0  0  0  0  0  0  0  0  0  0
   -1.1701   -1.1180   -1.6116 H   0  0  0  0  0  0  0  0  0  0  0  0
  1  2  1  0
  2  3  1  0
  3  4  1  0
  4  5  1  0
  5  6  1  0
  6  7  1  0
  7  8  1  0
  8  1  1  0
  6  2  1  0
  8  4  1  0
  1  9  1  0
  1 10  1  0
  2 11  1  0
  3 12  1  0
  3 13  1  0
  4 14  1  0
  5 15  1  0
  5 16  1  0
  6 17  1  0
  7 18  1  0
  7 19  1  0
  8 20  1  0
M  END
