
     RDKit          3D

 21 24  0  0  0  0  0  0  0  0999 V2000
    2.1931    0.3799    0.4995 C   0  0  0  0  0  0  0  0  0  0  0  0
    1.5131   -0.5119   -0.4661 C   0  0  0  0  0  0  0  0  0  0  0  0
    0.4717   -1.4786   -0.0054 C   0  0  0  0  0  0  0  0  0  0  0  0
   -0.7592   -0.6529    0.2458 C   0  0  0  0  0  0  0  0  0  0  0  0
   -1.7079   -0.3396   -0.8691 C   0  0  0  0  0  0  0  0  0  0  0  0
   -1.4862    1.1358   -0.6586 C   0  0  0  0  0  0  0  0  0  0  0  0
   -0.3790    0.7708    0.3186 C   0  0  0  0  0  0  0  0  0  0  0  0
   -0.7902    0.0829    1.5309 C   0  0  0  0  0  0  0  0  0  0  0  0
    1.0007    0.8820   -0.1881 C   0  0  0  0  0  0  0  0  0  0  0  0
    2.1858    0.1512    1.5817 H   0  0  0  0  0  0  0  0  0  0  0  0
    3.1703    0.7972    0.1331 H   0  0  0  0  0  0  0  0  0  0  0  0
    1.9183   -0.6699   -1.4867 H   0  0  0  0  0  0  0  0  0  0  0  0
    0.2844   -2.2993   -0.7085 H   0  0  0  0  0  0  0  0  0  0  0  0
    0.7998   -1.8641    1.0049 H   0  0  0  0  0  0  0  0  0  0  0  0
   -2.7554   -0.6704   -0.6813 H   0  0  0  0  0  0  0  0  0  0  0  0
   -1.3830   -0.7256   -1.8491 H   0  0  0  0  0  0  0  0  0  0  0  0
   -1.1457    1.7173   -1.5117 H   0  0  0  0  0  0  0  0  0  0  0  0
   -2.3148    1.6005   -0.0958 H   0  0  0  0  0  0  0  0  0  0  0  0
   -1.8231    0.3152    1.9045 H   0  0  0  0  0  0  0  0  0  0  0  0
   -0.1239   -0.2618    2.3164 H   0  0  0  0  0  0  0  0  0  0  0  0
    1.1311    1.6412   -1.0150 H   0  0  0  0  0  0  0  0  0  0  0  0
  1  2  1  0
  2  3  1  0
  3  4  1  0
  4  5  1  0
  5  6  1  0
  6  7  1  0
  7  8  1  0
  7  9  1  0
  9  1  1  0
  9  2  1  0
  7  4  1  0
  8  4  1  0
  1 10  1  0
  1 11  1  0
  2 12  1  0
  3 13  1  0
  3 14  1  0
  5 15  1  0
  5 16  1  0
  6 17  1  0
  6 18  1  0
  8 19  1  0
  8 20  1  0
  9 21  1  0
M  END
