
     RDKit          3D

 19 21  0  0  0  0  0  0  0  0999 V2000
   -1.5269   -0.9082   -0.1988 C   0  0  0  0  0  0  0  0  0  0  0  0
   -1.3254    0.0005    1.0274 C   0  0  0  0  0  0  0  0  0  0  0  0
   -1.3137    1.1160   -0.0287 C   0  0  0  0  0  0  0  0  0  0  0  0
   -0.5155    0.0483   -0.7952 C   0  0  0  0  0  0  0  0  0  0  0  0
    0.6338   -0.1055    0.1315 C   0  0  0  0  0  0  0  0  0  0  0  0
    1.7017   -1.0581   -0.1809 C   0  0  0  0  0  0  0  0  0  0  0  0
    2.4134   -0.0055   -0.8027 O   0  0  0  0  0  0  0  0  0  0  0  0
    1.7378    0.8734    0.0752 C   0  0  0  0  0  0  0  0  0  0  0  0
   -0.0246   -0.2466    1.3639 O   0  0  0  0  0  0  0  0  0  0  0  0
   -1.2007   -1.9355   -0.0599 H   0  0  0  0  0  0  0  0  0  0  0  0
   -2.5132   -0.7221   -0.6346 H   0  0  0  0  0  0  0  0  0  0  0  0
   -2.1013    0.0185    1.7477 H   0  0  0  0  0  0  0  0  0  0  0  0
   -2.2999    1.2351   -0.4742 H   0  0  0  0  0  0  0  0  0  0  0  0
   -0.7308    1.9885    0.2352 H   0  0  0  0  0  0  0  0  0  0  0  0
   -0.4172    0.1447   -1.8343 H   0  0  0  0  0  0  0  0  0  0  0  0
    1.4445   -1.8894   -0.8405 H   0  0  0  0  0  0  0  0  0  0  0  0
    2.2859   -1.3820    0.6997 H   0  0  0  0  0  0  0  0  0  0  0  0
    2.2939    1.0341    1.0178 H   0  0  0  0  0  0  0  0  0  0  0  0
    1.4582    1.7937   -0.4487 H   0  0  0  0  0  0  0  0  0  0  0  0
  1  2  1  0
  2  3  1  0
  3  4  1  0
  4  5  1  0
  5  6  1  0
  6  7  1  0
  7  8  1  0
  5  9  1  0
  4  1  1  0
  8  5  1  0
  9  2  1  0
  1 10  1  0
  1 11  1  0
  2 12  1  0
  3 13  1  0
  3 14  1  0
  4 15  1  0
  6 16  1  0
  6 17  1  0
  8 18  1  0
  8 19  1  0
M  END
