
     RDKit          3D

 21 24  0  0  0  0  0  0  0  0999 V2000
   -1.1374    1.2786    0.0773 C   0  0  0  0  0  0  0  0  0  0  0  0
   -1.9082    0.0231    0.2091 C   0  0  0  0  0  0  0  0  0  0  0  0
   -1.0348   -1.1732    0.1660 C   0  0  0  0  0  0  0  0  0  0  0  0
    0.0683   -1.2089   -0.7456 C   0  0  0  0  0  0  0  0  0  0  0  0
    0.7390    0.0804   -1.1059 C   0  0  0  0  0  0  0  0  0  0  0  0
    2.0359    0.1327   -0.2544 C   0  0  0  0  0  0  0  0  0  0  0  0
    0.9741    0.1751    0.8708 C   0  0  0  0  0  0  0  0  0  0  0  0
    0.2952    1.1185   -0.1227 C   0  0  0  0  0  0  0  0  0  0  0  0
    0.2483   -1.1204    0.8171 C   0  0  0  0  0  0  0  0  0  0  0  0
   -1.5620    1.8933   -0.7275 H   0  0  0  0  0  0  0  0  0  0  0  0
   -1.2976    1.8773    1.0225 H   0  0  0  0  0  0  0  0  0  0  0  0
   -2.5034   -0.0232    1.1617 H   0  0  0  0  0  0  0  0  0  0  0  0
   -2.6904   -0.0693   -0.6005 H   0  0  0  0  0  0  0  0  0  0  0  0
   -1.6008   -2.1339    0.2892 H   0  0  0  0  0  0  0  0  0  0  0  0
    0.4422   -2.1325   -1.1751 H   0  0  0  0  0  0  0  0  0  0  0  0
    0.8611    0.3460   -2.1385 H   0  0  0  0  0  0  0  0  0  0  0  0
    2.5879   -0.8044   -0.2379 H   0  0  0  0  0  0  0  0  0  0  0  0
    2.5873    1.0713   -0.3592 H   0  0  0  0  0  0  0  0  0  0  0  0
    1.2963    0.5899    1.8007 H   0  0  0  0  0  0  0  0  0  0  0  0
    0.8503    2.0443   -0.2362 H   0  0  0  0  0  0  0  0  0  0  0  0
    0.7488   -1.9645    1.2892 H   0  0  0  0  0  0  0  0  0  0  0  0
  1  2  1  0
  2  3  1  0
  3  4  1  0
  4  5  1  0
  5  6  1  0
  6  7  1  0
  7  8  1  0
  7  9  1  0
  8  1  1  0
  9  3  1  0
  9  4  1  0
  8  5  1  0
  1 10  1  0
  1 11  1  0
  2 12  1  0
  2 13  1  0
  3 14  1  0
  4 15  1  0
  5 16  1  0
  6 17  1  0
  6 18  1  0
  7 19  1  0
  8 20  1  0
  9 21  1  0
M  END
