
     RDKit          3D

 19 21  0  0  0  0  0  0  0  0999 V2000
    2.3129   -1.3979   -0.6114 C   0  0  0  0  0  0  0  0  0  0  0  0
    2.6156   -0.0444   -0.1156 C   0  0  0  0  0  0  0  0  0  0  0  0
    1.2561   -0.6502    0.1129 C   0  0  0  0  0  0  0  0  0  0  0  0
    0.2279   -0.0200   -0.5811 O   0  0  0  0  0  0  0  0  0  0  0  0
   -0.8710    0.0309    0.2149 C   0  0  0  0  0  0  0  0  0  0  0  0
   -1.4631    1.4620    0.1781 C   0  0  0  0  0  0  0  0  0  0  0  0
   -2.6628    0.6827    0.6884 C   0  0  0  0  0  0  0  0  0  0  0  0
   -3.3995   -0.1776    0.0178 O   0  0  0  0  0  0  0  0  0  0  0  0
   -2.1917   -0.2104   -0.5059 C   0  0  0  0  0  0  0  0  0  0  0  0
    2.2725   -1.5246   -1.7133 H   0  0  0  0  0  0  0  0  0  0  0  0
    2.8115   -2.2313   -0.0781 H   0  0  0  0  0  0  0  0  0  0  0  0
    2.7093    0.7804   -0.8799 H   0  0  0  0  0  0  0  0  0  0  0  0
    3.2193    0.1443    0.7865 H   0  0  0  0  0  0  0  0  0  0  0  0
    1.0331   -0.9906    1.1409 H   0  0  0  0  0  0  0  0  0  0  0  0
   -0.8332   -0.3872    1.2160 H   0  0  0  0  0  0  0  0  0  0  0  0
   -1.5297    1.8079   -0.8568 H   0  0  0  0  0  0  0  0  0  0  0  0
   -0.9832    2.0747    0.9200 H   0  0  0  0  0  0  0  0  0  0  0  0
   -2.3857    0.2842    1.7181 H   0  0  0  0  0  0  0  0  0  0  0  0
   -2.1385    0.3669   -1.4851 H   0  0  0  0  0  0  0  0  0  0  0  0
  1  2  1  0
  2  3  1  0
  3  4  1  0
  4  5  1  0
  5  6  1  0
  6  7  1  0
  7  8  1  0
  8  9  1  0
  3  1  1  0
  9  5  1  0
  9  7  1  0
  1 10  1  0
  1 11  1  0
  2 12  1  0
  2 13  1  0
  3 14  1  0
  5 15  1  0
  6 16  1  0
  6 17  1  0
  7 18  1  0
  9 19  1  0
M  END
