
     RDKit          3D

 21 23  0  0  0  0  0  0  0  0999 V2000
   -2.3186    0.8416   -0.1418 C   0  0  0  0  0  0  0  0  0  0  0  0
   -1.3850    0.5660   -1.3116 C   0  0  0  0  0  0  0  0  0  0  0  0
   -0.6942   -0.4577   -0.5005 C   0  0  0  0  0  0  0  0  0  0  0  0
    0.7805   -0.4399   -0.4058 C   0  0  0  0  0  0  0  0  0  0  0  0
    1.3830   -1.5462    0.4599 C   0  0  0  0  0  0  0  0  0  0  0  0
    1.5689   -0.1068    0.7563 C   0  0  0  0  0  0  0  0  0  0  0  0
    2.4767    0.6398   -0.1933 C   0  0  0  0  0  0  0  0  0  0  0  0
    1.5885    0.2813   -1.2285 O   0  0  0  0  0  0  0  0  0  0  0  0
   -1.3552    0.0617    0.7272 C   0  0  0  0  0  0  0  0  0  0  0  0
   -3.2812    0.3058   -0.2011 H   0  0  0  0  0  0  0  0  0  0  0  0
   -2.4258    1.9036    0.1192 H   0  0  0  0  0  0  0  0  0  0  0  0
   -0.8141    1.4333   -1.6635 H   0  0  0  0  0  0  0  0  0  0  0  0
   -1.9947    0.1665   -2.1607 H   0  0  0  0  0  0  0  0  0  0  0  0
   -1.0519   -1.4898   -0.7881 H   0  0  0  0  0  0  0  0  0  0  0  0
    0.7030   -2.0917    1.1129 H   0  0  0  0  0  0  0  0  0  0  0  0
    2.1931   -2.0859   -0.0808 H   0  0  0  0  0  0  0  0  0  0  0  0
    1.2359    0.3535    1.6792 H   0  0  0  0  0  0  0  0  0  0  0  0
    3.4131    0.0517   -0.3327 H   0  0  0  0  0  0  0  0  0  0  0  0
    2.5774    1.7095   -0.0428 H   0  0  0  0  0  0  0  0  0  0  0  0
   -1.8388   -0.7669    1.3096 H   0  0  0  0  0  0  0  0  0  0  0  0
   -0.7608    0.6705    1.4124 H   0  0  0  0  0  0  0  0  0  0  0  0
  1  2  1  0
  2  3  1  0
  3  4  1  0
  4  5  1  0
  5  6  1  0
  6  7  1  0
  7  8  1  0
  3  9  1  0
  9  1  1  0
  6  4  1  0
  8  4  1  0
  1 10  1  0
  1 11  1  0
  2 12  1  0
  2 13  1  0
  3 14  1  0
  5 15  1  0
  5 16  1  0
  6 17  1  0
  7 18  1  0
  7 19  1  0
  9 20  1  0
  9 21  1  0
M  END
