
     RDKit          3D

 19 22  0  0  0  0  0  0  0  0999 V2000
    1.7336   -0.8659   -0.4546 C   0  0  0  0  0  0  0  0  0  0  0  0
    1.8915    0.6392   -0.5475 C   0  0  0  0  0  0  0  0  0  0  0  0
    0.6408    0.0471   -0.1411 C   0  0  0  0  0  0  0  0  0  0  0  0
    0.1176    0.1262    1.2997 C   0  0  0  0  0  0  0  0  0  0  0  0
   -1.3643    0.0935    1.0100 C   0  0  0  0  0  0  0  0  0  0  0  0
   -1.6060    0.9396   -0.1774 C   0  0  0  0  0  0  0  0  0  0  0  0
   -2.5748    0.0375   -0.5704 O   0  0  0  0  0  0  0  0  0  0  0  0
   -1.5649   -0.8183   -0.1585 C   0  0  0  0  0  0  0  0  0  0  0  0
   -0.6265    0.0589   -0.9095 C   0  0  0  0  0  0  0  0  0  0  0  0
    1.6331   -1.4555   -1.3962 H   0  0  0  0  0  0  0  0  0  0  0  0
    2.2298   -1.3597    0.4226 H   0  0  0  0  0  0  0  0  0  0  0  0
    2.5964    1.0885    0.1533 H   0  0  0  0  0  0  0  0  0  0  0  0
    1.9694    0.9989   -1.6100 H   0  0  0  0  0  0  0  0  0  0  0  0
    0.4411    1.0328    1.8065 H   0  0  0  0  0  0  0  0  0  0  0  0
    0.4063   -0.8162    1.8077 H   0  0  0  0  0  0  0  0  0  0  0  0
   -2.0515    0.0702    1.8295 H   0  0  0  0  0  0  0  0  0  0  0  0
   -1.6505    1.9462   -0.2394 H   0  0  0  0  0  0  0  0  0  0  0  0
   -1.5953   -1.8267   -0.1459 H   0  0  0  0  0  0  0  0  0  0  0  0
   -0.6256    0.0638   -1.9787 H   0  0  0  0  0  0  0  0  0  0  0  0
  1  2  1  0
  2  3  1  0
  3  4  1  0
  4  5  1  0
  5  6  1  0
  6  7  1  0
  7  8  1  0
  8  9  1  0
  3  1  1  0
  8  5  1  0
  9  3  1  0
  9  6  1  0
  1 10  1  0
  1 11  1  0
  2 12  1  0
  2 13  1  0
  4 14  1  0
  4 15  1  0
  5 16  1  0
  6 17  1  0
  8 18  1  0
  9 19  1  0
M  END
