
     RDKit          3D

 19 21  0  0  0  0  0  0  0  0999 V2000
   -2.1569    0.5786   -0.0289 C   0  0  0  0  0  0  0  0  0  0  0  0
   -1.6333   -0.5992   -0.8069 C   0  0  0  0  0  0  0  0  0  0  0  0
   -0.8823   -0.7945    0.4806 C   0  0  0  0  0  0  0  0  0  0  0  0
    0.4204   -0.0492    0.5557 C   0  0  0  0  0  0  0  0  0  0  0  0
    0.9663    0.6065   -0.6762 C   0  0  0  0  0  0  0  0  0  0  0  0
    2.3613    0.4056   -0.0955 C   0  0  0  0  0  0  0  0  0  0  0  0
    1.6583   -0.4962    0.9319 C   0  0  0  0  0  0  0  0  0  0  0  0
    0.9338    0.2491    1.8290 O   0  0  0  0  0  0  0  0  0  0  0  0
   -1.8933   -0.0987    1.1338 O   0  0  0  0  0  0  0  0  0  0  0  0
   -3.2512    0.7727   -0.2265 H   0  0  0  0  0  0  0  0  0  0  0  0
   -1.5927    1.5196   -0.1911 H   0  0  0  0  0  0  0  0  0  0  0  0
   -1.0985   -0.2574   -1.6866 H   0  0  0  0  0  0  0  0  0  0  0  0
   -2.4496   -1.3370   -0.9841 H   0  0  0  0  0  0  0  0  0  0  0  0
   -0.7909   -1.8628    0.7826 H   0  0  0  0  0  0  0  0  0  0  0  0
    0.6902    1.6484   -0.8565 H   0  0  0  0  0  0  0  0  0  0  0  0
    0.8599   -0.0728   -1.5737 H   0  0  0  0  0  0  0  0  0  0  0  0
    3.0699   -0.1145   -0.7450 H   0  0  0  0  0  0  0  0  0  0  0  0
    2.6961    1.3645    0.3506 H   0  0  0  0  0  0  0  0  0  0  0  0
    2.0924   -1.4627    1.1751 H   0  0  0  0  0  0  0  0  0  0  0  0
  1  2  1  0
  2  3  1  0
  3  4  1  0
  4  5  1  0
  5  6  1  0
  6  7  1  0
  7  8  1  0
  3  9  1  0
  9  1  1  0
  7  4  1  0
  8  4  1  0
  1 10  1  0
  1 11  1  0
  2 12  1  0
  2 13  1  0
  3 14  1  0
  5 15  1  0
  5 16  1  0
  6 17  1  0
  6 18  1  0
  7 19  1  0
M  END
