
     RDKit          3D

 21 22  0  0  0  0  0  0  0  0999 V2000
   -2.8602    0.3686    0.7411 C   0  0  0  0  0  0  0  0  0  0  0  0
   -2.3931   -0.1249   -0.6070 C   0  0  0  0  0  0  0  0  0  0  0  0
   -1.0567    0.0923    0.1176 C   0  0  0  0  0  0  0  0  0  0  0  0
   -0.0676   -0.9123   -0.3695 C   0  0  0  0  0  0  0  0  0  0  0  0
    1.2879   -0.8251    0.2489 C   0  0  0  0  0  0  0  0  0  0  0  0
    1.9017    0.5283   -0.0282 C   0  0  0  0  0  0  0  0  0  0  0  0
    3.2397    0.7504    0.5249 C   0  0  0  0  0  0  0  0  0  0  0  0
    3.0537    0.5540   -0.8500 O   0  0  0  0  0  0  0  0  0  0  0  0
   -1.7346   -0.2486    1.2921 O   0  0  0  0  0  0  0  0  0  0  0  0
   -2.7927    1.4866    0.8439 H   0  0  0  0  0  0  0  0  0  0  0  0
   -3.8225   -0.0709    1.0295 H   0  0  0  0  0  0  0  0  0  0  0  0
   -2.5581    0.5599   -1.4566 H   0  0  0  0  0  0  0  0  0  0  0  0
   -2.5903   -1.1821   -0.7548 H   0  0  0  0  0  0  0  0  0  0  0  0
   -0.7497    1.1360    0.1703 H   0  0  0  0  0  0  0  0  0  0  0  0
   -0.5305   -1.9159   -0.2719 H   0  0  0  0  0  0  0  0  0  0  0  0
    0.0774   -0.7106   -1.4723 H   0  0  0  0  0  0  0  0  0  0  0  0
    1.2599   -1.0024    1.3576 H   0  0  0  0  0  0  0  0  0  0  0  0
    1.9244   -1.6056   -0.2096 H   0  0  0  0  0  0  0  0  0  0  0  0
    1.2279    1.3935   -0.2056 H   0  0  0  0  0  0  0  0  0  0  0  0
    3.4496    1.8049    0.8655 H   0  0  0  0  0  0  0  0  0  0  0  0
    3.7337   -0.0760    1.0776 H   0  0  0  0  0  0  0  0  0  0  0  0
  1  2  1  0
  2  3  1  0
  3  4  1  0
  4  5  1  0
  5  6  1  0
  6  7  1  0
  7  8  1  0
  3  9  1  0
  9  1  1  0
  8  6  1  0
  1 10  1  0
  1 11  1  0
  2 12  1  0
  2 13  1  0
  3 14  1  0
  4 15  1  0
  4 16  1  0
  5 17  1  0
  5 18  1  0
  6 19  1  0
  7 20  1  0
  7 21  1  0
M  END
