
     RDKit          3D

 20 20  0  0  0  0  0  0  0  0999 V2000
   -1.6016   -0.2359   -0.0887 C   0  0  0  0  0  0  0  0  0  0  0  0
   -0.8340   -1.4918    0.0379 C   0  0  0  0  0  0  0  0  0  0  0  0
    0.6443   -1.3550    0.0859 C   0  0  0  0  0  0  0  0  0  0  0  0
    1.1624   -0.3977   -0.7540 O   0  0  0  0  0  0  0  0  0  0  0  0
    2.0147    0.4713   -0.0742 C   0  0  0  0  0  0  0  0  0  0  0  0
    1.2869    1.6370    0.1821 O   0  0  0  0  0  0  0  0  0  0  0  0
    0.0459    1.6219   -0.4732 C   0  0  0  0  0  0  0  0  0  0  0  0
   -0.9439    0.9851    0.4633 C   0  0  0  0  0  0  0  0  0  0  0  0
   -1.8856   -0.0435   -1.1527 H   0  0  0  0  0  0  0  0  0  0  0  0
   -2.5690   -0.3662    0.4818 H   0  0  0  0  0  0  0  0  0  0  0  0
   -1.1663   -2.0937    0.9159 H   0  0  0  0  0  0  0  0  0  0  0  0
   -1.0808   -2.1370   -0.8557 H   0  0  0  0  0  0  0  0  0  0  0  0
    0.9721   -1.2501    1.1453 H   0  0  0  0  0  0  0  0  0  0  0  0
    1.0830   -2.3388   -0.2549 H   0  0  0  0  0  0  0  0  0  0  0  0
    2.8732    0.6687   -0.7483 H   0  0  0  0  0  0  0  0  0  0  0  0
    2.3873    0.0212    0.8842 H   0  0  0  0  0  0  0  0  0  0  0  0
    0.0845    1.0798   -1.4350 H   0  0  0  0  0  0  0  0  0  0  0  0
   -0.1866    2.6798   -0.7039 H   0  0  0  0  0  0  0  0  0  0  0  0
   -0.5258    0.7939    1.4720 H   0  0  0  0  0  0  0  0  0  0  0  0
   -1.7608    1.7510    0.6197 H   0  0  0  0  0  0  0  0  0  0  0  0
  1  2  1  0
  2  3  1  0
  3  4  1  0
  4  5  1  0
  5  6  1  0
  6  7  1  0
  7  8  1  0
  8  1  1  0
  1  9  1  0
  1 10  1  0
  2 11  1  0
  2 12  1  0
  3 13  1  0
  3 14  1  0
  5 15  1  0
  5 16  1  0
  7 17  1  0
  7 18  1  0
  8 19  1  0
  8 20  1  0
M  END
