
     RDKit          3D

 21 22  0  0  0  0  0  0  0  0999 V2000
    1.8267   -0.1772   -0.4412 C   0  0  0  0  0  0  0  0  0  0  0  0
    1.2665    0.4797    0.7754 C   0  0  0  0  0  0  0  0  0  0  0  0
   -0.1589    0.8573    0.7008 C   0  0  0  0  0  0  0  0  0  0  0  0
   -1.0703   -0.3016    1.0870 C   0  0  0  0  0  0  0  0  0  0  0  0
   -1.1236   -1.2420   -0.0627 C   0  0  0  0  0  0  0  0  0  0  0  0
   -0.2431   -0.8655   -1.2188 C   0  0  0  0  0  0  0  0  0  0  0  0
    1.0594   -1.2055   -0.9398 O   0  0  0  0  0  0  0  0  0  0  0  0
   -0.3912    0.4305   -1.6451 O   0  0  0  0  0  0  0  0  0  0  0  0
   -0.6265    1.3441   -0.6372 C   0  0  0  0  0  0  0  0  0  0  0  0
    2.1117    0.5528   -1.2369 H   0  0  0  0  0  0  0  0  0  0  0  0
    2.8092   -0.6450   -0.1333 H   0  0  0  0  0  0  0  0  0  0  0  0
    1.9000    1.3373    1.0392 H   0  0  0  0  0  0  0  0  0  0  0  0
    1.3837   -0.2552    1.6258 H   0  0  0  0  0  0  0  0  0  0  0  0
   -0.3559    1.6611    1.4426 H   0  0  0  0  0  0  0  0  0  0  0  0
   -0.7881   -0.7367    2.0452 H   0  0  0  0  0  0  0  0  0  0  0  0
   -2.0898    0.1617    1.2111 H   0  0  0  0  0  0  0  0  0  0  0  0
   -0.7506   -2.2411    0.3055 H   0  0  0  0  0  0  0  0  0  0  0  0
   -2.1636   -1.4236   -0.4025 H   0  0  0  0  0  0  0  0  0  0  0  0
   -0.5651   -1.5238   -2.0800 H   0  0  0  0  0  0  0  0  0  0  0  0
   -1.7522    1.4302   -0.5607 H   0  0  0  0  0  0  0  0  0  0  0  0
   -0.2785    2.3624   -0.8746 H   0  0  0  0  0  0  0  0  0  0  0  0
  1  2  1  0
  2  3  1  0
  3  4  1  0
  4  5  1  0
  5  6  1  0
  6  7  1  0
  6  8  1  0
  8  9  1  0
  7  1  1  0
  9  3  1  0
  1 10  1  0
  1 11  1  0
  2 12  1  0
  2 13  1  0
  3 14  1  0
  4 15  1  0
  4 16  1  0
  5 17  1  0
  5 18  1  0
  6 19  1  0
  9 20  1  0
  9 21  1  0
M  END
