
     RDKit          3D

 17 19  0  0  0  0  0  0  0  0999 V2000
    1.7971   -0.1531    0.0941 C   0  0  0  0  0  0  0  0  0  0  0  0
    0.8696    1.0608    0.1764 C   0  0  0  0  0  0  0  0  0  0  0  0
   -0.2696    0.7732   -0.7703 C   0  0  0  0  0  0  0  0  0  0  0  0
   -0.0932   -0.5328   -1.2754 O   0  0  0  0  0  0  0  0  0  0  0  0
   -0.1743   -1.2892   -0.1013 C   0  0  0  0  0  0  0  0  0  0  0  0
    1.0024   -1.2108    0.5999 O   0  0  0  0  0  0  0  0  0  0  0  0
   -1.3755   -0.7857    0.6108 C   0  0  0  0  0  0  0  0  0  0  0  0
   -1.3788    0.3552    1.3578 O   0  0  0  0  0  0  0  0  0  0  0  0
   -1.5426    0.6131    0.0096 C   0  0  0  0  0  0  0  0  0  0  0  0
    2.0824   -0.3704   -0.9570 H   0  0  0  0  0  0  0  0  0  0  0  0
    2.7011   -0.0213    0.7091 H   0  0  0  0  0  0  0  0  0  0  0  0
    1.3779    1.9987    0.0046 H   0  0  0  0  0  0  0  0  0  0  0  0
    0.5046    1.0615    1.2455 H   0  0  0  0  0  0  0  0  0  0  0  0
   -0.3405    1.4684   -1.6076 H   0  0  0  0  0  0  0  0  0  0  0  0
   -0.3517   -2.3456   -0.3862 H   0  0  0  0  0  0  0  0  0  0  0  0
   -2.2895   -1.4138    0.7237 H   0  0  0  0  0  0  0  0  0  0  0  0
   -2.5194    0.7920   -0.4336 H   0  0  0  0  0  0  0  0  0  0  0  0
  1  2  1  0
  2  3  1  0
  3  4  1  0
  4  5  1  0
  5  6  1  0
  5  7  1  0
  7  8  1  0
  8  9  1  0
  6  1  1  0
  9  7  1  0
  9  3  1  0
  1 10  1  0
  1 11  1  0
  2 12  1  0
  2 13  1  0
  3 14  1  0
  5 15  1  0
  7 16  1  0
  9 17  1  0
M  END
