
     RDKit          3D

 21 22  0  0  0  0  0  0  0  0999 V2000
    1.4010    0.6721   -0.7600 C   0  0  0  0  0  0  0  0  0  0  0  0
    1.7081   -0.5747    0.0182 C   0  0  0  0  0  0  0  0  0  0  0  0
    0.5760   -1.5419    0.1025 C   0  0  0  0  0  0  0  0  0  0  0  0
   -0.2811   -1.3374    1.1466 O   0  0  0  0  0  0  0  0  0  0  0  0
   -1.5036   -0.8275    0.8395 C   0  0  0  0  0  0  0  0  0  0  0  0
   -1.8583   -0.1359   -0.3893 C   0  0  0  0  0  0  0  0  0  0  0  0
   -1.4881    0.7075    0.7517 C   0  0  0  0  0  0  0  0  0  0  0  0
   -0.1973    1.1012    0.9997 O   0  0  0  0  0  0  0  0  0  0  0  0
    0.4770    1.6139   -0.0755 C   0  0  0  0  0  0  0  0  0  0  0  0
    2.3870    1.2092   -0.8893 H   0  0  0  0  0  0  0  0  0  0  0  0
    1.0963    0.4115   -1.8045 H   0  0  0  0  0  0  0  0  0  0  0  0
    2.1075   -0.3289    1.0006 H   0  0  0  0  0  0  0  0  0  0  0  0
    2.5461   -1.0923   -0.5371 H   0  0  0  0  0  0  0  0  0  0  0  0
    1.0352   -2.5644    0.2608 H   0  0  0  0  0  0  0  0  0  0  0  0
    0.0682   -1.6330   -0.8883 H   0  0  0  0  0  0  0  0  0  0  0  0
   -2.3497   -1.2448    1.4501 H   0  0  0  0  0  0  0  0  0  0  0  0
   -2.9341   -0.1328   -0.6955 H   0  0  0  0  0  0  0  0  0  0  0  0
   -1.1941   -0.0805   -1.2837 H   0  0  0  0  0  0  0  0  0  0  0  0
   -2.3131    1.2474    1.2768 H   0  0  0  0  0  0  0  0  0  0  0  0
   -0.2807    1.9819   -0.8093 H   0  0  0  0  0  0  0  0  0  0  0  0
    0.9978    2.5495    0.2861 H   0  0  0  0  0  0  0  0  0  0  0  0
  1  2  1  0
  2  3  1  0
  3  4  1  0
  4  5  1  0
  5  6  1  0
  6  7  1  0
  7  8  1  0
  8  9  1  0
  9  1  1  0
  7  5  1  0
  1 10  1  0
  1 11  1  0
  2 12  1  0
  2 13  1  0
  3 14  1  0
  3 15  1  0
  5 16  1  0
  6 17  1  0
  6 18  1  0
  7 19  1  0
  9 20  1  0
  9 21  1  0
M  END
