
     RDKit          3D

 15 16  0  0  0  0  0  0  0  0999 V2000
   -2.0293   -0.6609    0.0942 C   0  0  0  0  0  0  0  0  0  0  0  0
   -1.9684    0.7168    0.1351 C   0  0  0  0  0  0  0  0  0  0  0  0
   -0.7558    1.3728    0.0033 C   0  0  0  0  0  0  0  0  0  0  0  0
    0.4308    0.6878   -0.1726 C   0  0  0  0  0  0  0  0  0  0  0  0
    0.3724   -0.6871   -0.2136 C   0  0  0  0  0  0  0  0  0  0  0  0
   -0.8398   -1.3381   -0.0817 C   0  0  0  0  0  0  0  0  0  0  0  0
    1.6952   -1.1017   -0.3973 O   0  0  0  0  0  0  0  0  0  0  0  0
    2.5643   -0.0411    0.0011 C   0  0  0  0  0  0  0  0  0  0  0  0
    1.7726    1.0871   -0.3299 O   0  0  0  0  0  0  0  0  0  0  0  0
   -2.9779   -1.1723    0.1974 H   0  0  0  0  0  0  0  0  0  0  0  0
   -2.8913    1.2632    0.2723 H   0  0  0  0  0  0  0  0  0  0  0  0
   -0.6921    2.4605    0.0335 H   0  0  0  0  0  0  0  0  0  0  0  0
   -0.8613   -2.4216   -0.1172 H   0  0  0  0  0  0  0  0  0  0  0  0
    2.6530   -0.0984    1.1037 H   0  0  0  0  0  0  0  0  0  0  0  0
    3.5275   -0.0672   -0.5284 H   0  0  0  0  0  0  0  0  0  0  0  0
  1  2  2  0
  2  3  1  0
  3  4  2  0
  4  5  1  0
  5  6  2  0
  5  7  1  0
  7  8  1  0
  8  9  1  0
  6  1  1  0
  9  4  1  0
  1 10  1  0
  2 11  1  0
  3 12  1  0
  6 13  1  0
  8 14  1  0
  8 15  1  0
M  END
