
     RDKit          3D

 19 21  0  0  0  0  0  0  0  0999 V2000
    2.2610   -0.0375   -0.6705 C   0  0  0  0  0  0  0  0  0  0  0  0
    2.1137    0.7052    0.6013 C   0  0  0  0  0  0  0  0  0  0  0  0
    0.9668   -0.0556    0.0132 C   0  0  0  0  0  0  0  0  0  0  0  0
   -0.2191    0.6581   -0.5623 C   0  0  0  0  0  0  0  0  0  0  0  0
   -1.3768   -0.1505   -0.0447 C   0  0  0  0  0  0  0  0  0  0  0  0
   -0.7539   -1.4528    0.3128 C   0  0  0  0  0  0  0  0  0  0  0  0
    0.5112   -1.1145    0.7617 O   0  0  0  0  0  0  0  0  0  0  0  0
   -2.5409    0.3984    0.4547 C   0  0  0  0  0  0  0  0  0  0  0  0
   -2.5401   -0.2063   -0.8607 O   0  0  0  0  0  0  0  0  0  0  0  0
    2.3537    0.5246   -1.6403 H   0  0  0  0  0  0  0  0  0  0  0  0
    2.8983   -0.9403   -0.6626 H   0  0  0  0  0  0  0  0  0  0  0  0
    2.6299    0.2841    1.5056 H   0  0  0  0  0  0  0  0  0  0  0  0
    1.9872    1.7885    0.6562 H   0  0  0  0  0  0  0  0  0  0  0  0
   -0.2218    1.7080   -0.2184 H   0  0  0  0  0  0  0  0  0  0  0  0
   -0.2005    0.6190   -1.6853 H   0  0  0  0  0  0  0  0  0  0  0  0
   -0.6143   -2.0671   -0.6225 H   0  0  0  0  0  0  0  0  0  0  0  0
   -1.2868   -2.0446    1.0611 H   0  0  0  0  0  0  0  0  0  0  0  0
   -3.2283   -0.1150    1.1709 H   0  0  0  0  0  0  0  0  0  0  0  0
   -2.7393    1.4984    0.4297 H   0  0  0  0  0  0  0  0  0  0  0  0
  1  2  1  0
  2  3  1  0
  3  4  1  0
  4  5  1  0
  5  6  1  0
  6  7  1  0
  5  8  1  0
  8  9  1  0
  3  1  1  0
  9  5  1  0
  7  3  1  0
  1 10  1  0
  1 11  1  0
  2 12  1  0
  2 13  1  0
  4 14  1  0
  4 15  1  0
  6 16  1  0
  6 17  1  0
  8 18  1  0
  8 19  1  0
M  END
