
     RDKit          3D

 18 19  0  0  0  0  0  0  0  0999 V2000
    0.5700   -0.3680    1.1587 C   0  0  0  0  0  0  0  0  0  0  0  0
    1.4612    0.0998   -0.0004 C   0  0  0  0  0  0  0  0  0  0  0  0
    0.6202    0.3076   -1.2501 C   0  0  0  0  0  0  0  0  0  0  0  0
   -0.3146    1.2971   -1.1180 O   0  0  0  0  0  0  0  0  0  0  0  0
   -0.9103    1.2483    0.1398 C   0  0  0  0  0  0  0  0  0  0  0  0
   -0.8535   -0.1962    0.6078 C   0  0  0  0  0  0  0  0  0  0  0  0
   -0.9444   -1.1633   -0.5634 C   0  0  0  0  0  0  0  0  0  0  0  0
    0.0125   -0.9206   -1.5271 O   0  0  0  0  0  0  0  0  0  0  0  0
    0.7515   -1.4088    1.4274 H   0  0  0  0  0  0  0  0  0  0  0  0
    0.6311    0.3413    2.0162 H   0  0  0  0  0  0  0  0  0  0  0  0
    1.8823    1.0767    0.2755 H   0  0  0  0  0  0  0  0  0  0  0  0
    2.2122   -0.6671   -0.2516 H   0  0  0  0  0  0  0  0  0  0  0  0
    1.3358    0.5311   -2.0685 H   0  0  0  0  0  0  0  0  0  0  0  0
   -1.9066    1.6813    0.1812 H   0  0  0  0  0  0  0  0  0  0  0  0
   -0.2565    1.8872    0.8032 H   0  0  0  0  0  0  0  0  0  0  0  0
   -1.6163   -0.4505    1.3374 H   0  0  0  0  0  0  0  0  0  0  0  0
   -0.7340   -2.1754   -0.1286 H   0  0  0  0  0  0  0  0  0  0  0  0
   -1.9407   -1.1206   -1.0395 H   0  0  0  0  0  0  0  0  0  0  0  0
  1  2  1  0
  2  3  1  0
  3  4  1  0
  4  5  1  0
  5  6  1  0
  6  7  1  0
  7  8  1  0
  6  1  1  0
  8  3  1  0
  1  9  1  0
  1 10  1  0
  2 11  1  0
  2 12  1  0
  3 13  1  0
  5 14  1  0
  5 15  1  0
  6 16  1  0
  7 17  1  0
  7 18  1  0
M  END
