
     RDKit          3D

 23 25  0  0  0  0  0  0  0  0999 V2000
   -2.1139    1.1812   -0.1011 C   0  0  0  0  0  0  0  0  0  0  0  0
   -1.7102    0.0090    0.7866 C   0  0  0  0  0  0  0  0  0  0  0  0
   -0.9978   -0.6314   -0.3448 C   0  0  0  0  0  0  0  0  0  0  0  0
    0.4672   -0.6335   -0.4088 C   0  0  0  0  0  0  0  0  0  0  0  0
    1.1778   -1.3202    0.7777 C   0  0  0  0  0  0  0  0  0  0  0  0
    2.3442   -0.5682    0.1430 C   0  0  0  0  0  0  0  0  0  0  0  0
    2.5954    0.8303    0.1354 C   0  0  0  0  0  0  0  0  0  0  0  0
    1.2054    0.5428    0.1948 C   0  0  0  0  0  0  0  0  0  0  0  0
   -1.7242    0.2996   -1.2834 C   0  0  0  0  0  0  0  0  0  0  0  0
   -3.2005    1.4295   -0.0619 H   0  0  0  0  0  0  0  0  0  0  0  0
   -1.4718    2.0737    0.0019 H   0  0  0  0  0  0  0  0  0  0  0  0
   -2.6458   -0.5210    1.1163 H   0  0  0  0  0  0  0  0  0  0  0  0
   -1.1697    0.3284    1.6714 H   0  0  0  0  0  0  0  0  0  0  0  0
   -1.3996   -1.6749   -0.5036 H   0  0  0  0  0  0  0  0  0  0  0  0
    0.8565   -1.0040   -1.3534 H   0  0  0  0  0  0  0  0  0  0  0  0
    0.8837   -0.9277    1.7508 H   0  0  0  0  0  0  0  0  0  0  0  0
    1.2738   -2.3981    0.6916 H   0  0  0  0  0  0  0  0  0  0  0  0
    2.4709   -1.0306   -0.8903 H   0  0  0  0  0  0  0  0  0  0  0  0
    3.1698    1.2438    1.0193 H   0  0  0  0  0  0  0  0  0  0  0  0
    2.9434    1.3868   -0.7881 H   0  0  0  0  0  0  0  0  0  0  0  0
    0.7758    0.6883    1.2390 H   0  0  0  0  0  0  0  0  0  0  0  0
   -2.6258   -0.1217   -1.7609 H   0  0  0  0  0  0  0  0  0  0  0  0
   -1.1046    0.8182   -2.0315 H   0  0  0  0  0  0  0  0  0  0  0  0
  1  2  1  0
  2  3  1  0
  3  4  1  0
  4  5  1  0
  5  6  1  0
  6  7  1  0
  7  8  1  0
  3  9  1  0
  9  1  1  0
  8  4  1  0
  8  6  1  0
  1 10  1  0
  1 11  1  0
  2 12  1  0
  2 13  1  0
  3 14  1  0
  4 15  1  0
  5 16  1  0
  5 17  1  0
  6 18  1  0
  7 19  1  0
  7 20  1  0
  8 21  1  0
  9 22  1  0
  9 23  1  0
M  END
