
     RDKit          3D

 19 21  0  0  0  0  0  0  0  0999 V2000
    1.8942   -0.1379   -0.4686 C   0  0  0  0  0  0  0  0  0  0  0  0
    0.8625   -1.2246   -0.1724 C   0  0  0  0  0  0  0  0  0  0  0  0
   -0.4759   -0.6664   -0.4940 C   0  0  0  0  0  0  0  0  0  0  0  0
   -0.4477    0.8367   -0.3134 C   0  0  0  0  0  0  0  0  0  0  0  0
    0.5653    1.2624    0.7329 C   0  0  0  0  0  0  0  0  0  0  0  0
    1.8477    0.8879    0.4376 O   0  0  0  0  0  0  0  0  0  0  0  0
   -1.7944    0.6816    0.3930 C   0  0  0  0  0  0  0  0  0  0  0  0
   -1.7220    0.0038    1.5758 O   0  0  0  0  0  0  0  0  0  0  0  0
   -1.5655   -0.8306    0.5006 C   0  0  0  0  0  0  0  0  0  0  0  0
    2.8641   -0.6254   -0.5663 H   0  0  0  0  0  0  0  0  0  0  0  0
    1.5982    0.2893   -1.4663 H   0  0  0  0  0  0  0  0  0  0  0  0
    0.9628   -1.6387    0.8344 H   0  0  0  0  0  0  0  0  0  0  0  0
    1.0796   -2.0381   -0.9223 H   0  0  0  0  0  0  0  0  0  0  0  0
   -0.8655   -0.8952   -1.5278 H   0  0  0  0  0  0  0  0  0  0  0  0
   -0.4765    1.4386   -1.2196 H   0  0  0  0  0  0  0  0  0  0  0  0
    0.2959    0.8219    1.7157 H   0  0  0  0  0  0  0  0  0  0  0  0
    0.4967    2.3641    0.8052 H   0  0  0  0  0  0  0  0  0  0  0  0
   -2.7079    0.9744   -0.0938 H   0  0  0  0  0  0  0  0  0  0  0  0
   -2.4116   -1.5037    0.2491 H   0  0  0  0  0  0  0  0  0  0  0  0
  1  2  1  0
  2  3  1  0
  3  4  1  0
  4  5  1  0
  5  6  1  0
  4  7  1  0
  7  8  1  0
  8  9  1  0
  6  1  1  0
  9  7  1  0
  9  3  1  0
  1 10  1  0
  1 11  1  0
  2 12  1  0
  2 13  1  0
  3 14  1  0
  4 15  1  0
  5 16  1  0
  5 17  1  0
  7 18  1  0
  9 19  1  0
M  END
