
     RDKit          3D

 21 23  0  0  0  0  0  0  0  0999 V2000
    2.3604    0.0870    0.5478 C   0  0  0  0  0  0  0  0  0  0  0  0
    1.0869   -0.7486    0.7437 C   0  0  0  0  0  0  0  0  0  0  0  0
    0.4313    0.1218   -0.2535 C   0  0  0  0  0  0  0  0  0  0  0  0
    1.7328    0.5807   -0.7609 C   0  0  0  0  0  0  0  0  0  0  0  0
   -0.7038   -0.2239   -1.0795 C   0  0  0  0  0  0  0  0  0  0  0  0
   -1.8446   -1.0530   -0.6285 C   0  0  0  0  0  0  0  0  0  0  0  0
   -2.0034   -0.8715    0.7439 O   0  0  0  0  0  0  0  0  0  0  0  0
   -1.7708    0.4705    0.9813 C   0  0  0  0  0  0  0  0  0  0  0  0
   -0.7471    0.9332   -0.0332 C   0  0  0  0  0  0  0  0  0  0  0  0
    3.2586   -0.4943    0.3211 H   0  0  0  0  0  0  0  0  0  0  0  0
    2.4873    0.8828    1.2943 H   0  0  0  0  0  0  0  0  0  0  0  0
    1.3119   -1.7926    0.4647 H   0  0  0  0  0  0  0  0  0  0  0  0
    0.7436   -0.6062    1.7907 H   0  0  0  0  0  0  0  0  0  0  0  0
    2.1282    0.0552   -1.6637 H   0  0  0  0  0  0  0  0  0  0  0  0
    1.8090    1.6975   -0.8338 H   0  0  0  0  0  0  0  0  0  0  0  0
   -0.7603    0.1056   -2.1487 H   0  0  0  0  0  0  0  0  0  0  0  0
   -2.7758   -0.6463   -1.1216 H   0  0  0  0  0  0  0  0  0  0  0  0
   -1.7704   -2.1266   -0.8411 H   0  0  0  0  0  0  0  0  0  0  0  0
   -2.6751    1.1012    0.8841 H   0  0  0  0  0  0  0  0  0  0  0  0
   -1.4039    0.5795    2.0263 H   0  0  0  0  0  0  0  0  0  0  0  0
   -0.8949    1.9481   -0.4336 H   0  0  0  0  0  0  0  0  0  0  0  0
  1  2  1  0
  2  3  1  0
  3  4  1  0
  3  5  1  0
  5  6  1  0
  6  7  1  0
  7  8  1  0
  8  9  1  0
  4  1  1  0
  9  5  1  0
  9  3  1  0
  1 10  1  0
  1 11  1  0
  2 12  1  0
  2 13  1  0
  4 14  1  0
  4 15  1  0
  5 16  1  0
  6 17  1  0
  6 18  1  0
  8 19  1  0
  8 20  1  0
  9 21  1  0
M  END
