
     RDKit          3D

 19 21  0  0  0  0  0  0  0  0999 V2000
   -1.0186    0.7090    0.8528 C   0  0  0  0  0  0  0  0  0  0  0  0
   -0.1648    1.5348   -0.0910 C   0  0  0  0  0  0  0  0  0  0  0  0
    1.2262    1.0493   -0.0326 C   0  0  0  0  0  0  0  0  0  0  0  0
    1.6993    0.4351   -1.3241 O   0  0  0  0  0  0  0  0  0  0  0  0
    1.5964   -0.2587   -0.0838 C   0  0  0  0  0  0  0  0  0  0  0  0
    0.6760   -1.4117   -0.0184 C   0  0  0  0  0  0  0  0  0  0  0  0
   -0.6726   -1.2573   -0.5742 C   0  0  0  0  0  0  0  0  0  0  0  0
   -1.7022   -1.6682    0.4210 O   0  0  0  0  0  0  0  0  0  0  0  0
   -1.6161   -0.3808   -0.0012 C   0  0  0  0  0  0  0  0  0  0  0  0
   -0.4579    0.3330    1.7112 H   0  0  0  0  0  0  0  0  0  0  0  0
   -1.8168    1.3805    1.2330 H   0  0  0  0  0  0  0  0  0  0  0  0
   -0.5686    1.4759   -1.1431 H   0  0  0  0  0  0  0  0  0  0  0  0
   -0.2651    2.6291    0.1649 H   0  0  0  0  0  0  0  0  0  0  0  0
    1.9598    1.8363    0.3136 H   0  0  0  0  0  0  0  0  0  0  0  0
    2.6385   -0.5468    0.2598 H   0  0  0  0  0  0  0  0  0  0  0  0
    0.7117   -1.7943    1.0468 H   0  0  0  0  0  0  0  0  0  0  0  0
    1.1858   -2.2540   -0.5836 H   0  0  0  0  0  0  0  0  0  0  0  0
   -0.9480   -1.7956   -1.5220 H   0  0  0  0  0  0  0  0  0  0  0  0
   -2.4629   -0.0157   -0.6288 H   0  0  0  0  0  0  0  0  0  0  0  0
  1  2  1  0
  2  3  1  0
  3  4  1  0
  4  5  1  0
  5  6  1  0
  6  7  1  0
  7  8  1  0
  8  9  1  0
  9  1  1  0
  5  3  1  0
  9  7  1  0
  1 10  1  0
  1 11  1  0
  2 12  1  0
  2 13  1  0
  3 14  1  0
  5 15  1  0
  6 16  1  0
  6 17  1  0
  7 18  1  0
  9 19  1  0
M  END
