
     RDKit          3D

 20 22  0  0  0  0  0  0  0  0999 V2000
    1.4524   -0.6339   -0.0607 C   0  0  0  0  0  0  0  0  0  0  0  0
    1.2305    0.5681   -0.8959 C   0  0  0  0  0  0  0  0  0  0  0  0
   -0.1672    1.0672   -0.9504 C   0  0  0  0  0  0  0  0  0  0  0  0
   -1.2429    0.1182   -0.7579 C   0  0  0  0  0  0  0  0  0  0  0  0
   -0.9253   -1.1961   -0.1560 C   0  0  0  0  0  0  0  0  0  0  0  0
    0.2413   -0.9294    0.7649 C   0  0  0  0  0  0  0  0  0  0  0  0
   -0.2637    0.3397    1.4502 C   0  0  0  0  0  0  0  0  0  0  0  0
   -0.8579    1.1392    0.3325 C   0  0  0  0  0  0  0  0  0  0  0  0
    2.3258   -0.4552    0.6222 H   0  0  0  0  0  0  0  0  0  0  0  0
    1.7001   -1.4854   -0.7034 H   0  0  0  0  0  0  0  0  0  0  0  0
    1.5660    0.3875   -1.9558 H   0  0  0  0  0  0  0  0  0  0  0  0
    1.8828    1.4195   -0.5501 H   0  0  0  0  0  0  0  0  0  0  0  0
   -0.3357    1.8920   -1.6709 H   0  0  0  0  0  0  0  0  0  0  0  0
   -2.2133    0.2961   -1.2687 H   0  0  0  0  0  0  0  0  0  0  0  0
   -1.7949   -1.4911    0.4982 H   0  0  0  0  0  0  0  0  0  0  0  0
   -0.7701   -2.0218   -0.8462 H   0  0  0  0  0  0  0  0  0  0  0  0
    0.4393   -1.7393    1.4748 H   0  0  0  0  0  0  0  0  0  0  0  0
    0.5101    0.8477    2.0242 H   0  0  0  0  0  0  0  0  0  0  0  0
   -1.1270   -0.0086    2.0889 H   0  0  0  0  0  0  0  0  0  0  0  0
   -1.6501    1.8856    0.5600 H   0  0  0  0  0  0  0  0  0  0  0  0
  1  2  1  0
  2  3  1  0
  3  4  1  0
  4  5  1  0
  5  6  1  0
  6  7  1  0
  7  8  1  0
  6  1  1  0
  8  3  1  0
  8  4  1  0
  1  9  1  0
  1 10  1  0
  2 11  1  0
  2 12  1  0
  3 13  1  0
  4 14  1  0
  5 15  1  0
  5 16  1  0
  6 17  1  0
  7 18  1  0
  7 19  1  0
  8 20  1  0
M  END
