
     RDKit          3D

 19 20  0  0  0  0  0  0  0  0999 V2000
   -1.1646    0.6193   -0.9341 C   0  0  0  0  0  0  0  0  0  0  0  0
   -1.2102   -0.6928   -0.2583 C   0  0  0  0  0  0  0  0  0  0  0  0
   -0.0911   -0.9806    0.6826 C   0  0  0  0  0  0  0  0  0  0  0  0
    0.1469    0.0679    1.7102 C   0  0  0  0  0  0  0  0  0  0  0  0
    1.0885    0.9756    1.2219 O   0  0  0  0  0  0  0  0  0  0  0  0
    0.9769    1.0736   -0.1655 C   0  0  0  0  0  0  0  0  0  0  0  0
    1.4100   -0.1943   -0.8162 C   0  0  0  0  0  0  0  0  0  0  0  0
    1.0367   -1.3064   -0.0608 O   0  0  0  0  0  0  0  0  0  0  0  0
   -0.2612    1.5181   -0.4776 O   0  0  0  0  0  0  0  0  0  0  0  0
   -1.0352    0.5148   -2.0514 H   0  0  0  0  0  0  0  0  0  0  0  0
   -2.1916    1.0824   -0.8347 H   0  0  0  0  0  0  0  0  0  0  0  0
   -2.1716   -0.8615    0.3079 H   0  0  0  0  0  0  0  0  0  0  0  0
   -1.2081   -1.4929   -1.0385 H   0  0  0  0  0  0  0  0  0  0  0  0
   -0.3725   -1.9276    1.2323 H   0  0  0  0  0  0  0  0  0  0  0  0
    0.5368   -0.3513    2.6836 H   0  0  0  0  0  0  0  0  0  0  0  0
   -0.8241    0.5476    1.9498 H   0  0  0  0  0  0  0  0  0  0  0  0
    1.7191    1.8706   -0.4663 H   0  0  0  0  0  0  0  0  0  0  0  0
    2.5381   -0.2013   -0.8153 H   0  0  0  0  0  0  0  0  0  0  0  0
    1.0775   -0.2609   -1.8697 H   0  0  0  0  0  0  0  0  0  0  0  0
  1  2  1  0
  2  3  1  0
  3  4  1  0
  4  5  1  0
  5  6  1  0
  6  7  1  0
  7  8  1  0
  6  9  1  0
  9  1  1  0
  8  3  1  0
  1 10  1  0
  1 11  1  0
  2 12  1  0
  2 13  1  0
  3 14  1  0
  4 15  1  0
  4 16  1  0
  6 17  1  0
  7 18  1  0
  7 19  1  0
M  END
