
     RDKit          3D

 19 21  0  0  0  0  0  0  0  0999 V2000
    1.9893   -0.3427   -0.1496 C   0  0  0  0  0  0  0  0  0  0  0  0
    1.3204    0.9665    0.2674 C   0  0  0  0  0  0  0  0  0  0  0  0
   -0.0643    0.6512    0.6723 C   0  0  0  0  0  0  0  0  0  0  0  0
   -0.8653    0.3864   -0.6136 C   0  0  0  0  0  0  0  0  0  0  0  0
   -2.1852    0.0431    0.0226 C   0  0  0  0  0  0  0  0  0  0  0  0
   -1.7282   -0.8575    1.0189 O   0  0  0  0  0  0  0  0  0  0  0  0
   -0.3461   -0.8226    0.8752 C   0  0  0  0  0  0  0  0  0  0  0  0
   -0.1823   -0.9526   -0.6309 C   0  0  0  0  0  0  0  0  0  0  0  0
    1.1090   -0.9428   -1.0550 O   0  0  0  0  0  0  0  0  0  0  0  0
    2.9380   -0.0728   -0.6188 H   0  0  0  0  0  0  0  0  0  0  0  0
    2.1098   -0.9554    0.7399 H   0  0  0  0  0  0  0  0  0  0  0  0
    1.2989    1.5853   -0.6773 H   0  0  0  0  0  0  0  0  0  0  0  0
    1.9199    1.5360    0.9824 H   0  0  0  0  0  0  0  0  0  0  0  0
   -0.5529    1.3029    1.3916 H   0  0  0  0  0  0  0  0  0  0  0  0
   -0.7870    1.0619   -1.4071 H   0  0  0  0  0  0  0  0  0  0  0  0
   -2.5628    0.9549    0.5147 H   0  0  0  0  0  0  0  0  0  0  0  0
   -2.9155   -0.3969   -0.6395 H   0  0  0  0  0  0  0  0  0  0  0  0
    0.2724   -1.3913    1.5118 H   0  0  0  0  0  0  0  0  0  0  0  0
   -0.7683   -1.7536   -1.0992 H   0  0  0  0  0  0  0  0  0  0  0  0
  1  2  1  0
  2  3  1  0
  3  4  1  0
  4  5  1  0
  5  6  1  0
  6  7  1  0
  7  8  1  0
  8  9  1  0
  9  1  1  0
  7  3  1  0
  8  4  1  0
  1 10  1  0
  1 11  1  0
  2 12  1  0
  2 13  1  0
  3 14  1  0
  4 15  1  0
  5 16  1  0
  5 17  1  0
  7 18  1  0
  8 19  1  0
M  END
