
     RDKit          3D

 21 23  0  0  0  0  0  0  0  0999 V2000
   -1.9145   -0.3354    0.5679 C   0  0  0  0  0  0  0  0  0  0  0  0
   -1.4500    1.0930    0.3042 C   0  0  0  0  0  0  0  0  0  0  0  0
   -0.8909    0.6149   -1.0049 C   0  0  0  0  0  0  0  0  0  0  0  0
    0.3688    1.1034   -1.2399 O   0  0  0  0  0  0  0  0  0  0  0  0
    1.2440    0.9839   -0.1925 C   0  0  0  0  0  0  0  0  0  0  0  0
    2.4389    0.0804   -0.4918 C   0  0  0  0  0  0  0  0  0  0  0  0
    1.3391   -0.3294    0.4378 C   0  0  0  0  0  0  0  0  0  0  0  0
    0.3465   -1.3383   -0.0208 C   0  0  0  0  0  0  0  0  0  0  0  0
   -0.9460   -0.7809   -0.5040 C   0  0  0  0  0  0  0  0  0  0  0  0
   -1.6333   -0.6741    1.5838 H   0  0  0  0  0  0  0  0  0  0  0  0
   -2.9776   -0.4507    0.3268 H   0  0  0  0  0  0  0  0  0  0  0  0
   -0.6678    1.4190    1.0059 H   0  0  0  0  0  0  0  0  0  0  0  0
   -2.2911    1.7964    0.1383 H   0  0  0  0  0  0  0  0  0  0  0  0
   -1.5358    0.7671   -1.8915 H   0  0  0  0  0  0  0  0  0  0  0  0
    1.4865    1.9351    0.3308 H   0  0  0  0  0  0  0  0  0  0  0  0
    2.5280   -0.3671   -1.4962 H   0  0  0  0  0  0  0  0  0  0  0  0
    3.4252    0.4071   -0.0856 H   0  0  0  0  0  0  0  0  0  0  0  0
    1.6340   -0.4104    1.4968 H   0  0  0  0  0  0  0  0  0  0  0  0
    0.8156   -1.9337   -0.8412 H   0  0  0  0  0  0  0  0  0  0  0  0
    0.1052   -2.0828    0.7924 H   0  0  0  0  0  0  0  0  0  0  0  0
   -1.4247   -1.4978   -1.2270 H   0  0  0  0  0  0  0  0  0  0  0  0
  1  2  1  0
  2  3  1  0
  3  4  1  0
  4  5  1  0
  5  6  1  0
  6  7  1  0
  7  8  1  0
  8  9  1  0
  9  1  1  0
  9  3  1  0
  7  5  1  0
  1 10  1  0
  1 11  1  0
  2 12  1  0
  2 13  1  0
  3 14  1  0
  5 15  1  0
  6 16  1  0
  6 17  1  0
  7 18  1  0
  8 19  1  0
  8 20  1  0
  9 21  1  0
M  END
