
     RDKit          3D

 25 26  0  0  0  0  0  0  0  0999 V2000
   -3.1258   -0.0597   -0.3093 C   0  0  0  0  0  0  0  0  0  0  0  0
   -2.3435    0.9477   -1.1530 C   0  0  0  0  0  0  0  0  0  0  0  0
   -1.0902    0.1592   -0.7806 C   0  0  0  0  0  0  0  0  0  0  0  0
   -0.3434    0.7656    0.3840 C   0  0  0  0  0  0  0  0  0  0  0  0
    0.8638   -0.0059    0.7329 C   0  0  0  0  0  0  0  0  0  0  0  0
    1.8915   -0.1380   -0.3329 C   0  0  0  0  0  0  0  0  0  0  0  0
    3.1186   -0.9599    0.1207 C   0  0  0  0  0  0  0  0  0  0  0  0
    3.2391    0.4693   -0.2118 C   0  0  0  0  0  0  0  0  0  0  0  0
   -1.9633   -1.0326   -0.3888 C   0  0  0  0  0  0  0  0  0  0  0  0
   -4.0487   -0.4311   -0.7662 H   0  0  0  0  0  0  0  0  0  0  0  0
   -3.2291    0.3341    0.7424 H   0  0  0  0  0  0  0  0  0  0  0  0
   -2.5914    0.9105   -2.2325 H   0  0  0  0  0  0  0  0  0  0  0  0
   -2.3062    1.9686   -0.7246 H   0  0  0  0  0  0  0  0  0  0  0  0
   -0.4689   -0.1308   -1.6383 H   0  0  0  0  0  0  0  0  0  0  0  0
   -0.1923    1.8247    0.1616 H   0  0  0  0  0  0  0  0  0  0  0  0
   -1.0471    0.7201    1.2586 H   0  0  0  0  0  0  0  0  0  0  0  0
    0.5319   -1.0530    0.9993 H   0  0  0  0  0  0  0  0  0  0  0  0
    1.3285    0.3739    1.6757 H   0  0  0  0  0  0  0  0  0  0  0  0
    1.5345   -0.3249   -1.3547 H   0  0  0  0  0  0  0  0  0  0  0  0
    3.4413   -1.7555   -0.5833 H   0  0  0  0  0  0  0  0  0  0  0  0
    3.2105   -1.2367    1.1685 H   0  0  0  0  0  0  0  0  0  0  0  0
    3.7831    0.7094   -1.1459 H   0  0  0  0  0  0  0  0  0  0  0  0
    3.4731    1.1794    0.6309 H   0  0  0  0  0  0  0  0  0  0  0  0
   -2.0537   -1.7967   -1.1774 H   0  0  0  0  0  0  0  0  0  0  0  0
   -1.6123   -1.4377    0.5670 H   0  0  0  0  0  0  0  0  0  0  0  0
  1  2  1  0
  2  3  1  0
  3  4  1  0
  4  5  1  0
  5  6  1  0
  6  7  1  0
  7  8  1  0
  3  9  1  0
  9  1  1  0
  8  6  1  0
  1 10  1  0
  1 11  1  0
  2 12  1  0
  2 13  1  0
  3 14  1  0
  4 15  1  0
  4 16  1  0
  5 17  1  0
  5 18  1  0
  6 19  1  0
  7 20  1  0
  7 21  1  0
  8 22  1  0
  8 23  1  0
  9 24  1  0
  9 25  1  0
M  END
