
     RDKit          3D

 21 23  0  0  0  0  0  0  0  0999 V2000
   -1.6703    0.7900    0.7107 C   0  0  0  0  0  0  0  0  0  0  0  0
   -1.8806   -0.6985    0.4200 C   0  0  0  0  0  0  0  0  0  0  0  0
   -0.9423   -0.5029   -0.7871 C   0  0  0  0  0  0  0  0  0  0  0  0
    0.4467   -0.7605   -0.3881 C   0  0  0  0  0  0  0  0  0  0  0  0
    1.4514   -0.6551   -1.3863 O   0  0  0  0  0  0  0  0  0  0  0  0
    2.2842   -0.6866   -0.2456 C   0  0  0  0  0  0  0  0  0  0  0  0
    2.5792    0.3726    0.6690 C   0  0  0  0  0  0  0  0  0  0  0  0
    1.2143    0.4156    0.1492 C   0  0  0  0  0  0  0  0  0  0  0  0
   -1.3524    0.9336   -0.7851 C   0  0  0  0  0  0  0  0  0  0  0  0
   -2.6194    1.2706    1.0081 H   0  0  0  0  0  0  0  0  0  0  0  0
   -0.8187    0.9737    1.3868 H   0  0  0  0  0  0  0  0  0  0  0  0
   -1.4238   -1.3411    1.1997 H   0  0  0  0  0  0  0  0  0  0  0  0
   -2.9147   -0.9085    0.1465 H   0  0  0  0  0  0  0  0  0  0  0  0
   -1.3086   -1.0535   -1.6902 H   0  0  0  0  0  0  0  0  0  0  0  0
    0.5444   -1.6972    0.2138 H   0  0  0  0  0  0  0  0  0  0  0  0
    2.1581   -1.6796    0.2320 H   0  0  0  0  0  0  0  0  0  0  0  0
    3.3877    1.0869    0.3970 H   0  0  0  0  0  0  0  0  0  0  0  0
    2.6318    0.1626    1.7787 H   0  0  0  0  0  0  0  0  0  0  0  0
    1.1672    1.2413   -0.6358 H   0  0  0  0  0  0  0  0  0  0  0  0
   -2.3186    1.0373   -1.3562 H   0  0  0  0  0  0  0  0  0  0  0  0
   -0.6158    1.6991   -1.0372 H   0  0  0  0  0  0  0  0  0  0  0  0
  1  2  1  0
  2  3  1  0
  3  4  1  0
  4  5  1  0
  5  6  1  0
  6  7  1  0
  7  8  1  0
  3  9  1  0
  9  1  1  0
  8  4  1  0
  8  6  1  0
  1 10  1  0
  1 11  1  0
  2 12  1  0
  2 13  1  0
  3 14  1  0
  4 15  1  0
  6 16  1  0
  7 17  1  0
  7 18  1  0
  8 19  1  0
  9 20  1  0
  9 21  1  0
M  END
