
     RDKit          3D

 21 23  0  0  0  0  0  0  0  0999 V2000
   -1.2745    1.1650   -0.3242 C   0  0  0  0  0  0  0  0  0  0  0  0
   -0.0684    1.6210    0.4475 C   0  0  0  0  0  0  0  0  0  0  0  0
    1.0521    0.6882    0.1714 C   0  0  0  0  0  0  0  0  0  0  0  0
    1.0822   -0.6019    0.9397 C   0  0  0  0  0  0  0  0  0  0  0  0
    1.3469   -1.2893   -0.4085 C   0  0  0  0  0  0  0  0  0  0  0  0
    0.5445   -0.1473   -1.0120 C   0  0  0  0  0  0  0  0  0  0  0  0
   -0.9116   -0.2514   -0.7016 C   0  0  0  0  0  0  0  0  0  0  0  0
   -1.1321   -1.1099    0.5245 C   0  0  0  0  0  0  0  0  0  0  0  0
   -0.1335   -0.9665    1.4703 O   0  0  0  0  0  0  0  0  0  0  0  0
   -2.1644    1.1440    0.3228 H   0  0  0  0  0  0  0  0  0  0  0  0
   -1.4795    1.7496   -1.2283 H   0  0  0  0  0  0  0  0  0  0  0  0
    0.2183    2.6253    0.0160 H   0  0  0  0  0  0  0  0  0  0  0  0
   -0.2681    1.8123    1.5136 H   0  0  0  0  0  0  0  0  0  0  0  0
    2.0503    1.1103    0.0358 H   0  0  0  0  0  0  0  0  0  0  0  0
    1.8903   -0.7420    1.6575 H   0  0  0  0  0  0  0  0  0  0  0  0
    2.4169   -1.1667   -0.6840 H   0  0  0  0  0  0  0  0  0  0  0  0
    0.9151   -2.2826   -0.5106 H   0  0  0  0  0  0  0  0  0  0  0  0
    0.8480    0.1969   -1.9900 H   0  0  0  0  0  0  0  0  0  0  0  0
   -1.5107   -0.6580   -1.5234 H   0  0  0  0  0  0  0  0  0  0  0  0
   -2.0768   -0.7276    1.0111 H   0  0  0  0  0  0  0  0  0  0  0  0
   -1.3451   -2.1695    0.2724 H   0  0  0  0  0  0  0  0  0  0  0  0
  1  2  1  0
  2  3  1  0
  3  4  1  0
  4  5  1  0
  5  6  1  0
  6  7  1  0
  7  8  1  0
  8  9  1  0
  7  1  1  0
  6  3  1  0
  9  4  1  0
  1 10  1  0
  1 11  1  0
  2 12  1  0
  2 13  1  0
  3 14  1  0
  4 15  1  0
  5 16  1  0
  5 17  1  0
  6 18  1  0
  7 19  1  0
  8 20  1  0
  8 21  1  0
M  END
