
     RDKit          3D

 16 18  0  0  0  0  0  0  0  0999 V2000
   -1.4587   -0.6198   -0.1062 C   0  0  0  0  0  0  0  0  0  0  0  0
   -1.1558    0.8231   -0.3922 C   0  0  0  0  0  0  0  0  0  0  0  0
    0.3360    1.0926   -0.3525 C   0  0  0  0  0  0  0  0  0  0  0  0
    0.9610    0.2680   -1.2796 O   0  0  0  0  0  0  0  0  0  0  0  0
    1.3906   -0.6481   -0.3625 C   0  0  0  0  0  0  0  0  0  0  0  0
    0.6238   -1.0655    0.8152 C   0  0  0  0  0  0  0  0  0  0  0  0
   -0.7255   -1.1904    0.8718 O   0  0  0  0  0  0  0  0  0  0  0  0
    1.0294    0.3486    0.7352 C   0  0  0  0  0  0  0  0  0  0  0  0
   -2.5397   -0.6510    0.2101 H   0  0  0  0  0  0  0  0  0  0  0  0
   -1.4090   -1.2355   -1.0420 H   0  0  0  0  0  0  0  0  0  0  0  0
   -1.4629    1.0148   -1.4553 H   0  0  0  0  0  0  0  0  0  0  0  0
   -1.6503    1.5348    0.2690 H   0  0  0  0  0  0  0  0  0  0  0  0
    0.6001    2.1480   -0.3640 H   0  0  0  0  0  0  0  0  0  0  0  0
    2.4526   -0.9232   -0.4377 H   0  0  0  0  0  0  0  0  0  0  0  0
    1.1785   -1.6858    1.5556 H   0  0  0  0  0  0  0  0  0  0  0  0
    1.8300    0.7894    1.3349 H   0  0  0  0  0  0  0  0  0  0  0  0
  1  2  1  0
  2  3  1  0
  3  4  1  0
  4  5  1  0
  5  6  1  0
  6  7  1  0
  6  8  1  0
  7  1  1  0
  8  3  1  0
  8  5  1  0
  1  9  1  0
  1 10  1  0
  2 11  1  0
  2 12  1  0
  3 13  1  0
  5 14  1  0
  6 15  1  0
  8 16  1  0
M  END
