
     RDKit          3D

 19 21  0  0  0  0  0  0  0  0999 V2000
    2.4523    0.6699   -0.1382 C   0  0  0  0  0  0  0  0  0  0  0  0
    1.8040   -0.6775    0.1087 C   0  0  0  0  0  0  0  0  0  0  0  0
    0.5924    0.1295   -0.0863 C   0  0  0  0  0  0  0  0  0  0  0  0
   -0.4171    0.1787    1.0243 C   0  0  0  0  0  0  0  0  0  0  0  0
   -1.4827    0.1404   -0.0144 C   0  0  0  0  0  0  0  0  0  0  0  0
   -2.8286   -0.0064    0.0596 C   0  0  0  0  0  0  0  0  0  0  0  0
   -2.2770    1.2123   -0.3009 O   0  0  0  0  0  0  0  0  0  0  0  0
   -0.4755   -0.3864   -0.9976 C   0  0  0  0  0  0  0  0  0  0  0  0
    1.2357    1.2721   -0.4193 O   0  0  0  0  0  0  0  0  0  0  0  0
    3.1071    0.7152   -1.0368 H   0  0  0  0  0  0  0  0  0  0  0  0
    2.8810    1.1037    0.7883 H   0  0  0  0  0  0  0  0  0  0  0  0
    2.0972   -1.3919   -0.6931 H   0  0  0  0  0  0  0  0  0  0  0  0
    1.9667   -1.0963    1.1056 H   0  0  0  0  0  0  0  0  0  0  0  0
   -0.3778    1.0520    1.6897 H   0  0  0  0  0  0  0  0  0  0  0  0
   -0.4455   -0.7767    1.6262 H   0  0  0  0  0  0  0  0  0  0  0  0
   -3.4278   -0.5543   -0.7244 H   0  0  0  0  0  0  0  0  0  0  0  0
   -3.3712   -0.0853    1.0481 H   0  0  0  0  0  0  0  0  0  0  0  0
   -0.5033    0.0152   -2.0098 H   0  0  0  0  0  0  0  0  0  0  0  0
   -0.5299   -1.5143   -1.0298 H   0  0  0  0  0  0  0  0  0  0  0  0
  1  2  1  0
  2  3  1  0
  3  4  1  0
  4  5  1  0
  5  6  1  0
  6  7  1  0
  5  8  1  0
  3  9  1  0
  9  1  1  0
  8  3  1  0
  7  5  1  0
  1 10  1  0
  1 11  1  0
  2 12  1  0
  2 13  1  0
  4 14  1  0
  4 15  1  0
  6 16  1  0
  6 17  1  0
  8 18  1  0
  8 19  1  0
M  END
