
     RDKit          3D

 23 25  0  0  0  0  0  0  0  0999 V2000
   -0.9193   -1.3181    0.8363 C   0  0  0  0  0  0  0  0  0  0  0  0
    0.4904   -1.1855    0.4667 C   0  0  0  0  0  0  0  0  0  0  0  0
    0.9076    0.0869   -0.1819 C   0  0  0  0  0  0  0  0  0  0  0  0
    1.9128    0.9884    0.4200 C   0  0  0  0  0  0  0  0  0  0  0  0
    2.3653    0.0692   -0.6706 C   0  0  0  0  0  0  0  0  0  0  0  0
   -0.0601    0.5265   -1.2159 C   0  0  0  0  0  0  0  0  0  0  0  0
   -1.4707    0.5585   -0.7534 C   0  0  0  0  0  0  0  0  0  0  0  0
   -1.8628    1.0165    0.6027 C   0  0  0  0  0  0  0  0  0  0  0  0
   -1.9068   -0.4609    0.1647 C   0  0  0  0  0  0  0  0  0  0  0  0
   -1.2323   -2.3933    0.6757 H   0  0  0  0  0  0  0  0  0  0  0  0
   -1.0377   -1.1812    1.9524 H   0  0  0  0  0  0  0  0  0  0  0  0
    1.1393   -1.3178    1.3820 H   0  0  0  0  0  0  0  0  0  0  0  0
    0.8160   -2.0307   -0.2075 H   0  0  0  0  0  0  0  0  0  0  0  0
    2.3002    0.7154    1.4266 H   0  0  0  0  0  0  0  0  0  0  0  0
    1.8548    2.0716    0.2547 H   0  0  0  0  0  0  0  0  0  0  0  0
    2.5962    0.5529   -1.6333 H   0  0  0  0  0  0  0  0  0  0  0  0
    2.9923   -0.7884   -0.4345 H   0  0  0  0  0  0  0  0  0  0  0  0
   -0.0011   -0.2068   -2.0730 H   0  0  0  0  0  0  0  0  0  0  0  0
    0.2610    1.5007   -1.6175 H   0  0  0  0  0  0  0  0  0  0  0  0
   -2.2004    0.8634   -1.5610 H   0  0  0  0  0  0  0  0  0  0  0  0
   -1.1364    1.3082    1.3684 H   0  0  0  0  0  0  0  0  0  0  0  0
   -2.8598    1.5053    0.7490 H   0  0  0  0  0  0  0  0  0  0  0  0
   -2.9483   -0.8805    0.0493 H   0  0  0  0  0  0  0  0  0  0  0  0
  1  2  1  0
  2  3  1  0
  3  4  1  0
  4  5  1  0
  3  6  1  0
  6  7  1  0
  7  8  1  0
  8  9  1  0
  9  1  1  0
  5  3  1  0
  9  7  1  0
  1 10  1  0
  1 11  1  0
  2 12  1  0
  2 13  1  0
  4 14  1  0
  4 15  1  0
  5 16  1  0
  5 17  1  0
  6 18  1  0
  6 19  1  0
  7 20  1  0
  8 21  1  0
  8 22  1  0
  9 23  1  0
M  END
