
     RDKit          3D

 21 23  0  0  0  0  0  0  0  0999 V2000
    2.5145   -0.3158   -0.5865 C   0  0  0  0  0  0  0  0  0  0  0  0
    2.1480    0.2253    0.8004 C   0  0  0  0  0  0  0  0  0  0  0  0
    1.3777    0.6198   -0.4273 C   0  0  0  0  0  0  0  0  0  0  0  0
   -0.0383    0.1964   -0.6146 C   0  0  0  0  0  0  0  0  0  0  0  0
   -0.5522   -0.8847    0.2767 C   0  0  0  0  0  0  0  0  0  0  0  0
   -2.0187   -1.0036   -0.1089 C   0  0  0  0  0  0  0  0  0  0  0  0
   -2.3531    0.4958    0.0350 C   0  0  0  0  0  0  0  0  0  0  0  0
   -0.9449    0.9786    0.2796 C   0  0  0  0  0  0  0  0  0  0  0  0
   -0.5391    0.0870    1.3025 O   0  0  0  0  0  0  0  0  0  0  0  0
    2.3626   -1.4007   -0.7755 H   0  0  0  0  0  0  0  0  0  0  0  0
    3.4576    0.0609   -1.0409 H   0  0  0  0  0  0  0  0  0  0  0  0
    1.7134   -0.4953    1.5276 H   0  0  0  0  0  0  0  0  0  0  0  0
    2.9011    0.9063    1.2383 H   0  0  0  0  0  0  0  0  0  0  0  0
    1.5956    1.6811   -0.7308 H   0  0  0  0  0  0  0  0  0  0  0  0
   -0.3779    0.0385   -1.6534 H   0  0  0  0  0  0  0  0  0  0  0  0
    0.0063   -1.7748    0.4315 H   0  0  0  0  0  0  0  0  0  0  0  0
   -2.5830   -1.6065    0.6190 H   0  0  0  0  0  0  0  0  0  0  0  0
   -2.1663   -1.3423   -1.1376 H   0  0  0  0  0  0  0  0  0  0  0  0
   -2.9105    0.6161    0.9709 H   0  0  0  0  0  0  0  0  0  0  0  0
   -2.8210    0.8981   -0.8526 H   0  0  0  0  0  0  0  0  0  0  0  0
   -0.7718    2.0198    0.4466 H   0  0  0  0  0  0  0  0  0  0  0  0
  1  2  1  0
  2  3  1  0
  3  4  1  0
  4  5  1  0
  5  6  1  0
  6  7  1  0
  7  8  1  0
  8  9  1  0
  3  1  1  0
  8  4  1  0
  9  5  1  0
  1 10  1  0
  1 11  1  0
  2 12  1  0
  2 13  1  0
  3 14  1  0
  4 15  1  0
  5 16  1  0
  6 17  1  0
  6 18  1  0
  7 19  1  0
  7 20  1  0
  8 21  1  0
M  END
