
     RDKit          3D

 19 21  0  0  0  0  0  0  0  0999 V2000
   -2.2576    0.6580   -0.2303 C   0  0  0  0  0  0  0  0  0  0  0  0
   -2.0277   -0.6982    0.4088 C   0  0  0  0  0  0  0  0  0  0  0  0
   -0.5630   -0.9121    0.1582 C   0  0  0  0  0  0  0  0  0  0  0  0
   -0.3298   -0.0821   -1.0900 C   0  0  0  0  0  0  0  0  0  0  0  0
   -1.5079    0.5443   -1.3970 O   0  0  0  0  0  0  0  0  0  0  0  0
    0.4103    0.1817    0.1564 C   0  0  0  0  0  0  0  0  0  0  0  0
    1.8707   -0.2293    0.1535 C   0  0  0  0  0  0  0  0  0  0  0  0
    2.9478    0.7745    0.1514 C   0  0  0  0  0  0  0  0  0  0  0  0
    2.6024   -0.0078    1.3240 O   0  0  0  0  0  0  0  0  0  0  0  0
   -1.8376    1.4325    0.4657 H   0  0  0  0  0  0  0  0  0  0  0  0
   -3.3081    0.8515   -0.4514 H   0  0  0  0  0  0  0  0  0  0  0  0
   -2.3239   -0.7437    1.4566 H   0  0  0  0  0  0  0  0  0  0  0  0
   -2.5978   -1.4437   -0.2098 H   0  0  0  0  0  0  0  0  0  0  0  0
   -0.1987   -1.9625    0.1836 H   0  0  0  0  0  0  0  0  0  0  0  0
    0.1166   -0.6722   -1.9270 H   0  0  0  0  0  0  0  0  0  0  0  0
    0.1819    1.1461    0.6558 H   0  0  0  0  0  0  0  0  0  0  0  0
    2.1011   -1.1850   -0.3655 H   0  0  0  0  0  0  0  0  0  0  0  0
    2.7975    1.8362    0.3632 H   0  0  0  0  0  0  0  0  0  0  0  0
    3.9239    0.5119   -0.2858 H   0  0  0  0  0  0  0  0  0  0  0  0
  1  2  1  0
  2  3  1  0
  3  4  1  0
  4  5  1  0
  4  6  1  0
  6  7  1  0
  7  8  1  0
  8  9  1  0
  5  1  1  0
  9  7  1  0
  6  3  1  0
  1 10  1  0
  1 11  1  0
  2 12  1  0
  2 13  1  0
  3 14  1  0
  4 15  1  0
  6 16  1  0
  7 17  1  0
  8 18  1  0
  8 19  1  0
M  END
