
     RDKit          3D

 21 23  0  0  0  0  0  0  0  0999 V2000
    2.0163   -0.1104    0.0408 C   0  0  0  0  0  0  0  0  0  0  0  0
    0.9852   -1.2072   -0.2014 C   0  0  0  0  0  0  0  0  0  0  0  0
   -0.3468   -0.5463    0.0244 C   0  0  0  0  0  0  0  0  0  0  0  0
   -1.3516   -1.2014    0.9166 C   0  0  0  0  0  0  0  0  0  0  0  0
   -1.5699   -1.1075   -0.5632 C   0  0  0  0  0  0  0  0  0  0  0  0
   -0.0978    0.9021    0.2052 C   0  0  0  0  0  0  0  0  0  0  0  0
    1.3175    1.1871   -0.2040 C   0  0  0  0  0  0  0  0  0  0  0  0
   -1.0993    1.9453   -0.1364 C   0  0  0  0  0  0  0  0  0  0  0  0
   -0.7299    1.6520    1.1631 O   0  0  0  0  0  0  0  0  0  0  0  0
    2.8166   -0.2853   -0.7234 H   0  0  0  0  0  0  0  0  0  0  0  0
    2.4756   -0.2106    1.0301 H   0  0  0  0  0  0  0  0  0  0  0  0
    1.0857   -1.6399   -1.2284 H   0  0  0  0  0  0  0  0  0  0  0  0
    1.1543   -1.9960    0.5750 H   0  0  0  0  0  0  0  0  0  0  0  0
   -1.9043   -0.5468    1.6082 H   0  0  0  0  0  0  0  0  0  0  0  0
   -1.0608   -2.1749    1.3680 H   0  0  0  0  0  0  0  0  0  0  0  0
   -1.4615   -2.0862   -1.0901 H   0  0  0  0  0  0  0  0  0  0  0  0
   -2.4405   -0.5143   -0.8632 H   0  0  0  0  0  0  0  0  0  0  0  0
    1.3007    1.4203   -1.2967 H   0  0  0  0  0  0  0  0  0  0  0  0
    1.6811    2.0266    0.4103 H   0  0  0  0  0  0  0  0  0  0  0  0
   -2.0506    1.5547   -0.5530 H   0  0  0  0  0  0  0  0  0  0  0  0
   -0.7200    2.9386   -0.4820 H   0  0  0  0  0  0  0  0  0  0  0  0
  1  2  1  0
  2  3  1  0
  3  4  1  0
  4  5  1  0
  3  6  1  0
  6  7  1  0
  6  8  1  0
  8  9  1  0
  7  1  1  0
  5  3  1  0
  9  6  1  0
  1 10  1  0
  1 11  1  0
  2 12  1  0
  2 13  1  0
  4 14  1  0
  4 15  1  0
  5 16  1  0
  5 17  1  0
  7 18  1  0
  7 19  1  0
  8 20  1  0
  8 21  1  0
M  END
