
     RDKit          3D

 23 25  0  0  0  0  0  0  0  0999 V2000
   -1.9425    0.6400   -0.1972 C   0  0  0  0  0  0  0  0  0  0  0  0
   -0.6507    1.3122   -0.6146 C   0  0  0  0  0  0  0  0  0  0  0  0
    0.5094    0.9949    0.3413 C   0  0  0  0  0  0  0  0  0  0  0  0
    1.7453    0.5459   -0.3949 C   0  0  0  0  0  0  0  0  0  0  0  0
    2.1223   -0.8370    0.1708 C   0  0  0  0  0  0  0  0  0  0  0  0
    0.7461   -1.4329    0.5554 C   0  0  0  0  0  0  0  0  0  0  0  0
   -0.3789   -1.1531   -0.2313 C   0  0  0  0  0  0  0  0  0  0  0  0
   -1.8306   -0.8888   -0.1094 C   0  0  0  0  0  0  0  0  0  0  0  0
    0.0698   -0.2755    0.9865 C   0  0  0  0  0  0  0  0  0  0  0  0
   -2.7051    0.9489   -0.9121 H   0  0  0  0  0  0  0  0  0  0  0  0
   -2.1992    1.0709    0.8077 H   0  0  0  0  0  0  0  0  0  0  0  0
   -0.3900    1.1826   -1.6565 H   0  0  0  0  0  0  0  0  0  0  0  0
   -0.8442    2.4069   -0.4645 H   0  0  0  0  0  0  0  0  0  0  0  0
    0.6890    1.7992    1.0682 H   0  0  0  0  0  0  0  0  0  0  0  0
    2.5544    1.2778   -0.1433 H   0  0  0  0  0  0  0  0  0  0  0  0
    1.5655    0.5147   -1.4664 H   0  0  0  0  0  0  0  0  0  0  0  0
    2.5785   -1.4473   -0.6368 H   0  0  0  0  0  0  0  0  0  0  0  0
    2.7601   -0.7111    1.0468 H   0  0  0  0  0  0  0  0  0  0  0  0
    0.8699   -2.2982    1.2200 H   0  0  0  0  0  0  0  0  0  0  0  0
   -0.0950   -0.7943   -1.2701 H   0  0  0  0  0  0  0  0  0  0  0  0
   -2.4342   -1.3828   -0.8925 H   0  0  0  0  0  0  0  0  0  0  0  0
   -2.2517   -1.1838    0.8900 H   0  0  0  0  0  0  0  0  0  0  0  0
   -0.4881   -0.2894    1.9029 H   0  0  0  0  0  0  0  0  0  0  0  0
  1  2  1  0
  2  3  1  0
  3  4  1  0
  4  5  1  0
  5  6  1  0
  6  7  1  0
  7  8  1  0
  7  9  1  0
  8  1  1  0
  9  3  1  0
  9  6  1  0
  1 10  1  0
  1 11  1  0
  2 12  1  0
  2 13  1  0
  3 14  1  0
  4 15  1  0
  4 16  1  0
  5 17  1  0
  5 18  1  0
  6 19  1  0
  7 20  1  0
  8 21  1  0
  8 22  1  0
  9 23  1  0
M  END
