
     RDKit          3D

 21 23  0  0  0  0  0  0  0  0999 V2000
    2.8498   -0.2690    0.2950 C   0  0  0  0  0  0  0  0  0  0  0  0
    1.5510    0.0547    1.0394 C   0  0  0  0  0  0  0  0  0  0  0  0
    1.0679    0.3069   -0.3340 C   0  0  0  0  0  0  0  0  0  0  0  0
    0.0655    1.3097   -0.7059 C   0  0  0  0  0  0  0  0  0  0  0  0
   -0.1994   -0.1884   -0.8852 C   0  0  0  0  0  0  0  0  0  0  0  0
   -1.2461   -0.8534   -0.0899 C   0  0  0  0  0  0  0  0  0  0  0  0
   -1.8660   -0.1356    1.0605 C   0  0  0  0  0  0  0  0  0  0  0  0
   -2.6476   -0.3053   -0.1857 C   0  0  0  0  0  0  0  0  0  0  0  0
    2.2848    0.1540   -0.9278 O   0  0  0  0  0  0  0  0  0  0  0  0
    3.1168   -1.3459    0.3127 H   0  0  0  0  0  0  0  0  0  0  0  0
    3.7212    0.3218    0.6164 H   0  0  0  0  0  0  0  0  0  0  0  0
    1.7288    0.9512    1.6805 H   0  0  0  0  0  0  0  0  0  0  0  0
    1.1248   -0.8141    1.5794 H   0  0  0  0  0  0  0  0  0  0  0  0
   -0.4314    1.8589    0.1063 H   0  0  0  0  0  0  0  0  0  0  0  0
    0.2209    1.8709   -1.6785 H   0  0  0  0  0  0  0  0  0  0  0  0
   -0.1196   -0.5666   -1.9530 H   0  0  0  0  0  0  0  0  0  0  0  0
   -1.2457   -1.9747   -0.0861 H   0  0  0  0  0  0  0  0  0  0  0  0
   -1.5192    0.8596    1.3846 H   0  0  0  0  0  0  0  0  0  0  0  0
   -2.1529   -0.7582    1.9425 H   0  0  0  0  0  0  0  0  0  0  0  0
   -2.7812    0.5120   -0.8992 H   0  0  0  0  0  0  0  0  0  0  0  0
   -3.5224   -0.9884   -0.1069 H   0  0  0  0  0  0  0  0  0  0  0  0
  1  2  1  0
  2  3  1  0
  3  4  1  0
  4  5  1  0
  5  6  1  0
  6  7  1  0
  7  8  1  0
  3  9  1  0
  9  1  1  0
  5  3  1  0
  8  6  1  0
  1 10  1  0
  1 11  1  0
  2 12  1  0
  2 13  1  0
  4 14  1  0
  4 15  1  0
  5 16  1  0
  6 17  1  0
  7 18  1  0
  7 19  1  0
  8 20  1  0
  8 21  1  0
M  END
