
     RDKit          3D

 21 23  0  0  0  0  0  0  0  0999 V2000
    2.0226    0.4532   -0.6260 C   0  0  0  0  0  0  0  0  0  0  0  0
    2.7434   -0.2148    0.5366 C   0  0  0  0  0  0  0  0  0  0  0  0
    1.3852   -0.7104    0.0335 C   0  0  0  0  0  0  0  0  0  0  0  0
    0.2363   -0.5281    0.9982 C   0  0  0  0  0  0  0  0  0  0  0  0
   -0.8581    0.0843    0.4192 C   0  0  0  0  0  0  0  0  0  0  0  0
   -2.1564    0.4237    1.0548 C   0  0  0  0  0  0  0  0  0  0  0  0
   -2.2124    0.8997   -0.3585 C   0  0  0  0  0  0  0  0  0  0  0  0
   -1.6286   -0.4127   -0.7660 C   0  0  0  0  0  0  0  0  0  0  0  0
   -0.8955    1.3299   -0.1672 O   0  0  0  0  0  0  0  0  0  0  0  0
    1.6622    1.4911   -0.4154 H   0  0  0  0  0  0  0  0  0  0  0  0
    2.4483    0.3436   -1.6458 H   0  0  0  0  0  0  0  0  0  0  0  0
    3.6430   -0.7713    0.2340 H   0  0  0  0  0  0  0  0  0  0  0  0
    2.7767    0.3198    1.5058 H   0  0  0  0  0  0  0  0  0  0  0  0
    1.4463   -1.6775   -0.5433 H   0  0  0  0  0  0  0  0  0  0  0  0
   -0.0128   -1.5695    1.3472 H   0  0  0  0  0  0  0  0  0  0  0  0
    0.6084   -0.0079    1.8931 H   0  0  0  0  0  0  0  0  0  0  0  0
   -2.1667    1.2583    1.7712 H   0  0  0  0  0  0  0  0  0  0  0  0
   -2.7568   -0.4434    1.3303 H   0  0  0  0  0  0  0  0  0  0  0  0
   -2.9454    1.4211   -0.8108 H   0  0  0  0  0  0  0  0  0  0  0  0
   -2.2289   -1.3118   -0.6119 H   0  0  0  0  0  0  0  0  0  0  0  0
   -1.1110   -0.3774   -1.7410 H   0  0  0  0  0  0  0  0  0  0  0  0
  1  2  1  0
  2  3  1  0
  3  4  1  0
  4  5  1  0
  5  6  1  0
  6  7  1  0
  7  8  1  0
  7  9  1  0
  3  1  1  0
  8  5  1  0
  9  5  1  0
  1 10  1  0
  1 11  1  0
  2 12  1  0
  2 13  1  0
  3 14  1  0
  4 15  1  0
  4 16  1  0
  6 17  1  0
  6 18  1  0
  7 19  1  0
  8 20  1  0
  8 21  1  0
M  END
