
     RDKit          3D

 19 19  0  0  0  0  0  0  0  0999 V2000
    0.4087   -1.4096    0.0750 C   0  0  0  0  0  0  0  0  0  0  0  0
   -0.8832   -0.8850   -0.4288 C   0  0  0  0  0  0  0  0  0  0  0  0
   -1.5453    0.1086    0.4666 C   0  0  0  0  0  0  0  0  0  0  0  0
   -0.9279    1.4633    0.0981 C   0  0  0  0  0  0  0  0  0  0  0  0
    0.3056    1.4818    0.7412 O   0  0  0  0  0  0  0  0  0  0  0  0
    1.2441    0.9611   -0.1012 C   0  0  0  0  0  0  0  0  0  0  0  0
    1.5468   -0.4850    0.0870 C   0  0  0  0  0  0  0  0  0  0  0  0
    0.2226   -1.8588    1.0928 H   0  0  0  0  0  0  0  0  0  0  0  0
    0.6801   -2.3037   -0.5604 H   0  0  0  0  0  0  0  0  0  0  0  0
   -0.7830   -0.5017   -1.4776 H   0  0  0  0  0  0  0  0  0  0  0  0
   -1.5885   -1.7599   -0.5251 H   0  0  0  0  0  0  0  0  0  0  0  0
   -1.3090   -0.1322    1.5294 H   0  0  0  0  0  0  0  0  0  0  0  0
   -2.6433    0.1544    0.3168 H   0  0  0  0  0  0  0  0  0  0  0  0
   -0.7447    1.4976   -0.9953 H   0  0  0  0  0  0  0  0  0  0  0  0
   -1.5798    2.2922    0.3565 H   0  0  0  0  0  0  0  0  0  0  0  0
    0.9785    1.1969   -1.1552 H   0  0  0  0  0  0  0  0  0  0  0  0
    2.2061    1.5228    0.0807 H   0  0  0  0  0  0  0  0  0  0  0  0
    2.0867   -0.5880    1.0736 H   0  0  0  0  0  0  0  0  0  0  0  0
    2.3253   -0.7549   -0.6743 H   0  0  0  0  0  0  0  0  0  0  0  0
  1  2  1  0
  2  3  1  0
  3  4  1  0
  4  5  1  0
  5  6  1  0
  6  7  1  0
  7  1  1  0
  1  8  1  0
  1  9  1  0
  2 10  1  0
  2 11  1  0
  3 12  1  0
  3 13  1  0
  4 14  1  0
  4 15  1  0
  6 16  1  0
  6 17  1  0
  7 18  1  0
  7 19  1  0
M  END
