
     RDKit          3D

 19 21  0  0  0  0  0  0  0  0999 V2000
   -0.0931   -1.6924    0.2109 C   0  0  0  0  0  0  0  0  0  0  0  0
    0.6763   -0.9233   -0.8521 C   0  0  0  0  0  0  0  0  0  0  0  0
    0.7206    0.4683   -0.2061 C   0  0  0  0  0  0  0  0  0  0  0  0
    1.9251    0.8981    0.3737 C   0  0  0  0  0  0  0  0  0  0  0  0
    1.4066    1.4682   -0.8551 O   0  0  0  0  0  0  0  0  0  0  0  0
   -0.6677    0.6385    0.2669 C   0  0  0  0  0  0  0  0  0  0  0  0
   -1.0423   -0.7100    0.8354 C   0  0  0  0  0  0  0  0  0  0  0  0
   -1.6180    1.3624   -0.5527 C   0  0  0  0  0  0  0  0  0  0  0  0
   -1.1671    1.7915    0.7796 O   0  0  0  0  0  0  0  0  0  0  0  0
   -0.5858   -2.5711   -0.2350 H   0  0  0  0  0  0  0  0  0  0  0  0
    0.6449   -2.1035    0.9518 H   0  0  0  0  0  0  0  0  0  0  0  0
    0.0554   -0.8620   -1.7545 H   0  0  0  0  0  0  0  0  0  0  0  0
    1.6928   -1.2812   -0.9973 H   0  0  0  0  0  0  0  0  0  0  0  0
    2.8681    0.3063    0.1990 H   0  0  0  0  0  0  0  0  0  0  0  0
    2.0499    1.6699    1.1595 H   0  0  0  0  0  0  0  0  0  0  0  0
   -0.8064   -0.6711    1.9214 H   0  0  0  0  0  0  0  0  0  0  0  0
   -2.0962   -0.9286    0.6199 H   0  0  0  0  0  0  0  0  0  0  0  0
   -1.3010    2.1332   -1.2847 H   0  0  0  0  0  0  0  0  0  0  0  0
   -2.6621    1.0067   -0.5807 H   0  0  0  0  0  0  0  0  0  0  0  0
  1  2  1  0
  2  3  1  0
  3  4  1  0
  4  5  1  0
  3  6  1  0
  6  7  1  0
  6  8  1  0
  8  9  1  0
  7  1  1  0
  5  3  1  0
  9  6  1  0
  1 10  1  0
  1 11  1  0
  2 12  1  0
  2 13  1  0
  4 14  1  0
  4 15  1  0
  7 16  1  0
  7 17  1  0
  8 18  1  0
  8 19  1  0
M  END
