
     RDKit          3D

 19 21  0  0  0  0  0  0  0  0999 V2000
    2.3118    0.0574   -0.5029 C   0  0  0  0  0  0  0  0  0  0  0  0
    1.7247   -0.3820    0.8092 C   0  0  0  0  0  0  0  0  0  0  0  0
    0.4792   -0.0386    0.1290 C   0  0  0  0  0  0  0  0  0  0  0  0
    1.0510    0.3492   -1.0377 O   0  0  0  0  0  0  0  0  0  0  0  0
   -0.6187    0.6734    0.8034 C   0  0  0  0  0  0  0  0  0  0  0  0
   -1.5230    1.5671   -0.0142 C   0  0  0  0  0  0  0  0  0  0  0  0
   -2.4542    0.7285   -0.6033 O   0  0  0  0  0  0  0  0  0  0  0  0
   -1.7855   -0.4559   -0.8902 C   0  0  0  0  0  0  0  0  0  0  0  0
   -0.8171   -0.6783    0.2808 C   0  0  0  0  0  0  0  0  0  0  0  0
    2.9237    0.9830   -0.4773 H   0  0  0  0  0  0  0  0  0  0  0  0
    2.7686   -0.8103   -1.0175 H   0  0  0  0  0  0  0  0  0  0  0  0
    1.9986    0.3385    1.6025 H   0  0  0  0  0  0  0  0  0  0  0  0
    1.9215   -1.4133    1.1225 H   0  0  0  0  0  0  0  0  0  0  0  0
   -0.4491    0.9003    1.8772 H   0  0  0  0  0  0  0  0  0  0  0  0
   -0.8927    2.0301   -0.8144 H   0  0  0  0  0  0  0  0  0  0  0  0
   -1.9628    2.3359    0.6342 H   0  0  0  0  0  0  0  0  0  0  0  0
   -1.2045   -0.3370   -1.8305 H   0  0  0  0  0  0  0  0  0  0  0  0
   -2.5271   -1.2509   -0.9704 H   0  0  0  0  0  0  0  0  0  0  0  0
   -0.9443   -1.5756    0.8998 H   0  0  0  0  0  0  0  0  0  0  0  0
  1  2  1  0
  2  3  1  0
  3  4  1  0
  3  5  1  0
  5  6  1  0
  6  7  1  0
  7  8  1  0
  8  9  1  0
  4  1  1  0
  9  5  1  0
  9  3  1  0
  1 10  1  0
  1 11  1  0
  2 12  1  0
  2 13  1  0
  5 14  1  0
  6 15  1  0
  6 16  1  0
  8 17  1  0
  8 18  1  0
  9 19  1  0
M  END
