
     RDKit          3D

 18 19  0  0  0  0  0  0  0  0999 V2000
    1.6077   -0.0006    0.4655 C   0  0  0  0  0  0  0  0  0  0  0  0
    1.1588   -0.6776   -0.7717 C   0  0  0  0  0  0  0  0  0  0  0  0
   -0.3030   -0.3140   -1.0856 C   0  0  0  0  0  0  0  0  0  0  0  0
   -1.0021   -0.8455    0.1782 C   0  0  0  0  0  0  0  0  0  0  0  0
   -0.6175    0.3539    1.0625 C   0  0  0  0  0  0  0  0  0  0  0  0
   -1.0724    1.4436    0.0790 C   0  0  0  0  0  0  0  0  0  0  0  0
   -0.4406    1.0484   -1.0682 O   0  0  0  0  0  0  0  0  0  0  0  0
    0.6957    0.4107    1.3504 O   0  0  0  0  0  0  0  0  0  0  0  0
    2.3538   -0.6810    0.9723 H   0  0  0  0  0  0  0  0  0  0  0  0
    2.2384    0.8843    0.1518 H   0  0  0  0  0  0  0  0  0  0  0  0
    1.8087   -0.4801   -1.6444 H   0  0  0  0  0  0  0  0  0  0  0  0
    1.1243   -1.7999   -0.6380 H   0  0  0  0  0  0  0  0  0  0  0  0
   -0.6639   -0.8063   -1.9873 H   0  0  0  0  0  0  0  0  0  0  0  0
   -0.5576   -1.7759    0.5329 H   0  0  0  0  0  0  0  0  0  0  0  0
   -2.0818   -0.8496    0.0728 H   0  0  0  0  0  0  0  0  0  0  0  0
   -1.2307    0.4030    1.9668 H   0  0  0  0  0  0  0  0  0  0  0  0
   -0.8449    2.4395    0.4288 H   0  0  0  0  0  0  0  0  0  0  0  0
   -2.1729    1.2471   -0.0658 H   0  0  0  0  0  0  0  0  0  0  0  0
  1  2  1  0
  2  3  1  0
  3  4  1  0
  4  5  1  0
  5  6  1  0
  6  7  1  0
  5  8  1  0
  8  1  1  0
  7  3  1  0
  1  9  1  0
  1 10  1  0
  2 11  1  0
  2 12  1  0
  3 13  1  0
  4 14  1  0
  4 15  1  0
  5 16  1  0
  6 17  1  0
  6 18  1  0
M  END
