
     RDKit          3D

 21 23  0  0  0  0  0  0  0  0999 V2000
   -0.9070    1.2563    0.5919 C   0  0  0  0  0  0  0  0  0  0  0  0
   -1.6433    0.3965   -0.3888 C   0  0  0  0  0  0  0  0  0  0  0  0
   -0.9885   -0.9231   -0.4714 C   0  0  0  0  0  0  0  0  0  0  0  0
   -0.5639   -1.7389    0.6546 C   0  0  0  0  0  0  0  0  0  0  0  0
    0.3333   -0.7424    0.1586 C   0  0  0  0  0  0  0  0  0  0  0  0
    1.5199   -0.8880   -0.6946 C   0  0  0  0  0  0  0  0  0  0  0  0
    2.3754    0.1359   -0.2323 O   0  0  0  0  0  0  0  0  0  0  0  0
    1.5142    1.2336   -0.0817 C   0  0  0  0  0  0  0  0  0  0  0  0
    0.4174    0.6132    0.7745 C   0  0  0  0  0  0  0  0  0  0  0  0
   -1.4843    1.2171    1.5606 H   0  0  0  0  0  0  0  0  0  0  0  0
   -0.8601    2.3190    0.3213 H   0  0  0  0  0  0  0  0  0  0  0  0
   -2.7226    0.3355   -0.1896 H   0  0  0  0  0  0  0  0  0  0  0  0
   -1.5392    0.9001   -1.3948 H   0  0  0  0  0  0  0  0  0  0  0  0
   -1.0970   -1.4450   -1.4593 H   0  0  0  0  0  0  0  0  0  0  0  0
   -0.4329   -2.8301    0.4961 H   0  0  0  0  0  0  0  0  0  0  0  0
   -1.0615   -1.5455    1.6512 H   0  0  0  0  0  0  0  0  0  0  0  0
    2.0069   -1.8551   -0.7051 H   0  0  0  0  0  0  0  0  0  0  0  0
    1.2496   -0.5748   -1.7456 H   0  0  0  0  0  0  0  0  0  0  0  0
    2.0304    2.0561    0.4088 H   0  0  0  0  0  0  0  0  0  0  0  0
    1.1083    1.4511   -1.0768 H   0  0  0  0  0  0  0  0  0  0  0  0
    0.7449    0.6286    1.8223 H   0  0  0  0  0  0  0  0  0  0  0  0
  1  2  1  0
  2  3  1  0
  3  4  1  0
  4  5  1  0
  5  6  1  0
  6  7  1  0
  7  8  1  0
  8  9  1  0
  9  1  1  0
  5  3  1  0
  9  5  1  0
  1 10  1  0
  1 11  1  0
  2 12  1  0
  2 13  1  0
  3 14  1  0
  4 15  1  0
  4 16  1  0
  6 17  1  0
  6 18  1  0
  8 19  1  0
  8 20  1  0
  9 21  1  0
M  END
