
     RDKit          3D

 21 23  0  0  0  0  0  0  0  0999 V2000
    2.2438   -0.3749    0.1285 C   0  0  0  0  0  0  0  0  0  0  0  0
    1.1821   -0.2555   -0.9769 C   0  0  0  0  0  0  0  0  0  0  0  0
    0.2081    0.0180    0.0789 C   0  0  0  0  0  0  0  0  0  0  0  0
    1.2357    0.3185    1.0608 C   0  0  0  0  0  0  0  0  0  0  0  0
   -0.9327    0.9216   -0.1560 C   0  0  0  0  0  0  0  0  0  0  0  0
   -1.6294    0.2067   -1.2917 C   0  0  0  0  0  0  0  0  0  0  0  0
   -1.5476   -1.1228   -0.8030 O   0  0  0  0  0  0  0  0  0  0  0  0
   -0.8510   -0.9953    0.3809 C   0  0  0  0  0  0  0  0  0  0  0  0
   -1.5906    0.1881    1.0284 C   0  0  0  0  0  0  0  0  0  0  0  0
    3.1568    0.2109   -0.0599 H   0  0  0  0  0  0  0  0  0  0  0  0
    2.3955   -1.4118    0.4703 H   0  0  0  0  0  0  0  0  0  0  0  0
    1.3902    0.6336   -1.6085 H   0  0  0  0  0  0  0  0  0  0  0  0
    1.1035   -1.1653   -1.5814 H   0  0  0  0  0  0  0  0  0  0  0  0
    1.1915   -0.0992    2.0713 H   0  0  0  0  0  0  0  0  0  0  0  0
    1.5059    1.4100    1.1015 H   0  0  0  0  0  0  0  0  0  0  0  0
   -0.8775    1.9682   -0.1254 H   0  0  0  0  0  0  0  0  0  0  0  0
   -1.0102    0.3432   -2.1935 H   0  0  0  0  0  0  0  0  0  0  0  0
   -2.6655    0.5213   -1.4313 H   0  0  0  0  0  0  0  0  0  0  0  0
   -0.6473   -1.8350    0.9878 H   0  0  0  0  0  0  0  0  0  0  0  0
   -1.1990    0.4792    2.0041 H   0  0  0  0  0  0  0  0  0  0  0  0
   -2.6625    0.0406    0.9151 H   0  0  0  0  0  0  0  0  0  0  0  0
  1  2  1  0
  2  3  1  0
  3  4  1  0
  3  5  1  0
  5  6  1  0
  6  7  1  0
  7  8  1  0
  8  9  1  0
  4  1  1  0
  9  5  1  0
  8  3  1  0
  1 10  1  0
  1 11  1  0
  2 12  1  0
  2 13  1  0
  4 14  1  0
  4 15  1  0
  5 16  1  0
  6 17  1  0
  6 18  1  0
  8 19  1  0
  9 20  1  0
  9 21  1  0
M  END
