
     RDKit          3D

 23 25  0  0  0  0  0  0  0  0999 V2000
    2.7153   -0.0007    0.4733 C   0  0  0  0  0  0  0  0  0  0  0  0
    1.8416   -0.3897   -0.6860 C   0  0  0  0  0  0  0  0  0  0  0  0
    0.7656    0.5349   -0.0840 C   0  0  0  0  0  0  0  0  0  0  0  0
   -0.5982    0.0037   -0.3096 C   0  0  0  0  0  0  0  0  0  0  0  0
   -1.7939    0.7569    0.1149 C   0  0  0  0  0  0  0  0  0  0  0  0
   -1.5087    0.3451    1.5084 C   0  0  0  0  0  0  0  0  0  0  0  0
   -1.2109   -0.8833    0.7382 C   0  0  0  0  0  0  0  0  0  0  0  0
   -2.5127   -0.5803    0.0149 C   0  0  0  0  0  0  0  0  0  0  0  0
    1.4256    0.3083    1.2466 C   0  0  0  0  0  0  0  0  0  0  0  0
    3.2836    0.9148    0.2463 H   0  0  0  0  0  0  0  0  0  0  0  0
    3.3026   -0.8288    0.9115 H   0  0  0  0  0  0  0  0  0  0  0  0
    2.1786   -0.0173   -1.6871 H   0  0  0  0  0  0  0  0  0  0  0  0
    1.5454   -1.4381   -0.7618 H   0  0  0  0  0  0  0  0  0  0  0  0
    0.8472    1.5821   -0.4372 H   0  0  0  0  0  0  0  0  0  0  0  0
   -0.7327   -0.4104   -1.3445 H   0  0  0  0  0  0  0  0  0  0  0  0
   -2.1544    1.6286   -0.2270 H   0  0  0  0  0  0  0  0  0  0  0  0
   -2.4891    0.3115    2.0909 H   0  0  0  0  0  0  0  0  0  0  0  0
   -0.7430    0.8588    2.0768 H   0  0  0  0  0  0  0  0  0  0  0  0
   -0.9033   -1.7825    1.0384 H   0  0  0  0  0  0  0  0  0  0  0  0
   -3.4262   -0.6611    0.6226 H   0  0  0  0  0  0  0  0  0  0  0  0
   -2.5656   -0.9282   -1.0320 H   0  0  0  0  0  0  0  0  0  0  0  0
    1.1392   -0.5789    1.8107 H   0  0  0  0  0  0  0  0  0  0  0  0
    1.5938    1.2546    1.8361 H   0  0  0  0  0  0  0  0  0  0  0  0
  1  2  1  0
  2  3  1  0
  3  4  1  0
  4  5  1  0
  5  6  1  0
  6  7  1  0
  7  8  1  0
  3  9  1  0
  9  1  1  0
  7  4  1  0
  8  5  1  0
  1 10  1  0
  1 11  1  0
  2 12  1  0
  2 13  1  0
  3 14  1  0
  4 15  1  0
  5 16  1  0
  6 17  1  0
  6 18  1  0
  7 19  1  0
  8 20  1  0
  8 21  1  0
  9 22  1  0
  9 23  1  0
M  END
