
     RDKit          3D

 21 23  0  0  0  0  0  0  0  0999 V2000
   -1.1523    1.3365   -0.7318 C   0  0  0  0  0  0  0  0  0  0  0  0
   -1.9724    0.1467   -0.1997 C   0  0  0  0  0  0  0  0  0  0  0  0
   -1.1064   -0.4759    0.8094 C   0  0  0  0  0  0  0  0  0  0  0  0
   -0.5030   -1.7322    0.9849 C   0  0  0  0  0  0  0  0  0  0  0  0
    0.0376   -1.0348   -0.1122 C   0  0  0  0  0  0  0  0  0  0  0  0
    0.8383    0.1761   -0.2940 C   0  0  0  0  0  0  0  0  0  0  0  0
    2.2653    0.0223   -0.6872 C   0  0  0  0  0  0  0  0  0  0  0  0
    1.8615    0.6909    0.5967 C   0  0  0  0  0  0  0  0  0  0  0  0
    0.1047    1.0329   -1.1393 O   0  0  0  0  0  0  0  0  0  0  0  0
   -1.0636    2.0204    0.1638 H   0  0  0  0  0  0  0  0  0  0  0  0
   -1.6771    1.8288   -1.5562 H   0  0  0  0  0  0  0  0  0  0  0  0
   -2.1292   -0.5377   -1.0785 H   0  0  0  0  0  0  0  0  0  0  0  0
   -2.9311    0.5405    0.1340 H   0  0  0  0  0  0  0  0  0  0  0  0
   -0.7996    0.3114    1.5657 H   0  0  0  0  0  0  0  0  0  0  0  0
   -1.1297   -2.6550    0.8018 H   0  0  0  0  0  0  0  0  0  0  0  0
    0.1425   -1.9273    1.8731 H   0  0  0  0  0  0  0  0  0  0  0  0
   -0.2860   -1.4188   -1.1304 H   0  0  0  0  0  0  0  0  0  0  0  0
    2.7346   -0.9941   -0.6086 H   0  0  0  0  0  0  0  0  0  0  0  0
    2.6711    0.6274   -1.5279 H   0  0  0  0  0  0  0  0  0  0  0  0
    2.0670    0.2343    1.5642 H   0  0  0  0  0  0  0  0  0  0  0  0
    2.0277    1.8077    0.5720 H   0  0  0  0  0  0  0  0  0  0  0  0
  1  2  1  0
  2  3  1  0
  3  4  1  0
  4  5  1  0
  5  6  1  0
  6  7  1  0
  7  8  1  0
  6  9  1  0
  9  1  1  0
  5  3  1  0
  8  6  1  0
  1 10  1  0
  1 11  1  0
  2 12  1  0
  2 13  1  0
  3 14  1  0
  4 15  1  0
  4 16  1  0
  5 17  1  0
  7 18  1  0
  7 19  1  0
  8 20  1  0
  8 21  1  0
M  END
