
     RDKit          3D

 14 15  0  0  0  0  0  0  0  0999 V2000
   -1.3065   -0.6466    0.3641 C   0  0  0  0  0  0  0  0  0  0  0  0
   -1.5761    0.5651   -0.4350 C   0  0  0  0  0  0  0  0  0  0  0  0
   -0.3573    0.4764    0.5049 C   0  0  0  0  0  0  0  0  0  0  0  0
    0.9668    0.4884   -0.2240 C   0  0  0  0  0  0  0  0  0  0  0  0
    1.9601   -0.5668    0.0020 C   0  0  0  0  0  0  0  0  0  0  0  0
    1.2114   -0.4200   -1.2232 O   0  0  0  0  0  0  0  0  0  0  0  0
   -0.9066   -1.5346   -0.1901 H   0  0  0  0  0  0  0  0  0  0  0  0
   -1.9681   -0.9284    1.1947 H   0  0  0  0  0  0  0  0  0  0  0  0
   -2.3422    1.3045   -0.1604 H   0  0  0  0  0  0  0  0  0  0  0  0
   -1.3879    0.5135   -1.5230 H   0  0  0  0  0  0  0  0  0  0  0  0
   -0.4074    1.0326    1.4628 H   0  0  0  0  0  0  0  0  0  0  0  0
    1.3555    1.5124   -0.4239 H   0  0  0  0  0  0  0  0  0  0  0  0
    3.0395   -0.2824   -0.0668 H   0  0  0  0  0  0  0  0  0  0  0  0
    1.7187   -1.5141    0.4833 H   0  0  0  0  0  0  0  0  0  0  0  0
  1  2  1  0
  2  3  1  0
  3  4  1  0
  4  5  1  0
  5  6  1  0
  3  1  1  0
  6  4  1  0
  1  7  1  0
  1  8  1  0
  2  9  1  0
  2 10  1  0
  3 11  1  0
  4 12  1  0
  5 13  1  0
  5 14  1  0
M  END
