
     RDKit          3D

 23 24  0  0  0  0  0  0  0  0999 V2000
    2.1882   -0.5251   -0.7601 C   0  0  0  0  0  0  0  0  0  0  0  0
    2.3130    0.3174    0.5007 C   0  0  0  0  0  0  0  0  0  0  0  0
    0.9396    0.9510    0.6840 C   0  0  0  0  0  0  0  0  0  0  0  0
    0.0150    0.1722   -0.2187 C   0  0  0  0  0  0  0  0  0  0  0  0
   -1.2756   -0.0810    0.5011 C   0  0  0  0  0  0  0  0  0  0  0  0
   -2.3183   -0.8442   -0.2436 C   0  0  0  0  0  0  0  0  0  0  0  0
   -3.2827    0.0231    0.3189 O   0  0  0  0  0  0  0  0  0  0  0  0
   -2.3025    1.0255    0.2405 C   0  0  0  0  0  0  0  0  0  0  0  0
    0.7627   -1.0651   -0.5896 C   0  0  0  0  0  0  0  0  0  0  0  0
    2.2075    0.0955   -1.6801 H   0  0  0  0  0  0  0  0  0  0  0  0
    2.9136   -1.3470   -0.7980 H   0  0  0  0  0  0  0  0  0  0  0  0
    2.5365   -0.3878    1.3339 H   0  0  0  0  0  0  0  0  0  0  0  0
    3.1089    1.0621    0.4420 H   0  0  0  0  0  0  0  0  0  0  0  0
    0.9607    2.0275    0.4611 H   0  0  0  0  0  0  0  0  0  0  0  0
    0.6546    0.8552    1.7624 H   0  0  0  0  0  0  0  0  0  0  0  0
   -0.1752    0.7855   -1.1372 H   0  0  0  0  0  0  0  0  0  0  0  0
   -1.2011   -0.2828    1.5830 H   0  0  0  0  0  0  0  0  0  0  0  0
   -2.2050   -0.7611   -1.3245 H   0  0  0  0  0  0  0  0  0  0  0  0
   -2.4605   -1.9145    0.0630 H   0  0  0  0  0  0  0  0  0  0  0  0
   -2.3364    1.7856    1.0256 H   0  0  0  0  0  0  0  0  0  0  0  0
   -2.2827    1.3968   -0.8126 H   0  0  0  0  0  0  0  0  0  0  0  0
    0.7977   -1.7969    0.2188 H   0  0  0  0  0  0  0  0  0  0  0  0
    0.4420   -1.4920   -1.5706 H   0  0  0  0  0  0  0  0  0  0  0  0
  1  2  1  0
  2  3  1  0
  3  4  1  0
  4  5  1  0
  5  6  1  0
  6  7  1  0
  7  8  1  0
  4  9  1  0
  9  1  1  0
  8  5  1  0
  1 10  1  0
  1 11  1  0
  2 12  1  0
  2 13  1  0
  3 14  1  0
  3 15  1  0
  4 16  1  0
  5 17  1  0
  6 18  1  0
  6 19  1  0
  8 20  1  0
  8 21  1  0
  9 22  1  0
  9 23  1  0
M  END
