
     RDKit          3D

 21 23  0  0  0  0  0  0  0  0999 V2000
    1.2835    0.7238   -0.9056 C   0  0  0  0  0  0  0  0  0  0  0  0
    1.8480   -0.5635   -0.2870 C   0  0  0  0  0  0  0  0  0  0  0  0
    0.6510   -0.5461    0.6423 C   0  0  0  0  0  0  0  0  0  0  0  0
   -0.4667   -1.4826    0.2204 C   0  0  0  0  0  0  0  0  0  0  0  0
   -1.7175   -0.7955    0.5578 C   0  0  0  0  0  0  0  0  0  0  0  0
   -2.7578   -0.3893   -0.1277 O   0  0  0  0  0  0  0  0  0  0  0  0
   -1.7268    0.3405   -0.4977 C   0  0  0  0  0  0  0  0  0  0  0  0
   -0.9309    1.3846    0.1749 C   0  0  0  0  0  0  0  0  0  0  0  0
    0.4683    0.8747    0.3607 C   0  0  0  0  0  0  0  0  0  0  0  0
    0.6523    0.4781   -1.7897 H   0  0  0  0  0  0  0  0  0  0  0  0
    2.0335    1.5015   -1.0602 H   0  0  0  0  0  0  0  0  0  0  0  0
    1.9140   -1.4085   -0.9705 H   0  0  0  0  0  0  0  0  0  0  0  0
    2.7729   -0.3284    0.2821 H   0  0  0  0  0  0  0  0  0  0  0  0
    0.9647   -0.8241    1.6907 H   0  0  0  0  0  0  0  0  0  0  0  0
   -0.3724   -2.4379    0.7443 H   0  0  0  0  0  0  0  0  0  0  0  0
   -0.3226   -1.6599   -0.8722 H   0  0  0  0  0  0  0  0  0  0  0  0
   -1.7483   -0.4753    1.6422 H   0  0  0  0  0  0  0  0  0  0  0  0
   -1.3449    0.1035   -1.5168 H   0  0  0  0  0  0  0  0  0  0  0  0
   -0.8614    2.2684   -0.5159 H   0  0  0  0  0  0  0  0  0  0  0  0
   -1.3466    1.7179    1.1199 H   0  0  0  0  0  0  0  0  0  0  0  0
    1.0076    1.5180    1.1081 H   0  0  0  0  0  0  0  0  0  0  0  0
  1  2  1  0
  2  3  1  0
  3  4  1  0
  4  5  1  0
  5  6  1  0
  6  7  1  0
  7  8  1  0
  8  9  1  0
  9  1  1  0
  9  3  1  0
  7  5  1  0
  1 10  1  0
  1 11  1  0
  2 12  1  0
  2 13  1  0
  3 14  1  0
  4 15  1  0
  4 16  1  0
  5 17  1  0
  7 18  1  0
  8 19  1  0
  8 20  1  0
  9 21  1  0
M  END
