
     RDKit          3D

 21 23  0  0  0  0  0  0  0  0999 V2000
   -0.7191    1.4977    0.5513 C   0  0  0  0  0  0  0  0  0  0  0  0
   -1.1388    0.0795    0.9839 C   0  0  0  0  0  0  0  0  0  0  0  0
   -1.0972   -0.7080   -0.2517 C   0  0  0  0  0  0  0  0  0  0  0  0
   -0.4061   -1.8936   -0.6069 C   0  0  0  0  0  0  0  0  0  0  0  0
    0.4405   -0.7971   -0.5710 C   0  0  0  0  0  0  0  0  0  0  0  0
    1.3896   -0.6509    0.6097 C   0  0  0  0  0  0  0  0  0  0  0  0
    1.4222    0.6719    0.9455 O   0  0  0  0  0  0  0  0  0  0  0  0
    0.6853    1.3954   -0.0208 C   0  0  0  0  0  0  0  0  0  0  0  0
    0.6682    0.4635   -1.2525 C   0  0  0  0  0  0  0  0  0  0  0  0
   -0.7450    2.2046    1.3716 H   0  0  0  0  0  0  0  0  0  0  0  0
   -1.3902    1.7692   -0.3085 H   0  0  0  0  0  0  0  0  0  0  0  0
   -0.4695   -0.2012    1.7958 H   0  0  0  0  0  0  0  0  0  0  0  0
   -2.1683    0.1239    1.4132 H   0  0  0  0  0  0  0  0  0  0  0  0
   -1.7374   -0.2356   -1.0610 H   0  0  0  0  0  0  0  0  0  0  0  0
   -0.7052   -2.4130   -1.5645 H   0  0  0  0  0  0  0  0  0  0  0  0
   -0.2912   -2.6897    0.1911 H   0  0  0  0  0  0  0  0  0  0  0  0
    1.1703   -1.3504    1.4258 H   0  0  0  0  0  0  0  0  0  0  0  0
    2.3856   -0.9469    0.2067 H   0  0  0  0  0  0  0  0  0  0  0  0
    1.1218    2.3627   -0.2482 H   0  0  0  0  0  0  0  0  0  0  0  0
    1.6987    0.5329   -1.6743 H   0  0  0  0  0  0  0  0  0  0  0  0
   -0.1142    0.7852   -1.9353 H   0  0  0  0  0  0  0  0  0  0  0  0
  1  2  1  0
  2  3  1  0
  3  4  1  0
  4  5  1  0
  5  6  1  0
  6  7  1  0
  7  8  1  0
  8  9  1  0
  8  1  1  0
  5  3  1  0
  9  5  1  0
  1 10  1  0
  1 11  1  0
  2 12  1  0
  2 13  1  0
  3 14  1  0
  4 15  1  0
  4 16  1  0
  6 17  1  0
  6 18  1  0
  8 19  1  0
  9 20  1  0
  9 21  1  0
M  END
