
     RDKit          3D

 20 22  0  0  0  0  0  0  0  0999 V2000
    1.9469    0.6231    0.8359 C   0  0  0  0  0  0  0  0  0  0  0  0
    2.1548   -0.2860   -0.3896 C   0  0  0  0  0  0  0  0  0  0  0  0
    0.9826   -0.5474    0.5457 C   0  0  0  0  0  0  0  0  0  0  0  0
   -0.2875   -0.2557    0.1326 C   0  0  0  0  0  0  0  0  0  0  0  0
   -0.6400    0.5210   -1.1312 C   0  0  0  0  0  0  0  0  0  0  0  0
   -1.9640    0.2217   -0.5016 C   0  0  0  0  0  0  0  0  0  0  0  0
   -1.4120   -1.1537   -0.2149 C   0  0  0  0  0  0  0  0  0  0  0  0
   -1.3135    0.6042    0.8133 C   0  0  0  0  0  0  0  0  0  0  0  0
    2.6368    0.4948    1.6907 H   0  0  0  0  0  0  0  0  0  0  0  0
    1.5651    1.6454    0.6342 H   0  0  0  0  0  0  0  0  0  0  0  0
    1.9273    0.1856   -1.3725 H   0  0  0  0  0  0  0  0  0  0  0  0
    3.0435   -0.9221   -0.3616 H   0  0  0  0  0  0  0  0  0  0  0  0
    1.1737   -1.4592    1.1795 H   0  0  0  0  0  0  0  0  0  0  0  0
   -0.3453    1.5726   -1.1274 H   0  0  0  0  0  0  0  0  0  0  0  0
   -0.4363   -0.0254   -2.0667 H   0  0  0  0  0  0  0  0  0  0  0  0
   -2.8798    0.4598   -0.8091 H   0  0  0  0  0  0  0  0  0  0  0  0
   -1.9545   -1.5879    0.6495 H   0  0  0  0  0  0  0  0  0  0  0  0
   -1.3014   -1.8153   -1.0906 H   0  0  0  0  0  0  0  0  0  0  0  0
   -1.8174    0.0685    1.6313 H   0  0  0  0  0  0  0  0  0  0  0  0
   -1.0790    1.6560    0.9524 H   0  0  0  0  0  0  0  0  0  0  0  0
  1  2  1  0
  2  3  1  0
  3  4  1  0
  4  5  1  0
  5  6  1  0
  6  7  1  0
  6  8  1  0
  3  1  1  0
  7  4  1  0
  8  4  1  0
  1  9  1  0
  1 10  1  0
  2 11  1  0
  2 12  1  0
  3 13  1  0
  5 14  1  0
  5 15  1  0
  6 16  1  0
  7 17  1  0
  7 18  1  0
  8 19  1  0
  8 20  1  0
M  END
