
     RDKit          3D

 16 17  0  0  0  0  0  0  0  0999 V2000
   -1.3586    0.2011   -0.4010 C   0  0  0  0  0  0  0  0  0  0  0  0
   -0.4688    1.2198    0.2535 C   0  0  0  0  0  0  0  0  0  0  0  0
    0.7462    0.4778    0.7417 C   0  0  0  0  0  0  0  0  0  0  0  0
    1.6385   -0.0237   -0.3671 C   0  0  0  0  0  0  0  0  0  0  0  0
    0.6740   -0.9194    0.2982 C   0  0  0  0  0  0  0  0  0  0  0  0
   -0.7086   -1.1386   -0.2090 C   0  0  0  0  0  0  0  0  0  0  0  0
   -2.3633    0.2587    0.0836 H   0  0  0  0  0  0  0  0  0  0  0  0
   -1.4763    0.4110   -1.4987 H   0  0  0  0  0  0  0  0  0  0  0  0
   -0.9700    1.7842    1.0677 H   0  0  0  0  0  0  0  0  0  0  0  0
   -0.1017    1.9252   -0.5480 H   0  0  0  0  0  0  0  0  0  0  0  0
    1.1472    0.6627    1.7456 H   0  0  0  0  0  0  0  0  0  0  0  0
    2.6919   -0.1020   -0.0951 H   0  0  0  0  0  0  0  0  0  0  0  0
    1.4797    0.3487   -1.4076 H   0  0  0  0  0  0  0  0  0  0  0  0
    1.1151   -1.7211    0.9543 H   0  0  0  0  0  0  0  0  0  0  0  0
   -0.7408   -1.6990   -1.1781 H   0  0  0  0  0  0  0  0  0  0  0  0
   -1.3044   -1.6855    0.5601 H   0  0  0  0  0  0  0  0  0  0  0  0
  1  2  1  0
  2  3  1  0
  3  4  1  0
  4  5  1  0
  5  6  1  0
  6  1  1  0
  5  3  1  0
  1  7  1  0
  1  8  1  0
  2  9  1  0
  2 10  1  0
  3 11  1  0
  4 12  1  0
  4 13  1  0
  5 14  1  0
  6 15  1  0
  6 16  1  0
M  END
