
     RDKit          3D

 19 21  0  0  0  0  0  0  0  0999 V2000
    1.8203   -1.0401   -0.1345 C   0  0  0  0  0  0  0  0  0  0  0  0
    1.6058    0.3128   -0.7141 C   0  0  0  0  0  0  0  0  0  0  0  0
    0.2252    0.7056   -0.2426 C   0  0  0  0  0  0  0  0  0  0  0  0
    0.0933    1.0041    1.1898 C   0  0  0  0  0  0  0  0  0  0  0  0
   -0.1600   -0.3778    0.6672 C   0  0  0  0  0  0  0  0  0  0  0  0
   -1.6045   -0.6626    0.3609 C   0  0  0  0  0  0  0  0  0  0  0  0
   -1.9146    0.2935   -0.7459 C   0  0  0  0  0  0  0  0  0  0  0  0
   -0.7613    0.8877   -1.1636 O   0  0  0  0  0  0  0  0  0  0  0  0
    0.7806   -1.3546    0.6930 O   0  0  0  0  0  0  0  0  0  0  0  0
    1.9788   -1.7562   -0.9701 H   0  0  0  0  0  0  0  0  0  0  0  0
    2.7873   -1.0212    0.4252 H   0  0  0  0  0  0  0  0  0  0  0  0
    2.3061    1.0814   -0.2959 H   0  0  0  0  0  0  0  0  0  0  0  0
    1.6947    0.3301   -1.8263 H   0  0  0  0  0  0  0  0  0  0  0  0
   -0.7783    1.5727    1.6057 H   0  0  0  0  0  0  0  0  0  0  0  0
    1.0293    1.2307    1.7478 H   0  0  0  0  0  0  0  0  0  0  0  0
   -2.1825   -0.3052    1.2650 H   0  0  0  0  0  0  0  0  0  0  0  0
   -1.8324   -1.7049    0.1581 H   0  0  0  0  0  0  0  0  0  0  0  0
   -2.4318   -0.2789   -1.5659 H   0  0  0  0  0  0  0  0  0  0  0  0
   -2.6558    1.0830   -0.4537 H   0  0  0  0  0  0  0  0  0  0  0  0
  1  2  1  0
  2  3  1  0
  3  4  1  0
  4  5  1  0
  5  6  1  0
  6  7  1  0
  7  8  1  0
  5  9  1  0
  9  1  1  0
  5  3  1  0
  8  3  1  0
  1 10  1  0
  1 11  1  0
  2 12  1  0
  2 13  1  0
  4 14  1  0
  4 15  1  0
  6 16  1  0
  6 17  1  0
  7 18  1  0
  7 19  1  0
M  END
