
     RDKit          3D

 18 20  0  0  0  0  0  0  0  0999 V2000
    1.6924   -1.0380    0.3433 C   0  0  0  0  0  0  0  0  0  0  0  0
    2.1202    0.2174   -0.3372 C   0  0  0  0  0  0  0  0  0  0  0  0
    0.9840    0.1841    0.6812 C   0  0  0  0  0  0  0  0  0  0  0  0
   -0.3609    0.5864    0.2132 C   0  0  0  0  0  0  0  0  0  0  0  0
   -1.5085   -0.2982    0.5526 C   0  0  0  0  0  0  0  0  0  0  0  0
   -2.2630    0.3929   -0.5389 C   0  0  0  0  0  0  0  0  0  0  0  0
   -0.8898    0.0490   -1.0582 C   0  0  0  0  0  0  0  0  0  0  0  0
   -1.0551   -1.1674   -0.4163 O   0  0  0  0  0  0  0  0  0  0  0  0
    2.3365   -1.4897    1.1486 H   0  0  0  0  0  0  0  0  0  0  0  0
    1.1678   -1.8138   -0.2403 H   0  0  0  0  0  0  0  0  0  0  0  0
    3.0990    0.6340   -0.0527 H   0  0  0  0  0  0  0  0  0  0  0  0
    1.8730    0.3572   -1.4058 H   0  0  0  0  0  0  0  0  0  0  0  0
    1.2833    0.7125    1.6365 H   0  0  0  0  0  0  0  0  0  0  0  0
   -0.5983    1.6852    0.3136 H   0  0  0  0  0  0  0  0  0  0  0  0
   -1.8514   -0.5336    1.4713 H   0  0  0  0  0  0  0  0  0  0  0  0
   -3.1001   -0.1376   -0.9860 H   0  0  0  0  0  0  0  0  0  0  0  0
   -2.3681    1.4615   -0.3265 H   0  0  0  0  0  0  0  0  0  0  0  0
   -0.5608    0.1982   -1.9984 H   0  0  0  0  0  0  0  0  0  0  0  0
  1  2  1  0
  2  3  1  0
  3  4  1  0
  4  5  1  0
  5  6  1  0
  6  7  1  0
  7  8  1  0
  3  1  1  0
  7  4  1  0
  8  5  1  0
  1  9  1  0
  1 10  1  0
  2 11  1  0
  2 12  1  0
  3 13  1  0
  4 14  1  0
  5 15  1  0
  6 16  1  0
  6 17  1  0
  7 18  1  0
M  END
