
     RDKit          3D

 21 23  0  0  0  0  0  0  0  0999 V2000
    2.1123    0.0634   -0.0047 C   0  0  0  0  0  0  0  0  0  0  0  0
    1.0668   -1.0003    0.0696 C   0  0  0  0  0  0  0  0  0  0  0  0
   -0.2382   -0.6343   -0.5446 C   0  0  0  0  0  0  0  0  0  0  0  0
   -1.5074   -1.2215    0.0180 C   0  0  0  0  0  0  0  0  0  0  0  0
   -1.8248    0.1289    0.6245 C   0  0  0  0  0  0  0  0  0  0  0  0
   -0.6532    0.7128   -0.0990 C   0  0  0  0  0  0  0  0  0  0  0  0
    0.3943    1.4400    0.7137 C   0  0  0  0  0  0  0  0  0  0  0  0
    1.6608    1.3362    0.1916 O   0  0  0  0  0  0  0  0  0  0  0  0
   -0.4026    0.4528   -1.5208 C   0  0  0  0  0  0  0  0  0  0  0  0
    2.9381   -0.2321    0.6884 H   0  0  0  0  0  0  0  0  0  0  0  0
    2.5546    0.0202   -1.0382 H   0  0  0  0  0  0  0  0  0  0  0  0
    0.9042   -1.3012    1.1316 H   0  0  0  0  0  0  0  0  0  0  0  0
    1.4632   -1.9183   -0.4464 H   0  0  0  0  0  0  0  0  0  0  0  0
   -1.3289   -2.0042    0.7683 H   0  0  0  0  0  0  0  0  0  0  0  0
   -2.1836   -1.5015   -0.8283 H   0  0  0  0  0  0  0  0  0  0  0  0
   -1.7256    0.1431    1.7274 H   0  0  0  0  0  0  0  0  0  0  0  0
   -2.8066    0.5239    0.2997 H   0  0  0  0  0  0  0  0  0  0  0  0
    0.3095    1.1270    1.7708 H   0  0  0  0  0  0  0  0  0  0  0  0
    0.1132    2.5273    0.6724 H   0  0  0  0  0  0  0  0  0  0  0  0
    0.4363    0.9833   -1.9860 H   0  0  0  0  0  0  0  0  0  0  0  0
   -1.2821    0.3544   -2.2080 H   0  0  0  0  0  0  0  0  0  0  0  0
  1  2  1  0
  2  3  1  0
  3  4  1  0
  4  5  1  0
  5  6  1  0
  6  7  1  0
  7  8  1  0
  6  9  1  0
  8  1  1  0
  6  3  1  0
  9  3  1  0
  1 10  1  0
  1 11  1  0
  2 12  1  0
  2 13  1  0
  4 14  1  0
  4 15  1  0
  5 16  1  0
  5 17  1  0
  7 18  1  0
  7 19  1  0
  9 20  1  0
  9 21  1  0
M  END
