
     RDKit          3D

 21 23  0  0  0  0  0  0  0  0999 V2000
    2.3245   -0.6484    0.2111 C   0  0  0  0  0  0  0  0  0  0  0  0
    1.2334   -0.2412    1.1482 C   0  0  0  0  0  0  0  0  0  0  0  0
    0.3522    0.6171    0.3195 C   0  0  0  0  0  0  0  0  0  0  0  0
    0.8782    0.4680   -1.0793 C   0  0  0  0  0  0  0  0  0  0  0  0
   -0.4119   -0.2754   -1.4528 C   0  0  0  0  0  0  0  0  0  0  0  0
   -0.9480    0.1076   -0.1251 C   0  0  0  0  0  0  0  0  0  0  0  0
   -1.9472   -0.5812    0.6334 C   0  0  0  0  0  0  0  0  0  0  0  0
   -2.2129    0.8250    0.0789 C   0  0  0  0  0  0  0  0  0  0  0  0
    1.9306   -0.3897   -1.0719 O   0  0  0  0  0  0  0  0  0  0  0  0
    2.6078   -1.7158    0.2799 H   0  0  0  0  0  0  0  0  0  0  0  0
    3.2755   -0.0782    0.3948 H   0  0  0  0  0  0  0  0  0  0  0  0
    0.7445   -1.0625    1.6771 H   0  0  0  0  0  0  0  0  0  0  0  0
    1.7064    0.4027    1.9410 H   0  0  0  0  0  0  0  0  0  0  0  0
    0.3017    1.6770    0.6396 H   0  0  0  0  0  0  0  0  0  0  0  0
    1.0170    1.4187   -1.6095 H   0  0  0  0  0  0  0  0  0  0  0  0
   -0.9775    0.2349   -2.2731 H   0  0  0  0  0  0  0  0  0  0  0  0
   -0.3013   -1.3605   -1.5520 H   0  0  0  0  0  0  0  0  0  0  0  0
   -1.8526   -0.6507    1.7486 H   0  0  0  0  0  0  0  0  0  0  0  0
   -2.6114   -1.3437    0.1801 H   0  0  0  0  0  0  0  0  0  0  0  0
   -2.8705    0.9297   -0.7940 H   0  0  0  0  0  0  0  0  0  0  0  0
   -2.2383    1.6667    0.8127 H   0  0  0  0  0  0  0  0  0  0  0  0
  1  2  1  0
  2  3  1  0
  3  4  1  0
  4  5  1  0
  5  6  1  0
  6  7  1  0
  7  8  1  0
  4  9  1  0
  9  1  1  0
  6  3  1  0
  8  6  1  0
  1 10  1  0
  1 11  1  0
  2 12  1  0
  2 13  1  0
  3 14  1  0
  4 15  1  0
  5 16  1  0
  5 17  1  0
  7 18  1  0
  7 19  1  0
  8 20  1  0
  8 21  1  0
M  END
