
     RDKit          3D

 21 23  0  0  0  0  0  0  0  0999 V2000
   -0.1895    1.5265   -0.7109 C   0  0  0  0  0  0  0  0  0  0  0  0
   -1.4509    0.9157   -0.0972 C   0  0  0  0  0  0  0  0  0  0  0  0
   -0.9262   -0.2199    0.7318 C   0  0  0  0  0  0  0  0  0  0  0  0
   -1.5300   -1.5258    0.2947 C   0  0  0  0  0  0  0  0  0  0  0  0
   -0.4683   -1.7815   -0.5915 O   0  0  0  0  0  0  0  0  0  0  0  0
    0.2035   -0.7471   -0.0597 C   0  0  0  0  0  0  0  0  0  0  0  0
    1.5176   -0.9366    0.5717 C   0  0  0  0  0  0  0  0  0  0  0  0
    1.9150    0.4414    0.0320 C   0  0  0  0  0  0  0  0  0  0  0  0
    0.7121    0.3463   -0.9186 C   0  0  0  0  0  0  0  0  0  0  0  0
    0.1956    2.2327    0.0735 H   0  0  0  0  0  0  0  0  0  0  0  0
   -0.4066    2.0983   -1.6232 H   0  0  0  0  0  0  0  0  0  0  0  0
   -2.0295    1.6579    0.4581 H   0  0  0  0  0  0  0  0  0  0  0  0
   -2.0764    0.5530   -0.9378 H   0  0  0  0  0  0  0  0  0  0  0  0
   -0.8053   -0.0541    1.8003 H   0  0  0  0  0  0  0  0  0  0  0  0
   -1.6047   -2.2139    1.1464 H   0  0  0  0  0  0  0  0  0  0  0  0
   -2.4670   -1.3870   -0.2985 H   0  0  0  0  0  0  0  0  0  0  0  0
    1.5766   -1.0177    1.6693 H   0  0  0  0  0  0  0  0  0  0  0  0
    2.1473   -1.6929    0.0330 H   0  0  0  0  0  0  0  0  0  0  0  0
    2.8818    0.4806   -0.4713 H   0  0  0  0  0  0  0  0  0  0  0  0
    1.7795    1.2033    0.8361 H   0  0  0  0  0  0  0  0  0  0  0  0
    1.0255    0.1209   -1.9380 H   0  0  0  0  0  0  0  0  0  0  0  0
  1  2  1  0
  2  3  1  0
  3  4  1  0
  4  5  1  0
  5  6  1  0
  6  7  1  0
  7  8  1  0
  8  9  1  0
  9  1  1  0
  6  3  1  0
  9  6  1  0
  1 10  1  0
  1 11  1  0
  2 12  1  0
  2 13  1  0
  3 14  1  0
  4 15  1  0
  4 16  1  0
  7 17  1  0
  7 18  1  0
  8 19  1  0
  8 20  1  0
  9 21  1  0
M  END
