
     RDKit          3D

 19 21  0  0  0  0  0  0  0  0999 V2000
   -1.2845   -1.2670   -0.1019 C   0  0  0  0  0  0  0  0  0  0  0  0
   -1.4915   -0.3011    1.0755 C   0  0  0  0  0  0  0  0  0  0  0  0
   -0.6796    0.0371   -0.0665 C   0  0  0  0  0  0  0  0  0  0  0  0
   -0.9768    1.1722   -0.9804 C   0  0  0  0  0  0  0  0  0  0  0  0
    0.3615    1.5869   -0.8514 O   0  0  0  0  0  0  0  0  0  0  0  0
    0.6811    0.4493   -0.1789 C   0  0  0  0  0  0  0  0  0  0  0  0
    1.7450   -0.4323   -0.7120 C   0  0  0  0  0  0  0  0  0  0  0  0
    2.6743    0.2769    0.0776 O   0  0  0  0  0  0  0  0  0  0  0  0
    1.6033    0.5107    0.9673 C   0  0  0  0  0  0  0  0  0  0  0  0
   -2.2066   -1.4336   -0.7124 H   0  0  0  0  0  0  0  0  0  0  0  0
   -0.6628   -2.1606    0.0596 H   0  0  0  0  0  0  0  0  0  0  0  0
   -2.5038    0.1970    1.1413 H   0  0  0  0  0  0  0  0  0  0  0  0
   -1.1456   -0.7197    2.0279 H   0  0  0  0  0  0  0  0  0  0  0  0
   -1.1562    0.8304   -2.0307 H   0  0  0  0  0  0  0  0  0  0  0  0
   -1.7228    1.9081   -0.6218 H   0  0  0  0  0  0  0  0  0  0  0  0
    1.6683   -1.4900   -0.3833 H   0  0  0  0  0  0  0  0  0  0  0  0
    1.8745   -0.2969   -1.7988 H   0  0  0  0  0  0  0  0  0  0  0  0
    1.7399    1.4911    1.4443 H   0  0  0  0  0  0  0  0  0  0  0  0
    1.4823   -0.3586    1.6447 H   0  0  0  0  0  0  0  0  0  0  0  0
  1  2  1  0
  2  3  1  0
  3  4  1  0
  4  5  1  0
  5  6  1  0
  6  7  1  0
  7  8  1  0
  8  9  1  0
  3  1  1  0
  9  6  1  0
  6  3  1  0
  1 10  1  0
  1 11  1  0
  2 12  1  0
  2 13  1  0
  4 14  1  0
  4 15  1  0
  7 16  1  0
  7 17  1  0
  9 18  1  0
  9 19  1  0
M  END
