
     RDKit          3D

 21 23  0  0  0  0  0  0  0  0999 V2000
    2.0522    1.3632    0.0651 C   0  0  0  0  0  0  0  0  0  0  0  0
    2.8581    0.0849    0.0493 C   0  0  0  0  0  0  0  0  0  0  0  0
    1.3532    0.1199   -0.2956 C   0  0  0  0  0  0  0  0  0  0  0  0
    0.4830   -0.6227    0.6676 C   0  0  0  0  0  0  0  0  0  0  0  0
   -0.7006    0.1337    1.2162 C   0  0  0  0  0  0  0  0  0  0  0  0
   -1.3646   -0.5986    0.1178 C   0  0  0  0  0  0  0  0  0  0  0  0
   -2.0332    0.0387   -1.0048 C   0  0  0  0  0  0  0  0  0  0  0  0
   -2.7695   -0.8966    0.0015 C   0  0  0  0  0  0  0  0  0  0  0  0
   -0.3447   -1.5232   -0.0082 O   0  0  0  0  0  0  0  0  0  0  0  0
    1.8141    1.8367    1.0378 H   0  0  0  0  0  0  0  0  0  0  0  0
    2.2593    2.1213   -0.7267 H   0  0  0  0  0  0  0  0  0  0  0  0
    3.1519   -0.3465    1.0152 H   0  0  0  0  0  0  0  0  0  0  0  0
    3.5410   -0.1131   -0.7991 H   0  0  0  0  0  0  0  0  0  0  0  0
    1.1253    0.0125   -1.3973 H   0  0  0  0  0  0  0  0  0  0  0  0
    1.0241   -1.1105    1.5219 H   0  0  0  0  0  0  0  0  0  0  0  0
   -0.9974   -0.1356    2.2550 H   0  0  0  0  0  0  0  0  0  0  0  0
   -0.7122    1.2105    1.0784 H   0  0  0  0  0  0  0  0  0  0  0  0
   -2.2789    1.1341   -0.8822 H   0  0  0  0  0  0  0  0  0  0  0  0
   -1.8523   -0.3535   -2.0084 H   0  0  0  0  0  0  0  0  0  0  0  0
   -3.5646   -0.4607    0.6017 H   0  0  0  0  0  0  0  0  0  0  0  0
   -3.0444   -1.8946   -0.4507 H   0  0  0  0  0  0  0  0  0  0  0  0
  1  2  1  0
  2  3  1  0
  3  4  1  0
  4  5  1  0
  5  6  1  0
  6  7  1  0
  7  8  1  0
  6  9  1  0
  3  1  1  0
  9  4  1  0
  8  6  1  0
  1 10  1  0
  1 11  1  0
  2 12  1  0
  2 13  1  0
  3 14  1  0
  4 15  1  0
  5 16  1  0
  5 17  1  0
  7 18  1  0
  7 19  1  0
  8 20  1  0
  8 21  1  0
M  END
