
     RDKit          3D

 21 23  0  0  0  0  0  0  0  0999 V2000
    1.7453    0.3123   -0.0222 C   0  0  0  0  0  0  0  0  0  0  0  0
    1.1175   -0.9509   -0.5165 C   0  0  0  0  0  0  0  0  0  0  0  0
    0.0859   -1.5090    0.4171 C   0  0  0  0  0  0  0  0  0  0  0  0
   -1.3050   -1.0448    0.1236 C   0  0  0  0  0  0  0  0  0  0  0  0
   -1.6319   -0.0978   -0.9442 C   0  0  0  0  0  0  0  0  0  0  0  0
   -0.7639    0.8559   -1.3935 O   0  0  0  0  0  0  0  0  0  0  0  0
   -0.5545    1.3427   -0.1209 C   0  0  0  0  0  0  0  0  0  0  0  0
    0.8279    1.3856    0.3906 C   0  0  0  0  0  0  0  0  0  0  0  0
   -1.4630    0.3635    0.5232 C   0  0  0  0  0  0  0  0  0  0  0  0
    2.4874    0.6354   -0.7940 H   0  0  0  0  0  0  0  0  0  0  0  0
    2.3808    0.0299    0.8676 H   0  0  0  0  0  0  0  0  0  0  0  0
    1.9542   -1.7132   -0.5483 H   0  0  0  0  0  0  0  0  0  0  0  0
    0.7727   -0.8957   -1.5754 H   0  0  0  0  0  0  0  0  0  0  0  0
    0.0976   -2.6306    0.4109 H   0  0  0  0  0  0  0  0  0  0  0  0
    0.3312   -1.1823    1.4504 H   0  0  0  0  0  0  0  0  0  0  0  0
   -2.0971   -1.7342    0.4422 H   0  0  0  0  0  0  0  0  0  0  0  0
   -2.6693   -0.0633   -1.3083 H   0  0  0  0  0  0  0  0  0  0  0  0
   -1.0137    2.3759   -0.0568 H   0  0  0  0  0  0  0  0  0  0  0  0
    1.2810    2.3717    0.0728 H   0  0  0  0  0  0  0  0  0  0  0  0
    0.7775    1.4760    1.5159 H   0  0  0  0  0  0  0  0  0  0  0  0
   -2.3606    0.6728    1.0658 H   0  0  0  0  0  0  0  0  0  0  0  0
  1  2  1  0
  2  3  1  0
  3  4  1  0
  4  5  1  0
  5  6  1  0
  6  7  1  0
  7  8  1  0
  7  9  1  0
  8  1  1  0
  9  4  1  0
  9  5  1  0
  1 10  1  0
  1 11  1  0
  2 12  1  0
  2 13  1  0
  3 14  1  0
  3 15  1  0
  4 16  1  0
  5 17  1  0
  7 18  1  0
  8 19  1  0
  8 20  1  0
  9 21  1  0
M  END
