
     RDKit          3D

 19 21  0  0  0  0  0  0  0  0999 V2000
    2.2014    0.4794    0.1352 C   0  0  0  0  0  0  0  0  0  0  0  0
    1.3288   -0.7420    0.4673 C   0  0  0  0  0  0  0  0  0  0  0  0
    0.0521   -0.3342   -0.1673 C   0  0  0  0  0  0  0  0  0  0  0  0
   -0.7770   -1.1420   -1.0212 C   0  0  0  0  0  0  0  0  0  0  0  0
   -1.2752   -0.6605    0.3445 C   0  0  0  0  0  0  0  0  0  0  0  0
   -1.9797    0.6806    0.4013 C   0  0  0  0  0  0  0  0  0  0  0  0
   -1.0040    1.6458    0.4701 O   0  0  0  0  0  0  0  0  0  0  0  0
    0.1239    1.1585   -0.1925 C   0  0  0  0  0  0  0  0  0  0  0  0
    1.3016    1.5114    0.4939 O   0  0  0  0  0  0  0  0  0  0  0  0
    3.1065    0.5117    0.7328 H   0  0  0  0  0  0  0  0  0  0  0  0
    2.3408    0.4554   -0.9527 H   0  0  0  0  0  0  0  0  0  0  0  0
    1.1878   -0.6906    1.5810 H   0  0  0  0  0  0  0  0  0  0  0  0
    1.7680   -1.6725    0.1217 H   0  0  0  0  0  0  0  0  0  0  0  0
   -1.3150   -0.6784   -1.8864 H   0  0  0  0  0  0  0  0  0  0  0  0
   -0.5687   -2.2053   -1.1295 H   0  0  0  0  0  0  0  0  0  0  0  0
   -1.4956   -1.4371    1.0759 H   0  0  0  0  0  0  0  0  0  0  0  0
   -2.6631    0.7235    1.2649 H   0  0  0  0  0  0  0  0  0  0  0  0
   -2.5580    0.8046   -0.5363 H   0  0  0  0  0  0  0  0  0  0  0  0
    0.2254    1.5918   -1.2027 H   0  0  0  0  0  0  0  0  0  0  0  0
  1  2  1  0
  2  3  1  0
  3  4  1  0
  4  5  1  0
  5  6  1  0
  6  7  1  0
  7  8  1  0
  8  9  1  0
  9  1  1  0
  5  3  1  0
  8  3  1  0
  1 10  1  0
  1 11  1  0
  2 12  1  0
  2 13  1  0
  4 14  1  0
  4 15  1  0
  5 16  1  0
  6 17  1  0
  6 18  1  0
  8 19  1  0
M  END
