
     RDKit          3D

 20 20  0  0  0  0  0  0  0  0999 V2000
   -1.5416    0.1935    0.4557 C   0  0  0  0  0  0  0  0  0  0  0  0
   -1.2699   -1.0658   -0.3183 C   0  0  0  0  0  0  0  0  0  0  0  0
    0.0998   -1.6428   -0.0242 C   0  0  0  0  0  0  0  0  0  0  0  0
    1.0806   -1.1408   -0.8626 O   0  0  0  0  0  0  0  0  0  0  0  0
    1.8557   -0.2425   -0.1125 C   0  0  0  0  0  0  0  0  0  0  0  0
    1.3824    1.1805   -0.2803 C   0  0  0  0  0  0  0  0  0  0  0  0
    0.1620    1.1232   -0.9761 O   0  0  0  0  0  0  0  0  0  0  0  0
   -0.8410    1.3955   -0.0702 C   0  0  0  0  0  0  0  0  0  0  0  0
   -2.6474    0.3864    0.3704 H   0  0  0  0  0  0  0  0  0  0  0  0
   -1.3221   -0.0123    1.5167 H   0  0  0  0  0  0  0  0  0  0  0  0
   -2.0077   -1.8338    0.0583 H   0  0  0  0  0  0  0  0  0  0  0  0
   -1.4413   -0.9443   -1.4071 H   0  0  0  0  0  0  0  0  0  0  0  0
    0.3017   -1.3985    1.0588 H   0  0  0  0  0  0  0  0  0  0  0  0
    0.1031   -2.7476   -0.0800 H   0  0  0  0  0  0  0  0  0  0  0  0
    1.7712   -0.5065    0.9651 H   0  0  0  0  0  0  0  0  0  0  0  0
    2.9137   -0.2951   -0.4046 H   0  0  0  0  0  0  0  0  0  0  0  0
    1.2566    1.6779    0.7135 H   0  0  0  0  0  0  0  0  0  0  0  0
    2.1271    1.7960   -0.8331 H   0  0  0  0  0  0  0  0  0  0  0  0
   -0.4374    1.9649    0.8094 H   0  0  0  0  0  0  0  0  0  0  0  0
   -1.5455    2.1122   -0.5790 H   0  0  0  0  0  0  0  0  0  0  0  0
  1  2  1  0
  2  3  1  0
  3  4  1  0
  4  5  1  0
  5  6  1  0
  6  7  1  0
  7  8  1  0
  8  1  1  0
  1  9  1  0
  1 10  1  0
  2 11  1  0
  2 12  1  0
  3 13  1  0
  3 14  1  0
  5 15  1  0
  5 16  1  0
  6 17  1  0
  6 18  1  0
  8 19  1  0
  8 20  1  0
M  END
