
     RDKit          3D

 21 23  0  0  0  0  0  0  0  0999 V2000
    2.6285    0.2965    0.1488 C   0  0  0  0  0  0  0  0  0  0  0  0
    1.9562   -0.9113   -0.5200 C   0  0  0  0  0  0  0  0  0  0  0  0
    0.7868   -0.1177   -0.1669 C   0  0  0  0  0  0  0  0  0  0  0  0
   -0.0652   -0.5558    0.9989 C   0  0  0  0  0  0  0  0  0  0  0  0
   -1.1908    0.0640    0.2440 C   0  0  0  0  0  0  0  0  0  0  0  0
   -2.5795   -0.0688    0.4702 C   0  0  0  0  0  0  0  0  0  0  0  0
   -1.8486    1.3058    0.6034 C   0  0  0  0  0  0  0  0  0  0  0  0
   -0.4333   -0.1581   -1.0259 C   0  0  0  0  0  0  0  0  0  0  0  0
    1.4534    1.0619   -0.0441 O   0  0  0  0  0  0  0  0  0  0  0  0
    2.7566    0.1382    1.2307 H   0  0  0  0  0  0  0  0  0  0  0  0
    3.4577    0.7242   -0.4064 H   0  0  0  0  0  0  0  0  0  0  0  0
    2.2047   -0.8705   -1.6024 H   0  0  0  0  0  0  0  0  0  0  0  0
    2.1462   -1.8611   -0.0164 H   0  0  0  0  0  0  0  0  0  0  0  0
   -0.1627   -1.6737    1.0353 H   0  0  0  0  0  0  0  0  0  0  0  0
    0.1649   -0.0843    1.9562 H   0  0  0  0  0  0  0  0  0  0  0  0
   -2.9610   -0.4514    1.4587 H   0  0  0  0  0  0  0  0  0  0  0  0
   -3.3421   -0.1033   -0.3091 H   0  0  0  0  0  0  0  0  0  0  0  0
   -1.7798    1.7315    1.6086 H   0  0  0  0  0  0  0  0  0  0  0  0
   -2.0369    2.0276   -0.2247 H   0  0  0  0  0  0  0  0  0  0  0  0
   -0.6241   -1.1387   -1.5302 H   0  0  0  0  0  0  0  0  0  0  0  0
   -0.5309    0.6450   -1.7851 H   0  0  0  0  0  0  0  0  0  0  0  0
  1  2  1  0
  2  3  1  0
  3  4  1  0
  4  5  1  0
  5  6  1  0
  6  7  1  0
  5  8  1  0
  3  9  1  0
  9  1  1  0
  8  3  1  0
  7  5  1  0
  1 10  1  0
  1 11  1  0
  2 12  1  0
  2 13  1  0
  4 14  1  0
  4 15  1  0
  6 16  1  0
  6 17  1  0
  7 18  1  0
  7 19  1  0
  8 20  1  0
  8 21  1  0
M  END
