
     RDKit          3D

 23 24  0  0  0  0  0  0  0  0999 V2000
   -2.5472    0.1629   -0.0719 C   0  0  0  0  0  0  0  0  0  0  0  0
   -1.3944    1.1342    0.1745 C   0  0  0  0  0  0  0  0  0  0  0  0
   -0.2611    0.2853    0.7458 C   0  0  0  0  0  0  0  0  0  0  0  0
    0.2463   -0.5394   -0.4418 C   0  0  0  0  0  0  0  0  0  0  0  0
    1.4091    0.2207   -1.0187 C   0  0  0  0  0  0  0  0  0  0  0  0
    2.5457    0.4220   -0.0201 C   0  0  0  0  0  0  0  0  0  0  0  0
    2.7177   -0.3875   -1.2516 C   0  0  0  0  0  0  0  0  0  0  0  0
   -0.7679   -0.7463   -1.3600 O   0  0  0  0  0  0  0  0  0  0  0  0
   -1.9124   -1.1074   -0.6164 C   0  0  0  0  0  0  0  0  0  0  0  0
   -3.0595   -0.0114    0.8995 H   0  0  0  0  0  0  0  0  0  0  0  0
   -3.2228    0.6184   -0.8221 H   0  0  0  0  0  0  0  0  0  0  0  0
   -1.1104    1.5303   -0.8141 H   0  0  0  0  0  0  0  0  0  0  0  0
   -1.6550    1.9035    0.9158 H   0  0  0  0  0  0  0  0  0  0  0  0
    0.5573    0.9341    1.1503 H   0  0  0  0  0  0  0  0  0  0  0  0
   -0.6220   -0.3961    1.5324 H   0  0  0  0  0  0  0  0  0  0  0  0
    0.5453   -1.5378   -0.0409 H   0  0  0  0  0  0  0  0  0  0  0  0
    1.1236    1.0683   -1.6687 H   0  0  0  0  0  0  0  0  0  0  0  0
    2.5089   -0.1011    0.9452 H   0  0  0  0  0  0  0  0  0  0  0  0
    2.8809    1.4684    0.0523 H   0  0  0  0  0  0  0  0  0  0  0  0
    2.8266   -1.4898   -1.1313 H   0  0  0  0  0  0  0  0  0  0  0  0
    3.3681    0.0245   -2.0462 H   0  0  0  0  0  0  0  0  0  0  0  0
   -2.6080   -1.7233   -1.1904 H   0  0  0  0  0  0  0  0  0  0  0  0
   -1.5688   -1.7326    0.2476 H   0  0  0  0  0  0  0  0  0  0  0  0
  1  2  1  0
  2  3  1  0
  3  4  1  0
  4  5  1  0
  5  6  1  0
  6  7  1  0
  4  8  1  0
  8  9  1  0
  9  1  1  0
  7  5  1  0
  1 10  1  0
  1 11  1  0
  2 12  1  0
  2 13  1  0
  3 14  1  0
  3 15  1  0
  4 16  1  0
  5 17  1  0
  6 18  1  0
  6 19  1  0
  7 20  1  0
  7 21  1  0
  9 22  1  0
  9 23  1  0
M  END
