
     RDKit          3D

 23 24  0  0  0  0  0  0  0  0999 V2000
   -2.3405    0.1836    1.1084 C   0  0  0  0  0  0  0  0  0  0  0  0
   -2.6521    0.1009   -0.3932 C   0  0  0  0  0  0  0  0  0  0  0  0
   -1.3334   -0.3150   -0.9738 C   0  0  0  0  0  0  0  0  0  0  0  0
   -0.2955    0.0945    0.0027 C   0  0  0  0  0  0  0  0  0  0  0  0
    0.9863   -0.1881   -0.0591 C   0  0  0  0  0  0  0  0  0  0  0  0
    1.8658   -0.9337   -0.9884 C   0  0  0  0  0  0  0  0  0  0  0  0
    2.9901    0.0127   -0.5487 C   0  0  0  0  0  0  0  0  0  0  0  0
    2.1918    0.0917    0.7601 C   0  0  0  0  0  0  0  0  0  0  0  0
   -1.0024    0.8923    1.0688 C   0  0  0  0  0  0  0  0  0  0  0  0
   -2.2038   -0.8034    1.5464 H   0  0  0  0  0  0  0  0  0  0  0  0
   -3.1068    0.7894    1.6283 H   0  0  0  0  0  0  0  0  0  0  0  0
   -3.4768   -0.5886   -0.6025 H   0  0  0  0  0  0  0  0  0  0  0  0
   -2.9143    1.1661   -0.6649 H   0  0  0  0  0  0  0  0  0  0  0  0
   -1.3706   -1.4125   -1.1297 H   0  0  0  0  0  0  0  0  0  0  0  0
   -1.2285    0.1931   -1.9572 H   0  0  0  0  0  0  0  0  0  0  0  0
    1.6129   -0.8862   -2.0503 H   0  0  0  0  0  0  0  0  0  0  0  0
    2.1114   -1.9589   -0.6084 H   0  0  0  0  0  0  0  0  0  0  0  0
    2.9903    0.9765   -1.1138 H   0  0  0  0  0  0  0  0  0  0  0  0
    3.9715   -0.4508   -0.4589 H   0  0  0  0  0  0  0  0  0  0  0  0
    2.4930   -0.7430    1.4355 H   0  0  0  0  0  0  0  0  0  0  0  0
    2.2241    1.0838    1.2412 H   0  0  0  0  0  0  0  0  0  0  0  0
   -0.4420    0.7609    2.0147 H   0  0  0  0  0  0  0  0  0  0  0  0
   -1.0706    1.9346    0.7428 H   0  0  0  0  0  0  0  0  0  0  0  0
  1  2  1  0
  2  3  1  0
  3  4  1  0
  4  5  2  3
  5  6  1  0
  6  7  1  0
  7  8  1  0
  4  9  1  0
  9  1  1  0
  8  5  1  0
  1 10  1  0
  1 11  1  0
  2 12  1  0
  2 13  1  0
  3 14  1  0
  3 15  1  0
  6 16  1  0
  6 17  1  0
  7 18  1  0
  7 19  1  0
  8 20  1  0
  8 21  1  0
  9 22  1  0
  9 23  1  0
M  END
