
     RDKit          3D

 15 17  0  0  0  0  0  0  0  0999 V2000
   -1.2723   -0.4497    0.3048 C   0  0  0  0  0  0  0  0  0  0  0  0
   -0.9190    0.9973    0.2902 C   0  0  0  0  0  0  0  0  0  0  0  0
    0.5954    0.9797    0.3486 C   0  0  0  0  0  0  0  0  0  0  0  0
    1.3275   -0.2352    0.7628 C   0  0  0  0  0  0  0  0  0  0  0  0
    0.8057   -1.4956    0.7347 O   0  0  0  0  0  0  0  0  0  0  0  0
   -0.0686   -1.1323   -0.3148 C   0  0  0  0  0  0  0  0  0  0  0  0
    0.9155   -0.0501   -0.6291 C   0  0  0  0  0  0  0  0  0  0  0  0
   -1.4465   -0.8177    1.3558 H   0  0  0  0  0  0  0  0  0  0  0  0
   -2.1626   -0.6682   -0.3171 H   0  0  0  0  0  0  0  0  0  0  0  0
   -1.3792    1.5956    1.0756 H   0  0  0  0  0  0  0  0  0  0  0  0
   -1.1794    1.3926   -0.7352 H   0  0  0  0  0  0  0  0  0  0  0  0
    1.1554    1.9090    0.3260 H   0  0  0  0  0  0  0  0  0  0  0  0
    2.3634   -0.1350    1.0682 H   0  0  0  0  0  0  0  0  0  0  0  0
   -0.2589   -1.8907   -1.0570 H   0  0  0  0  0  0  0  0  0  0  0  0
    1.5236    0.0002   -1.4937 H   0  0  0  0  0  0  0  0  0  0  0  0
  1  2  1  0
  2  3  1  0
  3  4  1  0
  4  5  1  0
  5  6  1  0
  6  7  1  0
  6  1  1  0
  7  3  1  0
  7  4  1  0
  1  8  1  0
  1  9  1  0
  2 10  1  0
  2 11  1  0
  3 12  1  0
  4 13  1  0
  6 14  1  0
  7 15  1  0
M  END
