
     RDKit          3D

 23 25  0  0  0  0  0  0  0  0999 V2000
   -2.6484    0.6105   -0.4128 C   0  0  0  0  0  0  0  0  0  0  0  0
   -2.8683   -0.8557   -0.2227 C   0  0  0  0  0  0  0  0  0  0  0  0
   -1.7510   -0.4039   -1.0899 C   0  0  0  0  0  0  0  0  0  0  0  0
   -0.3207   -0.5384   -0.6445 C   0  0  0  0  0  0  0  0  0  0  0  0
    0.0179   -0.9088    0.7517 C   0  0  0  0  0  0  0  0  0  0  0  0
    0.3088    0.4383    0.2660 C   0  0  0  0  0  0  0  0  0  0  0  0
    1.7247    0.8796   -0.0774 C   0  0  0  0  0  0  0  0  0  0  0  0
    2.8300   -0.0762   -0.1578 C   0  0  0  0  0  0  0  0  0  0  0  0
    2.7621    0.8604    1.0152 C   0  0  0  0  0  0  0  0  0  0  0  0
   -3.3549    1.2092   -1.0285 H   0  0  0  0  0  0  0  0  0  0  0  0
   -2.3004    1.1493    0.4798 H   0  0  0  0  0  0  0  0  0  0  0  0
   -3.7846   -1.2980   -0.7107 H   0  0  0  0  0  0  0  0  0  0  0  0
   -2.6774   -1.3084    0.7702 H   0  0  0  0  0  0  0  0  0  0  0  0
   -1.9510   -0.4876   -2.1821 H   0  0  0  0  0  0  0  0  0  0  0  0
    0.3538   -1.0087   -1.4123 H   0  0  0  0  0  0  0  0  0  0  0  0
   -0.7974   -1.0514    1.5189 H   0  0  0  0  0  0  0  0  0  0  0  0
    0.8898   -1.5609    0.9640 H   0  0  0  0  0  0  0  0  0  0  0  0
   -0.2794    1.2664    0.7294 H   0  0  0  0  0  0  0  0  0  0  0  0
    1.7276    1.8225   -0.6846 H   0  0  0  0  0  0  0  0  0  0  0  0
    2.5995   -1.1355   -0.0644 H   0  0  0  0  0  0  0  0  0  0  0  0
    3.6456    0.1968   -0.8906 H   0  0  0  0  0  0  0  0  0  0  0  0
    2.4002    0.4982    2.0008 H   0  0  0  0  0  0  0  0  0  0  0  0
    3.4737    1.7023    1.0823 H   0  0  0  0  0  0  0  0  0  0  0  0
  1  2  1  0
  2  3  1  0
  3  4  1  0
  4  5  1  0
  5  6  1  0
  6  7  1  0
  7  8  1  0
  8  9  1  0
  3  1  1  0
  6  4  1  0
  9  7  1  0
  1 10  1  0
  1 11  1  0
  2 12  1  0
  2 13  1  0
  3 14  1  0
  4 15  1  0
  5 16  1  0
  5 17  1  0
  6 18  1  0
  7 19  1  0
  8 20  1  0
  8 21  1  0
  9 22  1  0
  9 23  1  0
M  END
