
     RDKit          3D

 18 19  0  0  0  0  0  0  0  0999 V2000
    1.8836    0.7584    0.7080 C   0  0  0  0  0  0  0  0  0  0  0  0
    0.4995    0.3772    1.2422 C   0  0  0  0  0  0  0  0  0  0  0  0
    0.0897   -0.6524    0.2229 C   0  0  0  0  0  0  0  0  0  0  0  0
   -1.3701   -0.8056    0.0489 C   0  0  0  0  0  0  0  0  0  0  0  0
   -2.2277    0.2548   -0.3667 C   0  0  0  0  0  0  0  0  0  0  0  0
   -1.7397   -0.6600   -1.3982 O   0  0  0  0  0  0  0  0  0  0  0  0
    0.8292   -0.2109   -1.0063 C   0  0  0  0  0  0  0  0  0  0  0  0
    1.6276    0.8604   -0.6471 O   0  0  0  0  0  0  0  0  0  0  0  0
    2.6282   -0.0223    0.8854 H   0  0  0  0  0  0  0  0  0  0  0  0
    2.2119    1.7277    1.1151 H   0  0  0  0  0  0  0  0  0  0  0  0
    0.5821   -0.0290    2.2607 H   0  0  0  0  0  0  0  0  0  0  0  0
   -0.1171    1.3059    1.1866 H   0  0  0  0  0  0  0  0  0  0  0  0
    0.5437   -1.6251    0.5493 H   0  0  0  0  0  0  0  0  0  0  0  0
   -1.8416   -1.7751    0.3731 H   0  0  0  0  0  0  0  0  0  0  0  0
   -1.8859    1.2954   -0.4812 H   0  0  0  0  0  0  0  0  0  0  0  0
   -3.3374    0.1469   -0.3000 H   0  0  0  0  0  0  0  0  0  0  0  0
    0.1248    0.0609   -1.8166 H   0  0  0  0  0  0  0  0  0  0  0  0
    1.4991   -1.0071   -1.3975 H   0  0  0  0  0  0  0  0  0  0  0  0
  1  2  1  0
  2  3  1  0
  3  4  1  0
  4  5  1  0
  5  6  1  0
  3  7  1  0
  7  8  1  0
  8  1  1  0
  6  4  1  0
  1  9  1  0
  1 10  1  0
  2 11  1  0
  2 12  1  0
  3 13  1  0
  4 14  1  0
  5 15  1  0
  5 16  1  0
  7 17  1  0
  7 18  1  0
M  END
