
     RDKit          3D

 21 23  0  0  0  0  0  0  0  0999 V2000
    1.3839   -1.2395   -0.0293 C   0  0  0  0  0  0  0  0  0  0  0  0
    0.8738   -0.3342    1.1124 C   0  0  0  0  0  0  0  0  0  0  0  0
    0.8938    0.9519    0.3782 C   0  0  0  0  0  0  0  0  0  0  0  0
   -0.0527    1.7269   -0.3115 C   0  0  0  0  0  0  0  0  0  0  0  0
   -0.0940    0.3879   -0.7273 C   0  0  0  0  0  0  0  0  0  0  0  0
   -1.2796   -0.4297   -0.1939 C   0  0  0  0  0  0  0  0  0  0  0  0
   -2.2546    0.1531    0.7296 C   0  0  0  0  0  0  0  0  0  0  0  0
   -2.5022    0.3707   -0.5910 O   0  0  0  0  0  0  0  0  0  0  0  0
    0.9206   -0.5235   -1.3162 C   0  0  0  0  0  0  0  0  0  0  0  0
    2.4775   -1.1527    0.0021 H   0  0  0  0  0  0  0  0  0  0  0  0
    0.9834   -2.2462    0.0426 H   0  0  0  0  0  0  0  0  0  0  0  0
    1.6141   -0.2869    1.9348 H   0  0  0  0  0  0  0  0  0  0  0  0
   -0.0698   -0.6665    1.5143 H   0  0  0  0  0  0  0  0  0  0  0  0
    1.9660    1.1089    0.0283 H   0  0  0  0  0  0  0  0  0  0  0  0
   -0.9088    2.1698    0.2469 H   0  0  0  0  0  0  0  0  0  0  0  0
    0.2892    2.4924   -1.0728 H   0  0  0  0  0  0  0  0  0  0  0  0
   -1.4765   -1.4359   -0.6195 H   0  0  0  0  0  0  0  0  0  0  0  0
   -1.9788    0.9276    1.4442 H   0  0  0  0  0  0  0  0  0  0  0  0
   -2.9465   -0.6069    1.1985 H   0  0  0  0  0  0  0  0  0  0  0  0
    1.7456   -0.0512   -1.8390 H   0  0  0  0  0  0  0  0  0  0  0  0
    0.4156   -1.3160   -1.9314 H   0  0  0  0  0  0  0  0  0  0  0  0
  1  2  1  0
  2  3  1  0
  3  4  1  0
  4  5  1  0
  5  6  1  0
  6  7  1  0
  7  8  1  0
  5  9  1  0
  9  1  1  0
  5  3  1  0
  8  6  1  0
  1 10  1  0
  1 11  1  0
  2 12  1  0
  2 13  1  0
  3 14  1  0
  4 15  1  0
  4 16  1  0
  6 17  1  0
  7 18  1  0
  7 19  1  0
  9 20  1  0
  9 21  1  0
M  END
