
     RDKit          3D

 21 23  0  0  0  0  0  0  0  0999 V2000
    2.0551   -0.0073    0.0521 C   0  0  0  0  0  0  0  0  0  0  0  0
    1.1189   -1.1572    0.3741 C   0  0  0  0  0  0  0  0  0  0  0  0
   -0.1210   -0.9063   -0.3699 C   0  0  0  0  0  0  0  0  0  0  0  0
   -1.4439   -1.2679    0.1122 C   0  0  0  0  0  0  0  0  0  0  0  0
   -1.8023    0.2079   -0.1542 C   0  0  0  0  0  0  0  0  0  0  0  0
   -1.2910    1.0682    0.9191 C   0  0  0  0  0  0  0  0  0  0  0  0
   -0.4208    0.5498   -0.1200 C   0  0  0  0  0  0  0  0  0  0  0  0
    0.4503    1.3467   -0.9537 C   0  0  0  0  0  0  0  0  0  0  0  0
    1.6829    0.7089   -1.0731 O   0  0  0  0  0  0  0  0  0  0  0  0
    3.0411   -0.4626   -0.1849 H   0  0  0  0  0  0  0  0  0  0  0  0
    2.2350    0.6498    0.9329 H   0  0  0  0  0  0  0  0  0  0  0  0
    0.8935   -1.0765    1.4777 H   0  0  0  0  0  0  0  0  0  0  0  0
    1.5899   -2.1430    0.2063 H   0  0  0  0  0  0  0  0  0  0  0  0
    0.0086   -1.1645   -1.4605 H   0  0  0  0  0  0  0  0  0  0  0  0
   -1.5895   -1.5653    1.1631 H   0  0  0  0  0  0  0  0  0  0  0  0
   -2.0221   -1.9733   -0.5354 H   0  0  0  0  0  0  0  0  0  0  0  0
   -2.5703    0.4554   -0.8633 H   0  0  0  0  0  0  0  0  0  0  0  0
   -1.1739    0.6585    1.9662 H   0  0  0  0  0  0  0  0  0  0  0  0
   -1.4306    2.1593    0.9334 H   0  0  0  0  0  0  0  0  0  0  0  0
    0.1166    1.5887   -1.9771 H   0  0  0  0  0  0  0  0  0  0  0  0
    0.6734    2.3308   -0.4451 H   0  0  0  0  0  0  0  0  0  0  0  0
  1  2  1  0
  2  3  1  0
  3  4  1  0
  4  5  1  0
  5  6  1  0
  6  7  1  0
  7  8  1  0
  8  9  1  0
  9  1  1  0
  7  3  1  0
  7  5  1  0
  1 10  1  0
  1 11  1  0
  2 12  1  0
  2 13  1  0
  3 14  1  0
  4 15  1  0
  4 16  1  0
  5 17  1  0
  6 18  1  0
  6 19  1  0
  8 20  1  0
  8 21  1  0
M  END
