
     RDKit          3D

 21 23  0  0  0  0  0  0  0  0999 V2000
   -1.4854    1.2143   -0.6396 C   0  0  0  0  0  0  0  0  0  0  0  0
   -2.2133    0.3562    0.3285 C   0  0  0  0  0  0  0  0  0  0  0  0
   -0.7850    0.5510    0.5573 C   0  0  0  0  0  0  0  0  0  0  0  0
    0.2628   -0.4405    0.1548 C   0  0  0  0  0  0  0  0  0  0  0  0
    1.4200    0.0965   -0.6868 C   0  0  0  0  0  0  0  0  0  0  0  0
    2.2747    1.1459   -0.1653 C   0  0  0  0  0  0  0  0  0  0  0  0
    1.2283    1.4335   -1.1820 O   0  0  0  0  0  0  0  0  0  0  0  0
    0.5075   -1.5613    1.0862 C   0  0  0  0  0  0  0  0  0  0  0  0
   -0.1527   -1.8612   -0.2080 C   0  0  0  0  0  0  0  0  0  0  0  0
   -1.3114    0.7952   -1.6406 H   0  0  0  0  0  0  0  0  0  0  0  0
   -1.5031    2.3090   -0.5846 H   0  0  0  0  0  0  0  0  0  0  0  0
   -2.6500   -0.5909   -0.0505 H   0  0  0  0  0  0  0  0  0  0  0  0
   -2.9227    0.9051    0.9909 H   0  0  0  0  0  0  0  0  0  0  0  0
   -0.4795    1.2101    1.3973 H   0  0  0  0  0  0  0  0  0  0  0  0
    1.8327   -0.5655   -1.4763 H   0  0  0  0  0  0  0  0  0  0  0  0
    2.0224    1.7104    0.7429 H   0  0  0  0  0  0  0  0  0  0  0  0
    3.2940    1.2487   -0.5824 H   0  0  0  0  0  0  0  0  0  0  0  0
    1.5884   -1.8408    1.2188 H   0  0  0  0  0  0  0  0  0  0  0  0
   -0.1010   -1.6758    1.9829 H   0  0  0  0  0  0  0  0  0  0  0  0
   -1.2330   -2.0593   -0.2257 H   0  0  0  0  0  0  0  0  0  0  0  0
    0.4063   -2.3805   -1.0180 H   0  0  0  0  0  0  0  0  0  0  0  0
  1  2  1  0
  2  3  1  0
  3  4  1  0
  4  5  1  0
  5  6  1  0
  6  7  1  0
  4  8  1  0
  8  9  1  0
  3  1  1  0
  9  4  1  0
  7  5  1  0
  1 10  1  0
  1 11  1  0
  2 12  1  0
  2 13  1  0
  3 14  1  0
  5 15  1  0
  6 16  1  0
  6 17  1  0
  8 18  1  0
  8 19  1  0
  9 20  1  0
  9 21  1  0
M  END
