
     RDKit          3D

 21 23  0  0  0  0  0  0  0  0999 V2000
   -2.5728   -0.2864   -0.7249 C   0  0  0  0  0  0  0  0  0  0  0  0
   -2.3040    0.7566    0.3841 C   0  0  0  0  0  0  0  0  0  0  0  0
   -1.5251   -0.5451    0.3035 C   0  0  0  0  0  0  0  0  0  0  0  0
   -0.0672   -0.4552   -0.0513 C   0  0  0  0  0  0  0  0  0  0  0  0
    0.7392   -0.7667    1.1863 C   0  0  0  0  0  0  0  0  0  0  0  0
    1.9935    0.0319    0.9471 C   0  0  0  0  0  0  0  0  0  0  0  0
    2.6295    0.1072   -0.3792 C   0  0  0  0  0  0  0  0  0  0  0  0
    1.5735    1.0621   -0.0219 C   0  0  0  0  0  0  0  0  0  0  0  0
    0.3040    0.7960   -0.4683 O   0  0  0  0  0  0  0  0  0  0  0  0
   -3.5300   -0.8052   -0.6392 H   0  0  0  0  0  0  0  0  0  0  0  0
   -2.3357    0.0793   -1.7283 H   0  0  0  0  0  0  0  0  0  0  0  0
   -3.0750    0.8230    1.1941 H   0  0  0  0  0  0  0  0  0  0  0  0
   -1.7744    1.6825    0.0881 H   0  0  0  0  0  0  0  0  0  0  0  0
   -1.7758   -1.3549    1.0462 H   0  0  0  0  0  0  0  0  0  0  0  0
    0.1860   -1.2612   -0.7943 H   0  0  0  0  0  0  0  0  0  0  0  0
    0.9120   -1.8307    1.3515 H   0  0  0  0  0  0  0  0  0  0  0  0
    0.2408   -0.3110    2.0901 H   0  0  0  0  0  0  0  0  0  0  0  0
    2.5635    0.3453    1.8536 H   0  0  0  0  0  0  0  0  0  0  0  0
    3.6773    0.4732   -0.3908 H   0  0  0  0  0  0  0  0  0  0  0  0
    2.3802   -0.6481   -1.1693 H   0  0  0  0  0  0  0  0  0  0  0  0
    1.7603    2.1072    0.2693 H   0  0  0  0  0  0  0  0  0  0  0  0
  1  2  1  0
  2  3  1  0
  3  4  1  0
  4  5  1  0
  5  6  1  0
  6  7  1  0
  7  8  1  0
  8  9  1  0
  3  1  1  0
  9  4  1  0
  8  6  1  0
  1 10  1  0
  1 11  1  0
  2 12  1  0
  2 13  1  0
  3 14  1  0
  4 15  1  0
  5 16  1  0
  5 17  1  0
  6 18  1  0
  7 19  1  0
  7 20  1  0
  8 21  1  0
M  END
