
     RDKit          3D

 19 21  0  0  0  0  0  0  0  0999 V2000
   -1.9287    0.2600    0.3014 C   0  0  0  0  0  0  0  0  0  0  0  0
   -0.8571    1.2707   -0.0324 C   0  0  0  0  0  0  0  0  0  0  0  0
   -0.1577    0.2266   -0.8599 C   0  0  0  0  0  0  0  0  0  0  0  0
   -1.1055   -0.8348   -0.3259 C   0  0  0  0  0  0  0  0  0  0  0  0
   -0.4145   -1.5313    0.6536 O   0  0  0  0  0  0  0  0  0  0  0  0
    0.9038   -1.6063    0.1466 C   0  0  0  0  0  0  0  0  0  0  0  0
    1.1438   -0.1754   -0.2298 C   0  0  0  0  0  0  0  0  0  0  0  0
    1.8602    0.7727    0.5605 C   0  0  0  0  0  0  0  0  0  0  0  0
    2.3438    0.2683   -0.6900 O   0  0  0  0  0  0  0  0  0  0  0  0
   -2.1095    0.1129    1.3988 H   0  0  0  0  0  0  0  0  0  0  0  0
   -2.8792    0.4842   -0.2107 H   0  0  0  0  0  0  0  0  0  0  0  0
   -1.1825    2.1504   -0.6054 H   0  0  0  0  0  0  0  0  0  0  0  0
   -0.3276    1.5567    0.9070 H   0  0  0  0  0  0  0  0  0  0  0  0
   -0.1653    0.3690   -1.9466 H   0  0  0  0  0  0  0  0  0  0  0  0
   -1.6008   -1.4543   -1.0816 H   0  0  0  0  0  0  0  0  0  0  0  0
    0.8037   -2.2316   -0.7855 H   0  0  0  0  0  0  0  0  0  0  0  0
    1.6029   -2.0186    0.8710 H   0  0  0  0  0  0  0  0  0  0  0  0
    2.4284    0.5217    1.4617 H   0  0  0  0  0  0  0  0  0  0  0  0
    1.6419    1.8592    0.4673 H   0  0  0  0  0  0  0  0  0  0  0  0
  1  2  1  0
  2  3  1  0
  3  4  1  0
  4  5  1  0
  5  6  1  0
  6  7  1  0
  7  8  1  0
  8  9  1  0
  4  1  1  0
  9  7  1  0
  7  3  1  0
  1 10  1  0
  1 11  1  0
  2 12  1  0
  2 13  1  0
  3 14  1  0
  4 15  1  0
  6 16  1  0
  6 17  1  0
  8 18  1  0
  8 19  1  0
M  END
