
     RDKit          3D

 20 22  0  0  0  0  0  0  0  0999 V2000
    1.6239   -0.1079   -0.6461 C   0  0  0  0  0  0  0  0  0  0  0  0
    1.1450   -1.3189    0.1841 C   0  0  0  0  0  0  0  0  0  0  0  0
   -0.0277   -0.6837    0.8809 C   0  0  0  0  0  0  0  0  0  0  0  0
    0.6130    0.6439    1.3200 C   0  0  0  0  0  0  0  0  0  0  0  0
    0.6072    0.9041   -0.1997 C   0  0  0  0  0  0  0  0  0  0  0  0
   -0.6579    0.1478   -0.1741 C   0  0  0  0  0  0  0  0  0  0  0  0
   -1.9863    0.7395   -0.0898 C   0  0  0  0  0  0  0  0  0  0  0  0
   -1.5409   -0.2231   -1.2020 C   0  0  0  0  0  0  0  0  0  0  0  0
    1.5931   -0.3263   -1.7149 H   0  0  0  0  0  0  0  0  0  0  0  0
    2.6333    0.1872   -0.2827 H   0  0  0  0  0  0  0  0  0  0  0  0
    0.8707   -2.1412   -0.4898 H   0  0  0  0  0  0  0  0  0  0  0  0
    1.9540   -1.6026    0.9108 H   0  0  0  0  0  0  0  0  0  0  0  0
   -0.5891   -1.2189    1.5943 H   0  0  0  0  0  0  0  0  0  0  0  0
    1.6049    0.5489    1.7574 H   0  0  0  0  0  0  0  0  0  0  0  0
   -0.0973    1.3434    1.7859 H   0  0  0  0  0  0  0  0  0  0  0  0
    0.6720    1.9138   -0.5174 H   0  0  0  0  0  0  0  0  0  0  0  0
   -2.1553    1.8054   -0.4178 H   0  0  0  0  0  0  0  0  0  0  0  0
   -2.6570    0.3581    0.6937 H   0  0  0  0  0  0  0  0  0  0  0  0
   -1.5086    0.2145   -2.2181 H   0  0  0  0  0  0  0  0  0  0  0  0
   -2.0971   -1.1841   -1.1746 H   0  0  0  0  0  0  0  0  0  0  0  0
  1  2  1  0
  2  3  1  0
  3  4  1  0
  4  5  1  0
  5  6  1  0
  6  7  1  0
  7  8  1  0
  5  1  1  0
  8  6  1  0
  6  3  1  0
  1  9  1  0
  1 10  1  0
  2 11  1  0
  2 12  1  0
  3 13  1  0
  4 14  1  0
  4 15  1  0
  5 16  1  0
  7 17  1  0
  7 18  1  0
  8 19  1  0
  8 20  1  0
M  END
