
     RDKit          3D

 19 21  0  0  0  0  0  0  0  0999 V2000
   -2.0564    0.1105   -0.4905 C   0  0  0  0  0  0  0  0  0  0  0  0
   -1.6447   -0.7144    0.7080 C   0  0  0  0  0  0  0  0  0  0  0  0
   -0.1498   -0.5971    0.6707 C   0  0  0  0  0  0  0  0  0  0  0  0
    0.4717   -1.5207   -0.1337 O   0  0  0  0  0  0  0  0  0  0  0  0
    1.7088   -0.9159   -0.4576 C   0  0  0  0  0  0  0  0  0  0  0  0
    1.3607    0.5118   -0.7408 C   0  0  0  0  0  0  0  0  0  0  0  0
    1.1820    1.5196    0.3089 C   0  0  0  0  0  0  0  0  0  0  0  0
    0.0626    0.6931   -0.0698 C   0  0  0  0  0  0  0  0  0  0  0  0
   -1.0812    1.0700   -0.6722 O   0  0  0  0  0  0  0  0  0  0  0  0
   -3.0112    0.6291   -0.3087 H   0  0  0  0  0  0  0  0  0  0  0  0
   -2.0786   -0.5466   -1.3939 H   0  0  0  0  0  0  0  0  0  0  0  0
   -2.0085   -0.2372    1.6379 H   0  0  0  0  0  0  0  0  0  0  0  0
   -1.9564   -1.7546    0.6630 H   0  0  0  0  0  0  0  0  0  0  0  0
    0.3147   -0.5726    1.6831 H   0  0  0  0  0  0  0  0  0  0  0  0
    2.3827   -1.0734    0.3817 H   0  0  0  0  0  0  0  0  0  0  0  0
    2.1240   -1.4225   -1.3470 H   0  0  0  0  0  0  0  0  0  0  0  0
    1.5774    0.8471   -1.7606 H   0  0  0  0  0  0  0  0  0  0  0  0
    1.2012    2.5782   -0.0159 H   0  0  0  0  0  0  0  0  0  0  0  0
    1.6009    1.3955    1.3376 H   0  0  0  0  0  0  0  0  0  0  0  0
  1  2  1  0
  2  3  1  0
  3  4  1  0
  4  5  1  0
  5  6  1  0
  6  7  1  0
  7  8  1  0
  8  9  1  0
  9  1  1  0
  8  3  1  0
  8  6  1  0
  1 10  1  0
  1 11  1  0
  2 12  1  0
  2 13  1  0
  3 14  1  0
  5 15  1  0
  5 16  1  0
  6 17  1  0
  7 18  1  0
  7 19  1  0
M  END
