
     RDKit          3D

 21 23  0  0  0  0  0  0  0  0999 V2000
   -2.3299    0.1545    0.1555 C   0  0  0  0  0  0  0  0  0  0  0  0
   -1.2529    0.8987   -0.6412 C   0  0  0  0  0  0  0  0  0  0  0  0
   -0.2415    0.0115   -0.0237 C   0  0  0  0  0  0  0  0  0  0  0  0
   -1.2216   -0.4651    0.9908 C   0  0  0  0  0  0  0  0  0  0  0  0
    0.3110   -1.1015   -0.8786 C   0  0  0  0  0  0  0  0  0  0  0  0
    1.3510   -1.5810   -0.0846 O   0  0  0  0  0  0  0  0  0  0  0  0
    1.9735   -0.5166    0.5003 C   0  0  0  0  0  0  0  0  0  0  0  0
    2.2622    0.6784   -0.3034 C   0  0  0  0  0  0  0  0  0  0  0  0
    1.0156    0.6533    0.4984 C   0  0  0  0  0  0  0  0  0  0  0  0
   -2.8851   -0.5995   -0.4298 H   0  0  0  0  0  0  0  0  0  0  0  0
   -3.0225    0.7945    0.7062 H   0  0  0  0  0  0  0  0  0  0  0  0
   -1.4187    0.8217   -1.7253 H   0  0  0  0  0  0  0  0  0  0  0  0
   -1.2089    1.9456   -0.2418 H   0  0  0  0  0  0  0  0  0  0  0  0
   -1.0458   -0.0168    1.9664 H   0  0  0  0  0  0  0  0  0  0  0  0
   -1.2954   -1.5744    1.0132 H   0  0  0  0  0  0  0  0  0  0  0  0
    0.7106   -0.7401   -1.8482 H   0  0  0  0  0  0  0  0  0  0  0  0
   -0.4368   -1.8846   -1.0769 H   0  0  0  0  0  0  0  0  0  0  0  0
    2.5211   -0.7524    1.4411 H   0  0  0  0  0  0  0  0  0  0  0  0
    3.0207    1.4249    0.0119 H   0  0  0  0  0  0  0  0  0  0  0  0
    2.2483    0.5355   -1.4075 H   0  0  0  0  0  0  0  0  0  0  0  0
    0.9451    1.3133    1.3772 H   0  0  0  0  0  0  0  0  0  0  0  0
  1  2  1  0
  2  3  1  0
  3  4  1  0
  3  5  1  0
  5  6  1  0
  6  7  1  0
  7  8  1  0
  8  9  1  0
  4  1  1  0
  9  7  1  0
  9  3  1  0
  1 10  1  0
  1 11  1  0
  2 12  1  0
  2 13  1  0
  4 14  1  0
  4 15  1  0
  5 16  1  0
  5 17  1  0
  7 18  1  0
  8 19  1  0
  8 20  1  0
  9 21  1  0
M  END
