
     RDKit          3D

 20 21  0  0  0  0  0  0  0  0999 V2000
    1.3470    1.1462    0.6760 C   0  0  0  0  0  0  0  0  0  0  0  0
    0.1771    1.3050   -0.2831 C   0  0  0  0  0  0  0  0  0  0  0  0
   -0.5527   -0.0079   -0.3266 C   0  0  0  0  0  0  0  0  0  0  0  0
    0.3659   -1.1505   -0.6134 C   0  0  0  0  0  0  0  0  0  0  0  0
    1.5663   -1.0543    0.3251 C   0  0  0  0  0  0  0  0  0  0  0  0
    2.1916    0.1884    0.1043 O   0  0  0  0  0  0  0  0  0  0  0  0
   -1.9415    0.0419   -0.8373 C   0  0  0  0  0  0  0  0  0  0  0  0
   -1.6969   -0.2836    0.5782 C   0  0  0  0  0  0  0  0  0  0  0  0
    0.8982    0.7454    1.6268 H   0  0  0  0  0  0  0  0  0  0  0  0
    1.8415    2.1018    0.8651 H   0  0  0  0  0  0  0  0  0  0  0  0
   -0.4652    2.1072    0.1038 H   0  0  0  0  0  0  0  0  0  0  0  0
    0.5253    1.5957   -1.3034 H   0  0  0  0  0  0  0  0  0  0  0  0
   -0.1505   -2.1101   -0.4430 H   0  0  0  0  0  0  0  0  0  0  0  0
    0.7792   -1.1579   -1.6362 H   0  0  0  0  0  0  0  0  0  0  0  0
    2.2761   -1.8830    0.1406 H   0  0  0  0  0  0  0  0  0  0  0  0
    1.2295   -1.0562    1.3825 H   0  0  0  0  0  0  0  0  0  0  0  0
   -2.3946    1.0466   -1.0242 H   0  0  0  0  0  0  0  0  0  0  0  0
   -2.2177   -0.6978   -1.5941 H   0  0  0  0  0  0  0  0  0  0  0  0
   -1.8988    0.4608    1.3553 H   0  0  0  0  0  0  0  0  0  0  0  0
   -1.8799   -1.3374    0.9038 H   0  0  0  0  0  0  0  0  0  0  0  0
  1  2  1  0
  2  3  1  0
  3  4  1  0
  4  5  1  0
  5  6  1  0
  3  7  1  0
  7  8  1  0
  6  1  1  0
  8  3  1  0
  1  9  1  0
  1 10  1  0
  2 11  1  0
  2 12  1  0
  4 13  1  0
  4 14  1  0
  5 15  1  0
  5 16  1  0
  7 17  1  0
  7 18  1  0
  8 19  1  0
  8 20  1  0
M  END
