
     RDKit          3D

 17 18  0  0  0  0  0  0  0  0999 V2000
    2.5553    0.0170    0.0965 C   0  0  0  0  0  0  0  0  0  0  0  0
    1.8010   -1.0602   -0.3479 C   0  0  0  0  0  0  0  0  0  0  0  0
    0.4986   -0.5728   -0.3457 C   0  0  0  0  0  0  0  0  0  0  0  0
    0.5299    0.7498    0.0918 C   0  0  0  0  0  0  0  0  0  0  0  0
    1.7625    1.0386    0.3355 O   0  0  0  0  0  0  0  0  0  0  0  0
   -0.8097    1.3949    0.1416 C   0  0  0  0  0  0  0  0  0  0  0  0
   -1.7018    0.4056    0.8626 C   0  0  0  0  0  0  0  0  0  0  0  0
   -1.8405   -0.7696    0.1776 O   0  0  0  0  0  0  0  0  0  0  0  0
   -0.8325   -1.1024   -0.6828 C   0  0  0  0  0  0  0  0  0  0  0  0
    3.6316    0.0110    0.2247 H   0  0  0  0  0  0  0  0  0  0  0  0
    2.0969   -2.0459   -0.6353 H   0  0  0  0  0  0  0  0  0  0  0  0
   -1.2144    1.4887   -0.8863 H   0  0  0  0  0  0  0  0  0  0  0  0
   -0.7797    2.3573    0.6454 H   0  0  0  0  0  0  0  0  0  0  0  0
   -2.7029    0.8572    1.0162 H   0  0  0  0  0  0  0  0  0  0  0  0
   -1.2119    0.1625    1.8446 H   0  0  0  0  0  0  0  0  0  0  0  0
   -1.0735   -0.7265   -1.7206 H   0  0  0  0  0  0  0  0  0  0  0  0
   -0.7091   -2.2052   -0.8177 H   0  0  0  0  0  0  0  0  0  0  0  0
  1  2  2  0
  2  3  1  0
  3  4  2  0
  4  5  1  0
  4  6  1  0
  6  7  1  0
  7  8  1  0
  8  9  1  0
  5  1  1  0
  9  3  1  0
  1 10  1  0
  2 11  1  0
  6 12  1  0
  6 13  1  0
  7 14  1  0
  7 15  1  0
  9 16  1  0
  9 17  1  0
M  END
