
     RDKit          3D

 21 23  0  0  0  0  0  0  0  0999 V2000
    2.1008    0.3122   -0.4985 C   0  0  0  0  0  0  0  0  0  0  0  0
    0.7813    1.1046   -0.4405 C   0  0  0  0  0  0  0  0  0  0  0  0
    0.0780    0.5996    0.7696 C   0  0  0  0  0  0  0  0  0  0  0  0
   -0.1934   -0.8661    0.5426 C   0  0  0  0  0  0  0  0  0  0  0  0
    0.8315   -1.6140   -0.1934 C   0  0  0  0  0  0  0  0  0  0  0  0
    1.7685   -0.9439   -0.9056 O   0  0  0  0  0  0  0  0  0  0  0  0
   -1.4967   -0.5568   -0.0878 C   0  0  0  0  0  0  0  0  0  0  0  0
   -2.0687    0.7054   -0.4848 C   0  0  0  0  0  0  0  0  0  0  0  0
   -1.4162    0.6953    0.8225 C   0  0  0  0  0  0  0  0  0  0  0  0
    2.6533    0.3810    0.4397 H   0  0  0  0  0  0  0  0  0  0  0  0
    2.6909    0.7931   -1.3279 H   0  0  0  0  0  0  0  0  0  0  0  0
    1.0273    2.1841   -0.4036 H   0  0  0  0  0  0  0  0  0  0  0  0
    0.2775    0.8216   -1.3889 H   0  0  0  0  0  0  0  0  0  0  0  0
    0.6195    0.8486    1.6957 H   0  0  0  0  0  0  0  0  0  0  0  0
   -0.3334   -1.3151    1.5773 H   0  0  0  0  0  0  0  0  0  0  0  0
    1.3931   -2.3217    0.4887 H   0  0  0  0  0  0  0  0  0  0  0  0
    0.2995   -2.3261   -0.8951 H   0  0  0  0  0  0  0  0  0  0  0  0
   -2.2707   -1.3424    0.1720 H   0  0  0  0  0  0  0  0  0  0  0  0
   -1.6512    1.4170   -1.2299 H   0  0  0  0  0  0  0  0  0  0  0  0
   -3.1894    0.8625   -0.4278 H   0  0  0  0  0  0  0  0  0  0  0  0
   -1.9016    0.5614    1.7758 H   0  0  0  0  0  0  0  0  0  0  0  0
  1  2  1  0
  2  3  1  0
  3  4  1  0
  4  5  1  0
  5  6  1  0
  4  7  1  0
  7  8  1  0
  8  9  1  0
  6  1  1  0
  9  7  1  0
  9  3  1  0
  1 10  1  0
  1 11  1  0
  2 12  1  0
  2 13  1  0
  3 14  1  0
  4 15  1  0
  5 16  1  0
  5 17  1  0
  7 18  1  0
  8 19  1  0
  8 20  1  0
  9 21  1  0
M  END
