
     RDKit          3D

 21 22  0  0  0  0  0  0  0  0999 V2000
    1.9060    1.0858    0.2156 C   0  0  0  0  0  0  0  0  0  0  0  0
    0.6644    0.4448    0.7523 C   0  0  0  0  0  0  0  0  0  0  0  0
   -0.0084   -0.2841   -0.4193 C   0  0  0  0  0  0  0  0  0  0  0  0
   -1.3618   -0.6601    0.1091 C   0  0  0  0  0  0  0  0  0  0  0  0
   -2.1862    0.5726    0.5346 C   0  0  0  0  0  0  0  0  0  0  0  0
   -2.6191   -0.3489   -0.5422 C   0  0  0  0  0  0  0  0  0  0  0  0
    0.7725   -1.3623   -0.7641 O   0  0  0  0  0  0  0  0  0  0  0  0
    2.1321   -1.0102   -0.7361 C   0  0  0  0  0  0  0  0  0  0  0  0
    2.3190    0.3574   -0.8941 O   0  0  0  0  0  0  0  0  0  0  0  0
    1.6449    2.1282   -0.0655 H   0  0  0  0  0  0  0  0  0  0  0  0
    2.6560    1.1139    1.0248 H   0  0  0  0  0  0  0  0  0  0  0  0
   -0.0603    1.1587    1.1888 H   0  0  0  0  0  0  0  0  0  0  0  0
    0.8565   -0.3419    1.5113 H   0  0  0  0  0  0  0  0  0  0  0  0
   -0.0714    0.3785   -1.3133 H   0  0  0  0  0  0  0  0  0  0  0  0
   -1.3163   -1.4840    0.8716 H   0  0  0  0  0  0  0  0  0  0  0  0
   -1.8533    1.5620    0.2182 H   0  0  0  0  0  0  0  0  0  0  0  0
   -2.6032    0.5369    1.5527 H   0  0  0  0  0  0  0  0  0  0  0  0
   -3.4904   -1.0068   -0.2803 H   0  0  0  0  0  0  0  0  0  0  0  0
   -2.6776    0.0176   -1.5833 H   0  0  0  0  0  0  0  0  0  0  0  0
    2.6871   -1.5018   -1.5824 H   0  0  0  0  0  0  0  0  0  0  0  0
    2.6095   -1.3564    0.2016 H   0  0  0  0  0  0  0  0  0  0  0  0
  1  2  1  0
  2  3  1  0
  3  4  1  0
  4  5  1  0
  5  6  1  0
  3  7  1  0
  7  8  1  0
  8  9  1  0
  9  1  1  0
  6  4  1  0
  1 10  1  0
  1 11  1  0
  2 12  1  0
  2 13  1  0
  3 14  1  0
  4 15  1  0
  5 16  1  0
  5 17  1  0
  6 18  1  0
  6 19  1  0
  8 20  1  0
  8 21  1  0
M  END
