
     RDKit          3D

 21 22  0  0  0  0  0  0  0  0999 V2000
    2.0664    1.0433    0.2907 C   0  0  0  0  0  0  0  0  0  0  0  0
    2.3306   -0.3677   -0.1922 C   0  0  0  0  0  0  0  0  0  0  0  0
    0.9728   -0.7697   -0.7370 C   0  0  0  0  0  0  0  0  0  0  0  0
    0.0100   -0.0317    0.1278 C   0  0  0  0  0  0  0  0  0  0  0  0
   -1.3115   -0.1210    0.0577 C   0  0  0  0  0  0  0  0  0  0  0  0
   -2.3108   -0.8538   -0.7540 C   0  0  0  0  0  0  0  0  0  0  0  0
   -3.1890    0.2335   -0.5408 O   0  0  0  0  0  0  0  0  0  0  0  0
   -2.5442    0.4104    0.6935 C   0  0  0  0  0  0  0  0  0  0  0  0
    0.7750    0.8296    1.0918 C   0  0  0  0  0  0  0  0  0  0  0  0
    2.8690    1.4521    0.9115 H   0  0  0  0  0  0  0  0  0  0  0  0
    1.8578    1.6499   -0.6255 H   0  0  0  0  0  0  0  0  0  0  0  0
    2.5502   -1.0620    0.6452 H   0  0  0  0  0  0  0  0  0  0  0  0
    3.1095   -0.3967   -0.9804 H   0  0  0  0  0  0  0  0  0  0  0  0
    0.8592   -0.4774   -1.7947 H   0  0  0  0  0  0  0  0  0  0  0  0
    0.8471   -1.8831   -0.6033 H   0  0  0  0  0  0  0  0  0  0  0  0
   -2.0317   -1.0082   -1.8104 H   0  0  0  0  0  0  0  0  0  0  0  0
   -2.7553   -1.7438   -0.2649 H   0  0  0  0  0  0  0  0  0  0  0  0
   -2.5064    1.4349    1.0629 H   0  0  0  0  0  0  0  0  0  0  0  0
   -2.9434   -0.3563    1.3994 H   0  0  0  0  0  0  0  0  0  0  0  0
    0.2674    1.7671    1.3159 H   0  0  0  0  0  0  0  0  0  0  0  0
    1.0773    0.2506    1.9995 H   0  0  0  0  0  0  0  0  0  0  0  0
  1  2  1  0
  2  3  1  0
  3  4  1  0
  4  5  2  3
  5  6  1  0
  6  7  1  0
  7  8  1  0
  4  9  1  0
  9  1  1  0
  8  5  1  0
  1 10  1  0
  1 11  1  0
  2 12  1  0
  2 13  1  0
  3 14  1  0
  3 15  1  0
  6 16  1  0
  6 17  1  0
  8 18  1  0
  8 19  1  0
  9 20  1  0
  9 21  1  0
M  END
