
     RDKit          3D

 17 18  0  0  0  0  0  0  0  0999 V2000
    0.7393   -1.2833   -0.1823 C   0  0  0  0  0  0  0  0  0  0  0  0
    1.2603    0.0552   -0.7147 C   0  0  0  0  0  0  0  0  0  0  0  0
    0.5847    1.0644    0.1930 C   0  0  0  0  0  0  0  0  0  0  0  0
   -0.8797    1.2287   -0.1173 C   0  0  0  0  0  0  0  0  0  0  0  0
   -1.3966   -0.1936    0.1434 C   0  0  0  0  0  0  0  0  0  0  0  0
   -0.2235   -0.7891    0.8803 C   0  0  0  0  0  0  0  0  0  0  0  0
    0.5043    0.3123    1.3897 O   0  0  0  0  0  0  0  0  0  0  0  0
    1.5247   -1.8997    0.2483 H   0  0  0  0  0  0  0  0  0  0  0  0
    0.1445   -1.7999   -0.9821 H   0  0  0  0  0  0  0  0  0  0  0  0
    1.0283    0.2081   -1.7653 H   0  0  0  0  0  0  0  0  0  0  0  0
    2.3384    0.0775   -0.4670 H   0  0  0  0  0  0  0  0  0  0  0  0
    1.1314    1.9901    0.3118 H   0  0  0  0  0  0  0  0  0  0  0  0
   -1.3161    1.8481    0.6898 H   0  0  0  0  0  0  0  0  0  0  0  0
   -1.0959    1.5735   -1.1238 H   0  0  0  0  0  0  0  0  0  0  0  0
   -1.5487   -0.6775   -0.8524 H   0  0  0  0  0  0  0  0  0  0  0  0
   -2.3201   -0.1961    0.7174 H   0  0  0  0  0  0  0  0  0  0  0  0
   -0.4753   -1.5187    1.6313 H   0  0  0  0  0  0  0  0  0  0  0  0
  1  2  1  0
  2  3  1  0
  3  4  1  0
  4  5  1  0
  5  6  1  0
  6  7  1  0
  6  1  1  0
  7  3  1  0
  1  8  1  0
  1  9  1  0
  2 10  1  0
  2 11  1  0
  3 12  1  0
  4 13  1  0
  4 14  1  0
  5 15  1  0
  5 16  1  0
  6 17  1  0
M  END
