
     RDKit          3D

 15 16  0  0  0  0  0  0  0  0999 V2000
    2.0977   -0.1815    0.2210 C   0  0  0  0  0  0  0  0  0  0  0  0
    1.0995    0.9454    0.4015 C   0  0  0  0  0  0  0  0  0  0  0  0
    0.1850   -0.1604   -0.0690 C   0  0  0  0  0  0  0  0  0  0  0  0
   -1.1685   -0.1005    0.5913 C   0  0  0  0  0  0  0  0  0  0  0  0
   -2.3109   -0.6471   -0.1728 C   0  0  0  0  0  0  0  0  0  0  0  0
   -2.0430    0.8084    0.0365 O   0  0  0  0  0  0  0  0  0  0  0  0
    1.0738   -1.0713    0.4803 O   0  0  0  0  0  0  0  0  0  0  0  0
    2.4506   -0.2774   -0.8105 H   0  0  0  0  0  0  0  0  0  0  0  0
    2.8786   -0.1026    1.0030 H   0  0  0  0  0  0  0  0  0  0  0  0
    0.9594    1.2635    1.4512 H   0  0  0  0  0  0  0  0  0  0  0  0
    1.2658    1.7605   -0.3199 H   0  0  0  0  0  0  0  0  0  0  0  0
    0.1060   -0.1520   -1.1685 H   0  0  0  0  0  0  0  0  0  0  0  0
   -1.1751   -0.2978    1.6869 H   0  0  0  0  0  0  0  0  0  0  0  0
   -2.1357   -0.9300   -1.2200 H   0  0  0  0  0  0  0  0  0  0  0  0
   -3.2831   -0.8574    0.3085 H   0  0  0  0  0  0  0  0  0  0  0  0
  1  2  1  0
  2  3  1  0
  3  4  1  0
  4  5  1  0
  5  6  1  0
  3  7  1  0
  7  1  1  0
  6  4  1  0
  1  8  1  0
  1  9  1  0
  2 10  1  0
  2 11  1  0
  3 12  1  0
  4 13  1  0
  5 14  1  0
  5 15  1  0
M  END
