
     RDKit          3D

 21 23  0  0  0  0  0  0  0  0999 V2000
    1.6959   -1.0823   -0.1802 C   0  0  0  0  0  0  0  0  0  0  0  0
    1.9240    0.3596   -0.5781 C   0  0  0  0  0  0  0  0  0  0  0  0
    0.5187    0.8585   -0.8180 C   0  0  0  0  0  0  0  0  0  0  0  0
   -0.3232    0.0741    0.1501 C   0  0  0  0  0  0  0  0  0  0  0  0
    0.5487   -0.9383    0.8105 C   0  0  0  0  0  0  0  0  0  0  0  0
   -1.5899   -0.4161   -0.4745 C   0  0  0  0  0  0  0  0  0  0  0  0
   -2.3491    0.6086    0.3188 C   0  0  0  0  0  0  0  0  0  0  0  0
   -1.8964    1.9014    0.4275 O   0  0  0  0  0  0  0  0  0  0  0  0
   -1.1585    0.9375    1.0661 C   0  0  0  0  0  0  0  0  0  0  0  0
    2.5911   -1.5372    0.2744 H   0  0  0  0  0  0  0  0  0  0  0  0
    1.3501   -1.6229   -1.0945 H   0  0  0  0  0  0  0  0  0  0  0  0
    2.5096    0.3682   -1.5259 H   0  0  0  0  0  0  0  0  0  0  0  0
    2.4303    0.9278    0.2166 H   0  0  0  0  0  0  0  0  0  0  0  0
    0.4430    1.9385   -0.6350 H   0  0  0  0  0  0  0  0  0  0  0  0
    0.1996    0.6396   -1.8605 H   0  0  0  0  0  0  0  0  0  0  0  0
    0.0560   -1.9089    1.0106 H   0  0  0  0  0  0  0  0  0  0  0  0
    1.0098   -0.5814    1.7652 H   0  0  0  0  0  0  0  0  0  0  0  0
   -1.8682   -1.4523   -0.1622 H   0  0  0  0  0  0  0  0  0  0  0  0
   -1.6673   -0.3410   -1.5752 H   0  0  0  0  0  0  0  0  0  0  0  0
   -3.3419    0.4071    0.7185 H   0  0  0  0  0  0  0  0  0  0  0  0
   -1.0825    0.8597    2.1457 H   0  0  0  0  0  0  0  0  0  0  0  0
  1  2  1  0
  2  3  1  0
  3  4  1  0
  4  5  1  0
  4  6  1  0
  6  7  1  0
  7  8  1  0
  8  9  1  0
  5  1  1  0
  9  7  1  0
  9  4  1  0
  1 10  1  0
  1 11  1  0
  2 12  1  0
  2 13  1  0
  3 14  1  0
  3 15  1  0
  5 16  1  0
  5 17  1  0
  6 18  1  0
  6 19  1  0
  7 20  1  0
  9 21  1  0
M  END
