
     RDKit          3D

 18 20  0  0  0  0  0  0  0  0999 V2000
    1.1713    1.0870   -0.3220 C   0  0  0  0  0  0  0  0  0  0  0  0
    1.6432   -0.3534   -0.4454 C   0  0  0  0  0  0  0  0  0  0  0  0
    0.4804   -1.0803    0.2226 C   0  0  0  0  0  0  0  0  0  0  0  0
    0.3492   -0.2778    1.3825 O   0  0  0  0  0  0  0  0  0  0  0  0
    0.0925    0.9559    0.7422 C   0  0  0  0  0  0  0  0  0  0  0  0
   -1.1909    0.6258    0.0284 C   0  0  0  0  0  0  0  0  0  0  0  0
   -2.0087   -0.5509    0.4237 C   0  0  0  0  0  0  0  0  0  0  0  0
   -0.8270   -0.8163   -0.4640 C   0  0  0  0  0  0  0  0  0  0  0  0
    1.9859    1.7514   -0.0326 H   0  0  0  0  0  0  0  0  0  0  0  0
    0.7235    1.4328   -1.2762 H   0  0  0  0  0  0  0  0  0  0  0  0
    1.8233   -0.6705   -1.4654 H   0  0  0  0  0  0  0  0  0  0  0  0
    2.5154   -0.4569    0.2301 H   0  0  0  0  0  0  0  0  0  0  0  0
    0.6873   -2.1168    0.4468 H   0  0  0  0  0  0  0  0  0  0  0  0
    0.0410    1.7905    1.4243 H   0  0  0  0  0  0  0  0  0  0  0  0
   -1.5767    1.3100   -0.7376 H   0  0  0  0  0  0  0  0  0  0  0  0
   -3.0030   -0.6092   -0.0522 H   0  0  0  0  0  0  0  0  0  0  0  0
   -1.9370   -1.0068    1.4213 H   0  0  0  0  0  0  0  0  0  0  0  0
   -0.9699   -1.0145   -1.5265 H   0  0  0  0  0  0  0  0  0  0  0  0
  1  2  1  0
  2  3  1  0
  3  4  1  0
  4  5  1  0
  5  6  1  0
  6  7  1  0
  7  8  1  0
  5  1  1  0
  8  6  1  0
  8  3  1  0
  1  9  1  0
  1 10  1  0
  2 11  1  0
  2 12  1  0
  3 13  1  0
  5 14  1  0
  6 15  1  0
  7 16  1  0
  7 17  1  0
  8 18  1  0
M  END
