
     RDKit          3D

 18 19  0  0  0  0  0  0  0  0999 V2000
   -1.8849   -0.5919   -0.3534 C   0  0  0  0  0  0  0  0  0  0  0  0
   -1.4043    0.7738   -0.7827 C   0  0  0  0  0  0  0  0  0  0  0  0
    0.0248    0.7677   -0.3194 C   0  0  0  0  0  0  0  0  0  0  0  0
    0.8636    0.0359   -1.1695 O   0  0  0  0  0  0  0  0  0  0  0  0
    1.9849   -0.1023   -0.3178 C   0  0  0  0  0  0  0  0  0  0  0  0
    1.3936   -0.6522    0.9527 C   0  0  0  0  0  0  0  0  0  0  0  0
   -0.0554   -0.1918    0.8735 C   0  0  0  0  0  0  0  0  0  0  0  0
   -0.9071   -1.1613    0.4223 O   0  0  0  0  0  0  0  0  0  0  0  0
   -2.0338   -1.2325   -1.2635 H   0  0  0  0  0  0  0  0  0  0  0  0
   -2.8267   -0.5341    0.2217 H   0  0  0  0  0  0  0  0  0  0  0  0
   -1.5429    0.9861   -1.8415 H   0  0  0  0  0  0  0  0  0  0  0  0
   -1.9448    1.5201   -0.1667 H   0  0  0  0  0  0  0  0  0  0  0  0
    0.4252    1.7411   -0.0500 H   0  0  0  0  0  0  0  0  0  0  0  0
    2.3070    0.9578   -0.1162 H   0  0  0  0  0  0  0  0  0  0  0  0
    2.7728   -0.7098   -0.7540 H   0  0  0  0  0  0  0  0  0  0  0  0
    1.3838   -1.7392    1.0084 H   0  0  0  0  0  0  0  0  0  0  0  0
    1.8242   -0.1922    1.8675 H   0  0  0  0  0  0  0  0  0  0  0  0
   -0.3800    0.3247    1.7885 H   0  0  0  0  0  0  0  0  0  0  0  0
  1  2  1  0
  2  3  1  0
  3  4  1  0
  4  5  1  0
  5  6  1  0
  6  7  1  0
  7  8  1  0
  8  1  1  0
  7  3  1  0
  1  9  1  0
  1 10  1  0
  2 11  1  0
  2 12  1  0
  3 13  1  0
  5 14  1  0
  5 15  1  0
  6 16  1  0
  6 17  1  0
  7 18  1  0
M  END
