
     RDKit          3D

 16 18  0  0  0  0  0  0  0  0999 V2000
    1.2451    0.6483    0.2454 C   0  0  0  0  0  0  0  0  0  0  0  0
    1.4419   -0.7724   -0.2256 C   0  0  0  0  0  0  0  0  0  0  0  0
    0.0081   -0.6951   -0.7544 C   0  0  0  0  0  0  0  0  0  0  0  0
   -1.0798   -1.0502    0.1950 C   0  0  0  0  0  0  0  0  0  0  0  0
   -1.3390    0.0601    0.9936 O   0  0  0  0  0  0  0  0  0  0  0  0
   -1.2377    1.1740    0.1548 C   0  0  0  0  0  0  0  0  0  0  0  0
    0.0438    0.8347   -0.6079 C   0  0  0  0  0  0  0  0  0  0  0  0
   -0.1623    0.1819   -1.7849 O   0  0  0  0  0  0  0  0  0  0  0  0
    1.0273    0.6279    1.3500 H   0  0  0  0  0  0  0  0  0  0  0  0
    2.0909    1.3259    0.0774 H   0  0  0  0  0  0  0  0  0  0  0  0
    1.4919   -1.5385    0.5786 H   0  0  0  0  0  0  0  0  0  0  0  0
    2.2118   -0.8793   -1.0149 H   0  0  0  0  0  0  0  0  0  0  0  0
   -0.6679   -1.8343    0.8949 H   0  0  0  0  0  0  0  0  0  0  0  0
   -1.9802   -1.4309   -0.3048 H   0  0  0  0  0  0  0  0  0  0  0  0
   -2.0813    1.2708   -0.5379 H   0  0  0  0  0  0  0  0  0  0  0  0
   -1.0123    2.0770    0.7407 H   0  0  0  0  0  0  0  0  0  0  0  0
  1  2  1  0
  2  3  1  0
  3  4  1  0
  4  5  1  0
  5  6  1  0
  6  7  1  0
  7  8  1  0
  7  1  1  0
  7  3  1  0
  8  3  1  0
  1  9  1  0
  1 10  1  0
  2 11  1  0
  2 12  1  0
  4 13  1  0
  4 14  1  0
  6 15  1  0
  6 16  1  0
M  END
