
     RDKit          3D

 19 22  0  0  0  0  0  0  0  0999 V2000
    1.1848   -0.9890   -0.2040 C   0  0  0  0  0  0  0  0  0  0  0  0
    1.6006    0.4266   -0.0766 C   0  0  0  0  0  0  0  0  0  0  0  0
    0.4497    1.3002    0.2380 C   0  0  0  0  0  0  0  0  0  0  0  0
   -0.6457    0.8073    1.0082 C   0  0  0  0  0  0  0  0  0  0  0  0
   -1.0506   -0.6276    0.8848 C   0  0  0  0  0  0  0  0  0  0  0  0
   -2.1191   -0.6893   -0.0559 O   0  0  0  0  0  0  0  0  0  0  0  0
   -1.1112   -0.2584   -0.9687 C   0  0  0  0  0  0  0  0  0  0  0  0
   -0.2508   -1.2258   -0.2322 C   0  0  0  0  0  0  0  0  0  0  0  0
   -0.7589    1.1322   -0.5303 C   0  0  0  0  0  0  0  0  0  0  0  0
    1.6494   -1.4924   -1.0877 H   0  0  0  0  0  0  0  0  0  0  0  0
    1.6238   -1.5439    0.6798 H   0  0  0  0  0  0  0  0  0  0  0  0
    2.4096    0.6017    0.6774 H   0  0  0  0  0  0  0  0  0  0  0  0
    2.0578    0.7404   -1.0562 H   0  0  0  0  0  0  0  0  0  0  0  0
    0.7449    2.3662    0.4387 H   0  0  0  0  0  0  0  0  0  0  0  0
   -1.2425    1.4249    1.6720 H   0  0  0  0  0  0  0  0  0  0  0  0
   -1.1973   -1.2073    1.7845 H   0  0  0  0  0  0  0  0  0  0  0  0
   -1.3330   -0.4315   -2.0107 H   0  0  0  0  0  0  0  0  0  0  0  0
   -0.5381   -2.2601   -0.4081 H   0  0  0  0  0  0  0  0  0  0  0  0
   -1.4735    1.9257   -0.7529 H   0  0  0  0  0  0  0  0  0  0  0  0
  1  2  1  0
  2  3  1  0
  3  4  1  0
  4  5  1  0
  5  6  1  0
  6  7  1  0
  7  8  1  0
  7  9  1  0
  8  1  1  0
  9  3  1  0
  9  4  1  0
  8  5  1  0
  1 10  1  0
  1 11  1  0
  2 12  1  0
  2 13  1  0
  3 14  1  0
  4 15  1  0
  5 16  1  0
  7 17  1  0
  8 18  1  0
  9 19  1  0
M  END
