
     RDKit          3D

 19 21  0  0  0  0  0  0  0  0999 V2000
    2.2450    0.7530   -0.6268 C   0  0  0  0  0  0  0  0  0  0  0  0
    1.7557    0.3138    0.7523 C   0  0  0  0  0  0  0  0  0  0  0  0
    0.7316   -0.3113   -0.1053 C   0  0  0  0  0  0  0  0  0  0  0  0
    0.0064   -1.4778    0.4056 C   0  0  0  0  0  0  0  0  0  0  0  0
   -0.6860   -0.2307    0.0139 C   0  0  0  0  0  0  0  0  0  0  0  0
   -1.6900   -0.2516   -1.0603 C   0  0  0  0  0  0  0  0  0  0  0  0
   -2.3113    0.7963   -0.1744 C   0  0  0  0  0  0  0  0  0  0  0  0
   -1.4220    0.5311    0.8619 O   0  0  0  0  0  0  0  0  0  0  0  0
    1.4862   -0.2827   -1.2296 O   0  0  0  0  0  0  0  0  0  0  0  0
    3.3228    0.5692   -0.8003 H   0  0  0  0  0  0  0  0  0  0  0  0
    1.8797    1.7648   -0.8405 H   0  0  0  0  0  0  0  0  0  0  0  0
    2.4423   -0.4737    1.1820 H   0  0  0  0  0  0  0  0  0  0  0  0
    1.4812    1.1105    1.4339 H   0  0  0  0  0  0  0  0  0  0  0  0
   -0.0004   -2.3903   -0.1867 H   0  0  0  0  0  0  0  0  0  0  0  0
    0.0111   -1.6533    1.5215 H   0  0  0  0  0  0  0  0  0  0  0  0
   -2.2936   -1.1974   -1.0711 H   0  0  0  0  0  0  0  0  0  0  0  0
   -1.3975    0.0674   -2.0685 H   0  0  0  0  0  0  0  0  0  0  0  0
   -3.3707    0.5654    0.0423 H   0  0  0  0  0  0  0  0  0  0  0  0
   -2.1905    1.7975   -0.6564 H   0  0  0  0  0  0  0  0  0  0  0  0
  1  2  1  0
  2  3  1  0
  3  4  1  0
  4  5  1  0
  5  6  1  0
  6  7  1  0
  7  8  1  0
  3  9  1  0
  9  1  1  0
  5  3  1  0
  8  5  1  0
  1 10  1  0
  1 11  1  0
  2 12  1  0
  2 13  1  0
  4 14  1  0
  4 15  1  0
  6 16  1  0
  6 17  1  0
  7 18  1  0
  7 19  1  0
M  END
