
     RDKit          3D

 20 21  0  0  0  0  0  0  0  0999 V2000
    2.1150   -0.1939    0.5708 C   0  0  0  0  0  0  0  0  0  0  0  0
    1.4973   -0.7683   -0.6864 C   0  0  0  0  0  0  0  0  0  0  0  0
    0.0667   -0.4304   -0.4937 C   0  0  0  0  0  0  0  0  0  0  0  0
   -0.0266    0.6525    0.2408 C   0  0  0  0  0  0  0  0  0  0  0  0
    1.3566    1.1435    0.6124 C   0  0  0  0  0  0  0  0  0  0  0  0
   -1.4450    0.9921    0.4302 C   0  0  0  0  0  0  0  0  0  0  0  0
   -2.2115   -0.2557    0.0851 C   0  0  0  0  0  0  0  0  0  0  0  0
   -1.2752   -0.9526   -0.8800 C   0  0  0  0  0  0  0  0  0  0  0  0
    1.8037   -0.8482    1.4050 H   0  0  0  0  0  0  0  0  0  0  0  0
    3.1911   -0.0523    0.4882 H   0  0  0  0  0  0  0  0  0  0  0  0
    1.6753   -1.8523   -0.7983 H   0  0  0  0  0  0  0  0  0  0  0  0
    1.9404   -0.2039   -1.5510 H   0  0  0  0  0  0  0  0  0  0  0  0
    1.3802    1.6011    1.6002 H   0  0  0  0  0  0  0  0  0  0  0  0
    1.7764    1.7497   -0.2042 H   0  0  0  0  0  0  0  0  0  0  0  0
   -1.8004    1.7898   -0.2597 H   0  0  0  0  0  0  0  0  0  0  0  0
   -1.6660    1.3258    1.4706 H   0  0  0  0  0  0  0  0  0  0  0  0
   -3.1604   -0.0454   -0.4634 H   0  0  0  0  0  0  0  0  0  0  0  0
   -2.3640   -0.8269    1.0053 H   0  0  0  0  0  0  0  0  0  0  0  0
   -1.5203   -0.7879   -1.9279 H   0  0  0  0  0  0  0  0  0  0  0  0
   -1.3335   -2.0366   -0.6440 H   0  0  0  0  0  0  0  0  0  0  0  0
  1  2  1  0
  2  3  1  0
  3  4  2  0
  4  5  1  0
  4  6  1  0
  6  7  1  0
  7  8  1  0
  5  1  1  0
  8  3  1  0
  1  9  1  0
  1 10  1  0
  2 11  1  0
  2 12  1  0
  5 13  1  0
  5 14  1  0
  6 15  1  0
  6 16  1  0
  7 17  1  0
  7 18  1  0
  8 19  1  0
  8 20  1  0
M  END
