
     RDKit          3D

 23 24  0  0  0  0  0  0  0  0999 V2000
    2.6947    0.3173    0.8318 C   0  0  0  0  0  0  0  0  0  0  0  0
    2.3435   -0.8055   -0.0935 C   0  0  0  0  0  0  0  0  0  0  0  0
    1.0353   -0.0600   -0.3977 C   0  0  0  0  0  0  0  0  0  0  0  0
   -0.0652   -1.0538   -0.5425 C   0  0  0  0  0  0  0  0  0  0  0  0
   -1.4069   -0.4885   -0.8426 C   0  0  0  0  0  0  0  0  0  0  0  0
   -1.9496    0.4528    0.1731 C   0  0  0  0  0  0  0  0  0  0  0  0
   -3.3064    1.0307   -0.1197 C   0  0  0  0  0  0  0  0  0  0  0  0
   -3.0942    0.0990    0.8780 O   0  0  0  0  0  0  0  0  0  0  0  0
    1.1942    0.6074    0.9372 C   0  0  0  0  0  0  0  0  0  0  0  0
    3.2567    1.1474    0.3178 H   0  0  0  0  0  0  0  0  0  0  0  0
    3.1535    0.0393    1.7978 H   0  0  0  0  0  0  0  0  0  0  0  0
    2.1539   -1.7347    0.5075 H   0  0  0  0  0  0  0  0  0  0  0  0
    2.9916   -0.9613   -0.9619 H   0  0  0  0  0  0  0  0  0  0  0  0
    1.1498    0.6230   -1.2429 H   0  0  0  0  0  0  0  0  0  0  0  0
   -0.0919   -1.7396    0.3266 H   0  0  0  0  0  0  0  0  0  0  0  0
    0.2092   -1.7132   -1.4181 H   0  0  0  0  0  0  0  0  0  0  0  0
   -2.1183   -1.3552   -0.9106 H   0  0  0  0  0  0  0  0  0  0  0  0
   -1.4138   -0.0314   -1.8516 H   0  0  0  0  0  0  0  0  0  0  0  0
   -1.2244    1.0598    0.7170 H   0  0  0  0  0  0  0  0  0  0  0  0
   -3.4113    2.0978    0.1241 H   0  0  0  0  0  0  0  0  0  0  0  0
   -3.8759    0.6233   -0.9857 H   0  0  0  0  0  0  0  0  0  0  0  0
    0.7055    0.1364    1.7976 H   0  0  0  0  0  0  0  0  0  0  0  0
    1.0699    1.7090    0.9583 H   0  0  0  0  0  0  0  0  0  0  0  0
  1  2  1  0
  2  3  1  0
  3  4  1  0
  4  5  1  0
  5  6  1  0
  6  7  1  0
  7  8  1  0
  3  9  1  0
  9  1  1  0
  8  6  1  0
  1 10  1  0
  1 11  1  0
  2 12  1  0
  2 13  1  0
  3 14  1  0
  4 15  1  0
  4 16  1  0
  5 17  1  0
  5 18  1  0
  6 19  1  0
  7 20  1  0
  7 21  1  0
  9 22  1  0
  9 23  1  0
M  END
