
     RDKit          3D

 21 23  0  0  0  0  0  0  0  0999 V2000
    0.7871   -1.2782   -0.0996 C   0  0  0  0  0  0  0  0  0  0  0  0
    1.7716   -0.2020    0.3617 C   0  0  0  0  0  0  0  0  0  0  0  0
    1.3072    1.0897   -0.1595 C   0  0  0  0  0  0  0  0  0  0  0  0
    0.7753    2.1167    0.5319 O   0  0  0  0  0  0  0  0  0  0  0  0
   -0.1562    1.2268    0.2676 C   0  0  0  0  0  0  0  0  0  0  0  0
   -1.0756    1.0477   -0.8404 C   0  0  0  0  0  0  0  0  0  0  0  0
   -1.4803   -0.4276   -0.7382 C   0  0  0  0  0  0  0  0  0  0  0  0
   -0.6089   -1.0188    0.3679 C   0  0  0  0  0  0  0  0  0  0  0  0
   -0.5460    0.2021    1.2920 C   0  0  0  0  0  0  0  0  0  0  0  0
    1.1521   -2.2489    0.2255 H   0  0  0  0  0  0  0  0  0  0  0  0
    0.7829   -1.2325   -1.2103 H   0  0  0  0  0  0  0  0  0  0  0  0
    2.7346   -0.4656   -0.1721 H   0  0  0  0  0  0  0  0  0  0  0  0
    2.0078   -0.2657    1.4211 H   0  0  0  0  0  0  0  0  0  0  0  0
    1.5671    1.3268   -1.2231 H   0  0  0  0  0  0  0  0  0  0  0  0
   -1.9434    1.7070   -0.7825 H   0  0  0  0  0  0  0  0  0  0  0  0
   -0.6439    1.1646   -1.8591 H   0  0  0  0  0  0  0  0  0  0  0  0
   -2.5199   -0.4225   -0.3154 H   0  0  0  0  0  0  0  0  0  0  0  0
   -1.3909   -0.9552   -1.6820 H   0  0  0  0  0  0  0  0  0  0  0  0
   -1.0868   -1.8596    0.8723 H   0  0  0  0  0  0  0  0  0  0  0  0
   -1.5629    0.4143    1.6177 H   0  0  0  0  0  0  0  0  0  0  0  0
    0.1291    0.0811    2.1245 H   0  0  0  0  0  0  0  0  0  0  0  0
  1  2  1  0
  2  3  1  0
  3  4  1  0
  4  5  1  0
  5  6  1  0
  6  7  1  0
  7  8  1  0
  8  9  1  0
  8  1  1  0
  5  3  1  0
  9  5  1  0
  1 10  1  0
  1 11  1  0
  2 12  1  0
  2 13  1  0
  3 14  1  0
  6 15  1  0
  6 16  1  0
  7 17  1  0
  7 18  1  0
  8 19  1  0
  9 20  1  0
  9 21  1  0
M  END
