
     RDKit          3D

 13 14  0  0  0  0  0  0  0  0999 V2000
   -0.8231    0.9094   -0.2237 C   0  0  0  0  0  0  0  0  0  0  0  0
   -1.0809   -0.5370    0.2582 C   0  0  0  0  0  0  0  0  0  0  0  0
    0.3629   -0.3205    0.7297 C   0  0  0  0  0  0  0  0  0  0  0  0
    1.5372   -0.2769   -0.0575 C   0  0  0  0  0  0  0  0  0  0  0  0
    0.4126    0.2158   -0.7665 C   0  0  0  0  0  0  0  0  0  0  0  0
   -0.6888    1.5462    0.6454 H   0  0  0  0  0  0  0  0  0  0  0  0
   -1.5462    1.2007   -0.9806 H   0  0  0  0  0  0  0  0  0  0  0  0
   -1.7908   -0.6195    1.0752 H   0  0  0  0  0  0  0  0  0  0  0  0
   -1.0891   -1.2846   -0.5269 H   0  0  0  0  0  0  0  0  0  0  0  0
    0.2964    0.5077    1.5061 H   0  0  0  0  0  0  0  0  0  0  0  0
    2.3633    0.4643    0.1635 H   0  0  0  0  0  0  0  0  0  0  0  0
    2.0242   -1.2725   -0.2928 H   0  0  0  0  0  0  0  0  0  0  0  0
    0.0223   -0.5332   -1.5301 H   0  0  0  0  0  0  0  0  0  0  0  0
  1  2  1  0
  2  3  1  0
  3  4  1  0
  4  5  1  0
  5  1  1  0
  5  3  1  0
  1  6  1  0
  1  7  1  0
  2  8  1  0
  2  9  1  0
  3 10  1  0
  4 11  1  0
  4 12  1  0
  5 13  1  0
M  END
