
     RDKit          3D

 18 19  0  0  0  0  0  0  0  0999 V2000
   -1.5573    0.0458   -0.3757 C   0  0  0  0  0  0  0  0  0  0  0  0
   -0.6610   -1.1778   -0.3351 C   0  0  0  0  0  0  0  0  0  0  0  0
    0.2347   -0.8605    0.8396 C   0  0  0  0  0  0  0  0  0  0  0  0
    1.6072   -0.5098    0.3294 C   0  0  0  0  0  0  0  0  0  0  0  0
    1.6741    0.6266   -0.3978 O   0  0  0  0  0  0  0  0  0  0  0  0
    0.5646    1.3726   -0.5481 C   0  0  0  0  0  0  0  0  0  0  0  0
   -0.6069    1.0492    0.2968 C   0  0  0  0  0  0  0  0  0  0  0  0
   -0.2729    0.2855    1.4395 O   0  0  0  0  0  0  0  0  0  0  0  0
   -1.8435    0.3500   -1.3766 H   0  0  0  0  0  0  0  0  0  0  0  0
   -2.3759   -0.1334    0.3300 H   0  0  0  0  0  0  0  0  0  0  0  0
   -0.0699   -1.2630   -1.2737 H   0  0  0  0  0  0  0  0  0  0  0  0
   -1.2002   -2.1122   -0.1919 H   0  0  0  0  0  0  0  0  0  0  0  0
    0.2786   -1.6613    1.5784 H   0  0  0  0  0  0  0  0  0  0  0  0
    2.2621   -0.3795    1.2412 H   0  0  0  0  0  0  0  0  0  0  0  0
    2.0592   -1.3680   -0.2157 H   0  0  0  0  0  0  0  0  0  0  0  0
    0.8377    2.4519   -0.3571 H   0  0  0  0  0  0  0  0  0  0  0  0
    0.2288    1.3508   -1.6254 H   0  0  0  0  0  0  0  0  0  0  0  0
   -1.1596    1.9330    0.6423 H   0  0  0  0  0  0  0  0  0  0  0  0
  1  2  1  0
  2  3  1  0
  3  4  1  0
  4  5  1  0
  5  6  1  0
  6  7  1  0
  7  8  1  0
  7  1  1  0
  8  3  1  0
  1  9  1  0
  1 10  1  0
  2 11  1  0
  2 12  1  0
  3 13  1  0
  4 14  1  0
  4 15  1  0
  6 16  1  0
  6 17  1  0
  7 18  1  0
M  END
