
     RDKit          3D

 23 25  0  0  0  0  0  0  0  0999 V2000
   -1.9839    0.3962   -0.3499 C   0  0  0  0  0  0  0  0  0  0  0  0
   -1.5504   -0.1171    1.0345 C   0  0  0  0  0  0  0  0  0  0  0  0
   -0.0729    0.0362    1.1169 C   0  0  0  0  0  0  0  0  0  0  0  0
    0.6279   -1.0910    0.3645 C   0  0  0  0  0  0  0  0  0  0  0  0
    1.9673   -0.4691    0.1004 C   0  0  0  0  0  0  0  0  0  0  0  0
    1.6433    1.0088   -0.1704 C   0  0  0  0  0  0  0  0  0  0  0  0
    0.1827    1.1121    0.0444 C   0  0  0  0  0  0  0  0  0  0  0  0
   -0.6151    0.3770   -1.0432 C   0  0  0  0  0  0  0  0  0  0  0  0
   -0.1371   -1.0418   -0.9549 C   0  0  0  0  0  0  0  0  0  0  0  0
   -2.3618    1.4320   -0.2922 H   0  0  0  0  0  0  0  0  0  0  0  0
   -2.6872   -0.3030   -0.8300 H   0  0  0  0  0  0  0  0  0  0  0  0
   -1.8284   -1.1907    1.1080 H   0  0  0  0  0  0  0  0  0  0  0  0
   -2.0827    0.4252    1.8348 H   0  0  0  0  0  0  0  0  0  0  0  0
    0.3518    0.2713    2.0687 H   0  0  0  0  0  0  0  0  0  0  0  0
    0.6193   -2.0381    0.8581 H   0  0  0  0  0  0  0  0  0  0  0  0
    2.6951   -0.5950    0.8939 H   0  0  0  0  0  0  0  0  0  0  0  0
    2.3609   -0.8892   -0.8490 H   0  0  0  0  0  0  0  0  0  0  0  0
    2.1641    1.5921    0.5917 H   0  0  0  0  0  0  0  0  0  0  0  0
    1.9781    1.3060   -1.1910 H   0  0  0  0  0  0  0  0  0  0  0  0
   -0.2232    2.0716    0.3014 H   0  0  0  0  0  0  0  0  0  0  0  0
   -0.5941    0.8440   -1.9983 H   0  0  0  0  0  0  0  0  0  0  0  0
   -0.9634   -1.7767   -0.8657 H   0  0  0  0  0  0  0  0  0  0  0  0
    0.5096   -1.3610   -1.7726 H   0  0  0  0  0  0  0  0  0  0  0  0
  1  2  1  0
  2  3  1  0
  3  4  1  0
  4  5  1  0
  5  6  1  0
  6  7  1  0
  7  8  1  0
  8  9  1  0
  8  1  1  0
  7  3  1  0
  9  4  1  0
  1 10  1  0
  1 11  1  0
  2 12  1  0
  2 13  1  0
  3 14  1  0
  4 15  1  0
  5 16  1  0
  5 17  1  0
  6 18  1  0
  6 19  1  0
  7 20  1  0
  8 21  1  0
  9 22  1  0
  9 23  1  0
M  END
