
     RDKit          3D

 19 21  0  0  0  0  0  0  0  0999 V2000
   -1.3967   -1.2843   -0.0965 C   0  0  0  0  0  0  0  0  0  0  0  0
   -1.8388    0.1270   -0.0159 C   0  0  0  0  0  0  0  0  0  0  0  0
   -0.7845    1.1664   -0.0450 C   0  0  0  0  0  0  0  0  0  0  0  0
   -0.2049    1.5495   -1.2857 O   0  0  0  0  0  0  0  0  0  0  0  0
    0.4450    0.7579   -0.4451 C   0  0  0  0  0  0  0  0  0  0  0  0
    1.6960    1.0021    0.2812 C   0  0  0  0  0  0  0  0  0  0  0  0
    1.7170   -0.5058    0.5864 C   0  0  0  0  0  0  0  0  0  0  0  0
    0.7881   -0.6595   -0.6279 C   0  0  0  0  0  0  0  0  0  0  0  0
   -0.1756   -1.5745   -0.5482 O   0  0  0  0  0  0  0  0  0  0  0  0
   -2.1454   -1.8229   -0.7527 H   0  0  0  0  0  0  0  0  0  0  0  0
   -1.5298   -1.8050    0.9001 H   0  0  0  0  0  0  0  0  0  0  0  0
   -2.5766    0.3886   -0.8329 H   0  0  0  0  0  0  0  0  0  0  0  0
   -2.4308    0.2613    0.9252 H   0  0  0  0  0  0  0  0  0  0  0  0
   -0.9615    2.0895    0.5824 H   0  0  0  0  0  0  0  0  0  0  0  0
    1.5139    1.5443    1.2395 H   0  0  0  0  0  0  0  0  0  0  0  0
    2.5813    1.3414   -0.2871 H   0  0  0  0  0  0  0  0  0  0  0  0
    1.1629   -0.7758    1.4902 H   0  0  0  0  0  0  0  0  0  0  0  0
    2.6892   -0.9801    0.4598 H   0  0  0  0  0  0  0  0  0  0  0  0
    1.4513   -0.8202   -1.5279 H   0  0  0  0  0  0  0  0  0  0  0  0
  1  2  1  0
  2  3  1  0
  3  4  1  0
  4  5  1  0
  5  6  1  0
  6  7  1  0
  7  8  1  0
  8  9  1  0
  9  1  1  0
  5  3  1  0
  8  5  1  0
  1 10  1  0
  1 11  1  0
  2 12  1  0
  2 13  1  0
  3 14  1  0
  6 15  1  0
  6 16  1  0
  7 17  1  0
  7 18  1  0
  8 19  1  0
M  END
