
     RDKit          3D

 18 19  0  0  0  0  0  0  0  0999 V2000
   -0.7657    1.1388   -0.5287 C   0  0  0  0  0  0  0  0  0  0  0  0
   -1.4134    0.2579    0.5019 C   0  0  0  0  0  0  0  0  0  0  0  0
   -0.9227   -1.1491    0.4221 C   0  0  0  0  0  0  0  0  0  0  0  0
   -0.0067   -1.5719    1.3899 O   0  0  0  0  0  0  0  0  0  0  0  0
    0.3766   -1.4285   -0.0203 C   0  0  0  0  0  0  0  0  0  0  0  0
    1.3601   -0.3299   -0.1833 C   0  0  0  0  0  0  0  0  0  0  0  0
    1.1233    0.8542    0.7096 C   0  0  0  0  0  0  0  0  0  0  0  0
    0.3101    1.7809    0.0962 O   0  0  0  0  0  0  0  0  0  0  0  0
   -1.4971    1.9440   -0.7973 H   0  0  0  0  0  0  0  0  0  0  0  0
   -0.4592    0.6062   -1.4274 H   0  0  0  0  0  0  0  0  0  0  0  0
   -2.5352    0.3300    0.3859 H   0  0  0  0  0  0  0  0  0  0  0  0
   -1.2312    0.6984    1.5267 H   0  0  0  0  0  0  0  0  0  0  0  0
   -1.7341   -1.8964    0.2398 H   0  0  0  0  0  0  0  0  0  0  0  0
    0.6353   -2.3729   -0.5201 H   0  0  0  0  0  0  0  0  0  0  0  0
    2.3723   -0.7419    0.1068 H   0  0  0  0  0  0  0  0  0  0  0  0
    1.4762   -0.0060   -1.2322 H   0  0  0  0  0  0  0  0  0  0  0  0
    0.7937    0.5226    1.6951 H   0  0  0  0  0  0  0  0  0  0  0  0
    2.1176    1.3638    0.8714 H   0  0  0  0  0  0  0  0  0  0  0  0
  1  2  1  0
  2  3  1  0
  3  4  1  0
  4  5  1  0
  5  6  1  0
  6  7  1  0
  7  8  1  0
  8  1  1  0
  5  3  1  0
  1  9  1  0
  1 10  1  0
  2 11  1  0
  2 12  1  0
  3 13  1  0
  5 14  1  0
  6 15  1  0
  6 16  1  0
  7 17  1  0
  7 18  1  0
M  END
