
     RDKit          3D

 17 18  0  0  0  0  0  0  0  0999 V2000
    2.4688   -0.7110    0.0416 C   0  0  0  0  0  0  0  0  0  0  0  0
    1.9588    0.5224   -0.3018 C   0  0  0  0  0  0  0  0  0  0  0  0
    0.5912    0.3802   -0.2529 C   0  0  0  0  0  0  0  0  0  0  0  0
    0.3141   -0.9168    0.1135 C   0  0  0  0  0  0  0  0  0  0  0  0
    1.4587   -1.5095    0.2726 O   0  0  0  0  0  0  0  0  0  0  0  0
   -1.0968   -1.4163    0.2631 C   0  0  0  0  0  0  0  0  0  0  0  0
   -1.9729   -0.5031   -0.2867 O   0  0  0  0  0  0  0  0  0  0  0  0
   -1.7204    0.7474    0.2729 C   0  0  0  0  0  0  0  0  0  0  0  0
   -0.5212    1.3079   -0.5064 C   0  0  0  0  0  0  0  0  0  0  0  0
    3.5421   -0.9275    0.0954 H   0  0  0  0  0  0  0  0  0  0  0  0
    2.5464    1.4137   -0.5562 H   0  0  0  0  0  0  0  0  0  0  0  0
   -1.3563   -1.5461    1.3327 H   0  0  0  0  0  0  0  0  0  0  0  0
   -1.1595   -2.4136   -0.1996 H   0  0  0  0  0  0  0  0  0  0  0  0
   -1.3529    0.5976    1.3159 H   0  0  0  0  0  0  0  0  0  0  0  0
   -2.5852    1.4210    0.2228 H   0  0  0  0  0  0  0  0  0  0  0  0
   -0.3223    2.3492   -0.2374 H   0  0  0  0  0  0  0  0  0  0  0  0
   -0.7924    1.2046   -1.5896 H   0  0  0  0  0  0  0  0  0  0  0  0
  1  2  2  0
  2  3  1  0
  3  4  2  0
  4  5  1  0
  4  6  1  0
  6  7  1  0
  7  8  1  0
  8  9  1  0
  5  1  1  0
  9  3  1  0
  1 10  1  0
  2 11  1  0
  6 12  1  0
  6 13  1  0
  8 14  1  0
  8 15  1  0
  9 16  1  0
  9 17  1  0
M  END
