
     RDKit          3D

 21 23  0  0  0  0  0  0  0  0999 V2000
    1.8058    0.6046   -0.6008 C   0  0  0  0  0  0  0  0  0  0  0  0
    1.4428   -0.8203   -0.1585 C   0  0  0  0  0  0  0  0  0  0  0  0
    0.2663   -0.6297    0.6561 C   0  0  0  0  0  0  0  0  0  0  0  0
   -0.8207   -1.6105    0.6946 C   0  0  0  0  0  0  0  0  0  0  0  0
   -1.8712   -0.8203    1.2259 O   0  0  0  0  0  0  0  0  0  0  0  0
   -1.6954    0.4697    0.6570 C   0  0  0  0  0  0  0  0  0  0  0  0
   -1.6414    0.3871   -0.8351 C   0  0  0  0  0  0  0  0  0  0  0  0
   -0.4405    0.5164   -0.0215 C   0  0  0  0  0  0  0  0  0  0  0  0
    0.6006    1.4802   -0.2156 C   0  0  0  0  0  0  0  0  0  0  0  0
    1.9197    0.5673   -1.7053 H   0  0  0  0  0  0  0  0  0  0  0  0
    2.6700    0.9979   -0.0689 H   0  0  0  0  0  0  0  0  0  0  0  0
    1.3900   -1.5103   -1.0020 H   0  0  0  0  0  0  0  0  0  0  0  0
    2.3058   -1.1595    0.4738 H   0  0  0  0  0  0  0  0  0  0  0  0
    0.5162   -0.3032    1.6819 H   0  0  0  0  0  0  0  0  0  0  0  0
   -1.1013   -2.0637   -0.2536 H   0  0  0  0  0  0  0  0  0  0  0  0
   -0.6575   -2.4461    1.4188 H   0  0  0  0  0  0  0  0  0  0  0  0
   -2.1431    1.3052    1.1860 H   0  0  0  0  0  0  0  0  0  0  0  0
   -1.8860   -0.5306   -1.3800 H   0  0  0  0  0  0  0  0  0  0  0  0
   -1.9508    1.3131   -1.3622 H   0  0  0  0  0  0  0  0  0  0  0  0
    0.8244    2.0724    0.6873 H   0  0  0  0  0  0  0  0  0  0  0  0
    0.4663    2.1802   -1.0780 H   0  0  0  0  0  0  0  0  0  0  0  0
  1  2  1  0
  2  3  1  0
  3  4  1  0
  4  5  1  0
  5  6  1  0
  6  7  1  0
  7  8  1  0
  8  9  1  0
  9  1  1  0
  8  3  1  0
  8  6  1  0
  1 10  1  0
  1 11  1  0
  2 12  1  0
  2 13  1  0
  3 14  1  0
  4 15  1  0
  4 16  1  0
  6 17  1  0
  7 18  1  0
  7 19  1  0
  9 20  1  0
  9 21  1  0
M  END
