
     RDKit          3D

 25 26  0  0  0  0  0  0  0  0999 V2000
   -2.7952    0.3411    0.3566 C   0  0  0  0  0  0  0  0  0  0  0  0
   -2.2389   -1.0534    0.4907 C   0  0  0  0  0  0  0  0  0  0  0  0
   -0.7193   -0.9235    0.3619 C   0  0  0  0  0  0  0  0  0  0  0  0
   -0.4577    0.5504    0.4896 C   0  0  0  0  0  0  0  0  0  0  0  0
    0.8262    0.9946   -0.1219 C   0  0  0  0  0  0  0  0  0  0  0  0
    2.0686    0.3866    0.4160 C   0  0  0  0  0  0  0  0  0  0  0  0
    2.4165   -1.0268    0.4011 C   0  0  0  0  0  0  0  0  0  0  0  0
    3.0647   -0.1457   -0.6074 C   0  0  0  0  0  0  0  0  0  0  0  0
   -1.6605    1.1306   -0.2586 C   0  0  0  0  0  0  0  0  0  0  0  0
   -3.0402    0.7553    1.3749 H   0  0  0  0  0  0  0  0  0  0  0  0
   -3.7160    0.3603   -0.2570 H   0  0  0  0  0  0  0  0  0  0  0  0
   -2.4361   -1.4258    1.5118 H   0  0  0  0  0  0  0  0  0  0  0  0
   -2.6481   -1.7045   -0.3052 H   0  0  0  0  0  0  0  0  0  0  0  0
   -0.2192   -1.5019    1.1735 H   0  0  0  0  0  0  0  0  0  0  0  0
   -0.4343   -1.2460   -0.6419 H   0  0  0  0  0  0  0  0  0  0  0  0
   -0.5464    0.8422    1.5689 H   0  0  0  0  0  0  0  0  0  0  0  0
    0.7262    0.8691   -1.2252 H   0  0  0  0  0  0  0  0  0  0  0  0
    0.8735    2.1142    0.0328 H   0  0  0  0  0  0  0  0  0  0  0  0
    2.5224    1.0057    1.2522 H   0  0  0  0  0  0  0  0  0  0  0  0
    1.7838   -1.8415    0.0152 H   0  0  0  0  0  0  0  0  0  0  0  0
    3.0622   -1.4022    1.2502 H   0  0  0  0  0  0  0  0  0  0  0  0
    4.1162    0.1947   -0.4771 H   0  0  0  0  0  0  0  0  0  0  0  0
    2.7505   -0.2747   -1.6419 H   0  0  0  0  0  0  0  0  0  0  0  0
   -1.7532    2.2087   -0.1346 H   0  0  0  0  0  0  0  0  0  0  0  0
   -1.5455    0.7926   -1.3077 H   0  0  0  0  0  0  0  0  0  0  0  0
  1  2  1  0
  2  3  1  0
  3  4  1  0
  4  5  1  0
  5  6  1  0
  6  7  1  0
  7  8  1  0
  4  9  1  0
  9  1  1  0
  8  6  1  0
  1 10  1  0
  1 11  1  0
  2 12  1  0
  2 13  1  0
  3 14  1  0
  3 15  1  0
  4 16  1  0
  5 17  1  0
  5 18  1  0
  6 19  1  0
  7 20  1  0
  7 21  1  0
  8 22  1  0
  8 23  1  0
  9 24  1  0
  9 25  1  0
M  END
