
     RDKit          3D

 23 24  0  0  0  0  0  0  0  0999 V2000
   -2.3090    0.1283   -0.7554 C   0  0  0  0  0  0  0  0  0  0  0  0
   -2.0195    0.7374    0.6213 C   0  0  0  0  0  0  0  0  0  0  0  0
   -0.4815    0.6786    0.7285 C   0  0  0  0  0  0  0  0  0  0  0  0
   -0.2595   -0.6452    0.0331 C   0  0  0  0  0  0  0  0  0  0  0  0
    1.0777   -1.1917    0.0240 C   0  0  0  0  0  0  0  0  0  0  0  0
    2.2203   -0.4995   -0.5673 C   0  0  0  0  0  0  0  0  0  0  0  0
    2.7131    0.8499   -0.1061 C   0  0  0  0  0  0  0  0  0  0  0  0
    2.1104    0.6541   -1.3222 O   0  0  0  0  0  0  0  0  0  0  0  0
   -0.9728   -0.4193   -1.2526 C   0  0  0  0  0  0  0  0  0  0  0  0
   -3.0837   -0.6474   -0.7051 H   0  0  0  0  0  0  0  0  0  0  0  0
   -2.6866    0.9396   -1.4180 H   0  0  0  0  0  0  0  0  0  0  0  0
   -2.3718    1.7681    0.7021 H   0  0  0  0  0  0  0  0  0  0  0  0
   -2.3926    0.0666    1.4232 H   0  0  0  0  0  0  0  0  0  0  0  0
   -0.1439    0.7018    1.7712 H   0  0  0  0  0  0  0  0  0  0  0  0
   -0.1455    1.5363    0.1073 H   0  0  0  0  0  0  0  0  0  0  0  0
   -0.9307   -1.3575    0.6124 H   0  0  0  0  0  0  0  0  0  0  0  0
    1.0308   -2.2276   -0.4333 H   0  0  0  0  0  0  0  0  0  0  0  0
    1.3545   -1.4346    1.0979 H   0  0  0  0  0  0  0  0  0  0  0  0
    3.0635   -1.1547   -0.9422 H   0  0  0  0  0  0  0  0  0  0  0  0
    3.8050    1.0847   -0.2009 H   0  0  0  0  0  0  0  0  0  0  0  0
    2.1555    1.4228    0.6305 H   0  0  0  0  0  0  0  0  0  0  0  0
   -0.5539    0.3735   -1.8833 H   0  0  0  0  0  0  0  0  0  0  0  0
   -1.1796   -1.3643   -1.7872 H   0  0  0  0  0  0  0  0  0  0  0  0
  1  2  1  0
  2  3  1  0
  3  4  1  0
  4  5  1  0
  5  6  1  0
  6  7  1  0
  7  8  1  0
  4  9  1  0
  9  1  1  0
  8  6  1  0
  1 10  1  0
  1 11  1  0
  2 12  1  0
  2 13  1  0
  3 14  1  0
  3 15  1  0
  4 16  1  0
  5 17  1  0
  5 18  1  0
  6 19  1  0
  7 20  1  0
  7 21  1  0
  9 22  1  0
  9 23  1  0
M  END
