
     RDKit          3D

 21 23  0  0  0  0  0  0  0  0999 V2000
   -2.0904    0.5229    0.1815 C   0  0  0  0  0  0  0  0  0  0  0  0
   -1.6674   -0.8559   -0.1968 C   0  0  0  0  0  0  0  0  0  0  0  0
   -0.2229   -1.0090    0.0790 C   0  0  0  0  0  0  0  0  0  0  0  0
    0.6449   -0.5902   -1.1183 C   0  0  0  0  0  0  0  0  0  0  0  0
    1.4531    0.1619   -0.1277 C   0  0  0  0  0  0  0  0  0  0  0  0
    2.7581   -0.0748    0.3085 C   0  0  0  0  0  0  0  0  0  0  0  0
    2.3036    1.1564   -0.4070 O   0  0  0  0  0  0  0  0  0  0  0  0
    0.2542    0.2814    0.7512 C   0  0  0  0  0  0  0  0  0  0  0  0
   -0.7800    1.2832    0.3815 C   0  0  0  0  0  0  0  0  0  0  0  0
   -2.7290    0.9893   -0.5844 H   0  0  0  0  0  0  0  0  0  0  0  0
   -2.6698    0.4533    1.1282 H   0  0  0  0  0  0  0  0  0  0  0  0
   -2.2519   -1.6635    0.2846 H   0  0  0  0  0  0  0  0  0  0  0  0
   -1.8254   -0.9943   -1.3015 H   0  0  0  0  0  0  0  0  0  0  0  0
    0.1375   -1.8965    0.5891 H   0  0  0  0  0  0  0  0  0  0  0  0
    0.0832    0.0739   -1.8164 H   0  0  0  0  0  0  0  0  0  0  0  0
    1.0933   -1.4547   -1.6151 H   0  0  0  0  0  0  0  0  0  0  0  0
    3.0846    0.2200    1.3395 H   0  0  0  0  0  0  0  0  0  0  0  0
    3.4647   -0.6719   -0.3137 H   0  0  0  0  0  0  0  0  0  0  0  0
    0.5218    0.1866    1.8032 H   0  0  0  0  0  0  0  0  0  0  0  0
   -0.9967    2.0325    1.1816 H   0  0  0  0  0  0  0  0  0  0  0  0
   -0.5657    1.8493   -0.5470 H   0  0  0  0  0  0  0  0  0  0  0  0
  1  2  1  0
  2  3  1  0
  3  4  1  0
  4  5  1  0
  5  6  1  0
  6  7  1  0
  5  8  1  0
  8  9  1  0
  9  1  1  0
  8  3  1  0
  7  5  1  0
  1 10  1  0
  1 11  1  0
  2 12  1  0
  2 13  1  0
  3 14  1  0
  4 15  1  0
  4 16  1  0
  6 17  1  0
  6 18  1  0
  8 19  1  0
  9 20  1  0
  9 21  1  0
M  END
