
     RDKit          3D

 21 23  0  0  0  0  0  0  0  0999 V2000
    1.5356    0.6789   -0.5173 C   0  0  0  0  0  0  0  0  0  0  0  0
    1.5267   -0.8174   -0.2010 C   0  0  0  0  0  0  0  0  0  0  0  0
    0.1009   -1.1934    0.0835 C   0  0  0  0  0  0  0  0  0  0  0  0
   -0.7396   -0.5708   -1.0107 C   0  0  0  0  0  0  0  0  0  0  0  0
   -1.2922    0.6941   -0.4975 C   0  0  0  0  0  0  0  0  0  0  0  0
   -1.3083    0.5763    0.9582 C   0  0  0  0  0  0  0  0  0  0  0  0
   -0.4472   -0.6206    1.3416 C   0  0  0  0  0  0  0  0  0  0  0  0
   -0.4525    1.5895    0.2502 C   0  0  0  0  0  0  0  0  0  0  0  0
    0.8428    1.3177    0.4669 O   0  0  0  0  0  0  0  0  0  0  0  0
    2.6185    0.9830   -0.4014 H   0  0  0  0  0  0  0  0  0  0  0  0
    1.2081    0.8906   -1.5408 H   0  0  0  0  0  0  0  0  0  0  0  0
    1.8067   -1.3176   -1.1606 H   0  0  0  0  0  0  0  0  0  0  0  0
    2.2398   -1.0949    0.5674 H   0  0  0  0  0  0  0  0  0  0  0  0
    0.0464   -2.3002    0.0884 H   0  0  0  0  0  0  0  0  0  0  0  0
   -0.2083   -0.5134   -1.9697 H   0  0  0  0  0  0  0  0  0  0  0  0
   -1.5985   -1.2870   -1.1714 H   0  0  0  0  0  0  0  0  0  0  0  0
   -2.2049    1.0967   -0.9764 H   0  0  0  0  0  0  0  0  0  0  0  0
   -2.1598    0.8601    1.5655 H   0  0  0  0  0  0  0  0  0  0  0  0
   -1.1545   -1.3348    1.8515 H   0  0  0  0  0  0  0  0  0  0  0  0
    0.3768   -0.3072    1.9969 H   0  0  0  0  0  0  0  0  0  0  0  0
   -0.7363    2.6704    0.2767 H   0  0  0  0  0  0  0  0  0  0  0  0
  1  2  1  0
  2  3  1  0
  3  4  1  0
  4  5  1  0
  5  6  1  0
  6  7  1  0
  6  8  1  0
  8  9  1  0
  9  1  1  0
  7  3  1  0
  8  5  1  0
  1 10  1  0
  1 11  1  0
  2 12  1  0
  2 13  1  0
  3 14  1  0
  4 15  1  0
  4 16  1  0
  5 17  1  0
  6 18  1  0
  7 19  1  0
  7 20  1  0
  8 21  1  0
M  END
