
     RDKit          3D

 23 24  0  0  0  0  0  0  0  0999 V2000
    1.9763   -0.0868    0.0755 C   0  0  0  0  0  0  0  0  0  0  0  0
    1.0844   -1.2525    0.2825 C   0  0  0  0  0  0  0  0  0  0  0  0
   -0.1078   -1.3390   -0.5749 C   0  0  0  0  0  0  0  0  0  0  0  0
   -1.3344   -0.6768   -0.1496 C   0  0  0  0  0  0  0  0  0  0  0  0
   -1.3868    0.0002    1.1446 C   0  0  0  0  0  0  0  0  0  0  0  0
   -0.9396    1.2871    0.4324 C   0  0  0  0  0  0  0  0  0  0  0  0
   -1.4151    0.7042   -0.8154 C   0  0  0  0  0  0  0  0  0  0  0  0
    0.3456    1.4727    0.6803 O   0  0  0  0  0  0  0  0  0  0  0  0
    1.3031    1.2101   -0.2221 C   0  0  0  0  0  0  0  0  0  0  0  0
    2.7597   -0.2665   -0.7057 H   0  0  0  0  0  0  0  0  0  0  0  0
    2.5635    0.0630    1.0290 H   0  0  0  0  0  0  0  0  0  0  0  0
    0.8533   -1.3646    1.3799 H   0  0  0  0  0  0  0  0  0  0  0  0
    1.7299   -2.1614    0.0713 H   0  0  0  0  0  0  0  0  0  0  0  0
    0.1764   -0.9554   -1.5959 H   0  0  0  0  0  0  0  0  0  0  0  0
   -0.3366   -2.4308   -0.7679 H   0  0  0  0  0  0  0  0  0  0  0  0
   -2.2719   -1.2547   -0.3890 H   0  0  0  0  0  0  0  0  0  0  0  0
   -0.7776   -0.3061    1.9803 H   0  0  0  0  0  0  0  0  0  0  0  0
   -2.4521    0.1268    1.4955 H   0  0  0  0  0  0  0  0  0  0  0  0
   -1.5629    2.1668    0.7734 H   0  0  0  0  0  0  0  0  0  0  0  0
   -2.4907    0.9854   -1.0227 H   0  0  0  0  0  0  0  0  0  0  0  0
   -0.8602    0.7504   -1.7357 H   0  0  0  0  0  0  0  0  0  0  0  0
    2.1054    2.0017   -0.0742 H   0  0  0  0  0  0  0  0  0  0  0  0
    1.0382    1.3261   -1.2912 H   0  0  0  0  0  0  0  0  0  0  0  0
  1  2  1  0
  2  3  1  0
  3  4  1  0
  4  5  1  0
  5  6  1  0
  6  7  1  0
  6  8  1  0
  8  9  1  0
  9  1  1  0
  7  4  1  0
  1 10  1  0
  1 11  1  0
  2 12  1  0
  2 13  1  0
  3 14  1  0
  3 15  1  0
  4 16  1  0
  5 17  1  0
  5 18  1  0
  6 19  1  0
  7 20  1  0
  7 21  1  0
  9 22  1  0
  9 23  1  0
M  END
