
     RDKit          3D

 21 23  0  0  0  0  0  0  0  0999 V2000
    2.4160    0.1516    0.6252 C   0  0  0  0  0  0  0  0  0  0  0  0
    1.3682   -0.9513    0.6847 C   0  0  0  0  0  0  0  0  0  0  0  0
    0.7058   -0.2179   -0.4942 C   0  0  0  0  0  0  0  0  0  0  0  0
   -0.6714   -0.3101   -0.5011 C   0  0  0  0  0  0  0  0  0  0  0  0
   -1.6323    0.2592   -1.4670 C   0  0  0  0  0  0  0  0  0  0  0  0
   -2.4204   -0.4844   -0.4348 C   0  0  0  0  0  0  0  0  0  0  0  0
   -1.5722    0.1752    0.6033 C   0  0  0  0  0  0  0  0  0  0  0  0
   -1.4358   -1.4638   -0.4999 O   0  0  0  0  0  0  0  0  0  0  0  0
    1.2727    1.0506    0.1490 C   0  0  0  0  0  0  0  0  0  0  0  0
    3.1435   -0.0963   -0.1746 H   0  0  0  0  0  0  0  0  0  0  0  0
    2.8469    0.4364    1.5982 H   0  0  0  0  0  0  0  0  0  0  0  0
    0.7663   -0.8249    1.5956 H   0  0  0  0  0  0  0  0  0  0  0  0
    1.7303   -1.9531    0.4433 H   0  0  0  0  0  0  0  0  0  0  0  0
    1.2291   -0.4041   -1.4380 H   0  0  0  0  0  0  0  0  0  0  0  0
   -1.6455   -0.1203   -2.4894 H   0  0  0  0  0  0  0  0  0  0  0  0
   -1.7190    1.3611   -1.3504 H   0  0  0  0  0  0  0  0  0  0  0  0
   -3.4167   -0.6323   -0.4138 H   0  0  0  0  0  0  0  0  0  0  0  0
   -1.6755    1.2542    0.7224 H   0  0  0  0  0  0  0  0  0  0  0  0
   -1.5058   -0.4194    1.5336 H   0  0  0  0  0  0  0  0  0  0  0  0
    0.6482    1.3583    1.0025 H   0  0  0  0  0  0  0  0  0  0  0  0
    1.5676    1.8314   -0.5653 H   0  0  0  0  0  0  0  0  0  0  0  0
  1  2  1  0
  2  3  1  0
  3  4  1  0
  4  5  1  0
  5  6  1  0
  6  7  1  0
  6  8  1  0
  3  9  1  0
  9  1  1  0
  7  4  1  0
  8  4  1  0
  1 10  1  0
  1 11  1  0
  2 12  1  0
  2 13  1  0
  3 14  1  0
  5 15  1  0
  5 16  1  0
  6 17  1  0
  7 18  1  0
  7 19  1  0
  9 20  1  0
  9 21  1  0
M  END
