
     RDKit          3D

 21 22  0  0  0  0  0  0  0  0999 V2000
    2.1670    0.0344    0.2791 C   0  0  0  0  0  0  0  0  0  0  0  0
    1.2938    1.2973    0.2371 C   0  0  0  0  0  0  0  0  0  0  0  0
   -0.0289    0.8725   -0.3116 C   0  0  0  0  0  0  0  0  0  0  0  0
   -1.1138    1.5333    0.1873 O   0  0  0  0  0  0  0  0  0  0  0  0
   -2.1943    0.7010    0.2311 C   0  0  0  0  0  0  0  0  0  0  0  0
   -1.7140   -0.7033   -0.1397 C   0  0  0  0  0  0  0  0  0  0  0  0
   -0.2539   -0.5743    0.1536 C   0  0  0  0  0  0  0  0  0  0  0  0
    0.6382   -1.4419   -0.6478 C   0  0  0  0  0  0  0  0  0  0  0  0
    1.8715   -0.8114   -0.7831 O   0  0  0  0  0  0  0  0  0  0  0  0
    3.2288    0.2737    0.2917 H   0  0  0  0  0  0  0  0  0  0  0  0
    1.9246   -0.4705    1.2355 H   0  0  0  0  0  0  0  0  0  0  0  0
    1.1551    1.7005    1.2693 H   0  0  0  0  0  0  0  0  0  0  0  0
    1.7631    2.0869   -0.3520 H   0  0  0  0  0  0  0  0  0  0  0  0
    0.0399    0.8948   -1.4205 H   0  0  0  0  0  0  0  0  0  0  0  0
   -2.5121    0.6141    1.3101 H   0  0  0  0  0  0  0  0  0  0  0  0
   -3.0604    1.0133   -0.3505 H   0  0  0  0  0  0  0  0  0  0  0  0
   -2.1366   -1.4721    0.5274 H   0  0  0  0  0  0  0  0  0  0  0  0
   -1.9126   -0.9046   -1.2172 H   0  0  0  0  0  0  0  0  0  0  0  0
   -0.1101   -0.6155    1.2432 H   0  0  0  0  0  0  0  0  0  0  0  0
    0.1551   -1.6193   -1.6416 H   0  0  0  0  0  0  0  0  0  0  0  0
    0.7995   -2.4090   -0.1013 H   0  0  0  0  0  0  0  0  0  0  0  0
  1  2  1  0
  2  3  1  0
  3  4  1  0
  4  5  1  0
  5  6  1  0
  6  7  1  0
  7  8  1  0
  8  9  1  0
  9  1  1  0
  7  3  1  0
  1 10  1  0
  1 11  1  0
  2 12  1  0
  2 13  1  0
  3 14  1  0
  5 15  1  0
  5 16  1  0
  6 17  1  0
  6 18  1  0
  7 19  1  0
  8 20  1  0
  8 21  1  0
M  END
