
     RDKit          3D

 21 23  0  0  0  0  0  0  0  0999 V2000
   -2.1525    0.4303   -0.8430 C   0  0  0  0  0  0  0  0  0  0  0  0
   -2.5568   -0.6504    0.0891 C   0  0  0  0  0  0  0  0  0  0  0  0
   -1.1999   -0.7219   -0.4549 C   0  0  0  0  0  0  0  0  0  0  0  0
    0.0193   -0.3132    0.3114 C   0  0  0  0  0  0  0  0  0  0  0  0
    0.9149    0.6620   -0.4227 C   0  0  0  0  0  0  0  0  0  0  0  0
    2.1754    1.1527    0.2385 C   0  0  0  0  0  0  0  0  0  0  0  0
    2.2509    0.2361   -0.9048 C   0  0  0  0  0  0  0  0  0  0  0  0
    0.5032   -1.0842    1.3764 C   0  0  0  0  0  0  0  0  0  0  0  0
   -0.2822    0.1610    1.6885 O   0  0  0  0  0  0  0  0  0  0  0  0
   -1.9394    1.4140   -0.3463 H   0  0  0  0  0  0  0  0  0  0  0  0
   -2.4944    0.4913   -1.8772 H   0  0  0  0  0  0  0  0  0  0  0  0
   -2.7024   -0.4110    1.1707 H   0  0  0  0  0  0  0  0  0  0  0  0
   -3.3319   -1.3504   -0.2830 H   0  0  0  0  0  0  0  0  0  0  0  0
   -1.0178   -1.4596   -1.2618 H   0  0  0  0  0  0  0  0  0  0  0  0
    0.4184    1.4421   -1.0536 H   0  0  0  0  0  0  0  0  0  0  0  0
    2.2862    0.8082    1.2949 H   0  0  0  0  0  0  0  0  0  0  0  0
    2.4709    2.2135    0.1192 H   0  0  0  0  0  0  0  0  0  0  0  0
    2.6394   -0.7934   -0.6763 H   0  0  0  0  0  0  0  0  0  0  0  0
    2.6423    0.6513   -1.8615 H   0  0  0  0  0  0  0  0  0  0  0  0
   -0.1069   -1.9183    1.8033 H   0  0  0  0  0  0  0  0  0  0  0  0
    1.4632   -0.9599    1.8929 H   0  0  0  0  0  0  0  0  0  0  0  0
  1  2  1  0
  2  3  1  0
  3  4  1  0
  4  5  1  0
  5  6  1  0
  6  7  1  0
  4  8  1  0
  8  9  1  0
  3  1  1  0
  9  4  1  0
  7  5  1  0
  1 10  1  0
  1 11  1  0
  2 12  1  0
  2 13  1  0
  3 14  1  0
  5 15  1  0
  6 16  1  0
  6 17  1  0
  7 18  1  0
  7 19  1  0
  8 20  1  0
  8 21  1  0
M  END
