
     RDKit          3D

 19 22  0  0  0  0  0  0  0  0999 V2000
   -1.9756    0.3261    0.0348 C   0  0  0  0  0  0  0  0  0  0  0  0
   -0.9955    1.1162    0.8347 C   0  0  0  0  0  0  0  0  0  0  0  0
    0.3714    0.8707    0.2548 C   0  0  0  0  0  0  0  0  0  0  0  0
    0.5353    1.3673   -1.0124 O   0  0  0  0  0  0  0  0  0  0  0  0
    0.2142    0.0297   -0.9661 C   0  0  0  0  0  0  0  0  0  0  0  0
   -1.1729   -0.4706   -0.9363 C   0  0  0  0  0  0  0  0  0  0  0  0
    1.3351   -0.8832   -0.5880 C   0  0  0  0  0  0  0  0  0  0  0  0
    2.5321   -0.4312    0.1304 C   0  0  0  0  0  0  0  0  0  0  0  0
    1.2444   -0.1978    0.8167 C   0  0  0  0  0  0  0  0  0  0  0  0
   -2.7037    0.9856   -0.4882 H   0  0  0  0  0  0  0  0  0  0  0  0
   -2.5417   -0.3236    0.7464 H   0  0  0  0  0  0  0  0  0  0  0  0
   -1.0355    0.9551    1.9143 H   0  0  0  0  0  0  0  0  0  0  0  0
   -1.2139    2.2121    0.6783 H   0  0  0  0  0  0  0  0  0  0  0  0
   -1.6804   -0.5242   -1.9209 H   0  0  0  0  0  0  0  0  0  0  0  0
   -1.1560   -1.5331   -0.5599 H   0  0  0  0  0  0  0  0  0  0  0  0
    1.1030   -1.9489   -0.6232 H   0  0  0  0  0  0  0  0  0  0  0  0
    3.2069   -1.2041    0.5117 H   0  0  0  0  0  0  0  0  0  0  0  0
    3.0799    0.5060   -0.1691 H   0  0  0  0  0  0  0  0  0  0  0  0
    0.8529   -0.8521    1.6005 H   0  0  0  0  0  0  0  0  0  0  0  0
  1  2  1  0
  2  3  1  0
  3  4  1  0
  4  5  1  0
  5  6  1  0
  5  7  1  0
  7  8  1  0
  8  9  1  0
  6  1  1  0
  9  7  1  0
  5  3  1  0
  9  3  1  0
  1 10  1  0
  1 11  1  0
  2 12  1  0
  2 13  1  0
  6 14  1  0
  6 15  1  0
  7 16  1  0
  8 17  1  0
  8 18  1  0
  9 19  1  0
M  END
