
     RDKit          3D

 20 21  0  0  0  0  0  0  0  0999 V2000
   -1.2267    0.5491   -0.6273 C   0  0  0  0  0  0  0  0  0  0  0  0
   -1.2318   -0.9349   -0.4013 C   0  0  0  0  0  0  0  0  0  0  0  0
   -0.0030   -1.1611    0.4776 C   0  0  0  0  0  0  0  0  0  0  0  0
    1.2650   -1.0003   -0.3455 C   0  0  0  0  0  0  0  0  0  0  0  0
    1.9790    0.1438    0.0346 O   0  0  0  0  0  0  0  0  0  0  0  0
    1.1719    1.2353   -0.3300 C   0  0  0  0  0  0  0  0  0  0  0  0
   -0.2020    1.1514    0.2866 C   0  0  0  0  0  0  0  0  0  0  0  0
   -0.1118    0.0765    1.3804 C   0  0  0  0  0  0  0  0  0  0  0  0
   -1.1104    0.8376   -1.6803 H   0  0  0  0  0  0  0  0  0  0  0  0
   -2.2277    0.9288   -0.2813 H   0  0  0  0  0  0  0  0  0  0  0  0
   -2.1128   -1.2723    0.2123 H   0  0  0  0  0  0  0  0  0  0  0  0
   -1.1499   -1.4574   -1.3588 H   0  0  0  0  0  0  0  0  0  0  0  0
   -0.0442   -2.0909    1.0385 H   0  0  0  0  0  0  0  0  0  0  0  0
    1.0021   -0.8410   -1.4211 H   0  0  0  0  0  0  0  0  0  0  0  0
    1.8868   -1.9188   -0.2816 H   0  0  0  0  0  0  0  0  0  0  0  0
    1.6768    2.1305    0.1089 H   0  0  0  0  0  0  0  0  0  0  0  0
    1.1656    1.2715   -1.4267 H   0  0  0  0  0  0  0  0  0  0  0  0
   -0.5106    2.1205    0.6891 H   0  0  0  0  0  0  0  0  0  0  0  0
    0.8147    0.1896    1.9385 H   0  0  0  0  0  0  0  0  0  0  0  0
   -1.0309    0.0422    1.9873 H   0  0  0  0  0  0  0  0  0  0  0  0
  1  2  1  0
  2  3  1  0
  3  4  1  0
  4  5  1  0
  5  6  1  0
  6  7  1  0
  7  8  1  0
  7  1  1  0
  8  3  1  0
  1  9  1  0
  1 10  1  0
  2 11  1  0
  2 12  1  0
  3 13  1  0
  4 14  1  0
  4 15  1  0
  6 16  1  0
  6 17  1  0
  7 18  1  0
  8 19  1  0
  8 20  1  0
M  END
