
     RDKit          3D

 21 23  0  0  0  0  0  0  0  0999 V2000
   -1.4601   -1.2307    0.3144 C   0  0  0  0  0  0  0  0  0  0  0  0
    0.0078   -1.2562   -0.0977 C   0  0  0  0  0  0  0  0  0  0  0  0
    0.3941    0.1733    0.2012 C   0  0  0  0  0  0  0  0  0  0  0  0
    1.7107    0.5720   -0.3337 C   0  0  0  0  0  0  0  0  0  0  0  0
    2.9456   -0.1184    0.0731 C   0  0  0  0  0  0  0  0  0  0  0  0
    2.5808    0.9988    0.7904 O   0  0  0  0  0  0  0  0  0  0  0  0
   -0.7290    0.9244   -0.5081 C   0  0  0  0  0  0  0  0  0  0  0  0
   -1.8864    1.3392    0.3361 C   0  0  0  0  0  0  0  0  0  0  0  0
   -1.9466    0.0215   -0.3249 C   0  0  0  0  0  0  0  0  0  0  0  0
   -1.9997   -2.1381   -0.0120 H   0  0  0  0  0  0  0  0  0  0  0  0
   -1.4848   -1.2145    1.4200 H   0  0  0  0  0  0  0  0  0  0  0  0
    0.0353   -1.4801   -1.1611 H   0  0  0  0  0  0  0  0  0  0  0  0
    0.5067   -1.9790    0.5592 H   0  0  0  0  0  0  0  0  0  0  0  0
    0.2746    0.3157    1.2797 H   0  0  0  0  0  0  0  0  0  0  0  0
    1.7584    1.3511   -1.1174 H   0  0  0  0  0  0  0  0  0  0  0  0
    2.8123   -1.1296    0.5094 H   0  0  0  0  0  0  0  0  0  0  0  0
    3.8500    0.0184   -0.5464 H   0  0  0  0  0  0  0  0  0  0  0  0
   -0.5448    1.3694   -1.4891 H   0  0  0  0  0  0  0  0  0  0  0  0
   -2.5269    2.1340   -0.1139 H   0  0  0  0  0  0  0  0  0  0  0  0
   -1.6769    1.4446    1.4138 H   0  0  0  0  0  0  0  0  0  0  0  0
   -2.6211   -0.1157   -1.1930 H   0  0  0  0  0  0  0  0  0  0  0  0
  1  2  1  0
  2  3  1  0
  3  4  1  0
  4  5  1  0
  5  6  1  0
  3  7  1  0
  7  8  1  0
  8  9  1  0
  9  1  1  0
  6  4  1  0
  9  7  1  0
  1 10  1  0
  1 11  1  0
  2 12  1  0
  2 13  1  0
  3 14  1  0
  4 15  1  0
  5 16  1  0
  5 17  1  0
  7 18  1  0
  8 19  1  0
  8 20  1  0
  9 21  1  0
M  END
