
     RDKit          3D

 17 18  0  0  0  0  0  0  0  0999 V2000
   -1.5677    0.0677    0.0295 C   0  0  0  0  0  0  0  0  0  0  0  0
   -0.6185   -1.0845    0.1412 C   0  0  0  0  0  0  0  0  0  0  0  0
    0.6872   -0.4590    0.4973 C   0  0  0  0  0  0  0  0  0  0  0  0
    1.6953   -0.6334   -0.6056 C   0  0  0  0  0  0  0  0  0  0  0  0
    1.1264    0.4747   -1.2368 O   0  0  0  0  0  0  0  0  0  0  0  0
    0.6914    0.9479   -0.0270 C   0  0  0  0  0  0  0  0  0  0  0  0
   -0.7576    1.3361    0.0664 C   0  0  0  0  0  0  0  0  0  0  0  0
   -2.1982    0.0099   -0.8874 H   0  0  0  0  0  0  0  0  0  0  0  0
   -2.2709   -0.0070    0.9072 H   0  0  0  0  0  0  0  0  0  0  0  0
   -0.8947   -1.8312    0.8983 H   0  0  0  0  0  0  0  0  0  0  0  0
   -0.5793   -1.6364   -0.8356 H   0  0  0  0  0  0  0  0  0  0  0  0
    1.0387   -0.5255    1.5185 H   0  0  0  0  0  0  0  0  0  0  0  0
    2.7074   -0.5127   -0.2265 H   0  0  0  0  0  0  0  0  0  0  0  0
    1.5022   -1.6078   -1.1312 H   0  0  0  0  0  0  0  0  0  0  0  0
    1.4094    1.6028    0.4854 H   0  0  0  0  0  0  0  0  0  0  0  0
   -1.0683    2.0792   -0.6879 H   0  0  0  0  0  0  0  0  0  0  0  0
   -0.9029    1.7790    1.0942 H   0  0  0  0  0  0  0  0  0  0  0  0
  1  2  1  0
  2  3  1  0
  3  4  1  0
  4  5  1  0
  5  6  1  0
  6  7  1  0
  7  1  1  0
  6  3  1  0
  1  8  1  0
  1  9  1  0
  2 10  1  0
  2 11  1  0
  3 12  1  0
  4 13  1  0
  4 14  1  0
  6 15  1  0
  7 16  1  0
  7 17  1  0
M  END
