
     RDKit          3D

 20 21  0  0  0  0  0  0  0  0999 V2000
    1.8862    1.1769    0.3633 C   0  0  0  0  0  0  0  0  0  0  0  0
    1.8034   -0.2516    0.9697 C   0  0  0  0  0  0  0  0  0  0  0  0
    1.5492    0.0625   -0.5080 C   0  0  0  0  0  0  0  0  0  0  0  0
    0.2366   -0.3197   -1.0168 C   0  0  0  0  0  0  0  0  0  0  0  0
   -0.8714   -0.6629   -0.1259 C   0  0  0  0  0  0  0  0  0  0  0  0
   -1.4380    0.2554    0.8650 C   0  0  0  0  0  0  0  0  0  0  0  0
   -2.7039   -0.3305    0.5717 O   0  0  0  0  0  0  0  0  0  0  0  0
   -2.2431   -0.3435   -0.7441 C   0  0  0  0  0  0  0  0  0  0  0  0
    2.9180    1.5797    0.3395 H   0  0  0  0  0  0  0  0  0  0  0  0
    1.1819    1.8466    0.8638 H   0  0  0  0  0  0  0  0  0  0  0  0
    0.9774   -0.5014    1.6262 H   0  0  0  0  0  0  0  0  0  0  0  0
    2.7652   -0.7239    1.2475 H   0  0  0  0  0  0  0  0  0  0  0  0
    2.4076   -0.2854   -1.1661 H   0  0  0  0  0  0  0  0  0  0  0  0
    0.3677   -1.2175   -1.7000 H   0  0  0  0  0  0  0  0  0  0  0  0
   -0.1418    0.4630   -1.7485 H   0  0  0  0  0  0  0  0  0  0  0  0
   -0.9182   -1.7224    0.2296 H   0  0  0  0  0  0  0  0  0  0  0  0
   -1.2931    0.1083    1.9363 H   0  0  0  0  0  0  0  0  0  0  0  0
   -1.5444    1.3253    0.5321 H   0  0  0  0  0  0  0  0  0  0  0  0
   -2.2994    0.6868   -1.1547 H   0  0  0  0  0  0  0  0  0  0  0  0
   -2.6399   -1.1454   -1.3806 H   0  0  0  0  0  0  0  0  0  0  0  0
  1  2  1  0
  2  3  1  0
  3  4  1  0
  4  5  1  0
  5  6  1  0
  6  7  1  0
  7  8  1  0
  3  1  1  0
  8  5  1  0
  1  9  1  0
  1 10  1  0
  2 11  1  0
  2 12  1  0
  3 13  1  0
  4 14  1  0
  4 15  1  0
  5 16  1  0
  6 17  1  0
  6 18  1  0
  8 19  1  0
  8 20  1  0
M  END
