
     RDKit          3D

 18 18  0  0  0  0  0  0  0  0999 V2000
   -0.5501    1.3434    0.1060 C   0  0  0  0  0  0  0  0  0  0  0  0
   -1.1278    0.3235   -0.8518 C   0  0  0  0  0  0  0  0  0  0  0  0
   -1.0235   -1.0178   -0.1228 C   0  0  0  0  0  0  0  0  0  0  0  0
    0.4614   -1.3794   -0.1663 C   0  0  0  0  0  0  0  0  0  0  0  0
    1.1925   -0.3535    0.6517 C   0  0  0  0  0  0  0  0  0  0  0  0
    0.9433    1.0568    0.2139 C   0  0  0  0  0  0  0  0  0  0  0  0
   -0.9702    1.0877    1.1139 H   0  0  0  0  0  0  0  0  0  0  0  0
   -0.7333    2.3731   -0.1732 H   0  0  0  0  0  0  0  0  0  0  0  0
   -0.4368    0.2991   -1.7309 H   0  0  0  0  0  0  0  0  0  0  0  0
   -2.1373    0.5472   -1.1846 H   0  0  0  0  0  0  0  0  0  0  0  0
   -1.6612   -1.7850   -0.5524 H   0  0  0  0  0  0  0  0  0  0  0  0
   -1.2518   -0.8646    0.9642 H   0  0  0  0  0  0  0  0  0  0  0  0
    0.5544   -2.3582    0.3111 H   0  0  0  0  0  0  0  0  0  0  0  0
    0.7799   -1.3533   -1.2243 H   0  0  0  0  0  0  0  0  0  0  0  0
    2.2964   -0.5246    0.5912 H   0  0  0  0  0  0  0  0  0  0  0  0
    0.8867   -0.4656    1.7088 H   0  0  0  0  0  0  0  0  0  0  0  0
    1.4712    1.3475   -0.7036 H   0  0  0  0  0  0  0  0  0  0  0  0
    1.3061    1.7237    1.0489 H   0  0  0  0  0  0  0  0  0  0  0  0
  1  2  1  0
  2  3  1  0
  3  4  1  0
  4  5  1  0
  5  6  1  0
  6  1  1  0
  1  7  1  0
  1  8  1  0
  2  9  1  0
  2 10  1  0
  3 11  1  0
  3 12  1  0
  4 13  1  0
  4 14  1  0
  5 15  1  0
  5 16  1  0
  6 17  1  0
  6 18  1  0
M  END
