
     RDKit          3D

 21 23  0  0  0  0  0  0  0  0999 V2000
   -1.3357   -1.1619   -0.2908 C   0  0  0  0  0  0  0  0  0  0  0  0
    0.1702   -1.2842   -0.5757 C   0  0  0  0  0  0  0  0  0  0  0  0
    0.9438   -0.5931    0.4457 C   0  0  0  0  0  0  0  0  0  0  0  0
    2.2549   -0.0226    0.4466 C   0  0  0  0  0  0  0  0  0  0  0  0
    1.2792    0.7970   -0.1749 C   0  0  0  0  0  0  0  0  0  0  0  0
    0.2450    1.6605    0.3857 C   0  0  0  0  0  0  0  0  0  0  0  0
   -0.6019    2.5089   -0.1588 O   0  0  0  0  0  0  0  0  0  0  0  0
   -1.0060    1.2800   -0.4540 C   0  0  0  0  0  0  0  0  0  0  0  0
   -1.6679    0.2191    0.2958 C   0  0  0  0  0  0  0  0  0  0  0  0
   -1.9388   -1.3898   -1.1715 H   0  0  0  0  0  0  0  0  0  0  0  0
   -1.5634   -1.8772    0.5352 H   0  0  0  0  0  0  0  0  0  0  0  0
    0.3384   -0.9472   -1.6249 H   0  0  0  0  0  0  0  0  0  0  0  0
    0.3774   -2.3776   -0.5525 H   0  0  0  0  0  0  0  0  0  0  0  0
    0.4197   -0.5930    1.4483 H   0  0  0  0  0  0  0  0  0  0  0  0
    3.0424   -0.5184   -0.1675 H   0  0  0  0  0  0  0  0  0  0  0  0
    2.6995    0.3176    1.4140 H   0  0  0  0  0  0  0  0  0  0  0  0
    1.3260    0.8311   -1.3062 H   0  0  0  0  0  0  0  0  0  0  0  0
    0.1085    1.5519    1.5063 H   0  0  0  0  0  0  0  0  0  0  0  0
   -0.8301    1.0096   -1.5294 H   0  0  0  0  0  0  0  0  0  0  0  0
   -2.7835    0.3147    0.1643 H   0  0  0  0  0  0  0  0  0  0  0  0
   -1.4778    0.2746    1.3644 H   0  0  0  0  0  0  0  0  0  0  0  0
  1  2  1  0
  2  3  1  0
  3  4  1  0
  4  5  1  0
  5  6  1  0
  6  7  1  0
  7  8  1  0
  8  9  1  0
  9  1  1  0
  5  3  1  0
  8  6  1  0
  1 10  1  0
  1 11  1  0
  2 12  1  0
  2 13  1  0
  3 14  1  0
  4 15  1  0
  4 16  1  0
  5 17  1  0
  6 18  1  0
  8 19  1  0
  9 20  1  0
  9 21  1  0
M  END
