
     RDKit          3D

 21 23  0  0  0  0  0  0  0  0999 V2000
   -1.9676    0.3773   -0.0099 C   0  0  0  0  0  0  0  0  0  0  0  0
   -0.8496    1.2505    0.5693 C   0  0  0  0  0  0  0  0  0  0  0  0
    0.0510    0.2290    1.1643 C   0  0  0  0  0  0  0  0  0  0  0  0
    1.5124    0.4452    0.8673 C   0  0  0  0  0  0  0  0  0  0  0  0
    1.6729    0.2499   -0.6045 C   0  0  0  0  0  0  0  0  0  0  0  0
    1.2908   -1.1315   -0.1914 C   0  0  0  0  0  0  0  0  0  0  0  0
    2.0063   -0.8753    1.0031 O   0  0  0  0  0  0  0  0  0  0  0  0
   -0.1301   -1.0447    0.3135 C   0  0  0  0  0  0  0  0  0  0  0  0
   -1.1243   -0.6867   -0.7249 C   0  0  0  0  0  0  0  0  0  0  0  0
   -2.6180    0.9216   -0.6889 H   0  0  0  0  0  0  0  0  0  0  0  0
   -2.5225   -0.1101    0.8092 H   0  0  0  0  0  0  0  0  0  0  0  0
   -1.2614    1.9652    1.3251 H   0  0  0  0  0  0  0  0  0  0  0  0
   -0.4245    1.8187   -0.2576 H   0  0  0  0  0  0  0  0  0  0  0  0
   -0.1704   -0.0211    2.1936 H   0  0  0  0  0  0  0  0  0  0  0  0
    2.0431    1.2187    1.3734 H   0  0  0  0  0  0  0  0  0  0  0  0
    2.7245    0.3147   -0.9202 H   0  0  0  0  0  0  0  0  0  0  0  0
    1.0170    0.7939   -1.2754 H   0  0  0  0  0  0  0  0  0  0  0  0
    1.5889   -1.9763   -0.7682 H   0  0  0  0  0  0  0  0  0  0  0  0
   -0.3688   -1.9111    0.9321 H   0  0  0  0  0  0  0  0  0  0  0  0
   -0.6715   -0.2919   -1.6378 H   0  0  0  0  0  0  0  0  0  0  0  0
   -1.7980   -1.5362   -0.9151 H   0  0  0  0  0  0  0  0  0  0  0  0
  1  2  1  0
  2  3  1  0
  3  4  1  0
  4  5  1  0
  5  6  1  0
  6  7  1  0
  6  8  1  0
  8  9  1  0
  9  1  1  0
  8  3  1  0
  7  4  1  0
  1 10  1  0
  1 11  1  0
  2 12  1  0
  2 13  1  0
  3 14  1  0
  4 15  1  0
  5 16  1  0
  5 17  1  0
  6 18  1  0
  8 19  1  0
  9 20  1  0
  9 21  1  0
M  END
