
     RDKit          3D

 21 22  0  0  0  0  0  0  0  0999 V2000
   -2.9946   -0.4186    0.0880 C   0  0  0  0  0  0  0  0  0  0  0  0
   -1.8950   -0.3183   -0.9465 C   0  0  0  0  0  0  0  0  0  0  0  0
   -1.6267    0.9266   -0.1328 C   0  0  0  0  0  0  0  0  0  0  0  0
   -0.1536    1.1311    0.0397 C   0  0  0  0  0  0  0  0  0  0  0  0
    0.4893   -0.0855    0.2178 O   0  0  0  0  0  0  0  0  0  0  0  0
    1.8443    0.1610    0.3718 C   0  0  0  0  0  0  0  0  0  0  0  0
    2.7572   -0.9399   -0.0234 C   0  0  0  0  0  0  0  0  0  0  0  0
    2.6102   -0.6613    1.4039 C   0  0  0  0  0  0  0  0  0  0  0  0
   -2.1916    0.2947    0.9992 O   0  0  0  0  0  0  0  0  0  0  0  0
   -3.1867   -1.4656    0.3804 H   0  0  0  0  0  0  0  0  0  0  0  0
   -3.9043    0.1738   -0.1467 H   0  0  0  0  0  0  0  0  0  0  0  0
   -1.1467   -1.1149   -0.8220 H   0  0  0  0  0  0  0  0  0  0  0  0
   -2.2424   -0.1697   -1.9688 H   0  0  0  0  0  0  0  0  0  0  0  0
   -2.1938    1.7754   -0.5197 H   0  0  0  0  0  0  0  0  0  0  0  0
    0.0703    1.7463    0.9360 H   0  0  0  0  0  0  0  0  0  0  0  0
    0.2458    1.6960   -0.8267 H   0  0  0  0  0  0  0  0  0  0  0  0
    2.1719    1.2034    0.3315 H   0  0  0  0  0  0  0  0  0  0  0  0
    2.2990   -1.8710   -0.4112 H   0  0  0  0  0  0  0  0  0  0  0  0
    3.6713   -0.6037   -0.5747 H   0  0  0  0  0  0  0  0  0  0  0  0
    3.4154   -0.1609    1.9922 H   0  0  0  0  0  0  0  0  0  0  0  0
    1.9606   -1.2990    2.0163 H   0  0  0  0  0  0  0  0  0  0  0  0
  1  2  1  0
  2  3  1  0
  3  4  1  0
  4  5  1  0
  5  6  1  0
  6  7  1  0
  7  8  1  0
  3  9  1  0
  9  1  1  0
  8  6  1  0
  1 10  1  0
  1 11  1  0
  2 12  1  0
  2 13  1  0
  3 14  1  0
  4 15  1  0
  4 16  1  0
  6 17  1  0
  7 18  1  0
  7 19  1  0
  8 20  1  0
  8 21  1  0
M  END
