
     RDKit          3D

 21 23  0  0  0  0  0  0  0  0999 V2000
   -2.0573    1.1688    0.3533 C   0  0  0  0  0  0  0  0  0  0  0  0
   -0.5476    1.1521    0.3808 C   0  0  0  0  0  0  0  0  0  0  0  0
   -0.2349   -0.2045   -0.1810 C   0  0  0  0  0  0  0  0  0  0  0  0
    1.1216   -0.5670   -0.6484 C   0  0  0  0  0  0  0  0  0  0  0  0
    2.2174   -0.4761    0.4540 C   0  0  0  0  0  0  0  0  0  0  0  0
    2.2404    0.3893   -0.7485 C   0  0  0  0  0  0  0  0  0  0  0  0
   -1.0085   -1.3378    0.4756 C   0  0  0  0  0  0  0  0  0  0  0  0
   -1.4815   -0.6835   -0.7605 C   0  0  0  0  0  0  0  0  0  0  0  0
   -2.4678    0.2742   -0.6111 O   0  0  0  0  0  0  0  0  0  0  0  0
   -2.4779    0.8471    1.3320 H   0  0  0  0  0  0  0  0  0  0  0  0
   -2.4679    2.1681    0.0802 H   0  0  0  0  0  0  0  0  0  0  0  0
   -0.2337    1.1466    1.4471 H   0  0  0  0  0  0  0  0  0  0  0  0
   -0.0943    1.9825   -0.1729 H   0  0  0  0  0  0  0  0  0  0  0  0
    1.1682   -1.4706   -1.2979 H   0  0  0  0  0  0  0  0  0  0  0  0
    2.8885   -1.3574    0.5344 H   0  0  0  0  0  0  0  0  0  0  0  0
    1.9201   -0.0557    1.4197 H   0  0  0  0  0  0  0  0  0  0  0  0
    2.0951    1.4874   -0.5573 H   0  0  0  0  0  0  0  0  0  0  0  0
    2.9805    0.2181   -1.5597 H   0  0  0  0  0  0  0  0  0  0  0  0
   -0.6109   -2.3691    0.3756 H   0  0  0  0  0  0  0  0  0  0  0  0
   -1.5061   -1.1482    1.4301 H   0  0  0  0  0  0  0  0  0  0  0  0
   -1.4432   -1.1641   -1.7456 H   0  0  0  0  0  0  0  0  0  0  0  0
  1  2  1  0
  2  3  1  0
  3  4  1  0
  4  5  1  0
  5  6  1  0
  3  7  1  0
  7  8  1  0
  8  9  1  0
  9  1  1  0
  8  3  1  0
  6  4  1  0
  1 10  1  0
  1 11  1  0
  2 12  1  0
  2 13  1  0
  4 14  1  0
  5 15  1  0
  5 16  1  0
  6 17  1  0
  6 18  1  0
  7 19  1  0
  7 20  1  0
  8 21  1  0
M  END
