
     RDKit          3D

 23 25  0  0  0  0  0  0  0  0999 V2000
   -2.2540   -0.6455    1.2300 C   0  0  0  0  0  0  0  0  0  0  0  0
   -2.0319    0.8119    1.0962 C   0  0  0  0  0  0  0  0  0  0  0  0
   -1.1110   -0.1343    0.4598 C   0  0  0  0  0  0  0  0  0  0  0  0
   -1.0628   -0.1428   -1.0352 C   0  0  0  0  0  0  0  0  0  0  0  0
    0.3996   -0.1675   -1.4265 C   0  0  0  0  0  0  0  0  0  0  0  0
    1.1619   -0.0312   -0.1502 C   0  0  0  0  0  0  0  0  0  0  0  0
    2.6054   -0.3478   -0.0549 C   0  0  0  0  0  0  0  0  0  0  0  0
    2.1291    1.0479    0.1001 C   0  0  0  0  0  0  0  0  0  0  0  0
    0.2531   -0.4384    0.9785 C   0  0  0  0  0  0  0  0  0  0  0  0
   -2.0365   -1.0525    2.2542 H   0  0  0  0  0  0  0  0  0  0  0  0
   -3.1076   -1.1635    0.7595 H   0  0  0  0  0  0  0  0  0  0  0  0
   -1.7609    1.4418    1.9590 H   0  0  0  0  0  0  0  0  0  0  0  0
   -2.7829    1.3290    0.4307 H   0  0  0  0  0  0  0  0  0  0  0  0
   -1.4720    0.8347   -1.4124 H   0  0  0  0  0  0  0  0  0  0  0  0
   -1.6484   -0.9475   -1.5054 H   0  0  0  0  0  0  0  0  0  0  0  0
    0.6198   -1.1785   -1.8570 H   0  0  0  0  0  0  0  0  0  0  0  0
    0.6372    0.6051   -2.1831 H   0  0  0  0  0  0  0  0  0  0  0  0
    3.0841   -0.6361   -1.0250 H   0  0  0  0  0  0  0  0  0  0  0  0
    2.9308   -0.9586    0.8067 H   0  0  0  0  0  0  0  0  0  0  0  0
    2.1008    1.5137    1.1105 H   0  0  0  0  0  0  0  0  0  0  0  0
    2.4352    1.7540   -0.7022 H   0  0  0  0  0  0  0  0  0  0  0  0
    0.5127    0.0506    1.9240 H   0  0  0  0  0  0  0  0  0  0  0  0
    0.3982   -1.5445    1.1305 H   0  0  0  0  0  0  0  0  0  0  0  0
  1  2  1  0
  2  3  1  0
  3  4  1  0
  4  5  1  0
  5  6  1  0
  6  7  1  0
  7  8  1  0
  6  9  1  0
  3  1  1  0
  8  6  1  0
  9  3  1  0
  1 10  1  0
  1 11  1  0
  2 12  1  0
  2 13  1  0
  4 14  1  0
  4 15  1  0
  5 16  1  0
  5 17  1  0
  7 18  1  0
  7 19  1  0
  8 20  1  0
  8 21  1  0
  9 22  1  0
  9 23  1  0
M  END
