
     RDKit          3D

 21 22  0  0  0  0  0  0  0  0999 V2000
   -1.8563    1.0340    0.4729 C   0  0  0  0  0  0  0  0  0  0  0  0
   -0.3369    1.2213    0.3758 C   0  0  0  0  0  0  0  0  0  0  0  0
    0.2247   -0.1861    0.4954 C   0  0  0  0  0  0  0  0  0  0  0  0
    1.6819   -0.2360    0.7143 C   0  0  0  0  0  0  0  0  0  0  0  0
    2.6907    0.2793   -0.1456 C   0  0  0  0  0  0  0  0  0  0  0  0
    2.3414   -1.1747   -0.2366 O   0  0  0  0  0  0  0  0  0  0  0  0
   -0.2201   -0.8819   -0.7942 C   0  0  0  0  0  0  0  0  0  0  0  0
   -1.7326   -0.9535   -0.7102 C   0  0  0  0  0  0  0  0  0  0  0  0
   -2.3354    0.2557   -0.5445 O   0  0  0  0  0  0  0  0  0  0  0  0
   -2.0176    0.5894    1.4943 H   0  0  0  0  0  0  0  0  0  0  0  0
   -2.3652    2.0039    0.4511 H   0  0  0  0  0  0  0  0  0  0  0  0
   -0.1569    1.6257   -0.6504 H   0  0  0  0  0  0  0  0  0  0  0  0
   -0.0090    1.8825    1.1732 H   0  0  0  0  0  0  0  0  0  0  0  0
   -0.3447   -0.6969    1.3095 H   0  0  0  0  0  0  0  0  0  0  0  0
    1.9881   -0.5871    1.7386 H   0  0  0  0  0  0  0  0  0  0  0  0
    2.5205    0.7108   -1.1266 H   0  0  0  0  0  0  0  0  0  0  0  0
    3.7362    0.3238    0.2056 H   0  0  0  0  0  0  0  0  0  0  0  0
    0.0578   -0.2499   -1.6828 H   0  0  0  0  0  0  0  0  0  0  0  0
    0.1925   -1.8796   -0.8978 H   0  0  0  0  0  0  0  0  0  0  0  0
   -2.0687   -1.3659   -1.7028 H   0  0  0  0  0  0  0  0  0  0  0  0
   -1.9904   -1.7148    0.0606 H   0  0  0  0  0  0  0  0  0  0  0  0
  1  2  1  0
  2  3  1  0
  3  4  1  0
  4  5  1  0
  5  6  1  0
  3  7  1  0
  7  8  1  0
  8  9  1  0
  9  1  1  0
  6  4  1  0
  1 10  1  0
  1 11  1  0
  2 12  1  0
  2 13  1  0
  3 14  1  0
  4 15  1  0
  5 16  1  0
  5 17  1  0
  7 18  1  0
  7 19  1  0
  8 20  1  0
  8 21  1  0
M  END
