
     RDKit          3D

 19 20  0  0  0  0  0  0  0  0999 V2000
   -1.9599   -0.3954   -0.0893 C   0  0  0  0  0  0  0  0  0  0  0  0
   -0.8062   -1.3501    0.2552 C   0  0  0  0  0  0  0  0  0  0  0  0
    0.2943   -0.5121    0.7740 C   0  0  0  0  0  0  0  0  0  0  0  0
    1.5502   -1.0432    0.7381 O   0  0  0  0  0  0  0  0  0  0  0  0
    2.4327    0.0011    0.4572 C   0  0  0  0  0  0  0  0  0  0  0  0
    1.6646    1.1542    0.3183 O   0  0  0  0  0  0  0  0  0  0  0  0
    0.5016    0.6292   -0.2379 C   0  0  0  0  0  0  0  0  0  0  0  0
   -0.6688    1.5179   -0.2078 C   0  0  0  0  0  0  0  0  0  0  0  0
   -1.7377    0.8755    0.3804 O   0  0  0  0  0  0  0  0  0  0  0  0
   -2.1326   -0.3732   -1.1957 H   0  0  0  0  0  0  0  0  0  0  0  0
   -2.8786   -0.7796    0.4082 H   0  0  0  0  0  0  0  0  0  0  0  0
   -0.5292   -1.8747   -0.6805 H   0  0  0  0  0  0  0  0  0  0  0  0
   -1.1581   -2.1214    0.9766 H   0  0  0  0  0  0  0  0  0  0  0  0
    0.0084   -0.0523    1.7332 H   0  0  0  0  0  0  0  0  0  0  0  0
    2.8956   -0.2164   -0.5328 H   0  0  0  0  0  0  0  0  0  0  0  0
    3.2138    0.1056    1.2338 H   0  0  0  0  0  0  0  0  0  0  0  0
    0.7757    0.2295   -1.2301 H   0  0  0  0  0  0  0  0  0  0  0  0
   -0.4889    2.4736    0.2929 H   0  0  0  0  0  0  0  0  0  0  0  0
   -0.9769    1.7321   -1.2729 H   0  0  0  0  0  0  0  0  0  0  0  0
  1  2  1  0
  2  3  1  0
  3  4  1  0
  4  5  1  0
  5  6  1  0
  6  7  1  0
  7  8  1  0
  8  9  1  0
  9  1  1  0
  7  3  1  0
  1 10  1  0
  1 11  1  0
  2 12  1  0
  2 13  1  0
  3 14  1  0
  5 15  1  0
  5 16  1  0
  7 17  1  0
  8 18  1  0
  8 19  1  0
M  END
