
     RDKit          3D

 21 23  0  0  0  0  0  0  0  0999 V2000
    1.1182   -1.2535   -0.1741 C   0  0  0  0  0  0  0  0  0  0  0  0
    1.7540    0.0631    0.0164 C   0  0  0  0  0  0  0  0  0  0  0  0
    0.9400    1.1650    0.5417 C   0  0  0  0  0  0  0  0  0  0  0  0
   -0.1606    1.4884   -0.4089 C   0  0  0  0  0  0  0  0  0  0  0  0
   -0.9355    0.7798    0.6112 C   0  0  0  0  0  0  0  0  0  0  0  0
   -2.2029    0.2600    0.3585 C   0  0  0  0  0  0  0  0  0  0  0  0
   -1.1532   -0.7075    0.4089 C   0  0  0  0  0  0  0  0  0  0  0  0
   -0.3048   -1.2357   -0.6761 C   0  0  0  0  0  0  0  0  0  0  0  0
    0.0098    0.8636    1.5134 O   0  0  0  0  0  0  0  0  0  0  0  0
    1.1267   -1.8913    0.7360 H   0  0  0  0  0  0  0  0  0  0  0  0
    1.7256   -1.8280   -0.9305 H   0  0  0  0  0  0  0  0  0  0  0  0
    2.6643   -0.0829    0.6408 H   0  0  0  0  0  0  0  0  0  0  0  0
    2.1633    0.3886   -0.9873 H   0  0  0  0  0  0  0  0  0  0  0  0
    1.5656    2.0438    0.8052 H   0  0  0  0  0  0  0  0  0  0  0  0
   -0.4089    2.5912   -0.3826 H   0  0  0  0  0  0  0  0  0  0  0  0
   -0.0987    1.1704   -1.4321 H   0  0  0  0  0  0  0  0  0  0  0  0
   -3.0198    0.2117    1.1284 H   0  0  0  0  0  0  0  0  0  0  0  0
   -2.6687    0.4693   -0.6520 H   0  0  0  0  0  0  0  0  0  0  0  0
   -1.1033   -1.3490    1.3447 H   0  0  0  0  0  0  0  0  0  0  0  0
   -0.4352   -0.8149   -1.6677 H   0  0  0  0  0  0  0  0  0  0  0  0
   -0.5757   -2.3322   -0.7939 H   0  0  0  0  0  0  0  0  0  0  0  0
  1  2  1  0
  2  3  1  0
  3  4  1  0
  4  5  1  0
  5  6  1  0
  6  7  1  0
  7  8  1  0
  5  9  1  0
  8  1  1  0
  9  3  1  0
  7  5  1  0
  1 10  1  0
  1 11  1  0
  2 12  1  0
  2 13  1  0
  3 14  1  0
  4 15  1  0
  4 16  1  0
  6 17  1  0
  6 18  1  0
  7 19  1  0
  8 20  1  0
  8 21  1  0
M  END
