
     RDKit          3D

 21 23  0  0  0  0  0  0  0  0999 V2000
    1.8341   -0.7777    0.0176 C   0  0  0  0  0  0  0  0  0  0  0  0
    1.6494    0.7018    0.3325 C   0  0  0  0  0  0  0  0  0  0  0  0
    0.2222    1.0358   -0.0163 C   0  0  0  0  0  0  0  0  0  0  0  0
   -0.6976    0.6450    1.1591 C   0  0  0  0  0  0  0  0  0  0  0  0
   -1.4913   -0.4304    0.5093 C   0  0  0  0  0  0  0  0  0  0  0  0
   -1.7633    0.1383   -0.8898 C   0  0  0  0  0  0  0  0  0  0  0  0
   -0.2576    0.0376   -1.0293 C   0  0  0  0  0  0  0  0  0  0  0  0
   -0.4178   -1.2434   -0.2036 C   0  0  0  0  0  0  0  0  0  0  0  0
    0.7215   -1.4854    0.5023 O   0  0  0  0  0  0  0  0  0  0  0  0
    1.9802   -0.9348   -1.0704 H   0  0  0  0  0  0  0  0  0  0  0  0
    2.7189   -1.1246    0.5547 H   0  0  0  0  0  0  0  0  0  0  0  0
    1.8948    0.8619    1.3891 H   0  0  0  0  0  0  0  0  0  0  0  0
    2.2934    1.3248   -0.3365 H   0  0  0  0  0  0  0  0  0  0  0  0
    0.0690    2.0814   -0.2993 H   0  0  0  0  0  0  0  0  0  0  0  0
   -1.2603    1.5037    1.5217 H   0  0  0  0  0  0  0  0  0  0  0  0
   -0.0786    0.2197    1.9975 H   0  0  0  0  0  0  0  0  0  0  0  0
   -2.2751   -0.9365    1.0024 H   0  0  0  0  0  0  0  0  0  0  0  0
   -2.2610   -0.6522   -1.4824 H   0  0  0  0  0  0  0  0  0  0  0  0
   -2.1824    1.1371   -0.9128 H   0  0  0  0  0  0  0  0  0  0  0  0
    0.1791   -0.0305   -1.9840 H   0  0  0  0  0  0  0  0  0  0  0  0
   -0.8777   -2.0717   -0.7617 H   0  0  0  0  0  0  0  0  0  0  0  0
  1  2  1  0
  2  3  1  0
  3  4  1  0
  4  5  1  0
  5  6  1  0
  6  7  1  0
  7  8  1  0
  8  9  1  0
  9  1  1  0
  7  3  1  0
  8  5  1  0
  1 10  1  0
  1 11  1  0
  2 12  1  0
  2 13  1  0
  3 14  1  0
  4 15  1  0
  4 16  1  0
  5 17  1  0
  6 18  1  0
  6 19  1  0
  7 20  1  0
  8 21  1  0
M  END
