
     RDKit          3D

 17 20  0  0  0  0  0  0  0  0999 V2000
   -1.6553   -0.6752    0.3365 C   0  0  0  0  0  0  0  0  0  0  0  0
   -1.7812    0.6816   -0.3027 C   0  0  0  0  0  0  0  0  0  0  0  0
   -0.4766    0.2211   -0.0274 C   0  0  0  0  0  0  0  0  0  0  0  0
    0.4180    0.5854    1.1141 C   0  0  0  0  0  0  0  0  0  0  0  0
    1.3897    1.3492    0.4861 O   0  0  0  0  0  0  0  0  0  0  0  0
    1.7740    0.4806   -0.5646 C   0  0  0  0  0  0  0  0  0  0  0  0
    1.5759   -0.8565   -0.0258 C   0  0  0  0  0  0  0  0  0  0  0  0
    1.1155   -0.6323    1.2790 O   0  0  0  0  0  0  0  0  0  0  0  0
    0.5685   -0.2710   -0.9735 C   0  0  0  0  0  0  0  0  0  0  0  0
   -1.6987   -1.5814   -0.3112 H   0  0  0  0  0  0  0  0  0  0  0  0
   -1.8849   -0.8132    1.4041 H   0  0  0  0  0  0  0  0  0  0  0  0
   -2.1793    0.7029   -1.3200 H   0  0  0  0  0  0  0  0  0  0  0  0
   -2.2342    1.4740    0.3572 H   0  0  0  0  0  0  0  0  0  0  0  0
   -0.0266    0.9795    1.9941 H   0  0  0  0  0  0  0  0  0  0  0  0
    2.5813    0.7592   -1.2271 H   0  0  0  0  0  0  0  0  0  0  0  0
    2.1399   -1.7445   -0.2667 H   0  0  0  0  0  0  0  0  0  0  0  0
    0.3739   -0.6594   -1.9521 H   0  0  0  0  0  0  0  0  0  0  0  0
  1  2  1  0
  2  3  1  0
  3  4  1  0
  4  5  1  0
  5  6  1  0
  6  7  1  0
  7  8  1  0
  7  9  1  0
  3  1  1  0
  8  4  1  0
  9  3  1  0
  9  6  1  0
  1 10  1  0
  1 11  1  0
  2 12  1  0
  2 13  1  0
  4 14  1  0
  6 15  1  0
  7 16  1  0
  9 17  1  0
M  END
