
     RDKit          3D

 23 24  0  0  0  0  0  0  0  0999 V2000
    2.1221   -0.0120   -0.3119 C   0  0  0  0  0  0  0  0  0  0  0  0
    1.4172    1.2100    0.1475 C   0  0  0  0  0  0  0  0  0  0  0  0
   -0.0363    1.2631   -0.0656 C   0  0  0  0  0  0  0  0  0  0  0  0
   -0.8015    0.0255    0.1317 C   0  0  0  0  0  0  0  0  0  0  0  0
   -0.0054   -1.2311    0.2375 C   0  0  0  0  0  0  0  0  0  0  0  0
    1.2862   -1.2089   -0.5184 C   0  0  0  0  0  0  0  0  0  0  0  0
   -1.8752    0.0731    1.1897 C   0  0  0  0  0  0  0  0  0  0  0  0
   -2.8377    0.4382    0.2373 O   0  0  0  0  0  0  0  0  0  0  0  0
   -2.0248   -0.0591   -0.7719 C   0  0  0  0  0  0  0  0  0  0  0  0
    2.9106   -0.2481    0.4631 H   0  0  0  0  0  0  0  0  0  0  0  0
    2.7261    0.1557   -1.2526 H   0  0  0  0  0  0  0  0  0  0  0  0
    1.6244    1.4364    1.2328 H   0  0  0  0  0  0  0  0  0  0  0  0
    1.8857    2.0829   -0.3962 H   0  0  0  0  0  0  0  0  0  0  0  0
   -0.4634    2.0563    0.6172 H   0  0  0  0  0  0  0  0  0  0  0  0
   -0.2442    1.6598   -1.0960 H   0  0  0  0  0  0  0  0  0  0  0  0
   -0.6333   -2.0489   -0.2258 H   0  0  0  0  0  0  0  0  0  0  0  0
    0.1089   -1.5417    1.3019 H   0  0  0  0  0  0  0  0  0  0  0  0
    1.0338   -1.3406   -1.6015 H   0  0  0  0  0  0  0  0  0  0  0  0
    1.8596   -2.1232   -0.2175 H   0  0  0  0  0  0  0  0  0  0  0  0
   -2.0946   -0.9188    1.6432 H   0  0  0  0  0  0  0  0  0  0  0  0
   -1.7100    0.9017    1.9076 H   0  0  0  0  0  0  0  0  0  0  0  0
   -1.9435    0.5496   -1.6831 H   0  0  0  0  0  0  0  0  0  0  0  0
   -2.3046   -1.1201   -0.9689 H   0  0  0  0  0  0  0  0  0  0  0  0
  1  2  1  0
  2  3  1  0
  3  4  1  0
  4  5  1  0
  5  6  1  0
  4  7  1  0
  7  8  1  0
  8  9  1  0
  6  1  1  0
  9  4  1  0
  1 10  1  0
  1 11  1  0
  2 12  1  0
  2 13  1  0
  3 14  1  0
  3 15  1  0
  5 16  1  0
  5 17  1  0
  6 18  1  0
  6 19  1  0
  7 20  1  0
  7 21  1  0
  9 22  1  0
  9 23  1  0
M  END
