
     RDKit          3D

 15 16  0  0  0  0  0  0  0  0999 V2000
   -1.6592   -0.2318    0.4148 C   0  0  0  0  0  0  0  0  0  0  0  0
   -0.5882   -0.8586   -0.4805 C   0  0  0  0  0  0  0  0  0  0  0  0
    0.5741    0.0071   -0.1212 C   0  0  0  0  0  0  0  0  0  0  0  0
   -0.0852    1.3289    0.1294 C   0  0  0  0  0  0  0  0  0  0  0  0
   -1.4412    1.1131    0.2543 O   0  0  0  0  0  0  0  0  0  0  0  0
    1.9017   -0.2806   -0.2591 C   0  0  0  0  0  0  0  0  0  0  0  0
    1.3044   -0.5213    1.0616 O   0  0  0  0  0  0  0  0  0  0  0  0
   -1.4102   -0.5587    1.4483 H   0  0  0  0  0  0  0  0  0  0  0  0
   -2.6657   -0.5239    0.1035 H   0  0  0  0  0  0  0  0  0  0  0  0
   -0.8659   -0.6644   -1.5338 H   0  0  0  0  0  0  0  0  0  0  0  0
   -0.4433   -1.9291   -0.2532 H   0  0  0  0  0  0  0  0  0  0  0  0
    0.0626    1.9394   -0.8075 H   0  0  0  0  0  0  0  0  0  0  0  0
    0.3545    1.8656    1.0074 H   0  0  0  0  0  0  0  0  0  0  0  0
    2.2700   -1.1954   -0.7560 H   0  0  0  0  0  0  0  0  0  0  0  0
    2.6917    0.5098   -0.2078 H   0  0  0  0  0  0  0  0  0  0  0  0
  1  2  1  0
  2  3  1  0
  3  4  1  0
  4  5  1  0
  3  6  1  0
  6  7  1  0
  5  1  1  0
  7  3  1  0
  1  8  1  0
  1  9  1  0
  2 10  1  0
  2 11  1  0
  4 12  1  0
  4 13  1  0
  6 14  1  0
  6 15  1  0
M  END
