
     RDKit          3D

 23 25  0  0  0  0  0  0  0  0999 V2000
   -2.6659    0.2654    0.2376 C   0  0  0  0  0  0  0  0  0  0  0  0
   -1.3808    1.0538   -0.0550 C   0  0  0  0  0  0  0  0  0  0  0  0
   -0.6615   -0.2357   -0.0475 C   0  0  0  0  0  0  0  0  0  0  0  0
   -1.8829   -1.0272   -0.0365 C   0  0  0  0  0  0  0  0  0  0  0  0
    0.3631   -0.4612    1.0306 C   0  0  0  0  0  0  0  0  0  0  0  0
    1.3746   -0.1503    0.0006 C   0  0  0  0  0  0  0  0  0  0  0  0
    2.1462    1.0739    0.0872 C   0  0  0  0  0  0  0  0  0  0  0  0
    2.7726   -0.3373    0.0048 C   0  0  0  0  0  0  0  0  0  0  0  0
    0.3913   -0.4730   -1.0702 C   0  0  0  0  0  0  0  0  0  0  0  0
   -2.9332    0.4096    1.2902 H   0  0  0  0  0  0  0  0  0  0  0  0
   -3.4414    0.3982   -0.5180 H   0  0  0  0  0  0  0  0  0  0  0  0
   -1.1071    1.7706    0.7247 H   0  0  0  0  0  0  0  0  0  0  0  0
   -1.4325    1.4853   -1.0923 H   0  0  0  0  0  0  0  0  0  0  0  0
   -2.1451   -1.4950   -1.0144 H   0  0  0  0  0  0  0  0  0  0  0  0
   -2.0358   -1.7151    0.8070 H   0  0  0  0  0  0  0  0  0  0  0  0
    0.2539    0.2012    1.8911 H   0  0  0  0  0  0  0  0  0  0  0  0
    0.3327   -1.5502    1.3291 H   0  0  0  0  0  0  0  0  0  0  0  0
    2.2564    1.7352   -0.7787 H   0  0  0  0  0  0  0  0  0  0  0  0
    2.2320    1.5741    1.0838 H   0  0  0  0  0  0  0  0  0  0  0  0
    3.3490   -0.6711    0.8965 H   0  0  0  0  0  0  0  0  0  0  0  0
    3.3268   -0.5047   -0.9375 H   0  0  0  0  0  0  0  0  0  0  0  0
    0.4493    0.2195   -1.9226 H   0  0  0  0  0  0  0  0  0  0  0  0
    0.4386   -1.5661   -1.3360 H   0  0  0  0  0  0  0  0  0  0  0  0
  1  2  1  0
  2  3  1  0
  3  4  1  0
  3  5  1  0
  5  6  1  0
  6  7  1  0
  7  8  1  0
  6  9  1  0
  4  1  1  0
  8  6  1  0
  9  3  1  0
  1 10  1  0
  1 11  1  0
  2 12  1  0
  2 13  1  0
  4 14  1  0
  4 15  1  0
  5 16  1  0
  5 17  1  0
  7 18  1  0
  7 19  1  0
  8 20  1  0
  8 21  1  0
  9 22  1  0
  9 23  1  0
M  END
