
     RDKit          3D

 21 23  0  0  0  0  0  0  0  0999 V2000
   -2.2875    0.8675    0.3506 C   0  0  0  0  0  0  0  0  0  0  0  0
   -2.3188   -0.6341    0.3803 C   0  0  0  0  0  0  0  0  0  0  0  0
   -1.0965    0.0686   -0.0249 C   0  0  0  0  0  0  0  0  0  0  0  0
   -0.5738    0.0609   -1.4278 C   0  0  0  0  0  0  0  0  0  0  0  0
    0.6701   -0.5315   -1.3592 O   0  0  0  0  0  0  0  0  0  0  0  0
    1.2302   -0.2332   -0.1384 C   0  0  0  0  0  0  0  0  0  0  0  0
    2.5176    0.4745   -0.1354 C   0  0  0  0  0  0  0  0  0  0  0  0
    2.4366   -0.9737    0.2936 C   0  0  0  0  0  0  0  0  0  0  0  0
    0.1375    0.1217    0.8139 C   0  0  0  0  0  0  0  0  0  0  0  0
   -2.7622    1.4198   -0.4907 H   0  0  0  0  0  0  0  0  0  0  0  0
   -2.2922    1.3398    1.3615 H   0  0  0  0  0  0  0  0  0  0  0  0
   -2.8819   -1.1387   -0.4446 H   0  0  0  0  0  0  0  0  0  0  0  0
   -2.4319   -1.1516    1.3524 H   0  0  0  0  0  0  0  0  0  0  0  0
   -1.3017   -0.5236   -2.0486 H   0  0  0  0  0  0  0  0  0  0  0  0
   -0.5594    1.0794   -1.8562 H   0  0  0  0  0  0  0  0  0  0  0  0
    2.9848    0.7209   -1.1217 H   0  0  0  0  0  0  0  0  0  0  0  0
    2.6623    1.2628    0.6252 H   0  0  0  0  0  0  0  0  0  0  0  0
    2.9488   -1.6607   -0.4074 H   0  0  0  0  0  0  0  0  0  0  0  0
    2.5579   -1.1820    1.3902 H   0  0  0  0  0  0  0  0  0  0  0  0
    0.1290   -0.5569    1.6856 H   0  0  0  0  0  0  0  0  0  0  0  0
    0.2311    1.1701    1.2015 H   0  0  0  0  0  0  0  0  0  0  0  0
  1  2  1  0
  2  3  1  0
  3  4  1  0
  4  5  1  0
  5  6  1  0
  6  7  1  0
  7  8  1  0
  6  9  1  0
  3  1  1  0
  8  6  1  0
  9  3  1  0
  1 10  1  0
  1 11  1  0
  2 12  1  0
  2 13  1  0
  4 14  1  0
  4 15  1  0
  7 16  1  0
  7 17  1  0
  8 18  1  0
  8 19  1  0
  9 20  1  0
  9 21  1  0
M  END
