
     RDKit          3D

 20 22  0  0  0  0  0  0  0  0999 V2000
    1.7413    0.1356   -0.4103 C   0  0  0  0  0  0  0  0  0  0  0  0
    0.8259   -0.9974   -0.7806 C   0  0  0  0  0  0  0  0  0  0  0  0
   -0.4882   -0.7747   -0.1178 C   0  0  0  0  0  0  0  0  0  0  0  0
   -1.6222   -0.1171   -0.8785 C   0  0  0  0  0  0  0  0  0  0  0  0
   -1.2761    1.1646   -0.1606 C   0  0  0  0  0  0  0  0  0  0  0  0
   -0.3430    0.4551    0.7649 C   0  0  0  0  0  0  0  0  0  0  0  0
    1.1209    0.8073    0.7720 C   0  0  0  0  0  0  0  0  0  0  0  0
   -0.6838   -0.8810    1.3319 C   0  0  0  0  0  0  0  0  0  0  0  0
    2.7499   -0.2857   -0.1721 H   0  0  0  0  0  0  0  0  0  0  0  0
    1.9110    0.8507   -1.2527 H   0  0  0  0  0  0  0  0  0  0  0  0
    0.7175   -1.0321   -1.8767 H   0  0  0  0  0  0  0  0  0  0  0  0
    1.2373   -1.9701   -0.3810 H   0  0  0  0  0  0  0  0  0  0  0  0
   -1.5067   -0.1274   -1.9587 H   0  0  0  0  0  0  0  0  0  0  0  0
   -2.6042   -0.5529   -0.5351 H   0  0  0  0  0  0  0  0  0  0  0  0
   -0.7761    1.8893   -0.8329 H   0  0  0  0  0  0  0  0  0  0  0  0
   -2.1565    1.6000    0.3225 H   0  0  0  0  0  0  0  0  0  0  0  0
    1.5491    0.3595    1.7065 H   0  0  0  0  0  0  0  0  0  0  0  0
    1.2899    1.8902    0.8241 H   0  0  0  0  0  0  0  0  0  0  0  0
   -1.7426   -1.0650    1.6602 H   0  0  0  0  0  0  0  0  0  0  0  0
    0.0565   -1.3490    1.9748 H   0  0  0  0  0  0  0  0  0  0  0  0
  1  2  1  0
  2  3  1  0
  3  4  1  0
  4  5  1  0
  5  6  1  0
  6  7  1  0
  6  8  1  0
  7  1  1  0
  6  3  1  0
  8  3  1  0
  1  9  1  0
  1 10  1  0
  2 11  1  0
  2 12  1  0
  4 13  1  0
  4 14  1  0
  5 15  1  0
  5 16  1  0
  7 17  1  0
  7 18  1  0
  8 19  1  0
  8 20  1  0
M  END
