
     RDKit          3D

 15 16  0  0  0  0  0  0  0  0999 V2000
   -0.7115    0.9972    0.1845 C   0  0  0  0  0  0  0  0  0  0  0  0
   -1.2725   -0.4176    0.4000 C   0  0  0  0  0  0  0  0  0  0  0  0
   -0.2126   -1.2483   -0.3031 C   0  0  0  0  0  0  0  0  0  0  0  0
    0.9271   -1.2030    0.4705 O   0  0  0  0  0  0  0  0  0  0  0  0
    1.5357    0.0409    0.2290 C   0  0  0  0  0  0  0  0  0  0  0  0
    0.5113    0.7137   -0.6385 C   0  0  0  0  0  0  0  0  0  0  0  0
    0.0733   -0.3977   -1.3991 O   0  0  0  0  0  0  0  0  0  0  0  0
   -1.4263    1.5428   -0.4487 H   0  0  0  0  0  0  0  0  0  0  0  0
   -0.4616    1.4853    1.1312 H   0  0  0  0  0  0  0  0  0  0  0  0
   -1.2706   -0.6955    1.4534 H   0  0  0  0  0  0  0  0  0  0  0  0
   -2.2704   -0.5280   -0.0641 H   0  0  0  0  0  0  0  0  0  0  0  0
   -0.5439   -2.2303   -0.6031 H   0  0  0  0  0  0  0  0  0  0  0  0
    2.4804   -0.1794   -0.3067 H   0  0  0  0  0  0  0  0  0  0  0  0
    1.7708    0.5900    1.1368 H   0  0  0  0  0  0  0  0  0  0  0  0
    0.8710    1.5299   -1.2423 H   0  0  0  0  0  0  0  0  0  0  0  0
  1  2  1  0
  2  3  1  0
  3  4  1  0
  4  5  1  0
  5  6  1  0
  6  7  1  0
  6  1  1  0
  7  3  1  0
  1  8  1  0
  1  9  1  0
  2 10  1  0
  2 11  1  0
  3 12  1  0
  5 13  1  0
  5 14  1  0
  6 15  1  0
M  END
