
     RDKit          3D

 20 21  0  0  0  0  0  0  0  0999 V2000
   -1.1247   -1.4552   -0.1275 C   0  0  0  0  0  0  0  0  0  0  0  0
    0.4040   -1.6153   -0.0289 C   0  0  0  0  0  0  0  0  0  0  0  0
    0.8596   -0.3525    0.6048 C   0  0  0  0  0  0  0  0  0  0  0  0
    2.0366    0.4202    0.2417 C   0  0  0  0  0  0  0  0  0  0  0  0
    0.8336    0.7007   -0.5259 C   0  0  0  0  0  0  0  0  0  0  0  0
   -0.2407    1.6624   -0.1483 C   0  0  0  0  0  0  0  0  0  0  0  0
   -1.5296    0.8281   -0.0721 C   0  0  0  0  0  0  0  0  0  0  0  0
   -1.4108   -0.3274   -0.8496 O   0  0  0  0  0  0  0  0  0  0  0  0
   -1.5785   -2.3777   -0.5164 H   0  0  0  0  0  0  0  0  0  0  0  0
   -1.5199   -1.2867    0.9164 H   0  0  0  0  0  0  0  0  0  0  0  0
    0.7579   -1.6617   -1.0768 H   0  0  0  0  0  0  0  0  0  0  0  0
    0.6604   -2.5184    0.5568 H   0  0  0  0  0  0  0  0  0  0  0  0
    0.3517   -0.1118    1.5582 H   0  0  0  0  0  0  0  0  0  0  0  0
    2.3744    1.1913    0.9573 H   0  0  0  0  0  0  0  0  0  0  0  0
    2.8804   -0.0561   -0.2934 H   0  0  0  0  0  0  0  0  0  0  0  0
    0.7916    0.3607   -1.5660 H   0  0  0  0  0  0  0  0  0  0  0  0
   -0.3136    2.4502   -0.9017 H   0  0  0  0  0  0  0  0  0  0  0  0
   -0.0717    2.0542    0.8912 H   0  0  0  0  0  0  0  0  0  0  0  0
   -1.8471    0.6451    0.9496 H   0  0  0  0  0  0  0  0  0  0  0  0
   -2.3136    1.4498   -0.5694 H   0  0  0  0  0  0  0  0  0  0  0  0
  1  2  1  0
  2  3  1  0
  3  4  1  0
  4  5  1  0
  5  6  1  0
  6  7  1  0
  7  8  1  0
  8  1  1  0
  5  3  1  0
  1  9  1  0
  1 10  1  0
  2 11  1  0
  2 12  1  0
  3 13  1  0
  4 14  1  0
  4 15  1  0
  5 16  1  0
  6 17  1  0
  6 18  1  0
  7 19  1  0
  7 20  1  0
M  END
