
     RDKit          3D

 21 23  0  0  0  0  0  0  0  0999 V2000
   -1.6989    0.7815   -0.7017 C   0  0  0  0  0  0  0  0  0  0  0  0
   -2.1448    0.6249    0.7273 C   0  0  0  0  0  0  0  0  0  0  0  0
   -0.6787    0.7143    0.3763 C   0  0  0  0  0  0  0  0  0  0  0  0
    0.0546   -0.5995    0.5634 C   0  0  0  0  0  0  0  0  0  0  0  0
    0.9373   -0.4358    1.7621 C   0  0  0  0  0  0  0  0  0  0  0  0
    1.6636    0.7003    1.3162 O   0  0  0  0  0  0  0  0  0  0  0  0
    1.8146    0.5660   -0.0670 C   0  0  0  0  0  0  0  0  0  0  0  0
    1.3524   -0.8013   -0.3326 C   0  0  0  0  0  0  0  0  0  0  0  0
    0.0913   -1.4152   -0.5665 C   0  0  0  0  0  0  0  0  0  0  0  0
   -1.9363   -0.0635   -1.3448 H   0  0  0  0  0  0  0  0  0  0  0  0
   -1.9115    1.7563   -1.2103 H   0  0  0  0  0  0  0  0  0  0  0  0
   -2.5829   -0.3353    1.0422 H   0  0  0  0  0  0  0  0  0  0  0  0
   -2.6625    1.5005    1.1719 H   0  0  0  0  0  0  0  0  0  0  0  0
   -0.2190    1.6591    0.7476 H   0  0  0  0  0  0  0  0  0  0  0  0
    0.3215   -0.2000    2.6400 H   0  0  0  0  0  0  0  0  0  0  0  0
    1.6657   -1.2424    1.9081 H   0  0  0  0  0  0  0  0  0  0  0  0
    1.3341    1.3673   -0.6393 H   0  0  0  0  0  0  0  0  0  0  0  0
    2.9049    0.6665   -0.2561 H   0  0  0  0  0  0  0  0  0  0  0  0
    2.1107   -1.5365    0.0831 H   0  0  0  0  0  0  0  0  0  0  0  0
   -0.0478   -2.5265   -0.3892 H   0  0  0  0  0  0  0  0  0  0  0  0
   -0.3682   -1.1809   -1.5459 H   0  0  0  0  0  0  0  0  0  0  0  0
  1  2  1  0
  2  3  1  0
  3  4  1  0
  4  5  1  0
  5  6  1  0
  6  7  1  0
  7  8  1  0
  8  9  1  0
  3  1  1  0
  8  4  1  0
  9  4  1  0
  1 10  1  0
  1 11  1  0
  2 12  1  0
  2 13  1  0
  3 14  1  0
  5 15  1  0
  5 16  1  0
  7 17  1  0
  7 18  1  0
  8 19  1  0
  9 20  1  0
  9 21  1  0
M  END
