
     RDKit          3D

 19 21  0  0  0  0  0  0  0  0999 V2000
    1.9326   -0.5814   -0.2092 C   0  0  0  0  0  0  0  0  0  0  0  0
    0.7653   -1.3588    0.4238 C   0  0  0  0  0  0  0  0  0  0  0  0
   -0.3764   -0.7955   -0.2973 C   0  0  0  0  0  0  0  0  0  0  0  0
   -1.6144   -0.4634    0.4044 C   0  0  0  0  0  0  0  0  0  0  0  0
   -2.1354    0.5703   -0.4106 O   0  0  0  0  0  0  0  0  0  0  0  0
   -1.0091    1.3395   -0.8013 C   0  0  0  0  0  0  0  0  0  0  0  0
   -0.1647    1.7171    0.3972 C   0  0  0  0  0  0  0  0  0  0  0  0
    0.1725    0.6250   -0.5095 C   0  0  0  0  0  0  0  0  0  0  0  0
    1.3348    0.3641   -1.0796 O   0  0  0  0  0  0  0  0  0  0  0  0
    2.6234   -1.2333   -0.7387 H   0  0  0  0  0  0  0  0  0  0  0  0
    2.4735    0.0123    0.5485 H   0  0  0  0  0  0  0  0  0  0  0  0
    0.9439   -2.4186    0.1878 H   0  0  0  0  0  0  0  0  0  0  0  0
    0.7388   -1.1796    1.5019 H   0  0  0  0  0  0  0  0  0  0  0  0
   -0.6028   -1.2755   -1.2638 H   0  0  0  0  0  0  0  0  0  0  0  0
   -1.5565   -0.1884    1.4517 H   0  0  0  0  0  0  0  0  0  0  0  0
   -2.3150   -1.3429    0.3365 H   0  0  0  0  0  0  0  0  0  0  0  0
   -1.1072    1.9912   -1.6556 H   0  0  0  0  0  0  0  0  0  0  0  0
    0.4550    2.6302    0.2950 H   0  0  0  0  0  0  0  0  0  0  0  0
   -0.5581    1.5877    1.4188 H   0  0  0  0  0  0  0  0  0  0  0  0
  1  2  1  0
  2  3  1  0
  3  4  1  0
  4  5  1  0
  5  6  1  0
  6  7  1  0
  7  8  1  0
  8  9  1  0
  9  1  1  0
  8  3  1  0
  8  6  1  0
  1 10  1  0
  1 11  1  0
  2 12  1  0
  2 13  1  0
  3 14  1  0
  4 15  1  0
  4 16  1  0
  6 17  1  0
  7 18  1  0
  7 19  1  0
M  END
