
     RDKit          3D

 21 23  0  0  0  0  0  0  0  0999 V2000
   -0.8266    1.7459    0.1076 C   0  0  0  0  0  0  0  0  0  0  0  0
    0.6173    1.3464    0.1328 C   0  0  0  0  0  0  0  0  0  0  0  0
    0.6676   -0.1297   -0.0636 C   0  0  0  0  0  0  0  0  0  0  0  0
    1.7490   -0.9645    0.4674 C   0  0  0  0  0  0  0  0  0  0  0  0
    1.7596   -0.6900   -1.0030 C   0  0  0  0  0  0  0  0  0  0  0  0
   -0.6968   -0.6269   -0.3701 C   0  0  0  0  0  0  0  0  0  0  0  0
   -1.4747   -1.2475    0.7507 C   0  0  0  0  0  0  0  0  0  0  0  0
   -2.2255   -0.0768    0.8274 O   0  0  0  0  0  0  0  0  0  0  0  0
   -1.6364    0.5451   -0.2672 C   0  0  0  0  0  0  0  0  0  0  0  0
   -1.1464    2.0673    1.1354 H   0  0  0  0  0  0  0  0  0  0  0  0
   -1.0337    2.6232   -0.5440 H   0  0  0  0  0  0  0  0  0  0  0  0
    1.0630    1.5933    1.1289 H   0  0  0  0  0  0  0  0  0  0  0  0
    1.1912    1.8493   -0.6922 H   0  0  0  0  0  0  0  0  0  0  0  0
    1.6248   -2.0014    0.7910 H   0  0  0  0  0  0  0  0  0  0  0  0
    2.5152   -0.4156    1.0874 H   0  0  0  0  0  0  0  0  0  0  0  0
    2.4166    0.0968   -1.4296 H   0  0  0  0  0  0  0  0  0  0  0  0
    1.4837   -1.5258   -1.6638 H   0  0  0  0  0  0  0  0  0  0  0  0
   -0.7885   -1.2371   -1.2970 H   0  0  0  0  0  0  0  0  0  0  0  0
   -2.1607   -2.0844    0.4617 H   0  0  0  0  0  0  0  0  0  0  0  0
   -0.8491   -1.4854    1.6154 H   0  0  0  0  0  0  0  0  0  0  0  0
   -2.2496    0.6179   -1.1753 H   0  0  0  0  0  0  0  0  0  0  0  0
  1  2  1  0
  2  3  1  0
  3  4  1  0
  4  5  1  0
  3  6  1  0
  6  7  1  0
  7  8  1  0
  8  9  1  0
  9  1  1  0
  5  3  1  0
  9  6  1  0
  1 10  1  0
  1 11  1  0
  2 12  1  0
  2 13  1  0
  4 14  1  0
  4 15  1  0
  5 16  1  0
  5 17  1  0
  6 18  1  0
  7 19  1  0
  7 20  1  0
  9 21  1  0
M  END
