
     RDKit          3D

 23 25  0  0  0  0  0  0  0  0999 V2000
    1.7943   -0.7397   -0.1588 C   0  0  0  0  0  0  0  0  0  0  0  0
    1.7382    0.7670   -0.3073 C   0  0  0  0  0  0  0  0  0  0  0  0
    0.5891    1.4016    0.3672 C   0  0  0  0  0  0  0  0  0  0  0  0
   -0.6146    0.5831    0.5739 C   0  0  0  0  0  0  0  0  0  0  0  0
   -1.7880    0.8532   -0.2967 C   0  0  0  0  0  0  0  0  0  0  0  0
   -2.0136   -0.6330   -0.4748 C   0  0  0  0  0  0  0  0  0  0  0  0
   -0.6224   -0.8060    0.1537 C   0  0  0  0  0  0  0  0  0  0  0  0
    0.4883   -1.2746   -0.6942 C   0  0  0  0  0  0  0  0  0  0  0  0
   -0.5628   -0.4945    1.5688 C   0  0  0  0  0  0  0  0  0  0  0  0
    2.6092   -1.0904   -0.8274 H   0  0  0  0  0  0  0  0  0  0  0  0
    1.9043   -1.0593    0.8751 H   0  0  0  0  0  0  0  0  0  0  0  0
    1.7162    1.0084   -1.3826 H   0  0  0  0  0  0  0  0  0  0  0  0
    2.7128    1.1640    0.0929 H   0  0  0  0  0  0  0  0  0  0  0  0
    0.9407    1.7724    1.3750 H   0  0  0  0  0  0  0  0  0  0  0  0
    0.3206    2.3503   -0.1838 H   0  0  0  0  0  0  0  0  0  0  0  0
   -1.4376    1.2697   -1.2864 H   0  0  0  0  0  0  0  0  0  0  0  0
   -2.6150    1.4328    0.0946 H   0  0  0  0  0  0  0  0  0  0  0  0
   -2.7791   -1.0111    0.2282 H   0  0  0  0  0  0  0  0  0  0  0  0
   -2.0288   -1.0072   -1.4949 H   0  0  0  0  0  0  0  0  0  0  0  0
    0.3406   -0.8459   -1.7296 H   0  0  0  0  0  0  0  0  0  0  0  0
    0.4644   -2.3591   -0.8126 H   0  0  0  0  0  0  0  0  0  0  0  0
   -1.4990   -0.6802    2.1655 H   0  0  0  0  0  0  0  0  0  0  0  0
    0.3423   -0.6016    2.1541 H   0  0  0  0  0  0  0  0  0  0  0  0
  1  2  1  0
  2  3  1  0
  3  4  1  0
  4  5  1  0
  5  6  1  0
  6  7  1  0
  7  8  1  0
  7  9  1  0
  8  1  1  0
  7  4  1  0
  9  4  1  0
  1 10  1  0
  1 11  1  0
  2 12  1  0
  2 13  1  0
  3 14  1  0
  3 15  1  0
  5 16  1  0
  5 17  1  0
  6 18  1  0
  6 19  1  0
  8 20  1  0
  8 21  1  0
  9 22  1  0
  9 23  1  0
M  END
