
     RDKit          3D

 21 24  0  0  0  0  0  0  0  0999 V2000
   -1.4853    0.4693   -0.6426 C   0  0  0  0  0  0  0  0  0  0  0  0
   -0.6773    1.5108    0.0941 C   0  0  0  0  0  0  0  0  0  0  0  0
    0.7084    1.0458    0.4135 C   0  0  0  0  0  0  0  0  0  0  0  0
    0.7527   -0.2601    1.1531 C   0  0  0  0  0  0  0  0  0  0  0  0
   -0.5661   -1.0267    1.0383 C   0  0  0  0  0  0  0  0  0  0  0  0
   -0.8091   -0.8956   -0.4703 C   0  0  0  0  0  0  0  0  0  0  0  0
    0.5799   -0.8887   -1.0967 C   0  0  0  0  0  0  0  0  0  0  0  0
    1.2751    0.3696   -0.8020 C   0  0  0  0  0  0  0  0  0  0  0  0
    1.5207   -0.8368   -0.0015 C   0  0  0  0  0  0  0  0  0  0  0  0
   -1.6672    0.7099   -1.6938 H   0  0  0  0  0  0  0  0  0  0  0  0
   -2.4783    0.3615   -0.1440 H   0  0  0  0  0  0  0  0  0  0  0  0
   -0.5674    2.3744   -0.6227 H   0  0  0  0  0  0  0  0  0  0  0  0
   -1.2200    1.9123    0.9779 H   0  0  0  0  0  0  0  0  0  0  0  0
    1.3072    1.8454    0.8640 H   0  0  0  0  0  0  0  0  0  0  0  0
    1.2205   -0.2708    2.1313 H   0  0  0  0  0  0  0  0  0  0  0  0
   -0.3795   -2.0963    1.2885 H   0  0  0  0  0  0  0  0  0  0  0  0
   -1.3641   -0.5909    1.6318 H   0  0  0  0  0  0  0  0  0  0  0  0
   -1.4470   -1.6925   -0.8589 H   0  0  0  0  0  0  0  0  0  0  0  0
    0.7842   -1.5068   -1.9632 H   0  0  0  0  0  0  0  0  0  0  0  0
    2.0566    0.8145   -1.4040 H   0  0  0  0  0  0  0  0  0  0  0  0
    2.4562   -1.3485    0.1074 H   0  0  0  0  0  0  0  0  0  0  0  0
  1  2  1  0
  2  3  1  0
  3  4  1  0
  4  5  1  0
  5  6  1  0
  6  7  1  0
  7  8  1  0
  8  9  1  0
  6  1  1  0
  9  7  1  0
  8  3  1  0
  9  4  1  0
  1 10  1  0
  1 11  1  0
  2 12  1  0
  2 13  1  0
  3 14  1  0
  4 15  1  0
  5 16  1  0
  5 17  1  0
  6 18  1  0
  7 19  1  0
  8 20  1  0
  9 21  1  0
M  END
