
     RDKit          3D

 23 25  0  0  0  0  0  0  0  0999 V2000
    1.7766   -0.4737    0.3210 C   0  0  0  0  0  0  0  0  0  0  0  0
    1.6197    0.9948    0.0368 C   0  0  0  0  0  0  0  0  0  0  0  0
    0.2123    1.1697   -0.4830 C   0  0  0  0  0  0  0  0  0  0  0  0
   -0.8014    1.1810    0.6715 C   0  0  0  0  0  0  0  0  0  0  0  0
   -1.5183   -0.1287    0.5557 C   0  0  0  0  0  0  0  0  0  0  0  0
   -0.5434   -1.2225    0.9195 C   0  0  0  0  0  0  0  0  0  0  0  0
    0.5002   -1.1409   -0.2044 C   0  0  0  0  0  0  0  0  0  0  0  0
   -0.0398   -0.1431   -1.1699 C   0  0  0  0  0  0  0  0  0  0  0  0
   -1.5442   -0.2931   -0.9738 C   0  0  0  0  0  0  0  0  0  0  0  0
    2.6139   -0.9334   -0.2542 H   0  0  0  0  0  0  0  0  0  0  0  0
    1.9448   -0.7110    1.3791 H   0  0  0  0  0  0  0  0  0  0  0  0
    1.8509    1.6398    0.8920 H   0  0  0  0  0  0  0  0  0  0  0  0
    2.3009    1.2355   -0.8093 H   0  0  0  0  0  0  0  0  0  0  0  0
    0.0877    2.0160   -1.1536 H   0  0  0  0  0  0  0  0  0  0  0  0
   -1.5256    2.0075    0.4551 H   0  0  0  0  0  0  0  0  0  0  0  0
   -0.3268    1.3556    1.6368 H   0  0  0  0  0  0  0  0  0  0  0  0
   -2.4859   -0.1930    1.0114 H   0  0  0  0  0  0  0  0  0  0  0  0
   -1.0272   -2.2197    0.8131 H   0  0  0  0  0  0  0  0  0  0  0  0
   -0.0946   -1.1151    1.9045 H   0  0  0  0  0  0  0  0  0  0  0  0
    0.6975   -2.1097   -0.6587 H   0  0  0  0  0  0  0  0  0  0  0  0
    0.2862   -0.2162   -2.1862 H   0  0  0  0  0  0  0  0  0  0  0  0
   -1.9218   -1.2692   -1.2636 H   0  0  0  0  0  0  0  0  0  0  0  0
   -2.0615    0.5692   -1.4396 H   0  0  0  0  0  0  0  0  0  0  0  0
  1  2  1  0
  2  3  1  0
  3  4  1  0
  4  5  1  0
  5  6  1  0
  6  7  1  0
  7  8  1  0
  8  9  1  0
  7  1  1  0
  8  3  1  0
  9  5  1  0
  1 10  1  0
  1 11  1  0
  2 12  1  0
  2 13  1  0
  3 14  1  0
  4 15  1  0
  4 16  1  0
  5 17  1  0
  6 18  1  0
  6 19  1  0
  7 20  1  0
  8 21  1  0
  9 22  1  0
  9 23  1  0
M  END
