
     RDKit          3D

 19 21  0  0  0  0  0  0  0  0999 V2000
   -1.3227    1.3167    0.0135 C   0  0  0  0  0  0  0  0  0  0  0  0
   -1.5294   -0.1734   -0.1162 C   0  0  0  0  0  0  0  0  0  0  0  0
   -0.6356   -0.9590    0.7866 C   0  0  0  0  0  0  0  0  0  0  0  0
    0.5664   -1.5361    0.0221 C   0  0  0  0  0  0  0  0  0  0  0  0
    1.0898   -0.2411    0.4214 C   0  0  0  0  0  0  0  0  0  0  0  0
    2.1137    0.5751   -0.1243 C   0  0  0  0  0  0  0  0  0  0  0  0
    0.7924    0.7569   -0.7492 C   0  0  0  0  0  0  0  0  0  0  0  0
   -0.0436    1.7258   -0.2658 O   0  0  0  0  0  0  0  0  0  0  0  0
    0.2213   -0.0281    1.4244 O   0  0  0  0  0  0  0  0  0  0  0  0
   -2.0627    1.8253   -0.6177 H   0  0  0  0  0  0  0  0  0  0  0  0
   -1.5234    1.5665    1.0857 H   0  0  0  0  0  0  0  0  0  0  0  0
   -2.5887   -0.3648    0.2253 H   0  0  0  0  0  0  0  0  0  0  0  0
   -1.5065   -0.5065   -1.1762 H   0  0  0  0  0  0  0  0  0  0  0  0
   -1.0892   -1.6313    1.5094 H   0  0  0  0  0  0  0  0  0  0  0  0
    0.4120   -1.6663   -1.0453 H   0  0  0  0  0  0  0  0  0  0  0  0
    1.0019   -2.4293    0.5119 H   0  0  0  0  0  0  0  0  0  0  0  0
    2.9532    0.0738   -0.6843 H   0  0  0  0  0  0  0  0  0  0  0  0
    2.5278    1.4002    0.5184 H   0  0  0  0  0  0  0  0  0  0  0  0
    0.6233    0.2956   -1.7397 H   0  0  0  0  0  0  0  0  0  0  0  0
  1  2  1  0
  2  3  1  0
  3  4  1  0
  4  5  1  0
  5  6  1  0
  6  7  1  0
  7  8  1  0
  5  9  1  0
  8  1  1  0
  9  3  1  0
  7  5  1  0
  1 10  1  0
  1 11  1  0
  2 12  1  0
  2 13  1  0
  3 14  1  0
  4 15  1  0
  4 16  1  0
  6 17  1  0
  6 18  1  0
  7 19  1  0
M  END
