
     RDKit          3D

 20 22  0  0  0  0  0  0  0  0999 V2000
    2.1686   -0.5222    0.5557 C   0  0  0  0  0  0  0  0  0  0  0  0
    2.2513    0.8236   -0.2400 C   0  0  0  0  0  0  0  0  0  0  0  0
    1.0186    0.1344   -0.0032 C   0  0  0  0  0  0  0  0  0  0  0  0
   -0.1104    0.5466    0.8578 C   0  0  0  0  0  0  0  0  0  0  0  0
   -1.0285   -0.0428   -0.1476 C   0  0  0  0  0  0  0  0  0  0  0  0
   -2.3165    0.4591   -0.5303 C   0  0  0  0  0  0  0  0  0  0  0  0
   -2.1333   -0.9249    0.0858 C   0  0  0  0  0  0  0  0  0  0  0  0
    0.1003   -0.4132   -1.0431 C   0  0  0  0  0  0  0  0  0  0  0  0
    2.3350   -0.4088    1.6678 H   0  0  0  0  0  0  0  0  0  0  0  0
    2.7074   -1.3719    0.1413 H   0  0  0  0  0  0  0  0  0  0  0  0
    2.6328    1.6812    0.3123 H   0  0  0  0  0  0  0  0  0  0  0  0
    2.7172    0.7184   -1.2644 H   0  0  0  0  0  0  0  0  0  0  0  0
   -0.2725    1.6435    0.9881 H   0  0  0  0  0  0  0  0  0  0  0  0
   -0.0954    0.0571    1.8392 H   0  0  0  0  0  0  0  0  0  0  0  0
   -2.5873    0.5614   -1.5757 H   0  0  0  0  0  0  0  0  0  0  0  0
   -2.8543    1.1509    0.1508 H   0  0  0  0  0  0  0  0  0  0  0  0
   -2.4779   -1.1142    1.1054 H   0  0  0  0  0  0  0  0  0  0  0  0
   -2.3969   -1.7324   -0.6275 H   0  0  0  0  0  0  0  0  0  0  0  0
    0.1052    0.2402   -1.9508 H   0  0  0  0  0  0  0  0  0  0  0  0
    0.2366   -1.4859   -1.2707 H   0  0  0  0  0  0  0  0  0  0  0  0
  1  2  1  0
  2  3  1  0
  3  4  1  0
  4  5  1  0
  5  6  1  0
  6  7  1  0
  5  8  1  0
  3  1  1  0
  7  5  1  0
  8  3  1  0
  1  9  1  0
  1 10  1  0
  2 11  1  0
  2 12  1  0
  4 13  1  0
  4 14  1  0
  6 15  1  0
  6 16  1  0
  7 17  1  0
  7 18  1  0
  8 19  1  0
  8 20  1  0
M  END
