
     RDKit          3D

 23 25  0  0  0  0  0  0  0  0999 V2000
    2.2739   -0.3085   -0.0311 C   0  0  0  0  0  0  0  0  0  0  0  0
    1.4145    0.9194   -0.3723 C   0  0  0  0  0  0  0  0  0  0  0  0
    0.6687    0.6691    0.8961 C   0  0  0  0  0  0  0  0  0  0  0  0
    1.1073   -0.7885    0.8105 C   0  0  0  0  0  0  0  0  0  0  0  0
    0.0612   -1.4064   -0.0596 C   0  0  0  0  0  0  0  0  0  0  0  0
   -1.2175   -0.7854    0.4398 C   0  0  0  0  0  0  0  0  0  0  0  0
   -2.0149   -0.1594   -0.6808 C   0  0  0  0  0  0  0  0  0  0  0  0
   -1.5442    1.2080   -0.2549 C   0  0  0  0  0  0  0  0  0  0  0  0
   -0.7952    0.5886    0.8634 C   0  0  0  0  0  0  0  0  0  0  0  0
    3.1448   -0.0908    0.5963 H   0  0  0  0  0  0  0  0  0  0  0  0
    2.4752   -0.9684   -0.8860 H   0  0  0  0  0  0  0  0  0  0  0  0
    0.8970    0.7526   -1.3172 H   0  0  0  0  0  0  0  0  0  0  0  0
    2.0679    1.7992   -0.4164 H   0  0  0  0  0  0  0  0  0  0  0  0
    1.0828    1.2353    1.7386 H   0  0  0  0  0  0  0  0  0  0  0  0
    1.3491   -1.2703    1.7516 H   0  0  0  0  0  0  0  0  0  0  0  0
    0.0281   -2.4919    0.0937 H   0  0  0  0  0  0  0  0  0  0  0  0
    0.2156   -1.1612   -1.1183 H   0  0  0  0  0  0  0  0  0  0  0  0
   -1.7943   -1.3775    1.1666 H   0  0  0  0  0  0  0  0  0  0  0  0
   -1.6777   -0.4006   -1.7043 H   0  0  0  0  0  0  0  0  0  0  0  0
   -3.0904   -0.3628   -0.5602 H   0  0  0  0  0  0  0  0  0  0  0  0
   -2.4418    1.8180    0.0392 H   0  0  0  0  0  0  0  0  0  0  0  0
   -0.9660    1.7311   -1.0319 H   0  0  0  0  0  0  0  0  0  0  0  0
   -1.2443    0.8504    1.8543 H   0  0  0  0  0  0  0  0  0  0  0  0
  1  2  1  0
  2  3  1  0
  3  4  1  0
  4  5  1  0
  5  6  1  0
  6  7  1  0
  7  8  1  0
  8  9  1  0
  4  1  1  0
  9  6  1  0
  9  3  1  0
  1 10  1  0
  1 11  1  0
  2 12  1  0
  2 13  1  0
  3 14  1  0
  4 15  1  0
  5 16  1  0
  5 17  1  0
  6 18  1  0
  7 19  1  0
  7 20  1  0
  8 21  1  0
  8 22  1  0
  9 23  1  0
M  END
