
     RDKit          3D

 20 21  0  0  0  0  0  0  0  0999 V2000
   -1.4665    0.4047   -0.3040 C   0  0  0  0  0  0  0  0  0  0  0  0
   -1.1168   -1.0630   -0.0335 C   0  0  0  0  0  0  0  0  0  0  0  0
    0.1626   -1.0978    0.7602 C   0  0  0  0  0  0  0  0  0  0  0  0
    1.3033   -0.9013   -0.2304 C   0  0  0  0  0  0  0  0  0  0  0  0
    0.9074    0.2906   -1.0938 C   0  0  0  0  0  0  0  0  0  0  0  0
   -0.1036    1.1115   -0.3108 C   0  0  0  0  0  0  0  0  0  0  0  0
    0.2990    1.1788    1.1638 C   0  0  0  0  0  0  0  0  0  0  0  0
    0.2604   -0.0881    1.6951 O   0  0  0  0  0  0  0  0  0  0  0  0
   -2.0733    0.8244    0.5167 H   0  0  0  0  0  0  0  0  0  0  0  0
   -1.9841    0.5142   -1.2640 H   0  0  0  0  0  0  0  0  0  0  0  0
   -0.9466   -1.5043   -1.0527 H   0  0  0  0  0  0  0  0  0  0  0  0
   -1.9169   -1.5861    0.4991 H   0  0  0  0  0  0  0  0  0  0  0  0
    0.2936   -2.0623    1.3097 H   0  0  0  0  0  0  0  0  0  0  0  0
    2.2367   -0.6336    0.2890 H   0  0  0  0  0  0  0  0  0  0  0  0
    1.4569   -1.8127   -0.8562 H   0  0  0  0  0  0  0  0  0  0  0  0
    0.3876   -0.1335   -1.9758 H   0  0  0  0  0  0  0  0  0  0  0  0
    1.7588    0.9327   -1.3341 H   0  0  0  0  0  0  0  0  0  0  0  0
   -0.1652    2.1093   -0.7504 H   0  0  0  0  0  0  0  0  0  0  0  0
   -0.5172    1.7871    1.6479 H   0  0  0  0  0  0  0  0  0  0  0  0
    1.2241    1.7295    1.3240 H   0  0  0  0  0  0  0  0  0  0  0  0
  1  2  1  0
  2  3  1  0
  3  4  1  0
  4  5  1  0
  5  6  1  0
  6  7  1  0
  7  8  1  0
  6  1  1  0
  8  3  1  0
  1  9  1  0
  1 10  1  0
  2 11  1  0
  2 12  1  0
  3 13  1  0
  4 14  1  0
  4 15  1  0
  5 16  1  0
  5 17  1  0
  6 18  1  0
  7 19  1  0
  7 20  1  0
M  END
