
     RDKit          3D

 21 23  0  0  0  0  0  0  0  0999 V2000
   -2.2676   -0.1766    0.1090 C   0  0  0  0  0  0  0  0  0  0  0  0
   -1.4471    1.0957    0.0906 C   0  0  0  0  0  0  0  0  0  0  0  0
   -0.0979    0.6126   -0.2999 C   0  0  0  0  0  0  0  0  0  0  0  0
    1.0329    1.4760   -0.6201 C   0  0  0  0  0  0  0  0  0  0  0  0
    1.0623    0.5446    0.5576 C   0  0  0  0  0  0  0  0  0  0  0  0
    1.8229   -0.7446    0.2935 C   0  0  0  0  0  0  0  0  0  0  0  0
    0.8928   -1.5793   -0.5324 C   0  0  0  0  0  0  0  0  0  0  0  0
   -0.3219   -0.7415   -0.8411 C   0  0  0  0  0  0  0  0  0  0  0  0
   -1.3986   -1.2274   -0.1137 O   0  0  0  0  0  0  0  0  0  0  0  0
   -3.0973   -0.1512   -0.6312 H   0  0  0  0  0  0  0  0  0  0  0  0
   -2.7064   -0.2612    1.1326 H   0  0  0  0  0  0  0  0  0  0  0  0
   -1.8231    1.7555   -0.7384 H   0  0  0  0  0  0  0  0  0  0  0  0
   -1.4954    1.6617    1.0272 H   0  0  0  0  0  0  0  0  0  0  0  0
    0.9290    2.5504   -0.3238 H   0  0  0  0  0  0  0  0  0  0  0  0
    1.6098    1.2267   -1.5348 H   0  0  0  0  0  0  0  0  0  0  0  0
    1.0340    0.9102    1.5836 H   0  0  0  0  0  0  0  0  0  0  0  0
    2.1807   -1.2218    1.2088 H   0  0  0  0  0  0  0  0  0  0  0  0
    2.6966   -0.4915   -0.3386 H   0  0  0  0  0  0  0  0  0  0  0  0
    1.3524   -1.9657   -1.4681 H   0  0  0  0  0  0  0  0  0  0  0  0
    0.6457   -2.4874    0.0716 H   0  0  0  0  0  0  0  0  0  0  0  0
   -0.6037   -0.7852   -1.9092 H   0  0  0  0  0  0  0  0  0  0  0  0
  1  2  1  0
  2  3  1  0
  3  4  1  0
  4  5  1  0
  5  6  1  0
  6  7  1  0
  7  8  1  0
  8  9  1  0
  9  1  1  0
  5  3  1  0
  8  3  1  0
  1 10  1  0
  1 11  1  0
  2 12  1  0
  2 13  1  0
  4 14  1  0
  4 15  1  0
  5 16  1  0
  6 17  1  0
  6 18  1  0
  7 19  1  0
  7 20  1  0
  8 21  1  0
M  END
