
     RDKit          3D

 18 19  0  0  0  0  0  0  0  0999 V2000
   -1.9332   -0.3928   -0.6953 C   0  0  0  0  0  0  0  0  0  0  0  0
   -1.3852    0.5389    0.3632 C   0  0  0  0  0  0  0  0  0  0  0  0
   -0.0461   -0.0626    0.6528 C   0  0  0  0  0  0  0  0  0  0  0  0
    1.0341    0.9694    0.4196 C   0  0  0  0  0  0  0  0  0  0  0  0
    2.1319    0.0329   -0.1043 C   0  0  0  0  0  0  0  0  0  0  0  0
    1.3861   -0.6252   -1.1012 O   0  0  0  0  0  0  0  0  0  0  0  0
    0.2068   -1.0157   -0.4902 C   0  0  0  0  0  0  0  0  0  0  0  0
   -0.8693   -0.9728   -1.3316 O   0  0  0  0  0  0  0  0  0  0  0  0
   -2.5899   -1.1250   -0.1573 H   0  0  0  0  0  0  0  0  0  0  0  0
   -2.5131    0.2385   -1.4008 H   0  0  0  0  0  0  0  0  0  0  0  0
   -1.9793    0.5131    1.2924 H   0  0  0  0  0  0  0  0  0  0  0  0
   -1.3061    1.5796    0.0171 H   0  0  0  0  0  0  0  0  0  0  0  0
    0.0357   -0.5720    1.6145 H   0  0  0  0  0  0  0  0  0  0  0  0
    1.3328    1.5180    1.3002 H   0  0  0  0  0  0  0  0  0  0  0  0
    0.7206    1.5776   -0.4465 H   0  0  0  0  0  0  0  0  0  0  0  0
    2.9771    0.5666   -0.5157 H   0  0  0  0  0  0  0  0  0  0  0  0
    2.4049   -0.7141    0.6730 H   0  0  0  0  0  0  0  0  0  0  0  0
    0.3922   -2.0542   -0.0899 H   0  0  0  0  0  0  0  0  0  0  0  0
  1  2  1  0
  2  3  1  0
  3  4  1  0
  4  5  1  0
  5  6  1  0
  6  7  1  0
  7  8  1  0
  8  1  1  0
  7  3  1  0
  1  9  1  0
  1 10  1  0
  2 11  1  0
  2 12  1  0
  3 13  1  0
  4 14  1  0
  4 15  1  0
  5 16  1  0
  5 17  1  0
  7 18  1  0
M  END
