
     RDKit          3D

 21 23  0  0  0  0  0  0  0  0999 V2000
    2.4337    0.1182   -0.0823 C   0  0  0  0  0  0  0  0  0  0  0  0
    1.5186   -1.1139   -0.1378 C   0  0  0  0  0  0  0  0  0  0  0  0
    0.2683   -0.5532    0.4565 C   0  0  0  0  0  0  0  0  0  0  0  0
    0.4615    0.9405    0.2605 C   0  0  0  0  0  0  0  0  0  0  0  0
   -0.8154    1.4731   -0.3082 C   0  0  0  0  0  0  0  0  0  0  0  0
   -1.6726    0.2874   -0.6907 C   0  0  0  0  0  0  0  0  0  0  0  0
   -2.2563   -0.4810    0.4429 C   0  0  0  0  0  0  0  0  0  0  0  0
   -0.9830   -0.9392   -0.2588 C   0  0  0  0  0  0  0  0  0  0  0  0
    1.5471    1.0906   -0.5963 O   0  0  0  0  0  0  0  0  0  0  0  0
    2.5815    0.3702    0.9698 H   0  0  0  0  0  0  0  0  0  0  0  0
    3.3297    0.0004   -0.6837 H   0  0  0  0  0  0  0  0  0  0  0  0
    1.9794   -1.8591    0.5153 H   0  0  0  0  0  0  0  0  0  0  0  0
    1.3983   -1.4780   -1.1739 H   0  0  0  0  0  0  0  0  0  0  0  0
    0.2128   -0.8306    1.5194 H   0  0  0  0  0  0  0  0  0  0  0  0
    0.6806    1.3652    1.2531 H   0  0  0  0  0  0  0  0  0  0  0  0
   -1.3802    2.0915    0.4369 H   0  0  0  0  0  0  0  0  0  0  0  0
   -0.6405    2.1344   -1.1757 H   0  0  0  0  0  0  0  0  0  0  0  0
   -2.2546    0.3473   -1.6378 H   0  0  0  0  0  0  0  0  0  0  0  0
   -2.1721   -0.1018    1.4903 H   0  0  0  0  0  0  0  0  0  0  0  0
   -3.2004   -0.9867    0.2450 H   0  0  0  0  0  0  0  0  0  0  0  0
   -1.0362   -1.8756   -0.8446 H   0  0  0  0  0  0  0  0  0  0  0  0
  1  2  1  0
  2  3  1  0
  3  4  1  0
  4  5  1  0
  5  6  1  0
  6  7  1  0
  7  8  1  0
  4  9  1  0
  9  1  1  0
  8  3  1  0
  8  6  1  0
  1 10  1  0
  1 11  1  0
  2 12  1  0
  2 13  1  0
  3 14  1  0
  4 15  1  0
  5 16  1  0
  5 17  1  0
  6 18  1  0
  7 19  1  0
  7 20  1  0
  8 21  1  0
M  END
