
     RDKit          3D

 21 23  0  0  0  0  0  0  0  0999 V2000
    1.6500    0.4428    0.5486 C   0  0  0  0  0  0  0  0  0  0  0  0
    1.0054    1.3190   -0.4726 C   0  0  0  0  0  0  0  0  0  0  0  0
   -0.4506    1.0176   -0.6773 C   0  0  0  0  0  0  0  0  0  0  0  0
   -1.2766    1.0222    0.6281 C   0  0  0  0  0  0  0  0  0  0  0  0
   -0.9720   -0.1651   -0.0248 C   0  0  0  0  0  0  0  0  0  0  0  0
   -1.7607   -1.1647   -0.7520 C   0  0  0  0  0  0  0  0  0  0  0  0
   -0.5273   -1.8076   -1.0330 O   0  0  0  0  0  0  0  0  0  0  0  0
   -0.1140   -1.3019    0.2266 C   0  0  0  0  0  0  0  0  0  0  0  0
    1.3433   -1.0281    0.3471 C   0  0  0  0  0  0  0  0  0  0  0  0
    1.3428    0.7705    1.5729 H   0  0  0  0  0  0  0  0  0  0  0  0
    2.7449    0.5654    0.4754 H   0  0  0  0  0  0  0  0  0  0  0  0
    1.5603    1.3247   -1.4077 H   0  0  0  0  0  0  0  0  0  0  0  0
    1.0510    2.3730   -0.0729 H   0  0  0  0  0  0  0  0  0  0  0  0
   -0.9410    1.3794   -1.5862 H   0  0  0  0  0  0  0  0  0  0  0  0
   -2.2986    1.4895    0.5394 H   0  0  0  0  0  0  0  0  0  0  0  0
   -0.7649    1.3561    1.5504 H   0  0  0  0  0  0  0  0  0  0  0  0
   -2.3714   -1.7933   -0.0412 H   0  0  0  0  0  0  0  0  0  0  0  0
   -2.3022   -0.8096   -1.6281 H   0  0  0  0  0  0  0  0  0  0  0  0
   -0.5462   -2.0099    0.9912 H   0  0  0  0  0  0  0  0  0  0  0  0
    1.9299   -1.4440   -0.4762 H   0  0  0  0  0  0  0  0  0  0  0  0
    1.6979   -1.5360    1.2923 H   0  0  0  0  0  0  0  0  0  0  0  0
  1  2  1  0
  2  3  1  0
  3  4  1  0
  4  5  1  0
  5  6  1  0
  6  7  1  0
  7  8  1  0
  8  9  1  0
  9  1  1  0
  5  3  1  0
  8  5  1  0
  1 10  1  0
  1 11  1  0
  2 12  1  0
  2 13  1  0
  3 14  1  0
  4 15  1  0
  4 16  1  0
  6 17  1  0
  6 18  1  0
  8 19  1  0
  9 20  1  0
  9 21  1  0
M  END
