
     RDKit          3D

 19 21  0  0  0  0  0  0  0  0999 V2000
   -2.3707   -0.7252    0.6220 C   0  0  0  0  0  0  0  0  0  0  0  0
   -2.0660    0.6532    0.0381 C   0  0  0  0  0  0  0  0  0  0  0  0
   -1.1232   -0.5124   -0.1672 C   0  0  0  0  0  0  0  0  0  0  0  0
    0.1801   -0.4465    0.5877 C   0  0  0  0  0  0  0  0  0  0  0  0
    0.2401    0.5826    1.5284 O   0  0  0  0  0  0  0  0  0  0  0  0
    1.5836    0.8217    1.1930 C   0  0  0  0  0  0  0  0  0  0  0  0
    1.3369    0.1478   -0.1061 C   0  0  0  0  0  0  0  0  0  0  0  0
    2.1860   -0.3229   -1.0623 C   0  0  0  0  0  0  0  0  0  0  0  0
    1.2553    0.8145   -1.2917 O   0  0  0  0  0  0  0  0  0  0  0  0
   -2.2404   -0.8166    1.7083 H   0  0  0  0  0  0  0  0  0  0  0  0
   -3.2255   -1.2444    0.1186 H   0  0  0  0  0  0  0  0  0  0  0  0
   -1.7426    1.4347    0.7538 H   0  0  0  0  0  0  0  0  0  0  0  0
   -2.6889    0.9973   -0.8191 H   0  0  0  0  0  0  0  0  0  0  0  0
   -1.0991   -1.0112   -1.1679 H   0  0  0  0  0  0  0  0  0  0  0  0
    0.4369   -1.4067    1.1144 H   0  0  0  0  0  0  0  0  0  0  0  0
    2.3078    0.3123    1.8673 H   0  0  0  0  0  0  0  0  0  0  0  0
    1.8087    1.9030    1.0379 H   0  0  0  0  0  0  0  0  0  0  0  0
    3.2576   -0.0041   -1.1426 H   0  0  0  0  0  0  0  0  0  0  0  0
    1.9633   -1.1771   -1.7261 H   0  0  0  0  0  0  0  0  0  0  0  0
  1  2  1  0
  2  3  1  0
  3  4  1  0
  4  5  1  0
  5  6  1  0
  6  7  1  0
  7  8  1  0
  8  9  1  0
  3  1  1  0
  7  4  1  0
  9  7  1  0
  1 10  1  0
  1 11  1  0
  2 12  1  0
  2 13  1  0
  3 14  1  0
  4 15  1  0
  6 16  1  0
  6 17  1  0
  8 18  1  0
  8 19  1  0
M  END
