
     RDKit          3D

 23 25  0  0  0  0  0  0  0  0999 V2000
    2.0093    0.0362    0.0149 C   0  0  0  0  0  0  0  0  0  0  0  0
    1.3574    1.4012    0.2613 C   0  0  0  0  0  0  0  0  0  0  0  0
    0.0238    1.3691   -0.4138 C   0  0  0  0  0  0  0  0  0  0  0  0
   -0.8580    0.3659    0.2057 C   0  0  0  0  0  0  0  0  0  0  0  0
   -2.3135    0.4443    0.3113 C   0  0  0  0  0  0  0  0  0  0  0  0
   -1.7885   -0.3520   -0.8013 C   0  0  0  0  0  0  0  0  0  0  0  0
   -0.8563   -1.4970   -0.6763 C   0  0  0  0  0  0  0  0  0  0  0  0
   -0.2475   -0.9287    0.5748 C   0  0  0  0  0  0  0  0  0  0  0  0
    1.2068   -0.9794    0.7331 C   0  0  0  0  0  0  0  0  0  0  0  0
    2.1126   -0.1575   -1.0629 H   0  0  0  0  0  0  0  0  0  0  0  0
    3.0222    0.0916    0.4998 H   0  0  0  0  0  0  0  0  0  0  0  0
    1.9723    2.2076   -0.1823 H   0  0  0  0  0  0  0  0  0  0  0  0
    1.1951    1.5173    1.3452 H   0  0  0  0  0  0  0  0  0  0  0  0
   -0.4923    2.3435   -0.4523 H   0  0  0  0  0  0  0  0  0  0  0  0
    0.2157    1.0958   -1.4924 H   0  0  0  0  0  0  0  0  0  0  0  0
   -2.7975    1.3867    0.0911 H   0  0  0  0  0  0  0  0  0  0  0  0
   -2.7768   -0.1129    1.1680 H   0  0  0  0  0  0  0  0  0  0  0  0
   -1.8753    0.0799   -1.8117 H   0  0  0  0  0  0  0  0  0  0  0  0
   -1.2900   -2.5101   -0.5936 H   0  0  0  0  0  0  0  0  0  0  0  0
   -0.0762   -1.5058   -1.4857 H   0  0  0  0  0  0  0  0  0  0  0  0
   -0.7672   -1.3906    1.4647 H   0  0  0  0  0  0  0  0  0  0  0  0
    1.5719   -2.0151    0.4693 H   0  0  0  0  0  0  0  0  0  0  0  0
    1.4521   -0.8899    1.8328 H   0  0  0  0  0  0  0  0  0  0  0  0
  1  2  1  0
  2  3  1  0
  3  4  1  0
  4  5  1  0
  5  6  1  0
  6  7  1  0
  7  8  1  0
  8  9  1  0
  9  1  1  0
  6  4  1  0
  8  4  1  0
  1 10  1  0
  1 11  1  0
  2 12  1  0
  2 13  1  0
  3 14  1  0
  3 15  1  0
  5 16  1  0
  5 17  1  0
  6 18  1  0
  7 19  1  0
  7 20  1  0
  8 21  1  0
  9 22  1  0
  9 23  1  0
M  END
