
     RDKit          3D

 21 24  0  0  0  0  0  0  0  0999 V2000
    1.5768    0.7576   -0.3940 C   0  0  0  0  0  0  0  0  0  0  0  0
    1.7561   -0.6253    0.2199 C   0  0  0  0  0  0  0  0  0  0  0  0
    0.3315   -1.0319    0.4297 C   0  0  0  0  0  0  0  0  0  0  0  0
   -0.1765    0.2714    1.0727 C   0  0  0  0  0  0  0  0  0  0  0  0
   -1.6431    0.0899    0.9657 C   0  0  0  0  0  0  0  0  0  0  0  0
   -1.7520   -0.3164   -0.5133 C   0  0  0  0  0  0  0  0  0  0  0  0
   -0.7068    0.4909   -1.1606 C   0  0  0  0  0  0  0  0  0  0  0  0
    0.1379    1.1607   -0.1092 C   0  0  0  0  0  0  0  0  0  0  0  0
   -0.4907   -0.9795   -0.8423 C   0  0  0  0  0  0  0  0  0  0  0  0
    1.6921    0.6048   -1.4998 H   0  0  0  0  0  0  0  0  0  0  0  0
    2.3099    1.4674   -0.0257 H   0  0  0  0  0  0  0  0  0  0  0  0
    2.1907   -0.4354    1.2416 H   0  0  0  0  0  0  0  0  0  0  0  0
    2.3469   -1.2928   -0.3851 H   0  0  0  0  0  0  0  0  0  0  0  0
    0.1645   -1.9001    1.0447 H   0  0  0  0  0  0  0  0  0  0  0  0
    0.2615    0.5174    1.9978 H   0  0  0  0  0  0  0  0  0  0  0  0
   -2.1359    1.0737    1.0738 H   0  0  0  0  0  0  0  0  0  0  0  0
   -2.0554   -0.6911    1.6201 H   0  0  0  0  0  0  0  0  0  0  0  0
   -2.7183   -0.5224   -0.9449 H   0  0  0  0  0  0  0  0  0  0  0  0
   -0.7351    0.8394   -2.1849 H   0  0  0  0  0  0  0  0  0  0  0  0
   -0.0230    2.2079    0.0369 H   0  0  0  0  0  0  0  0  0  0  0  0
   -0.3311   -1.6864   -1.6430 H   0  0  0  0  0  0  0  0  0  0  0  0
  1  2  1  0
  2  3  1  0
  3  4  1  0
  4  5  1  0
  5  6  1  0
  6  7  1  0
  7  8  1  0
  7  9  1  0
  8  1  1  0
  9  3  1  0
  8  4  1  0
  9  6  1  0
  1 10  1  0
  1 11  1  0
  2 12  1  0
  2 13  1  0
  3 14  1  0
  4 15  1  0
  5 16  1  0
  5 17  1  0
  6 18  1  0
  7 19  1  0
  8 20  1  0
  9 21  1  0
M  END
