
     RDKit          3D

 17 18  0  0  0  0  0  0  0  0999 V2000
    2.0783   -0.6891    0.0694 C   0  0  0  0  0  0  0  0  0  0  0  0
    2.1263    0.6969    0.0061 C   0  0  0  0  0  0  0  0  0  0  0  0
    0.9266    1.3802   -0.0420 C   0  0  0  0  0  0  0  0  0  0  0  0
   -0.2599    0.6703   -0.0257 C   0  0  0  0  0  0  0  0  0  0  0  0
   -0.2749   -0.7032    0.0374 C   0  0  0  0  0  0  0  0  0  0  0  0
    0.9170   -1.4047    0.0863 C   0  0  0  0  0  0  0  0  0  0  0  0
   -1.7108   -1.0994    0.0321 C   0  0  0  0  0  0  0  0  0  0  0  0
   -2.3553    0.0246    0.4681 O   0  0  0  0  0  0  0  0  0  0  0  0
   -1.6824    1.1229   -0.0623 C   0  0  0  0  0  0  0  0  0  0  0  0
    3.0120   -1.2360    0.1076 H   0  0  0  0  0  0  0  0  0  0  0  0
    3.0854    1.2147   -0.0046 H   0  0  0  0  0  0  0  0  0  0  0  0
    0.9283    2.4696   -0.0923 H   0  0  0  0  0  0  0  0  0  0  0  0
    0.8786   -2.4948    0.1361 H   0  0  0  0  0  0  0  0  0  0  0  0
   -1.8916   -1.9599    0.7024 H   0  0  0  0  0  0  0  0  0  0  0  0
   -1.9472   -1.3573   -1.0253 H   0  0  0  0  0  0  0  0  0  0  0  0
   -1.8103    1.9565    0.6659 H   0  0  0  0  0  0  0  0  0  0  0  0
   -2.0200    1.4088   -1.0591 H   0  0  0  0  0  0  0  0  0  0  0  0
  1  2  2  0
  2  3  1  0
  3  4  2  0
  4  5  1  0
  5  6  2  0
  5  7  1  0
  7  8  1  0
  8  9  1  0
  6  1  1  0
  9  4  1  0
  1 10  1  0
  2 11  1  0
  3 12  1  0
  6 13  1  0
  7 14  1  0
  7 15  1  0
  9 16  1  0
  9 17  1  0
M  END
