
     RDKit          3D

 21 22  0  0  0  0  0  0  0  0999 V2000
   -2.5591   -0.1756   -0.1304 C   0  0  0  0  0  0  0  0  0  0  0  0
   -1.2034   -0.4999   -0.7472 C   0  0  0  0  0  0  0  0  0  0  0  0
   -0.4247    0.7023   -0.2900 C   0  0  0  0  0  0  0  0  0  0  0  0
    1.0477    0.5183   -0.2875 C   0  0  0  0  0  0  0  0  0  0  0  0
    1.5907   -0.5855    0.5926 C   0  0  0  0  0  0  0  0  0  0  0  0
    2.6556   -0.4740   -0.5088 C   0  0  0  0  0  0  0  0  0  0  0  0
    1.5706   -0.2111   -1.3782 O   0  0  0  0  0  0  0  0  0  0  0  0
   -0.9848    0.7825    1.1398 C   0  0  0  0  0  0  0  0  0  0  0  0
   -2.3476    0.7184    0.8820 O   0  0  0  0  0  0  0  0  0  0  0  0
   -3.0755   -1.0558    0.2500 H   0  0  0  0  0  0  0  0  0  0  0  0
   -3.1358    0.3335   -0.9570 H   0  0  0  0  0  0  0  0  0  0  0  0
   -1.2650   -0.5965   -1.8404 H   0  0  0  0  0  0  0  0  0  0  0  0
   -0.8192   -1.3734   -0.2282 H   0  0  0  0  0  0  0  0  0  0  0  0
   -0.6704    1.6181   -0.8408 H   0  0  0  0  0  0  0  0  0  0  0  0
    1.5750    1.4515   -0.0830 H   0  0  0  0  0  0  0  0  0  0  0  0
    1.0432   -1.5297    0.5885 H   0  0  0  0  0  0  0  0  0  0  0  0
    1.9149   -0.1949    1.5724 H   0  0  0  0  0  0  0  0  0  0  0  0
    3.1813   -1.4044   -0.6970 H   0  0  0  0  0  0  0  0  0  0  0  0
    3.2340    0.4388   -0.3350 H   0  0  0  0  0  0  0  0  0  0  0  0
   -0.6432   -0.1557    1.6519 H   0  0  0  0  0  0  0  0  0  0  0  0
   -0.6843    1.6932    1.6462 H   0  0  0  0  0  0  0  0  0  0  0  0
  1  2  1  0
  2  3  1  0
  3  4  1  0
  4  5  1  0
  5  6  1  0
  6  7  1  0
  3  8  1  0
  8  9  1  0
  9  1  1  0
  7  4  1  0
  1 10  1  0
  1 11  1  0
  2 12  1  0
  2 13  1  0
  3 14  1  0
  4 15  1  0
  5 16  1  0
  5 17  1  0
  6 18  1  0
  6 19  1  0
  8 20  1  0
  8 21  1  0
M  END
