
     RDKit          3D

 21 23  0  0  0  0  0  0  0  0999 V2000
    0.9416    1.4973   -0.2249 C   0  0  0  0  0  0  0  0  0  0  0  0
   -0.4139    1.2139    0.4080 C   0  0  0  0  0  0  0  0  0  0  0  0
   -0.7852   -0.1618   -0.0060 C   0  0  0  0  0  0  0  0  0  0  0  0
   -2.1296   -0.4039   -0.5434 C   0  0  0  0  0  0  0  0  0  0  0  0
   -1.7056   -1.0268    0.7345 C   0  0  0  0  0  0  0  0  0  0  0  0
    0.4423   -0.8259   -0.5837 C   0  0  0  0  0  0  0  0  0  0  0  0
    1.0329   -1.6209    0.4216 O   0  0  0  0  0  0  0  0  0  0  0  0
    1.8851   -0.5899    0.8072 C   0  0  0  0  0  0  0  0  0  0  0  0
    1.5724    0.1520   -0.4618 C   0  0  0  0  0  0  0  0  0  0  0  0
    1.5314    2.0551    0.5116 H   0  0  0  0  0  0  0  0  0  0  0  0
    0.8341    2.0215   -1.2016 H   0  0  0  0  0  0  0  0  0  0  0  0
   -0.4229    1.3991    1.4897 H   0  0  0  0  0  0  0  0  0  0  0  0
   -1.1218    1.9393   -0.0717 H   0  0  0  0  0  0  0  0  0  0  0  0
   -2.8932    0.3943   -0.4451 H   0  0  0  0  0  0  0  0  0  0  0  0
   -2.1931   -0.9702   -1.4857 H   0  0  0  0  0  0  0  0  0  0  0  0
   -2.2044   -0.7411    1.6734 H   0  0  0  0  0  0  0  0  0  0  0  0
   -1.5374   -2.1396    0.6770 H   0  0  0  0  0  0  0  0  0  0  0  0
    0.3075   -1.3209   -1.5488 H   0  0  0  0  0  0  0  0  0  0  0  0
    2.9179   -0.9654    0.8613 H   0  0  0  0  0  0  0  0  0  0  0  0
    1.6003   -0.0344    1.7105 H   0  0  0  0  0  0  0  0  0  0  0  0
    2.3416    0.1283   -1.2434 H   0  0  0  0  0  0  0  0  0  0  0  0
  1  2  1  0
  2  3  1  0
  3  4  1  0
  4  5  1  0
  3  6  1  0
  6  7  1  0
  7  8  1  0
  8  9  1  0
  9  1  1  0
  5  3  1  0
  9  6  1  0
  1 10  1  0
  1 11  1  0
  2 12  1  0
  2 13  1  0
  4 14  1  0
  4 15  1  0
  5 16  1  0
  5 17  1  0
  6 18  1  0
  8 19  1  0
  8 20  1  0
  9 21  1  0
M  END
