
     RDKit          3D

 21 23  0  0  0  0  0  0  0  0999 V2000
    0.0259   -1.4946   -0.4424 C   0  0  0  0  0  0  0  0  0  0  0  0
    0.9920   -0.9676    0.5973 C   0  0  0  0  0  0  0  0  0  0  0  0
    0.9757    0.5563    0.5857 C   0  0  0  0  0  0  0  0  0  0  0  0
    1.0353    0.8880   -0.9187 C   0  0  0  0  0  0  0  0  0  0  0  0
   -0.4811    0.8269   -1.1587 C   0  0  0  0  0  0  0  0  0  0  0  0
   -0.8337    1.8139   -0.2045 O   0  0  0  0  0  0  0  0  0  0  0  0
   -0.3610    1.1236    0.9411 C   0  0  0  0  0  0  0  0  0  0  0  0
   -1.3666   -0.0370    0.8857 C   0  0  0  0  0  0  0  0  0  0  0  0
   -1.0730   -0.4315   -0.5738 C   0  0  0  0  0  0  0  0  0  0  0  0
    0.4871   -1.7392   -1.3951 H   0  0  0  0  0  0  0  0  0  0  0  0
   -0.4969   -2.3783    0.0205 H   0  0  0  0  0  0  0  0  0  0  0  0
    0.8832   -1.4027    1.5822 H   0  0  0  0  0  0  0  0  0  0  0  0
    2.0163   -1.2498    0.2269 H   0  0  0  0  0  0  0  0  0  0  0  0
    1.8206    0.9675    1.1268 H   0  0  0  0  0  0  0  0  0  0  0  0
    1.5759    0.1369   -1.4830 H   0  0  0  0  0  0  0  0  0  0  0  0
    1.4017    1.9109   -0.9847 H   0  0  0  0  0  0  0  0  0  0  0  0
   -0.7723    1.0636   -2.1589 H   0  0  0  0  0  0  0  0  0  0  0  0
   -0.4182    1.6981    1.8433 H   0  0  0  0  0  0  0  0  0  0  0  0
   -1.0603   -0.7925    1.5994 H   0  0  0  0  0  0  0  0  0  0  0  0
   -2.3961    0.3067    0.9967 H   0  0  0  0  0  0  0  0  0  0  0  0
   -1.9544   -0.7992   -1.0857 H   0  0  0  0  0  0  0  0  0  0  0  0
  1  2  1  0
  2  3  1  0
  3  4  1  0
  4  5  1  0
  5  6  1  0
  6  7  1  0
  7  8  1  0
  8  9  1  0
  9  1  1  0
  7  3  1  0
  9  5  1  0
  1 10  1  0
  1 11  1  0
  2 12  1  0
  2 13  1  0
  3 14  1  0
  4 15  1  0
  4 16  1  0
  5 17  1  0
  7 18  1  0
  8 19  1  0
  8 20  1  0
  9 21  1  0
M  END
