
     RDKit          3D

 21 22  0  0  0  0  0  0  0  0999 V2000
    2.5720    0.3694    0.4620 C   0  0  0  0  0  0  0  0  0  0  0  0
    1.7702    0.0653   -0.7610 C   0  0  0  0  0  0  0  0  0  0  0  0
    1.0859   -0.8245    0.1801 C   0  0  0  0  0  0  0  0  0  0  0  0
    0.0405   -0.3462    1.0892 C   0  0  0  0  0  0  0  0  0  0  0  0
   -1.1744    0.2599    0.4848 C   0  0  0  0  0  0  0  0  0  0  0  0
   -1.9888   -0.5948   -0.4327 C   0  0  0  0  0  0  0  0  0  0  0  0
   -2.2909    0.8008   -0.9956 C   0  0  0  0  0  0  0  0  0  0  0  0
   -1.0060    1.1696   -0.5368 O   0  0  0  0  0  0  0  0  0  0  0  0
    2.3061   -0.9423    0.8625 O   0  0  0  0  0  0  0  0  0  0  0  0
    3.6386    0.5400    0.2150 H   0  0  0  0  0  0  0  0  0  0  0  0
    2.1037    1.1588    1.0621 H   0  0  0  0  0  0  0  0  0  0  0  0
    1.2365    0.8843   -1.2425 H   0  0  0  0  0  0  0  0  0  0  0  0
    2.3805   -0.4937   -1.4944 H   0  0  0  0  0  0  0  0  0  0  0  0
    0.8557   -1.8203   -0.2931 H   0  0  0  0  0  0  0  0  0  0  0  0
   -0.3211   -1.2423    1.6781 H   0  0  0  0  0  0  0  0  0  0  0  0
    0.4164    0.3490    1.8742 H   0  0  0  0  0  0  0  0  0  0  0  0
   -1.8220    0.6969    1.2742 H   0  0  0  0  0  0  0  0  0  0  0  0
   -2.9091   -1.0049   -0.0107 H   0  0  0  0  0  0  0  0  0  0  0  0
   -1.4548   -1.1876   -1.1804 H   0  0  0  0  0  0  0  0  0  0  0  0
   -3.0341    1.3670   -0.4159 H   0  0  0  0  0  0  0  0  0  0  0  0
   -2.4047    0.7958   -2.0811 H   0  0  0  0  0  0  0  0  0  0  0  0
  1  2  1  0
  2  3  1  0
  3  4  1  0
  4  5  1  0
  5  6  1  0
  6  7  1  0
  7  8  1  0
  3  9  1  0
  9  1  1  0
  8  5  1  0
  1 10  1  0
  1 11  1  0
  2 12  1  0
  2 13  1  0
  3 14  1  0
  4 15  1  0
  4 16  1  0
  5 17  1  0
  6 18  1  0
  6 19  1  0
  7 20  1  0
  7 21  1  0
M  END
