
     RDKit          3D

 19 21  0  0  0  0  0  0  0  0999 V2000
   -1.7163    0.5363    0.1217 C   0  0  0  0  0  0  0  0  0  0  0  0
   -1.5027   -0.7797   -0.6069 C   0  0  0  0  0  0  0  0  0  0  0  0
   -0.2556   -0.9714    0.2073 C   0  0  0  0  0  0  0  0  0  0  0  0
   -0.5610    0.2065    1.0297 C   0  0  0  0  0  0  0  0  0  0  0  0
    0.4068    1.1343    1.1884 O   0  0  0  0  0  0  0  0  0  0  0  0
    1.2584    1.3509    0.1624 C   0  0  0  0  0  0  0  0  0  0  0  0
    1.9006    0.1374   -0.4245 C   0  0  0  0  0  0  0  0  0  0  0  0
    2.1629   -0.9821    0.3135 O   0  0  0  0  0  0  0  0  0  0  0  0
    0.9867   -0.9359   -0.5898 C   0  0  0  0  0  0  0  0  0  0  0  0
   -2.7201    0.5328    0.5909 H   0  0  0  0  0  0  0  0  0  0  0  0
   -1.5567    1.3661   -0.5822 H   0  0  0  0  0  0  0  0  0  0  0  0
   -1.3136   -0.6852   -1.6924 H   0  0  0  0  0  0  0  0  0  0  0  0
   -2.3047   -1.5317   -0.4436 H   0  0  0  0  0  0  0  0  0  0  0  0
   -0.3360   -1.9536    0.7588 H   0  0  0  0  0  0  0  0  0  0  0  0
   -0.9822   -0.0952    2.0342 H   0  0  0  0  0  0  0  0  0  0  0  0
    0.7617    1.9008   -0.6825 H   0  0  0  0  0  0  0  0  0  0  0  0
    2.0738    2.0328    0.5143 H   0  0  0  0  0  0  0  0  0  0  0  0
    2.6391    0.3568   -1.2225 H   0  0  0  0  0  0  0  0  0  0  0  0
    1.0589   -1.6199   -1.4378 H   0  0  0  0  0  0  0  0  0  0  0  0
  1  2  1  0
  2  3  1  0
  3  4  1  0
  4  5  1  0
  5  6  1  0
  6  7  1  0
  7  8  1  0
  8  9  1  0
  4  1  1  0
  9  7  1  0
  9  3  1  0
  1 10  1  0
  1 11  1  0
  2 12  1  0
  2 13  1  0
  3 14  1  0
  4 15  1  0
  6 16  1  0
  6 17  1  0
  7 18  1  0
  9 19  1  0
M  END
