
     RDKit          3D

 19 20  0  0  0  0  0  0  0  0999 V2000
   -1.5064    0.7203   -0.2052 C   0  0  0  0  0  0  0  0  0  0  0  0
   -0.1196    1.2704   -0.2728 C   0  0  0  0  0  0  0  0  0  0  0  0
    0.8914    0.7135    0.6491 C   0  0  0  0  0  0  0  0  0  0  0  0
    2.0152   -0.1644    0.0972 C   0  0  0  0  0  0  0  0  0  0  0  0
    1.4654   -1.5053    0.1326 O   0  0  0  0  0  0  0  0  0  0  0  0
    0.2128   -1.1250   -0.0267 C   0  0  0  0  0  0  0  0  0  0  0  0
   -1.0848   -1.6291   -0.1191 C   0  0  0  0  0  0  0  0  0  0  0  0
   -1.9041   -0.5112   -0.3922 O   0  0  0  0  0  0  0  0  0  0  0  0
    0.1533   -0.3724    1.1849 O   0  0  0  0  0  0  0  0  0  0  0  0
   -1.9219    1.0624    0.7975 H   0  0  0  0  0  0  0  0  0  0  0  0
   -2.1001    1.3663   -0.9296 H   0  0  0  0  0  0  0  0  0  0  0  0
   -0.2554    2.3502    0.0783 H   0  0  0  0  0  0  0  0  0  0  0  0
    0.2420    1.4674   -1.3268 H   0  0  0  0  0  0  0  0  0  0  0  0
    1.2384    1.3699    1.4510 H   0  0  0  0  0  0  0  0  0  0  0  0
    2.8294   -0.1196    0.8166 H   0  0  0  0  0  0  0  0  0  0  0  0
    2.2668    0.0967   -0.9327 H   0  0  0  0  0  0  0  0  0  0  0  0
    0.3206   -0.5090   -0.9750 H   0  0  0  0  0  0  0  0  0  0  0  0
   -1.2349   -2.4313   -0.8679 H   0  0  0  0  0  0  0  0  0  0  0  0
   -1.5081   -2.0496    0.8408 H   0  0  0  0  0  0  0  0  0  0  0  0
  1  2  1  0
  2  3  1  0
  3  4  1  0
  4  5  1  0
  5  6  1  0
  6  7  1  0
  7  8  1  0
  6  9  1  0
  8  1  1  0
  9  3  1  0
  1 10  1  0
  1 11  1  0
  2 12  1  0
  2 13  1  0
  3 14  1  0
  4 15  1  0
  4 16  1  0
  6 17  1  0
  7 18  1  0
  7 19  1  0
M  END
