
     RDKit          3D

 21 23  0  0  0  0  0  0  0  0999 V2000
   -1.6661    1.2000    0.2399 C   0  0  0  0  0  0  0  0  0  0  0  0
   -1.8867   -0.2711    0.4322 C   0  0  0  0  0  0  0  0  0  0  0  0
   -0.6120   -1.0697    0.4568 C   0  0  0  0  0  0  0  0  0  0  0  0
   -0.1252   -1.4993   -0.9542 C   0  0  0  0  0  0  0  0  0  0  0  0
    0.5370   -0.4817   -0.1967 C   0  0  0  0  0  0  0  0  0  0  0  0
    1.9257   -0.4890    0.2965 C   0  0  0  0  0  0  0  0  0  0  0  0
    1.9322    1.0346    0.1512 C   0  0  0  0  0  0  0  0  0  0  0  0
    0.5239    0.9785   -0.4344 C   0  0  0  0  0  0  0  0  0  0  0  0
   -0.3620    1.5849    0.4503 O   0  0  0  0  0  0  0  0  0  0  0  0
   -1.9656    1.5686   -0.7627 H   0  0  0  0  0  0  0  0  0  0  0  0
   -2.2937    1.7442    0.9848 H   0  0  0  0  0  0  0  0  0  0  0  0
   -2.4853   -0.6236   -0.4507 H   0  0  0  0  0  0  0  0  0  0  0  0
   -2.5106   -0.4931    1.3162 H   0  0  0  0  0  0  0  0  0  0  0  0
   -0.4417   -1.7865    1.2804 H   0  0  0  0  0  0  0  0  0  0  0  0
   -0.8245   -1.3542   -1.7879 H   0  0  0  0  0  0  0  0  0  0  0  0
    0.3253   -2.5337   -0.9642 H   0  0  0  0  0  0  0  0  0  0  0  0
    2.0703   -0.8318    1.3515 H   0  0  0  0  0  0  0  0  0  0  0  0
    2.7050   -0.9173   -0.3905 H   0  0  0  0  0  0  0  0  0  0  0  0
    2.0018    1.5033    1.1467 H   0  0  0  0  0  0  0  0  0  0  0  0
    2.7027    1.4232   -0.5390 H   0  0  0  0  0  0  0  0  0  0  0  0
    0.4493    1.3138   -1.4861 H   0  0  0  0  0  0  0  0  0  0  0  0
  1  2  1  0
  2  3  1  0
  3  4  1  0
  4  5  1  0
  5  6  1  0
  6  7  1  0
  7  8  1  0
  8  9  1  0
  9  1  1  0
  5  3  1  0
  8  5  1  0
  1 10  1  0
  1 11  1  0
  2 12  1  0
  2 13  1  0
  3 14  1  0
  4 15  1  0
  4 16  1  0
  6 17  1  0
  6 18  1  0
  7 19  1  0
  7 20  1  0
  8 21  1  0
M  END
