
     RDKit          3D

 21 23  0  0  0  0  0  0  0  0999 V2000
   -2.8664    0.0609    0.2215 C   0  0  0  0  0  0  0  0  0  0  0  0
   -1.8617   -1.0231   -0.0874 C   0  0  0  0  0  0  0  0  0  0  0  0
   -0.6527   -0.2514   -0.4898 C   0  0  0  0  0  0  0  0  0  0  0  0
   -0.9294    1.1438    0.0793 C   0  0  0  0  0  0  0  0  0  0  0  0
   -2.0898    1.0392    0.8114 O   0  0  0  0  0  0  0  0  0  0  0  0
    0.2357    0.3868    0.5279 C   0  0  0  0  0  0  0  0  0  0  0  0
    1.6345    0.6631    0.0749 C   0  0  0  0  0  0  0  0  0  0  0  0
    2.4015   -0.5845   -0.3502 C   0  0  0  0  0  0  0  0  0  0  0  0
    2.8136    0.2169    0.8304 C   0  0  0  0  0  0  0  0  0  0  0  0
   -3.6451   -0.3094    0.8937 H   0  0  0  0  0  0  0  0  0  0  0  0
   -3.2689    0.4494   -0.7370 H   0  0  0  0  0  0  0  0  0  0  0  0
   -1.7127   -1.7353    0.7307 H   0  0  0  0  0  0  0  0  0  0  0  0
   -2.2239   -1.6125   -0.9702 H   0  0  0  0  0  0  0  0  0  0  0  0
   -0.3315   -0.2971   -1.5503 H   0  0  0  0  0  0  0  0  0  0  0  0
   -0.8778    1.9828   -0.6319 H   0  0  0  0  0  0  0  0  0  0  0  0
    0.1818   -0.0564    1.5594 H   0  0  0  0  0  0  0  0  0  0  0  0
    1.7459    1.5164   -0.6185 H   0  0  0  0  0  0  0  0  0  0  0  0
    3.0194   -0.5571   -1.2503 H   0  0  0  0  0  0  0  0  0  0  0  0
    1.9469   -1.5827   -0.1203 H   0  0  0  0  0  0  0  0  0  0  0  0
    2.7147   -0.2344    1.8486 H   0  0  0  0  0  0  0  0  0  0  0  0
    3.7660    0.7845    0.7132 H   0  0  0  0  0  0  0  0  0  0  0  0
  1  2  1  0
  2  3  1  0
  3  4  1  0
  4  5  1  0
  4  6  1  0
  6  7  1  0
  7  8  1  0
  8  9  1  0
  5  1  1  0
  9  7  1  0
  6  3  1  0
  1 10  1  0
  1 11  1  0
  2 12  1  0
  2 13  1  0
  3 14  1  0
  4 15  1  0
  6 16  1  0
  7 17  1  0
  8 18  1  0
  8 19  1  0
  9 20  1  0
  9 21  1  0
M  END
