
     RDKit          3D

 22 23  0  0  0  0  0  0  0  0999 V2000
    2.2346   -0.6907    0.2115 C   0  0  0  0  0  0  0  0  0  0  0  0
    1.8054    0.7536    0.2788 C   0  0  0  0  0  0  0  0  0  0  0  0
    0.7042    0.4071   -0.7274 C   0  0  0  0  0  0  0  0  0  0  0  0
   -0.6207    0.6958   -0.1368 C   0  0  0  0  0  0  0  0  0  0  0  0
   -1.0076   -0.0272    1.1190 C   0  0  0  0  0  0  0  0  0  0  0  0
   -2.4497    0.0939    0.6016 C   0  0  0  0  0  0  0  0  0  0  0  0
   -1.8166    0.0401   -0.8005 C   0  0  0  0  0  0  0  0  0  0  0  0
    1.1793   -0.9865   -0.8251 C   0  0  0  0  0  0  0  0  0  0  0  0
    2.0451   -1.2500    1.1382 H   0  0  0  0  0  0  0  0  0  0  0  0
    3.2866   -0.7301   -0.1591 H   0  0  0  0  0  0  0  0  0  0  0  0
    2.5251    1.4875   -0.1028 H   0  0  0  0  0  0  0  0  0  0  0  0
    1.4404    1.0118    1.2857 H   0  0  0  0  0  0  0  0  0  0  0  0
    0.8465    0.9650   -1.6723 H   0  0  0  0  0  0  0  0  0  0  0  0
   -0.8268    1.7793   -0.0129 H   0  0  0  0  0  0  0  0  0  0  0  0
   -0.8019    0.5869    2.0147 H   0  0  0  0  0  0  0  0  0  0  0  0
   -0.6959   -1.0811    1.1838 H   0  0  0  0  0  0  0  0  0  0  0  0
   -2.8794    1.0997    0.7283 H   0  0  0  0  0  0  0  0  0  0  0  0
   -3.0882   -0.7613    0.8353 H   0  0  0  0  0  0  0  0  0  0  0  0
   -1.6834   -1.0138   -1.0733 H   0  0  0  0  0  0  0  0  0  0  0  0
   -2.3522    0.6762   -1.5331 H   0  0  0  0  0  0  0  0  0  0  0  0
    0.4726   -1.7951   -0.5663 H   0  0  0  0  0  0  0  0  0  0  0  0
    1.6826   -1.2612   -1.7872 H   0  0  0  0  0  0  0  0  0  0  0  0
  1  2  1  0
  2  3  1  0
  3  4  1  0
  4  5  1  0
  5  6  1  0
  6  7  1  0
  3  8  1  0
  8  1  1  0
  7  4  1  0
  1  9  1  0
  1 10  1  0
  2 11  1  0
  2 12  1  0
  3 13  1  0
  4 14  1  0
  5 15  1  0
  5 16  1  0
  6 17  1  0
  6 18  1  0
  7 19  1  0
  7 20  1  0
  8 21  1  0
  8 22  1  0
M  END
