
     RDKit          3D

 19 22  0  0  0  0  0  0  0  0999 V2000
   -2.1865    0.5757   -0.4430 C   0  0  0  0  0  0  0  0  0  0  0  0
   -0.8745    1.2855   -0.0950 C   0  0  0  0  0  0  0  0  0  0  0  0
   -0.2534   -0.0614    0.0143 C   0  0  0  0  0  0  0  0  0  0  0  0
   -1.5704   -0.7118    0.1067 C   0  0  0  0  0  0  0  0  0  0  0  0
    0.8911   -0.4261    0.7771 C   0  0  0  0  0  0  0  0  0  0  0  0
    2.0883    0.4808    0.6400 C   0  0  0  0  0  0  0  0  0  0  0  0
    3.2397    0.2705   -0.0638 O   0  0  0  0  0  0  0  0  0  0  0  0
    2.3393   -0.6029   -0.4265 C   0  0  0  0  0  0  0  0  0  0  0  0
    0.9017   -0.4935   -0.7763 C   0  0  0  0  0  0  0  0  0  0  0  0
   -2.3437    0.4700   -1.5236 H   0  0  0  0  0  0  0  0  0  0  0  0
   -3.0429    0.9123    0.1630 H   0  0  0  0  0  0  0  0  0  0  0  0
   -0.5804    1.9326   -0.9211 H   0  0  0  0  0  0  0  0  0  0  0  0
   -0.9319    1.8847    0.8486 H   0  0  0  0  0  0  0  0  0  0  0  0
   -1.9477   -0.9940    1.1018 H   0  0  0  0  0  0  0  0  0  0  0  0
   -1.6439   -1.5731   -0.6093 H   0  0  0  0  0  0  0  0  0  0  0  0
    0.9865   -1.4255    1.2127 H   0  0  0  0  0  0  0  0  0  0  0  0
    1.7952    1.5170    0.3647 H   0  0  0  0  0  0  0  0  0  0  0  0
    2.5566   -1.5917    0.1129 H   0  0  0  0  0  0  0  0  0  0  0  0
    0.5768   -1.4491   -1.2947 H   0  0  0  0  0  0  0  0  0  0  0  0
  1  2  1  0
  2  3  1  0
  3  4  1  0
  3  5  1  0
  5  6  1  0
  6  7  1  0
  7  8  1  0
  8  9  1  0
  4  1  1  0
  9  5  1  0
  9  3  1  0
  8  6  1  0
  1 10  1  0
  1 11  1  0
  2 12  1  0
  2 13  1  0
  4 14  1  0
  4 15  1  0
  5 16  1  0
  6 17  1  0
  8 18  1  0
  9 19  1  0
M  END
