
     RDKit          3D

 18 20  0  0  0  0  0  0  0  0999 V2000
   -1.1638   -0.6265   -0.6322 C   0  0  0  0  0  0  0  0  0  0  0  0
   -1.4225   -0.0738    0.7378 C   0  0  0  0  0  0  0  0  0  0  0  0
   -0.1958    0.7039    1.1065 C   0  0  0  0  0  0  0  0  0  0  0  0
    1.1597    0.2835    0.7535 C   0  0  0  0  0  0  0  0  0  0  0  0
    1.4845   -0.8478   -0.1402 C   0  0  0  0  0  0  0  0  0  0  0  0
    1.0326   -0.5476   -1.4225 O   0  0  0  0  0  0  0  0  0  0  0  0
   -0.0891    0.2375   -1.2508 C   0  0  0  0  0  0  0  0  0  0  0  0
    0.3181    1.1874   -0.1764 C   0  0  0  0  0  0  0  0  0  0  0  0
   -2.0537   -0.6910   -1.2693 H   0  0  0  0  0  0  0  0  0  0  0  0
   -0.8145   -1.6882   -0.4855 H   0  0  0  0  0  0  0  0  0  0  0  0
   -2.2828    0.6234    0.6553 H   0  0  0  0  0  0  0  0  0  0  0  0
   -1.6988   -0.8278    1.4868 H   0  0  0  0  0  0  0  0  0  0  0  0
   -0.3281    1.3828    1.9599 H   0  0  0  0  0  0  0  0  0  0  0  0
    1.9888    0.7698    1.3042 H   0  0  0  0  0  0  0  0  0  0  0  0
    2.6056   -0.9280   -0.2299 H   0  0  0  0  0  0  0  0  0  0  0  0
    1.1139   -1.8303    0.1629 H   0  0  0  0  0  0  0  0  0  0  0  0
   -0.3904    0.7075   -2.1929 H   0  0  0  0  0  0  0  0  0  0  0  0
    0.7362    2.1652   -0.3673 H   0  0  0  0  0  0  0  0  0  0  0  0
  1  2  1  0
  2  3  1  0
  3  4  1  0
  4  5  1  0
  5  6  1  0
  6  7  1  0
  7  8  1  0
  7  1  1  0
  8  3  1  0
  8  4  1  0
  1  9  1  0
  1 10  1  0
  2 11  1  0
  2 12  1  0
  3 13  1  0
  4 14  1  0
  5 15  1  0
  5 16  1  0
  7 17  1  0
  8 18  1  0
M  END
