
     RDKit          3D

 21 23  0  0  0  0  0  0  0  0999 V2000
   -2.4217   -0.4050   -0.6408 C   0  0  0  0  0  0  0  0  0  0  0  0
   -2.7332    0.8271    0.1257 C   0  0  0  0  0  0  0  0  0  0  0  0
   -1.2867    0.4077   -0.1848 C   0  0  0  0  0  0  0  0  0  0  0  0
   -0.4315    0.0220    0.9891 C   0  0  0  0  0  0  0  0  0  0  0  0
    0.3263   -1.2558    1.0063 C   0  0  0  0  0  0  0  0  0  0  0  0
    1.0608    0.0486    0.8383 C   0  0  0  0  0  0  0  0  0  0  0  0
    1.6950    0.2521   -0.4996 C   0  0  0  0  0  0  0  0  0  0  0  0
    3.2085    0.2511   -0.4853 C   0  0  0  0  0  0  0  0  0  0  0  0
    2.4549    1.3889   -0.7467 O   0  0  0  0  0  0  0  0  0  0  0  0
   -2.6508   -0.4393   -1.7257 H   0  0  0  0  0  0  0  0  0  0  0  0
   -2.6928   -1.3794   -0.1425 H   0  0  0  0  0  0  0  0  0  0  0  0
   -3.0719    1.7598   -0.3894 H   0  0  0  0  0  0  0  0  0  0  0  0
   -3.0632    0.7045    1.1792 H   0  0  0  0  0  0  0  0  0  0  0  0
   -0.7433    0.9840   -0.9664 H   0  0  0  0  0  0  0  0  0  0  0  0
   -0.7925    0.3766    1.9769 H   0  0  0  0  0  0  0  0  0  0  0  0
    0.2445   -1.9483    0.1439 H   0  0  0  0  0  0  0  0  0  0  0  0
    0.5095   -1.7502    2.0004 H   0  0  0  0  0  0  0  0  0  0  0  0
    1.6744    0.4413    1.6980 H   0  0  0  0  0  0  0  0  0  0  0  0
    1.2071   -0.2596   -1.3609 H   0  0  0  0  0  0  0  0  0  0  0  0
    3.7635   -0.2493   -1.2989 H   0  0  0  0  0  0  0  0  0  0  0  0
    3.7432    0.2232    0.4846 H   0  0  0  0  0  0  0  0  0  0  0  0
  1  2  1  0
  2  3  1  0
  3  4  1  0
  4  5  1  0
  5  6  1  0
  6  7  1  0
  7  8  1  0
  8  9  1  0
  3  1  1  0
  6  4  1  0
  9  7  1  0
  1 10  1  0
  1 11  1  0
  2 12  1  0
  2 13  1  0
  3 14  1  0
  4 15  1  0
  5 16  1  0
  5 17  1  0
  6 18  1  0
  7 19  1  0
  8 20  1  0
  8 21  1  0
M  END
