
     RDKit          3D

 19 23  0  0  0  0  0  0  0  0999 V2000
    1.9119   -0.1134    1.0224 C   0  0  0  0  0  0  0  0  0  0  0  0
    1.9436    1.1464    0.1989 C   0  0  0  0  0  0  0  0  0  0  0  0
    1.2208   -0.0472   -0.3183 C   0  0  0  0  0  0  0  0  0  0  0  0
   -0.1336   -0.1858   -0.6345 C   0  0  0  0  0  0  0  0  0  0  0  0
   -1.0883   -1.3979   -0.3661 C   0  0  0  0  0  0  0  0  0  0  0  0
   -2.3584   -0.3506   -0.1523 C   0  0  0  0  0  0  0  0  0  0  0  0
   -1.3381   -0.5436    0.3993 C   0  0  0  0  0  0  0  0  0  0  0  0
   -1.1678    0.0040   -1.1866 C   0  0  0  0  0  0  0  0  0  0  0  0
   -1.3179    0.8743   -0.4048 C   0  0  0  0  0  0  0  0  0  0  0  0
    1.3784   -0.1498    1.9698 H   0  0  0  0  0  0  0  0  0  0  0  0
    2.9084   -0.6110    1.1091 H   0  0  0  0  0  0  0  0  0  0  0  0
    1.4148    1.9957    0.6715 H   0  0  0  0  0  0  0  0  0  0  0  0
    2.9084    1.4799   -0.2349 H   0  0  0  0  0  0  0  0  0  0  0  0
    1.8650   -0.5651   -1.1163 H   0  0  0  0  0  0  0  0  0  0  0  0
   -1.2684   -2.0670   -1.2199 H   0  0  0  0  0  0  0  0  0  0  0  0
   -3.1175   -0.4585   -0.9313 H   0  0  0  0  0  0  0  0  0  0  0  0
   -0.8252   -0.0258    1.1937 H   0  0  0  0  0  0  0  0  0  0  0  0
   -1.7414   -0.4946   -1.9597 H   0  0  0  0  0  0  0  0  0  0  0  0
   -1.1946    1.5099    0.4721 H   0  0  0  0  0  0  0  0  0  0  0  0
  1  2  1  0
  2  3  1  0
  3  4  1  0
  4  5  1  0
  5  6  1  0
  6  7  1  0
  7  8  1  0
  8  9  1  0
  3  1  1  0
  8  4  1  0
  9  4  1  0
  7  5  1  0
  9  6  1  0
  1 10  1  0
  1 11  1  0
  2 12  1  0
  2 13  1  0
  3 14  1  0
  5 15  1  0
  6 16  1  0
  7 17  1  0
  8 18  1  0
  9 19  1  0
M  END
