
     RDKit          3D

 21 23  0  0  0  0  0  0  0  0999 V2000
    2.1561   -0.3701    0.6687 C   0  0  0  0  0  0  0  0  0  0  0  0
    2.1405    0.8365   -0.1544 C   0  0  0  0  0  0  0  0  0  0  0  0
    0.9656    0.6024    0.7335 C   0  0  0  0  0  0  0  0  0  0  0  0
   -0.2620    0.1183    0.1906 C   0  0  0  0  0  0  0  0  0  0  0  0
   -0.4001   -0.2978   -1.2426 C   0  0  0  0  0  0  0  0  0  0  0  0
   -1.7591   -0.7101   -1.2475 O   0  0  0  0  0  0  0  0  0  0  0  0
   -2.1564   -0.4899    0.0432 C   0  0  0  0  0  0  0  0  0  0  0  0
   -0.9923   -1.0447    0.8821 C   0  0  0  0  0  0  0  0  0  0  0  0
   -1.5538    0.8782    0.4095 C   0  0  0  0  0  0  0  0  0  0  0  0
    2.7249   -0.4645    1.6100 H   0  0  0  0  0  0  0  0  0  0  0  0
    1.9981   -1.3373    0.1606 H   0  0  0  0  0  0  0  0  0  0  0  0
    2.0047    0.7152   -1.2552 H   0  0  0  0  0  0  0  0  0  0  0  0
    2.8138    1.6860    0.0833 H   0  0  0  0  0  0  0  0  0  0  0  0
    0.9102    1.2763    1.6259 H   0  0  0  0  0  0  0  0  0  0  0  0
    0.2142   -1.1442   -1.5394 H   0  0  0  0  0  0  0  0  0  0  0  0
   -0.3337    0.5558   -1.9594 H   0  0  0  0  0  0  0  0  0  0  0  0
   -3.1400   -0.6951    0.3768 H   0  0  0  0  0  0  0  0  0  0  0  0
   -0.6471   -2.0335    0.5783 H   0  0  0  0  0  0  0  0  0  0  0  0
   -1.2122   -0.8690    1.9403 H   0  0  0  0  0  0  0  0  0  0  0  0
   -1.6947    1.1212    1.4741 H   0  0  0  0  0  0  0  0  0  0  0  0
   -1.7767    1.6662   -0.3170 H   0  0  0  0  0  0  0  0  0  0  0  0
  1  2  1  0
  2  3  1  0
  3  4  1  0
  4  5  1  0
  5  6  1  0
  6  7  1  0
  7  8  1  0
  7  9  1  0
  3  1  1  0
  8  4  1  0
  9  4  1  0
  1 10  1  0
  1 11  1  0
  2 12  1  0
  2 13  1  0
  3 14  1  0
  5 15  1  0
  5 16  1  0
  7 17  1  0
  8 18  1  0
  8 19  1  0
  9 20  1  0
  9 21  1  0
M  END
