
     RDKit          3D

 19 21  0  0  0  0  0  0  0  0999 V2000
    2.0037   -0.2892    0.4403 C   0  0  0  0  0  0  0  0  0  0  0  0
    1.1910   -1.2170   -0.4746 C   0  0  0  0  0  0  0  0  0  0  0  0
    0.1421   -0.2672   -1.0244 C   0  0  0  0  0  0  0  0  0  0  0  0
    0.9276    0.9121   -1.1121 O   0  0  0  0  0  0  0  0  0  0  0  0
    1.2336    1.0012    0.2696 C   0  0  0  0  0  0  0  0  0  0  0  0
   -0.0307    0.9198    0.8817 O   0  0  0  0  0  0  0  0  0  0  0  0
   -0.8159    0.1810    0.0251 C   0  0  0  0  0  0  0  0  0  0  0  0
   -2.1156   -0.3500    0.2821 C   0  0  0  0  0  0  0  0  0  0  0  0
   -2.0265    0.9317   -0.5299 C   0  0  0  0  0  0  0  0  0  0  0  0
    2.0255   -0.6519    1.4692 H   0  0  0  0  0  0  0  0  0  0  0  0
    3.0086   -0.1194    0.0015 H   0  0  0  0  0  0  0  0  0  0  0  0
    1.7890   -1.5724   -1.3186 H   0  0  0  0  0  0  0  0  0  0  0  0
    0.7341   -2.0214    0.1239 H   0  0  0  0  0  0  0  0  0  0  0  0
   -0.2799   -0.5651   -1.9701 H   0  0  0  0  0  0  0  0  0  0  0  0
    1.7847    1.8935    0.5233 H   0  0  0  0  0  0  0  0  0  0  0  0
   -2.5831   -0.2192    1.2630 H   0  0  0  0  0  0  0  0  0  0  0  0
   -2.4294   -1.2810   -0.2515 H   0  0  0  0  0  0  0  0  0  0  0  0
   -2.2549    0.8281   -1.6069 H   0  0  0  0  0  0  0  0  0  0  0  0
   -2.3039    1.8863   -0.0316 H   0  0  0  0  0  0  0  0  0  0  0  0
  1  2  1  0
  2  3  1  0
  3  4  1  0
  4  5  1  0
  5  6  1  0
  6  7  1  0
  7  8  1  0
  8  9  1  0
  5  1  1  0
  9  7  1  0
  7  3  1  0
  1 10  1  0
  1 11  1  0
  2 12  1  0
  2 13  1  0
  3 14  1  0
  5 15  1  0
  8 16  1  0
  8 17  1  0
  9 18  1  0
  9 19  1  0
M  END
