
     RDKit          3D

 23 25  0  0  0  0  0  0  0  0999 V2000
    2.1234    0.0988   -0.3996 C   0  0  0  0  0  0  0  0  0  0  0  0
    1.1829   -1.0955   -0.6444 C   0  0  0  0  0  0  0  0  0  0  0  0
    0.1837   -0.9068    0.4204 C   0  0  0  0  0  0  0  0  0  0  0  0
   -1.2240   -1.3549    0.1139 C   0  0  0  0  0  0  0  0  0  0  0  0
   -1.9213   -0.0206    0.1386 C   0  0  0  0  0  0  0  0  0  0  0  0
   -1.1564    0.8367    1.1661 C   0  0  0  0  0  0  0  0  0  0  0  0
   -0.0474    0.6067    0.2578 C   0  0  0  0  0  0  0  0  0  0  0  0
    1.2263    1.1985    0.1940 C   0  0  0  0  0  0  0  0  0  0  0  0
   -1.0442    0.7317   -0.8801 C   0  0  0  0  0  0  0  0  0  0  0  0
    2.7992   -0.2368    0.4167 H   0  0  0  0  0  0  0  0  0  0  0  0
    2.6306    0.4160   -1.3063 H   0  0  0  0  0  0  0  0  0  0  0  0
    1.7427   -2.0534   -0.4317 H   0  0  0  0  0  0  0  0  0  0  0  0
    0.7788   -1.0868   -1.6531 H   0  0  0  0  0  0  0  0  0  0  0  0
    0.5291   -1.1674    1.4119 H   0  0  0  0  0  0  0  0  0  0  0  0
   -1.6237   -2.0757    0.8295 H   0  0  0  0  0  0  0  0  0  0  0  0
   -1.2414   -1.7282   -0.9464 H   0  0  0  0  0  0  0  0  0  0  0  0
   -2.9606    0.0716    0.0745 H   0  0  0  0  0  0  0  0  0  0  0  0
   -1.0942    0.3414    2.1738 H   0  0  0  0  0  0  0  0  0  0  0  0
   -1.6208    1.8135    1.2601 H   0  0  0  0  0  0  0  0  0  0  0  0
    1.2659    2.0433   -0.5573 H   0  0  0  0  0  0  0  0  0  0  0  0
    1.6665    1.6255    1.1123 H   0  0  0  0  0  0  0  0  0  0  0  0
   -0.8190    0.1736   -1.7864 H   0  0  0  0  0  0  0  0  0  0  0  0
   -1.3761    1.7689   -0.9641 H   0  0  0  0  0  0  0  0  0  0  0  0
  1  2  1  0
  2  3  1  0
  3  4  1  0
  4  5  1  0
  5  6  1  0
  6  7  1  0
  7  8  1  0
  7  9  1  0
  8  1  1  0
  7  3  1  0
  9  5  1  0
  1 10  1  0
  1 11  1  0
  2 12  1  0
  2 13  1  0
  3 14  1  0
  4 15  1  0
  4 16  1  0
  5 17  1  0
  6 18  1  0
  6 19  1  0
  8 20  1  0
  8 21  1  0
  9 22  1  0
  9 23  1  0
M  END
