
     RDKit          3D

 19 20  0  0  0  0  0  0  0  0999 V2000
    2.4588    0.4801    0.2765 C   0  0  0  0  0  0  0  0  0  0  0  0
    2.3856   -0.8845    0.1833 C   0  0  0  0  0  0  0  0  0  0  0  0
    1.1362   -1.4537    0.0260 C   0  0  0  0  0  0  0  0  0  0  0  0
   -0.0120   -0.6951   -0.0377 C   0  0  0  0  0  0  0  0  0  0  0  0
    0.0985    0.6835    0.0600 C   0  0  0  0  0  0  0  0  0  0  0  0
    1.3255    1.2868    0.2172 C   0  0  0  0  0  0  0  0  0  0  0  0
   -1.2536    1.3002   -0.0324 C   0  0  0  0  0  0  0  0  0  0  0  0
   -2.2110    0.1827   -0.2760 C   0  0  0  0  0  0  0  0  0  0  0  0
   -1.4128   -1.1040   -0.1996 C   0  0  0  0  0  0  0  0  0  0  0  0
    3.4050    1.0188    0.4024 H   0  0  0  0  0  0  0  0  0  0  0  0
    3.3023   -1.4662    0.2356 H   0  0  0  0  0  0  0  0  0  0  0  0
    1.0943   -2.5440   -0.0469 H   0  0  0  0  0  0  0  0  0  0  0  0
    1.3695    2.3644    0.2895 H   0  0  0  0  0  0  0  0  0  0  0  0
   -1.4699    1.8405    0.9051 H   0  0  0  0  0  0  0  0  0  0  0  0
   -1.2301    2.0523   -0.8457 H   0  0  0  0  0  0  0  0  0  0  0  0
   -2.7165    0.2190   -1.2477 H   0  0  0  0  0  0  0  0  0  0  0  0
   -2.9792    0.1708    0.5128 H   0  0  0  0  0  0  0  0  0  0  0  0
   -1.7265   -1.6957    0.6993 H   0  0  0  0  0  0  0  0  0  0  0  0
   -1.5642   -1.7559   -1.0771 H   0  0  0  0  0  0  0  0  0  0  0  0
  1  2  2  0
  2  3  1  0
  3  4  2  0
  4  5  1  0
  5  6  2  0
  5  7  1  0
  7  8  1  0
  8  9  1  0
  6  1  1  0
  9  4  1  0
  1 10  1  0
  2 11  1  0
  3 12  1  0
  6 13  1  0
  7 14  1  0
  7 15  1  0
  8 16  1  0
  8 17  1  0
  9 18  1  0
  9 19  1  0
M  END
