
     RDKit          3D

 19 20  0  0  0  0  0  0  0  0999 V2000
    2.8369    0.1556   -0.1479 C   0  0  0  0  0  0  0  0  0  0  0  0
    2.0548   -0.9671    0.0201 C   0  0  0  0  0  0  0  0  0  0  0  0
    0.7374   -0.6029   -0.0431 C   0  0  0  0  0  0  0  0  0  0  0  0
    0.7605    0.7748   -0.2545 C   0  0  0  0  0  0  0  0  0  0  0  0
    2.0072    1.1590   -0.3066 O   0  0  0  0  0  0  0  0  0  0  0  0
   -0.5090    1.5505   -0.3806 C   0  0  0  0  0  0  0  0  0  0  0  0
   -1.5086    0.8741    0.5500 C   0  0  0  0  0  0  0  0  0  0  0  0
   -1.7275   -0.5176    0.0115 C   0  0  0  0  0  0  0  0  0  0  0  0
   -0.5077   -1.3801    0.0694 C   0  0  0  0  0  0  0  0  0  0  0  0
    3.9370    0.2009   -0.1488 H   0  0  0  0  0  0  0  0  0  0  0  0
    2.4543   -1.9755    0.1772 H   0  0  0  0  0  0  0  0  0  0  0  0
   -0.8840    1.4414   -1.4126 H   0  0  0  0  0  0  0  0  0  0  0  0
   -0.4016    2.5895   -0.0748 H   0  0  0  0  0  0  0  0  0  0  0  0
   -1.0372    0.7901    1.5593 H   0  0  0  0  0  0  0  0  0  0  0  0
   -2.4750    1.3892    0.5675 H   0  0  0  0  0  0  0  0  0  0  0  0
   -2.0130   -0.4060   -1.0652 H   0  0  0  0  0  0  0  0  0  0  0  0
   -2.5637   -0.9596    0.6035 H   0  0  0  0  0  0  0  0  0  0  0  0
   -0.5556   -1.9700    1.0203 H   0  0  0  0  0  0  0  0  0  0  0  0
   -0.6054   -2.1464   -0.7446 H   0  0  0  0  0  0  0  0  0  0  0  0
  1  2  2  0
  2  3  1  0
  3  4  2  0
  4  5  1  0
  4  6  1  0
  6  7  1  0
  7  8  1  0
  8  9  1  0
  5  1  1  0
  9  3  1  0
  1 10  1  0
  2 11  1  0
  6 12  1  0
  6 13  1  0
  7 14  1  0
  7 15  1  0
  8 16  1  0
  8 17  1  0
  9 18  1  0
  9 19  1  0
M  END
