
     RDKit          3D

 20 21  0  0  0  0  0  0  0  0999 V2000
    2.0393   -0.0171    0.2204 C   0  0  0  0  0  0  0  0  0  0  0  0
    0.9233   -0.9947    0.3883 C   0  0  0  0  0  0  0  0  0  0  0  0
   -0.1362   -0.6899   -0.6350 C   0  0  0  0  0  0  0  0  0  0  0  0
   -1.5335   -1.1123   -0.2739 C   0  0  0  0  0  0  0  0  0  0  0  0
   -1.7312    0.2789    0.3313 C   0  0  0  0  0  0  0  0  0  0  0  0
   -0.5384    0.7262   -0.5196 C   0  0  0  0  0  0  0  0  0  0  0  0
    0.4114    1.6400    0.1426 C   0  0  0  0  0  0  0  0  0  0  0  0
    1.7047    1.2843    0.2084 O   0  0  0  0  0  0  0  0  0  0  0  0
    2.5452   -0.2650   -0.7593 H   0  0  0  0  0  0  0  0  0  0  0  0
    2.7981   -0.2382    1.0155 H   0  0  0  0  0  0  0  0  0  0  0  0
    1.3321   -2.0084    0.1304 H   0  0  0  0  0  0  0  0  0  0  0  0
    0.5238   -1.0467    1.4178 H   0  0  0  0  0  0  0  0  0  0  0  0
    0.1974   -0.9728   -1.6554 H   0  0  0  0  0  0  0  0  0  0  0  0
   -2.1382   -1.2296   -1.2043 H   0  0  0  0  0  0  0  0  0  0  0  0
   -1.6321   -1.9123    0.4698 H   0  0  0  0  0  0  0  0  0  0  0  0
   -1.5115    0.2450    1.4048 H   0  0  0  0  0  0  0  0  0  0  0  0
   -2.6956    0.7005    0.0245 H   0  0  0  0  0  0  0  0  0  0  0  0
   -0.9530    1.0957   -1.5028 H   0  0  0  0  0  0  0  0  0  0  0  0
    0.0517    1.8799    1.1859 H   0  0  0  0  0  0  0  0  0  0  0  0
    0.3425    2.6367   -0.3893 H   0  0  0  0  0  0  0  0  0  0  0  0
  1  2  1  0
  2  3  1  0
  3  4  1  0
  4  5  1  0
  5  6  1  0
  6  7  1  0
  7  8  1  0
  8  1  1  0
  6  3  1  0
  1  9  1  0
  1 10  1  0
  2 11  1  0
  2 12  1  0
  3 13  1  0
  4 14  1  0
  4 15  1  0
  5 16  1  0
  5 17  1  0
  6 18  1  0
  7 19  1  0
  7 20  1  0
M  END
