
     RDKit          3D

 21 23  0  0  0  0  0  0  0  0999 V2000
    1.7177    0.2195   -1.1781 C   0  0  0  0  0  0  0  0  0  0  0  0
    2.7012   -0.2836   -0.1648 C   0  0  0  0  0  0  0  0  0  0  0  0
    1.2590   -0.7900   -0.1965 C   0  0  0  0  0  0  0  0  0  0  0  0
    0.4644   -0.4739    1.0023 C   0  0  0  0  0  0  0  0  0  0  0  0
   -0.8495    0.1554    0.8234 C   0  0  0  0  0  0  0  0  0  0  0  0
   -1.8745   -0.5963    0.0277 C   0  0  0  0  0  0  0  0  0  0  0  0
   -2.6535    0.6658    0.0076 C   0  0  0  0  0  0  0  0  0  0  0  0
   -1.2059    0.9964   -0.3136 C   0  0  0  0  0  0  0  0  0  0  0  0
   -1.2140   -0.1318   -1.1058 O   0  0  0  0  0  0  0  0  0  0  0  0
    1.9117   -0.1156   -2.2285 H   0  0  0  0  0  0  0  0  0  0  0  0
    1.3417    1.2392   -1.0786 H   0  0  0  0  0  0  0  0  0  0  0  0
    2.9820    0.4502    0.6045 H   0  0  0  0  0  0  0  0  0  0  0  0
    3.5207   -0.9388   -0.4726 H   0  0  0  0  0  0  0  0  0  0  0  0
    1.2152   -1.8448   -0.5861 H   0  0  0  0  0  0  0  0  0  0  0  0
    0.3017   -1.4368    1.5733 H   0  0  0  0  0  0  0  0  0  0  0  0
    1.0661    0.1442    1.6968 H   0  0  0  0  0  0  0  0  0  0  0  0
   -1.2372    0.5631    1.7871 H   0  0  0  0  0  0  0  0  0  0  0  0
   -2.1977   -1.5355    0.1907 H   0  0  0  0  0  0  0  0  0  0  0  0
   -3.3595    0.7706   -0.8193 H   0  0  0  0  0  0  0  0  0  0  0  0
   -2.9996    1.0202    1.0024 H   0  0  0  0  0  0  0  0  0  0  0  0
   -0.8899    1.9226   -0.5719 H   0  0  0  0  0  0  0  0  0  0  0  0
  1  2  1  0
  2  3  1  0
  3  4  1  0
  4  5  1  0
  5  6  1  0
  6  7  1  0
  7  8  1  0
  8  9  1  0
  3  1  1  0
  8  5  1  0
  9  6  1  0
  1 10  1  0
  1 11  1  0
  2 12  1  0
  2 13  1  0
  3 14  1  0
  4 15  1  0
  4 16  1  0
  5 17  1  0
  6 18  1  0
  7 19  1  0
  7 20  1  0
  8 21  1  0
M  END
