
     RDKit          3D

 23 25  0  0  0  0  0  0  0  0999 V2000
    2.4431    0.4207   -0.9674 C   0  0  0  0  0  0  0  0  0  0  0  0
    2.4286    0.9005    0.4361 C   0  0  0  0  0  0  0  0  0  0  0  0
    1.1237    0.6396   -0.3831 C   0  0  0  0  0  0  0  0  0  0  0  0
    0.2626   -0.4277    0.1782 C   0  0  0  0  0  0  0  0  0  0  0  0
   -0.1420   -1.5349   -0.8024 C   0  0  0  0  0  0  0  0  0  0  0  0
   -1.4823   -1.5636   -0.0511 C   0  0  0  0  0  0  0  0  0  0  0  0
   -1.1835   -0.1559    0.3390 C   0  0  0  0  0  0  0  0  0  0  0  0
   -1.8935    1.0089   -0.1187 C   0  0  0  0  0  0  0  0  0  0  0  0
   -1.8170    0.5927    1.3841 C   0  0  0  0  0  0  0  0  0  0  0  0
    2.7955    1.1935   -1.7085 H   0  0  0  0  0  0  0  0  0  0  0  0
    2.8501   -0.5810   -1.2174 H   0  0  0  0  0  0  0  0  0  0  0  0
    2.6294    1.9468    0.7099 H   0  0  0  0  0  0  0  0  0  0  0  0
    2.6848    0.1413    1.1960 H   0  0  0  0  0  0  0  0  0  0  0  0
    0.5682    1.5752   -0.6693 H   0  0  0  0  0  0  0  0  0  0  0  0
    0.6676   -0.9309    1.1012 H   0  0  0  0  0  0  0  0  0  0  0  0
   -0.2397   -1.2005   -1.8439 H   0  0  0  0  0  0  0  0  0  0  0  0
    0.4030   -2.4875   -0.6535 H   0  0  0  0  0  0  0  0  0  0  0  0
   -1.4097   -2.2555    0.8209 H   0  0  0  0  0  0  0  0  0  0  0  0
   -2.3623   -1.6524   -0.6828 H   0  0  0  0  0  0  0  0  0  0  0  0
   -1.4248    1.9616   -0.3883 H   0  0  0  0  0  0  0  0  0  0  0  0
   -2.9104    0.8721   -0.5602 H   0  0  0  0  0  0  0  0  0  0  0  0
   -1.2346    1.2801    2.0346 H   0  0  0  0  0  0  0  0  0  0  0  0
   -2.7569    0.2569    1.8464 H   0  0  0  0  0  0  0  0  0  0  0  0
  1  2  1  0
  2  3  1  0
  3  4  1  0
  4  5  1  0
  5  6  1  0
  6  7  1  0
  7  8  1  0
  8  9  1  0
  3  1  1  0
  7  4  1  0
  9  7  1  0
  1 10  1  0
  1 11  1  0
  2 12  1  0
  2 13  1  0
  3 14  1  0
  4 15  1  0
  5 16  1  0
  5 17  1  0
  6 18  1  0
  6 19  1  0
  8 20  1  0
  8 21  1  0
  9 22  1  0
  9 23  1  0
M  END
