
     RDKit          3D

 23 23  0  0  0  0  0  0  0  0999 V2000
   -1.7436   -0.0285   -0.5490 C   0  0  0  0  0  0  0  0  0  0  0  0
   -1.5518    1.3412    0.1012 C   0  0  0  0  0  0  0  0  0  0  0  0
   -0.1347    1.8359   -0.0534 C   0  0  0  0  0  0  0  0  0  0  0  0
    0.7473    0.8634   -0.4639 O   0  0  0  0  0  0  0  0  0  0  0  0
    1.6709    0.4995    0.5046 C   0  0  0  0  0  0  0  0  0  0  0  0
    2.1294   -0.9016    0.1967 C   0  0  0  0  0  0  0  0  0  0  0  0
    1.1431   -1.8413    0.3894 O   0  0  0  0  0  0  0  0  0  0  0  0
    0.0906   -1.7454   -0.4965 C   0  0  0  0  0  0  0  0  0  0  0  0
   -1.0696   -1.1142    0.2136 C   0  0  0  0  0  0  0  0  0  0  0  0
   -2.8581   -0.1909   -0.5575 H   0  0  0  0  0  0  0  0  0  0  0  0
   -1.4440    0.0620   -1.5980 H   0  0  0  0  0  0  0  0  0  0  0  0
   -1.8534    1.3041    1.1789 H   0  0  0  0  0  0  0  0  0  0  0  0
   -2.2423    2.0639   -0.3771 H   0  0  0  0  0  0  0  0  0  0  0  0
   -0.0585    2.6761   -0.7934 H   0  0  0  0  0  0  0  0  0  0  0  0
    0.2181    2.2169    0.9259 H   0  0  0  0  0  0  0  0  0  0  0  0
    1.2662    0.5319    1.5253 H   0  0  0  0  0  0  0  0  0  0  0  0
    2.5435    1.1777    0.3847 H   0  0  0  0  0  0  0  0  0  0  0  0
    2.5566   -0.9153   -0.8217 H   0  0  0  0  0  0  0  0  0  0  0  0
    2.9553   -1.1404    0.9057 H   0  0  0  0  0  0  0  0  0  0  0  0
   -0.1428   -2.8013   -0.8234 H   0  0  0  0  0  0  0  0  0  0  0  0
    0.3612   -1.2217   -1.4478 H   0  0  0  0  0  0  0  0  0  0  0  0
   -0.7761   -0.7378    1.2299 H   0  0  0  0  0  0  0  0  0  0  0  0
   -1.8074   -1.9341    0.4260 H   0  0  0  0  0  0  0  0  0  0  0  0
  1  2  1  0
  2  3  1  0
  3  4  1  0
  4  5  1  0
  5  6  1  0
  6  7  1  0
  7  8  1  0
  8  9  1  0
  9  1  1  0
  1 10  1  0
  1 11  1  0
  2 12  1  0
  2 13  1  0
  3 14  1  0
  3 15  1  0
  5 16  1  0
  5 17  1  0
  6 18  1  0
  6 19  1  0
  8 20  1  0
  8 21  1  0
  9 22  1  0
  9 23  1  0
M  END
