
     RDKit          3D

 20 21  0  0  0  0  0  0  0  0999 V2000
    1.9986   -0.3471    0.4084 C   0  0  0  0  0  0  0  0  0  0  0  0
    0.6745   -0.4715    1.1753 C   0  0  0  0  0  0  0  0  0  0  0  0
    0.0334    0.2423    0.0091 C   0  0  0  0  0  0  0  0  0  0  0  0
    1.3603    0.8526   -0.2997 C   0  0  0  0  0  0  0  0  0  0  0  0
   -0.4932   -0.7592   -0.9853 C   0  0  0  0  0  0  0  0  0  0  0  0
   -1.9983   -0.4762   -0.8744 C   0  0  0  0  0  0  0  0  0  0  0  0
   -1.9641    0.9346   -0.7863 O   0  0  0  0  0  0  0  0  0  0  0  0
   -1.0992    1.1441    0.3096 C   0  0  0  0  0  0  0  0  0  0  0  0
    2.0949   -1.1670   -0.3101 H   0  0  0  0  0  0  0  0  0  0  0  0
    2.8368   -0.1129    1.0574 H   0  0  0  0  0  0  0  0  0  0  0  0
    0.6570    0.0482    2.1357 H   0  0  0  0  0  0  0  0  0  0  0  0
    0.3701   -1.5372    1.2996 H   0  0  0  0  0  0  0  0  0  0  0  0
    1.4817    1.8102    0.2482 H   0  0  0  0  0  0  0  0  0  0  0  0
    1.6191    0.9428   -1.3657 H   0  0  0  0  0  0  0  0  0  0  0  0
   -0.2665   -1.8089   -0.7007 H   0  0  0  0  0  0  0  0  0  0  0  0
   -0.1168   -0.6095   -1.9971 H   0  0  0  0  0  0  0  0  0  0  0  0
   -2.3431   -0.9354    0.0618 H   0  0  0  0  0  0  0  0  0  0  0  0
   -2.4905   -0.8263   -1.7761 H   0  0  0  0  0  0  0  0  0  0  0  0
   -0.7442    2.1925    0.2883 H   0  0  0  0  0  0  0  0  0  0  0  0
   -1.6105    0.8838    1.2497 H   0  0  0  0  0  0  0  0  0  0  0  0
  1  2  1  0
  2  3  1  0
  3  4  1  0
  3  5  1  0
  5  6  1  0
  6  7  1  0
  7  8  1  0
  4  1  1  0
  8  3  1  0
  1  9  1  0
  1 10  1  0
  2 11  1  0
  2 12  1  0
  4 13  1  0
  4 14  1  0
  5 15  1  0
  5 16  1  0
  6 17  1  0
  6 18  1  0
  8 19  1  0
  8 20  1  0
M  END
