
     RDKit          3D

 19 21  0  0  0  0  0  0  0  0999 V2000
   -1.6745   -0.3063   -0.3401 C   0  0  0  0  0  0  0  0  0  0  0  0
   -0.5015   -1.2752   -0.5595 C   0  0  0  0  0  0  0  0  0  0  0  0
    0.6572   -0.3943   -0.9397 C   0  0  0  0  0  0  0  0  0  0  0  0
    1.9209   -0.8780   -0.7388 O   0  0  0  0  0  0  0  0  0  0  0  0
    2.2639    0.4165   -0.2664 C   0  0  0  0  0  0  0  0  0  0  0  0
    0.8937    0.5615    0.1714 C   0  0  0  0  0  0  0  0  0  0  0  0
    0.7964   -0.1371    1.5109 O   0  0  0  0  0  0  0  0  0  0  0  0
    0.0199    0.9658    1.0406 C   0  0  0  0  0  0  0  0  0  0  0  0
   -1.4367    0.5100    0.8841 C   0  0  0  0  0  0  0  0  0  0  0  0
   -2.6213   -0.8407   -0.2275 H   0  0  0  0  0  0  0  0  0  0  0  0
   -1.6623    0.3694   -1.2249 H   0  0  0  0  0  0  0  0  0  0  0  0
   -0.7220   -1.9553   -1.3964 H   0  0  0  0  0  0  0  0  0  0  0  0
   -0.2946   -1.7566    0.3938 H   0  0  0  0  0  0  0  0  0  0  0  0
    0.5405    0.1132   -1.8926 H   0  0  0  0  0  0  0  0  0  0  0  0
    3.1001    0.4347    0.4337 H   0  0  0  0  0  0  0  0  0  0  0  0
    2.5116    1.0258   -1.1843 H   0  0  0  0  0  0  0  0  0  0  0  0
    0.0596    1.8990    1.6569 H   0  0  0  0  0  0  0  0  0  0  0  0
   -2.1279    1.3733    0.9077 H   0  0  0  0  0  0  0  0  0  0  0  0
   -1.7230   -0.1256    1.7710 H   0  0  0  0  0  0  0  0  0  0  0  0
  1  2  1  0
  2  3  1  0
  3  4  1  0
  4  5  1  0
  5  6  1  0
  6  7  1  0
  7  8  1  0
  8  9  1  0
  9  1  1  0
  6  3  1  0
  8  6  1  0
  1 10  1  0
  1 11  1  0
  2 12  1  0
  2 13  1  0
  3 14  1  0
  5 15  1  0
  5 16  1  0
  8 17  1  0
  9 18  1  0
  9 19  1  0
M  END
