
     RDKit          3D

 23 24  0  0  0  0  0  0  0  0999 V2000
    1.9082   -0.2582    0.1947 C   0  0  0  0  0  0  0  0  0  0  0  0
    1.4345    0.9394   -0.5565 C   0  0  0  0  0  0  0  0  0  0  0  0
   -0.0546    1.0348   -0.6867 C   0  0  0  0  0  0  0  0  0  0  0  0
   -0.7710    1.2066    0.6047 C   0  0  0  0  0  0  0  0  0  0  0  0
   -1.7010    0.0104    0.7675 C   0  0  0  0  0  0  0  0  0  0  0  0
   -1.0279   -1.0352   -0.1033 C   0  0  0  0  0  0  0  0  0  0  0  0
    0.1463   -1.5700    0.6596 C   0  0  0  0  0  0  0  0  0  0  0  0
    1.2738   -1.4309   -0.1345 O   0  0  0  0  0  0  0  0  0  0  0  0
   -0.6119   -0.1989   -1.2993 C   0  0  0  0  0  0  0  0  0  0  0  0
    1.9199   -0.0571    1.2991 H   0  0  0  0  0  0  0  0  0  0  0  0
    2.9987   -0.3982   -0.0662 H   0  0  0  0  0  0  0  0  0  0  0  0
    1.8429    0.8541   -1.6027 H   0  0  0  0  0  0  0  0  0  0  0  0
    1.8960    1.8329   -0.1270 H   0  0  0  0  0  0  0  0  0  0  0  0
   -0.2642    1.8904   -1.3824 H   0  0  0  0  0  0  0  0  0  0  0  0
   -0.1217    1.3637    1.4698 H   0  0  0  0  0  0  0  0  0  0  0  0
   -1.4487    2.0996    0.5360 H   0  0  0  0  0  0  0  0  0  0  0  0
   -1.7695   -0.3194    1.8237 H   0  0  0  0  0  0  0  0  0  0  0  0
   -2.6894    0.2078    0.3065 H   0  0  0  0  0  0  0  0  0  0  0  0
   -1.7066   -1.8241   -0.4369 H   0  0  0  0  0  0  0  0  0  0  0  0
    0.2857   -1.0588    1.6452 H   0  0  0  0  0  0  0  0  0  0  0  0
   -0.0089   -2.6480    0.8982 H   0  0  0  0  0  0  0  0  0  0  0  0
    0.0425   -0.7225   -1.9940 H   0  0  0  0  0  0  0  0  0  0  0  0
   -1.5731    0.0815   -1.8155 H   0  0  0  0  0  0  0  0  0  0  0  0
  1  2  1  0
  2  3  1  0
  3  4  1  0
  4  5  1  0
  5  6  1  0
  6  7  1  0
  7  8  1  0
  6  9  1  0
  8  1  1  0
  9  3  1  0
  1 10  1  0
  1 11  1  0
  2 12  1  0
  2 13  1  0
  3 14  1  0
  4 15  1  0
  4 16  1  0
  5 17  1  0
  5 18  1  0
  6 19  1  0
  7 20  1  0
  7 21  1  0
  9 22  1  0
  9 23  1  0
M  END
