
     RDKit          3D

 23 24  0  0  0  0  0  0  0  0999 V2000
   -2.0051    0.7777   -0.0602 C   0  0  0  0  0  0  0  0  0  0  0  0
   -2.1544   -0.7064   -0.2056 C   0  0  0  0  0  0  0  0  0  0  0  0
   -0.9034   -1.2663   -0.7738 C   0  0  0  0  0  0  0  0  0  0  0  0
    0.3282   -0.5977   -0.2630 C   0  0  0  0  0  0  0  0  0  0  0  0
    0.3001    0.4415    0.5658 C   0  0  0  0  0  0  0  0  0  0  0  0
   -0.9904    1.0096    1.0418 C   0  0  0  0  0  0  0  0  0  0  0  0
    1.7054    0.8702    0.8822 C   0  0  0  0  0  0  0  0  0  0  0  0
    2.4014    0.4120   -0.4074 C   0  0  0  0  0  0  0  0  0  0  0  0
    1.7479   -0.9369   -0.5588 C   0  0  0  0  0  0  0  0  0  0  0  0
   -2.9441    1.3155    0.0928 H   0  0  0  0  0  0  0  0  0  0  0  0
   -1.5144    1.1475   -1.0053 H   0  0  0  0  0  0  0  0  0  0  0  0
   -3.0037   -0.9987   -0.8543 H   0  0  0  0  0  0  0  0  0  0  0  0
   -2.3367   -1.1858    0.7940 H   0  0  0  0  0  0  0  0  0  0  0  0
   -0.8710   -2.3592   -0.5957 H   0  0  0  0  0  0  0  0  0  0  0  0
   -0.9194   -1.1093   -1.8765 H   0  0  0  0  0  0  0  0  0  0  0  0
   -0.9315    2.0549    1.3377 H   0  0  0  0  0  0  0  0  0  0  0  0
   -1.3315    0.4122    1.9240 H   0  0  0  0  0  0  0  0  0  0  0  0
    2.1197    0.3145    1.7442 H   0  0  0  0  0  0  0  0  0  0  0  0
    1.8014    1.9504    1.0035 H   0  0  0  0  0  0  0  0  0  0  0  0
    2.0363    1.0783   -1.2022 H   0  0  0  0  0  0  0  0  0  0  0  0
    3.4828    0.3748   -0.2959 H   0  0  0  0  0  0  0  0  0  0  0  0
    1.8898   -1.3802   -1.5518 H   0  0  0  0  0  0  0  0  0  0  0  0
    2.0926   -1.6185    0.2643 H   0  0  0  0  0  0  0  0  0  0  0  0
  1  2  1  0
  2  3  1  0
  3  4  1  0
  4  5  2  0
  5  6  1  0
  5  7  1  0
  7  8  1  0
  8  9  1  0
  6  1  1  0
  9  4  1  0
  1 10  1  0
  1 11  1  0
  2 12  1  0
  2 13  1  0
  3 14  1  0
  3 15  1  0
  6 16  1  0
  6 17  1  0
  7 18  1  0
  7 19  1  0
  8 20  1  0
  8 21  1  0
  9 22  1  0
  9 23  1  0
M  END
