
     RDKit          3D

 23 24  0  0  0  0  0  0  0  0999 V2000
   -2.5784    0.0640    0.8159 C   0  0  0  0  0  0  0  0  0  0  0  0
   -2.5905   -0.4117   -0.6427 C   0  0  0  0  0  0  0  0  0  0  0  0
   -1.1796   -0.8813   -0.8206 C   0  0  0  0  0  0  0  0  0  0  0  0
   -0.3361   -0.1911    0.2279 C   0  0  0  0  0  0  0  0  0  0  0  0
    0.8022    0.3585   -0.3199 O   0  0  0  0  0  0  0  0  0  0  0  0
    1.9754   -0.0616    0.2582 C   0  0  0  0  0  0  0  0  0  0  0  0
    3.1306   -0.2365   -0.6553 C   0  0  0  0  0  0  0  0  0  0  0  0
    3.0991    0.9401    0.2457 C   0  0  0  0  0  0  0  0  0  0  0  0
   -1.2726    0.8532    0.7949 C   0  0  0  0  0  0  0  0  0  0  0  0
   -3.4424    0.6766    1.0572 H   0  0  0  0  0  0  0  0  0  0  0  0
   -2.4258   -0.8011    1.5058 H   0  0  0  0  0  0  0  0  0  0  0  0
   -2.7544    0.5216   -1.2414 H   0  0  0  0  0  0  0  0  0  0  0  0
   -3.3547   -1.1611   -0.8271 H   0  0  0  0  0  0  0  0  0  0  0  0
   -0.8676   -0.6322   -1.8499 H   0  0  0  0  0  0  0  0  0  0  0  0
   -1.1862   -1.9933   -0.6555 H   0  0  0  0  0  0  0  0  0  0  0  0
   -0.0815   -0.8992    1.0679 H   0  0  0  0  0  0  0  0  0  0  0  0
    1.9067   -0.7897    1.0963 H   0  0  0  0  0  0  0  0  0  0  0  0
    3.9339   -0.9867   -0.4051 H   0  0  0  0  0  0  0  0  0  0  0  0
    2.9794   -0.1460   -1.7425 H   0  0  0  0  0  0  0  0  0  0  0  0
    2.9012    1.9308   -0.1973 H   0  0  0  0  0  0  0  0  0  0  0  0
    3.7142    0.9590    1.1503 H   0  0  0  0  0  0  0  0  0  0  0  0
   -1.3930    1.6828    0.0529 H   0  0  0  0  0  0  0  0  0  0  0  0
   -0.9799    1.2048    1.7916 H   0  0  0  0  0  0  0  0  0  0  0  0
  1  2  1  0
  2  3  1  0
  3  4  1  0
  4  5  1  0
  5  6  1  0
  6  7  1  0
  7  8  1  0
  4  9  1  0
  9  1  1  0
  8  6  1  0
  1 10  1  0
  1 11  1  0
  2 12  1  0
  2 13  1  0
  3 14  1  0
  3 15  1  0
  4 16  1  0
  6 17  1  0
  7 18  1  0
  7 19  1  0
  8 20  1  0
  8 21  1  0
  9 22  1  0
  9 23  1  0
M  END
