
     RDKit          3D

 12 12  0  0  0  0  0  0  0  0999 V2000
    0.0651   -1.0604    0.1705 C   0  0  0  0  0  0  0  0  0  0  0  0
   -0.9991   -0.0191    0.3728 C   0  0  0  0  0  0  0  0  0  0  0  0
   -0.0987    1.0400   -0.2247 C   0  0  0  0  0  0  0  0  0  0  0  0
    1.0096    0.0401   -0.2722 C   0  0  0  0  0  0  0  0  0  0  0  0
   -0.1446   -1.7857   -0.6635 H   0  0  0  0  0  0  0  0  0  0  0  0
    0.4538   -1.5442    1.0880 H   0  0  0  0  0  0  0  0  0  0  0  0
   -1.3118    0.1745    1.4059 H   0  0  0  0  0  0  0  0  0  0  0  0
   -1.8629   -0.2112   -0.3018 H   0  0  0  0  0  0  0  0  0  0  0  0
    0.0149    1.8793    0.4857 H   0  0  0  0  0  0  0  0  0  0  0  0
   -0.3952    1.3738   -1.2508 H   0  0  0  0  0  0  0  0  0  0  0  0
    1.8110    0.2823    0.4476 H   0  0  0  0  0  0  0  0  0  0  0  0
    1.4580   -0.1694   -1.2576 H   0  0  0  0  0  0  0  0  0  0  0  0
  1  2  1  0
  2  3  1  0
  3  4  1  0
  4  1  1  0
  1  5  1  0
  1  6  1  0
  2  7  1  0
  2  8  1  0
  3  9  1  0
  3 10  1  0
  4 11  1  0
  4 12  1  0
M  END
