
     RDKit          3D

 21 23  0  0  0  0  0  0  0  0999 V2000
    0.3058    1.5170   -0.1415 C   0  0  0  0  0  0  0  0  0  0  0  0
   -1.0800    1.0231    0.2781 C   0  0  0  0  0  0  0  0  0  0  0  0
   -1.3804   -0.1820   -0.5043 C   0  0  0  0  0  0  0  0  0  0  0  0
   -1.6143   -1.5323   -0.1292 C   0  0  0  0  0  0  0  0  0  0  0  0
   -0.2594   -1.1719   -0.0154 C   0  0  0  0  0  0  0  0  0  0  0  0
    0.8253   -0.8394   -0.9087 C   0  0  0  0  0  0  0  0  0  0  0  0
    1.3198    0.4215   -0.1772 C   0  0  0  0  0  0  0  0  0  0  0  0
    1.3348   -0.1635    1.2397 C   0  0  0  0  0  0  0  0  0  0  0  0
    0.2591   -0.9853    1.2561 O   0  0  0  0  0  0  0  0  0  0  0  0
    0.6161    2.2140    0.6697 H   0  0  0  0  0  0  0  0  0  0  0  0
    0.2625    2.1157   -1.0679 H   0  0  0  0  0  0  0  0  0  0  0  0
   -1.7818    1.8412   -0.0594 H   0  0  0  0  0  0  0  0  0  0  0  0
   -1.1816    0.9529    1.3615 H   0  0  0  0  0  0  0  0  0  0  0  0
   -1.4047    0.0415   -1.6101 H   0  0  0  0  0  0  0  0  0  0  0  0
   -2.0124   -2.2394   -0.9148 H   0  0  0  0  0  0  0  0  0  0  0  0
   -2.2023   -1.7131    0.8200 H   0  0  0  0  0  0  0  0  0  0  0  0
    0.5451   -0.5367   -1.9530 H   0  0  0  0  0  0  0  0  0  0  0  0
    1.6692   -1.5183   -0.9920 H   0  0  0  0  0  0  0  0  0  0  0  0
    2.2730    0.7733   -0.5181 H   0  0  0  0  0  0  0  0  0  0  0  0
    1.1959    0.6487    1.9850 H   0  0  0  0  0  0  0  0  0  0  0  0
    2.3103   -0.6671    1.3815 H   0  0  0  0  0  0  0  0  0  0  0  0
  1  2  1  0
  2  3  1  0
  3  4  1  0
  4  5  1  0
  5  6  1  0
  6  7  1  0
  7  8  1  0
  8  9  1  0
  7  1  1  0
  5  3  1  0
  9  5  1  0
  1 10  1  0
  1 11  1  0
  2 12  1  0
  2 13  1  0
  3 14  1  0
  4 15  1  0
  4 16  1  0
  6 17  1  0
  6 18  1  0
  7 19  1  0
  8 20  1  0
  8 21  1  0
M  END
