
     RDKit          3D

 23 24  0  0  0  0  0  0  0  0999 V2000
    2.9380    0.0868    0.1657 C   0  0  0  0  0  0  0  0  0  0  0  0
    1.9708   -0.9251   -0.4640 C   0  0  0  0  0  0  0  0  0  0  0  0
    0.8542   -0.1186    0.1727 C   0  0  0  0  0  0  0  0  0  0  0  0
   -0.4029   -0.0153   -0.6434 C   0  0  0  0  0  0  0  0  0  0  0  0
   -1.3922    0.8149    0.1409 C   0  0  0  0  0  0  0  0  0  0  0  0
   -2.7164    0.2147   -0.2073 C   0  0  0  0  0  0  0  0  0  0  0  0
   -2.3489   -1.0943   -0.8669 C   0  0  0  0  0  0  0  0  0  0  0  0
   -1.0139   -1.2866   -0.6028 O   0  0  0  0  0  0  0  0  0  0  0  0
    1.7719    1.0829    0.1006 C   0  0  0  0  0  0  0  0  0  0  0  0
    3.1219   -0.1395    1.2399 H   0  0  0  0  0  0  0  0  0  0  0  0
    3.7997    0.3431   -0.4454 H   0  0  0  0  0  0  0  0  0  0  0  0
    1.9979   -0.7648   -1.5661 H   0  0  0  0  0  0  0  0  0  0  0  0
    2.0834   -1.9496   -0.1169 H   0  0  0  0  0  0  0  0  0  0  0  0
    0.6145   -0.4265    1.2081 H   0  0  0  0  0  0  0  0  0  0  0  0
   -0.2557    0.3338   -1.6647 H   0  0  0  0  0  0  0  0  0  0  0  0
   -1.1493    0.7559    1.2114 H   0  0  0  0  0  0  0  0  0  0  0  0
   -1.3504    1.8996   -0.1463 H   0  0  0  0  0  0  0  0  0  0  0  0
   -3.3524    0.0276    0.6872 H   0  0  0  0  0  0  0  0  0  0  0  0
   -3.2381    0.8902   -0.9163 H   0  0  0  0  0  0  0  0  0  0  0  0
   -2.5191   -1.1073   -1.9465 H   0  0  0  0  0  0  0  0  0  0  0  0
   -2.9126   -1.9340   -0.3650 H   0  0  0  0  0  0  0  0  0  0  0  0
    1.7702    1.5582   -0.8859 H   0  0  0  0  0  0  0  0  0  0  0  0
    1.7293    1.7536    0.9828 H   0  0  0  0  0  0  0  0  0  0  0  0
  1  2  1  0
  2  3  1  0
  3  4  1  0
  4  5  1  0
  5  6  1  0
  6  7  1  0
  7  8  1  0
  3  9  1  0
  9  1  1  0
  8  4  1  0
  1 10  1  0
  1 11  1  0
  2 12  1  0
  2 13  1  0
  3 14  1  0
  4 15  1  0
  5 16  1  0
  5 17  1  0
  6 18  1  0
  6 19  1  0
  7 20  1  0
  7 21  1  0
  9 22  1  0
  9 23  1  0
M  END
