
     RDKit          3D

 20 22  0  0  0  0  0  0  0  0999 V2000
    1.6318    0.6710   -0.0682 C   0  0  0  0  0  0  0  0  0  0  0  0
    1.3967   -0.8099    0.2709 C   0  0  0  0  0  0  0  0  0  0  0  0
   -0.0068   -0.9318    0.7443 C   0  0  0  0  0  0  0  0  0  0  0  0
   -0.9796   -0.8421   -0.4255 C   0  0  0  0  0  0  0  0  0  0  0  0
   -0.3863    0.2021   -1.3260 C   0  0  0  0  0  0  0  0  0  0  0  0
    0.1974    1.1264   -0.2417 C   0  0  0  0  0  0  0  0  0  0  0  0
   -0.4487    0.5239    0.9668 C   0  0  0  0  0  0  0  0  0  0  0  0
   -1.8068    0.0511    0.5106 C   0  0  0  0  0  0  0  0  0  0  0  0
    2.1434    1.1561    0.7730 H   0  0  0  0  0  0  0  0  0  0  0  0
    2.1256    0.7730   -1.0376 H   0  0  0  0  0  0  0  0  0  0  0  0
    1.4672   -1.3945   -0.6929 H   0  0  0  0  0  0  0  0  0  0  0  0
    2.1581   -1.2051    0.9410 H   0  0  0  0  0  0  0  0  0  0  0  0
   -0.2515   -1.6211    1.5294 H   0  0  0  0  0  0  0  0  0  0  0  0
   -1.4195   -1.7169   -0.8042 H   0  0  0  0  0  0  0  0  0  0  0  0
    0.3839   -0.1659   -2.0006 H   0  0  0  0  0  0  0  0  0  0  0  0
   -1.2030    0.7615   -1.7943 H   0  0  0  0  0  0  0  0  0  0  0  0
    0.0482    2.1638   -0.4200 H   0  0  0  0  0  0  0  0  0  0  0  0
   -0.3205    0.9374    1.9285 H   0  0  0  0  0  0  0  0  0  0  0  0
   -2.3334    0.8040   -0.1035 H   0  0  0  0  0  0  0  0  0  0  0  0
   -2.3961   -0.4830    1.2500 H   0  0  0  0  0  0  0  0  0  0  0  0
  1  2  1  0
  2  3  1  0
  3  4  1  0
  4  5  1  0
  5  6  1  0
  6  7  1  0
  7  8  1  0
  6  1  1  0
  7  3  1  0
  8  4  1  0
  1  9  1  0
  1 10  1  0
  2 11  1  0
  2 12  1  0
  3 13  1  0
  4 14  1  0
  5 15  1  0
  5 16  1  0
  6 17  1  0
  7 18  1  0
  8 19  1  0
  8 20  1  0
M  END
