
     RDKit          3D

 21 23  0  0  0  0  0  0  0  0999 V2000
   -2.1623   -0.0914   -0.1359 C   0  0  0  0  0  0  0  0  0  0  0  0
   -1.2827   -1.3110   -0.1794 C   0  0  0  0  0  0  0  0  0  0  0  0
   -0.1095   -1.0718    0.6891 C   0  0  0  0  0  0  0  0  0  0  0  0
   -0.1947    0.3518    1.2122 C   0  0  0  0  0  0  0  0  0  0  0  0
   -1.3098    1.0158    0.4048 C   0  0  0  0  0  0  0  0  0  0  0  0
    0.9482   -0.1146    0.4471 C   0  0  0  0  0  0  0  0  0  0  0  0
    1.3768    0.4513   -0.8314 C   0  0  0  0  0  0  0  0  0  0  0  0
    2.7191    0.3717   -0.1540 C   0  0  0  0  0  0  0  0  0  0  0  0
    2.1960   -0.3510    0.9244 O   0  0  0  0  0  0  0  0  0  0  0  0
   -3.0607   -0.2454    0.4909 H   0  0  0  0  0  0  0  0  0  0  0  0
   -2.4654    0.1445   -1.1867 H   0  0  0  0  0  0  0  0  0  0  0  0
   -1.8851   -2.1633    0.2059 H   0  0  0  0  0  0  0  0  0  0  0  0
   -0.9618   -1.5882   -1.2020 H   0  0  0  0  0  0  0  0  0  0  0  0
    0.0890   -1.8494    1.4819 H   0  0  0  0  0  0  0  0  0  0  0  0
   -0.1243    0.5467    2.2873 H   0  0  0  0  0  0  0  0  0  0  0  0
   -0.8758    1.6062   -0.4426 H   0  0  0  0  0  0  0  0  0  0  0  0
   -1.8970    1.7225    1.0073 H   0  0  0  0  0  0  0  0  0  0  0  0
    1.1406    1.5382   -1.0242 H   0  0  0  0  0  0  0  0  0  0  0  0
    1.2589   -0.1436   -1.7540 H   0  0  0  0  0  0  0  0  0  0  0  0
    3.1213    1.3279    0.2389 H   0  0  0  0  0  0  0  0  0  0  0  0
    3.4792   -0.1469   -0.7525 H   0  0  0  0  0  0  0  0  0  0  0  0
  1  2  1  0
  2  3  1  0
  3  4  1  0
  4  5  1  0
  4  6  1  0
  6  7  1  0
  7  8  1  0
  8  9  1  0
  5  1  1  0
  9  6  1  0
  6  3  1  0
  1 10  1  0
  1 11  1  0
  2 12  1  0
  2 13  1  0
  3 14  1  0
  4 15  1  0
  5 16  1  0
  5 17  1  0
  7 18  1  0
  7 19  1  0
  8 20  1  0
  8 21  1  0
M  END
