
     RDKit          3D

 21 23  0  0  0  0  0  0  0  0999 V2000
   -1.3308   -1.2161    0.1797 C   0  0  0  0  0  0  0  0  0  0  0  0
    0.0946   -1.5051   -0.2219 C   0  0  0  0  0  0  0  0  0  0  0  0
    0.9618   -0.4687    0.5020 C   0  0  0  0  0  0  0  0  0  0  0  0
    2.2983   -0.2237   -0.1719 C   0  0  0  0  0  0  0  0  0  0  0  0
    1.8337    0.9209   -0.8036 O   0  0  0  0  0  0  0  0  0  0  0  0
    0.6697    0.8483   -0.1020 C   0  0  0  0  0  0  0  0  0  0  0  0
   -0.0551    1.9354    0.4925 C   0  0  0  0  0  0  0  0  0  0  0  0
   -0.6620    1.0699   -0.6210 C   0  0  0  0  0  0  0  0  0  0  0  0
   -1.7479    0.1673   -0.1631 C   0  0  0  0  0  0  0  0  0  0  0  0
   -2.0311   -1.9696   -0.2580 H   0  0  0  0  0  0  0  0  0  0  0  0
   -1.4229   -1.3582    1.2901 H   0  0  0  0  0  0  0  0  0  0  0  0
    0.2078   -1.2869   -1.3029 H   0  0  0  0  0  0  0  0  0  0  0  0
    0.3980   -2.5110    0.0510 H   0  0  0  0  0  0  0  0  0  0  0  0
    0.9927   -0.5678    1.5858 H   0  0  0  0  0  0  0  0  0  0  0  0
    3.0676   -0.0420    0.6272 H   0  0  0  0  0  0  0  0  0  0  0  0
    2.5871   -1.0017   -0.8923 H   0  0  0  0  0  0  0  0  0  0  0  0
    0.2495    2.9795    0.2143 H   0  0  0  0  0  0  0  0  0  0  0  0
   -0.5386    1.9098    1.4898 H   0  0  0  0  0  0  0  0  0  0  0  0
   -0.7568    1.5381   -1.6348 H   0  0  0  0  0  0  0  0  0  0  0  0
   -2.2767    0.6661    0.7016 H   0  0  0  0  0  0  0  0  0  0  0  0
   -2.5387    0.1156   -0.9626 H   0  0  0  0  0  0  0  0  0  0  0  0
  1  2  1  0
  2  3  1  0
  3  4  1  0
  4  5  1  0
  5  6  1  0
  6  7  1  0
  7  8  1  0
  8  9  1  0
  9  1  1  0
  6  3  1  0
  8  6  1  0
  1 10  1  0
  1 11  1  0
  2 12  1  0
  2 13  1  0
  3 14  1  0
  4 15  1  0
  4 16  1  0
  7 17  1  0
  7 18  1  0
  8 19  1  0
  9 20  1  0
  9 21  1  0
M  END
