
     RDKit          3D

 21 23  0  0  0  0  0  0  0  0999 V2000
   -1.9772   -0.1585   -0.3653 C   0  0  0  0  0  0  0  0  0  0  0  0
   -1.1499    1.0892   -0.6925 C   0  0  0  0  0  0  0  0  0  0  0  0
   -0.4066    0.8828    0.5638 C   0  0  0  0  0  0  0  0  0  0  0  0
   -0.8941   -0.5300    0.6235 C   0  0  0  0  0  0  0  0  0  0  0  0
    0.1582   -1.4731    0.0997 C   0  0  0  0  0  0  0  0  0  0  0  0
    1.5376   -0.9158    0.1775 C   0  0  0  0  0  0  0  0  0  0  0  0
    1.7528    0.3388   -0.6047 C   0  0  0  0  0  0  0  0  0  0  0  0
    1.0668    0.9137    0.5634 C   0  0  0  0  0  0  0  0  0  0  0  0
    1.5991   -0.1356    1.3503 O   0  0  0  0  0  0  0  0  0  0  0  0
   -2.9159    0.1703    0.1359 H   0  0  0  0  0  0  0  0  0  0  0  0
   -2.1327   -0.8398   -1.2007 H   0  0  0  0  0  0  0  0  0  0  0  0
   -0.6581    0.9491   -1.6483 H   0  0  0  0  0  0  0  0  0  0  0  0
   -1.7703    2.0276   -0.7241 H   0  0  0  0  0  0  0  0  0  0  0  0
   -0.8226    1.4814    1.4045 H   0  0  0  0  0  0  0  0  0  0  0  0
   -1.3453   -0.7970    1.5931 H   0  0  0  0  0  0  0  0  0  0  0  0
   -0.1032   -1.8779   -0.9096 H   0  0  0  0  0  0  0  0  0  0  0  0
    0.1326   -2.3619    0.7796 H   0  0  0  0  0  0  0  0  0  0  0  0
    2.3288   -1.6482    0.0585 H   0  0  0  0  0  0  0  0  0  0  0  0
    2.8323    0.6104   -0.5944 H   0  0  0  0  0  0  0  0  0  0  0  0
    1.3058    0.4017   -1.5918 H   0  0  0  0  0  0  0  0  0  0  0  0
    1.4619    1.8726    0.9818 H   0  0  0  0  0  0  0  0  0  0  0  0
  1  2  1  0
  2  3  1  0
  3  4  1  0
  4  5  1  0
  5  6  1  0
  6  7  1  0
  7  8  1  0
  8  9  1  0
  4  1  1  0
  9  6  1  0
  8  3  1  0
  1 10  1  0
  1 11  1  0
  2 12  1  0
  2 13  1  0
  3 14  1  0
  4 15  1  0
  5 16  1  0
  5 17  1  0
  6 18  1  0
  7 19  1  0
  7 20  1  0
  8 21  1  0
M  END
