
     RDKit          3D

 19 21  0  0  0  0  0  0  0  0999 V2000
   -1.0343    1.4934    0.2820 C   0  0  0  0  0  0  0  0  0  0  0  0
   -1.7460    0.1959    0.2270 C   0  0  0  0  0  0  0  0  0  0  0  0
   -0.9456   -0.9963   -0.1130 C   0  0  0  0  0  0  0  0  0  0  0  0
    0.3050   -1.4059    0.5123 C   0  0  0  0  0  0  0  0  0  0  0  0
    1.0774   -0.6186    1.3286 O   0  0  0  0  0  0  0  0  0  0  0  0
    2.0155   -0.0209    0.4509 C   0  0  0  0  0  0  0  0  0  0  0  0
    0.9622    0.5840   -0.5071 C   0  0  0  0  0  0  0  0  0  0  0  0
    0.3094    1.4717    0.2706 O   0  0  0  0  0  0  0  0  0  0  0  0
    0.2497   -0.6656   -0.8606 C   0  0  0  0  0  0  0  0  0  0  0  0
   -1.3659    2.0150    1.2313 H   0  0  0  0  0  0  0  0  0  0  0  0
   -1.3779    2.2073   -0.5266 H   0  0  0  0  0  0  0  0  0  0  0  0
   -2.3107   -0.0306    1.1802 H   0  0  0  0  0  0  0  0  0  0  0  0
   -2.5658    0.2947   -0.5415 H   0  0  0  0  0  0  0  0  0  0  0  0
   -1.5637   -1.8405   -0.5409 H   0  0  0  0  0  0  0  0  0  0  0  0
    0.5937   -2.4625    0.4929 H   0  0  0  0  0  0  0  0  0  0  0  0
    2.5907    0.7671    0.9414 H   0  0  0  0  0  0  0  0  0  0  0  0
    2.5904   -0.7630   -0.1002 H   0  0  0  0  0  0  0  0  0  0  0  0
    1.5342    1.0271   -1.3498 H   0  0  0  0  0  0  0  0  0  0  0  0
    0.6816   -1.2524   -1.6759 H   0  0  0  0  0  0  0  0  0  0  0  0
  1  2  1  0
  2  3  1  0
  3  4  1  0
  4  5  1  0
  5  6  1  0
  6  7  1  0
  7  8  1  0
  7  9  1  0
  8  1  1  0
  9  3  1  0
  9  4  1  0
  1 10  1  0
  1 11  1  0
  2 12  1  0
  2 13  1  0
  3 14  1  0
  4 15  1  0
  6 16  1  0
  6 17  1  0
  7 18  1  0
  9 19  1  0
M  END
