
     RDKit          3D

 18 20  0  0  0  0  0  0  0  0999 V2000
    2.0313    0.1748   -0.9639 C   0  0  0  0  0  0  0  0  0  0  0  0
    1.4199   -1.0104   -0.1992 C   0  0  0  0  0  0  0  0  0  0  0  0
    0.2916   -0.1368   -0.2579 C   0  0  0  0  0  0  0  0  0  0  0  0
   -0.1481    0.6490    0.9640 C   0  0  0  0  0  0  0  0  0  0  0  0
   -1.3181    0.9208    0.0041 C   0  0  0  0  0  0  0  0  0  0  0  0
   -2.3414    0.0410   -0.4040 C   0  0  0  0  0  0  0  0  0  0  0  0
   -1.1063   -0.6458   -0.1750 C   0  0  0  0  0  0  0  0  0  0  0  0
    0.7140    0.5361   -1.3398 O   0  0  0  0  0  0  0  0  0  0  0  0
    2.6888   -0.0990   -1.7843 H   0  0  0  0  0  0  0  0  0  0  0  0
    2.4179    0.8897   -0.2134 H   0  0  0  0  0  0  0  0  0  0  0  0
    1.3802   -1.8748   -0.8920 H   0  0  0  0  0  0  0  0  0  0  0  0
    1.9351   -1.2559    0.7388 H   0  0  0  0  0  0  0  0  0  0  0  0
   -0.4251   -0.0255    1.7799 H   0  0  0  0  0  0  0  0  0  0  0  0
    0.4243    1.5425    1.2031 H   0  0  0  0  0  0  0  0  0  0  0  0
   -0.8570    1.5306   -0.8398 H   0  0  0  0  0  0  0  0  0  0  0  0
   -2.7113    0.0348   -1.4746 H   0  0  0  0  0  0  0  0  0  0  0  0
   -3.2494   -0.0474    0.2693 H   0  0  0  0  0  0  0  0  0  0  0  0
   -1.1463   -1.2237    0.8082 H   0  0  0  0  0  0  0  0  0  0  0  0
  1  2  1  0
  2  3  1  0
  3  4  1  0
  4  5  1  0
  5  6  1  0
  6  7  1  0
  3  8  1  0
  8  1  1  0
  7  3  1  0
  7  5  1  0
  1  9  1  0
  1 10  1  0
  2 11  1  0
  2 12  1  0
  4 13  1  0
  4 14  1  0
  5 15  1  0
  6 16  1  0
  6 17  1  0
  7 18  1  0
M  END
