
     RDKit          3D

 19 21  0  0  0  0  0  0  0  0999 V2000
   -1.1274   -0.9377    0.4018 C   0  0  0  0  0  0  0  0  0  0  0  0
   -1.5231    0.4823    0.0641 C   0  0  0  0  0  0  0  0  0  0  0  0
   -0.5031    1.4954    0.4399 C   0  0  0  0  0  0  0  0  0  0  0  0
   -0.0129    2.3231   -0.5752 O   0  0  0  0  0  0  0  0  0  0  0  0
    0.8221    1.3804   -0.0219 C   0  0  0  0  0  0  0  0  0  0  0  0
    1.2265    0.1573   -0.7978 C   0  0  0  0  0  0  0  0  0  0  0  0
    1.3750   -0.9742    0.1928 C   0  0  0  0  0  0  0  0  0  0  0  0
    0.0602   -1.3619   -0.4117 C   0  0  0  0  0  0  0  0  0  0  0  0
    0.2006   -0.4538   -1.4659 O   0  0  0  0  0  0  0  0  0  0  0  0
   -1.0171   -1.0791    1.4784 H   0  0  0  0  0  0  0  0  0  0  0  0
   -1.9876   -1.5847    0.0734 H   0  0  0  0  0  0  0  0  0  0  0  0
   -2.4934    0.7094    0.5588 H   0  0  0  0  0  0  0  0  0  0  0  0
   -1.6684    0.5047   -1.0475 H   0  0  0  0  0  0  0  0  0  0  0  0
   -0.7090    2.0295    1.4108 H   0  0  0  0  0  0  0  0  0  0  0  0
    1.6637    1.7384    0.6442 H   0  0  0  0  0  0  0  0  0  0  0  0
    2.1009    0.2920   -1.4806 H   0  0  0  0  0  0  0  0  0  0  0  0
    2.2274   -1.6289   -0.0020 H   0  0  0  0  0  0  0  0  0  0  0  0
    1.2834   -0.6730    1.2672 H   0  0  0  0  0  0  0  0  0  0  0  0
    0.0822   -2.4192   -0.7288 H   0  0  0  0  0  0  0  0  0  0  0  0
  1  2  1  0
  2  3  1  0
  3  4  1  0
  4  5  1  0
  5  6  1  0
  6  7  1  0
  7  8  1  0
  8  9  1  0
  8  1  1  0
  5  3  1  0
  9  6  1  0
  1 10  1  0
  1 11  1  0
  2 12  1  0
  2 13  1  0
  3 14  1  0
  5 15  1  0
  6 16  1  0
  7 17  1  0
  7 18  1  0
  8 19  1  0
M  END
