
     RDKit          3D

 18 19  0  0  0  0  0  0  0  0999 V2000
   -2.4103    0.5804    0.1576 C   0  0  0  0  0  0  0  0  0  0  0  0
   -1.9121   -0.6274   -0.5985 C   0  0  0  0  0  0  0  0  0  0  0  0
   -0.7481   -0.5653    0.3711 C   0  0  0  0  0  0  0  0  0  0  0  0
    0.4822   -0.0825   -0.3220 C   0  0  0  0  0  0  0  0  0  0  0  0
    1.6694   -0.0037    0.6031 C   0  0  0  0  0  0  0  0  0  0  0  0
    2.9644    0.4680    0.0237 C   0  0  0  0  0  0  0  0  0  0  0  0
    2.7849   -0.8902    0.1822 O   0  0  0  0  0  0  0  0  0  0  0  0
   -1.4172    0.4187    1.1305 O   0  0  0  0  0  0  0  0  0  0  0  0
   -2.2194    1.5553   -0.3637 H   0  0  0  0  0  0  0  0  0  0  0  0
   -3.4277    0.5041    0.5675 H   0  0  0  0  0  0  0  0  0  0  0  0
   -1.6819   -0.3723   -1.6307 H   0  0  0  0  0  0  0  0  0  0  0  0
   -2.4791   -1.5520   -0.4465 H   0  0  0  0  0  0  0  0  0  0  0  0
   -0.6269   -1.4663    1.0047 H   0  0  0  0  0  0  0  0  0  0  0  0
    0.2748    0.9327   -0.7189 H   0  0  0  0  0  0  0  0  0  0  0  0
    0.6626   -0.7268   -1.2037 H   0  0  0  0  0  0  0  0  0  0  0  0
    1.5408   -0.1222    1.6829 H   0  0  0  0  0  0  0  0  0  0  0  0
    3.6043    1.0290    0.7644 H   0  0  0  0  0  0  0  0  0  0  0  0
    2.9393    0.9205   -0.9845 H   0  0  0  0  0  0  0  0  0  0  0  0
  1  2  1  0
  2  3  1  0
  3  4  1  0
  4  5  1  0
  5  6  1  0
  6  7  1  0
  3  8  1  0
  8  1  1  0
  7  5  1  0
  1  9  1  0
  1 10  1  0
  2 11  1  0
  2 12  1  0
  3 13  1  0
  4 14  1  0
  4 15  1  0
  5 16  1  0
  6 17  1  0
  6 18  1  0
M  END
