
     RDKit          3D

 20 22  0  0  0  0  0  0  0  0999 V2000
   -2.4059    0.1449    0.0622 C   0  0  0  0  0  0  0  0  0  0  0  0
   -1.5299    0.8813   -0.9777 C   0  0  0  0  0  0  0  0  0  0  0  0
   -1.2110   -0.5052   -0.6633 C   0  0  0  0  0  0  0  0  0  0  0  0
   -0.1790   -1.0315    0.2489 C   0  0  0  0  0  0  0  0  0  0  0  0
    0.6031   -0.2168    1.1659 C   0  0  0  0  0  0  0  0  0  0  0  0
    1.4318    0.9408    0.7480 C   0  0  0  0  0  0  0  0  0  0  0  0
    2.0747    0.1106   -0.3233 C   0  0  0  0  0  0  0  0  0  0  0  0
    1.2589   -1.0840    0.0376 C   0  0  0  0  0  0  0  0  0  0  0  0
   -3.4148   -0.1431   -0.2281 H   0  0  0  0  0  0  0  0  0  0  0  0
   -2.2786    0.4100    1.1184 H   0  0  0  0  0  0  0  0  0  0  0  0
   -2.0485    1.0510   -1.9782 H   0  0  0  0  0  0  0  0  0  0  0  0
   -1.0916    1.7887   -0.5791 H   0  0  0  0  0  0  0  0  0  0  0  0
   -1.5661   -1.2763   -1.4179 H   0  0  0  0  0  0  0  0  0  0  0  0
   -0.5657   -2.0135    0.7428 H   0  0  0  0  0  0  0  0  0  0  0  0
    0.8127   -0.6424    2.2183 H   0  0  0  0  0  0  0  0  0  0  0  0
    2.1529    1.2000    1.6003 H   0  0  0  0  0  0  0  0  0  0  0  0
    0.9890    1.8286    0.3176 H   0  0  0  0  0  0  0  0  0  0  0  0
    3.1651    0.0146   -0.1448 H   0  0  0  0  0  0  0  0  0  0  0  0
    1.9332    0.4937   -1.3635 H   0  0  0  0  0  0  0  0  0  0  0  0
    1.8697   -1.9517    0.4082 H   0  0  0  0  0  0  0  0  0  0  0  0
  1  2  1  0
  2  3  1  0
  3  4  1  0
  4  5  1  0
  5  6  1  0
  6  7  1  0
  7  8  1  0
  3  1  1  0
  8  4  1  0
  8  5  1  0
  1  9  1  0
  1 10  1  0
  2 11  1  0
  2 12  1  0
  3 13  1  0
  4 14  1  0
  5 15  1  0
  6 16  1  0
  6 17  1  0
  7 18  1  0
  7 19  1  0
  8 20  1  0
M  END
