
     RDKit          3D

 21 22  0  0  0  0  0  0  0  0999 V2000
    0.7654    1.5058    0.1307 C   0  0  0  0  0  0  0  0  0  0  0  0
   -0.5562    1.4009   -0.5578 C   0  0  0  0  0  0  0  0  0  0  0  0
   -1.2559    0.0977   -0.3435 C   0  0  0  0  0  0  0  0  0  0  0  0
   -1.3147   -0.3155    1.1059 C   0  0  0  0  0  0  0  0  0  0  0  0
   -0.1114   -0.8938    1.4164 O   0  0  0  0  0  0  0  0  0  0  0  0
    0.5156   -1.2910    0.2656 C   0  0  0  0  0  0  0  0  0  0  0  0
    1.8223   -0.5360    0.1010 C   0  0  0  0  0  0  0  0  0  0  0  0
    1.6635    0.6675   -0.5501 O   0  0  0  0  0  0  0  0  0  0  0  0
   -0.4146   -1.0372   -0.8927 C   0  0  0  0  0  0  0  0  0  0  0  0
    0.7713    1.2584    1.1844 H   0  0  0  0  0  0  0  0  0  0  0  0
    1.1032    2.5694    0.0389 H   0  0  0  0  0  0  0  0  0  0  0  0
   -1.1719    2.2656   -0.3104 H   0  0  0  0  0  0  0  0  0  0  0  0
   -0.3454    1.4757   -1.6653 H   0  0  0  0  0  0  0  0  0  0  0  0
   -2.2167    0.1024   -0.8513 H   0  0  0  0  0  0  0  0  0  0  0  0
   -1.6550    0.4679    1.7827 H   0  0  0  0  0  0  0  0  0  0  0  0
   -2.0899   -1.1362    1.1583 H   0  0  0  0  0  0  0  0  0  0  0  0
    0.7481   -2.3809    0.2656 H   0  0  0  0  0  0  0  0  0  0  0  0
    2.4796   -1.1705   -0.5317 H   0  0  0  0  0  0  0  0  0  0  0  0
    2.2996   -0.3369    1.0738 H   0  0  0  0  0  0  0  0  0  0  0  0
   -1.1220   -1.9108   -0.9932 H   0  0  0  0  0  0  0  0  0  0  0  0
    0.0853   -0.8026   -1.8272 H   0  0  0  0  0  0  0  0  0  0  0  0
  1  2  1  0
  2  3  1  0
  3  4  1  0
  4  5  1  0
  5  6  1  0
  6  7  1  0
  7  8  1  0
  6  9  1  0
  8  1  1  0
  9  3  1  0
  1 10  1  0
  1 11  1  0
  2 12  1  0
  2 13  1  0
  3 14  1  0
  4 15  1  0
  4 16  1  0
  6 17  1  0
  7 18  1  0
  7 19  1  0
  9 20  1  0
  9 21  1  0
M  END
