
     RDKit          3D

 19 21  0  0  0  0  0  0  0  0999 V2000
   -2.0385   -0.1386    0.5321 C   0  0  0  0  0  0  0  0  0  0  0  0
   -1.4432    0.4707   -0.7482 C   0  0  0  0  0  0  0  0  0  0  0  0
   -0.1427   -0.1103   -0.3098 C   0  0  0  0  0  0  0  0  0  0  0  0
   -0.9720   -1.2273    0.3364 C   0  0  0  0  0  0  0  0  0  0  0  0
    0.7502   -0.5053   -1.2515 O   0  0  0  0  0  0  0  0  0  0  0  0
    1.9990   -0.0272   -0.9596 C   0  0  0  0  0  0  0  0  0  0  0  0
    1.9804    0.5048    0.4566 C   0  0  0  0  0  0  0  0  0  0  0  0
    1.4698   -0.2731    1.4776 O   0  0  0  0  0  0  0  0  0  0  0  0
    0.5827    0.6500    0.7619 C   0  0  0  0  0  0  0  0  0  0  0  0
   -3.0657   -0.4802    0.4416 H   0  0  0  0  0  0  0  0  0  0  0  0
   -1.7648    0.5047    1.3745 H   0  0  0  0  0  0  0  0  0  0  0  0
   -1.5138    1.5605   -0.8016 H   0  0  0  0  0  0  0  0  0  0  0  0
   -1.8746   -0.0861   -1.5993 H   0  0  0  0  0  0  0  0  0  0  0  0
   -1.3194   -1.9704   -0.4116 H   0  0  0  0  0  0  0  0  0  0  0  0
   -0.5458   -1.6161    1.2639 H   0  0  0  0  0  0  0  0  0  0  0  0
    2.2685    0.8552   -1.6099 H   0  0  0  0  0  0  0  0  0  0  0  0
    2.8098   -0.7520   -1.0914 H   0  0  0  0  0  0  0  0  0  0  0  0
    2.7193    1.2384    0.7656 H   0  0  0  0  0  0  0  0  0  0  0  0
    0.1008    1.4021    1.3728 H   0  0  0  0  0  0  0  0  0  0  0  0
  1  2  1  0
  2  3  1  0
  3  4  1  0
  3  5  1  0
  5  6  1  0
  6  7  1  0
  7  8  1  0
  8  9  1  0
  4  1  1  0
  9  7  1  0
  9  3  1  0
  1 10  1  0
  1 11  1  0
  2 12  1  0
  2 13  1  0
  4 14  1  0
  4 15  1  0
  6 16  1  0
  6 17  1  0
  7 18  1  0
  9 19  1  0
M  END
