
     RDKit          3D

 21 23  0  0  0  0  0  0  0  0999 V2000
    1.4267   -0.4658    0.5026 C   0  0  0  0  0  0  0  0  0  0  0  0
    1.3208    0.5724   -0.5530 C   0  0  0  0  0  0  0  0  0  0  0  0
   -0.0442    0.8753   -1.0316 C   0  0  0  0  0  0  0  0  0  0  0  0
   -1.0130    1.1953    0.0665 C   0  0  0  0  0  0  0  0  0  0  0  0
   -0.6494    0.4833    1.3411 C   0  0  0  0  0  0  0  0  0  0  0  0
    0.0114   -0.8288    0.9708 C   0  0  0  0  0  0  0  0  0  0  0  0
   -0.6405   -1.4363   -0.2804 C   0  0  0  0  0  0  0  0  0  0  0  0
   -0.9587   -0.2872   -1.1856 C   0  0  0  0  0  0  0  0  0  0  0  0
   -1.9888    0.5042   -0.6428 O   0  0  0  0  0  0  0  0  0  0  0  0
    1.9493   -1.3833    0.1310 H   0  0  0  0  0  0  0  0  0  0  0  0
    2.0188   -0.1412    1.3928 H   0  0  0  0  0  0  0  0  0  0  0  0
    1.9603    0.3335   -1.4317 H   0  0  0  0  0  0  0  0  0  0  0  0
    1.7547    1.5257   -0.1295 H   0  0  0  0  0  0  0  0  0  0  0  0
   -0.0407    1.5732   -1.8754 H   0  0  0  0  0  0  0  0  0  0  0  0
   -1.1496    2.2815    0.1558 H   0  0  0  0  0  0  0  0  0  0  0  0
    0.1496    1.0947    1.8407 H   0  0  0  0  0  0  0  0  0  0  0  0
   -1.5300    0.3598    1.9859 H   0  0  0  0  0  0  0  0  0  0  0  0
    0.0160   -1.5229    1.8106 H   0  0  0  0  0  0  0  0  0  0  0  0
   -1.4854   -2.0762   -0.0273 H   0  0  0  0  0  0  0  0  0  0  0  0
    0.1177   -2.0695   -0.8156 H   0  0  0  0  0  0  0  0  0  0  0  0
   -1.2250   -0.5876   -2.2249 H   0  0  0  0  0  0  0  0  0  0  0  0
  1  2  1  0
  2  3  1  0
  3  4  1  0
  4  5  1  0
  5  6  1  0
  6  7  1  0
  7  8  1  0
  8  9  1  0
  6  1  1  0
  8  3  1  0
  9  4  1  0
  1 10  1  0
  1 11  1  0
  2 12  1  0
  2 13  1  0
  3 14  1  0
  4 15  1  0
  5 16  1  0
  5 17  1  0
  6 18  1  0
  7 19  1  0
  7 20  1  0
  8 21  1  0
M  END
