
     RDKit          3D

 19 21  0  0  0  0  0  0  0  0999 V2000
    1.5047    0.8727   -0.1782 C   0  0  0  0  0  0  0  0  0  0  0  0
    1.6691   -0.6166   -0.3373 C   0  0  0  0  0  0  0  0  0  0  0  0
    0.3180   -1.1902    0.0830 C   0  0  0  0  0  0  0  0  0  0  0  0
   -0.6362   -0.5622   -0.9566 C   0  0  0  0  0  0  0  0  0  0  0  0
   -0.8625    0.6926   -0.2170 C   0  0  0  0  0  0  0  0  0  0  0  0
   -1.8306    1.1188    0.7168 C   0  0  0  0  0  0  0  0  0  0  0  0
   -1.2234   -0.0856    1.1140 C   0  0  0  0  0  0  0  0  0  0  0  0
    0.0504   -0.5044    1.2962 O   0  0  0  0  0  0  0  0  0  0  0  0
    0.3017    1.4000   -0.2688 O   0  0  0  0  0  0  0  0  0  0  0  0
    1.9876    1.1756    0.7987 H   0  0  0  0  0  0  0  0  0  0  0  0
    2.1890    1.3333   -0.9528 H   0  0  0  0  0  0  0  0  0  0  0  0
    1.9280   -0.9110   -1.3782 H   0  0  0  0  0  0  0  0  0  0  0  0
    2.4130   -0.9989    0.3910 H   0  0  0  0  0  0  0  0  0  0  0  0
    0.2651   -2.2514    0.1429 H   0  0  0  0  0  0  0  0  0  0  0  0
   -0.1524   -0.4329   -1.9229 H   0  0  0  0  0  0  0  0  0  0  0  0
   -1.5129   -1.2271   -1.0589 H   0  0  0  0  0  0  0  0  0  0  0  0
   -1.6238    2.0360    1.3437 H   0  0  0  0  0  0  0  0  0  0  0  0
   -2.8994    1.1506    0.3951 H   0  0  0  0  0  0  0  0  0  0  0  0
   -1.8855   -0.9993    0.9894 H   0  0  0  0  0  0  0  0  0  0  0  0
  1  2  1  0
  2  3  1  0
  3  4  1  0
  4  5  1  0
  5  6  1  0
  6  7  1  0
  7  8  1  0
  5  9  1  0
  9  1  1  0
  8  3  1  0
  7  5  1  0
  1 10  1  0
  1 11  1  0
  2 12  1  0
  2 13  1  0
  3 14  1  0
  4 15  1  0
  4 16  1  0
  6 17  1  0
  6 18  1  0
  7 19  1  0
M  END
