
     RDKit          3D

 21 23  0  0  0  0  0  0  0  0999 V2000
    1.9975    0.1114    0.2631 C   0  0  0  0  0  0  0  0  0  0  0  0
    0.9692    1.2376    0.0445 C   0  0  0  0  0  0  0  0  0  0  0  0
    0.1173    0.6286   -0.9642 C   0  0  0  0  0  0  0  0  0  0  0  0
   -1.0789   -0.1085   -1.0193 C   0  0  0  0  0  0  0  0  0  0  0  0
   -2.3427    0.2195   -0.2073 C   0  0  0  0  0  0  0  0  0  0  0  0
   -2.2232   -0.7975    0.7766 O   0  0  0  0  0  0  0  0  0  0  0  0
   -0.9056   -0.4638    1.2092 C   0  0  0  0  0  0  0  0  0  0  0  0
   -0.1739   -0.6502   -0.0802 C   0  0  0  0  0  0  0  0  0  0  0  0
    1.2111   -1.1557   -0.1219 C   0  0  0  0  0  0  0  0  0  0  0  0
    2.3144    0.0499    1.3069 H   0  0  0  0  0  0  0  0  0  0  0  0
    2.8148    0.2796   -0.4491 H   0  0  0  0  0  0  0  0  0  0  0  0
    0.5888    1.5828    0.9837 H   0  0  0  0  0  0  0  0  0  0  0  0
    1.5228    2.1188   -0.4030 H   0  0  0  0  0  0  0  0  0  0  0  0
    0.7898    0.4223   -1.8646 H   0  0  0  0  0  0  0  0  0  0  0  0
   -1.3502   -0.7462   -1.8919 H   0  0  0  0  0  0  0  0  0  0  0  0
   -3.2668    0.0585   -0.7701 H   0  0  0  0  0  0  0  0  0  0  0  0
   -2.2915    1.2180    0.2292 H   0  0  0  0  0  0  0  0  0  0  0  0
   -0.5643   -1.1110    2.0128 H   0  0  0  0  0  0  0  0  0  0  0  0
   -1.0292    0.5499    1.5802 H   0  0  0  0  0  0  0  0  0  0  0  0
    1.4392   -1.9873    0.5349 H   0  0  0  0  0  0  0  0  0  0  0  0
    1.4616   -1.4565   -1.1695 H   0  0  0  0  0  0  0  0  0  0  0  0
  1  2  1  0
  2  3  1  0
  3  4  1  0
  4  5  1  0
  5  6  1  0
  6  7  1  0
  7  8  1  0
  8  9  1  0
  9  1  1  0
  8  3  1  0
  8  4  1  0
  1 10  1  0
  1 11  1  0
  2 12  1  0
  2 13  1  0
  3 14  1  0
  4 15  1  0
  5 16  1  0
  5 17  1  0
  7 18  1  0
  7 19  1  0
  9 20  1  0
  9 21  1  0
M  END
