
     RDKit          3D

 19 21  0  0  0  0  0  0  0  0999 V2000
   -0.0267    1.9102    0.1636 C   0  0  0  0  0  0  0  0  0  0  0  0
    1.0900    1.1584   -0.5747 C   0  0  0  0  0  0  0  0  0  0  0  0
    0.8195   -0.2491   -0.1711 C   0  0  0  0  0  0  0  0  0  0  0  0
    1.5747   -1.3645   -0.4478 C   0  0  0  0  0  0  0  0  0  0  0  0
    1.8344   -0.6942    0.8231 O   0  0  0  0  0  0  0  0  0  0  0  0
   -0.5107   -0.1637    0.4664 C   0  0  0  0  0  0  0  0  0  0  0  0
   -1.7787   -0.3816   -0.2653 C   0  0  0  0  0  0  0  0  0  0  0  0
   -1.3333   -1.2840    0.8926 C   0  0  0  0  0  0  0  0  0  0  0  0
   -0.4319    1.0348    1.1812 O   0  0  0  0  0  0  0  0  0  0  0  0
   -0.8888    2.0921   -0.4803 H   0  0  0  0  0  0  0  0  0  0  0  0
    0.3878    2.8488    0.5650 H   0  0  0  0  0  0  0  0  0  0  0  0
    2.0795    1.5449   -0.2708 H   0  0  0  0  0  0  0  0  0  0  0  0
    0.9145    1.2875   -1.6616 H   0  0  0  0  0  0  0  0  0  0  0  0
    2.4983   -1.3377   -1.0499 H   0  0  0  0  0  0  0  0  0  0  0  0
    1.2161   -2.3928   -0.2586 H   0  0  0  0  0  0  0  0  0  0  0  0
   -1.8073   -0.8212   -1.2793 H   0  0  0  0  0  0  0  0  0  0  0  0
   -2.6329    0.2941   -0.0514 H   0  0  0  0  0  0  0  0  0  0  0  0
   -1.0620   -2.2976    0.5811 H   0  0  0  0  0  0  0  0  0  0  0  0
   -1.9423   -1.1844    1.8378 H   0  0  0  0  0  0  0  0  0  0  0  0
  1  2  1  0
  2  3  1  0
  3  4  1  0
  4  5  1  0
  3  6  1  0
  6  7  1  0
  7  8  1  0
  6  9  1  0
  9  1  1  0
  5  3  1  0
  8  6  1  0
  1 10  1  0
  1 11  1  0
  2 12  1  0
  2 13  1  0
  4 14  1  0
  4 15  1  0
  7 16  1  0
  7 17  1  0
  8 18  1  0
  8 19  1  0
M  END
