
     RDKit          3D

 21 23  0  0  0  0  0  0  0  0999 V2000
    2.4384    0.0034   -0.0763 C   0  0  0  0  0  0  0  0  0  0  0  0
    1.3841   -0.9032    0.5681 C   0  0  0  0  0  0  0  0  0  0  0  0
    0.3454   -0.0576   -0.0814 C   0  0  0  0  0  0  0  0  0  0  0  0
    1.3347    0.9767   -0.5133 C   0  0  0  0  0  0  0  0  0  0  0  0
   -0.3253   -0.6948   -1.1578 O   0  0  0  0  0  0  0  0  0  0  0  0
   -1.6506   -0.5043   -0.8433 C   0  0  0  0  0  0  0  0  0  0  0  0
   -1.7137    0.9455   -0.3735 C   0  0  0  0  0  0  0  0  0  0  0  0
   -0.8082    0.3891    0.7356 C   0  0  0  0  0  0  0  0  0  0  0  0
   -1.7177   -0.8423    0.6539 C   0  0  0  0  0  0  0  0  0  0  0  0
    2.9286   -0.4392   -0.9487 H   0  0  0  0  0  0  0  0  0  0  0  0
    3.0891    0.4348    0.6855 H   0  0  0  0  0  0  0  0  0  0  0  0
    1.4281   -1.9400    0.1498 H   0  0  0  0  0  0  0  0  0  0  0  0
    1.4012   -0.9316    1.6575 H   0  0  0  0  0  0  0  0  0  0  0  0
    1.3189    1.1584   -1.6160 H   0  0  0  0  0  0  0  0  0  0  0  0
    1.3191    1.9247    0.0415 H   0  0  0  0  0  0  0  0  0  0  0  0
   -2.4265   -0.8686   -1.4633 H   0  0  0  0  0  0  0  0  0  0  0  0
   -2.6808    1.3027   -0.0487 H   0  0  0  0  0  0  0  0  0  0  0  0
   -1.0912    1.6198   -0.9999 H   0  0  0  0  0  0  0  0  0  0  0  0
   -0.7273    0.9095    1.6359 H   0  0  0  0  0  0  0  0  0  0  0  0
   -1.1494   -1.7625    0.8843 H   0  0  0  0  0  0  0  0  0  0  0  0
   -2.6969   -0.7203    1.1102 H   0  0  0  0  0  0  0  0  0  0  0  0
  1  2  1  0
  2  3  1  0
  3  4  1  0
  3  5  1  0
  5  6  1  0
  6  7  1  0
  7  8  1  0
  8  9  1  0
  4  1  1  0
  9  6  1  0
  8  3  1  0
  1 10  1  0
  1 11  1  0
  2 12  1  0
  2 13  1  0
  4 14  1  0
  4 15  1  0
  6 16  1  0
  7 17  1  0
  7 18  1  0
  8 19  1  0
  9 20  1  0
  9 21  1  0
M  END
