
     RDKit          3D

 21 23  0  0  0  0  0  0  0  0999 V2000
    0.8536   -0.5371   -1.1498 C   0  0  0  0  0  0  0  0  0  0  0  0
    1.5723    0.0399    0.0322 C   0  0  0  0  0  0  0  0  0  0  0  0
    0.6772    0.5816    1.0937 C   0  0  0  0  0  0  0  0  0  0  0  0
    0.2722    1.8676    0.6830 O   0  0  0  0  0  0  0  0  0  0  0  0
   -0.6476    1.6865   -0.3300 C   0  0  0  0  0  0  0  0  0  0  0  0
   -1.2788    0.3417   -0.1583 C   0  0  0  0  0  0  0  0  0  0  0  0
   -0.5893   -0.8142   -0.8282 C   0  0  0  0  0  0  0  0  0  0  0  0
   -0.5888   -1.5160    0.5391 C   0  0  0  0  0  0  0  0  0  0  0  0
   -0.6452   -0.1363    1.1469 C   0  0  0  0  0  0  0  0  0  0  0  0
    0.9845    0.0406   -2.0828 H   0  0  0  0  0  0  0  0  0  0  0  0
    1.3282   -1.5409   -1.3614 H   0  0  0  0  0  0  0  0  0  0  0  0
    2.3056   -0.6375    0.4935 H   0  0  0  0  0  0  0  0  0  0  0  0
    2.1781    0.9102   -0.3597 H   0  0  0  0  0  0  0  0  0  0  0  0
    1.1375    0.6091    2.0798 H   0  0  0  0  0  0  0  0  0  0  0  0
   -0.2465    1.8635   -1.3344 H   0  0  0  0  0  0  0  0  0  0  0  0
   -1.4704    2.4478   -0.1850 H   0  0  0  0  0  0  0  0  0  0  0  0
   -2.3602    0.3168   -0.1991 H   0  0  0  0  0  0  0  0  0  0  0  0
   -1.1250   -1.3361   -1.6145 H   0  0  0  0  0  0  0  0  0  0  0  0
   -1.4734   -2.1058    0.7554 H   0  0  0  0  0  0  0  0  0  0  0  0
    0.3598   -2.0670    0.7403 H   0  0  0  0  0  0  0  0  0  0  0  0
   -1.2438   -0.0145    2.0395 H   0  0  0  0  0  0  0  0  0  0  0  0
  1  2  1  0
  2  3  1  0
  3  4  1  0
  4  5  1  0
  5  6  1  0
  6  7  1  0
  7  8  1  0
  8  9  1  0
  7  1  1  0
  9  3  1  0
  9  6  1  0
  1 10  1  0
  1 11  1  0
  2 12  1  0
  2 13  1  0
  3 14  1  0
  5 15  1  0
  5 16  1  0
  6 17  1  0
  7 18  1  0
  8 19  1  0
  8 20  1  0
  9 21  1  0
M  END
