
     RDKit          3D

 21 23  0  0  0  0  0  0  0  0999 V2000
    1.7298   -0.3767   -1.0615 C   0  0  0  0  0  0  0  0  0  0  0  0
    2.4223   -1.0426    0.0715 C   0  0  0  0  0  0  0  0  0  0  0  0
    0.9757   -0.9352    0.1651 C   0  0  0  0  0  0  0  0  0  0  0  0
    0.2527    0.1280    0.9247 C   0  0  0  0  0  0  0  0  0  0  0  0
   -0.4559   -0.2418    2.0370 O   0  0  0  0  0  0  0  0  0  0  0  0
   -1.4315    0.7173    1.6667 C   0  0  0  0  0  0  0  0  0  0  0  0
   -1.0149    0.5188    0.2790 C   0  0  0  0  0  0  0  0  0  0  0  0
   -1.7095   -0.1628   -0.7734 C   0  0  0  0  0  0  0  0  0  0  0  0
   -1.2165    1.3197   -0.8739 C   0  0  0  0  0  0  0  0  0  0  0  0
    1.8783    0.7097   -1.1319 H   0  0  0  0  0  0  0  0  0  0  0  0
    1.5711   -0.9021   -2.0273 H   0  0  0  0  0  0  0  0  0  0  0  0
    3.1115   -0.4569    0.6996 H   0  0  0  0  0  0  0  0  0  0  0  0
    2.8329   -2.0568   -0.1786 H   0  0  0  0  0  0  0  0  0  0  0  0
    0.3406   -1.8328   -0.0684 H   0  0  0  0  0  0  0  0  0  0  0  0
    0.8944    1.0125    1.1460 H   0  0  0  0  0  0  0  0  0  0  0  0
   -2.4748    0.3828    1.8497 H   0  0  0  0  0  0  0  0  0  0  0  0
   -1.2010    1.7356    2.0864 H   0  0  0  0  0  0  0  0  0  0  0  0
   -1.2798   -0.8639   -1.4995 H   0  0  0  0  0  0  0  0  0  0  0  0
   -2.8313   -0.2574   -0.6778 H   0  0  0  0  0  0  0  0  0  0  0  0
   -2.0106    2.0689   -1.0142 H   0  0  0  0  0  0  0  0  0  0  0  0
   -0.3835    1.4525   -1.6193 H   0  0  0  0  0  0  0  0  0  0  0  0
  1  2  1  0
  2  3  1  0
  3  4  1  0
  4  5  1  0
  5  6  1  0
  6  7  1  0
  7  8  1  0
  8  9  1  0
  3  1  1  0
  7  4  1  0
  9  7  1  0
  1 10  1  0
  1 11  1  0
  2 12  1  0
  2 13  1  0
  3 14  1  0
  4 15  1  0
  6 16  1  0
  6 17  1  0
  8 18  1  0
  8 19  1  0
  9 20  1  0
  9 21  1  0
M  END
