
     RDKit          3D

 21 23  0  0  0  0  0  0  0  0999 V2000
   -1.2467   -1.0000    0.5280 C   0  0  0  0  0  0  0  0  0  0  0  0
   -0.0617   -1.8683    0.0761 C   0  0  0  0  0  0  0  0  0  0  0  0
    0.6749   -0.8999   -0.8170 C   0  0  0  0  0  0  0  0  0  0  0  0
    2.0602   -0.8214   -0.5668 O   0  0  0  0  0  0  0  0  0  0  0  0
    1.8643    0.1821    0.4112 C   0  0  0  0  0  0  0  0  0  0  0  0
    0.5298    0.3914   -0.1124 C   0  0  0  0  0  0  0  0  0  0  0  0
    0.0978    1.5861   -0.8048 C   0  0  0  0  0  0  0  0  0  0  0  0
   -1.2439    1.4802   -0.0667 C   0  0  0  0  0  0  0  0  0  0  0  0
   -0.6541    0.3509    0.7769 C   0  0  0  0  0  0  0  0  0  0  0  0
   -1.9714   -1.0124   -0.2970 H   0  0  0  0  0  0  0  0  0  0  0  0
   -1.6199   -1.4932    1.4566 H   0  0  0  0  0  0  0  0  0  0  0  0
   -0.3858   -2.7328   -0.5079 H   0  0  0  0  0  0  0  0  0  0  0  0
    0.6065   -2.1092    0.9201 H   0  0  0  0  0  0  0  0  0  0  0  0
    0.3829   -0.8774   -1.8645 H   0  0  0  0  0  0  0  0  0  0  0  0
    2.6055    0.9779    0.4163 H   0  0  0  0  0  0  0  0  0  0  0  0
    1.8529   -0.3387    1.4140 H   0  0  0  0  0  0  0  0  0  0  0  0
   -0.0907    1.4082   -1.8982 H   0  0  0  0  0  0  0  0  0  0  0  0
    0.6208    2.5319   -0.6798 H   0  0  0  0  0  0  0  0  0  0  0  0
   -1.4097    2.4242    0.4882 H   0  0  0  0  0  0  0  0  0  0  0  0
   -2.0831    1.1523   -0.6881 H   0  0  0  0  0  0  0  0  0  0  0  0
   -0.5286    0.6682    1.8158 H   0  0  0  0  0  0  0  0  0  0  0  0
  1  2  1  0
  2  3  1  0
  3  4  1  0
  4  5  1  0
  5  6  1  0
  6  7  1  0
  7  8  1  0
  8  9  1  0
  9  1  1  0
  6  3  1  0
  9  6  1  0
  1 10  1  0
  1 11  1  0
  2 12  1  0
  2 13  1  0
  3 14  1  0
  5 15  1  0
  5 16  1  0
  7 17  1  0
  7 18  1  0
  8 19  1  0
  8 20  1  0
  9 21  1  0
M  END
