
     RDKit          3D

 23 25  0  0  0  0  0  0  0  0999 V2000
    2.4729    0.0366    0.5774 C   0  0  0  0  0  0  0  0  0  0  0  0
    1.6313   -1.0255   -0.1350 C   0  0  0  0  0  0  0  0  0  0  0  0
    0.6582    0.0377   -0.4687 C   0  0  0  0  0  0  0  0  0  0  0  0
    1.6271    1.0975   -0.1109 C   0  0  0  0  0  0  0  0  0  0  0  0
   -0.1774    0.0969   -1.6504 C   0  0  0  0  0  0  0  0  0  0  0  0
   -0.7463    0.0216   -0.3153 C   0  0  0  0  0  0  0  0  0  0  0  0
   -1.6096   -1.0931    0.1647 C   0  0  0  0  0  0  0  0  0  0  0  0
   -2.2351   -0.1073    1.1585 C   0  0  0  0  0  0  0  0  0  0  0  0
   -1.6272    1.0173    0.3175 C   0  0  0  0  0  0  0  0  0  0  0  0
    3.5271   -0.0011    0.2646 H   0  0  0  0  0  0  0  0  0  0  0  0
    2.3181    0.0496    1.6771 H   0  0  0  0  0  0  0  0  0  0  0  0
    1.3219   -1.7957    0.5904 H   0  0  0  0  0  0  0  0  0  0  0  0
    2.1205   -1.4594   -1.0334 H   0  0  0  0  0  0  0  0  0  0  0  0
    1.2869    1.9206    0.5369 H   0  0  0  0  0  0  0  0  0  0  0  0
    2.2071    1.4655   -1.0041 H   0  0  0  0  0  0  0  0  0  0  0  0
   -0.2521   -0.8132   -2.3037 H   0  0  0  0  0  0  0  0  0  0  0  0
   -0.3107    1.0720   -2.1946 H   0  0  0  0  0  0  0  0  0  0  0  0
   -2.3636   -1.4866   -0.5649 H   0  0  0  0  0  0  0  0  0  0  0  0
   -1.1215   -1.9375    0.6727 H   0  0  0  0  0  0  0  0  0  0  0  0
   -3.3379   -0.1660    1.1122 H   0  0  0  0  0  0  0  0  0  0  0  0
   -1.8021   -0.1872    2.1817 H   0  0  0  0  0  0  0  0  0  0  0  0
   -2.4106    1.4223   -0.3748 H   0  0  0  0  0  0  0  0  0  0  0  0
   -1.1770    1.8350    0.9021 H   0  0  0  0  0  0  0  0  0  0  0  0
  1  2  1  0
  2  3  1  0
  3  4  1  0
  3  5  1  0
  5  6  1  0
  6  7  1  0
  7  8  1  0
  8  9  1  0
  4  1  1  0
  9  6  1  0
  6  3  1  0
  1 10  1  0
  1 11  1  0
  2 12  1  0
  2 13  1  0
  4 14  1  0
  4 15  1  0
  5 16  1  0
  5 17  1  0
  7 18  1  0
  7 19  1  0
  8 20  1  0
  8 21  1  0
  9 22  1  0
  9 23  1  0
M  END
