
     RDKit          3D

 21 23  0  0  0  0  0  0  0  0999 V2000
    1.6717   -0.2569    0.6376 C   0  0  0  0  0  0  0  0  0  0  0  0
    0.8980   -1.5062    0.5096 C   0  0  0  0  0  0  0  0  0  0  0  0
   -0.4959   -1.4076    0.0222 C   0  0  0  0  0  0  0  0  0  0  0  0
   -1.5000   -0.4488    0.4208 C   0  0  0  0  0  0  0  0  0  0  0  0
   -1.3368    1.0302    0.4698 C   0  0  0  0  0  0  0  0  0  0  0  0
   -0.5587    0.9795   -0.7914 C   0  0  0  0  0  0  0  0  0  0  0  0
    0.8780    1.3877   -0.6367 C   0  0  0  0  0  0  0  0  0  0  0  0
    1.7527    0.3262   -0.6443 O   0  0  0  0  0  0  0  0  0  0  0  0
   -0.8246   -0.4367   -0.9939 C   0  0  0  0  0  0  0  0  0  0  0  0
    2.7314   -0.5505    0.8905 H   0  0  0  0  0  0  0  0  0  0  0  0
    1.3424    0.4378    1.4039 H   0  0  0  0  0  0  0  0  0  0  0  0
    1.4629   -2.1640   -0.2186 H   0  0  0  0  0  0  0  0  0  0  0  0
    0.8849   -2.1231    1.4536 H   0  0  0  0  0  0  0  0  0  0  0  0
   -0.8892   -2.4556   -0.1751 H   0  0  0  0  0  0  0  0  0  0  0  0
   -2.5793   -0.7634    0.4241 H   0  0  0  0  0  0  0  0  0  0  0  0
   -2.2879    1.6249    0.3350 H   0  0  0  0  0  0  0  0  0  0  0  0
   -0.8365    1.4335    1.3727 H   0  0  0  0  0  0  0  0  0  0  0  0
   -1.0047    1.6069   -1.6210 H   0  0  0  0  0  0  0  0  0  0  0  0
    1.2232    2.1209   -1.3807 H   0  0  0  0  0  0  0  0  0  0  0  0
    0.9829    1.8988    0.3609 H   0  0  0  0  0  0  0  0  0  0  0  0
   -1.5145   -0.7333   -1.8389 H   0  0  0  0  0  0  0  0  0  0  0  0
  1  2  1  0
  2  3  1  0
  3  4  1  0
  4  5  1  0
  5  6  1  0
  6  7  1  0
  7  8  1  0
  6  9  1  0
  8  1  1  0
  9  3  1  0
  9  4  1  0
  1 10  1  0
  1 11  1  0
  2 12  1  0
  2 13  1  0
  3 14  1  0
  4 15  1  0
  5 16  1  0
  5 17  1  0
  6 18  1  0
  7 19  1  0
  7 20  1  0
  9 21  1  0
M  END
