
     RDKit          3D

 21 23  0  0  0  0  0  0  0  0999 V2000
    1.3387    0.4466    0.7605 C   0  0  0  0  0  0  0  0  0  0  0  0
    1.4861   -0.9453    0.1905 C   0  0  0  0  0  0  0  0  0  0  0  0
    0.2865   -1.0901   -0.6965 C   0  0  0  0  0  0  0  0  0  0  0  0
   -0.9565   -1.1773    0.2010 C   0  0  0  0  0  0  0  0  0  0  0  0
   -1.6835    0.0927   -0.1284 C   0  0  0  0  0  0  0  0  0  0  0  0
   -0.9954    1.2924    0.5025 C   0  0  0  0  0  0  0  0  0  0  0  0
    0.3857    1.1883   -0.1604 C   0  0  0  0  0  0  0  0  0  0  0  0
    0.0965    0.2721   -1.3061 C   0  0  0  0  0  0  0  0  0  0  0  0
   -1.3076    0.2845   -1.4798 O   0  0  0  0  0  0  0  0  0  0  0  0
    2.3153    0.9773    0.7740 H   0  0  0  0  0  0  0  0  0  0  0  0
    0.9077    0.4170    1.7908 H   0  0  0  0  0  0  0  0  0  0  0  0
    2.4369   -1.0913   -0.3457 H   0  0  0  0  0  0  0  0  0  0  0  0
    1.3575   -1.6971    1.0234 H   0  0  0  0  0  0  0  0  0  0  0  0
    0.3294   -1.9083   -1.4067 H   0  0  0  0  0  0  0  0  0  0  0  0
   -1.5300   -2.0521   -0.0948 H   0  0  0  0  0  0  0  0  0  0  0  0
   -0.6692   -1.1603    1.2697 H   0  0  0  0  0  0  0  0  0  0  0  0
   -2.7530    0.0708    0.0161 H   0  0  0  0  0  0  0  0  0  0  0  0
   -0.9431    1.2469    1.5862 H   0  0  0  0  0  0  0  0  0  0  0  0
   -1.5281    2.2133    0.1568 H   0  0  0  0  0  0  0  0  0  0  0  0
    0.7835    2.1642   -0.4389 H   0  0  0  0  0  0  0  0  0  0  0  0
    0.6428    0.4558   -2.2141 H   0  0  0  0  0  0  0  0  0  0  0  0
  1  2  1  0
  2  3  1  0
  3  4  1  0
  4  5  1  0
  5  6  1  0
  6  7  1  0
  7  8  1  0
  8  9  1  0
  7  1  1  0
  8  3  1  0
  9  5  1  0
  1 10  1  0
  1 11  1  0
  2 12  1  0
  2 13  1  0
  3 14  1  0
  4 15  1  0
  4 16  1  0
  5 17  1  0
  6 18  1  0
  6 19  1  0
  7 20  1  0
  8 21  1  0
M  END
