
     RDKit          3D

 20 21  0  0  0  0  0  0  0  0999 V2000
    1.5666   -0.6449   -0.3310 C   0  0  0  0  0  0  0  0  0  0  0  0
    1.5413    0.6963    0.3979 C   0  0  0  0  0  0  0  0  0  0  0  0
    0.4077    1.5374   -0.0734 C   0  0  0  0  0  0  0  0  0  0  0  0
   -0.9298    0.8653   -0.0286 C   0  0  0  0  0  0  0  0  0  0  0  0
   -1.3151    0.3288    1.1868 O   0  0  0  0  0  0  0  0  0  0  0  0
   -2.0778   -0.5976    0.4344 C   0  0  0  0  0  0  0  0  0  0  0  0
   -0.9281   -0.5237   -0.5802 C   0  0  0  0  0  0  0  0  0  0  0  0
    0.2373   -1.3062   -0.0823 C   0  0  0  0  0  0  0  0  0  0  0  0
    1.8143   -0.5283   -1.3844 H   0  0  0  0  0  0  0  0  0  0  0  0
    2.3302   -1.2586    0.2252 H   0  0  0  0  0  0  0  0  0  0  0  0
    2.4901    1.2098    0.0937 H   0  0  0  0  0  0  0  0  0  0  0  0
    1.5936    0.5672    1.4804 H   0  0  0  0  0  0  0  0  0  0  0  0
    0.6032    1.7983   -1.1442 H   0  0  0  0  0  0  0  0  0  0  0  0
    0.3899    2.4685    0.4885 H   0  0  0  0  0  0  0  0  0  0  0  0
   -1.7115    1.5318   -0.4166 H   0  0  0  0  0  0  0  0  0  0  0  0
   -2.9674   -0.1450   -0.0275 H   0  0  0  0  0  0  0  0  0  0  0  0
   -2.2210   -1.5661    0.8939 H   0  0  0  0  0  0  0  0  0  0  0  0
   -1.2216   -0.6547   -1.6189 H   0  0  0  0  0  0  0  0  0  0  0  0
    0.2308   -2.3193   -0.5439 H   0  0  0  0  0  0  0  0  0  0  0  0
    0.1673   -1.4586    1.0302 H   0  0  0  0  0  0  0  0  0  0  0  0
  1  2  1  0
  2  3  1  0
  3  4  1  0
  4  5  1  0
  5  6  1  0
  6  7  1  0
  7  8  1  0
  8  1  1  0
  7  4  1  0
  1  9  1  0
  1 10  1  0
  2 11  1  0
  2 12  1  0
  3 13  1  0
  3 14  1  0
  4 15  1  0
  6 16  1  0
  6 17  1  0
  7 18  1  0
  8 19  1  0
  8 20  1  0
M  END
