
     RDKit          3D

 21 23  0  0  0  0  0  0  0  0999 V2000
   -2.7035   -0.1396    0.5140 C   0  0  0  0  0  0  0  0  0  0  0  0
   -1.7904    0.8842   -0.1342 C   0  0  0  0  0  0  0  0  0  0  0  0
   -0.7700    0.0169    0.5033 C   0  0  0  0  0  0  0  0  0  0  0  0
    0.4115   -0.3864   -0.3091 C   0  0  0  0  0  0  0  0  0  0  0  0
    1.4155   -1.2654    0.3838 C   0  0  0  0  0  0  0  0  0  0  0  0
    2.3655   -0.1043    0.4132 C   0  0  0  0  0  0  0  0  0  0  0  0
    1.4856    0.7392   -0.4559 C   0  0  0  0  0  0  0  0  0  0  0  0
    0.7491    0.1655   -1.6122 C   0  0  0  0  0  0  0  0  0  0  0  0
   -1.6556   -1.0333    0.6934 O   0  0  0  0  0  0  0  0  0  0  0  0
   -3.4930   -0.5506   -0.1239 H   0  0  0  0  0  0  0  0  0  0  0  0
   -3.0902    0.1700    1.5098 H   0  0  0  0  0  0  0  0  0  0  0  0
   -1.9495    1.8654    0.3574 H   0  0  0  0  0  0  0  0  0  0  0  0
   -1.8507    0.8771   -1.2378 H   0  0  0  0  0  0  0  0  0  0  0  0
   -0.4354    0.4118    1.4942 H   0  0  0  0  0  0  0  0  0  0  0  0
    1.1232   -1.6562    1.3743 H   0  0  0  0  0  0  0  0  0  0  0  0
    1.7318   -2.0796   -0.3291 H   0  0  0  0  0  0  0  0  0  0  0  0
    2.4359    0.3017    1.4586 H   0  0  0  0  0  0  0  0  0  0  0  0
    3.3788   -0.3261    0.0329 H   0  0  0  0  0  0  0  0  0  0  0  0
    1.2114    1.7330   -0.0942 H   0  0  0  0  0  0  0  0  0  0  0  0
    0.0806    0.8588   -2.1380 H   0  0  0  0  0  0  0  0  0  0  0  0
    1.3494   -0.4821   -2.3006 H   0  0  0  0  0  0  0  0  0  0  0  0
  1  2  1  0
  2  3  1  0
  3  4  1  0
  4  5  1  0
  5  6  1  0
  6  7  1  0
  7  8  1  0
  3  9  1  0
  9  1  1  0
  7  4  1  0
  8  4  1  0
  1 10  1  0
  1 11  1  0
  2 12  1  0
  2 13  1  0
  3 14  1  0
  5 15  1  0
  5 16  1  0
  6 17  1  0
  6 18  1  0
  7 19  1  0
  8 20  1  0
  8 21  1  0
M  END
