
     RDKit          3D

 21 23  0  0  0  0  0  0  0  0999 V2000
    1.6341    0.8404    0.3085 C   0  0  0  0  0  0  0  0  0  0  0  0
    1.4790   -0.6515    0.1911 C   0  0  0  0  0  0  0  0  0  0  0  0
    0.3358   -1.0159   -0.6865 C   0  0  0  0  0  0  0  0  0  0  0  0
   -0.7860   -1.8570   -0.3043 C   0  0  0  0  0  0  0  0  0  0  0  0
   -0.9751   -0.4917   -0.0913 C   0  0  0  0  0  0  0  0  0  0  0  0
   -0.7816    0.3718    1.0777 C   0  0  0  0  0  0  0  0  0  0  0  0
   -0.5766    1.5105    0.0905 C   0  0  0  0  0  0  0  0  0  0  0  0
   -1.3843    0.6427   -0.8970 C   0  0  0  0  0  0  0  0  0  0  0  0
    0.7019    1.5633   -0.3974 O   0  0  0  0  0  0  0  0  0  0  0  0
    2.6369    1.1046   -0.1440 H   0  0  0  0  0  0  0  0  0  0  0  0
    1.7282    1.1841    1.3719 H   0  0  0  0  0  0  0  0  0  0  0  0
    1.4000   -1.1561    1.1967 H   0  0  0  0  0  0  0  0  0  0  0  0
    2.4000   -1.1315   -0.2596 H   0  0  0  0  0  0  0  0  0  0  0  0
    0.5130   -0.8311   -1.7653 H   0  0  0  0  0  0  0  0  0  0  0  0
   -1.3432   -2.3627   -1.1466 H   0  0  0  0  0  0  0  0  0  0  0  0
   -0.7027   -2.5487    0.5659 H   0  0  0  0  0  0  0  0  0  0  0  0
   -0.0019    0.1942    1.7948 H   0  0  0  0  0  0  0  0  0  0  0  0
   -1.7518    0.5491    1.6035 H   0  0  0  0  0  0  0  0  0  0  0  0
   -1.0900    2.4343    0.3355 H   0  0  0  0  0  0  0  0  0  0  0  0
   -2.4578    0.8947   -0.9148 H   0  0  0  0  0  0  0  0  0  0  0  0
   -0.9779    0.7564   -1.9292 H   0  0  0  0  0  0  0  0  0  0  0  0
  1  2  1  0
  2  3  1  0
  3  4  1  0
  4  5  1  0
  5  6  1  0
  6  7  1  0
  7  8  1  0
  7  9  1  0
  9  1  1  0
  5  3  1  0
  8  5  1  0
  1 10  1  0
  1 11  1  0
  2 12  1  0
  2 13  1  0
  3 14  1  0
  4 15  1  0
  4 16  1  0
  6 17  1  0
  6 18  1  0
  7 19  1  0
  8 20  1  0
  8 21  1  0
M  END
