
     RDKit          3D

 25 26  0  0  0  0  0  0  0  0999 V2000
    1.0167    1.0955   -0.8612 C   0  0  0  0  0  0  0  0  0  0  0  0
    1.8311    0.0021   -0.2547 C   0  0  0  0  0  0  0  0  0  0  0  0
    1.1452   -1.3302   -0.2188 C   0  0  0  0  0  0  0  0  0  0  0  0
   -0.1565   -1.3466    0.4830 C   0  0  0  0  0  0  0  0  0  0  0  0
   -1.2912   -1.2028   -0.5252 C   0  0  0  0  0  0  0  0  0  0  0  0
   -1.7861    0.2126   -0.3957 C   0  0  0  0  0  0  0  0  0  0  0  0
   -0.9445    0.8545    0.6776 C   0  0  0  0  0  0  0  0  0  0  0  0
    0.0822    1.7715    0.0992 C   0  0  0  0  0  0  0  0  0  0  0  0
   -0.3458   -0.2582    1.4951 C   0  0  0  0  0  0  0  0  0  0  0  0
    1.7501    1.8891   -1.1944 H   0  0  0  0  0  0  0  0  0  0  0  0
    0.5037    0.7853   -1.8015 H   0  0  0  0  0  0  0  0  0  0  0  0
    2.7392   -0.1305   -0.9143 H   0  0  0  0  0  0  0  0  0  0  0  0
    2.2187    0.3415    0.7125 H   0  0  0  0  0  0  0  0  0  0  0  0
    1.0041   -1.6777   -1.2559 H   0  0  0  0  0  0  0  0  0  0  0  0
    1.8316   -2.0422    0.2875 H   0  0  0  0  0  0  0  0  0  0  0  0
   -0.2860   -2.3301    1.0059 H   0  0  0  0  0  0  0  0  0  0  0  0
   -2.0929   -1.9531   -0.3094 H   0  0  0  0  0  0  0  0  0  0  0  0
   -0.8822   -1.4272   -1.5375 H   0  0  0  0  0  0  0  0  0  0  0  0
   -1.6353    0.7706   -1.3558 H   0  0  0  0  0  0  0  0  0  0  0  0
   -2.8620    0.1863   -0.1545 H   0  0  0  0  0  0  0  0  0  0  0  0
   -1.5954    1.4646    1.3471 H   0  0  0  0  0  0  0  0  0  0  0  0
   -0.4501    2.5666   -0.4629 H   0  0  0  0  0  0  0  0  0  0  0  0
    0.6498    2.2487    0.8994 H   0  0  0  0  0  0  0  0  0  0  0  0
    0.6173    0.0436    1.9406 H   0  0  0  0  0  0  0  0  0  0  0  0
   -1.0617   -0.5337    2.2938 H   0  0  0  0  0  0  0  0  0  0  0  0
  1  2  1  0
  2  3  1  0
  3  4  1  0
  4  5  1  0
  5  6  1  0
  6  7  1  0
  7  8  1  0
  7  9  1  0
  8  1  1  0
  9  4  1  0
  1 10  1  0
  1 11  1  0
  2 12  1  0
  2 13  1  0
  3 14  1  0
  3 15  1  0
  4 16  1  0
  5 17  1  0
  5 18  1  0
  6 19  1  0
  6 20  1  0
  7 21  1  0
  8 22  1  0
  8 23  1  0
  9 24  1  0
  9 25  1  0
M  END
