
     RDKit          3D

 21 23  0  0  0  0  0  0  0  0999 V2000
    1.4582    1.1735    0.3888 C   0  0  0  0  0  0  0  0  0  0  0  0
    0.0598    1.7839    0.1227 C   0  0  0  0  0  0  0  0  0  0  0  0
   -0.4010    0.4684   -0.0625 C   0  0  0  0  0  0  0  0  0  0  0  0
   -1.0152   -0.3903    0.9699 C   0  0  0  0  0  0  0  0  0  0  0  0
   -1.1710   -1.3787   -0.1998 C   0  0  0  0  0  0  0  0  0  0  0  0
   -1.3270   -0.0838   -1.0280 C   0  0  0  0  0  0  0  0  0  0  0  0
   -0.0035   -2.0393   -0.4709 O   0  0  0  0  0  0  0  0  0  0  0  0
    1.1409   -1.3586    0.0127 C   0  0  0  0  0  0  0  0  0  0  0  0
    1.0132    0.0372   -0.4392 C   0  0  0  0  0  0  0  0  0  0  0  0
    1.6301    0.9675    1.4628 H   0  0  0  0  0  0  0  0  0  0  0  0
    2.2063    1.8664   -0.0045 H   0  0  0  0  0  0  0  0  0  0  0  0
    0.0593    2.4204   -0.7965 H   0  0  0  0  0  0  0  0  0  0  0  0
   -0.2508    2.4201    0.9753 H   0  0  0  0  0  0  0  0  0  0  0  0
   -2.0273   -0.0295    1.2317 H   0  0  0  0  0  0  0  0  0  0  0  0
   -0.4344   -0.7452    1.8058 H   0  0  0  0  0  0  0  0  0  0  0  0
   -2.0725   -1.9719   -0.1044 H   0  0  0  0  0  0  0  0  0  0  0  0
   -2.3858    0.2651   -0.8550 H   0  0  0  0  0  0  0  0  0  0  0  0
   -1.0378   -0.1816   -2.0701 H   0  0  0  0  0  0  0  0  0  0  0  0
    2.0005   -1.8705   -0.5092 H   0  0  0  0  0  0  0  0  0  0  0  0
    1.3013   -1.5243    1.0781 H   0  0  0  0  0  0  0  0  0  0  0  0
    1.2565    0.1713   -1.5079 H   0  0  0  0  0  0  0  0  0  0  0  0
  1  2  1  0
  2  3  1  0
  3  4  1  0
  4  5  1  0
  5  6  1  0
  5  7  1  0
  7  8  1  0
  8  9  1  0
  9  1  1  0
  6  3  1  0
  9  3  1  0
  1 10  1  0
  1 11  1  0
  2 12  1  0
  2 13  1  0
  4 14  1  0
  4 15  1  0
  5 16  1  0
  6 17  1  0
  6 18  1  0
  8 19  1  0
  8 20  1  0
  9 21  1  0
M  END
