
     RDKit          3D

 23 25  0  0  0  0  0  0  0  0999 V2000
    2.1338    0.0516    0.2212 C   0  0  0  0  0  0  0  0  0  0  0  0
    1.4489   -0.9572   -0.6379 C   0  0  0  0  0  0  0  0  0  0  0  0
    0.0223   -0.6164   -0.8338 C   0  0  0  0  0  0  0  0  0  0  0  0
   -0.3141    0.8366   -0.6124 C   0  0  0  0  0  0  0  0  0  0  0  0
   -1.8046    0.8459   -0.7984 C   0  0  0  0  0  0  0  0  0  0  0  0
   -2.1548   -0.4417   -0.0219 C   0  0  0  0  0  0  0  0  0  0  0  0
   -0.7653   -0.8037    0.4587 C   0  0  0  0  0  0  0  0  0  0  0  0
   -0.2263    0.5287    0.8896 C   0  0  0  0  0  0  0  0  0  0  0  0
    1.1983    0.5154    1.3034 C   0  0  0  0  0  0  0  0  0  0  0  0
    3.0369   -0.4100    0.6733 H   0  0  0  0  0  0  0  0  0  0  0  0
    2.4810    0.9063   -0.4217 H   0  0  0  0  0  0  0  0  0  0  0  0
    1.9866   -1.0174   -1.5975 H   0  0  0  0  0  0  0  0  0  0  0  0
    1.4915   -1.9773   -0.1544 H   0  0  0  0  0  0  0  0  0  0  0  0
   -0.4882   -1.1033   -1.6724 H   0  0  0  0  0  0  0  0  0  0  0  0
    0.2960    1.5986   -1.0046 H   0  0  0  0  0  0  0  0  0  0  0  0
   -2.2993    1.7200   -0.3532 H   0  0  0  0  0  0  0  0  0  0  0  0
   -2.0304    0.7526   -1.8578 H   0  0  0  0  0  0  0  0  0  0  0  0
   -2.5549   -1.2074   -0.7050 H   0  0  0  0  0  0  0  0  0  0  0  0
   -2.8307   -0.1587    0.7852 H   0  0  0  0  0  0  0  0  0  0  0  0
   -0.6099   -1.6704    1.0343 H   0  0  0  0  0  0  0  0  0  0  0  0
   -0.8885    1.1326    1.5086 H   0  0  0  0  0  0  0  0  0  0  0  0
    1.3796   -0.0797    2.2375 H   0  0  0  0  0  0  0  0  0  0  0  0
    1.4923    1.5549    1.5591 H   0  0  0  0  0  0  0  0  0  0  0  0
  1  2  1  0
  2  3  1  0
  3  4  1  0
  4  5  1  0
  5  6  1  0
  6  7  1  0
  7  8  1  0
  8  9  1  0
  9  1  1  0
  7  3  1  0
  8  4  1  0
  1 10  1  0
  1 11  1  0
  2 12  1  0
  2 13  1  0
  3 14  1  0
  4 15  1  0
  5 16  1  0
  5 17  1  0
  6 18  1  0
  6 19  1  0
  7 20  1  0
  8 21  1  0
  9 22  1  0
  9 23  1  0
M  END
