
     RDKit          3D

 21 22  0  0  0  0  0  0  0  0999 V2000
    0.2399    1.5658    0.5379 C   0  0  0  0  0  0  0  0  0  0  0  0
   -1.2361    1.2141    0.4114 C   0  0  0  0  0  0  0  0  0  0  0  0
   -1.4786   -0.0667   -0.2960 C   0  0  0  0  0  0  0  0  0  0  0  0
   -1.0794   -1.2617    0.5129 C   0  0  0  0  0  0  0  0  0  0  0  0
   -0.0632   -1.3772   -0.5764 C   0  0  0  0  0  0  0  0  0  0  0  0
    1.2681   -0.9024   -0.0322 C   0  0  0  0  0  0  0  0  0  0  0  0
    1.7092    0.3259   -0.7638 C   0  0  0  0  0  0  0  0  0  0  0  0
    0.9077    1.4085   -0.6401 O   0  0  0  0  0  0  0  0  0  0  0  0
   -0.6176   -0.3545   -1.3188 O   0  0  0  0  0  0  0  0  0  0  0  0
    0.2429    2.6736    0.7712 H   0  0  0  0  0  0  0  0  0  0  0  0
    0.7086    1.0957    1.4178 H   0  0  0  0  0  0  0  0  0  0  0  0
   -1.6221    1.1252    1.4495 H   0  0  0  0  0  0  0  0  0  0  0  0
   -1.7810    2.0196   -0.1209 H   0  0  0  0  0  0  0  0  0  0  0  0
   -2.5300   -0.1395   -0.6377 H   0  0  0  0  0  0  0  0  0  0  0  0
   -0.6889   -0.9266    1.5118 H   0  0  0  0  0  0  0  0  0  0  0  0
   -1.7626   -2.1104    0.5410 H   0  0  0  0  0  0  0  0  0  0  0  0
   -0.0465   -2.3074   -1.1527 H   0  0  0  0  0  0  0  0  0  0  0  0
    2.0059   -1.7162   -0.2991 H   0  0  0  0  0  0  0  0  0  0  0  0
    1.2856   -0.8264    1.0532 H   0  0  0  0  0  0  0  0  0  0  0  0
    2.7929    0.5135   -0.5093 H   0  0  0  0  0  0  0  0  0  0  0  0
    1.7451    0.0470   -1.8598 H   0  0  0  0  0  0  0  0  0  0  0  0
  1  2  1  0
  2  3  1  0
  3  4  1  0
  4  5  1  0
  5  6  1  0
  6  7  1  0
  7  8  1  0
  5  9  1  0
  8  1  1  0
  9  3  1  0
  1 10  1  0
  1 11  1  0
  2 12  1  0
  2 13  1  0
  3 14  1  0
  4 15  1  0
  4 16  1  0
  5 17  1  0
  6 18  1  0
  6 19  1  0
  7 20  1  0
  7 21  1  0
M  END
