
     RDKit          3D

 21 23  0  0  0  0  0  0  0  0999 V2000
   -1.9203    0.0760    0.5519 C   0  0  0  0  0  0  0  0  0  0  0  0
   -1.4785    0.9890   -0.6023 C   0  0  0  0  0  0  0  0  0  0  0  0
   -0.1039    0.5659   -0.9527 C   0  0  0  0  0  0  0  0  0  0  0  0
    0.8456    0.9985    0.1481 C   0  0  0  0  0  0  0  0  0  0  0  0
    2.0385    0.0872   -0.1720 C   0  0  0  0  0  0  0  0  0  0  0  0
    1.3380   -1.2278   -0.5475 C   0  0  0  0  0  0  0  0  0  0  0  0
   -0.1142   -0.9107   -0.5039 C   0  0  0  0  0  0  0  0  0  0  0  0
   -0.5850   -0.5668    0.9120 C   0  0  0  0  0  0  0  0  0  0  0  0
    0.2573    0.4702    1.2808 O   0  0  0  0  0  0  0  0  0  0  0  0
   -2.5494   -0.7438    0.1450 H   0  0  0  0  0  0  0  0  0  0  0  0
   -2.3635    0.6325    1.3693 H   0  0  0  0  0  0  0  0  0  0  0  0
   -1.4746    2.0530   -0.2507 H   0  0  0  0  0  0  0  0  0  0  0  0
   -2.2003    0.9536   -1.4374 H   0  0  0  0  0  0  0  0  0  0  0  0
    0.2417    0.7097   -1.9493 H   0  0  0  0  0  0  0  0  0  0  0  0
    1.0852    2.0420    0.1656 H   0  0  0  0  0  0  0  0  0  0  0  0
    2.6426    0.4797   -0.9953 H   0  0  0  0  0  0  0  0  0  0  0  0
    2.5717   -0.0933    0.7643 H   0  0  0  0  0  0  0  0  0  0  0  0
    1.6058   -1.5534   -1.5510 H   0  0  0  0  0  0  0  0  0  0  0  0
    1.5946   -2.0368    0.1584 H   0  0  0  0  0  0  0  0  0  0  0  0
   -0.7844   -1.5243   -1.0614 H   0  0  0  0  0  0  0  0  0  0  0  0
   -0.6471   -1.4004    1.5751 H   0  0  0  0  0  0  0  0  0  0  0  0
  1  2  1  0
  2  3  1  0
  3  4  1  0
  4  5  1  0
  5  6  1  0
  6  7  1  0
  7  8  1  0
  8  9  1  0
  8  1  1  0
  7  3  1  0
  9  4  1  0
  1 10  1  0
  1 11  1  0
  2 12  1  0
  2 13  1  0
  3 14  1  0
  4 15  1  0
  5 16  1  0
  5 17  1  0
  6 18  1  0
  6 19  1  0
  7 20  1  0
  8 21  1  0
M  END
