
     RDKit          3D

 19 21  0  0  0  0  0  0  0  0999 V2000
    2.3117    0.8058   -0.6191 C   0  0  0  0  0  0  0  0  0  0  0  0
    2.6030   -0.5071   -0.0181 C   0  0  0  0  0  0  0  0  0  0  0  0
    1.2174    0.1131    0.2002 C   0  0  0  0  0  0  0  0  0  0  0  0
    0.1842   -0.3623   -0.5539 O   0  0  0  0  0  0  0  0  0  0  0  0
   -1.0430   -0.3734    0.0086 C   0  0  0  0  0  0  0  0  0  0  0  0
   -2.1510   -0.9078   -0.8648 C   0  0  0  0  0  0  0  0  0  0  0  0
   -2.8778    0.2565   -0.6435 O   0  0  0  0  0  0  0  0  0  0  0  0
   -1.9039    0.8217    0.1642 C   0  0  0  0  0  0  0  0  0  0  0  0
   -1.3985    0.0420    1.3538 C   0  0  0  0  0  0  0  0  0  0  0  0
    2.8211    1.6771   -0.1808 H   0  0  0  0  0  0  0  0  0  0  0  0
    2.2116    0.8309   -1.7162 H   0  0  0  0  0  0  0  0  0  0  0  0
    2.6557   -1.4019   -0.6833 H   0  0  0  0  0  0  0  0  0  0  0  0
    3.3044   -0.5510    0.8170 H   0  0  0  0  0  0  0  0  0  0  0  0
    1.0790    0.4785    1.2294 H   0  0  0  0  0  0  0  0  0  0  0  0
   -2.5803   -1.8286   -0.4354 H   0  0  0  0  0  0  0  0  0  0  0  0
   -1.8667   -1.0205   -1.9449 H   0  0  0  0  0  0  0  0  0  0  0  0
   -1.5519    1.8401   -0.0265 H   0  0  0  0  0  0  0  0  0  0  0  0
   -2.2269   -0.5256    1.8703 H   0  0  0  0  0  0  0  0  0  0  0  0
   -0.7879    0.6126    2.0429 H   0  0  0  0  0  0  0  0  0  0  0  0
  1  2  1  0
  2  3  1  0
  3  4  1  0
  4  5  1  0
  5  6  1  0
  6  7  1  0
  7  8  1  0
  8  9  1  0
  3  1  1  0
  8  5  1  0
  9  5  1  0
  1 10  1  0
  1 11  1  0
  2 12  1  0
  2 13  1  0
  3 14  1  0
  6 15  1  0
  6 16  1  0
  8 17  1  0
  9 18  1  0
  9 19  1  0
M  END
