
     RDKit          3D

 22 23  0  0  0  0  0  0  0  0999 V2000
    2.0531   -0.0632    0.0303 C   0  0  0  0  0  0  0  0  0  0  0  0
    1.2390   -1.2981    0.2654 C   0  0  0  0  0  0  0  0  0  0  0  0
   -0.0670   -1.2141   -0.4428 C   0  0  0  0  0  0  0  0  0  0  0  0
   -0.8223    0.0553   -0.1438 C   0  0  0  0  0  0  0  0  0  0  0  0
    0.0297    1.2635   -0.0191 C   0  0  0  0  0  0  0  0  0  0  0  0
    1.3075    1.0801    0.7129 C   0  0  0  0  0  0  0  0  0  0  0  0
   -2.1027    0.2739   -0.9026 C   0  0  0  0  0  0  0  0  0  0  0  0
   -2.1283   -0.0911    0.5129 C   0  0  0  0  0  0  0  0  0  0  0  0
    3.0941   -0.1338    0.3355 H   0  0  0  0  0  0  0  0  0  0  0  0
    2.0124    0.1564   -1.0666 H   0  0  0  0  0  0  0  0  0  0  0  0
    1.0867   -1.3932    1.3639 H   0  0  0  0  0  0  0  0  0  0  0  0
    1.7899   -2.1783   -0.1076 H   0  0  0  0  0  0  0  0  0  0  0  0
    0.0983   -1.3282   -1.5252 H   0  0  0  0  0  0  0  0  0  0  0  0
   -0.6673   -2.1027   -0.1268 H   0  0  0  0  0  0  0  0  0  0  0  0
    0.2593    1.7032   -1.0270 H   0  0  0  0  0  0  0  0  0  0  0  0
   -0.5800    2.0493    0.5165 H   0  0  0  0  0  0  0  0  0  0  0  0
    1.8740    2.0179    0.6900 H   0  0  0  0  0  0  0  0  0  0  0  0
    1.1129    0.7869    1.7596 H   0  0  0  0  0  0  0  0  0  0  0  0
   -2.4083    1.3215   -1.1541 H   0  0  0  0  0  0  0  0  0  0  0  0
   -2.3004   -0.4304   -1.7242 H   0  0  0  0  0  0  0  0  0  0  0  0
   -2.4752   -1.1273    0.7900 H   0  0  0  0  0  0  0  0  0  0  0  0
   -2.4054    0.6525    1.2625 H   0  0  0  0  0  0  0  0  0  0  0  0
  1  2  1  0
  2  3  1  0
  3  4  1  0
  4  5  1  0
  5  6  1  0
  4  7  1  0
  7  8  1  0
  6  1  1  0
  8  4  1  0
  1  9  1  0
  1 10  1  0
  2 11  1  0
  2 12  1  0
  3 13  1  0
  3 14  1  0
  5 15  1  0
  5 16  1  0
  6 17  1  0
  6 18  1  0
  7 19  1  0
  7 20  1  0
  8 21  1  0
  8 22  1  0
M  END
