
     RDKit          3D

 21 23  0  0  0  0  0  0  0  0999 V2000
   -0.0664    1.5199    0.3923 C   0  0  0  0  0  0  0  0  0  0  0  0
    1.2923    1.0286   -0.0017 C   0  0  0  0  0  0  0  0  0  0  0  0
    1.6319   -0.3358    0.4282 C   0  0  0  0  0  0  0  0  0  0  0  0
    1.8907   -1.2136   -0.7626 O   0  0  0  0  0  0  0  0  0  0  0  0
    0.8287   -1.4391    0.1042 C   0  0  0  0  0  0  0  0  0  0  0  0
   -0.5785   -1.2712   -0.3277 C   0  0  0  0  0  0  0  0  0  0  0  0
   -0.8487   -0.1793   -1.2866 C   0  0  0  0  0  0  0  0  0  0  0  0
   -1.1979    0.7260   -0.1437 C   0  0  0  0  0  0  0  0  0  0  0  0
   -1.3394   -0.5220    0.7387 C   0  0  0  0  0  0  0  0  0  0  0  0
   -0.1337    2.5907    0.1050 H   0  0  0  0  0  0  0  0  0  0  0  0
   -0.1174    1.4738    1.5183 H   0  0  0  0  0  0  0  0  0  0  0  0
    1.4173    1.2193   -1.1084 H   0  0  0  0  0  0  0  0  0  0  0  0
    2.0298    1.7550    0.4571 H   0  0  0  0  0  0  0  0  0  0  0  0
    2.4592   -0.4560    1.1884 H   0  0  0  0  0  0  0  0  0  0  0  0
    0.9794   -2.3890    0.7010 H   0  0  0  0  0  0  0  0  0  0  0  0
   -1.0863   -2.2392   -0.5513 H   0  0  0  0  0  0  0  0  0  0  0  0
   -1.7932   -0.4011   -1.8667 H   0  0  0  0  0  0  0  0  0  0  0  0
   -0.0756    0.1380   -1.9768 H   0  0  0  0  0  0  0  0  0  0  0  0
   -2.1471    1.2867   -0.2270 H   0  0  0  0  0  0  0  0  0  0  0  0
   -2.3630   -0.8495    0.9137 H   0  0  0  0  0  0  0  0  0  0  0  0
   -0.7821   -0.4422    1.7057 H   0  0  0  0  0  0  0  0  0  0  0  0
  1  2  1  0
  2  3  1  0
  3  4  1  0
  4  5  1  0
  5  6  1  0
  6  7  1  0
  7  8  1  0
  8  9  1  0
  8  1  1  0
  5  3  1  0
  9  6  1  0
  1 10  1  0
  1 11  1  0
  2 12  1  0
  2 13  1  0
  3 14  1  0
  5 15  1  0
  6 16  1  0
  7 17  1  0
  7 18  1  0
  8 19  1  0
  9 20  1  0
  9 21  1  0
M  END
