
     RDKit          3D

 23 24  0  0  0  0  0  0  0  0999 V2000
   -2.0752   -0.7127    0.4064 C   0  0  0  0  0  0  0  0  0  0  0  0
   -2.1556    0.4435   -0.5392 C   0  0  0  0  0  0  0  0  0  0  0  0
   -0.8603    1.2078   -0.4296 C   0  0  0  0  0  0  0  0  0  0  0  0
    0.0779    0.1854    0.1369 C   0  0  0  0  0  0  0  0  0  0  0  0
   -0.7277   -0.6264    1.1031 C   0  0  0  0  0  0  0  0  0  0  0  0
    1.2535    0.8738    0.7295 C   0  0  0  0  0  0  0  0  0  0  0  0
    2.4438    0.1350    0.1000 C   0  0  0  0  0  0  0  0  0  0  0  0
    1.7660   -1.1703   -0.3025 C   0  0  0  0  0  0  0  0  0  0  0  0
    0.5686   -0.6910   -0.8403 O   0  0  0  0  0  0  0  0  0  0  0  0
   -2.1487   -1.6488   -0.2118 H   0  0  0  0  0  0  0  0  0  0  0  0
   -2.9094   -0.6976    1.1458 H   0  0  0  0  0  0  0  0  0  0  0  0
   -3.0445    1.0470   -0.3014 H   0  0  0  0  0  0  0  0  0  0  0  0
   -2.2302    0.1172   -1.6176 H   0  0  0  0  0  0  0  0  0  0  0  0
   -0.5157    1.5999   -1.4148 H   0  0  0  0  0  0  0  0  0  0  0  0
   -1.0077    1.9993    0.3212 H   0  0  0  0  0  0  0  0  0  0  0  0
   -0.8002   -0.2148    2.1075 H   0  0  0  0  0  0  0  0  0  0  0  0
   -0.3525   -1.6888    1.1504 H   0  0  0  0  0  0  0  0  0  0  0  0
    1.3712    1.9377    0.3914 H   0  0  0  0  0  0  0  0  0  0  0  0
    1.3359    0.8124    1.8221 H   0  0  0  0  0  0  0  0  0  0  0  0
    2.8558    0.6761   -0.7552 H   0  0  0  0  0  0  0  0  0  0  0  0
    3.2001   -0.1307    0.8575 H   0  0  0  0  0  0  0  0  0  0  0  0
    2.3314   -1.7065   -1.0856 H   0  0  0  0  0  0  0  0  0  0  0  0
    1.6235   -1.7472    0.6203 H   0  0  0  0  0  0  0  0  0  0  0  0
  1  2  1  0
  2  3  1  0
  3  4  1  0
  4  5  1  0
  4  6  1  0
  6  7  1  0
  7  8  1  0
  8  9  1  0
  5  1  1  0
  9  4  1  0
  1 10  1  0
  1 11  1  0
  2 12  1  0
  2 13  1  0
  3 14  1  0
  3 15  1  0
  5 16  1  0
  5 17  1  0
  6 18  1  0
  6 19  1  0
  7 20  1  0
  7 21  1  0
  8 22  1  0
  8 23  1  0
M  END
