
     RDKit          3D

 16 18  0  0  0  0  0  0  0  0999 V2000
    1.6009    0.2147   -0.4760 C   0  0  0  0  0  0  0  0  0  0  0  0
    1.1343   -0.5098    0.7398 C   0  0  0  0  0  0  0  0  0  0  0  0
   -0.3513   -0.3337    0.7069 C   0  0  0  0  0  0  0  0  0  0  0  0
   -1.0879   -1.1731   -0.2817 C   0  0  0  0  0  0  0  0  0  0  0  0
   -0.6275    0.1791   -0.6539 C   0  0  0  0  0  0  0  0  0  0  0  0
   -1.3940    1.3182    0.0192 C   0  0  0  0  0  0  0  0  0  0  0  0
   -0.9442    0.7961    1.2400 O   0  0  0  0  0  0  0  0  0  0  0  0
    0.5396    0.4337   -1.3077 O   0  0  0  0  0  0  0  0  0  0  0  0
    2.3339   -0.4371   -1.0242 H   0  0  0  0  0  0  0  0  0  0  0  0
    2.1705    1.1214   -0.1951 H   0  0  0  0  0  0  0  0  0  0  0  0
    1.3403   -1.6025    0.6462 H   0  0  0  0  0  0  0  0  0  0  0  0
    1.6081   -0.1664    1.6776 H   0  0  0  0  0  0  0  0  0  0  0  0
   -2.1962   -1.2797   -0.1455 H   0  0  0  0  0  0  0  0  0  0  0  0
   -0.5830   -2.0646   -0.6445 H   0  0  0  0  0  0  0  0  0  0  0  0
   -2.4987    1.1815   -0.0718 H   0  0  0  0  0  0  0  0  0  0  0  0
   -1.0447    2.3221   -0.2292 H   0  0  0  0  0  0  0  0  0  0  0  0
  1  2  1  0
  2  3  1  0
  3  4  1  0
  4  5  1  0
  5  6  1  0
  6  7  1  0
  5  8  1  0
  8  1  1  0
  5  3  1  0
  7  3  1  0
  1  9  1  0
  1 10  1  0
  2 11  1  0
  2 12  1  0
  4 13  1  0
  4 14  1  0
  6 15  1  0
  6 16  1  0
M  END
