
     RDKit          3D

 19 21  0  0  0  0  0  0  0  0999 V2000
    2.1745    0.2473   -0.0106 C   0  0  0  0  0  0  0  0  0  0  0  0
    0.8091    0.9404   -0.0635 C   0  0  0  0  0  0  0  0  0  0  0  0
   -0.1097   -0.2305    0.0854 C   0  0  0  0  0  0  0  0  0  0  0  0
    0.7269   -1.4434    0.2402 C   0  0  0  0  0  0  0  0  0  0  0  0
    1.9368   -1.0858   -0.3092 O   0  0  0  0  0  0  0  0  0  0  0  0
   -1.3220   -0.0750    0.9063 C   0  0  0  0  0  0  0  0  0  0  0  0
   -1.8461    0.8733   -0.1455 C   0  0  0  0  0  0  0  0  0  0  0  0
   -1.2751   -0.3125   -0.8366 C   0  0  0  0  0  0  0  0  0  0  0  0
   -1.8950   -1.0880    0.1526 O   0  0  0  0  0  0  0  0  0  0  0  0
    2.8449    0.6710   -0.7720 H   0  0  0  0  0  0  0  0  0  0  0  0
    2.5318    0.3180    1.0188 H   0  0  0  0  0  0  0  0  0  0  0  0
    0.6403    1.4494   -1.0196 H   0  0  0  0  0  0  0  0  0  0  0  0
    0.6669    1.6057    0.8206 H   0  0  0  0  0  0  0  0  0  0  0  0
    0.7808   -1.8555    1.2527 H   0  0  0  0  0  0  0  0  0  0  0  0
    0.3111   -2.2651   -0.4109 H   0  0  0  0  0  0  0  0  0  0  0  0
   -1.4105    0.0539    1.9032 H   0  0  0  0  0  0  0  0  0  0  0  0
   -2.9487    0.8862   -0.2267 H   0  0  0  0  0  0  0  0  0  0  0  0
   -1.3415    1.8321   -0.2410 H   0  0  0  0  0  0  0  0  0  0  0  0
   -1.2743   -0.5215   -1.8222 H   0  0  0  0  0  0  0  0  0  0  0  0
  1  2  1  0
  2  3  1  0
  3  4  1  0
  4  5  1  0
  3  6  1  0
  6  7  1  0
  7  8  1  0
  8  9  1  0
  5  1  1  0
  9  6  1  0
  8  3  1  0
  1 10  1  0
  1 11  1  0
  2 12  1  0
  2 13  1  0
  4 14  1  0
  4 15  1  0
  6 16  1  0
  7 17  1  0
  7 18  1  0
  8 19  1  0
M  END
