
     RDKit          3D

 19 21  0  0  0  0  0  0  0  0999 V2000
   -1.6766    0.2389   -0.1255 C   0  0  0  0  0  0  0  0  0  0  0  0
   -0.7442    1.4631   -0.1897 C   0  0  0  0  0  0  0  0  0  0  0  0
    0.5313    0.9731    0.4513 C   0  0  0  0  0  0  0  0  0  0  0  0
    1.7132    1.3528   -0.1158 O   0  0  0  0  0  0  0  0  0  0  0  0
    2.1151   -0.0061   -0.0313 C   0  0  0  0  0  0  0  0  0  0  0  0
    0.7553   -0.3866   -0.1953 C   0  0  0  0  0  0  0  0  0  0  0  0
    0.0483   -1.4846    0.4104 C   0  0  0  0  0  0  0  0  0  0  0  0
   -0.9827   -1.0010   -0.6172 C   0  0  0  0  0  0  0  0  0  0  0  0
    0.1280   -0.5560   -1.3758 O   0  0  0  0  0  0  0  0  0  0  0  0
   -2.6332    0.4229   -0.6075 H   0  0  0  0  0  0  0  0  0  0  0  0
   -1.8443    0.0849    0.9801 H   0  0  0  0  0  0  0  0  0  0  0  0
   -1.2123    2.2884    0.3565 H   0  0  0  0  0  0  0  0  0  0  0  0
   -0.6341    1.6826   -1.2595 H   0  0  0  0  0  0  0  0  0  0  0  0
    0.4566    0.9686    1.5444 H   0  0  0  0  0  0  0  0  0  0  0  0
    2.8867   -0.2721   -0.7834 H   0  0  0  0  0  0  0  0  0  0  0  0
    2.5313   -0.1956    0.9789 H   0  0  0  0  0  0  0  0  0  0  0  0
    0.4396   -2.4745    0.1888 H   0  0  0  0  0  0  0  0  0  0  0  0
   -0.2929   -1.3256    1.4684 H   0  0  0  0  0  0  0  0  0  0  0  0
   -1.5850   -1.7731   -1.0778 H   0  0  0  0  0  0  0  0  0  0  0  0
  1  2  1  0
  2  3  1  0
  3  4  1  0
  4  5  1  0
  5  6  1  0
  6  7  1  0
  7  8  1  0
  8  9  1  0
  8  1  1  0
  6  3  1  0
  9  6  1  0
  1 10  1  0
  1 11  1  0
  2 12  1  0
  2 13  1  0
  3 14  1  0
  5 15  1  0
  5 16  1  0
  7 17  1  0
  7 18  1  0
  8 19  1  0
M  END
