
     RDKit          3D

 21 22  0  0  0  0  0  0  0  0999 V2000
   -1.9901    0.6490    0.2510 C   0  0  0  0  0  0  0  0  0  0  0  0
   -1.3900   -0.3433   -0.7059 C   0  0  0  0  0  0  0  0  0  0  0  0
   -0.1335   -0.8101    0.0120 C   0  0  0  0  0  0  0  0  0  0  0  0
    0.8455   -1.3611   -0.9460 C   0  0  0  0  0  0  0  0  0  0  0  0
    2.1145   -0.9055   -0.8772 O   0  0  0  0  0  0  0  0  0  0  0  0
    2.3539    0.2311   -0.1848 C   0  0  0  0  0  0  0  0  0  0  0  0
    1.2679    1.0586    0.0129 O   0  0  0  0  0  0  0  0  0  0  0  0
    0.3489    0.3809    0.7945 C   0  0  0  0  0  0  0  0  0  0  0  0
   -0.8475    1.2979    0.9777 C   0  0  0  0  0  0  0  0  0  0  0  0
   -2.5593    1.4309   -0.2828 H   0  0  0  0  0  0  0  0  0  0  0  0
   -2.5930    0.1039    1.0083 H   0  0  0  0  0  0  0  0  0  0  0  0
   -1.1830    0.0868   -1.6948 H   0  0  0  0  0  0  0  0  0  0  0  0
   -2.1167   -1.1850   -0.7947 H   0  0  0  0  0  0  0  0  0  0  0  0
   -0.4735   -1.5678    0.7682 H   0  0  0  0  0  0  0  0  0  0  0  0
    0.4832   -1.2350   -2.0067 H   0  0  0  0  0  0  0  0  0  0  0  0
    0.8681   -2.4825   -0.8078 H   0  0  0  0  0  0  0  0  0  0  0  0
    2.8433    0.0013    0.7966 H   0  0  0  0  0  0  0  0  0  0  0  0
    3.1146    0.8350   -0.7530 H   0  0  0  0  0  0  0  0  0  0  0  0
    0.7490    0.0559    1.7726 H   0  0  0  0  0  0  0  0  0  0  0  0
   -0.6453    2.3236    0.5915 H   0  0  0  0  0  0  0  0  0  0  0  0
   -1.0574    1.4354    2.0683 H   0  0  0  0  0  0  0  0  0  0  0  0
  1  2  1  0
  2  3  1  0
  3  4  1  0
  4  5  1  0
  5  6  1  0
  6  7  1  0
  7  8  1  0
  8  9  1  0
  9  1  1  0
  8  3  1  0
  1 10  1  0
  1 11  1  0
  2 12  1  0
  2 13  1  0
  3 14  1  0
  4 15  1  0
  4 16  1  0
  6 17  1  0
  6 18  1  0
  8 19  1  0
  9 20  1  0
  9 21  1  0
M  END
