
     RDKit          3D

 16 18  0  0  0  0  0  0  0  0999 V2000
    0.7451    1.2724   -0.3872 C   0  0  0  0  0  0  0  0  0  0  0  0
   -0.7591    1.2792   -0.3172 C   0  0  0  0  0  0  0  0  0  0  0  0
   -0.7318   -0.2141   -0.0946 C   0  0  0  0  0  0  0  0  0  0  0  0
   -1.7565   -0.9670    0.4118 C   0  0  0  0  0  0  0  0  0  0  0  0
   -1.3456   -1.0701   -0.9639 O   0  0  0  0  0  0  0  0  0  0  0  0
    0.7039   -0.1540    0.1525 C   0  0  0  0  0  0  0  0  0  0  0  0
    1.7571   -1.0007    0.0546 C   0  0  0  0  0  0  0  0  0  0  0  0
    1.3024   -0.4447    1.3520 O   0  0  0  0  0  0  0  0  0  0  0  0
    1.1550    1.3365   -1.4066 H   0  0  0  0  0  0  0  0  0  0  0  0
    1.2266    1.9179    0.3743 H   0  0  0  0  0  0  0  0  0  0  0  0
   -1.2942    1.5190   -1.2352 H   0  0  0  0  0  0  0  0  0  0  0  0
   -1.1297    1.7857    0.6069 H   0  0  0  0  0  0  0  0  0  0  0  0
   -2.8072   -0.6173    0.4942 H   0  0  0  0  0  0  0  0  0  0  0  0
   -1.5941   -1.8977    1.0243 H   0  0  0  0  0  0  0  0  0  0  0  0
    1.7319   -2.1058    0.1340 H   0  0  0  0  0  0  0  0  0  0  0  0
    2.7961   -0.6391   -0.1997 H   0  0  0  0  0  0  0  0  0  0  0  0
  1  2  1  0
  2  3  1  0
  3  4  1  0
  4  5  1  0
  3  6  1  0
  6  7  1  0
  7  8  1  0
  6  1  1  0
  5  3  1  0
  8  6  1  0
  1  9  1  0
  1 10  1  0
  2 11  1  0
  2 12  1  0
  4 13  1  0
  4 14  1  0
  7 15  1  0
  7 16  1  0
M  END
