
     RDKit          3D

 21 23  0  0  0  0  0  0  0  0999 V2000
    2.2316    0.4406    0.3207 C   0  0  0  0  0  0  0  0  0  0  0  0
    1.6744   -0.9644    0.5833 C   0  0  0  0  0  0  0  0  0  0  0  0
    0.5186   -0.3387   -0.1068 C   0  0  0  0  0  0  0  0  0  0  0  0
   -0.4082   -1.1943   -0.8739 C   0  0  0  0  0  0  0  0  0  0  0  0
   -1.7865   -0.5721   -0.7803 C   0  0  0  0  0  0  0  0  0  0  0  0
   -1.7212    0.5218    0.2280 C   0  0  0  0  0  0  0  0  0  0  0  0
   -0.9082    1.7326    0.0388 C   0  0  0  0  0  0  0  0  0  0  0  0
   -0.3570    0.5097    0.7639 C   0  0  0  0  0  0  0  0  0  0  0  0
    1.4029    0.4554   -0.8249 O   0  0  0  0  0  0  0  0  0  0  0  0
    3.2705    0.4736   -0.0009 H   0  0  0  0  0  0  0  0  0  0  0  0
    1.9285    1.1211    1.1193 H   0  0  0  0  0  0  0  0  0  0  0  0
    2.1911   -1.7621    0.0599 H   0  0  0  0  0  0  0  0  0  0  0  0
    1.5431   -1.1431    1.6693 H   0  0  0  0  0  0  0  0  0  0  0  0
   -0.1192   -1.1370   -1.9603 H   0  0  0  0  0  0  0  0  0  0  0  0
   -0.3988   -2.2631   -0.5986 H   0  0  0  0  0  0  0  0  0  0  0  0
   -2.1904   -0.2565   -1.7470 H   0  0  0  0  0  0  0  0  0  0  0  0
   -2.4625   -1.3789   -0.3926 H   0  0  0  0  0  0  0  0  0  0  0  0
   -2.6125    0.6234    0.8690 H   0  0  0  0  0  0  0  0  0  0  0  0
   -1.0854    2.5798    0.7135 H   0  0  0  0  0  0  0  0  0  0  0  0
   -0.4676    2.0227   -0.9316 H   0  0  0  0  0  0  0  0  0  0  0  0
   -0.2432    0.5297    1.8513 H   0  0  0  0  0  0  0  0  0  0  0  0
  1  2  1  0
  2  3  1  0
  3  4  1  0
  4  5  1  0
  5  6  1  0
  6  7  1  0
  7  8  1  0
  3  9  1  0
  9  1  1  0
  8  3  1  0
  8  6  1  0
  1 10  1  0
  1 11  1  0
  2 12  1  0
  2 13  1  0
  4 14  1  0
  4 15  1  0
  5 16  1  0
  5 17  1  0
  6 18  1  0
  7 19  1  0
  7 20  1  0
  8 21  1  0
M  END
