
     RDKit          3D

 16 17  0  0  0  0  0  0  0  0999 V2000
   -1.7952   -0.6474    0.6942 C   0  0  0  0  0  0  0  0  0  0  0  0
   -1.6296    0.1898   -0.5919 C   0  0  0  0  0  0  0  0  0  0  0  0
   -0.6285    0.2817    0.4639 C   0  0  0  0  0  0  0  0  0  0  0  0
    0.7521   -0.2822    0.3578 C   0  0  0  0  0  0  0  0  0  0  0  0
    1.8353    0.7587    0.1260 C   0  0  0  0  0  0  0  0  0  0  0  0
    1.5248   -0.3359   -0.8724 C   0  0  0  0  0  0  0  0  0  0  0  0
   -2.6077   -0.3493    1.3820 H   0  0  0  0  0  0  0  0  0  0  0  0
   -1.6347   -1.7406    0.6055 H   0  0  0  0  0  0  0  0  0  0  0  0
   -1.5408   -0.4092   -1.4970 H   0  0  0  0  0  0  0  0  0  0  0  0
   -2.3794    1.0268   -0.7016 H   0  0  0  0  0  0  0  0  0  0  0  0
   -0.6786    1.2064    1.1072 H   0  0  0  0  0  0  0  0  0  0  0  0
    0.9939   -1.0231    1.1665 H   0  0  0  0  0  0  0  0  0  0  0  0
    2.7427    0.7113    0.7391 H   0  0  0  0  0  0  0  0  0  0  0  0
    1.5516    1.7717   -0.1912 H   0  0  0  0  0  0  0  0  0  0  0  0
    2.3356   -1.1120   -0.9251 H   0  0  0  0  0  0  0  0  0  0  0  0
    1.1587   -0.0467   -1.8628 H   0  0  0  0  0  0  0  0  0  0  0  0
  1  2  1  0
  2  3  1  0
  3  4  1  0
  4  5  1  0
  5  6  1  0
  3  1  1  0
  6  4  1  0
  1  7  1  0
  1  8  1  0
  2  9  1  0
  2 10  1  0
  3 11  1  0
  4 12  1  0
  5 13  1  0
  5 14  1  0
  6 15  1  0
  6 16  1  0
M  END
