
     RDKit          3D

 18 20  0  0  0  0  0  0  0  0999 V2000
    1.8132    0.1381   -0.8766 C   0  0  0  0  0  0  0  0  0  0  0  0
    2.1859   -0.4673    0.4132 C   0  0  0  0  0  0  0  0  0  0  0  0
    0.7625   -0.5386   -0.0742 C   0  0  0  0  0  0  0  0  0  0  0  0
   -0.3006    0.2666    0.6056 C   0  0  0  0  0  0  0  0  0  0  0  0
   -1.1486    1.0973   -0.3706 C   0  0  0  0  0  0  0  0  0  0  0  0
   -2.2545    0.0631   -0.1139 C   0  0  0  0  0  0  0  0  0  0  0  0
   -1.8888   -1.2647   -0.4088 O   0  0  0  0  0  0  0  0  0  0  0  0
   -1.5677   -0.5311    0.8552 C   0  0  0  0  0  0  0  0  0  0  0  0
    1.8492    1.2506   -0.9115 H   0  0  0  0  0  0  0  0  0  0  0  0
    2.0572   -0.3243   -1.8437 H   0  0  0  0  0  0  0  0  0  0  0  0
    2.3551    0.1935    1.2838 H   0  0  0  0  0  0  0  0  0  0  0  0
    2.8141   -1.3750    0.4069 H   0  0  0  0  0  0  0  0  0  0  0  0
    0.4641   -1.5674   -0.3924 H   0  0  0  0  0  0  0  0  0  0  0  0
    0.0046    0.8366    1.4956 H   0  0  0  0  0  0  0  0  0  0  0  0
   -0.8356    1.0430   -1.4110 H   0  0  0  0  0  0  0  0  0  0  0  0
   -1.3777    2.0779    0.0548 H   0  0  0  0  0  0  0  0  0  0  0  0
   -3.2715    0.3026   -0.4012 H   0  0  0  0  0  0  0  0  0  0  0  0
   -1.6609   -1.2007    1.6889 H   0  0  0  0  0  0  0  0  0  0  0  0
  1  2  1  0
  2  3  1  0
  3  4  1  0
  4  5  1  0
  5  6  1  0
  6  7  1  0
  7  8  1  0
  3  1  1  0
  8  4  1  0
  8  6  1  0
  1  9  1  0
  1 10  1  0
  2 11  1  0
  2 12  1  0
  3 13  1  0
  4 14  1  0
  5 15  1  0
  5 16  1  0
  6 17  1  0
  8 18  1  0
M  END
