
     RDKit          3D

 21 22  0  0  0  0  0  0  0  0999 V2000
   -1.7496    0.6396    0.4572 C   0  0  0  0  0  0  0  0  0  0  0  0
   -1.8392   -0.8044    0.0366 C   0  0  0  0  0  0  0  0  0  0  0  0
   -0.6122   -1.2895   -0.6834 C   0  0  0  0  0  0  0  0  0  0  0  0
    0.6256   -0.6201   -0.2459 C   0  0  0  0  0  0  0  0  0  0  0  0
    0.5829    0.6996   -0.0901 C   0  0  0  0  0  0  0  0  0  0  0  0
   -0.6987    1.3916   -0.3670 C   0  0  0  0  0  0  0  0  0  0  0  0
    1.9449    1.1046    0.3498 C   0  0  0  0  0  0  0  0  0  0  0  0
    2.7303    0.1377   -0.2754 O   0  0  0  0  0  0  0  0  0  0  0  0
    2.0219   -1.0298    0.0989 C   0  0  0  0  0  0  0  0  0  0  0  0
   -1.4040    0.7224    1.5103 H   0  0  0  0  0  0  0  0  0  0  0  0
   -2.7022    1.1875    0.3313 H   0  0  0  0  0  0  0  0  0  0  0  0
   -2.0032   -1.4393    0.9420 H   0  0  0  0  0  0  0  0  0  0  0  0
   -2.7063   -0.9484   -0.6408 H   0  0  0  0  0  0  0  0  0  0  0  0
   -0.5054   -2.3733   -0.4636 H   0  0  0  0  0  0  0  0  0  0  0  0
   -0.7071   -1.1957   -1.7870 H   0  0  0  0  0  0  0  0  0  0  0  0
   -0.9820    1.3548   -1.4404 H   0  0  0  0  0  0  0  0  0  0  0  0
   -0.6825    2.4285   -0.0060 H   0  0  0  0  0  0  0  0  0  0  0  0
    2.2107    2.1303    0.0697 H   0  0  0  0  0  0  0  0  0  0  0  0
    2.0122    0.9113    1.4403 H   0  0  0  0  0  0  0  0  0  0  0  0
    2.1059   -1.0948    1.2010 H   0  0  0  0  0  0  0  0  0  0  0  0
    2.3581   -1.9127   -0.4376 H   0  0  0  0  0  0  0  0  0  0  0  0
  1  2  1  0
  2  3  1  0
  3  4  1  0
  4  5  2  0
  5  6  1  0
  5  7  1  0
  7  8  1  0
  8  9  1  0
  6  1  1  0
  9  4  1  0
  1 10  1  0
  1 11  1  0
  2 12  1  0
  2 13  1  0
  3 14  1  0
  3 15  1  0
  6 16  1  0
  6 17  1  0
  7 18  1  0
  7 19  1  0
  9 20  1  0
  9 21  1  0
M  END
