
     RDKit          3D

 21 23  0  0  0  0  0  0  0  0999 V2000
   -1.5640    0.5592    0.2261 C   0  0  0  0  0  0  0  0  0  0  0  0
   -1.3209   -0.6676   -0.5706 C   0  0  0  0  0  0  0  0  0  0  0  0
    0.1053   -1.1701   -0.5020 C   0  0  0  0  0  0  0  0  0  0  0  0
    0.5080   -1.3248    0.9164 C   0  0  0  0  0  0  0  0  0  0  0  0
    1.6247   -0.5849    1.1692 O   0  0  0  0  0  0  0  0  0  0  0  0
    1.8596    0.2672    0.1140 C   0  0  0  0  0  0  0  0  0  0  0  0
    0.8011    1.2103   -0.3716 C   0  0  0  0  0  0  0  0  0  0  0  0
   -0.4056    1.4501    0.4410 C   0  0  0  0  0  0  0  0  0  0  0  0
    0.9853   -0.0709   -1.0101 C   0  0  0  0  0  0  0  0  0  0  0  0
   -2.4395    1.0975   -0.2454 H   0  0  0  0  0  0  0  0  0  0  0  0
   -1.9720    0.2331    1.2288 H   0  0  0  0  0  0  0  0  0  0  0  0
   -1.9689   -1.5051   -0.2273 H   0  0  0  0  0  0  0  0  0  0  0  0
   -1.5095   -0.4442   -1.6614 H   0  0  0  0  0  0  0  0  0  0  0  0
    0.1940   -2.0570   -1.1243 H   0  0  0  0  0  0  0  0  0  0  0  0
   -0.2995   -0.9766    1.6210 H   0  0  0  0  0  0  0  0  0  0  0  0
    0.6364   -2.4266    1.1220 H   0  0  0  0  0  0  0  0  0  0  0  0
    2.9285    0.5358   -0.0356 H   0  0  0  0  0  0  0  0  0  0  0  0
    1.2167    2.1078   -0.9197 H   0  0  0  0  0  0  0  0  0  0  0  0
   -0.0850    1.4301    1.5263 H   0  0  0  0  0  0  0  0  0  0  0  0
   -0.7726    2.5122    0.3049 H   0  0  0  0  0  0  0  0  0  0  0  0
    1.4777   -0.1754   -2.0017 H   0  0  0  0  0  0  0  0  0  0  0  0
  1  2  1  0
  2  3  1  0
  3  4  1  0
  4  5  1  0
  5  6  1  0
  6  7  1  0
  7  8  1  0
  7  9  1  0
  8  1  1  0
  9  3  1  0
  9  6  1  0
  1 10  1  0
  1 11  1  0
  2 12  1  0
  2 13  1  0
  3 14  1  0
  4 15  1  0
  4 16  1  0
  6 17  1  0
  7 18  1  0
  8 19  1  0
  8 20  1  0
  9 21  1  0
M  END
