
     RDKit          3D

 23 25  0  0  0  0  0  0  0  0999 V2000
    2.3436   -0.4732    0.1986 C   0  0  0  0  0  0  0  0  0  0  0  0
    1.2428   -0.7661   -0.8163 C   0  0  0  0  0  0  0  0  0  0  0  0
    0.3964    0.2426   -0.1344 C   0  0  0  0  0  0  0  0  0  0  0  0
    1.3483    0.3581    1.0085 C   0  0  0  0  0  0  0  0  0  0  0  0
    0.0652    1.4949   -0.8795 C   0  0  0  0  0  0  0  0  0  0  0  0
   -1.4202    1.1938   -0.6340 C   0  0  0  0  0  0  0  0  0  0  0  0
   -1.0099   -0.0136    0.1120 C   0  0  0  0  0  0  0  0  0  0  0  0
   -1.6307   -0.5883    1.2739 C   0  0  0  0  0  0  0  0  0  0  0  0
   -1.7466   -1.2528   -0.0762 C   0  0  0  0  0  0  0  0  0  0  0  0
    2.7202   -1.3404    0.7473 H   0  0  0  0  0  0  0  0  0  0  0  0
    3.1295    0.1522   -0.2797 H   0  0  0  0  0  0  0  0  0  0  0  0
    1.5180   -0.5953   -1.8655 H   0  0  0  0  0  0  0  0  0  0  0  0
    0.8719   -1.8102   -0.6806 H   0  0  0  0  0  0  0  0  0  0  0  0
    1.0198   -0.1179    1.9533 H   0  0  0  0  0  0  0  0  0  0  0  0
    1.7607    1.3766    1.1855 H   0  0  0  0  0  0  0  0  0  0  0  0
    0.3648    1.5109   -1.9267 H   0  0  0  0  0  0  0  0  0  0  0  0
    0.3291    2.4400   -0.3499 H   0  0  0  0  0  0  0  0  0  0  0  0
   -1.9606    1.9881   -0.0988 H   0  0  0  0  0  0  0  0  0  0  0  0
   -1.8916    0.9482   -1.6223 H   0  0  0  0  0  0  0  0  0  0  0  0
   -0.9666   -1.1744    1.9748 H   0  0  0  0  0  0  0  0  0  0  0  0
   -2.5565   -0.2596    1.7621 H   0  0  0  0  0  0  0  0  0  0  0  0
   -2.7649   -1.1487   -0.5542 H   0  0  0  0  0  0  0  0  0  0  0  0
   -1.1628   -2.1649   -0.2978 H   0  0  0  0  0  0  0  0  0  0  0  0
  1  2  1  0
  2  3  1  0
  3  4  1  0
  3  5  1  0
  5  6  1  0
  6  7  1  0
  7  8  1  0
  8  9  1  0
  4  1  1  0
  9  7  1  0
  7  3  1  0
  1 10  1  0
  1 11  1  0
  2 12  1  0
  2 13  1  0
  4 14  1  0
  4 15  1  0
  5 16  1  0
  5 17  1  0
  6 18  1  0
  6 19  1  0
  8 20  1  0
  8 21  1  0
  9 22  1  0
  9 23  1  0
M  END
