
     RDKit          3D

 21 23  0  0  0  0  0  0  0  0999 V2000
    1.7081    1.0847   -0.1988 C   0  0  0  0  0  0  0  0  0  0  0  0
    1.5848   -0.2206    0.5514 C   0  0  0  0  0  0  0  0  0  0  0  0
    0.7535   -1.1917   -0.2195 C   0  0  0  0  0  0  0  0  0  0  0  0
   -0.6891   -1.3669   -0.0111 C   0  0  0  0  0  0  0  0  0  0  0  0
   -1.4401   -0.5051    0.9775 C   0  0  0  0  0  0  0  0  0  0  0  0
   -1.5991    0.8402    0.2978 C   0  0  0  0  0  0  0  0  0  0  0  0
   -0.5271    0.8973   -0.7756 C   0  0  0  0  0  0  0  0  0  0  0  0
    0.5197    1.7112   -0.4311 O   0  0  0  0  0  0  0  0  0  0  0  0
   -0.1861   -0.5018   -1.0970 C   0  0  0  0  0  0  0  0  0  0  0  0
    2.3079    0.9028   -1.1292 H   0  0  0  0  0  0  0  0  0  0  0  0
    2.3636    1.7517    0.4276 H   0  0  0  0  0  0  0  0  0  0  0  0
    2.6314   -0.6103    0.6665 H   0  0  0  0  0  0  0  0  0  0  0  0
    1.1819    0.0162    1.5497 H   0  0  0  0  0  0  0  0  0  0  0  0
    1.2933   -2.0667   -0.6452 H   0  0  0  0  0  0  0  0  0  0  0  0
   -1.1376   -2.3627   -0.1993 H   0  0  0  0  0  0  0  0  0  0  0  0
   -2.4362   -0.9350    1.1997 H   0  0  0  0  0  0  0  0  0  0  0  0
   -0.8872   -0.4248    1.9435 H   0  0  0  0  0  0  0  0  0  0  0  0
   -2.6135    0.9134   -0.1651 H   0  0  0  0  0  0  0  0  0  0  0  0
   -1.4477    1.6076    1.0810 H   0  0  0  0  0  0  0  0  0  0  0  0
   -1.0101    1.3565   -1.6873 H   0  0  0  0  0  0  0  0  0  0  0  0
   -0.3704   -0.8961   -2.1354 H   0  0  0  0  0  0  0  0  0  0  0  0
  1  2  1  0
  2  3  1  0
  3  4  1  0
  4  5  1  0
  5  6  1  0
  6  7  1  0
  7  8  1  0
  7  9  1  0
  8  1  1  0
  9  3  1  0
  9  4  1  0
  1 10  1  0
  1 11  1  0
  2 12  1  0
  2 13  1  0
  3 14  1  0
  4 15  1  0
  5 16  1  0
  5 17  1  0
  6 18  1  0
  6 19  1  0
  7 20  1  0
  9 21  1  0
M  END
