
     RDKit          3D

 21 23  0  0  0  0  0  0  0  0999 V2000
    2.4903    0.3428   -0.1645 C   0  0  0  0  0  0  0  0  0  0  0  0
    1.9605   -0.9349    0.4084 C   0  0  0  0  0  0  0  0  0  0  0  0
    1.1664   -0.2449   -0.6340 C   0  0  0  0  0  0  0  0  0  0  0  0
   -0.0205    0.5938   -0.3133 C   0  0  0  0  0  0  0  0  0  0  0  0
   -1.3353   -0.0291   -0.8010 C   0  0  0  0  0  0  0  0  0  0  0  0
   -2.3134    0.9430   -0.2451 C   0  0  0  0  0  0  0  0  0  0  0  0
   -1.7626    1.1246    1.0516 O   0  0  0  0  0  0  0  0  0  0  0  0
   -0.6651    0.3042    1.0537 C   0  0  0  0  0  0  0  0  0  0  0  0
   -1.1512   -0.9804    0.3912 C   0  0  0  0  0  0  0  0  0  0  0  0
    2.4614    1.1982    0.5400 H   0  0  0  0  0  0  0  0  0  0  0  0
    3.2880    0.3353   -0.9227 H   0  0  0  0  0  0  0  0  0  0  0  0
    1.6347   -0.9535    1.4760 H   0  0  0  0  0  0  0  0  0  0  0  0
    2.5346   -1.8320    0.1294 H   0  0  0  0  0  0  0  0  0  0  0  0
    1.1388   -0.7322   -1.6234 H   0  0  0  0  0  0  0  0  0  0  0  0
    0.0542    1.6764   -0.4582 H   0  0  0  0  0  0  0  0  0  0  0  0
   -1.3876   -0.4249   -1.7659 H   0  0  0  0  0  0  0  0  0  0  0  0
   -2.2297    1.8994   -0.8333 H   0  0  0  0  0  0  0  0  0  0  0  0
   -3.3502    0.5854   -0.1903 H   0  0  0  0  0  0  0  0  0  0  0  0
   -0.0225    0.2312    1.8893 H   0  0  0  0  0  0  0  0  0  0  0  0
   -0.3806   -1.7454    0.2478 H   0  0  0  0  0  0  0  0  0  0  0  0
   -2.1100   -1.3568    0.7642 H   0  0  0  0  0  0  0  0  0  0  0  0
  1  2  1  0
  2  3  1  0
  3  4  1  0
  4  5  1  0
  5  6  1  0
  6  7  1  0
  7  8  1  0
  8  9  1  0
  3  1  1  0
  8  4  1  0
  9  5  1  0
  1 10  1  0
  1 11  1  0
  2 12  1  0
  2 13  1  0
  3 14  1  0
  4 15  1  0
  5 16  1  0
  6 17  1  0
  6 18  1  0
  8 19  1  0
  9 20  1  0
  9 21  1  0
M  END
