
     RDKit          3D

 21 22  0  0  0  0  0  0  0  0999 V2000
   -2.6156    0.4829   -0.3805 C   0  0  0  0  0  0  0  0  0  0  0  0
   -2.2429   -0.9495    0.0231 C   0  0  0  0  0  0  0  0  0  0  0  0
   -0.8308   -0.4567    0.2104 C   0  0  0  0  0  0  0  0  0  0  0  0
   -0.0517   -0.3956   -0.9115 O   0  0  0  0  0  0  0  0  0  0  0  0
    1.2519   -0.7761   -0.7350 C   0  0  0  0  0  0  0  0  0  0  0  0
    1.9807    0.0821    0.2889 C   0  0  0  0  0  0  0  0  0  0  0  0
    3.1404    0.8463   -0.0980 C   0  0  0  0  0  0  0  0  0  0  0  0
    3.3730   -0.4345    0.3823 O   0  0  0  0  0  0  0  0  0  0  0  0
   -1.4341    0.9263    0.4915 C   0  0  0  0  0  0  0  0  0  0  0  0
   -2.4014    0.6486   -1.4380 H   0  0  0  0  0  0  0  0  0  0  0  0
   -3.5953    0.7760    0.0080 H   0  0  0  0  0  0  0  0  0  0  0  0
   -2.7050   -1.2897    0.9619 H   0  0  0  0  0  0  0  0  0  0  0  0
   -2.4161   -1.6235   -0.8180 H   0  0  0  0  0  0  0  0  0  0  0  0
   -0.3093   -0.8013    1.1000 H   0  0  0  0  0  0  0  0  0  0  0  0
    1.3666   -1.8268   -0.3857 H   0  0  0  0  0  0  0  0  0  0  0  0
    1.7628   -0.7286   -1.7188 H   0  0  0  0  0  0  0  0  0  0  0  0
    1.5636    0.0662    1.3060 H   0  0  0  0  0  0  0  0  0  0  0  0
    3.5045    1.6503    0.5674 H   0  0  0  0  0  0  0  0  0  0  0  0
    3.3148    1.0160   -1.1826 H   0  0  0  0  0  0  0  0  0  0  0  0
   -1.7622    1.0335    1.5287 H   0  0  0  0  0  0  0  0  0  0  0  0
   -0.8940    1.7540    0.0260 H   0  0  0  0  0  0  0  0  0  0  0  0
  1  2  1  0
  2  3  1  0
  3  4  1  0
  4  5  1  0
  5  6  1  0
  6  7  1  0
  7  8  1  0
  3  9  1  0
  9  1  1  0
  8  6  1  0
  1 10  1  0
  1 11  1  0
  2 12  1  0
  2 13  1  0
  3 14  1  0
  5 15  1  0
  5 16  1  0
  6 17  1  0
  7 18  1  0
  7 19  1  0
  9 20  1  0
  9 21  1  0
M  END
