
     RDKit          3D

 21 23  0  0  0  0  0  0  0  0999 V2000
   -2.4185    0.5530   -0.6691 C   0  0  0  0  0  0  0  0  0  0  0  0
   -2.5827    0.0141    0.7493 C   0  0  0  0  0  0  0  0  0  0  0  0
   -1.2341    0.4528    0.1622 C   0  0  0  0  0  0  0  0  0  0  0  0
   -0.2152   -0.6248    0.0839 C   0  0  0  0  0  0  0  0  0  0  0  0
    0.9251   -0.4793    1.0817 C   0  0  0  0  0  0  0  0  0  0  0  0
    1.8347   -0.1939   -0.0564 C   0  0  0  0  0  0  0  0  0  0  0  0
    2.8573    0.7293   -0.1540 C   0  0  0  0  0  0  0  0  0  0  0  0
    3.0901   -0.7271   -0.1080 O   0  0  0  0  0  0  0  0  0  0  0  0
    0.7746   -0.5373   -1.0508 C   0  0  0  0  0  0  0  0  0  0  0  0
   -2.6727   -0.1506   -1.4834 H   0  0  0  0  0  0  0  0  0  0  0  0
   -2.8863    1.5464   -0.7997 H   0  0  0  0  0  0  0  0  0  0  0  0
   -2.7868   -1.0715    0.8227 H   0  0  0  0  0  0  0  0  0  0  0  0
   -3.0091    0.6738    1.5252 H   0  0  0  0  0  0  0  0  0  0  0  0
   -0.8186    1.4195    0.5765 H   0  0  0  0  0  0  0  0  0  0  0  0
   -0.6754   -1.6228    0.0911 H   0  0  0  0  0  0  0  0  0  0  0  0
    1.1078   -1.4414    1.6197 H   0  0  0  0  0  0  0  0  0  0  0  0
    0.7592    0.3274    1.8161 H   0  0  0  0  0  0  0  0  0  0  0  0
    3.1844    1.1611   -1.1239 H   0  0  0  0  0  0  0  0  0  0  0  0
    3.2649    1.2558    0.7497 H   0  0  0  0  0  0  0  0  0  0  0  0
    0.5005    0.2264   -1.7824 H   0  0  0  0  0  0  0  0  0  0  0  0
    1.0007   -1.5109   -1.5460 H   0  0  0  0  0  0  0  0  0  0  0  0
  1  2  1  0
  2  3  1  0
  3  4  1  0
  4  5  1  0
  5  6  1  0
  6  7  1  0
  7  8  1  0
  6  9  1  0
  3  1  1  0
  9  4  1  0
  8  6  1  0
  1 10  1  0
  1 11  1  0
  2 12  1  0
  2 13  1  0
  3 14  1  0
  4 15  1  0
  5 16  1  0
  5 17  1  0
  7 18  1  0
  7 19  1  0
  9 20  1  0
  9 21  1  0
M  END
