
     RDKit          3D

 19 21  0  0  0  0  0  0  0  0999 V2000
    0.6675    1.3905    0.0177 C   0  0  0  0  0  0  0  0  0  0  0  0
   -0.7520    1.4104   -0.4978 C   0  0  0  0  0  0  0  0  0  0  0  0
   -1.0905   -0.0133   -0.8316 C   0  0  0  0  0  0  0  0  0  0  0  0
   -2.1630   -0.4692   -0.0832 O   0  0  0  0  0  0  0  0  0  0  0  0
   -1.3455   -1.3294    0.6775 C   0  0  0  0  0  0  0  0  0  0  0  0
   -0.1629   -0.8058   -0.0016 C   0  0  0  0  0  0  0  0  0  0  0  0
    0.7414   -1.6224   -0.5788 O   0  0  0  0  0  0  0  0  0  0  0  0
    1.7745   -0.8160   -0.0730 C   0  0  0  0  0  0  0  0  0  0  0  0
    0.8039    0.0531    0.6821 C   0  0  0  0  0  0  0  0  0  0  0  0
    0.8662    2.2412    0.7149 H   0  0  0  0  0  0  0  0  0  0  0  0
    1.3641    1.5192   -0.8341 H   0  0  0  0  0  0  0  0  0  0  0  0
   -0.8273    2.0423   -1.3934 H   0  0  0  0  0  0  0  0  0  0  0  0
   -1.3846    1.7907    0.3382 H   0  0  0  0  0  0  0  0  0  0  0  0
   -1.0617   -0.3004   -1.8885 H   0  0  0  0  0  0  0  0  0  0  0  0
   -1.4933   -1.1441    1.7515 H   0  0  0  0  0  0  0  0  0  0  0  0
   -1.6308   -2.3736    0.4249 H   0  0  0  0  0  0  0  0  0  0  0  0
    2.3683   -0.2854   -0.8359 H   0  0  0  0  0  0  0  0  0  0  0  0
    2.4468   -1.3277    0.6361 H   0  0  0  0  0  0  0  0  0  0  0  0
    0.8790    0.0401    1.7748 H   0  0  0  0  0  0  0  0  0  0  0  0
  1  2  1  0
  2  3  1  0
  3  4  1  0
  4  5  1  0
  5  6  1  0
  6  7  1  0
  7  8  1  0
  8  9  1  0
  9  1  1  0
  6  3  1  0
  9  6  1  0
  1 10  1  0
  1 11  1  0
  2 12  1  0
  2 13  1  0
  3 14  1  0
  5 15  1  0
  5 16  1  0
  8 17  1  0
  8 18  1  0
  9 19  1  0
M  END
