
     RDKit          3D

 21 23  0  0  0  0  0  0  0  0999 V2000
   -2.0421    0.3459    0.1046 C   0  0  0  0  0  0  0  0  0  0  0  0
   -1.4028   -1.0163    0.4164 C   0  0  0  0  0  0  0  0  0  0  0  0
   -0.1406   -0.4941   -0.1181 C   0  0  0  0  0  0  0  0  0  0  0  0
    0.7699   -1.3404   -0.8863 C   0  0  0  0  0  0  0  0  0  0  0  0
    1.9133   -0.5236   -1.0533 O   0  0  0  0  0  0  0  0  0  0  0  0
    2.1109    0.0959    0.1636 C   0  0  0  0  0  0  0  0  0  0  0  0
    0.7353    0.3325    0.7569 C   0  0  0  0  0  0  0  0  0  0  0  0
    0.1255    1.5753    0.1555 C   0  0  0  0  0  0  0  0  0  0  0  0
   -0.7783    0.6894   -0.6568 C   0  0  0  0  0  0  0  0  0  0  0  0
   -2.1841    0.9132    1.0544 H   0  0  0  0  0  0  0  0  0  0  0  0
   -2.9327    0.2988   -0.5233 H   0  0  0  0  0  0  0  0  0  0  0  0
   -1.8691   -1.7705   -0.2167 H   0  0  0  0  0  0  0  0  0  0  0  0
   -1.4153   -1.2885    1.4791 H   0  0  0  0  0  0  0  0  0  0  0  0
    0.4283   -1.7195   -1.8461 H   0  0  0  0  0  0  0  0  0  0  0  0
    1.1171   -2.1865   -0.2514 H   0  0  0  0  0  0  0  0  0  0  0  0
    2.7635   -0.4722    0.8540 H   0  0  0  0  0  0  0  0  0  0  0  0
    2.6024    1.0812   -0.0303 H   0  0  0  0  0  0  0  0  0  0  0  0
    0.6361    0.1954    1.8270 H   0  0  0  0  0  0  0  0  0  0  0  0
    0.8113    2.2054   -0.4350 H   0  0  0  0  0  0  0  0  0  0  0  0
   -0.3767    2.1959    0.9169 H   0  0  0  0  0  0  0  0  0  0  0  0
   -0.8717    0.8828   -1.7110 H   0  0  0  0  0  0  0  0  0  0  0  0
  1  2  1  0
  2  3  1  0
  3  4  1  0
  4  5  1  0
  5  6  1  0
  6  7  1  0
  7  8  1  0
  8  9  1  0
  9  1  1  0
  7  3  1  0
  9  3  1  0
  1 10  1  0
  1 11  1  0
  2 12  1  0
  2 13  1  0
  4 14  1  0
  4 15  1  0
  6 16  1  0
  6 17  1  0
  7 18  1  0
  8 19  1  0
  8 20  1  0
  9 21  1  0
M  END
