
     RDKit          3D

 21 23  0  0  0  0  0  0  0  0999 V2000
   -2.3757    0.5917    0.2260 C   0  0  0  0  0  0  0  0  0  0  0  0
   -1.4221    0.7117   -0.9588 C   0  0  0  0  0  0  0  0  0  0  0  0
   -0.5165   -0.2170   -0.2750 C   0  0  0  0  0  0  0  0  0  0  0  0
   -1.2688   -0.1041    1.0204 C   0  0  0  0  0  0  0  0  0  0  0  0
    0.0342   -1.4481   -0.7927 C   0  0  0  0  0  0  0  0  0  0  0  0
    0.8981   -0.3504   -0.4056 C   0  0  0  0  0  0  0  0  0  0  0  0
    1.7712   -0.3219    0.7953 C   0  0  0  0  0  0  0  0  0  0  0  0
    2.5304    0.6329   -0.0784 C   0  0  0  0  0  0  0  0  0  0  0  0
    1.7545    0.3245   -1.2003 O   0  0  0  0  0  0  0  0  0  0  0  0
   -3.2319   -0.0527    0.0005 H   0  0  0  0  0  0  0  0  0  0  0  0
   -2.6386    1.5333    0.7152 H   0  0  0  0  0  0  0  0  0  0  0  0
   -1.0666    1.7762   -1.0082 H   0  0  0  0  0  0  0  0  0  0  0  0
   -1.8629    0.3627   -1.9259 H   0  0  0  0  0  0  0  0  0  0  0  0
   -1.5753   -1.0512    1.4877 H   0  0  0  0  0  0  0  0  0  0  0  0
   -0.7274    0.5967    1.7001 H   0  0  0  0  0  0  0  0  0  0  0  0
   -0.0025   -1.7141   -1.8866 H   0  0  0  0  0  0  0  0  0  0  0  0
    0.0839   -2.3747   -0.1655 H   0  0  0  0  0  0  0  0  0  0  0  0
    2.2832   -1.2392    1.0860 H   0  0  0  0  0  0  0  0  0  0  0  0
    1.3497    0.2345    1.6787 H   0  0  0  0  0  0  0  0  0  0  0  0
    3.6076    0.3919   -0.1702 H   0  0  0  0  0  0  0  0  0  0  0  0
    2.3755    1.7172    0.1571 H   0  0  0  0  0  0  0  0  0  0  0  0
  1  2  1  0
  2  3  1  0
  3  4  1  0
  3  5  1  0
  5  6  1  0
  6  7  1  0
  7  8  1  0
  8  9  1  0
  4  1  1  0
  9  6  1  0
  6  3  1  0
  1 10  1  0
  1 11  1  0
  2 12  1  0
  2 13  1  0
  4 14  1  0
  4 15  1  0
  5 16  1  0
  5 17  1  0
  7 18  1  0
  7 19  1  0
  8 20  1  0
  8 21  1  0
M  END
