
     RDKit          3D

 19 21  0  0  0  0  0  0  0  0999 V2000
   -1.5683   -0.6656   -0.3491 C   0  0  0  0  0  0  0  0  0  0  0  0
   -1.5238    0.7623    0.2105 C   0  0  0  0  0  0  0  0  0  0  0  0
   -0.1371    0.8982    0.8432 C   0  0  0  0  0  0  0  0  0  0  0  0
    0.9220    1.1785   -0.1884 C   0  0  0  0  0  0  0  0  0  0  0  0
    1.5671   -0.1429   -0.4254 C   0  0  0  0  0  0  0  0  0  0  0  0
    0.6368   -1.2483   -0.7527 C   0  0  0  0  0  0  0  0  0  0  0  0
   -0.5285   -0.7613   -1.2402 O   0  0  0  0  0  0  0  0  0  0  0  0
    0.9942   -1.0183    0.6257 C   0  0  0  0  0  0  0  0  0  0  0  0
    0.1584   -0.3122    1.4234 O   0  0  0  0  0  0  0  0  0  0  0  0
   -2.5651   -0.8323   -0.7909 H   0  0  0  0  0  0  0  0  0  0  0  0
   -1.3526   -1.3901    0.4834 H   0  0  0  0  0  0  0  0  0  0  0  0
   -2.3210    0.9462    0.9309 H   0  0  0  0  0  0  0  0  0  0  0  0
   -1.6287    1.4289   -0.6729 H   0  0  0  0  0  0  0  0  0  0  0  0
   -0.2260    1.7368    1.5682 H   0  0  0  0  0  0  0  0  0  0  0  0
    1.6838    1.8389    0.3212 H   0  0  0  0  0  0  0  0  0  0  0  0
    0.5628    1.6991   -1.0708 H   0  0  0  0  0  0  0  0  0  0  0  0
    2.6001   -0.2336   -0.7819 H   0  0  0  0  0  0  0  0  0  0  0  0
    1.0558   -2.1359   -1.2624 H   0  0  0  0  0  0  0  0  0  0  0  0
    1.6700   -1.7483    1.1281 H   0  0  0  0  0  0  0  0  0  0  0  0
  1  2  1  0
  2  3  1  0
  3  4  1  0
  4  5  1  0
  5  6  1  0
  6  7  1  0
  6  8  1  0
  8  9  1  0
  7  1  1  0
  9  3  1  0
  8  5  1  0
  1 10  1  0
  1 11  1  0
  2 12  1  0
  2 13  1  0
  3 14  1  0
  4 15  1  0
  4 16  1  0
  5 17  1  0
  6 18  1  0
  8 19  1  0
M  END
