
     RDKit          3D

 20 22  0  0  0  0  0  0  0  0999 V2000
    2.4765    0.0444   -0.0321 C   0  0  0  0  0  0  0  0  0  0  0  0
    1.6234   -1.0853    0.5063 C   0  0  0  0  0  0  0  0  0  0  0  0
    1.1007   -0.1065   -0.5666 C   0  0  0  0  0  0  0  0  0  0  0  0
   -0.0240    0.7466   -0.1029 C   0  0  0  0  0  0  0  0  0  0  0  0
   -1.3313    0.4312   -0.7785 C   0  0  0  0  0  0  0  0  0  0  0  0
   -1.3372   -0.8247    0.0503 C   0  0  0  0  0  0  0  0  0  0  0  0
   -0.8819    0.2249    1.0081 C   0  0  0  0  0  0  0  0  0  0  0  0
   -1.9739    1.0937    0.4058 C   0  0  0  0  0  0  0  0  0  0  0  0
    2.7657    0.8729    0.6293 H   0  0  0  0  0  0  0  0  0  0  0  0
    3.3096   -0.3159   -0.7025 H   0  0  0  0  0  0  0  0  0  0  0  0
    1.8319   -2.1262    0.1772 H   0  0  0  0  0  0  0  0  0  0  0  0
    1.2937   -0.9111    1.5534 H   0  0  0  0  0  0  0  0  0  0  0  0
    0.9894   -0.5707   -1.5703 H   0  0  0  0  0  0  0  0  0  0  0  0
    0.1651    1.8195    0.0226 H   0  0  0  0  0  0  0  0  0  0  0  0
   -1.5622    0.5305   -1.7422 H   0  0  0  0  0  0  0  0  0  0  0  0
   -0.6581   -1.6228   -0.2337 H   0  0  0  0  0  0  0  0  0  0  0  0
   -2.3688   -1.2261    0.2078 H   0  0  0  0  0  0  0  0  0  0  0  0
   -0.6644    0.1445    1.9779 H   0  0  0  0  0  0  0  0  0  0  0  0
   -1.7618    2.1495    0.5701 H   0  0  0  0  0  0  0  0  0  0  0  0
   -2.9924    0.7317    0.5567 H   0  0  0  0  0  0  0  0  0  0  0  0
  1  2  1  0
  2  3  1  0
  3  4  1  0
  4  5  1  0
  5  6  1  0
  6  7  1  0
  7  8  1  0
  3  1  1  0
  7  4  1  0
  8  5  1  0
  1  9  1  0
  1 10  1  0
  2 11  1  0
  2 12  1  0
  3 13  1  0
  4 14  1  0
  5 15  1  0
  6 16  1  0
  6 17  1  0
  7 18  1  0
  8 19  1  0
  8 20  1  0
M  END
