
     RDKit          3D

 19 20  0  0  0  0  0  0  0  0999 V2000
    1.4937   -0.3378   -0.1019 C   0  0  0  0  0  0  0  0  0  0  0  0
    0.4687   -1.3785    0.2125 C   0  0  0  0  0  0  0  0  0  0  0  0
   -0.8825   -0.8527   -0.1801 C   0  0  0  0  0  0  0  0  0  0  0  0
   -1.2683    0.1877    0.8803 C   0  0  0  0  0  0  0  0  0  0  0  0
   -0.4715    1.1785    0.0348 C   0  0  0  0  0  0  0  0  0  0  0  0
    1.0071    1.0233    0.2886 C   0  0  0  0  0  0  0  0  0  0  0  0
   -0.8202    0.2843   -1.1621 C   0  0  0  0  0  0  0  0  0  0  0  0
    2.4876   -0.5380    0.3869 H   0  0  0  0  0  0  0  0  0  0  0  0
    1.7122   -0.4136   -1.2015 H   0  0  0  0  0  0  0  0  0  0  0  0
    0.4408   -1.5057    1.3349 H   0  0  0  0  0  0  0  0  0  0  0  0
    0.6978   -2.3645   -0.2012 H   0  0  0  0  0  0  0  0  0  0  0  0
   -1.6563   -1.5758   -0.4230 H   0  0  0  0  0  0  0  0  0  0  0  0
   -0.8661   -0.0014    1.8770 H   0  0  0  0  0  0  0  0  0  0  0  0
   -2.3503    0.3982    0.8031 H   0  0  0  0  0  0  0  0  0  0  0  0
   -0.8666    2.1886   -0.0111 H   0  0  0  0  0  0  0  0  0  0  0  0
    1.2666    1.2306    1.3590 H   0  0  0  0  0  0  0  0  0  0  0  0
    1.5186    1.7582   -0.3834 H   0  0  0  0  0  0  0  0  0  0  0  0
   -1.8390    0.4796   -1.5687 H   0  0  0  0  0  0  0  0  0  0  0  0
   -0.0722    0.2389   -1.9441 H   0  0  0  0  0  0  0  0  0  0  0  0
  1  2  1  0
  2  3  1  0
  3  4  1  0
  4  5  1  0
  5  6  1  0
  5  7  1  0
  6  1  1  0
  7  3  1  0
  1  8  1  0
  1  9  1  0
  2 10  1  0
  2 11  1  0
  3 12  1  0
  4 13  1  0
  4 14  1  0
  5 15  1  0
  6 16  1  0
  6 17  1  0
  7 18  1  0
  7 19  1  0
M  END
