
     RDKit          3D

 20 21  0  0  0  0  0  0  0  0999 V2000
    1.4170    0.8643    0.4425 C   0  0  0  0  0  0  0  0  0  0  0  0
    1.4613   -0.6049    0.1369 C   0  0  0  0  0  0  0  0  0  0  0  0
    0.1306   -1.2641    0.1093 C   0  0  0  0  0  0  0  0  0  0  0  0
   -0.9247   -0.5824    0.9254 C   0  0  0  0  0  0  0  0  0  0  0  0
   -1.3188    0.1933   -0.3260 C   0  0  0  0  0  0  0  0  0  0  0  0
   -0.6432    1.5178   -0.3069 C   0  0  0  0  0  0  0  0  0  0  0  0
    0.7029    1.4920   -0.5621 O   0  0  0  0  0  0  0  0  0  0  0  0
   -0.6345   -0.8498   -1.1416 C   0  0  0  0  0  0  0  0  0  0  0  0
    1.0908    1.1100    1.4546 H   0  0  0  0  0  0  0  0  0  0  0  0
    2.4808    1.2340    0.3626 H   0  0  0  0  0  0  0  0  0  0  0  0
    1.8998   -0.6943   -0.9007 H   0  0  0  0  0  0  0  0  0  0  0  0
    2.1668   -1.1410    0.7988 H   0  0  0  0  0  0  0  0  0  0  0  0
    0.2030   -2.3622    0.2073 H   0  0  0  0  0  0  0  0  0  0  0  0
   -1.7569   -1.2712    1.1904 H   0  0  0  0  0  0  0  0  0  0  0  0
   -0.6027    0.0152    1.7746 H   0  0  0  0  0  0  0  0  0  0  0  0
   -2.4047    0.3036   -0.4826 H   0  0  0  0  0  0  0  0  0  0  0  0
   -0.7901    1.9524    0.7239 H   0  0  0  0  0  0  0  0  0  0  0  0
   -1.1033    2.2654   -0.9937 H   0  0  0  0  0  0  0  0  0  0  0  0
   -0.0192   -0.5244   -1.9854 H   0  0  0  0  0  0  0  0  0  0  0  0
   -1.3549   -1.6537   -1.4273 H   0  0  0  0  0  0  0  0  0  0  0  0
  1  2  1  0
  2  3  1  0
  3  4  1  0
  4  5  1  0
  5  6  1  0
  6  7  1  0
  5  8  1  0
  7  1  1  0
  8  3  1  0
  1  9  1  0
  1 10  1  0
  2 11  1  0
  2 12  1  0
  3 13  1  0
  4 14  1  0
  4 15  1  0
  5 16  1  0
  6 17  1  0
  6 18  1  0
  8 19  1  0
  8 20  1  0
M  END
