
     RDKit          3D

 23 25  0  0  0  0  0  0  0  0999 V2000
    1.2371   -0.8174   -0.9177 C   0  0  0  0  0  0  0  0  0  0  0  0
    1.5086    0.6297   -0.6053 C   0  0  0  0  0  0  0  0  0  0  0  0
    0.6364    0.9275    0.6285 C   0  0  0  0  0  0  0  0  0  0  0  0
    0.7999   -0.4416    1.3016 C   0  0  0  0  0  0  0  0  0  0  0  0
    0.2198   -1.2697    0.1454 C   0  0  0  0  0  0  0  0  0  0  0  0
   -1.1644   -0.8124   -0.2006 C   0  0  0  0  0  0  0  0  0  0  0  0
   -1.7489    0.1446    0.8248 C   0  0  0  0  0  0  0  0  0  0  0  0
   -0.7881    1.1668    0.2197 C   0  0  0  0  0  0  0  0  0  0  0  0
   -1.1498    0.4497   -1.0793 C   0  0  0  0  0  0  0  0  0  0  0  0
    2.1753   -1.3865   -0.6468 H   0  0  0  0  0  0  0  0  0  0  0  0
    0.9184   -1.0301   -1.9264 H   0  0  0  0  0  0  0  0  0  0  0  0
    1.3432    1.3248   -1.4164 H   0  0  0  0  0  0  0  0  0  0  0  0
    2.5689    0.7969   -0.2542 H   0  0  0  0  0  0  0  0  0  0  0  0
    1.0671    1.7355    1.2139 H   0  0  0  0  0  0  0  0  0  0  0  0
    0.2931   -0.5513    2.2320 H   0  0  0  0  0  0  0  0  0  0  0  0
    1.8582   -0.7093    1.3599 H   0  0  0  0  0  0  0  0  0  0  0  0
    0.2712   -2.3383    0.3335 H   0  0  0  0  0  0  0  0  0  0  0  0
   -1.8452   -1.5350   -0.6341 H   0  0  0  0  0  0  0  0  0  0  0  0
   -2.7824    0.4197    0.4793 H   0  0  0  0  0  0  0  0  0  0  0  0
   -1.6484   -0.0877    1.8612 H   0  0  0  0  0  0  0  0  0  0  0  0
   -1.1293    2.1968    0.3005 H   0  0  0  0  0  0  0  0  0  0  0  0
   -0.4477    0.4773   -1.8795 H   0  0  0  0  0  0  0  0  0  0  0  0
   -2.1929    0.7099   -1.3399 H   0  0  0  0  0  0  0  0  0  0  0  0
  1  2  1  0
  2  3  1  0
  3  4  1  0
  4  5  1  0
  5  6  1  0
  6  7  1  0
  7  8  1  0
  8  9  1  0
  5  1  1  0
  9  6  1  0
  8  3  1  0
  1 10  1  0
  1 11  1  0
  2 12  1  0
  2 13  1  0
  3 14  1  0
  4 15  1  0
  4 16  1  0
  5 17  1  0
  6 18  1  0
  7 19  1  0
  7 20  1  0
  8 21  1  0
  9 22  1  0
  9 23  1  0
M  END
