
     RDKit          3D

 19 22  0  0  0  0  0  0  0  0999 V2000
   -2.0991   -0.6700    0.1667 C   0  0  0  0  0  0  0  0  0  0  0  0
   -2.2698    0.8188    0.2615 C   0  0  0  0  0  0  0  0  0  0  0  0
   -1.2873    0.2155   -0.6976 C   0  0  0  0  0  0  0  0  0  0  0  0
    0.1608    0.4947   -0.3902 C   0  0  0  0  0  0  0  0  0  0  0  0
    1.0692   -0.6814   -0.3564 C   0  0  0  0  0  0  0  0  0  0  0  0
    2.5166   -0.4492   -0.0729 C   0  0  0  0  0  0  0  0  0  0  0  0
    2.9240    0.8701   -0.0296 O   0  0  0  0  0  0  0  0  0  0  0  0
    2.2055    0.4576    1.0700 C   0  0  0  0  0  0  0  0  0  0  0  0
    0.7519    0.1241    0.9122 C   0  0  0  0  0  0  0  0  0  0  0  0
   -1.6554   -1.2128    1.0202 H   0  0  0  0  0  0  0  0  0  0  0  0
   -2.9521   -1.1892   -0.3183 H   0  0  0  0  0  0  0  0  0  0  0  0
   -3.2181    1.2765   -0.1407 H   0  0  0  0  0  0  0  0  0  0  0  0
   -1.9388    1.2726    1.2073 H   0  0  0  0  0  0  0  0  0  0  0  0
   -1.5379    0.2840   -1.7679 H   0  0  0  0  0  0  0  0  0  0  0  0
    0.5389    1.4368   -0.8389 H   0  0  0  0  0  0  0  0  0  0  0  0
    0.6441   -1.6769   -0.4733 H   0  0  0  0  0  0  0  0  0  0  0  0
    3.2026   -1.2714    0.1435 H   0  0  0  0  0  0  0  0  0  0  0  0
    2.7038    0.3751    2.0386 H   0  0  0  0  0  0  0  0  0  0  0  0
    0.2411   -0.4749    1.6660 H   0  0  0  0  0  0  0  0  0  0  0  0
  1  2  1  0
  2  3  1  0
  3  4  1  0
  4  5  1  0
  5  6  1  0
  6  7  1  0
  7  8  1  0
  8  9  1  0
  3  1  1  0
  9  4  1  0
  9  5  1  0
  8  6  1  0
  1 10  1  0
  1 11  1  0
  2 12  1  0
  2 13  1  0
  3 14  1  0
  4 15  1  0
  5 16  1  0
  6 17  1  0
  8 18  1  0
  9 19  1  0
M  END
