
     RDKit          3D

 23 25  0  0  0  0  0  0  0  0999 V2000
    1.7907    0.2211   -0.3926 C   0  0  0  0  0  0  0  0  0  0  0  0
    0.9625    1.4347   -0.1679 C   0  0  0  0  0  0  0  0  0  0  0  0
   -0.4863    1.1730   -0.0495 C   0  0  0  0  0  0  0  0  0  0  0  0
   -0.8448    0.3013    1.1383 C   0  0  0  0  0  0  0  0  0  0  0  0
    0.2539   -0.7180    1.3296 C   0  0  0  0  0  0  0  0  0  0  0  0
    0.9328   -0.9913   -0.0050 C   0  0  0  0  0  0  0  0  0  0  0  0
   -0.1227   -1.0838   -1.0982 C   0  0  0  0  0  0  0  0  0  0  0  0
   -1.0322    0.0988   -0.9296 C   0  0  0  0  0  0  0  0  0  0  0  0
   -1.9551   -0.2675    0.2464 C   0  0  0  0  0  0  0  0  0  0  0  0
    1.9746    0.0862   -1.4973 H   0  0  0  0  0  0  0  0  0  0  0  0
    2.7297    0.1742    0.1568 H   0  0  0  0  0  0  0  0  0  0  0  0
    1.1258    2.1278   -1.0188 H   0  0  0  0  0  0  0  0  0  0  0  0
    1.3101    1.9821    0.7362 H   0  0  0  0  0  0  0  0  0  0  0  0
   -1.1211    2.0650   -0.0740 H   0  0  0  0  0  0  0  0  0  0  0  0
   -1.1824    0.8384    2.0179 H   0  0  0  0  0  0  0  0  0  0  0  0
    1.0220   -0.2402    1.9699 H   0  0  0  0  0  0  0  0  0  0  0  0
   -0.0884   -1.6489    1.7986 H   0  0  0  0  0  0  0  0  0  0  0  0
    1.5798   -1.8689    0.0368 H   0  0  0  0  0  0  0  0  0  0  0  0
   -0.6838   -2.0472   -0.9198 H   0  0  0  0  0  0  0  0  0  0  0  0
    0.3536   -1.1370   -2.0769 H   0  0  0  0  0  0  0  0  0  0  0  0
   -1.5600    0.4511   -1.8176 H   0  0  0  0  0  0  0  0  0  0  0  0
   -2.1306   -1.3336    0.3646 H   0  0  0  0  0  0  0  0  0  0  0  0
   -2.8281    0.3827    0.2519 H   0  0  0  0  0  0  0  0  0  0  0  0
  1  2  1  0
  2  3  1  0
  3  4  1  0
  4  5  1  0
  5  6  1  0
  6  7  1  0
  7  8  1  0
  8  9  1  0
  6  1  1  0
  8  3  1  0
  9  4  1  0
  1 10  1  0
  1 11  1  0
  2 12  1  0
  2 13  1  0
  3 14  1  0
  4 15  1  0
  5 16  1  0
  5 17  1  0
  6 18  1  0
  7 19  1  0
  7 20  1  0
  8 21  1  0
  9 22  1  0
  9 23  1  0
M  END
