
     RDKit          3D

 21 23  0  0  0  0  0  0  0  0999 V2000
    2.7842   -0.3430   -0.3863 C   0  0  0  0  0  0  0  0  0  0  0  0
    1.8720   -0.3703    0.8250 C   0  0  0  0  0  0  0  0  0  0  0  0
    0.8727    0.3632   -0.0164 C   0  0  0  0  0  0  0  0  0  0  0  0
   -0.3082   -0.4489   -0.4847 C   0  0  0  0  0  0  0  0  0  0  0  0
   -1.2405    0.4024   -1.3221 C   0  0  0  0  0  0  0  0  0  0  0  0
   -2.2401    0.5077   -0.2155 C   0  0  0  0  0  0  0  0  0  0  0  0
   -1.8457    0.6393    1.2020 C   0  0  0  0  0  0  0  0  0  0  0  0
   -1.4212   -0.5976    0.5098 C   0  0  0  0  0  0  0  0  0  0  0  0
    1.8315    0.4608   -1.0221 O   0  0  0  0  0  0  0  0  0  0  0  0
    2.8504   -1.3702   -0.8255 H   0  0  0  0  0  0  0  0  0  0  0  0
    3.7610    0.1485   -0.2213 H   0  0  0  0  0  0  0  0  0  0  0  0
    2.3287    0.2294    1.6395 H   0  0  0  0  0  0  0  0  0  0  0  0
    1.5317   -1.3828    1.1201 H   0  0  0  0  0  0  0  0  0  0  0  0
    0.6460    1.3460    0.4149 H   0  0  0  0  0  0  0  0  0  0  0  0
    0.0434   -1.3695   -0.9766 H   0  0  0  0  0  0  0  0  0  0  0  0
   -0.8264    1.3381   -1.7080 H   0  0  0  0  0  0  0  0  0  0  0  0
   -1.6340   -0.2216   -2.1771 H   0  0  0  0  0  0  0  0  0  0  0  0
   -3.2756    0.2850   -0.4621 H   0  0  0  0  0  0  0  0  0  0  0  0
   -2.6666    0.5102    1.9375 H   0  0  0  0  0  0  0  0  0  0  0  0
   -1.1053    1.4053    1.5326 H   0  0  0  0  0  0  0  0  0  0  0  0
   -1.9582   -1.5322    0.6362 H   0  0  0  0  0  0  0  0  0  0  0  0
  1  2  1  0
  2  3  1  0
  3  4  1  0
  4  5  1  0
  5  6  1  0
  6  7  1  0
  7  8  1  0
  3  9  1  0
  9  1  1  0
  8  4  1  0
  8  6  1  0
  1 10  1  0
  1 11  1  0
  2 12  1  0
  2 13  1  0
  3 14  1  0
  4 15  1  0
  5 16  1  0
  5 17  1  0
  6 18  1  0
  7 19  1  0
  7 20  1  0
  8 21  1  0
M  END
