
     RDKit          3D

 18 20  0  0  0  0  0  0  0  0999 V2000
    1.6105   -0.4081   -0.1286 C   0  0  0  0  0  0  0  0  0  0  0  0
    1.1326    1.0473   -0.0459 C   0  0  0  0  0  0  0  0  0  0  0  0
   -0.3651    1.0601    0.0745 C   0  0  0  0  0  0  0  0  0  0  0  0
   -0.9651    0.2417   -1.0603 C   0  0  0  0  0  0  0  0  0  0  0  0
   -1.0022   -0.9718   -0.2115 C   0  0  0  0  0  0  0  0  0  0  0  0
   -0.1645   -1.2383    0.9453 C   0  0  0  0  0  0  0  0  0  0  0  0
    1.1846   -1.0201    1.0228 O   0  0  0  0  0  0  0  0  0  0  0  0
   -0.9125    0.0241    0.9951 C   0  0  0  0  0  0  0  0  0  0  0  0
    1.1095   -0.8984   -0.9869 H   0  0  0  0  0  0  0  0  0  0  0  0
    2.7110   -0.4415   -0.1956 H   0  0  0  0  0  0  0  0  0  0  0  0
    1.4055    1.4944   -1.0351 H   0  0  0  0  0  0  0  0  0  0  0  0
    1.6591    1.5567    0.7603 H   0  0  0  0  0  0  0  0  0  0  0  0
   -0.7557    2.0715    0.1893 H   0  0  0  0  0  0  0  0  0  0  0  0
   -0.3486    0.2037   -1.9778 H   0  0  0  0  0  0  0  0  0  0  0  0
   -1.9859    0.6696   -1.2842 H   0  0  0  0  0  0  0  0  0  0  0  0
   -1.9657   -1.5398   -0.2834 H   0  0  0  0  0  0  0  0  0  0  0  0
   -0.5138   -2.0232    1.6642 H   0  0  0  0  0  0  0  0  0  0  0  0
   -1.8339    0.1722    1.5576 H   0  0  0  0  0  0  0  0  0  0  0  0
  1  2  1  0
  2  3  1  0
  3  4  1  0
  4  5  1  0
  5  6  1  0
  6  7  1  0
  6  8  1  0
  7  1  1  0
  8  3  1  0
  8  5  1  0
  1  9  1  0
  1 10  1  0
  2 11  1  0
  2 12  1  0
  3 13  1  0
  4 14  1  0
  4 15  1  0
  5 16  1  0
  6 17  1  0
  8 18  1  0
M  END
