
     RDKit          3D

 21 23  0  0  0  0  0  0  0  0999 V2000
   -1.6352    0.0034   -0.8653 C   0  0  0  0  0  0  0  0  0  0  0  0
   -0.7203    1.2044   -0.7485 C   0  0  0  0  0  0  0  0  0  0  0  0
   -0.0718    1.2035    0.6060 C   0  0  0  0  0  0  0  0  0  0  0  0
   -0.7003    0.2730    1.4470 O   0  0  0  0  0  0  0  0  0  0  0  0
   -0.2220   -0.9366    0.9086 C   0  0  0  0  0  0  0  0  0  0  0  0
   -0.9471   -1.2533   -0.3495 C   0  0  0  0  0  0  0  0  0  0  0  0
    1.2448   -0.7721    0.7813 C   0  0  0  0  0  0  0  0  0  0  0  0
    1.8944   -0.1713   -0.4041 C   0  0  0  0  0  0  0  0  0  0  0  0
    1.3550    0.7735    0.6003 C   0  0  0  0  0  0  0  0  0  0  0  0
   -2.5275    0.2005   -0.2206 H   0  0  0  0  0  0  0  0  0  0  0  0
   -1.9274   -0.2014   -1.9240 H   0  0  0  0  0  0  0  0  0  0  0  0
   -1.3402    2.1114   -0.9363 H   0  0  0  0  0  0  0  0  0  0  0  0
    0.0093    1.1618   -1.5836 H   0  0  0  0  0  0  0  0  0  0  0  0
   -0.2179    2.1927    1.0887 H   0  0  0  0  0  0  0  0  0  0  0  0
   -0.4279   -1.7055    1.7008 H   0  0  0  0  0  0  0  0  0  0  0  0
   -0.3545   -1.7575   -1.1174 H   0  0  0  0  0  0  0  0  0  0  0  0
   -1.7831   -1.9587   -0.0873 H   0  0  0  0  0  0  0  0  0  0  0  0
    1.8813   -1.1621    1.6150 H   0  0  0  0  0  0  0  0  0  0  0  0
    1.4665   -0.2562   -1.4120 H   0  0  0  0  0  0  0  0  0  0  0  0
    3.0114   -0.2525   -0.4097 H   0  0  0  0  0  0  0  0  0  0  0  0
    2.0124    1.3031    1.3106 H   0  0  0  0  0  0  0  0  0  0  0  0
  1  2  1  0
  2  3  1  0
  3  4  1  0
  4  5  1  0
  5  6  1  0
  5  7  1  0
  7  8  1  0
  8  9  1  0
  6  1  1  0
  9  7  1  0
  9  3  1  0
  1 10  1  0
  1 11  1  0
  2 12  1  0
  2 13  1  0
  3 14  1  0
  5 15  1  0
  6 16  1  0
  6 17  1  0
  7 18  1  0
  8 19  1  0
  8 20  1  0
  9 21  1  0
M  END
