
     RDKit          3D

 23 25  0  0  0  0  0  0  0  0999 V2000
    2.9238    0.4526   -0.3823 C   0  0  0  0  0  0  0  0  0  0  0  0
    2.5160   -0.7536    0.3839 C   0  0  0  0  0  0  0  0  0  0  0  0
    1.5134    0.3036    0.1825 C   0  0  0  0  0  0  0  0  0  0  0  0
    0.3906    0.1297   -0.8386 C   0  0  0  0  0  0  0  0  0  0  0  0
   -0.8336    0.0045   -0.2395 C   0  0  0  0  0  0  0  0  0  0  0  0
   -1.4859    1.0342    0.6597 C   0  0  0  0  0  0  0  0  0  0  0  0
   -2.4791   -0.1034    0.6011 C   0  0  0  0  0  0  0  0  0  0  0  0
   -1.2970   -1.0106    0.7450 C   0  0  0  0  0  0  0  0  0  0  0  0
   -2.1788   -0.1061   -0.8758 C   0  0  0  0  0  0  0  0  0  0  0  0
    3.0595    0.3690   -1.4788 H   0  0  0  0  0  0  0  0  0  0  0  0
    3.5698    1.2332    0.0706 H   0  0  0  0  0  0  0  0  0  0  0  0
    2.4740   -1.6939   -0.2079 H   0  0  0  0  0  0  0  0  0  0  0  0
    2.8670   -0.9014    1.4255 H   0  0  0  0  0  0  0  0  0  0  0  0
    1.2334    0.9716    1.0145 H   0  0  0  0  0  0  0  0  0  0  0  0
    0.6494   -0.6938   -1.5189 H   0  0  0  0  0  0  0  0  0  0  0  0
    0.4550    1.0608   -1.4762 H   0  0  0  0  0  0  0  0  0  0  0  0
   -1.0095    1.2280    1.6124 H   0  0  0  0  0  0  0  0  0  0  0  0
   -1.8664    1.8862    0.0760 H   0  0  0  0  0  0  0  0  0  0  0  0
   -3.3699   -0.1534    1.0451 H   0  0  0  0  0  0  0  0  0  0  0  0
   -0.7690   -0.9941    1.7029 H   0  0  0  0  0  0  0  0  0  0  0  0
   -1.4500   -1.9995    0.2688 H   0  0  0  0  0  0  0  0  0  0  0  0
   -2.3350   -1.0624   -1.4020 H   0  0  0  0  0  0  0  0  0  0  0  0
   -2.5776    0.7987   -1.3680 H   0  0  0  0  0  0  0  0  0  0  0  0
  1  2  1  0
  2  3  1  0
  3  4  1  0
  4  5  1  0
  5  6  1  0
  6  7  1  0
  7  8  1  0
  7  9  1  0
  3  1  1  0
  8  5  1  0
  9  5  1  0
  1 10  1  0
  1 11  1  0
  2 12  1  0
  2 13  1  0
  3 14  1  0
  4 15  1  0
  4 16  1  0
  6 17  1  0
  6 18  1  0
  7 19  1  0
  8 20  1  0
  8 21  1  0
  9 22  1  0
  9 23  1  0
M  END
