
     RDKit          3D

 17 19  0  0  0  0  0  0  0  0999 V2000
    2.0761   -0.2365    0.2218 C   0  0  0  0  0  0  0  0  0  0  0  0
    1.2186    0.9807   -0.1517 C   0  0  0  0  0  0  0  0  0  0  0  0
   -0.1328    0.4096   -0.0347 C   0  0  0  0  0  0  0  0  0  0  0  0
   -1.0164    0.7133    0.9537 O   0  0  0  0  0  0  0  0  0  0  0  0
   -2.2158    0.1595    0.6100 C   0  0  0  0  0  0  0  0  0  0  0  0
   -2.1483   -0.3815   -0.6365 O   0  0  0  0  0  0  0  0  0  0  0  0
   -0.8304   -0.3451   -1.0731 C   0  0  0  0  0  0  0  0  0  0  0  0
    0.1418   -1.1006   -0.2530 C   0  0  0  0  0  0  0  0  0  0  0  0
    1.4709   -1.1920   -0.5908 O   0  0  0  0  0  0  0  0  0  0  0  0
    1.8090   -0.4651    1.2721 H   0  0  0  0  0  0  0  0  0  0  0  0
    3.1291   -0.0832    0.0332 H   0  0  0  0  0  0  0  0  0  0  0  0
    1.4279    1.8461    0.4701 H   0  0  0  0  0  0  0  0  0  0  0  0
    1.4326    1.1852   -1.2413 H   0  0  0  0  0  0  0  0  0  0  0  0
   -2.4954   -0.6116    1.3854 H   0  0  0  0  0  0  0  0  0  0  0  0
   -2.9879    0.9777    0.6233 H   0  0  0  0  0  0  0  0  0  0  0  0
   -0.6595   -0.0716   -2.1123 H   0  0  0  0  0  0  0  0  0  0  0  0
   -0.2194   -1.7849    0.5237 H   0  0  0  0  0  0  0  0  0  0  0  0
  1  2  1  0
  2  3  1  0
  3  4  1  0
  4  5  1  0
  5  6  1  0
  6  7  1  0
  7  8  1  0
  8  9  1  0
  9  1  1  0
  7  3  1  0
  8  3  1  0
  1 10  1  0
  1 11  1  0
  2 12  1  0
  2 13  1  0
  5 14  1  0
  5 15  1  0
  7 16  1  0
  8 17  1  0
M  END
