
     RDKit          3D

 18 19  0  0  0  0  0  0  0  0999 V2000
    1.7233   -0.1044    0.4560 C   0  0  0  0  0  0  0  0  0  0  0  0
    0.5247   -1.0529    0.6039 C   0  0  0  0  0  0  0  0  0  0  0  0
   -0.5196   -0.5164   -0.3366 C   0  0  0  0  0  0  0  0  0  0  0  0
   -0.7666    0.9238   -0.0525 C   0  0  0  0  0  0  0  0  0  0  0  0
    0.4908    1.7567    0.0147 C   0  0  0  0  0  0  0  0  0  0  0  0
    1.3882    1.1568    0.9072 O   0  0  0  0  0  0  0  0  0  0  0  0
   -1.6985   -1.3423   -0.7154 C   0  0  0  0  0  0  0  0  0  0  0  0
   -0.6680   -1.0587   -1.5825 O   0  0  0  0  0  0  0  0  0  0  0  0
    2.6311   -0.5238    0.8833 H   0  0  0  0  0  0  0  0  0  0  0  0
    1.8859   -0.0332   -0.6539 H   0  0  0  0  0  0  0  0  0  0  0  0
    0.8393   -2.0671    0.3162 H   0  0  0  0  0  0  0  0  0  0  0  0
    0.1637   -0.9859    1.6492 H   0  0  0  0  0  0  0  0  0  0  0  0
   -1.2071    0.9835    0.9875 H   0  0  0  0  0  0  0  0  0  0  0  0
   -1.4779    1.3213   -0.7794 H   0  0  0  0  0  0  0  0  0  0  0  0
    0.1873    2.7500    0.4479 H   0  0  0  0  0  0  0  0  0  0  0  0
    0.9385    1.9503   -0.9731 H   0  0  0  0  0  0  0  0  0  0  0  0
   -1.7770   -2.3109   -0.2044 H   0  0  0  0  0  0  0  0  0  0  0  0
   -2.6581   -0.8467   -0.9680 H   0  0  0  0  0  0  0  0  0  0  0  0
  1  2  1  0
  2  3  1  0
  3  4  1  0
  4  5  1  0
  5  6  1  0
  3  7  1  0
  7  8  1  0
  6  1  1  0
  8  3  1  0
  1  9  1  0
  1 10  1  0
  2 11  1  0
  2 12  1  0
  4 13  1  0
  4 14  1  0
  5 15  1  0
  5 16  1  0
  7 17  1  0
  7 18  1  0
M  END
