
     RDKit          3D

 19 22  0  0  0  0  0  0  0  0999 V2000
   -1.8743    0.2505    0.9267 C   0  0  0  0  0  0  0  0  0  0  0  0
   -1.2859    1.1089   -0.1320 C   0  0  0  0  0  0  0  0  0  0  0  0
   -0.0572    0.3692   -0.5660 C   0  0  0  0  0  0  0  0  0  0  0  0
   -0.2747   -0.8866   -1.2993 C   0  0  0  0  0  0  0  0  0  0  0  0
   -0.1220   -0.9138    0.1669 C   0  0  0  0  0  0  0  0  0  0  0  0
   -1.1642   -0.9021    1.0438 O   0  0  0  0  0  0  0  0  0  0  0  0
    1.2896   -0.7632    0.6823 C   0  0  0  0  0  0  0  0  0  0  0  0
    2.3440   -0.3649   -0.2638 C   0  0  0  0  0  0  0  0  0  0  0  0
    1.2688    0.6432    0.0616 C   0  0  0  0  0  0  0  0  0  0  0  0
   -1.9279    0.8608    1.8679 H   0  0  0  0  0  0  0  0  0  0  0  0
   -2.9471   -0.0186    0.7019 H   0  0  0  0  0  0  0  0  0  0  0  0
   -2.0148    1.1595   -0.9805 H   0  0  0  0  0  0  0  0  0  0  0  0
   -1.0517    2.1300    0.1610 H   0  0  0  0  0  0  0  0  0  0  0  0
   -1.2935   -1.0538   -1.7302 H   0  0  0  0  0  0  0  0  0  0  0  0
    0.5116   -1.3585   -1.9326 H   0  0  0  0  0  0  0  0  0  0  0  0
    1.4613   -0.8724    1.7479 H   0  0  0  0  0  0  0  0  0  0  0  0
    2.3592   -0.7611   -1.3076 H   0  0  0  0  0  0  0  0  0  0  0  0
    3.3379   -0.0858    0.0986 H   0  0  0  0  0  0  0  0  0  0  0  0
    1.4409    1.4587    0.7535 H   0  0  0  0  0  0  0  0  0  0  0  0
  1  2  1  0
  2  3  1  0
  3  4  1  0
  4  5  1  0
  5  6  1  0
  5  7  1  0
  7  8  1  0
  8  9  1  0
  6  1  1  0
  9  7  1  0
  5  3  1  0
  9  3  1  0
  1 10  1  0
  1 11  1  0
  2 12  1  0
  2 13  1  0
  4 14  1  0
  4 15  1  0
  7 16  1  0
  8 17  1  0
  8 18  1  0
  9 19  1  0
M  END
