
     RDKit          3D

 23 24  0  0  0  0  0  0  0  0999 V2000
   -1.5808   -1.1810   -0.0145 C   0  0  0  0  0  0  0  0  0  0  0  0
   -0.2761   -1.5751    0.5318 C   0  0  0  0  0  0  0  0  0  0  0  0
    0.9522   -1.0723   -0.0528 C   0  0  0  0  0  0  0  0  0  0  0  0
    1.4117    0.1670    0.7235 C   0  0  0  0  0  0  0  0  0  0  0  0
    1.0808    0.9791   -0.4847 C   0  0  0  0  0  0  0  0  0  0  0  0
   -0.1166    1.8221   -0.2660 C   0  0  0  0  0  0  0  0  0  0  0  0
   -1.3054    1.1023    0.2717 C   0  0  0  0  0  0  0  0  0  0  0  0
   -1.7056    0.0720   -0.5250 O   0  0  0  0  0  0  0  0  0  0  0  0
    0.9133   -0.2515   -1.2758 C   0  0  0  0  0  0  0  0  0  0  0  0
   -2.3625   -1.2859    0.7969 H   0  0  0  0  0  0  0  0  0  0  0  0
   -1.9089   -1.9063   -0.7992 H   0  0  0  0  0  0  0  0  0  0  0  0
   -0.2428   -2.7071    0.5526 H   0  0  0  0  0  0  0  0  0  0  0  0
   -0.2657   -1.3144    1.6344 H   0  0  0  0  0  0  0  0  0  0  0  0
    1.7945   -1.8224   -0.0008 H   0  0  0  0  0  0  0  0  0  0  0  0
    0.8085    0.3677    1.6398 H   0  0  0  0  0  0  0  0  0  0  0  0
    2.4746    0.1848    0.9905 H   0  0  0  0  0  0  0  0  0  0  0  0
    1.9532    1.6321   -0.7781 H   0  0  0  0  0  0  0  0  0  0  0  0
   -0.3890    2.3858   -1.1884 H   0  0  0  0  0  0  0  0  0  0  0  0
    0.1468    2.6054    0.4857 H   0  0  0  0  0  0  0  0  0  0  0  0
   -2.1499    1.8398    0.3188 H   0  0  0  0  0  0  0  0  0  0  0  0
   -1.1656    0.7384    1.2933 H   0  0  0  0  0  0  0  0  0  0  0  0
    1.8541   -0.4341   -1.8840 H   0  0  0  0  0  0  0  0  0  0  0  0
    0.0792   -0.3464   -1.9698 H   0  0  0  0  0  0  0  0  0  0  0  0
  1  2  1  0
  2  3  1  0
  3  4  1  0
  4  5  1  0
  5  6  1  0
  6  7  1  0
  7  8  1  0
  5  9  1  0
  8  1  1  0
  9  3  1  0
  1 10  1  0
  1 11  1  0
  2 12  1  0
  2 13  1  0
  3 14  1  0
  4 15  1  0
  4 16  1  0
  5 17  1  0
  6 18  1  0
  6 19  1  0
  7 20  1  0
  7 21  1  0
  9 22  1  0
  9 23  1  0
M  END
