
     RDKit          3D

 21 23  0  0  0  0  0  0  0  0999 V2000
    1.8061   -0.4672    0.0527 C   0  0  0  0  0  0  0  0  0  0  0  0
    1.2520    0.2819    1.2315 C   0  0  0  0  0  0  0  0  0  0  0  0
   -0.0967    0.8773    0.9080 C   0  0  0  0  0  0  0  0  0  0  0  0
    0.1413    1.7808   -0.1565 O   0  0  0  0  0  0  0  0  0  0  0  0
   -0.0848    0.6906   -1.0303 C   0  0  0  0  0  0  0  0  0  0  0  0
    1.2083   -0.0500   -1.2591 C   0  0  0  0  0  0  0  0  0  0  0  0
   -0.9338    0.1019    0.0051 C   0  0  0  0  0  0  0  0  0  0  0  0
   -2.3846    0.0167   -0.0074 C   0  0  0  0  0  0  0  0  0  0  0  0
   -1.4730   -1.2034    0.1218 C   0  0  0  0  0  0  0  0  0  0  0  0
    2.9150   -0.2922   -0.0336 H   0  0  0  0  0  0  0  0  0  0  0  0
    1.5910   -1.5403    0.2128 H   0  0  0  0  0  0  0  0  0  0  0  0
    1.2752   -0.2861    2.1660 H   0  0  0  0  0  0  0  0  0  0  0  0
    1.9441    1.1614    1.3928 H   0  0  0  0  0  0  0  0  0  0  0  0
   -0.6279    1.2985    1.7608 H   0  0  0  0  0  0  0  0  0  0  0  0
   -0.5473    1.0871   -1.9486 H   0  0  0  0  0  0  0  0  0  0  0  0
    0.9674   -0.9510   -1.8722 H   0  0  0  0  0  0  0  0  0  0  0  0
    1.8987    0.6058   -1.8450 H   0  0  0  0  0  0  0  0  0  0  0  0
   -2.9140    0.3691    0.9136 H   0  0  0  0  0  0  0  0  0  0  0  0
   -2.8911    0.1828   -0.9907 H   0  0  0  0  0  0  0  0  0  0  0  0
   -1.5075   -1.9332   -0.7292 H   0  0  0  0  0  0  0  0  0  0  0  0
   -1.5382   -1.7304    1.1075 H   0  0  0  0  0  0  0  0  0  0  0  0
  1  2  1  0
  2  3  1  0
  3  4  1  0
  4  5  1  0
  5  6  1  0
  5  7  1  0
  7  8  1  0
  8  9  1  0
  6  1  1  0
  9  7  1  0
  7  3  1  0
  1 10  1  0
  1 11  1  0
  2 12  1  0
  2 13  1  0
  3 14  1  0
  5 15  1  0
  6 16  1  0
  6 17  1  0
  8 18  1  0
  8 19  1  0
  9 20  1  0
  9 21  1  0
M  END
