
     RDKit          3D

 18 20  0  0  0  0  0  0  0  0999 V2000
   -1.3769    0.4838   -0.1329 C   0  0  0  0  0  0  0  0  0  0  0  0
   -1.2733   -0.9516    0.4266 C   0  0  0  0  0  0  0  0  0  0  0  0
    0.1677   -0.9571    0.8541 C   0  0  0  0  0  0  0  0  0  0  0  0
    1.4763   -0.7855    0.2910 C   0  0  0  0  0  0  0  0  0  0  0  0
    2.1117    0.4848    0.1087 O   0  0  0  0  0  0  0  0  0  0  0  0
    1.0058    1.3725   -0.0072 C   0  0  0  0  0  0  0  0  0  0  0  0
   -0.0361    0.6366   -0.8119 C   0  0  0  0  0  0  0  0  0  0  0  0
    0.5030   -0.7511   -0.6550 C   0  0  0  0  0  0  0  0  0  0  0  0
   -2.1816    0.4744   -0.8686 H   0  0  0  0  0  0  0  0  0  0  0  0
   -1.5285    1.1972    0.6956 H   0  0  0  0  0  0  0  0  0  0  0  0
   -1.5380   -1.6966   -0.3475 H   0  0  0  0  0  0  0  0  0  0  0  0
   -1.9105   -1.1372    1.2761 H   0  0  0  0  0  0  0  0  0  0  0  0
    0.1528   -0.1092    1.6036 H   0  0  0  0  0  0  0  0  0  0  0  0
    2.2320   -1.5897    0.4013 H   0  0  0  0  0  0  0  0  0  0  0  0
    0.6701    1.7499    0.9449 H   0  0  0  0  0  0  0  0  0  0  0  0
    1.3816    2.2081   -0.6299 H   0  0  0  0  0  0  0  0  0  0  0  0
   -0.0953    0.9427   -1.8544 H   0  0  0  0  0  0  0  0  0  0  0  0
    0.2393   -1.5720   -1.2945 H   0  0  0  0  0  0  0  0  0  0  0  0
  1  2  1  0
  2  3  1  0
  3  4  1  0
  4  5  1  0
  5  6  1  0
  6  7  1  0
  7  8  1  0
  7  1  1  0
  8  3  1  0
  8  4  1  0
  1  9  1  0
  1 10  1  0
  2 11  1  0
  2 12  1  0
  3 13  1  0
  4 14  1  0
  6 15  1  0
  6 16  1  0
  7 17  1  0
  8 18  1  0
M  END
