
     RDKit          3D

 17 20  0  0  0  0  0  0  0  0999 V2000
   -2.3010    0.1939   -0.2436 C   0  0  0  0  0  0  0  0  0  0  0  0
   -1.5363   -0.8947    0.5067 C   0  0  0  0  0  0  0  0  0  0  0  0
   -0.4100   -0.1655   -0.0879 C   0  0  0  0  0  0  0  0  0  0  0  0
   -1.1484    0.5460   -0.9665 O   0  0  0  0  0  0  0  0  0  0  0  0
    0.6247    0.3587    0.7965 C   0  0  0  0  0  0  0  0  0  0  0  0
    1.6508    1.2766    0.2122 C   0  0  0  0  0  0  0  0  0  0  0  0
    1.8429    1.3854   -1.1379 O   0  0  0  0  0  0  0  0  0  0  0  0
    2.0986    0.1284   -0.6547 C   0  0  0  0  0  0  0  0  0  0  0  0
    0.9234   -0.7071   -0.3152 C   0  0  0  0  0  0  0  0  0  0  0  0
   -2.6818    1.0099    0.4052 H   0  0  0  0  0  0  0  0  0  0  0  0
   -3.1216   -0.2185   -0.8520 H   0  0  0  0  0  0  0  0  0  0  0  0
   -1.7106   -1.9175    0.1462 H   0  0  0  0  0  0  0  0  0  0  0  0
   -1.5939   -0.7982    1.6186 H   0  0  0  0  0  0  0  0  0  0  0  0
    0.7513   -0.0016    1.8227 H   0  0  0  0  0  0  0  0  0  0  0  0
    2.3401    1.7356    0.9368 H   0  0  0  0  0  0  0  0  0  0  0  0
    3.1308   -0.2074   -0.4396 H   0  0  0  0  0  0  0  0  0  0  0  0
    1.1410   -1.7238    0.0471 H   0  0  0  0  0  0  0  0  0  0  0  0
  1  2  1  0
  2  3  1  0
  3  4  1  0
  3  5  1  0
  5  6  1  0
  6  7  1  0
  7  8  1  0
  8  9  1  0
  4  1  1  0
  9  5  1  0
  9  3  1  0
  8  6  1  0
  1 10  1  0
  1 11  1  0
  2 12  1  0
  2 13  1  0
  5 14  1  0
  6 15  1  0
  8 16  1  0
  9 17  1  0
M  END
