
     RDKit          3D

 19 21  0  0  0  0  0  0  0  0999 V2000
    1.9857   -0.0882   -0.2629 C   0  0  0  0  0  0  0  0  0  0  0  0
    1.2251   -1.2290    0.3170 C   0  0  0  0  0  0  0  0  0  0  0  0
   -0.2243   -1.0222    0.4840 C   0  0  0  0  0  0  0  0  0  0  0  0
   -1.0470   -1.3613   -0.5957 O   0  0  0  0  0  0  0  0  0  0  0  0
   -1.6802   -0.1426   -0.7244 C   0  0  0  0  0  0  0  0  0  0  0  0
   -2.1415    0.6166    0.4763 C   0  0  0  0  0  0  0  0  0  0  0  0
   -0.7011    0.3846    0.3539 C   0  0  0  0  0  0  0  0  0  0  0  0
    0.2760    1.3595   -0.1613 C   0  0  0  0  0  0  0  0  0  0  0  0
    1.5447    1.1114    0.3020 O   0  0  0  0  0  0  0  0  0  0  0  0
    3.0731   -0.1661    0.0249 H   0  0  0  0  0  0  0  0  0  0  0  0
    1.9684   -0.0768   -1.3651 H   0  0  0  0  0  0  0  0  0  0  0  0
    1.4101   -2.1491   -0.3095 H   0  0  0  0  0  0  0  0  0  0  0  0
    1.6664   -1.4385    1.3354 H   0  0  0  0  0  0  0  0  0  0  0  0
   -0.6809   -1.4833    1.4088 H   0  0  0  0  0  0  0  0  0  0  0  0
   -1.7090    0.3793   -1.6866 H   0  0  0  0  0  0  0  0  0  0  0  0
   -2.6695   -0.0296    1.2376 H   0  0  0  0  0  0  0  0  0  0  0  0
   -2.5830    1.5923    0.3000 H   0  0  0  0  0  0  0  0  0  0  0  0
   -0.0482    2.3893    0.1528 H   0  0  0  0  0  0  0  0  0  0  0  0
    0.3352    1.3535   -1.2872 H   0  0  0  0  0  0  0  0  0  0  0  0
  1  2  1  0
  2  3  1  0
  3  4  1  0
  4  5  1  0
  5  6  1  0
  6  7  1  0
  7  8  1  0
  8  9  1  0
  9  1  1  0
  7  3  1  0
  7  5  1  0
  1 10  1  0
  1 11  1  0
  2 12  1  0
  2 13  1  0
  3 14  1  0
  5 15  1  0
  6 16  1  0
  6 17  1  0
  8 18  1  0
  8 19  1  0
M  END
