
     RDKit          3D

 19 20  0  0  0  0  0  0  0  0999 V2000
   -2.1242   -0.4540   -0.4773 C   0  0  0  0  0  0  0  0  0  0  0  0
   -0.8682   -1.1520   -0.0171 C   0  0  0  0  0  0  0  0  0  0  0  0
   -0.3534    0.2040    0.4459 C   0  0  0  0  0  0  0  0  0  0  0  0
    0.9438    0.5028   -0.2205 C   0  0  0  0  0  0  0  0  0  0  0  0
    2.0353   -0.5425    0.0933 C   0  0  0  0  0  0  0  0  0  0  0  0
    2.1323    0.8856    0.5481 C   0  0  0  0  0  0  0  0  0  0  0  0
   -1.5717    0.8917   -0.0275 C   0  0  0  0  0  0  0  0  0  0  0  0
   -2.2977   -0.4486   -1.5633 H   0  0  0  0  0  0  0  0  0  0  0  0
   -2.9873   -0.8202    0.1087 H   0  0  0  0  0  0  0  0  0  0  0  0
   -0.9729   -1.8520    0.8090 H   0  0  0  0  0  0  0  0  0  0  0  0
   -0.3050   -1.5949   -0.8652 H   0  0  0  0  0  0  0  0  0  0  0  0
   -0.2320    0.2547    1.5633 H   0  0  0  0  0  0  0  0  0  0  0  0
    0.8844    0.7566   -1.3161 H   0  0  0  0  0  0  0  0  0  0  0  0
    2.6551   -0.8981   -0.7541 H   0  0  0  0  0  0  0  0  0  0  0  0
    1.8542   -1.2681    0.8801 H   0  0  0  0  0  0  0  0  0  0  0  0
    2.9432    1.4962    0.1017 H   0  0  0  0  0  0  0  0  0  0  0  0
    1.9583    1.1021    1.6257 H   0  0  0  0  0  0  0  0  0  0  0  0
   -1.4896    1.6557   -0.7992 H   0  0  0  0  0  0  0  0  0  0  0  0
   -2.2045    1.2811    0.8171 H   0  0  0  0  0  0  0  0  0  0  0  0
  1  2  1  0
  2  3  1  0
  3  4  1  0
  4  5  1  0
  5  6  1  0
  3  7  1  0
  7  1  1  0
  6  4  1  0
  1  8  1  0
  1  9  1  0
  2 10  1  0
  2 11  1  0
  3 12  1  0
  4 13  1  0
  5 14  1  0
  5 15  1  0
  6 16  1  0
  6 17  1  0
  7 18  1  0
  7 19  1  0
M  END
