
     RDKit          3D

 21 23  0  0  0  0  0  0  0  0999 V2000
    2.3550    0.6452    0.0893 C   0  0  0  0  0  0  0  0  0  0  0  0
    1.5945   -0.0784   -1.0309 C   0  0  0  0  0  0  0  0  0  0  0  0
    0.4321   -0.0802   -0.1554 C   0  0  0  0  0  0  0  0  0  0  0  0
    1.2753    0.1055    1.0389 C   0  0  0  0  0  0  0  0  0  0  0  0
   -0.6772    0.8972   -0.3982 C   0  0  0  0  0  0  0  0  0  0  0  0
   -1.5860   -0.1626    0.1316 C   0  0  0  0  0  0  0  0  0  0  0  0
   -2.9268   -0.2091    0.2906 C   0  0  0  0  0  0  0  0  0  0  0  0
   -2.0527   -0.1285    1.4226 O   0  0  0  0  0  0  0  0  0  0  0  0
   -0.5571   -1.1825   -0.1889 C   0  0  0  0  0  0  0  0  0  0  0  0
    3.3578    0.2655    0.2750 H   0  0  0  0  0  0  0  0  0  0  0  0
    2.2285    1.7419    0.0120 H   0  0  0  0  0  0  0  0  0  0  0  0
    2.0579   -1.0813   -1.1575 H   0  0  0  0  0  0  0  0  0  0  0  0
    1.5338    0.4976   -1.9668 H   0  0  0  0  0  0  0  0  0  0  0  0
    0.9363    0.8172    1.7924 H   0  0  0  0  0  0  0  0  0  0  0  0
    1.6520   -0.8722    1.4453 H   0  0  0  0  0  0  0  0  0  0  0  0
   -0.8667    1.0839   -1.4952 H   0  0  0  0  0  0  0  0  0  0  0  0
   -0.5789    1.8161    0.1868 H   0  0  0  0  0  0  0  0  0  0  0  0
   -3.5795    0.6813    0.1859 H   0  0  0  0  0  0  0  0  0  0  0  0
   -3.5253   -1.1570    0.2069 H   0  0  0  0  0  0  0  0  0  0  0  0
   -0.6930   -1.6110   -1.2249 H   0  0  0  0  0  0  0  0  0  0  0  0
   -0.3801   -1.9886    0.5405 H   0  0  0  0  0  0  0  0  0  0  0  0
  1  2  1  0
  2  3  1  0
  3  4  1  0
  3  5  1  0
  5  6  1  0
  6  7  1  0
  7  8  1  0
  6  9  1  0
  4  1  1  0
  8  6  1  0
  9  3  1  0
  1 10  1  0
  1 11  1  0
  2 12  1  0
  2 13  1  0
  4 14  1  0
  4 15  1  0
  5 16  1  0
  5 17  1  0
  7 18  1  0
  7 19  1  0
  9 20  1  0
  9 21  1  0
M  END
