
     RDKit          3D

 23 25  0  0  0  0  0  0  0  0999 V2000
    2.2197   -0.1563   -0.1929 C   0  0  0  0  0  0  0  0  0  0  0  0
    1.3165    0.9472   -0.6855 C   0  0  0  0  0  0  0  0  0  0  0  0
    0.1926    0.9191    0.2955 C   0  0  0  0  0  0  0  0  0  0  0  0
   -1.1673    1.0019   -0.3087 C   0  0  0  0  0  0  0  0  0  0  0  0
   -1.3542   -0.3433   -1.0143 C   0  0  0  0  0  0  0  0  0  0  0  0
   -1.2492   -0.8883    0.3960 C   0  0  0  0  0  0  0  0  0  0  0  0
   -2.0245    0.3748    0.8009 C   0  0  0  0  0  0  0  0  0  0  0  0
    0.1395   -0.5260    0.8364 C   0  0  0  0  0  0  0  0  0  0  0  0
    1.2191   -1.2605    0.1071 C   0  0  0  0  0  0  0  0  0  0  0  0
    2.9965   -0.4499   -0.8936 H   0  0  0  0  0  0  0  0  0  0  0  0
    2.6143    0.1704    0.8045 H   0  0  0  0  0  0  0  0  0  0  0  0
    1.8926    1.9017   -0.5640 H   0  0  0  0  0  0  0  0  0  0  0  0
    1.0127    0.8437   -1.7294 H   0  0  0  0  0  0  0  0  0  0  0  0
    0.2996    1.6457    1.1125 H   0  0  0  0  0  0  0  0  0  0  0  0
   -1.5242    1.8746   -0.7796 H   0  0  0  0  0  0  0  0  0  0  0  0
   -0.5630   -0.6236   -1.7057 H   0  0  0  0  0  0  0  0  0  0  0  0
   -2.4055   -0.4699   -1.3680 H   0  0  0  0  0  0  0  0  0  0  0  0
   -1.6717   -1.8258    0.6298 H   0  0  0  0  0  0  0  0  0  0  0  0
   -1.7177    0.7916    1.7800 H   0  0  0  0  0  0  0  0  0  0  0  0
   -3.0904    0.3429    0.5916 H   0  0  0  0  0  0  0  0  0  0  0  0
    0.2745   -0.4999    1.9258 H   0  0  0  0  0  0  0  0  0  0  0  0
    1.7177   -2.0081    0.7693 H   0  0  0  0  0  0  0  0  0  0  0  0
    0.8723   -1.7621   -0.8077 H   0  0  0  0  0  0  0  0  0  0  0  0
  1  2  1  0
  2  3  1  0
  3  4  1  0
  4  5  1  0
  5  6  1  0
  6  7  1  0
  6  8  1  0
  8  9  1  0
  9  1  1  0
  8  3  1  0
  7  4  1  0
  1 10  1  0
  1 11  1  0
  2 12  1  0
  2 13  1  0
  3 14  1  0
  4 15  1  0
  5 16  1  0
  5 17  1  0
  6 18  1  0
  7 19  1  0
  7 20  1  0
  8 21  1  0
  9 22  1  0
  9 23  1  0
M  END
