
     RDKit          3D

 20 21  0  0  0  0  0  0  0  0999 V2000
   -1.4742    0.2826   -0.4498 C   0  0  0  0  0  0  0  0  0  0  0  0
   -1.1924   -1.0430    0.1625 C   0  0  0  0  0  0  0  0  0  0  0  0
    0.2702   -1.4589   -0.0696 C   0  0  0  0  0  0  0  0  0  0  0  0
    1.0493   -0.3623    0.5683 C   0  0  0  0  0  0  0  0  0  0  0  0
    2.3022    0.1925    0.0842 C   0  0  0  0  0  0  0  0  0  0  0  0
    1.0883    0.7571   -0.4949 C   0  0  0  0  0  0  0  0  0  0  0  0
    0.3590    1.7888    0.0333 O   0  0  0  0  0  0  0  0  0  0  0  0
   -0.9582    1.4615    0.3180 C   0  0  0  0  0  0  0  0  0  0  0  0
   -2.5996    0.3942   -0.4691 H   0  0  0  0  0  0  0  0  0  0  0  0
   -1.1725    0.3111   -1.5165 H   0  0  0  0  0  0  0  0  0  0  0  0
   -1.3460   -0.9993    1.2585 H   0  0  0  0  0  0  0  0  0  0  0  0
   -1.8873   -1.8012   -0.2464 H   0  0  0  0  0  0  0  0  0  0  0  0
    0.3922   -1.4588   -1.1797 H   0  0  0  0  0  0  0  0  0  0  0  0
    0.4685   -2.4569    0.3030 H   0  0  0  0  0  0  0  0  0  0  0  0
    0.7159   -0.1043    1.5892 H   0  0  0  0  0  0  0  0  0  0  0  0
    2.9260   -0.4442   -0.5654 H   0  0  0  0  0  0  0  0  0  0  0  0
    2.9216    0.7439    0.8361 H   0  0  0  0  0  0  0  0  0  0  0  0
    0.8565    0.5177   -1.5374 H   0  0  0  0  0  0  0  0  0  0  0  0
   -1.5694    2.3439   -0.0133 H   0  0  0  0  0  0  0  0  0  0  0  0
   -1.1504    1.3355    1.3893 H   0  0  0  0  0  0  0  0  0  0  0  0
  1  2  1  0
  2  3  1  0
  3  4  1  0
  4  5  1  0
  5  6  1  0
  6  7  1  0
  7  8  1  0
  8  1  1  0
  6  4  1  0
  1  9  1  0
  1 10  1  0
  2 11  1  0
  2 12  1  0
  3 13  1  0
  3 14  1  0
  4 15  1  0
  5 16  1  0
  5 17  1  0
  6 18  1  0
  8 19  1  0
  8 20  1  0
M  END
