
     RDKit          3D

 21 23  0  0  0  0  0  0  0  0999 V2000
    2.2925    0.7403   -0.1804 C   0  0  0  0  0  0  0  0  0  0  0  0
    2.6582   -0.6550    0.2333 C   0  0  0  0  0  0  0  0  0  0  0  0
    1.3122   -0.3139   -0.4817 C   0  0  0  0  0  0  0  0  0  0  0  0
    0.0885   -0.3702    0.3602 C   0  0  0  0  0  0  0  0  0  0  0  0
   -0.7785   -1.4267   -0.0264 O   0  0  0  0  0  0  0  0  0  0  0  0
   -1.9864   -0.7990   -0.1504 C   0  0  0  0  0  0  0  0  0  0  0  0
   -2.0547    0.2503    0.9708 C   0  0  0  0  0  0  0  0  0  0  0  0
   -0.8354    0.7922    0.2106 C   0  0  0  0  0  0  0  0  0  0  0  0
   -1.6147    0.4013   -1.0388 C   0  0  0  0  0  0  0  0  0  0  0  0
    2.9282    1.1447   -1.0164 H   0  0  0  0  0  0  0  0  0  0  0  0
    2.1175    1.4938    0.6129 H   0  0  0  0  0  0  0  0  0  0  0  0
    2.5674   -0.9619    1.3000 H   0  0  0  0  0  0  0  0  0  0  0  0
    3.3825   -1.2474   -0.3585 H   0  0  0  0  0  0  0  0  0  0  0  0
    1.2527   -0.7083   -1.5234 H   0  0  0  0  0  0  0  0  0  0  0  0
    0.3713   -0.5881    1.3979 H   0  0  0  0  0  0  0  0  0  0  0  0
   -2.8758   -1.3214   -0.3868 H   0  0  0  0  0  0  0  0  0  0  0  0
   -1.8142   -0.2067    1.9415 H   0  0  0  0  0  0  0  0  0  0  0  0
   -2.9469    0.8657    0.8961 H   0  0  0  0  0  0  0  0  0  0  0  0
   -0.5416    1.7837    0.3599 H   0  0  0  0  0  0  0  0  0  0  0  0
   -2.5289    0.9834   -1.2173 H   0  0  0  0  0  0  0  0  0  0  0  0
   -0.9940    0.1433   -1.9031 H   0  0  0  0  0  0  0  0  0  0  0  0
  1  2  1  0
  2  3  1  0
  3  4  1  0
  4  5  1  0
  5  6  1  0
  6  7  1  0
  7  8  1  0
  8  9  1  0
  3  1  1  0
  8  4  1  0
  9  6  1  0
  1 10  1  0
  1 11  1  0
  2 12  1  0
  2 13  1  0
  3 14  1  0
  4 15  1  0
  6 16  1  0
  7 17  1  0
  7 18  1  0
  8 19  1  0
  9 20  1  0
  9 21  1  0
M  END
