
     RDKit          3D

 23 24  0  0  0  0  0  0  0  0999 V2000
    2.7216   -0.3771   -0.2995 C   0  0  0  0  0  0  0  0  0  0  0  0
    1.7036    0.7712   -0.2050 C   0  0  0  0  0  0  0  0  0  0  0  0
    0.6564   -0.3186   -0.2241 C   0  0  0  0  0  0  0  0  0  0  0  0
   -0.5782   -0.0392    0.5932 C   0  0  0  0  0  0  0  0  0  0  0  0
   -1.2028    1.2379    0.0164 C   0  0  0  0  0  0  0  0  0  0  0  0
   -2.6361    0.8272   -0.1563 C   0  0  0  0  0  0  0  0  0  0  0  0
   -2.4890   -0.4795   -0.6687 O   0  0  0  0  0  0  0  0  0  0  0  0
   -1.6649   -1.0412    0.3093 C   0  0  0  0  0  0  0  0  0  0  0  0
    1.6916   -1.1807    0.5089 C   0  0  0  0  0  0  0  0  0  0  0  0
    3.6634   -0.1973    0.2136 H   0  0  0  0  0  0  0  0  0  0  0  0
    2.7780   -0.6924   -1.3588 H   0  0  0  0  0  0  0  0  0  0  0  0
    1.7308    1.2589    0.8062 H   0  0  0  0  0  0  0  0  0  0  0  0
    1.7278    1.4391   -1.0612 H   0  0  0  0  0  0  0  0  0  0  0  0
    0.4704   -0.6921   -1.2297 H   0  0  0  0  0  0  0  0  0  0  0  0
   -0.3451    0.0706    1.6677 H   0  0  0  0  0  0  0  0  0  0  0  0
   -1.0587    2.0529    0.7414 H   0  0  0  0  0  0  0  0  0  0  0  0
   -0.7896    1.4963   -0.9611 H   0  0  0  0  0  0  0  0  0  0  0  0
   -3.0931    0.7576    0.8445 H   0  0  0  0  0  0  0  0  0  0  0  0
   -3.1825    1.4734   -0.8473 H   0  0  0  0  0  0  0  0  0  0  0  0
   -1.2754   -2.0241   -0.0165 H   0  0  0  0  0  0  0  0  0  0  0  0
   -2.2894   -1.2121    1.2072 H   0  0  0  0  0  0  0  0  0  0  0  0
    1.8049   -0.8896    1.5821 H   0  0  0  0  0  0  0  0  0  0  0  0
    1.6564   -2.2411    0.2859 H   0  0  0  0  0  0  0  0  0  0  0  0
  1  2  1  0
  2  3  1  0
  3  4  1  0
  4  5  1  0
  5  6  1  0
  6  7  1  0
  7  8  1  0
  3  9  1  0
  9  1  1  0
  8  4  1  0
  1 10  1  0
  1 11  1  0
  2 12  1  0
  2 13  1  0
  3 14  1  0
  4 15  1  0
  5 16  1  0
  5 17  1  0
  6 18  1  0
  6 19  1  0
  8 20  1  0
  8 21  1  0
  9 22  1  0
  9 23  1  0
M  END
