
     RDKit          3D

 23 25  0  0  0  0  0  0  0  0999 V2000
   -1.7344    0.8796    0.2115 C   0  0  0  0  0  0  0  0  0  0  0  0
   -1.6620   -0.3955    0.9866 C   0  0  0  0  0  0  0  0  0  0  0  0
   -0.8107   -1.0354   -0.1223 C   0  0  0  0  0  0  0  0  0  0  0  0
    0.5006   -1.4643    0.3528 C   0  0  0  0  0  0  0  0  0  0  0  0
    1.6727   -0.6265    0.0534 C   0  0  0  0  0  0  0  0  0  0  0  0
    1.6894    0.7193    0.8044 C   0  0  0  0  0  0  0  0  0  0  0  0
    1.5238    0.6095   -0.6585 C   0  0  0  0  0  0  0  0  0  0  0  0
    0.2551    0.8843   -1.3662 C   0  0  0  0  0  0  0  0  0  0  0  0
   -0.9511    0.1876   -0.9005 C   0  0  0  0  0  0  0  0  0  0  0  0
   -2.7707    1.1719   -0.0353 H   0  0  0  0  0  0  0  0  0  0  0  0
   -1.2148    1.7587    0.6432 H   0  0  0  0  0  0  0  0  0  0  0  0
   -2.6414   -0.8476    1.1478 H   0  0  0  0  0  0  0  0  0  0  0  0
   -1.1057   -0.3446    1.9435 H   0  0  0  0  0  0  0  0  0  0  0  0
   -1.4025   -1.9125   -0.5246 H   0  0  0  0  0  0  0  0  0  0  0  0
    0.4521   -1.5833    1.4790 H   0  0  0  0  0  0  0  0  0  0  0  0
    0.7424   -2.5174    0.0105 H   0  0  0  0  0  0  0  0  0  0  0  0
    2.6750   -1.1489    0.0444 H   0  0  0  0  0  0  0  0  0  0  0  0
    0.8709    0.9394    1.4970 H   0  0  0  0  0  0  0  0  0  0  0  0
    2.6871    1.0364    1.2294 H   0  0  0  0  0  0  0  0  0  0  0  0
    2.4314    0.9653   -1.2384 H   0  0  0  0  0  0  0  0  0  0  0  0
    0.0471    1.9956   -1.3357 H   0  0  0  0  0  0  0  0  0  0  0  0
    0.4201    0.6777   -2.4594 H   0  0  0  0  0  0  0  0  0  0  0  0
   -1.6745    0.0507   -1.7625 H   0  0  0  0  0  0  0  0  0  0  0  0
  1  2  1  0
  2  3  1  0
  3  4  1  0
  4  5  1  0
  5  6  1  0
  6  7  1  0
  7  8  1  0
  8  9  1  0
  9  1  1  0
  9  3  1  0
  7  5  1  0
  1 10  1  0
  1 11  1  0
  2 12  1  0
  2 13  1  0
  3 14  1  0
  4 15  1  0
  4 16  1  0
  5 17  1  0
  6 18  1  0
  6 19  1  0
  7 20  1  0
  8 21  1  0
  8 22  1  0
  9 23  1  0
M  END
