
     RDKit          3D

 19 20  0  0  0  0  0  0  0  0999 V2000
    1.1784   -0.8071    1.1314 C   0  0  0  0  0  0  0  0  0  0  0  0
    0.0251   -1.2422    0.2632 C   0  0  0  0  0  0  0  0  0  0  0  0
   -0.4406   -0.0229   -0.4809 C   0  0  0  0  0  0  0  0  0  0  0  0
   -1.1576    1.0028    0.3493 C   0  0  0  0  0  0  0  0  0  0  0  0
   -2.0102    1.2244   -0.7433 O   0  0  0  0  0  0  0  0  0  0  0  0
   -1.7548   -0.1020   -1.1646 C   0  0  0  0  0  0  0  0  0  0  0  0
    0.6295    0.4692   -1.1973 O   0  0  0  0  0  0  0  0  0  0  0  0
    1.6308    0.9018   -0.3800 C   0  0  0  0  0  0  0  0  0  0  0  0
    1.6393    0.4429    0.8886 O   0  0  0  0  0  0  0  0  0  0  0  0
    2.0150   -1.5383    1.1368 H   0  0  0  0  0  0  0  0  0  0  0  0
    0.7850   -0.8213    2.1915 H   0  0  0  0  0  0  0  0  0  0  0  0
   -0.7560   -1.7869    0.7875 H   0  0  0  0  0  0  0  0  0  0  0  0
    0.4474   -1.9471   -0.5046 H   0  0  0  0  0  0  0  0  0  0  0  0
   -1.6525    0.5563    1.2371 H   0  0  0  0  0  0  0  0  0  0  0  0
   -0.5518    1.9124    0.5821 H   0  0  0  0  0  0  0  0  0  0  0  0
   -1.7457   -0.2083   -2.2655 H   0  0  0  0  0  0  0  0  0  0  0  0
   -2.4590   -0.7630   -0.6187 H   0  0  0  0  0  0  0  0  0  0  0  0
    1.5657    2.0297   -0.3434 H   0  0  0  0  0  0  0  0  0  0  0  0
    2.6120    0.6998   -0.8691 H   0  0  0  0  0  0  0  0  0  0  0  0
  1  2  1  0
  2  3  1  0
  3  4  1  0
  4  5  1  0
  5  6  1  0
  3  7  1  0
  7  8  1  0
  8  9  1  0
  9  1  1  0
  6  3  1  0
  1 10  1  0
  1 11  1  0
  2 12  1  0
  2 13  1  0
  4 14  1  0
  4 15  1  0
  6 16  1  0
  6 17  1  0
  8 18  1  0
  8 19  1  0
M  END
