
     RDKit          3D

 23 25  0  0  0  0  0  0  0  0999 V2000
    0.9479    1.0045   -0.8507 C   0  0  0  0  0  0  0  0  0  0  0  0
    1.5642    0.3773    0.3790 C   0  0  0  0  0  0  0  0  0  0  0  0
    0.5637   -0.5651    0.9684 C   0  0  0  0  0  0  0  0  0  0  0  0
    0.3871   -1.7559    0.0286 C   0  0  0  0  0  0  0  0  0  0  0  0
   -0.6264   -1.3206   -0.9850 C   0  0  0  0  0  0  0  0  0  0  0  0
   -1.2588   -0.0960   -0.4327 C   0  0  0  0  0  0  0  0  0  0  0  0
   -0.5191    1.2043   -0.6439 C   0  0  0  0  0  0  0  0  0  0  0  0
   -0.8450    1.5108    0.8263 C   0  0  0  0  0  0  0  0  0  0  0  0
   -0.8158    0.0033    1.0322 C   0  0  0  0  0  0  0  0  0  0  0  0
    1.0823    0.3093   -1.7137 H   0  0  0  0  0  0  0  0  0  0  0  0
    1.4261    1.9770   -0.9976 H   0  0  0  0  0  0  0  0  0  0  0  0
    1.9629    1.1094    1.0928 H   0  0  0  0  0  0  0  0  0  0  0  0
    2.4375   -0.2371    0.0430 H   0  0  0  0  0  0  0  0  0  0  0  0
    0.8607   -0.9089    1.9764 H   0  0  0  0  0  0  0  0  0  0  0  0
    0.0302   -2.6011    0.6702 H   0  0  0  0  0  0  0  0  0  0  0  0
    1.3572   -2.0186   -0.4420 H   0  0  0  0  0  0  0  0  0  0  0  0
   -0.2420   -1.2349   -2.0088 H   0  0  0  0  0  0  0  0  0  0  0  0
   -1.4255   -2.1182   -1.0294 H   0  0  0  0  0  0  0  0  0  0  0  0
   -2.3467   -0.0110   -0.5780 H   0  0  0  0  0  0  0  0  0  0  0  0
   -1.0402    1.8352   -1.3671 H   0  0  0  0  0  0  0  0  0  0  0  0
   -0.0885    2.0827    1.3564 H   0  0  0  0  0  0  0  0  0  0  0  0
   -1.9012    1.8520    0.9165 H   0  0  0  0  0  0  0  0  0  0  0  0
   -1.5106   -0.3983    1.7590 H   0  0  0  0  0  0  0  0  0  0  0  0
  1  2  1  0
  2  3  1  0
  3  4  1  0
  4  5  1  0
  5  6  1  0
  6  7  1  0
  7  8  1  0
  8  9  1  0
  7  1  1  0
  9  3  1  0
  9  6  1  0
  1 10  1  0
  1 11  1  0
  2 12  1  0
  2 13  1  0
  3 14  1  0
  4 15  1  0
  4 16  1  0
  5 17  1  0
  5 18  1  0
  6 19  1  0
  7 20  1  0
  8 21  1  0
  8 22  1  0
  9 23  1  0
M  END
