
     RDKit          3D

 23 25  0  0  0  0  0  0  0  0999 V2000
    2.6213    0.0301    0.1269 C   0  0  0  0  0  0  0  0  0  0  0  0
    2.0436    0.5554   -1.1693 C   0  0  0  0  0  0  0  0  0  0  0  0
    1.3196    0.7972    0.0590 C   0  0  0  0  0  0  0  0  0  0  0  0
    0.1340    0.0888    0.5557 C   0  0  0  0  0  0  0  0  0  0  0  0
   -0.1875   -1.2075   -0.1816 C   0  0  0  0  0  0  0  0  0  0  0  0
   -1.6380   -0.9446   -0.4947 C   0  0  0  0  0  0  0  0  0  0  0  0
   -1.5542    0.4831   -1.0552 C   0  0  0  0  0  0  0  0  0  0  0  0
   -1.1627    0.8129    0.3850 C   0  0  0  0  0  0  0  0  0  0  0  0
   -2.1737   -0.2787    0.7615 C   0  0  0  0  0  0  0  0  0  0  0  0
    3.5178    0.4894    0.5617 H   0  0  0  0  0  0  0  0  0  0  0  0
    2.5582   -1.0757    0.3162 H   0  0  0  0  0  0  0  0  0  0  0  0
    1.8428   -0.2098   -1.9145 H   0  0  0  0  0  0  0  0  0  0  0  0
    2.6573    1.4020   -1.5996 H   0  0  0  0  0  0  0  0  0  0  0  0
    1.4250    1.8301    0.5052 H   0  0  0  0  0  0  0  0  0  0  0  0
    0.2553   -0.1570    1.6345 H   0  0  0  0  0  0  0  0  0  0  0  0
   -0.0536   -2.0968    0.4900 H   0  0  0  0  0  0  0  0  0  0  0  0
    0.3455   -1.3299   -1.1163 H   0  0  0  0  0  0  0  0  0  0  0  0
   -2.2241   -1.6511   -1.0068 H   0  0  0  0  0  0  0  0  0  0  0  0
   -0.7497    0.6219   -1.7877 H   0  0  0  0  0  0  0  0  0  0  0  0
   -2.5634    0.8058   -1.3327 H   0  0  0  0  0  0  0  0  0  0  0  0
   -1.3161    1.7884    0.7478 H   0  0  0  0  0  0  0  0  0  0  0  0
   -3.2205    0.0036    0.6443 H   0  0  0  0  0  0  0  0  0  0  0  0
   -1.8768   -0.7580    1.7095 H   0  0  0  0  0  0  0  0  0  0  0  0
  1  2  1  0
  2  3  1  0
  3  4  1  0
  4  5  1  0
  5  6  1  0
  6  7  1  0
  7  8  1  0
  8  9  1  0
  3  1  1  0
  8  4  1  0
  9  6  1  0
  1 10  1  0
  1 11  1  0
  2 12  1  0
  2 13  1  0
  3 14  1  0
  4 15  1  0
  5 16  1  0
  5 17  1  0
  6 18  1  0
  7 19  1  0
  7 20  1  0
  8 21  1  0
  9 22  1  0
  9 23  1  0
M  END
