
     RDKit          3D

 19 21  0  0  0  0  0  0  0  0999 V2000
    1.2079    0.8528   -0.8872 C   0  0  0  0  0  0  0  0  0  0  0  0
    0.8463   -0.5846   -1.0249 C   0  0  0  0  0  0  0  0  0  0  0  0
    0.1565   -1.0254    0.2474 C   0  0  0  0  0  0  0  0  0  0  0  0
    0.8150   -0.2220    1.3784 C   0  0  0  0  0  0  0  0  0  0  0  0
   -0.1601    0.8979    0.9819 C   0  0  0  0  0  0  0  0  0  0  0  0
    0.4132    1.5879   -0.0572 O   0  0  0  0  0  0  0  0  0  0  0  0
   -1.0466   -0.1545    0.4138 C   0  0  0  0  0  0  0  0  0  0  0  0
   -2.1345   -0.0283   -0.4453 C   0  0  0  0  0  0  0  0  0  0  0  0
   -2.2023   -0.5616    0.9641 O   0  0  0  0  0  0  0  0  0  0  0  0
    2.2839    0.9225   -0.6251 H   0  0  0  0  0  0  0  0  0  0  0  0
    1.1206    1.3139   -1.9155 H   0  0  0  0  0  0  0  0  0  0  0  0
    0.0723   -0.6918   -1.8395 H   0  0  0  0  0  0  0  0  0  0  0  0
    1.7004   -1.2084   -1.2904 H   0  0  0  0  0  0  0  0  0  0  0  0
    0.0619   -2.0872    0.4211 H   0  0  0  0  0  0  0  0  0  0  0  0
    1.8662    0.0216    1.1803 H   0  0  0  0  0  0  0  0  0  0  0  0
    0.6039   -0.6028    2.3874 H   0  0  0  0  0  0  0  0  0  0  0  0
   -0.5081    1.4880    1.8183 H   0  0  0  0  0  0  0  0  0  0  0  0
   -2.3896   -0.8444   -1.1774 H   0  0  0  0  0  0  0  0  0  0  0  0
   -2.7071    0.9264   -0.5303 H   0  0  0  0  0  0  0  0  0  0  0  0
  1  2  1  0
  2  3  1  0
  3  4  1  0
  4  5  1  0
  5  6  1  0
  5  7  1  0
  7  8  1  0
  8  9  1  0
  6  1  1  0
  9  7  1  0
  7  3  1  0
  1 10  1  0
  1 11  1  0
  2 12  1  0
  2 13  1  0
  3 14  1  0
  4 15  1  0
  4 16  1  0
  5 17  1  0
  8 18  1  0
  8 19  1  0
M  END
