
     RDKit          3D

 21 23  0  0  0  0  0  0  0  0999 V2000
   -1.7202   -1.1727    0.2627 C   0  0  0  0  0  0  0  0  0  0  0  0
   -2.5689    0.0264   -0.0627 C   0  0  0  0  0  0  0  0  0  0  0  0
   -1.2655    0.1268    0.7589 C   0  0  0  0  0  0  0  0  0  0  0  0
   -0.2008    0.9582    0.1275 C   0  0  0  0  0  0  0  0  0  0  0  0
    1.1403    0.3230    0.0409 C   0  0  0  0  0  0  0  0  0  0  0  0
    2.2207    1.1706   -0.5924 C   0  0  0  0  0  0  0  0  0  0  0  0
    2.4475    0.1433   -1.4914 O   0  0  0  0  0  0  0  0  0  0  0  0
    1.4468   -0.7318   -1.0121 C   0  0  0  0  0  0  0  0  0  0  0  0
    1.4376   -1.0550    0.4209 C   0  0  0  0  0  0  0  0  0  0  0  0
   -2.1986   -1.8517    1.0294 H   0  0  0  0  0  0  0  0  0  0  0  0
   -1.2945   -1.7493   -0.5547 H   0  0  0  0  0  0  0  0  0  0  0  0
   -2.5285    0.3671   -1.1175 H   0  0  0  0  0  0  0  0  0  0  0  0
   -3.4864    0.2295    0.4938 H   0  0  0  0  0  0  0  0  0  0  0  0
   -1.4110    0.3466    1.8532 H   0  0  0  0  0  0  0  0  0  0  0  0
   -0.0749    1.8892    0.7511 H   0  0  0  0  0  0  0  0  0  0  0  0
   -0.5404    1.3817   -0.8620 H   0  0  0  0  0  0  0  0  0  0  0  0
    1.8352    2.1012   -1.0603 H   0  0  0  0  0  0  0  0  0  0  0  0
    3.0142    1.3726    0.1348 H   0  0  0  0  0  0  0  0  0  0  0  0
    0.6113   -0.9385   -1.7051 H   0  0  0  0  0  0  0  0  0  0  0  0
    0.6726   -1.7255    0.8013 H   0  0  0  0  0  0  0  0  0  0  0  0
    2.4633   -1.2116    0.8722 H   0  0  0  0  0  0  0  0  0  0  0  0
  1  2  1  0
  2  3  1  0
  3  4  1  0
  4  5  1  0
  5  6  1  0
  6  7  1  0
  7  8  1  0
  8  9  1  0
  3  1  1  0
  8  5  1  0
  9  5  1  0
  1 10  1  0
  1 11  1  0
  2 12  1  0
  2 13  1  0
  3 14  1  0
  4 15  1  0
  4 16  1  0
  6 17  1  0
  6 18  1  0
  8 19  1  0
  9 20  1  0
  9 21  1  0
M  END
