
     RDKit          3D

 21 23  0  0  0  0  0  0  0  0999 V2000
    2.2767    0.2726   -0.3147 C   0  0  0  0  0  0  0  0  0  0  0  0
    1.4477   -0.9852   -0.2073 C   0  0  0  0  0  0  0  0  0  0  0  0
    0.2263   -0.1383   -0.1091 C   0  0  0  0  0  0  0  0  0  0  0  0
    1.0274    1.0904    0.0342 C   0  0  0  0  0  0  0  0  0  0  0  0
   -0.6957   -0.4747    1.0765 C   0  0  0  0  0  0  0  0  0  0  0  0
   -2.1074   -0.1353    0.5624 C   0  0  0  0  0  0  0  0  0  0  0  0
   -1.7497    0.7729   -0.5588 C   0  0  0  0  0  0  0  0  0  0  0  0
   -1.5324    0.6039   -1.8319 O   0  0  0  0  0  0  0  0  0  0  0  0
   -0.7555   -0.2418   -1.2121 C   0  0  0  0  0  0  0  0  0  0  0  0
    2.5562    0.4623   -1.3577 H   0  0  0  0  0  0  0  0  0  0  0  0
    3.0610    0.2796    0.4415 H   0  0  0  0  0  0  0  0  0  0  0  0
    1.4396   -1.6260   -1.1176 H   0  0  0  0  0  0  0  0  0  0  0  0
    1.5888   -1.5861    0.7002 H   0  0  0  0  0  0  0  0  0  0  0  0
    0.8101    1.9128   -0.6539 H   0  0  0  0  0  0  0  0  0  0  0  0
    1.1027    1.4369    1.1031 H   0  0  0  0  0  0  0  0  0  0  0  0
   -0.4381    0.0883    1.9703 H   0  0  0  0  0  0  0  0  0  0  0  0
   -0.5943   -1.5537    1.2459 H   0  0  0  0  0  0  0  0  0  0  0  0
   -2.5854    0.4405    1.3808 H   0  0  0  0  0  0  0  0  0  0  0  0
   -2.6649   -1.0303    0.2820 H   0  0  0  0  0  0  0  0  0  0  0  0
   -1.2747    1.7208   -0.1549 H   0  0  0  0  0  0  0  0  0  0  0  0
   -1.1386   -1.3096   -1.2790 H   0  0  0  0  0  0  0  0  0  0  0  0
  1  2  1  0
  2  3  1  0
  3  4  1  0
  3  5  1  0
  5  6  1  0
  6  7  1  0
  7  8  1  0
  8  9  1  0
  4  1  1  0
  9  7  1  0
  9  3  1  0
  1 10  1  0
  1 11  1  0
  2 12  1  0
  2 13  1  0
  4 14  1  0
  4 15  1  0
  5 16  1  0
  5 17  1  0
  6 18  1  0
  6 19  1  0
  7 20  1  0
  9 21  1  0
M  END
