
     RDKit          3D

 21 23  0  0  0  0  0  0  0  0999 V2000
   -1.4364   -1.0633    0.1599 C   0  0  0  0  0  0  0  0  0  0  0  0
   -2.0498    0.2762   -0.2655 C   0  0  0  0  0  0  0  0  0  0  0  0
   -1.2246    1.3726    0.3262 C   0  0  0  0  0  0  0  0  0  0  0  0
   -0.2493    1.9966   -0.4846 O   0  0  0  0  0  0  0  0  0  0  0  0
    0.0977    1.0939    0.6675 C   0  0  0  0  0  0  0  0  0  0  0  0
    0.7949   -0.0947    0.1353 C   0  0  0  0  0  0  0  0  0  0  0  0
   -0.0860   -1.1379   -0.4790 C   0  0  0  0  0  0  0  0  0  0  0  0
    2.1498   -0.4983    0.5853 C   0  0  0  0  0  0  0  0  0  0  0  0
    2.0480    0.2320   -0.6989 C   0  0  0  0  0  0  0  0  0  0  0  0
   -1.3102   -1.0371    1.2742 H   0  0  0  0  0  0  0  0  0  0  0  0
   -2.1131   -1.8812   -0.1145 H   0  0  0  0  0  0  0  0  0  0  0  0
   -2.1142    0.3044   -1.3729 H   0  0  0  0  0  0  0  0  0  0  0  0
   -3.0780    0.2698    0.1788 H   0  0  0  0  0  0  0  0  0  0  0  0
   -1.7998    2.1277    0.9094 H   0  0  0  0  0  0  0  0  0  0  0  0
    0.6319    1.6557    1.4653 H   0  0  0  0  0  0  0  0  0  0  0  0
   -0.1802   -0.8898   -1.5668 H   0  0  0  0  0  0  0  0  0  0  0  0
    0.3682   -2.1448   -0.4381 H   0  0  0  0  0  0  0  0  0  0  0  0
    2.3294   -1.5934    0.6118 H   0  0  0  0  0  0  0  0  0  0  0  0
    2.6379    0.0156    1.4558 H   0  0  0  0  0  0  0  0  0  0  0  0
    2.1648   -0.2807   -1.6727 H   0  0  0  0  0  0  0  0  0  0  0  0
    2.4189    1.2766   -0.6765 H   0  0  0  0  0  0  0  0  0  0  0  0
  1  2  1  0
  2  3  1  0
  3  4  1  0
  4  5  1  0
  5  6  1  0
  6  7  1  0
  6  8  1  0
  8  9  1  0
  7  1  1  0
  5  3  1  0
  9  6  1  0
  1 10  1  0
  1 11  1  0
  2 12  1  0
  2 13  1  0
  3 14  1  0
  5 15  1  0
  7 16  1  0
  7 17  1  0
  8 18  1  0
  8 19  1  0
  9 20  1  0
  9 21  1  0
M  END
