
     RDKit          3D

 21 23  0  0  0  0  0  0  0  0999 V2000
   -1.9676   -0.0159    0.8025 C   0  0  0  0  0  0  0  0  0  0  0  0
   -2.0332    1.0356   -0.3013 C   0  0  0  0  0  0  0  0  0  0  0  0
   -1.2821   -0.2222   -0.4766 C   0  0  0  0  0  0  0  0  0  0  0  0
    0.1744   -0.2693   -0.6520 C   0  0  0  0  0  0  0  0  0  0  0  0
    0.8418   -1.4035    0.1587 C   0  0  0  0  0  0  0  0  0  0  0  0
    2.2057   -0.8003    0.2501 C   0  0  0  0  0  0  0  0  0  0  0  0
    2.8235   -0.0839    1.1417 O   0  0  0  0  0  0  0  0  0  0  0  0
    1.6769    0.4985    0.9386 C   0  0  0  0  0  0  0  0  0  0  0  0
    0.9537    0.9707   -0.2774 C   0  0  0  0  0  0  0  0  0  0  0  0
   -2.9490   -0.5008    0.9971 H   0  0  0  0  0  0  0  0  0  0  0  0
   -1.4473    0.2400    1.7409 H   0  0  0  0  0  0  0  0  0  0  0  0
   -1.6168    1.9904    0.0044 H   0  0  0  0  0  0  0  0  0  0  0  0
   -3.0207    1.1697   -0.8312 H   0  0  0  0  0  0  0  0  0  0  0  0
   -1.8170   -0.9643   -1.1542 H   0  0  0  0  0  0  0  0  0  0  0  0
    0.4727   -0.5225   -1.7137 H   0  0  0  0  0  0  0  0  0  0  0  0
    0.8988   -2.3288   -0.4267 H   0  0  0  0  0  0  0  0  0  0  0  0
    0.3889   -1.5193    1.1390 H   0  0  0  0  0  0  0  0  0  0  0  0
    2.6251   -0.6584   -0.7943 H   0  0  0  0  0  0  0  0  0  0  0  0
    0.9467    0.3336    1.7898 H   0  0  0  0  0  0  0  0  0  0  0  0
    1.7586    1.1883   -1.0430 H   0  0  0  0  0  0  0  0  0  0  0  0
    0.3669    1.8623   -0.1058 H   0  0  0  0  0  0  0  0  0  0  0  0
  1  2  1  0
  2  3  1  0
  3  4  1  0
  4  5  1  0
  5  6  1  0
  6  7  1  0
  7  8  1  0
  8  9  1  0
  3  1  1  0
  9  4  1  0
  8  6  1  0
  1 10  1  0
  1 11  1  0
  2 12  1  0
  2 13  1  0
  3 14  1  0
  4 15  1  0
  5 16  1  0
  5 17  1  0
  6 18  1  0
  8 19  1  0
  9 20  1  0
  9 21  1  0
M  END
