
     RDKit          3D

 23 23  0  0  0  0  0  0  0  0999 V2000
   -1.5550   -0.5964   -0.5681 C   0  0  0  0  0  0  0  0  0  0  0  0
   -1.9102    0.6606    0.1627 C   0  0  0  0  0  0  0  0  0  0  0  0
   -0.8009    1.6566    0.2491 C   0  0  0  0  0  0  0  0  0  0  0  0
    0.3999    1.1410    0.6797 O   0  0  0  0  0  0  0  0  0  0  0  0
    1.3688    1.1156   -0.3363 C   0  0  0  0  0  0  0  0  0  0  0  0
    2.3158   -0.0218    0.0282 C   0  0  0  0  0  0  0  0  0  0  0  0
    1.4496   -1.2752    0.1068 C   0  0  0  0  0  0  0  0  0  0  0  0
    0.3370   -1.0195    0.8728 O   0  0  0  0  0  0  0  0  0  0  0  0
   -0.8348   -1.5344    0.3782 C   0  0  0  0  0  0  0  0  0  0  0  0
   -1.0310   -0.4327   -1.5102 H   0  0  0  0  0  0  0  0  0  0  0  0
   -2.5321   -1.1113   -0.8107 H   0  0  0  0  0  0  0  0  0  0  0  0
   -2.7575    1.1530   -0.3767 H   0  0  0  0  0  0  0  0  0  0  0  0
   -2.2875    0.3811    1.1586 H   0  0  0  0  0  0  0  0  0  0  0  0
   -0.6589    2.1693   -0.7335 H   0  0  0  0  0  0  0  0  0  0  0  0
   -1.1148    2.4157    1.0264 H   0  0  0  0  0  0  0  0  0  0  0  0
    1.8965    2.0843   -0.3298 H   0  0  0  0  0  0  0  0  0  0  0  0
    0.8992    0.9809   -1.3144 H   0  0  0  0  0  0  0  0  0  0  0  0
    2.6310    0.1863    1.0839 H   0  0  0  0  0  0  0  0  0  0  0  0
    3.1443   -0.1184   -0.6690 H   0  0  0  0  0  0  0  0  0  0  0  0
    1.2193   -1.5780   -0.9377 H   0  0  0  0  0  0  0  0  0  0  0  0
    2.0878   -2.0397    0.6211 H   0  0  0  0  0  0  0  0  0  0  0  0
   -1.5288   -1.6578    1.2621 H   0  0  0  0  0  0  0  0  0  0  0  0
   -0.7376   -2.5591   -0.0433 H   0  0  0  0  0  0  0  0  0  0  0  0
  1  2  1  0
  2  3  1  0
  3  4  1  0
  4  5  1  0
  5  6  1  0
  6  7  1  0
  7  8  1  0
  8  9  1  0
  9  1  1  0
  1 10  1  0
  1 11  1  0
  2 12  1  0
  2 13  1  0
  3 14  1  0
  3 15  1  0
  5 16  1  0
  5 17  1  0
  6 18  1  0
  6 19  1  0
  7 20  1  0
  7 21  1  0
  9 22  1  0
  9 23  1  0
M  END
