
     RDKit          3D

 24 24  0  0  0  0  0  0  0  0999 V2000
    1.3761    0.8922   -0.5240 C   0  0  0  0  0  0  0  0  0  0  0  0
    0.2399    1.7755   -0.1880 C   0  0  0  0  0  0  0  0  0  0  0  0
   -0.8241    1.1955    0.6681 C   0  0  0  0  0  0  0  0  0  0  0  0
   -1.7853    0.4025   -0.1615 C   0  0  0  0  0  0  0  0  0  0  0  0
   -1.2944   -0.9332   -0.5934 C   0  0  0  0  0  0  0  0  0  0  0  0
   -0.4173   -1.6326    0.4021 C   0  0  0  0  0  0  0  0  0  0  0  0
    1.0416   -1.5205    0.0827 C   0  0  0  0  0  0  0  0  0  0  0  0
    1.6601   -0.2050    0.4461 C   0  0  0  0  0  0  0  0  0  0  0  0
    2.2918    1.5477   -0.6351 H   0  0  0  0  0  0  0  0  0  0  0  0
    1.2565    0.4333   -1.5405 H   0  0  0  0  0  0  0  0  0  0  0  0
   -0.2469    2.0956   -1.1526 H   0  0  0  0  0  0  0  0  0  0  0  0
    0.5909    2.7484    0.2656 H   0  0  0  0  0  0  0  0  0  0  0  0
   -0.4619    0.6571    1.5607 H   0  0  0  0  0  0  0  0  0  0  0  0
   -1.4172    2.0657    1.0853 H   0  0  0  0  0  0  0  0  0  0  0  0
   -2.7432    0.3467    0.3936 H   0  0  0  0  0  0  0  0  0  0  0  0
   -2.0006    1.0077   -1.0791 H   0  0  0  0  0  0  0  0  0  0  0  0
   -2.2083   -1.5573   -0.8275 H   0  0  0  0  0  0  0  0  0  0  0  0
   -0.7405   -0.8965   -1.5638 H   0  0  0  0  0  0  0  0  0  0  0  0
   -0.6721   -1.3666    1.4466 H   0  0  0  0  0  0  0  0  0  0  0  0
   -0.6697   -2.7333    0.3242 H   0  0  0  0  0  0  0  0  0  0  0  0
    1.5684   -2.3117    0.6676 H   0  0  0  0  0  0  0  0  0  0  0  0
    1.1879   -1.6960   -0.9804 H   0  0  0  0  0  0  0  0  0  0  0  0
    1.4914    0.0801    1.5075 H   0  0  0  0  0  0  0  0  0  0  0  0
    2.7769   -0.3954    0.3958 H   0  0  0  0  0  0  0  0  0  0  0  0
  1  2  1  0
  2  3  1  0
  3  4  1  0
  4  5  1  0
  5  6  1  0
  6  7  1  0
  7  8  1  0
  8  1  1  0
  1  9  1  0
  1 10  1  0
  2 11  1  0
  2 12  1  0
  3 13  1  0
  3 14  1  0
  4 15  1  0
  4 16  1  0
  5 17  1  0
  5 18  1  0
  6 19  1  0
  6 20  1  0
  7 21  1  0
  7 22  1  0
  8 23  1  0
  8 24  1  0
M  END
