
     RDKit          3D

 19 21  0  0  0  0  0  0  0  0999 V2000
   -2.1983   -0.0221    0.6281 C   0  0  0  0  0  0  0  0  0  0  0  0
   -1.5530    0.5569   -0.5995 C   0  0  0  0  0  0  0  0  0  0  0  0
   -0.3081    0.1538    0.1332 C   0  0  0  0  0  0  0  0  0  0  0  0
    0.8070    1.1396   -0.0113 C   0  0  0  0  0  0  0  0  0  0  0  0
    2.0738    0.3763    0.2315 C   0  0  0  0  0  0  0  0  0  0  0  0
    2.1354   -0.5982    1.2115 O   0  0  0  0  0  0  0  0  0  0  0  0
    1.7777   -1.0226   -0.0574 C   0  0  0  0  0  0  0  0  0  0  0  0
    0.2871   -1.1739   -0.2531 C   0  0  0  0  0  0  0  0  0  0  0  0
   -1.0102    0.1789    1.3244 O   0  0  0  0  0  0  0  0  0  0  0  0
   -3.0709    0.5627    1.0019 H   0  0  0  0  0  0  0  0  0  0  0  0
   -2.4503   -1.0907    0.5818 H   0  0  0  0  0  0  0  0  0  0  0  0
   -1.7964   -0.0512   -1.4807 H   0  0  0  0  0  0  0  0  0  0  0  0
   -1.7190    1.6303   -0.7551 H   0  0  0  0  0  0  0  0  0  0  0  0
    0.8051    1.4916   -1.0736 H   0  0  0  0  0  0  0  0  0  0  0  0
    0.7068    2.0348    0.6276 H   0  0  0  0  0  0  0  0  0  0  0  0
    3.0378    0.8270   -0.0334 H   0  0  0  0  0  0  0  0  0  0  0  0
    2.4807   -1.5723   -0.6939 H   0  0  0  0  0  0  0  0  0  0  0  0
    0.0425   -1.4814   -1.2770 H   0  0  0  0  0  0  0  0  0  0  0  0
   -0.0476   -1.9396    0.4950 H   0  0  0  0  0  0  0  0  0  0  0  0
  1  2  1  0
  2  3  1  0
  3  4  1  0
  4  5  1  0
  5  6  1  0
  6  7  1  0
  7  8  1  0
  3  9  1  0
  9  1  1  0
  8  3  1  0
  7  5  1  0
  1 10  1  0
  1 11  1  0
  2 12  1  0
  2 13  1  0
  4 14  1  0
  4 15  1  0
  5 16  1  0
  7 17  1  0
  8 18  1  0
  8 19  1  0
M  END
