
     RDKit          3D

 21 24  0  0  0  0  0  0  0  0999 V2000
   -1.8700    0.5982   -0.6298 C   0  0  0  0  0  0  0  0  0  0  0  0
   -1.8357   -0.7253    0.1070 C   0  0  0  0  0  0  0  0  0  0  0  0
   -0.6891   -0.1863    0.9458 C   0  0  0  0  0  0  0  0  0  0  0  0
   -0.5527    0.9303   -0.0305 C   0  0  0  0  0  0  0  0  0  0  0  0
    0.6740    0.6051   -0.8060 C   0  0  0  0  0  0  0  0  0  0  0  0
    1.9037    0.9089    0.0622 C   0  0  0  0  0  0  0  0  0  0  0  0
    1.8260   -0.5075    0.5539 C   0  0  0  0  0  0  0  0  0  0  0  0
    0.4962   -1.0950    0.7983 C   0  0  0  0  0  0  0  0  0  0  0  0
    0.9392   -0.8462   -0.5671 C   0  0  0  0  0  0  0  0  0  0  0  0
   -1.9593    0.5526   -1.7120 H   0  0  0  0  0  0  0  0  0  0  0  0
   -2.6714    1.2495   -0.1879 H   0  0  0  0  0  0  0  0  0  0  0  0
   -2.7335   -0.9400    0.7196 H   0  0  0  0  0  0  0  0  0  0  0  0
   -1.5567   -1.5259   -0.6070 H   0  0  0  0  0  0  0  0  0  0  0  0
   -0.9556    0.1030    1.9778 H   0  0  0  0  0  0  0  0  0  0  0  0
   -0.4906    1.9550    0.3890 H   0  0  0  0  0  0  0  0  0  0  0  0
    0.7457    0.9161   -1.8399 H   0  0  0  0  0  0  0  0  0  0  0  0
    1.6947    1.6053    0.9013 H   0  0  0  0  0  0  0  0  0  0  0  0
    2.7844    1.1570   -0.5559 H   0  0  0  0  0  0  0  0  0  0  0  0
    2.7402   -1.0846    0.6435 H   0  0  0  0  0  0  0  0  0  0  0  0
    0.3830   -2.1092    1.1756 H   0  0  0  0  0  0  0  0  0  0  0  0
    1.1275   -1.5609   -1.3380 H   0  0  0  0  0  0  0  0  0  0  0  0
  1  2  1  0
  2  3  1  0
  3  4  1  0
  4  5  1  0
  5  6  1  0
  6  7  1  0
  7  8  1  0
  8  9  1  0
  4  1  1  0
  9  5  1  0
  8  3  1  0
  9  7  1  0
  1 10  1  0
  1 11  1  0
  2 12  1  0
  2 13  1  0
  3 14  1  0
  4 15  1  0
  5 16  1  0
  6 17  1  0
  6 18  1  0
  7 19  1  0
  8 20  1  0
  9 21  1  0
M  END
