
     RDKit          3D

 22 23  0  0  0  0  0  0  0  0999 V2000
    1.5240   -0.3929   -0.3420 C   0  0  0  0  0  0  0  0  0  0  0  0
    0.7566   -1.3637    0.4936 C   0  0  0  0  0  0  0  0  0  0  0  0
   -0.6562   -1.6105   -0.0597 C   0  0  0  0  0  0  0  0  0  0  0  0
   -1.1147   -0.3232   -0.6457 C   0  0  0  0  0  0  0  0  0  0  0  0
   -2.2033    0.4964   -0.1410 C   0  0  0  0  0  0  0  0  0  0  0  0
   -0.9078    0.7503    0.4489 C   0  0  0  0  0  0  0  0  0  0  0  0
    0.1282    1.6766   -0.0695 C   0  0  0  0  0  0  0  0  0  0  0  0
    1.4900    1.0253    0.1904 C   0  0  0  0  0  0  0  0  0  0  0  0
    2.6090   -0.7017   -0.2826 H   0  0  0  0  0  0  0  0  0  0  0  0
    1.2786   -0.4119   -1.4148 H   0  0  0  0  0  0  0  0  0  0  0  0
    0.7287   -1.0209    1.5384 H   0  0  0  0  0  0  0  0  0  0  0  0
    1.2739   -2.3662    0.5214 H   0  0  0  0  0  0  0  0  0  0  0  0
   -0.5696   -2.4283   -0.8101 H   0  0  0  0  0  0  0  0  0  0  0  0
   -1.3111   -1.9891    0.7557 H   0  0  0  0  0  0  0  0  0  0  0  0
   -0.7227   -0.1076   -1.6597 H   0  0  0  0  0  0  0  0  0  0  0  0
   -3.0004    0.0779    0.5271 H   0  0  0  0  0  0  0  0  0  0  0  0
   -2.6382    1.2448   -0.8463 H   0  0  0  0  0  0  0  0  0  0  0  0
   -0.7335    0.4005    1.4848 H   0  0  0  0  0  0  0  0  0  0  0  0
    0.0050    1.8134   -1.1470 H   0  0  0  0  0  0  0  0  0  0  0  0
    0.1157    2.6046    0.5231 H   0  0  0  0  0  0  0  0  0  0  0  0
    1.6831    1.0194    1.2738 H   0  0  0  0  0  0  0  0  0  0  0  0
    2.2646    1.6069   -0.3387 H   0  0  0  0  0  0  0  0  0  0  0  0
  1  2  1  0
  2  3  1  0
  3  4  1  0
  4  5  1  0
  5  6  1  0
  6  7  1  0
  7  8  1  0
  8  1  1  0
  6  4  1  0
  1  9  1  0
  1 10  1  0
  2 11  1  0
  2 12  1  0
  3 13  1  0
  3 14  1  0
  4 15  1  0
  5 16  1  0
  5 17  1  0
  6 18  1  0
  7 19  1  0
  7 20  1  0
  8 21  1  0
  8 22  1  0
M  END
