
     RDKit          3D

 19 21  0  0  0  0  0  0  0  0999 V2000
    1.5957    0.0917    0.8527 C   0  0  0  0  0  0  0  0  0  0  0  0
    1.1417    1.3971    0.1718 C   0  0  0  0  0  0  0  0  0  0  0  0
   -0.1355    0.8266   -0.4863 C   0  0  0  0  0  0  0  0  0  0  0  0
    0.5226   -0.2768   -1.1070 O   0  0  0  0  0  0  0  0  0  0  0  0
    1.0091   -0.9936    0.0144 C   0  0  0  0  0  0  0  0  0  0  0  0
   -0.0402   -1.7025    0.6565 O   0  0  0  0  0  0  0  0  0  0  0  0
   -1.1727   -1.2314    0.0798 C   0  0  0  0  0  0  0  0  0  0  0  0
   -2.2652   -0.4372    0.4450 C   0  0  0  0  0  0  0  0  0  0  0  0
   -1.0370    0.2776    0.5246 C   0  0  0  0  0  0  0  0  0  0  0  0
    1.3161    0.0553    1.9008 H   0  0  0  0  0  0  0  0  0  0  0  0
    2.7095    0.0746    0.7322 H   0  0  0  0  0  0  0  0  0  0  0  0
    1.8529    1.7332   -0.5818 H   0  0  0  0  0  0  0  0  0  0  0  0
    0.8920    2.1689    0.8976 H   0  0  0  0  0  0  0  0  0  0  0  0
   -0.5435    1.5030   -1.2286 H   0  0  0  0  0  0  0  0  0  0  0  0
    1.7356   -1.7473   -0.2857 H   0  0  0  0  0  0  0  0  0  0  0  0
   -1.0664   -1.4156   -1.0383 H   0  0  0  0  0  0  0  0  0  0  0  0
   -2.8357   -0.6727    1.3754 H   0  0  0  0  0  0  0  0  0  0  0  0
   -2.9994   -0.0967   -0.3351 H   0  0  0  0  0  0  0  0  0  0  0  0
   -0.6795    0.4458    1.5858 H   0  0  0  0  0  0  0  0  0  0  0  0
  1  2  1  0
  2  3  1  0
  3  4  1  0
  4  5  1  0
  5  6  1  0
  6  7  1  0
  7  8  1  0
  8  9  1  0
  5  1  1  0
  9  7  1  0
  9  3  1  0
  1 10  1  0
  1 11  1  0
  2 12  1  0
  2 13  1  0
  3 14  1  0
  5 15  1  0
  7 16  1  0
  8 17  1  0
  8 18  1  0
  9 19  1  0
M  END
