
     RDKit          3D

 21 24  0  0  0  0  0  0  0  0999 V2000
   -1.8884    0.4199   -0.8047 C   0  0  0  0  0  0  0  0  0  0  0  0
   -1.3600   -0.9637   -0.5055 C   0  0  0  0  0  0  0  0  0  0  0  0
   -0.2786   -0.7869    0.5519 C   0  0  0  0  0  0  0  0  0  0  0  0
   -0.7043    0.4914    1.2142 C   0  0  0  0  0  0  0  0  0  0  0  0
   -1.1631    1.3570    0.1555 C   0  0  0  0  0  0  0  0  0  0  0  0
    0.3073    1.2198    0.3543 C   0  0  0  0  0  0  0  0  0  0  0  0
    0.9550   -0.0925    0.1158 C   0  0  0  0  0  0  0  0  0  0  0  0
    1.8286   -0.4407   -0.9615 C   0  0  0  0  0  0  0  0  0  0  0  0
    2.2936   -0.4685    0.5093 C   0  0  0  0  0  0  0  0  0  0  0  0
   -2.9799    0.4351   -0.5164 H   0  0  0  0  0  0  0  0  0  0  0  0
   -1.7867    0.7147   -1.8491 H   0  0  0  0  0  0  0  0  0  0  0  0
   -1.0002   -1.4868   -1.3995 H   0  0  0  0  0  0  0  0  0  0  0  0
   -2.1508   -1.6062   -0.0375 H   0  0  0  0  0  0  0  0  0  0  0  0
   -0.1951   -1.6637    1.1938 H   0  0  0  0  0  0  0  0  0  0  0  0
   -0.7595    0.6236    2.2730 H   0  0  0  0  0  0  0  0  0  0  0  0
   -1.6505    2.3245    0.2919 H   0  0  0  0  0  0  0  0  0  0  0  0
    0.8449    2.0872    0.7353 H   0  0  0  0  0  0  0  0  0  0  0  0
    2.3098    0.4033   -1.5382 H   0  0  0  0  0  0  0  0  0  0  0  0
    1.8439   -1.3783   -1.5269 H   0  0  0  0  0  0  0  0  0  0  0  0
    2.9847    0.3001    0.8529 H   0  0  0  0  0  0  0  0  0  0  0  0
    2.5494   -1.4894    0.8914 H   0  0  0  0  0  0  0  0  0  0  0  0
  1  2  1  0
  2  3  1  0
  3  4  1  0
  4  5  1  0
  5  6  1  0
  6  7  1  0
  7  8  1  0
  8  9  1  0
  5  1  1  0
  9  7  1  0
  7  3  1  0
  6  4  1  0
  1 10  1  0
  1 11  1  0
  2 12  1  0
  2 13  1  0
  3 14  1  0
  4 15  1  0
  5 16  1  0
  6 17  1  0
  8 18  1  0
  8 19  1  0
  9 20  1  0
  9 21  1  0
M  END
