
     RDKit          3D

 21 23  0  0  0  0  0  0  0  0999 V2000
    2.5727    0.5056    0.0582 C   0  0  0  0  0  0  0  0  0  0  0  0
    1.2010    0.5153    0.7331 C   0  0  0  0  0  0  0  0  0  0  0  0
    0.6754   -0.1958   -0.4262 C   0  0  0  0  0  0  0  0  0  0  0  0
    2.0653   -0.6654   -0.7584 C   0  0  0  0  0  0  0  0  0  0  0  0
   -0.0471    0.4310   -1.4010 O   0  0  0  0  0  0  0  0  0  0  0  0
   -0.4511   -0.8544   -0.7703 C   0  0  0  0  0  0  0  0  0  0  0  0
   -1.8225   -0.6931   -0.1730 C   0  0  0  0  0  0  0  0  0  0  0  0
   -2.5453    0.6194   -0.2041 C   0  0  0  0  0  0  0  0  0  0  0  0
   -2.0205    0.1005    1.0818 C   0  0  0  0  0  0  0  0  0  0  0  0
    2.7217    1.3911   -0.5886 H   0  0  0  0  0  0  0  0  0  0  0  0
    3.4051    0.2737    0.7449 H   0  0  0  0  0  0  0  0  0  0  0  0
    1.2717    0.0029    1.7029 H   0  0  0  0  0  0  0  0  0  0  0  0
    0.9180    1.5785    0.8982 H   0  0  0  0  0  0  0  0  0  0  0  0
    2.2993   -0.5920   -1.8365 H   0  0  0  0  0  0  0  0  0  0  0  0
    2.3354   -1.6416   -0.2920 H   0  0  0  0  0  0  0  0  0  0  0  0
   -0.4285   -1.6768   -1.5502 H   0  0  0  0  0  0  0  0  0  0  0  0
   -2.5364   -1.5689   -0.2456 H   0  0  0  0  0  0  0  0  0  0  0  0
   -3.6375    0.6600   -0.3148 H   0  0  0  0  0  0  0  0  0  0  0  0
   -2.0210    1.4320   -0.7443 H   0  0  0  0  0  0  0  0  0  0  0  0
   -2.7744   -0.2475    1.8413 H   0  0  0  0  0  0  0  0  0  0  0  0
   -1.1813    0.6256    1.5556 H   0  0  0  0  0  0  0  0  0  0  0  0
  1  2  1  0
  2  3  1  0
  3  4  1  0
  3  5  1  0
  5  6  1  0
  6  7  1  0
  7  8  1  0
  8  9  1  0
  4  1  1  0
  9  7  1  0
  6  3  1  0
  1 10  1  0
  1 11  1  0
  2 12  1  0
  2 13  1  0
  4 14  1  0
  4 15  1  0
  6 16  1  0
  7 17  1  0
  8 18  1  0
  8 19  1  0
  9 20  1  0
  9 21  1  0
M  END
