
     RDKit          3D

 21 23  0  0  0  0  0  0  0  0999 V2000
    2.2324    0.1282   -0.1615 C   0  0  0  0  0  0  0  0  0  0  0  0
    1.3560    0.3731    1.0834 C   0  0  0  0  0  0  0  0  0  0  0  0
    0.1307   -0.3628    0.6901 C   0  0  0  0  0  0  0  0  0  0  0  0
    0.0307    0.3193   -0.7394 C   0  0  0  0  0  0  0  0  0  0  0  0
    1.2461   -0.3739   -1.2395 C   0  0  0  0  0  0  0  0  0  0  0  0
   -1.0606   -0.0338    0.0462 C   0  0  0  0  0  0  0  0  0  0  0  0
   -2.1297   -1.0329   -0.1854 C   0  0  0  0  0  0  0  0  0  0  0  0
   -3.0662   -0.0277    0.1544 O   0  0  0  0  0  0  0  0  0  0  0  0
   -2.1041    0.9456    0.4317 C   0  0  0  0  0  0  0  0  0  0  0  0
    3.0217   -0.5949    0.0317 H   0  0  0  0  0  0  0  0  0  0  0  0
    2.5607    1.1149   -0.5091 H   0  0  0  0  0  0  0  0  0  0  0  0
    1.8598   -0.1458    1.9442 H   0  0  0  0  0  0  0  0  0  0  0  0
    1.2292    1.4326    1.2915 H   0  0  0  0  0  0  0  0  0  0  0  0
    0.3684   -1.4743    0.6634 H   0  0  0  0  0  0  0  0  0  0  0  0
    0.2516    1.4375   -0.7344 H   0  0  0  0  0  0  0  0  0  0  0  0
    1.2036   -1.4782   -1.0750 H   0  0  0  0  0  0  0  0  0  0  0  0
    1.5763   -0.1002   -2.2395 H   0  0  0  0  0  0  0  0  0  0  0  0
   -2.2089   -1.8478    0.5516 H   0  0  0  0  0  0  0  0  0  0  0  0
   -2.2767   -1.3278   -1.2273 H   0  0  0  0  0  0  0  0  0  0  0  0
   -2.1359    1.7968   -0.2819 H   0  0  0  0  0  0  0  0  0  0  0  0
   -2.0852    1.2519    1.5047 H   0  0  0  0  0  0  0  0  0  0  0  0
  1  2  1  0
  2  3  1  0
  3  4  1  0
  4  5  1  0
  4  6  1  0
  6  7  1  0
  7  8  1  0
  8  9  1  0
  5  1  1  0
  9  6  1  0
  6  3  1  0
  1 10  1  0
  1 11  1  0
  2 12  1  0
  2 13  1  0
  3 14  1  0
  4 15  1  0
  5 16  1  0
  5 17  1  0
  7 18  1  0
  7 19  1  0
  9 20  1  0
  9 21  1  0
M  END
