
     RDKit          3D

 19 21  0  0  0  0  0  0  0  0999 V2000
    0.6229   -1.2869    0.1280 C   0  0  0  0  0  0  0  0  0  0  0  0
    1.7823   -0.3049    0.0308 C   0  0  0  0  0  0  0  0  0  0  0  0
    1.3307    0.9025   -0.7032 C   0  0  0  0  0  0  0  0  0  0  0  0
    0.3328    0.5351   -1.7548 O   0  0  0  0  0  0  0  0  0  0  0  0
   -0.0377    1.2496   -0.6425 C   0  0  0  0  0  0  0  0  0  0  0  0
   -0.8972    0.6526    0.4261 C   0  0  0  0  0  0  0  0  0  0  0  0
   -2.1078   -0.1018   -0.0175 C   0  0  0  0  0  0  0  0  0  0  0  0
   -1.6967   -1.2015    0.7537 O   0  0  0  0  0  0  0  0  0  0  0  0
   -0.4381   -0.6409    0.9648 C   0  0  0  0  0  0  0  0  0  0  0  0
    0.9145   -2.2716    0.4744 H   0  0  0  0  0  0  0  0  0  0  0  0
    0.1862   -1.4175   -0.9013 H   0  0  0  0  0  0  0  0  0  0  0  0
    2.5829   -0.8191   -0.5188 H   0  0  0  0  0  0  0  0  0  0  0  0
    2.0642   -0.0634    1.0780 H   0  0  0  0  0  0  0  0  0  0  0  0
    2.0865    1.6064   -1.0639 H   0  0  0  0  0  0  0  0  0  0  0  0
   -0.3318    2.3140   -0.8872 H   0  0  0  0  0  0  0  0  0  0  0  0
   -1.0622    1.4094    1.2370 H   0  0  0  0  0  0  0  0  0  0  0  0
   -2.1909   -0.3275   -1.0878 H   0  0  0  0  0  0  0  0  0  0  0  0
   -3.0226    0.3529    0.4538 H   0  0  0  0  0  0  0  0  0  0  0  0
   -0.1178   -0.5874    2.0305 H   0  0  0  0  0  0  0  0  0  0  0  0
  1  2  1  0
  2  3  1  0
  3  4  1  0
  4  5  1  0
  5  6  1  0
  6  7  1  0
  7  8  1  0
  8  9  1  0
  9  1  1  0
  5  3  1  0
  9  6  1  0
  1 10  1  0
  1 11  1  0
  2 12  1  0
  2 13  1  0
  3 14  1  0
  5 15  1  0
  6 16  1  0
  7 17  1  0
  7 18  1  0
  9 19  1  0
M  END
