
     RDKit          3D

 19 21  0  0  0  0  0  0  0  0999 V2000
    2.4310    0.2112    0.5194 C   0  0  0  0  0  0  0  0  0  0  0  0
    1.5324   -0.9735    0.1730 C   0  0  0  0  0  0  0  0  0  0  0  0
    0.6586    0.1561   -0.2541 C   0  0  0  0  0  0  0  0  0  0  0  0
   -0.8068    0.0248    0.0132 C   0  0  0  0  0  0  0  0  0  0  0  0
   -1.6059   -1.0960   -0.5706 C   0  0  0  0  0  0  0  0  0  0  0  0
   -2.6858   -0.2430   -0.8024 O   0  0  0  0  0  0  0  0  0  0  0  0
   -1.8279    0.8504   -0.6120 C   0  0  0  0  0  0  0  0  0  0  0  0
   -1.4396    1.1023    0.7968 C   0  0  0  0  0  0  0  0  0  0  0  0
    1.2614    0.9408    0.7509 O   0  0  0  0  0  0  0  0  0  0  0  0
    3.0466    0.0450    1.4359 H   0  0  0  0  0  0  0  0  0  0  0  0
    2.9797    0.5963   -0.3592 H   0  0  0  0  0  0  0  0  0  0  0  0
    1.9374   -1.6086   -0.6389 H   0  0  0  0  0  0  0  0  0  0  0  0
    1.2289   -1.4939    1.0830 H   0  0  0  0  0  0  0  0  0  0  0  0
    0.9543    0.5356   -1.2462 H   0  0  0  0  0  0  0  0  0  0  0  0
   -1.8193   -1.9560    0.0794 H   0  0  0  0  0  0  0  0  0  0  0  0
   -1.2438   -1.4720   -1.5634 H   0  0  0  0  0  0  0  0  0  0  0  0
   -1.6662    1.5615   -1.4200 H   0  0  0  0  0  0  0  0  0  0  0  0
   -0.8669    2.0231    0.9748 H   0  0  0  0  0  0  0  0  0  0  0  0
   -2.0682    0.7959    1.6404 H   0  0  0  0  0  0  0  0  0  0  0  0
  1  2  1  0
  2  3  1  0
  3  4  1  0
  4  5  1  0
  5  6  1  0
  6  7  1  0
  7  8  1  0
  3  9  1  0
  9  1  1  0
  7  4  1  0
  8  4  1  0
  1 10  1  0
  1 11  1  0
  2 12  1  0
  2 13  1  0
  3 14  1  0
  5 15  1  0
  5 16  1  0
  7 17  1  0
  8 18  1  0
  8 19  1  0
M  END
