
     RDKit          3D

 21 23  0  0  0  0  0  0  0  0999 V2000
   -2.1715    0.2426   -0.0732 C   0  0  0  0  0  0  0  0  0  0  0  0
   -1.0308    0.9980   -0.7739 C   0  0  0  0  0  0  0  0  0  0  0  0
    0.0678    0.7778    0.2389 C   0  0  0  0  0  0  0  0  0  0  0  0
    1.4327    1.0254   -0.2789 C   0  0  0  0  0  0  0  0  0  0  0  0
    2.2015   -0.2196    0.1531 C   0  0  0  0  0  0  0  0  0  0  0  0
    1.1358   -1.3105    0.2902 C   0  0  0  0  0  0  0  0  0  0  0  0
    0.5293   -1.2460    1.6440 O   0  0  0  0  0  0  0  0  0  0  0  0
   -0.0622   -0.7114    0.5181 C   0  0  0  0  0  0  0  0  0  0  0  0
   -1.4591   -1.1044    0.1299 C   0  0  0  0  0  0  0  0  0  0  0  0
   -3.0533    0.1515   -0.7064 H   0  0  0  0  0  0  0  0  0  0  0  0
   -2.3586    0.6717    0.9244 H   0  0  0  0  0  0  0  0  0  0  0  0
   -1.2744    2.0457   -0.9464 H   0  0  0  0  0  0  0  0  0  0  0  0
   -0.8595    0.4349   -1.7209 H   0  0  0  0  0  0  0  0  0  0  0  0
   -0.1886    1.3565    1.1329 H   0  0  0  0  0  0  0  0  0  0  0  0
    1.8781    1.8885    0.2825 H   0  0  0  0  0  0  0  0  0  0  0  0
    1.5092    1.2150   -1.3570 H   0  0  0  0  0  0  0  0  0  0  0  0
    2.7068   -0.0846    1.1181 H   0  0  0  0  0  0  0  0  0  0  0  0
    2.9421   -0.5168   -0.5947 H   0  0  0  0  0  0  0  0  0  0  0  0
    1.4640   -2.3316    0.0619 H   0  0  0  0  0  0  0  0  0  0  0  0
   -1.4362   -1.5517   -0.9029 H   0  0  0  0  0  0  0  0  0  0  0  0
   -1.9731   -1.7309    0.8603 H   0  0  0  0  0  0  0  0  0  0  0  0
  1  2  1  0
  2  3  1  0
  3  4  1  0
  4  5  1  0
  5  6  1  0
  6  7  1  0
  7  8  1  0
  8  9  1  0
  9  1  1  0
  8  3  1  0
  8  6  1  0
  1 10  1  0
  1 11  1  0
  2 12  1  0
  2 13  1  0
  3 14  1  0
  4 15  1  0
  4 16  1  0
  5 17  1  0
  5 18  1  0
  6 19  1  0
  9 20  1  0
  9 21  1  0
M  END
