
     RDKit          3D

 20 22  0  0  0  0  0  0  0  0999 V2000
   -1.9529    0.4627   -0.3661 C   0  0  0  0  0  0  0  0  0  0  0  0
   -1.6520   -0.7591    0.5105 C   0  0  0  0  0  0  0  0  0  0  0  0
   -0.3540   -0.8925   -0.2174 C   0  0  0  0  0  0  0  0  0  0  0  0
   -0.5158    0.4846   -0.7987 C   0  0  0  0  0  0  0  0  0  0  0  0
    0.4106    1.3555   -0.0222 C   0  0  0  0  0  0  0  0  0  0  0  0
    1.4917    0.4933    0.5273 C   0  0  0  0  0  0  0  0  0  0  0  0
    2.1495   -0.5771   -0.2220 C   0  0  0  0  0  0  0  0  0  0  0  0
    0.8950   -0.8549    0.5973 C   0  0  0  0  0  0  0  0  0  0  0  0
   -2.6058    0.2371   -1.2354 H   0  0  0  0  0  0  0  0  0  0  0  0
   -2.2575    1.3179    0.2567 H   0  0  0  0  0  0  0  0  0  0  0  0
   -1.5927   -0.5404    1.5881 H   0  0  0  0  0  0  0  0  0  0  0  0
   -2.3057   -1.6419    0.2699 H   0  0  0  0  0  0  0  0  0  0  0  0
   -0.2984   -1.6849   -0.9837 H   0  0  0  0  0  0  0  0  0  0  0  0
   -0.3170    0.5478   -1.8736 H   0  0  0  0  0  0  0  0  0  0  0  0
   -0.1327    1.8588    0.8240 H   0  0  0  0  0  0  0  0  0  0  0  0
    0.8496    2.1914   -0.6128 H   0  0  0  0  0  0  0  0  0  0  0  0
    2.0596    0.9373    1.3654 H   0  0  0  0  0  0  0  0  0  0  0  0
    2.0737   -0.5709   -1.3275 H   0  0  0  0  0  0  0  0  0  0  0  0
    3.0810   -0.9874    0.1667 H   0  0  0  0  0  0  0  0  0  0  0  0
    0.9738   -1.3774    1.5535 H   0  0  0  0  0  0  0  0  0  0  0  0
  1  2  1  0
  2  3  1  0
  3  4  1  0
  4  5  1  0
  5  6  1  0
  6  7  1  0
  7  8  1  0
  4  1  1  0
  8  6  1  0
  8  3  1  0
  1  9  1  0
  1 10  1  0
  2 11  1  0
  2 12  1  0
  3 13  1  0
  4 14  1  0
  5 15  1  0
  5 16  1  0
  6 17  1  0
  7 18  1  0
  7 19  1  0
  8 20  1  0
M  END
