
     RDKit          3D

 21 23  0  0  0  0  0  0  0  0999 V2000
    2.1511   -0.3444   -0.4952 C   0  0  0  0  0  0  0  0  0  0  0  0
    1.6541    0.7827    0.3602 C   0  0  0  0  0  0  0  0  0  0  0  0
    0.2162    0.5943    0.6741 C   0  0  0  0  0  0  0  0  0  0  0  0
   -0.5753    0.7584   -0.6204 C   0  0  0  0  0  0  0  0  0  0  0  0
   -1.9721    0.4820   -0.1710 C   0  0  0  0  0  0  0  0  0  0  0  0
   -1.6971   -0.7177    0.7603 C   0  0  0  0  0  0  0  0  0  0  0  0
   -0.2245   -0.8690    0.5216 C   0  0  0  0  0  0  0  0  0  0  0  0
   -0.0978   -0.6476   -0.9589 C   0  0  0  0  0  0  0  0  0  0  0  0
    1.1901   -0.6759   -1.4203 O   0  0  0  0  0  0  0  0  0  0  0  0
    2.4122   -1.2466    0.0950 H   0  0  0  0  0  0  0  0  0  0  0  0
    3.0651   -0.0157   -1.0649 H   0  0  0  0  0  0  0  0  0  0  0  0
    2.3034    0.9051    1.2492 H   0  0  0  0  0  0  0  0  0  0  0  0
    1.7521    1.7229   -0.2535 H   0  0  0  0  0  0  0  0  0  0  0  0
   -0.1997    1.0952    1.5478 H   0  0  0  0  0  0  0  0  0  0  0  0
   -0.3400    1.5539   -1.2683 H   0  0  0  0  0  0  0  0  0  0  0  0
   -2.5325    0.0635   -1.0330 H   0  0  0  0  0  0  0  0  0  0  0  0
   -2.4712    1.2950    0.3468 H   0  0  0  0  0  0  0  0  0  0  0  0
   -1.8692   -0.3299    1.7886 H   0  0  0  0  0  0  0  0  0  0  0  0
   -2.3001   -1.5798    0.5027 H   0  0  0  0  0  0  0  0  0  0  0  0
    0.3395   -1.6117    1.0113 H   0  0  0  0  0  0  0  0  0  0  0  0
   -0.8041   -1.2147   -1.5721 H   0  0  0  0  0  0  0  0  0  0  0  0
  1  2  1  0
  2  3  1  0
  3  4  1  0
  4  5  1  0
  5  6  1  0
  6  7  1  0
  7  8  1  0
  8  9  1  0
  9  1  1  0
  7  3  1  0
  8  4  1  0
  1 10  1  0
  1 11  1  0
  2 12  1  0
  2 13  1  0
  3 14  1  0
  4 15  1  0
  5 16  1  0
  5 17  1  0
  6 18  1  0
  6 19  1  0
  7 20  1  0
  8 21  1  0
M  END
