
     RDKit          3D

 19 21  0  0  0  0  0  0  0  0999 V2000
    1.9212   -0.0404    0.1127 C   0  0  0  0  0  0  0  0  0  0  0  0
    0.9377    1.1326    0.0523 C   0  0  0  0  0  0  0  0  0  0  0  0
   -0.2624    0.6369   -0.7227 C   0  0  0  0  0  0  0  0  0  0  0  0
   -1.4983    1.0534    0.0922 C   0  0  0  0  0  0  0  0  0  0  0  0
   -1.3351    0.1895    1.1836 O   0  0  0  0  0  0  0  0  0  0  0  0
   -1.1550   -1.0520    0.6381 C   0  0  0  0  0  0  0  0  0  0  0  0
    0.2053   -1.5660    0.3933 C   0  0  0  0  0  0  0  0  0  0  0  0
    1.3276   -0.9892    0.9451 O   0  0  0  0  0  0  0  0  0  0  0  0
   -0.4295   -0.8367   -0.7066 C   0  0  0  0  0  0  0  0  0  0  0  0
    2.1514   -0.4223   -0.8850 H   0  0  0  0  0  0  0  0  0  0  0  0
    2.8330    0.3220    0.6336 H   0  0  0  0  0  0  0  0  0  0  0  0
    0.6692    1.3257    1.1333 H   0  0  0  0  0  0  0  0  0  0  0  0
    1.3886    2.0354   -0.3599 H   0  0  0  0  0  0  0  0  0  0  0  0
   -0.3025    1.0747   -1.7441 H   0  0  0  0  0  0  0  0  0  0  0  0
   -1.4378    2.1039    0.3608 H   0  0  0  0  0  0  0  0  0  0  0  0
   -2.3976    0.7443   -0.4399 H   0  0  0  0  0  0  0  0  0  0  0  0
   -2.0224   -1.7057    0.6368 H   0  0  0  0  0  0  0  0  0  0  0  0
    0.2922   -2.6667    0.2595 H   0  0  0  0  0  0  0  0  0  0  0  0
   -0.8854   -1.3395   -1.5829 H   0  0  0  0  0  0  0  0  0  0  0  0
  1  2  1  0
  2  3  1  0
  3  4  1  0
  4  5  1  0
  5  6  1  0
  6  7  1  0
  7  8  1  0
  7  9  1  0
  8  1  1  0
  9  3  1  0
  9  6  1  0
  1 10  1  0
  1 11  1  0
  2 12  1  0
  2 13  1  0
  3 14  1  0
  4 15  1  0
  4 16  1  0
  6 17  1  0
  7 18  1  0
  9 19  1  0
M  END
