
     RDKit          3D

 19 21  0  0  0  0  0  0  0  0999 V2000
   -1.6877   -0.2457    0.3393 C   0  0  0  0  0  0  0  0  0  0  0  0
   -0.9492   -1.3885   -0.3218 C   0  0  0  0  0  0  0  0  0  0  0  0
    0.3443   -0.8334   -0.8471 C   0  0  0  0  0  0  0  0  0  0  0  0
    1.4227   -1.4664   -0.1967 O   0  0  0  0  0  0  0  0  0  0  0  0
    1.6714   -0.3518    0.6420 C   0  0  0  0  0  0  0  0  0  0  0  0
    0.5931    0.3472    0.0039 C   0  0  0  0  0  0  0  0  0  0  0  0
    0.6608    1.6822   -0.5455 C   0  0  0  0  0  0  0  0  0  0  0  0
   -0.7197    1.8335   -0.2740 O   0  0  0  0  0  0  0  0  0  0  0  0
   -0.6375    0.7724    0.6587 C   0  0  0  0  0  0  0  0  0  0  0  0
   -2.4425    0.1119   -0.3904 H   0  0  0  0  0  0  0  0  0  0  0  0
   -2.2262   -0.5337    1.2456 H   0  0  0  0  0  0  0  0  0  0  0  0
   -1.5197   -1.8750   -1.1186 H   0  0  0  0  0  0  0  0  0  0  0  0
   -0.7973   -2.1637    0.4735 H   0  0  0  0  0  0  0  0  0  0  0  0
    0.4651   -0.7599   -1.9225 H   0  0  0  0  0  0  0  0  0  0  0  0
    2.6892    0.0330    0.3441 H   0  0  0  0  0  0  0  0  0  0  0  0
    1.6099   -0.6124    1.7263 H   0  0  0  0  0  0  0  0  0  0  0  0
    0.9410    1.8551   -1.5937 H   0  0  0  0  0  0  0  0  0  0  0  0
    1.2075    2.4031    0.1119 H   0  0  0  0  0  0  0  0  0  0  0  0
   -0.6252    1.1923    1.6650 H   0  0  0  0  0  0  0  0  0  0  0  0
  1  2  1  0
  2  3  1  0
  3  4  1  0
  4  5  1  0
  5  6  1  0
  6  7  1  0
  7  8  1  0
  8  9  1  0
  9  1  1  0
  6  3  1  0
  9  6  1  0
  1 10  1  0
  1 11  1  0
  2 12  1  0
  2 13  1  0
  3 14  1  0
  5 15  1  0
  5 16  1  0
  7 17  1  0
  7 18  1  0
  9 19  1  0
M  END
