
     RDKit          3D

  9  9  0  0  0  0  0  0  0  0999 V2000
    0.8366    0.0232   -0.0705 C   0  0  0  0  0  0  0  0  0  0  0  0
   -0.4247    0.7584   -0.1276 C   0  0  0  0  0  0  0  0  0  0  0  0
   -0.4568   -0.7170    0.1373 C   0  0  0  0  0  0  0  0  0  0  0  0
    1.5292    0.1719    0.7947 H   0  0  0  0  0  0  0  0  0  0  0  0
    1.3899   -0.3103   -0.9803 H   0  0  0  0  0  0  0  0  0  0  0  0
   -0.6392    1.4263    0.7516 H   0  0  0  0  0  0  0  0  0  0  0  0
   -0.8223    1.1578   -1.0660 H   0  0  0  0  0  0  0  0  0  0  0  0
   -0.5837   -1.0899    1.1789 H   0  0  0  0  0  0  0  0  0  0  0  0
   -0.8289   -1.4204   -0.6180 H   0  0  0  0  0  0  0  0  0  0  0  0
  1  2  1  0
  2  3  1  0
  3  1  1  0
  1  4  1  0
  1  5  1  0
  2  6  1  0
  2  7  1  0
  3  8  1  0
  3  9  1  0
M  END
