
     RDKit          3D

 16 18  0  0  0  0  0  0  0  0999 V2000
    1.5213   -0.4965    0.9594 C   0  0  0  0  0  0  0  0  0  0  0  0
    1.6727    0.0981   -0.4205 C   0  0  0  0  0  0  0  0  0  0  0  0
    0.4249    0.2523    0.4903 C   0  0  0  0  0  0  0  0  0  0  0  0
   -0.0131    1.4967    0.7982 O   0  0  0  0  0  0  0  0  0  0  0  0
   -0.8895    1.3695   -0.3091 C   0  0  0  0  0  0  0  0  0  0  0  0
   -0.8301   -0.1020   -0.1240 C   0  0  0  0  0  0  0  0  0  0  0  0
   -1.7763   -1.0568    0.0068 C   0  0  0  0  0  0  0  0  0  0  0  0
   -0.8844   -0.9878   -1.1636 O   0  0  0  0  0  0  0  0  0  0  0  0
    2.2208   -0.0759    1.7077 H   0  0  0  0  0  0  0  0  0  0  0  0
    1.4640   -1.6077    1.0207 H   0  0  0  0  0  0  0  0  0  0  0  0
    2.1789    1.0485   -0.5735 H   0  0  0  0  0  0  0  0  0  0  0  0
    1.5446   -0.5793   -1.2915 H   0  0  0  0  0  0  0  0  0  0  0  0
   -0.3195    1.7312   -1.2064 H   0  0  0  0  0  0  0  0  0  0  0  0
   -1.8669    1.8685   -0.1489 H   0  0  0  0  0  0  0  0  0  0  0  0
   -2.8165   -0.9652   -0.3536 H   0  0  0  0  0  0  0  0  0  0  0  0
   -1.6308   -1.9936    0.6079 H   0  0  0  0  0  0  0  0  0  0  0  0
  1  2  1  0
  2  3  1  0
  3  4  1  0
  4  5  1  0
  5  6  1  0
  6  7  1  0
  7  8  1  0
  3  1  1  0
  8  6  1  0
  6  3  1  0
  1  9  1  0
  1 10  1  0
  2 11  1  0
  2 12  1  0
  5 13  1  0
  5 14  1  0
  7 15  1  0
  7 16  1  0
M  END
