
     RDKit          3D

 21 23  0  0  0  0  0  0  0  0999 V2000
    1.8239    0.3457    0.5831 C   0  0  0  0  0  0  0  0  0  0  0  0
    1.0268   -0.8840    0.9077 C   0  0  0  0  0  0  0  0  0  0  0  0
   -0.2599   -0.7775    0.1453 C   0  0  0  0  0  0  0  0  0  0  0  0
   -1.5736   -0.7096    0.8491 C   0  0  0  0  0  0  0  0  0  0  0  0
   -2.0209    0.6171    0.7622 O   0  0  0  0  0  0  0  0  0  0  0  0
   -1.5656    1.0730   -0.4772 C   0  0  0  0  0  0  0  0  0  0  0  0
   -0.2291    0.4228   -0.7045 C   0  0  0  0  0  0  0  0  0  0  0  0
    1.0393    1.1560   -0.3961 C   0  0  0  0  0  0  0  0  0  0  0  0
   -0.1705   -0.9113   -1.3203 C   0  0  0  0  0  0  0  0  0  0  0  0
    2.0696    0.8929    1.5190 H   0  0  0  0  0  0  0  0  0  0  0  0
    2.8204    0.0880    0.1302 H   0  0  0  0  0  0  0  0  0  0  0  0
    1.5817   -1.7643    0.4746 H   0  0  0  0  0  0  0  0  0  0  0  0
    0.9109   -1.0395    1.9832 H   0  0  0  0  0  0  0  0  0  0  0  0
   -1.5627   -1.0707    1.8828 H   0  0  0  0  0  0  0  0  0  0  0  0
   -2.2988   -1.3236    0.2832 H   0  0  0  0  0  0  0  0  0  0  0  0
   -2.3355    0.7625   -1.2184 H   0  0  0  0  0  0  0  0  0  0  0  0
   -1.4105    2.1664   -0.5021 H   0  0  0  0  0  0  0  0  0  0  0  0
    0.8485    2.1589    0.0264 H   0  0  0  0  0  0  0  0  0  0  0  0
    1.5823    1.3307   -1.3589 H   0  0  0  0  0  0  0  0  0  0  0  0
   -1.0768   -1.3246   -1.8173 H   0  0  0  0  0  0  0  0  0  0  0  0
    0.8004   -1.2089   -1.7521 H   0  0  0  0  0  0  0  0  0  0  0  0
  1  2  1  0
  2  3  1  0
  3  4  1  0
  4  5  1  0
  5  6  1  0
  6  7  1  0
  7  8  1  0
  7  9  1  0
  8  1  1  0
  7  3  1  0
  9  3  1  0
  1 10  1  0
  1 11  1  0
  2 12  1  0
  2 13  1  0
  4 14  1  0
  4 15  1  0
  6 16  1  0
  6 17  1  0
  8 18  1  0
  8 19  1  0
  9 20  1  0
  9 21  1  0
M  END
