
     RDKit          3D

 21 23  0  0  0  0  0  0  0  0999 V2000
    2.1889    0.5199   -0.4050 C   0  0  0  0  0  0  0  0  0  0  0  0
    1.1517    0.6980    0.7131 C   0  0  0  0  0  0  0  0  0  0  0  0
    0.2364   -0.1493   -0.0841 C   0  0  0  0  0  0  0  0  0  0  0  0
    1.3655   -0.6989   -0.8494 C   0  0  0  0  0  0  0  0  0  0  0  0
   -0.5904   -1.1654    0.7196 C   0  0  0  0  0  0  0  0  0  0  0  0
   -1.9573   -0.6552    0.2482 C   0  0  0  0  0  0  0  0  0  0  0  0
   -1.8518    0.8343    0.3039 C   0  0  0  0  0  0  0  0  0  0  0  0
   -0.8786    0.5162   -0.8157 C   0  0  0  0  0  0  0  0  0  0  0  0
   -1.7493   -0.5483   -1.1317 O   0  0  0  0  0  0  0  0  0  0  0  0
    2.0900    1.3539   -1.1507 H   0  0  0  0  0  0  0  0  0  0  0  0
    3.1961    0.2933   -0.0626 H   0  0  0  0  0  0  0  0  0  0  0  0
    0.8562    1.7587    0.8504 H   0  0  0  0  0  0  0  0  0  0  0  0
    1.4569    0.1892    1.6510 H   0  0  0  0  0  0  0  0  0  0  0  0
    1.8360   -1.6015   -0.3939 H   0  0  0  0  0  0  0  0  0  0  0  0
    1.2455   -0.7749   -1.9310 H   0  0  0  0  0  0  0  0  0  0  0  0
   -0.4524   -1.0599    1.7900 H   0  0  0  0  0  0  0  0  0  0  0  0
   -0.4845   -2.1771    0.3140 H   0  0  0  0  0  0  0  0  0  0  0  0
   -2.8225   -1.1560    0.6030 H   0  0  0  0  0  0  0  0  0  0  0  0
   -1.3705    1.2581    1.2161 H   0  0  0  0  0  0  0  0  0  0  0  0
   -2.7724    1.3154   -0.0257 H   0  0  0  0  0  0  0  0  0  0  0  0
   -0.6933    1.2496   -1.5597 H   0  0  0  0  0  0  0  0  0  0  0  0
  1  2  1  0
  2  3  1  0
  3  4  1  0
  3  5  1  0
  5  6  1  0
  6  7  1  0
  7  8  1  0
  8  9  1  0
  4  1  1  0
  9  6  1  0
  8  3  1  0
  1 10  1  0
  1 11  1  0
  2 12  1  0
  2 13  1  0
  4 14  1  0
  4 15  1  0
  5 16  1  0
  5 17  1  0
  6 18  1  0
  7 19  1  0
  7 20  1  0
  8 21  1  0
M  END
