
     RDKit          3D

 19 21  0  0  0  0  0  0  0  0999 V2000
   -1.9711    0.6153   -0.2393 C   0  0  0  0  0  0  0  0  0  0  0  0
   -1.6791   -0.8495   -0.0636 C   0  0  0  0  0  0  0  0  0  0  0  0
   -0.3981   -0.4761    0.6275 C   0  0  0  0  0  0  0  0  0  0  0  0
   -0.5893    0.9513    0.2369 C   0  0  0  0  0  0  0  0  0  0  0  0
    0.3393    1.2855   -0.7082 O   0  0  0  0  0  0  0  0  0  0  0  0
    1.3074    0.3301   -0.7680 C   0  0  0  0  0  0  0  0  0  0  0  0
    2.3067    0.2773    0.3492 C   0  0  0  0  0  0  0  0  0  0  0  0
    1.9583   -1.0515    0.6114 O   0  0  0  0  0  0  0  0  0  0  0  0
    0.7904   -0.9335   -0.1532 C   0  0  0  0  0  0  0  0  0  0  0  0
   -2.7900    0.9362    0.4451 H   0  0  0  0  0  0  0  0  0  0  0  0
   -2.2185    0.8985   -1.2781 H   0  0  0  0  0  0  0  0  0  0  0  0
   -2.3696   -1.3629    0.6388 H   0  0  0  0  0  0  0  0  0  0  0  0
   -1.5505   -1.3841   -1.0413 H   0  0  0  0  0  0  0  0  0  0  0  0
   -0.3677   -0.5887    1.7169 H   0  0  0  0  0  0  0  0  0  0  0  0
   -0.6133    1.6980    1.0510 H   0  0  0  0  0  0  0  0  0  0  0  0
    1.7600    0.2043   -1.7646 H   0  0  0  0  0  0  0  0  0  0  0  0
    2.1042    0.9046    1.2267 H   0  0  0  0  0  0  0  0  0  0  0  0
    3.3623    0.3089   -0.0171 H   0  0  0  0  0  0  0  0  0  0  0  0
    0.6186   -1.7638   -0.8699 H   0  0  0  0  0  0  0  0  0  0  0  0
  1  2  1  0
  2  3  1  0
  3  4  1  0
  4  5  1  0
  5  6  1  0
  6  7  1  0
  7  8  1  0
  8  9  1  0
  4  1  1  0
  9  6  1  0
  9  3  1  0
  1 10  1  0
  1 11  1  0
  2 12  1  0
  2 13  1  0
  3 14  1  0
  4 15  1  0
  6 16  1  0
  7 17  1  0
  7 18  1  0
  9 19  1  0
M  END
