
     RDKit          3D

 19 21  0  0  0  0  0  0  0  0999 V2000
    1.8726    0.9122    0.0135 C   0  0  0  0  0  0  0  0  0  0  0  0
    1.7696   -0.5920    0.1811 C   0  0  0  0  0  0  0  0  0  0  0  0
    0.2808   -0.7383    0.0950 C   0  0  0  0  0  0  0  0  0  0  0  0
   -0.3522   -1.9285    0.1730 O   0  0  0  0  0  0  0  0  0  0  0  0
   -0.6778   -0.7681    1.0452 C   0  0  0  0  0  0  0  0  0  0  0  0
   -1.9354   -0.0866    0.5027 C   0  0  0  0  0  0  0  0  0  0  0  0
   -1.4941    0.6343   -0.7573 C   0  0  0  0  0  0  0  0  0  0  0  0
   -0.0486    0.2888   -0.9569 C   0  0  0  0  0  0  0  0  0  0  0  0
    0.8209    1.3254   -0.7520 O   0  0  0  0  0  0  0  0  0  0  0  0
    1.7296    1.3381    1.0440 H   0  0  0  0  0  0  0  0  0  0  0  0
    2.8508    1.2329   -0.3574 H   0  0  0  0  0  0  0  0  0  0  0  0
    2.2118   -0.9609    1.1047 H   0  0  0  0  0  0  0  0  0  0  0  0
    2.2279   -1.0415   -0.7341 H   0  0  0  0  0  0  0  0  0  0  0  0
   -0.7463   -1.0961    2.0886 H   0  0  0  0  0  0  0  0  0  0  0  0
   -2.2953    0.6449    1.2308 H   0  0  0  0  0  0  0  0  0  0  0  0
   -2.6493   -0.8874    0.2737 H   0  0  0  0  0  0  0  0  0  0  0  0
   -1.6105    1.7132   -0.6330 H   0  0  0  0  0  0  0  0  0  0  0  0
   -2.0810    0.2228   -1.6128 H   0  0  0  0  0  0  0  0  0  0  0  0
    0.1265   -0.2132   -1.9488 H   0  0  0  0  0  0  0  0  0  0  0  0
  1  2  1  0
  2  3  1  0
  3  4  1  0
  4  5  1  0
  5  6  1  0
  6  7  1  0
  7  8  1  0
  8  9  1  0
  9  1  1  0
  5  3  1  0
  8  3  1  0
  1 10  1  0
  1 11  1  0
  2 12  1  0
  2 13  1  0
  5 14  1  0
  6 15  1  0
  6 16  1  0
  7 17  1  0
  7 18  1  0
  8 19  1  0
M  END
