
     RDKit          3D

 15 17  0  0  0  0  0  0  0  0999 V2000
    2.3537   -0.1554    0.5443 C   0  0  0  0  0  0  0  0  0  0  0  0
    1.7436    0.8702   -0.1413 C   0  0  0  0  0  0  0  0  0  0  0  0
    0.4501    0.4705   -0.3420 C   0  0  0  0  0  0  0  0  0  0  0  0
    0.3606   -0.8030    0.2506 C   0  0  0  0  0  0  0  0  0  0  0  0
    1.5038   -1.1426    0.7652 O   0  0  0  0  0  0  0  0  0  0  0  0
   -1.0886   -1.1086   -0.0432 C   0  0  0  0  0  0  0  0  0  0  0  0
   -1.7776    0.1680    0.3598 C   0  0  0  0  0  0  0  0  0  0  0  0
   -0.9280    0.6185   -0.8357 C   0  0  0  0  0  0  0  0  0  0  0  0
   -1.2090   -0.6699   -1.3475 O   0  0  0  0  0  0  0  0  0  0  0  0
    3.3902   -0.1983    0.8819 H   0  0  0  0  0  0  0  0  0  0  0  0
    2.1403    1.8095   -0.4774 H   0  0  0  0  0  0  0  0  0  0  0  0
   -1.4508   -2.0467    0.2675 H   0  0  0  0  0  0  0  0  0  0  0  0
   -1.4206    0.5699    1.3216 H   0  0  0  0  0  0  0  0  0  0  0  0
   -2.8506    0.1498    0.1766 H   0  0  0  0  0  0  0  0  0  0  0  0
   -1.2170    1.4679   -1.3802 H   0  0  0  0  0  0  0  0  0  0  0  0
  1  2  2  0
  2  3  1  0
  3  4  2  0
  4  5  1  0
  4  6  1  0
  6  7  1  0
  7  8  1  0
  8  9  1  0
  5  1  1  0
  9  6  1  0
  8  3  1  0
  1 10  1  0
  2 11  1  0
  6 12  1  0
  7 13  1  0
  7 14  1  0
  8 15  1  0
M  END
