
     RDKit          3D

 20 21  0  0  0  0  0  0  0  0999 V2000
   -2.4194   -0.2111    0.2141 C   0  0  0  0  0  0  0  0  0  0  0  0
   -1.3478   -0.8333   -0.6966 C   0  0  0  0  0  0  0  0  0  0  0  0
   -0.6693    0.5061   -0.6622 C   0  0  0  0  0  0  0  0  0  0  0  0
    0.8187    0.5026   -0.6792 C   0  0  0  0  0  0  0  0  0  0  0  0
    1.4273   -0.2246    0.4845 C   0  0  0  0  0  0  0  0  0  0  0  0
    2.9490   -0.2289    0.4681 C   0  0  0  0  0  0  0  0  0  0  0  0
    2.1729    0.4579    1.4260 O   0  0  0  0  0  0  0  0  0  0  0  0
   -1.3021    0.6986    0.7220 C   0  0  0  0  0  0  0  0  0  0  0  0
   -2.8021   -0.9255    0.9416 H   0  0  0  0  0  0  0  0  0  0  0  0
   -3.1549    0.3101   -0.4301 H   0  0  0  0  0  0  0  0  0  0  0  0
   -1.7456   -1.1533   -1.6841 H   0  0  0  0  0  0  0  0  0  0  0  0
   -0.8230   -1.6228   -0.1206 H   0  0  0  0  0  0  0  0  0  0  0  0
   -1.1000    1.1733   -1.4183 H   0  0  0  0  0  0  0  0  0  0  0  0
    1.1739    1.5434   -0.6487 H   0  0  0  0  0  0  0  0  0  0  0  0
    1.1523   -0.0103   -1.6082 H   0  0  0  0  0  0  0  0  0  0  0  0
    1.0069   -1.2259    0.7166 H   0  0  0  0  0  0  0  0  0  0  0  0
    3.4824    0.3439   -0.2976 H   0  0  0  0  0  0  0  0  0  0  0  0
    3.4977   -1.0722    0.8981 H   0  0  0  0  0  0  0  0  0  0  0  0
   -0.7084    0.2244    1.5006 H   0  0  0  0  0  0  0  0  0  0  0  0
   -1.6086    1.7478    0.8740 H   0  0  0  0  0  0  0  0  0  0  0  0
  1  2  1  0
  2  3  1  0
  3  4  1  0
  4  5  1  0
  5  6  1  0
  6  7  1  0
  3  8  1  0
  8  1  1  0
  7  5  1  0
  1  9  1  0
  1 10  1  0
  2 11  1  0
  2 12  1  0
  3 13  1  0
  4 14  1  0
  4 15  1  0
  5 16  1  0
  6 17  1  0
  6 18  1  0
  8 19  1  0
  8 20  1  0
M  END
