
     RDKit          3D

 23 24  0  0  0  0  0  0  0  0999 V2000
   -1.9257    0.3871   -0.1662 C   0  0  0  0  0  0  0  0  0  0  0  0
   -1.4392   -0.8694    0.4825 C   0  0  0  0  0  0  0  0  0  0  0  0
   -0.2041   -1.5438    0.1672 C   0  0  0  0  0  0  0  0  0  0  0  0
    0.8192   -0.9558   -0.7269 C   0  0  0  0  0  0  0  0  0  0  0  0
    2.0671   -0.3335   -0.0736 C   0  0  0  0  0  0  0  0  0  0  0  0
    1.6803    1.1884    0.0089 C   0  0  0  0  0  0  0  0  0  0  0  0
    0.2809    0.9074    0.0338 C   0  0  0  0  0  0  0  0  0  0  0  0
   -0.9498    1.5874    0.0011 C   0  0  0  0  0  0  0  0  0  0  0  0
    0.2561    0.1885   -1.2067 O   0  0  0  0  0  0  0  0  0  0  0  0
   -2.2035    0.2706   -1.2219 H   0  0  0  0  0  0  0  0  0  0  0  0
   -2.8353    0.6950    0.3877 H   0  0  0  0  0  0  0  0  0  0  0  0
   -1.5155   -0.6690    1.6009 H   0  0  0  0  0  0  0  0  0  0  0  0
   -2.3198   -1.5787    0.3460 H   0  0  0  0  0  0  0  0  0  0  0  0
    0.3445   -1.8250    1.1223 H   0  0  0  0  0  0  0  0  0  0  0  0
   -0.4166   -2.5705   -0.2741 H   0  0  0  0  0  0  0  0  0  0  0  0
    1.2101   -1.6282   -1.5133 H   0  0  0  0  0  0  0  0  0  0  0  0
    2.9534   -0.4664   -0.6738 H   0  0  0  0  0  0  0  0  0  0  0  0
    2.1036   -0.6621    0.9615 H   0  0  0  0  0  0  0  0  0  0  0  0
    2.1655    1.6285    0.8967 H   0  0  0  0  0  0  0  0  0  0  0  0
    2.0539    1.6016   -0.9493 H   0  0  0  0  0  0  0  0  0  0  0  0
    0.1836    0.2242    0.9390 H   0  0  0  0  0  0  0  0  0  0  0  0
   -1.2070    2.1697    0.8945 H   0  0  0  0  0  0  0  0  0  0  0  0
   -1.1018    2.2542   -0.8754 H   0  0  0  0  0  0  0  0  0  0  0  0
  1  2  1  0
  2  3  1  0
  3  4  1  0
  4  5  1  0
  5  6  1  0
  6  7  1  0
  7  8  1  0
  7  9  1  0
  8  1  1  0
  9  4  1  0
  1 10  1  0
  1 11  1  0
  2 12  1  0
  2 13  1  0
  3 14  1  0
  3 15  1  0
  4 16  1  0
  5 17  1  0
  5 18  1  0
  6 19  1  0
  6 20  1  0
  7 21  1  0
  8 22  1  0
  8 23  1  0
M  END
