
     RDKit          3D

 21 22  0  0  0  0  0  0  0  0999 V2000
    2.4410    0.6832    0.4533 C   0  0  0  0  0  0  0  0  0  0  0  0
    1.9820   -0.4280   -0.5028 C   0  0  0  0  0  0  0  0  0  0  0  0
    0.7883   -0.5970    0.4393 C   0  0  0  0  0  0  0  0  0  0  0  0
   -0.5066   -0.9026   -0.2649 C   0  0  0  0  0  0  0  0  0  0  0  0
   -0.8150    0.1171   -1.1265 O   0  0  0  0  0  0  0  0  0  0  0  0
   -2.0267    0.6713   -0.7265 C   0  0  0  0  0  0  0  0  0  0  0  0
   -2.6512   -0.4792    0.0618 C   0  0  0  0  0  0  0  0  0  0  0  0
   -1.5013   -1.0062    0.6819 O   0  0  0  0  0  0  0  0  0  0  0  0
    0.9697    0.8852    0.7802 C   0  0  0  0  0  0  0  0  0  0  0  0
    3.0206    0.1994    1.2774 H   0  0  0  0  0  0  0  0  0  0  0  0
    2.9306    1.5012   -0.0742 H   0  0  0  0  0  0  0  0  0  0  0  0
    2.6678   -1.2887   -0.5340 H   0  0  0  0  0  0  0  0  0  0  0  0
    1.7140    0.0074   -1.4890 H   0  0  0  0  0  0  0  0  0  0  0  0
    1.0468   -1.2525    1.2852 H   0  0  0  0  0  0  0  0  0  0  0  0
   -0.4359   -1.8373   -0.8397 H   0  0  0  0  0  0  0  0  0  0  0  0
   -2.6146    0.9079   -1.6113 H   0  0  0  0  0  0  0  0  0  0  0  0
   -1.8732    1.4971   -0.0311 H   0  0  0  0  0  0  0  0  0  0  0  0
   -3.3824   -0.1219    0.7986 H   0  0  0  0  0  0  0  0  0  0  0  0
   -3.0231   -1.2545   -0.6178 H   0  0  0  0  0  0  0  0  0  0  0  0
    0.5263    1.5422   -0.0000 H   0  0  0  0  0  0  0  0  0  0  0  0
    0.7430    1.1558    1.8119 H   0  0  0  0  0  0  0  0  0  0  0  0
  1  2  1  0
  2  3  1  0
  3  4  1  0
  4  5  1  0
  5  6  1  0
  6  7  1  0
  7  8  1  0
  3  9  1  0
  9  1  1  0
  8  4  1  0
  1 10  1  0
  1 11  1  0
  2 12  1  0
  2 13  1  0
  3 14  1  0
  4 15  1  0
  6 16  1  0
  6 17  1  0
  7 18  1  0
  7 19  1  0
  9 20  1  0
  9 21  1  0
M  END
