
     RDKit          3D

 21 23  0  0  0  0  0  0  0  0999 V2000
   -2.3447    0.7534    0.3352 C   0  0  0  0  0  0  0  0  0  0  0  0
   -2.9675   -0.3570   -0.4965 C   0  0  0  0  0  0  0  0  0  0  0  0
   -1.5847    0.0148   -0.7877 C   0  0  0  0  0  0  0  0  0  0  0  0
   -0.4027   -0.7773   -0.2910 C   0  0  0  0  0  0  0  0  0  0  0  0
    0.5866    0.1708    0.3921 C   0  0  0  0  0  0  0  0  0  0  0  0
    1.8357   -0.3340    0.9721 C   0  0  0  0  0  0  0  0  0  0  0  0
    2.8963   -1.0214    0.1694 C   0  0  0  0  0  0  0  0  0  0  0  0
    2.4445   -0.4855   -1.0270 O   0  0  0  0  0  0  0  0  0  0  0  0
    1.8429    0.5294   -0.2908 C   0  0  0  0  0  0  0  0  0  0  0  0
   -2.0788    0.5008    1.3789 H   0  0  0  0  0  0  0  0  0  0  0  0
   -2.6368    1.8020    0.1256 H   0  0  0  0  0  0  0  0  0  0  0  0
   -3.7241   -0.0595   -1.2786 H   0  0  0  0  0  0  0  0  0  0  0  0
   -3.2225   -1.3017   -0.0140 H   0  0  0  0  0  0  0  0  0  0  0  0
   -1.3349    0.6524   -1.6812 H   0  0  0  0  0  0  0  0  0  0  0  0
    0.0948   -1.3003   -1.1199 H   0  0  0  0  0  0  0  0  0  0  0  0
   -0.8077   -1.5171    0.4585 H   0  0  0  0  0  0  0  0  0  0  0  0
    0.0923    1.0082    0.9436 H   0  0  0  0  0  0  0  0  0  0  0  0
    2.2003    0.1127    1.9175 H   0  0  0  0  0  0  0  0  0  0  0  0
    3.9196   -0.6182    0.3857 H   0  0  0  0  0  0  0  0  0  0  0  0
    2.8933   -2.1163    0.1647 H   0  0  0  0  0  0  0  0  0  0  0  0
    2.2980    1.5221   -0.2568 H   0  0  0  0  0  0  0  0  0  0  0  0
  1  2  1  0
  2  3  1  0
  3  4  1  0
  4  5  1  0
  5  6  1  0
  6  7  1  0
  7  8  1  0
  8  9  1  0
  3  1  1  0
  9  5  1  0
  9  6  1  0
  1 10  1  0
  1 11  1  0
  2 12  1  0
  2 13  1  0
  3 14  1  0
  4 15  1  0
  4 16  1  0
  5 17  1  0
  6 18  1  0
  7 19  1  0
  7 20  1  0
  9 21  1  0
M  END
