
     RDKit          3D

 19 21  0  0  0  0  0  0  0  0999 V2000
    2.2606   -0.1573    0.4886 C   0  0  0  0  0  0  0  0  0  0  0  0
    1.2961    0.9163   -0.0286 C   0  0  0  0  0  0  0  0  0  0  0  0
    0.3630   -0.1802    0.2925 C   0  0  0  0  0  0  0  0  0  0  0  0
    1.1863   -0.8536    1.0974 O   0  0  0  0  0  0  0  0  0  0  0  0
   -1.0221    0.1715    0.7283 C   0  0  0  0  0  0  0  0  0  0  0  0
   -1.4353    1.0046   -0.4532 C   0  0  0  0  0  0  0  0  0  0  0  0
   -0.9583    0.1675   -1.4980 O   0  0  0  0  0  0  0  0  0  0  0  0
   -0.3417   -0.8711   -0.8293 C   0  0  0  0  0  0  0  0  0  0  0  0
   -1.4205   -1.2168    0.2100 C   0  0  0  0  0  0  0  0  0  0  0  0
    3.0282    0.1963    1.1691 H   0  0  0  0  0  0  0  0  0  0  0  0
    2.5926   -0.7782   -0.3768 H   0  0  0  0  0  0  0  0  0  0  0  0
    1.1823    1.7676    0.7035 H   0  0  0  0  0  0  0  0  0  0  0  0
    1.4398    1.2051   -1.0662 H   0  0  0  0  0  0  0  0  0  0  0  0
   -1.2588    0.4380    1.7108 H   0  0  0  0  0  0  0  0  0  0  0  0
   -2.5124    1.0991   -0.5868 H   0  0  0  0  0  0  0  0  0  0  0  0
   -0.8762    1.9574   -0.5173 H   0  0  0  0  0  0  0  0  0  0  0  0
    0.1069   -1.6673   -1.3546 H   0  0  0  0  0  0  0  0  0  0  0  0
   -1.1808   -2.0437    0.8642 H   0  0  0  0  0  0  0  0  0  0  0  0
   -2.4497   -1.1552   -0.1991 H   0  0  0  0  0  0  0  0  0  0  0  0
  1  2  1  0
  2  3  1  0
  3  4  1  0
  3  5  1  0
  5  6  1  0
  6  7  1  0
  7  8  1  0
  8  9  1  0
  4  1  1  0
  9  5  1  0
  8  3  1  0
  1 10  1  0
  1 11  1  0
  2 12  1  0
  2 13  1  0
  5 14  1  0
  6 15  1  0
  6 16  1  0
  8 17  1  0
  9 18  1  0
  9 19  1  0
M  END
