
     RDKit          3D

 23 24  0  0  0  0  0  0  0  0999 V2000
   -2.1479   -0.0503   -0.0374 C   0  0  0  0  0  0  0  0  0  0  0  0
   -1.2946    1.0018   -0.6587 C   0  0  0  0  0  0  0  0  0  0  0  0
   -0.0057    1.2581    0.0670 C   0  0  0  0  0  0  0  0  0  0  0  0
    0.7554    0.0039    0.3402 C   0  0  0  0  0  0  0  0  0  0  0  0
   -0.0885   -0.9987    1.0453 C   0  0  0  0  0  0  0  0  0  0  0  0
   -1.4121   -1.2653    0.4176 C   0  0  0  0  0  0  0  0  0  0  0  0
    1.5674   -0.4575   -0.8173 C   0  0  0  0  0  0  0  0  0  0  0  0
    2.6517    0.3519   -0.1154 C   0  0  0  0  0  0  0  0  0  0  0  0
    1.9169    0.2668    1.0718 O   0  0  0  0  0  0  0  0  0  0  0  0
   -2.8859   -0.3826   -0.8163 H   0  0  0  0  0  0  0  0  0  0  0  0
   -2.7874    0.3550    0.7919 H   0  0  0  0  0  0  0  0  0  0  0  0
   -1.0881    0.8263   -1.7274 H   0  0  0  0  0  0  0  0  0  0  0  0
   -1.8818    1.9664   -0.6063 H   0  0  0  0  0  0  0  0  0  0  0  0
    0.6236    1.8927   -0.6074 H   0  0  0  0  0  0  0  0  0  0  0  0
   -0.1363    1.8073    1.0125 H   0  0  0  0  0  0  0  0  0  0  0  0
    0.4579   -1.9595    1.1399 H   0  0  0  0  0  0  0  0  0  0  0  0
   -0.2915   -0.5900    2.0795 H   0  0  0  0  0  0  0  0  0  0  0  0
   -2.0584   -1.7514    1.2071 H   0  0  0  0  0  0  0  0  0  0  0  0
   -1.2970   -2.0222   -0.3727 H   0  0  0  0  0  0  0  0  0  0  0  0
    1.8229   -1.5259   -0.8752 H   0  0  0  0  0  0  0  0  0  0  0  0
    1.2282    0.0085   -1.7781 H   0  0  0  0  0  0  0  0  0  0  0  0
    3.6460   -0.1445   -0.0829 H   0  0  0  0  0  0  0  0  0  0  0  0
    2.7053    1.4093   -0.4248 H   0  0  0  0  0  0  0  0  0  0  0  0
  1  2  1  0
  2  3  1  0
  3  4  1  0
  4  5  1  0
  5  6  1  0
  4  7  1  0
  7  8  1  0
  8  9  1  0
  6  1  1  0
  9  4  1  0
  1 10  1  0
  1 11  1  0
  2 12  1  0
  2 13  1  0
  3 14  1  0
  3 15  1  0
  5 16  1  0
  5 17  1  0
  6 18  1  0
  6 19  1  0
  7 20  1  0
  7 21  1  0
  8 22  1  0
  8 23  1  0
M  END
