
     RDKit          3D

 18 20  0  0  0  0  0  0  0  0999 V2000
    1.5699   -0.3766    0.7107 C   0  0  0  0  0  0  0  0  0  0  0  0
    1.5736    0.7179   -0.3766 C   0  0  0  0  0  0  0  0  0  0  0  0
    0.3384    0.2198   -1.1418 C   0  0  0  0  0  0  0  0  0  0  0  0
    0.6413   -1.1647   -1.1825 O   0  0  0  0  0  0  0  0  0  0  0  0
    0.3399   -1.1288    0.2017 C   0  0  0  0  0  0  0  0  0  0  0  0
   -0.6437   -0.0965   -0.1180 C   0  0  0  0  0  0  0  0  0  0  0  0
   -2.0694   -0.2743   -0.2272 C   0  0  0  0  0  0  0  0  0  0  0  0
   -1.4151    0.7516    0.7161 C   0  0  0  0  0  0  0  0  0  0  0  0
    2.4591   -1.0252    0.5970 H   0  0  0  0  0  0  0  0  0  0  0  0
    1.4217    0.0370    1.7039 H   0  0  0  0  0  0  0  0  0  0  0  0
    2.4867    0.6324   -0.9940 H   0  0  0  0  0  0  0  0  0  0  0  0
    1.4135    1.6932    0.0793 H   0  0  0  0  0  0  0  0  0  0  0  0
    0.1115    0.6964   -2.0661 H   0  0  0  0  0  0  0  0  0  0  0  0
    0.0933   -2.0530    0.6708 H   0  0  0  0  0  0  0  0  0  0  0  0
   -2.5921    0.0797   -1.1124 H   0  0  0  0  0  0  0  0  0  0  0  0
   -2.5373   -1.1292    0.3323 H   0  0  0  0  0  0  0  0  0  0  0  0
   -1.6500    1.8083    0.4057 H   0  0  0  0  0  0  0  0  0  0  0  0
   -1.5415    0.6119    1.8012 H   0  0  0  0  0  0  0  0  0  0  0  0
  1  2  1  0
  2  3  1  0
  3  4  1  0
  4  5  1  0
  5  6  1  0
  6  7  1  0
  7  8  1  0
  5  1  1  0
  8  6  1  0
  6  3  1  0
  1  9  1  0
  1 10  1  0
  2 11  1  0
  2 12  1  0
  3 13  1  0
  5 14  1  0
  7 15  1  0
  7 16  1  0
  8 17  1  0
  8 18  1  0
M  END
