
     RDKit          3D

 18 19  0  0  0  0  0  0  0  0999 V2000
   -1.9206   -0.2672   -0.1466 C   0  0  0  0  0  0  0  0  0  0  0  0
   -0.8973   -1.3606    0.0603 C   0  0  0  0  0  0  0  0  0  0  0  0
    0.3948   -0.6202    0.0269 C   0  0  0  0  0  0  0  0  0  0  0  0
    0.2048    0.6933    0.0645 C   0  0  0  0  0  0  0  0  0  0  0  0
   -1.2193    1.0279    0.1280 C   0  0  0  0  0  0  0  0  0  0  0  0
    1.5526    1.3613    0.0267 C   0  0  0  0  0  0  0  0  0  0  0  0
    2.4415    0.3536   -0.3388 O   0  0  0  0  0  0  0  0  0  0  0  0
    1.8484   -0.8440   -0.0350 C   0  0  0  0  0  0  0  0  0  0  0  0
   -2.2648   -0.2701   -1.2060 H   0  0  0  0  0  0  0  0  0  0  0  0
   -2.7923   -0.4545    0.5015 H   0  0  0  0  0  0  0  0  0  0  0  0
   -0.9490   -2.0723   -0.8066 H   0  0  0  0  0  0  0  0  0  0  0  0
   -1.0243   -1.9021    0.9937 H   0  0  0  0  0  0  0  0  0  0  0  0
   -1.5312    1.4605    1.1214 H   0  0  0  0  0  0  0  0  0  0  0  0
   -1.5303    1.7838   -0.6346 H   0  0  0  0  0  0  0  0  0  0  0  0
    1.8136    1.8406    0.9692 H   0  0  0  0  0  0  0  0  0  0  0  0
    1.4939    2.1506   -0.7714 H   0  0  0  0  0  0  0  0  0  0  0  0
    2.2490   -1.3133    0.8994 H   0  0  0  0  0  0  0  0  0  0  0  0
    2.1305   -1.5673   -0.8526 H   0  0  0  0  0  0  0  0  0  0  0  0
  1  2  1  0
  2  3  1  0
  3  4  2  0
  4  5  1  0
  4  6  1  0
  6  7  1  0
  7  8  1  0
  5  1  1  0
  8  3  1  0
  1  9  1  0
  1 10  1  0
  2 11  1  0
  2 12  1  0
  5 13  1  0
  5 14  1  0
  6 15  1  0
  6 16  1  0
  8 17  1  0
  8 18  1  0
M  END
