
     RDKit          3D

 21 23  0  0  0  0  0  0  0  0999 V2000
    1.5961    0.6189   -0.2282 C   0  0  0  0  0  0  0  0  0  0  0  0
    1.5491   -0.8603   -0.2966 C   0  0  0  0  0  0  0  0  0  0  0  0
    0.2231   -1.4475   -0.6250 C   0  0  0  0  0  0  0  0  0  0  0  0
   -0.9453   -0.7745   -0.0296 C   0  0  0  0  0  0  0  0  0  0  0  0
   -1.1136   -0.4963    1.3994 C   0  0  0  0  0  0  0  0  0  0  0  0
   -0.8377    0.5740    0.4296 C   0  0  0  0  0  0  0  0  0  0  0  0
    0.4446    1.2812    0.4275 C   0  0  0  0  0  0  0  0  0  0  0  0
   -1.9076    0.9272   -0.5611 C   0  0  0  0  0  0  0  0  0  0  0  0
   -1.9987   -0.4135   -0.8930 O   0  0  0  0  0  0  0  0  0  0  0  0
    2.5191    0.8905    0.3649 H   0  0  0  0  0  0  0  0  0  0  0  0
    1.7870    1.0491   -1.2541 H   0  0  0  0  0  0  0  0  0  0  0  0
    2.2767   -1.1848   -1.0984 H   0  0  0  0  0  0  0  0  0  0  0  0
    1.9500   -1.3499    0.6354 H   0  0  0  0  0  0  0  0  0  0  0  0
    0.0935   -1.5046   -1.7312 H   0  0  0  0  0  0  0  0  0  0  0  0
    0.2320   -2.5171   -0.2819 H   0  0  0  0  0  0  0  0  0  0  0  0
   -2.1437   -0.6643    1.8123 H   0  0  0  0  0  0  0  0  0  0  0  0
   -0.2822   -0.8432    2.0618 H   0  0  0  0  0  0  0  0  0  0  0  0
    0.6856    1.5721    1.4932 H   0  0  0  0  0  0  0  0  0  0  0  0
    0.3023    2.2794   -0.0857 H   0  0  0  0  0  0  0  0  0  0  0  0
   -1.5712    1.5543   -1.3978 H   0  0  0  0  0  0  0  0  0  0  0  0
   -2.8591    1.3093   -0.1414 H   0  0  0  0  0  0  0  0  0  0  0  0
  1  2  1  0
  2  3  1  0
  3  4  1  0
  4  5  1  0
  5  6  1  0
  6  7  1  0
  6  8  1  0
  8  9  1  0
  7  1  1  0
  6  4  1  0
  9  4  1  0
  1 10  1  0
  1 11  1  0
  2 12  1  0
  2 13  1  0
  3 14  1  0
  3 15  1  0
  5 16  1  0
  5 17  1  0
  7 18  1  0
  7 19  1  0
  8 20  1  0
  8 21  1  0
M  END
