
     RDKit          3D

 15 16  0  0  0  0  0  0  0  0999 V2000
    2.2250   -0.2409    0.0189 C   0  0  0  0  0  0  0  0  0  0  0  0
    1.2708   -1.2520    0.0448 C   0  0  0  0  0  0  0  0  0  0  0  0
    0.0148   -0.6830    0.0209 C   0  0  0  0  0  0  0  0  0  0  0  0
   -1.2908   -1.1285    0.0278 C   0  0  0  0  0  0  0  0  0  0  0  0
   -2.3501   -0.2328   -0.0051 C   0  0  0  0  0  0  0  0  0  0  0  0
   -2.0927    1.0665   -0.0434 O   0  0  0  0  0  0  0  0  0  0  0  0
   -0.8749    1.5551   -0.0520 C   0  0  0  0  0  0  0  0  0  0  0  0
    0.2533    0.7562   -0.0218 C   0  0  0  0  0  0  0  0  0  0  0  0
    1.6204    0.9968   -0.0220 C   0  0  0  0  0  0  0  0  0  0  0  0
    3.3074   -0.3759    0.0287 H   0  0  0  0  0  0  0  0  0  0  0  0
    1.4579   -2.3268    0.0786 H   0  0  0  0  0  0  0  0  0  0  0  0
   -1.4818   -2.1952    0.0593 H   0  0  0  0  0  0  0  0  0  0  0  0
   -3.3855   -0.5487   -0.0008 H   0  0  0  0  0  0  0  0  0  0  0  0
   -0.7709    2.6264   -0.0842 H   0  0  0  0  0  0  0  0  0  0  0  0
    2.0973    1.9828   -0.0497 H   0  0  0  0  0  0  0  0  0  0  0  0
  1  2  1  0
  2  3  2  0
  3  4  1  0
  4  5  2  0
  5  6  1  0
  6  7  1  0
  7  8  2  0
  8  9  1  0
  9  1  2  0
  8  3  1  0
  1 10  1  0
  2 11  1  0
  4 12  1  0
  5 13  1  0
  7 14  1  0
  9 15  1  0
M  END
