
     RDKit          3D

 21 23  0  0  0  0  0  0  0  0999 V2000
   -1.9755   -0.2836    0.0796 C   0  0  0  0  0  0  0  0  0  0  0  0
   -0.9650   -1.0452   -0.7756 C   0  0  0  0  0  0  0  0  0  0  0  0
    0.1167   -0.4185   -0.0476 C   0  0  0  0  0  0  0  0  0  0  0  0
    1.1412   -1.1629    0.6720 C   0  0  0  0  0  0  0  0  0  0  0  0
    2.1505   -0.0912    0.2389 C   0  0  0  0  0  0  0  0  0  0  0  0
    1.0718    0.4998   -0.6837 C   0  0  0  0  0  0  0  0  0  0  0  0
    0.7789    1.8059   -0.2668 O   0  0  0  0  0  0  0  0  0  0  0  0
   -0.6132    1.7941   -0.0296 C   0  0  0  0  0  0  0  0  0  0  0  0
   -0.8280    0.4638    0.6909 C   0  0  0  0  0  0  0  0  0  0  0  0
   -2.5187   -0.8846    0.8116 H   0  0  0  0  0  0  0  0  0  0  0  0
   -2.6439    0.3312   -0.5700 H   0  0  0  0  0  0  0  0  0  0  0  0
   -1.0782   -2.1408   -0.5471 H   0  0  0  0  0  0  0  0  0  0  0  0
   -1.0475   -0.8075   -1.8617 H   0  0  0  0  0  0  0  0  0  0  0  0
    1.4333   -2.1256    0.1671 H   0  0  0  0  0  0  0  0  0  0  0  0
    1.0277   -1.2745    1.7542 H   0  0  0  0  0  0  0  0  0  0  0  0
    2.3895    0.5273    1.1111 H   0  0  0  0  0  0  0  0  0  0  0  0
    3.0319   -0.4681   -0.2764 H   0  0  0  0  0  0  0  0  0  0  0  0
    1.2826    0.4046   -1.7506 H   0  0  0  0  0  0  0  0  0  0  0  0
   -1.0744    1.7322   -1.0441 H   0  0  0  0  0  0  0  0  0  0  0  0
   -0.9280    2.6527    0.5566 H   0  0  0  0  0  0  0  0  0  0  0  0
   -0.7518    0.4909    1.7711 H   0  0  0  0  0  0  0  0  0  0  0  0
  1  2  1  0
  2  3  1  0
  3  4  1  0
  4  5  1  0
  5  6  1  0
  6  7  1  0
  7  8  1  0
  8  9  1  0
  9  1  1  0
  6  3  1  0
  9  3  1  0
  1 10  1  0
  1 11  1  0
  2 12  1  0
  2 13  1  0
  4 14  1  0
  4 15  1  0
  5 16  1  0
  5 17  1  0
  6 18  1  0
  8 19  1  0
  8 20  1  0
  9 21  1  0
M  END
