
     RDKit          3D

 19 21  0  0  0  0  0  0  0  0999 V2000
   -2.0426    0.7761    0.6470 C   0  0  0  0  0  0  0  0  0  0  0  0
   -1.1178    0.9921   -0.5403 C   0  0  0  0  0  0  0  0  0  0  0  0
   -0.3718   -0.0644    0.1598 C   0  0  0  0  0  0  0  0  0  0  0  0
   -0.3189   -1.4300   -0.4727 C   0  0  0  0  0  0  0  0  0  0  0  0
    1.1194   -1.5202    0.0616 C   0  0  0  0  0  0  0  0  0  0  0  0
    1.0903   -0.0525    0.1839 C   0  0  0  0  0  0  0  0  0  0  0  0
    2.0356    0.9063    0.3168 C   0  0  0  0  0  0  0  0  0  0  0  0
    1.6374    0.5661   -1.0564 O   0  0  0  0  0  0  0  0  0  0  0  0
   -1.0773    0.0473    1.3251 O   0  0  0  0  0  0  0  0  0  0  0  0
   -2.9691    0.2115    0.3815 H   0  0  0  0  0  0  0  0  0  0  0  0
   -2.2948    1.7147    1.1954 H   0  0  0  0  0  0  0  0  0  0  0  0
   -1.5971    0.7625   -1.4936 H   0  0  0  0  0  0  0  0  0  0  0  0
   -0.6564    2.0086   -0.4620 H   0  0  0  0  0  0  0  0  0  0  0  0
   -0.9916   -2.1901   -0.0318 H   0  0  0  0  0  0  0  0  0  0  0  0
   -0.2970   -1.3637   -1.5674 H   0  0  0  0  0  0  0  0  0  0  0  0
    1.0806   -2.0316    1.0662 H   0  0  0  0  0  0  0  0  0  0  0  0
    1.8330   -1.9756   -0.6224 H   0  0  0  0  0  0  0  0  0  0  0  0
    1.8183    1.9694    0.4766 H   0  0  0  0  0  0  0  0  0  0  0  0
    3.1201    0.6735    0.4328 H   0  0  0  0  0  0  0  0  0  0  0  0
  1  2  1  0
  2  3  1  0
  3  4  1  0
  4  5  1  0
  5  6  1  0
  6  7  1  0
  7  8  1  0
  3  9  1  0
  9  1  1  0
  6  3  1  0
  8  6  1  0
  1 10  1  0
  1 11  1  0
  2 12  1  0
  2 13  1  0
  4 14  1  0
  4 15  1  0
  5 16  1  0
  5 17  1  0
  7 18  1  0
  7 19  1  0
M  END
