
     RDKit          3D

 18 19  0  0  0  0  0  0  0  0999 V2000
    1.7689   -0.1182    0.2907 C   0  0  0  0  0  0  0  0  0  0  0  0
    0.6493   -1.1404    0.1253 C   0  0  0  0  0  0  0  0  0  0  0  0
   -0.1860   -0.4297   -0.9485 C   0  0  0  0  0  0  0  0  0  0  0  0
   -1.4702   -0.8990   -0.9838 O   0  0  0  0  0  0  0  0  0  0  0  0
   -2.2067   -0.2602   -0.0044 C   0  0  0  0  0  0  0  0  0  0  0  0
   -1.3761    0.6400    0.6368 O   0  0  0  0  0  0  0  0  0  0  0  0
   -0.3419    0.9327   -0.2819 C   0  0  0  0  0  0  0  0  0  0  0  0
    0.9706    1.1697    0.4390 C   0  0  0  0  0  0  0  0  0  0  0  0
    2.4102   -0.3252    1.1516 H   0  0  0  0  0  0  0  0  0  0  0  0
    2.3235   -0.1335   -0.6855 H   0  0  0  0  0  0  0  0  0  0  0  0
    1.0009   -2.1162   -0.1964 H   0  0  0  0  0  0  0  0  0  0  0  0
    0.0140   -1.1436    1.0325 H   0  0  0  0  0  0  0  0  0  0  0  0
    0.3299   -0.3778   -1.9077 H   0  0  0  0  0  0  0  0  0  0  0  0
   -3.0753    0.2130   -0.5034 H   0  0  0  0  0  0  0  0  0  0  0  0
   -2.5999   -1.0484    0.6731 H   0  0  0  0  0  0  0  0  0  0  0  0
   -0.6111    1.7236   -0.9784 H   0  0  0  0  0  0  0  0  0  0  0  0
    0.8320    1.3537    1.5195 H   0  0  0  0  0  0  0  0  0  0  0  0
    1.5678    1.9596   -0.0500 H   0  0  0  0  0  0  0  0  0  0  0  0
  1  2  1  0
  2  3  1  0
  3  4  1  0
  4  5  1  0
  5  6  1  0
  6  7  1  0
  7  8  1  0
  8  1  1  0
  7  3  1  0
  1  9  1  0
  1 10  1  0
  2 11  1  0
  2 12  1  0
  3 13  1  0
  5 14  1  0
  5 15  1  0
  7 16  1  0
  8 17  1  0
  8 18  1  0
M  END
