
     RDKit          3D

 25 26  0  0  0  0  0  0  0  0999 V2000
    2.3891    0.0140   -0.4085 C   0  0  0  0  0  0  0  0  0  0  0  0
    2.0403   -0.2211    1.0297 C   0  0  0  0  0  0  0  0  0  0  0  0
    0.5415   -0.2353    1.1228 C   0  0  0  0  0  0  0  0  0  0  0  0
    0.0052   -0.1085   -0.2851 C   0  0  0  0  0  0  0  0  0  0  0  0
    1.1493   -0.2265   -1.2238 C   0  0  0  0  0  0  0  0  0  0  0  0
   -0.6889    1.2517   -0.3602 C   0  0  0  0  0  0  0  0  0  0  0  0
   -1.9927    0.9539    0.3354 C   0  0  0  0  0  0  0  0  0  0  0  0
   -2.3854   -0.4428   -0.0587 C   0  0  0  0  0  0  0  0  0  0  0  0
   -1.0911   -1.0964   -0.4952 C   0  0  0  0  0  0  0  0  0  0  0  0
    3.2685   -0.5508   -0.7572 H   0  0  0  0  0  0  0  0  0  0  0  0
    2.6644    1.0997   -0.5232 H   0  0  0  0  0  0  0  0  0  0  0  0
    2.4850    0.5889    1.6687 H   0  0  0  0  0  0  0  0  0  0  0  0
    2.4841   -1.1695    1.4123 H   0  0  0  0  0  0  0  0  0  0  0  0
    0.1762    0.5584    1.7953 H   0  0  0  0  0  0  0  0  0  0  0  0
    0.2285   -1.2031    1.5359 H   0  0  0  0  0  0  0  0  0  0  0  0
    1.0470    0.5691   -2.0088 H   0  0  0  0  0  0  0  0  0  0  0  0
    1.2376   -1.1904   -1.7437 H   0  0  0  0  0  0  0  0  0  0  0  0
   -0.7957    1.6139   -1.3820 H   0  0  0  0  0  0  0  0  0  0  0  0
   -0.0955    1.9563    0.2620 H   0  0  0  0  0  0  0  0  0  0  0  0
   -2.7511    1.6872    0.0454 H   0  0  0  0  0  0  0  0  0  0  0  0
   -1.8633    0.9818    1.4308 H   0  0  0  0  0  0  0  0  0  0  0  0
   -3.1031   -0.4309   -0.9124 H   0  0  0  0  0  0  0  0  0  0  0  0
   -2.8524   -0.9459    0.8056 H   0  0  0  0  0  0  0  0  0  0  0  0
   -1.1766   -1.5079   -1.4952 H   0  0  0  0  0  0  0  0  0  0  0  0
   -0.9211   -1.9459    0.2101 H   0  0  0  0  0  0  0  0  0  0  0  0
  1  2  1  0
  2  3  1  0
  3  4  1  0
  4  5  1  0
  4  6  1  0
  6  7  1  0
  7  8  1  0
  8  9  1  0
  5  1  1  0
  9  4  1  0
  1 10  1  0
  1 11  1  0
  2 12  1  0
  2 13  1  0
  3 14  1  0
  3 15  1  0
  5 16  1  0
  5 17  1  0
  6 18  1  0
  6 19  1  0
  7 20  1  0
  7 21  1  0
  8 22  1  0
  8 23  1  0
  9 24  1  0
  9 25  1  0
M  END
