
     RDKit          3D

 21 23  0  0  0  0  0  0  0  0999 V2000
    2.3159   -0.5487   -0.1945 C   0  0  0  0  0  0  0  0  0  0  0  0
    1.0953   -1.1184    0.5605 C   0  0  0  0  0  0  0  0  0  0  0  0
    0.0875   -0.0831    0.0440 C   0  0  0  0  0  0  0  0  0  0  0  0
   -1.2956   -0.2230    0.4634 C   0  0  0  0  0  0  0  0  0  0  0  0
   -2.2891    0.7492   -0.0099 C   0  0  0  0  0  0  0  0  0  0  0  0
   -2.3800   -0.6823   -0.4455 C   0  0  0  0  0  0  0  0  0  0  0  0
    0.8252    1.2060    0.3623 C   0  0  0  0  0  0  0  0  0  0  0  0
    1.6299    0.6503   -0.7965 C   0  0  0  0  0  0  0  0  0  0  0  0
    0.4057    0.1280   -1.2723 O   0  0  0  0  0  0  0  0  0  0  0  0
    3.1064   -0.2961    0.5135 H   0  0  0  0  0  0  0  0  0  0  0  0
    2.5922   -1.3080   -0.9368 H   0  0  0  0  0  0  0  0  0  0  0  0
    1.1784   -0.9577    1.6378 H   0  0  0  0  0  0  0  0  0  0  0  0
    0.8556   -2.1296    0.2421 H   0  0  0  0  0  0  0  0  0  0  0  0
   -1.4339   -0.5580    1.5307 H   0  0  0  0  0  0  0  0  0  0  0  0
   -3.0676    1.1397    0.7027 H   0  0  0  0  0  0  0  0  0  0  0  0
   -2.0482    1.5055   -0.7992 H   0  0  0  0  0  0  0  0  0  0  0  0
   -2.1830   -0.8726   -1.5184 H   0  0  0  0  0  0  0  0  0  0  0  0
   -3.2193   -1.2762   -0.0407 H   0  0  0  0  0  0  0  0  0  0  0  0
    0.3054    2.1323    0.0592 H   0  0  0  0  0  0  0  0  0  0  0  0
    1.3519    1.2255    1.3204 H   0  0  0  0  0  0  0  0  0  0  0  0
    2.1675    1.3172   -1.4229 H   0  0  0  0  0  0  0  0  0  0  0  0
  1  2  1  0
  2  3  1  0
  3  4  1  0
  4  5  1  0
  5  6  1  0
  3  7  1  0
  7  8  1  0
  8  9  1  0
  8  1  1  0
  9  3  1  0
  6  4  1  0
  1 10  1  0
  1 11  1  0
  2 12  1  0
  2 13  1  0
  4 14  1  0
  5 15  1  0
  5 16  1  0
  6 17  1  0
  6 18  1  0
  7 19  1  0
  7 20  1  0
  8 21  1  0
M  END
