
     RDKit          3D

 21 23  0  0  0  0  0  0  0  0999 V2000
    2.4723    0.5314   -0.2910 C   0  0  0  0  0  0  0  0  0  0  0  0
    1.9500    0.0415    1.0263 C   0  0  0  0  0  0  0  0  0  0  0  0
    1.4323   -0.5898   -0.1910 C   0  0  0  0  0  0  0  0  0  0  0  0
    0.1227   -0.2379   -0.8173 C   0  0  0  0  0  0  0  0  0  0  0  0
   -0.9462   -1.3685   -0.7248 C   0  0  0  0  0  0  0  0  0  0  0  0
   -1.1229   -0.0641   -0.1561 C   0  0  0  0  0  0  0  0  0  0  0  0
   -2.1999    0.9043   -0.4741 C   0  0  0  0  0  0  0  0  0  0  0  0
   -2.7214    0.6482    0.8181 O   0  0  0  0  0  0  0  0  0  0  0  0
   -1.4128    0.2953    1.2305 C   0  0  0  0  0  0  0  0  0  0  0  0
    2.1650    1.5057   -0.6921 H   0  0  0  0  0  0  0  0  0  0  0  0
    3.4855    0.1830   -0.6416 H   0  0  0  0  0  0  0  0  0  0  0  0
    1.3956    0.7280    1.6636 H   0  0  0  0  0  0  0  0  0  0  0  0
    2.7039   -0.5643    1.5971 H   0  0  0  0  0  0  0  0  0  0  0  0
    1.7852   -1.6220   -0.4571 H   0  0  0  0  0  0  0  0  0  0  0  0
    0.2365    0.1829   -1.8586 H   0  0  0  0  0  0  0  0  0  0  0  0
   -1.4811   -1.6049   -1.6770 H   0  0  0  0  0  0  0  0  0  0  0  0
   -0.6577   -2.2783   -0.1741 H   0  0  0  0  0  0  0  0  0  0  0  0
   -2.8606    0.5842   -1.2877 H   0  0  0  0  0  0  0  0  0  0  0  0
   -1.9066    1.9930   -0.4898 H   0  0  0  0  0  0  0  0  0  0  0  0
   -0.9459    1.2454    1.6234 H   0  0  0  0  0  0  0  0  0  0  0  0
   -1.4940   -0.5131    1.9734 H   0  0  0  0  0  0  0  0  0  0  0  0
  1  2  1  0
  2  3  1  0
  3  4  1  0
  4  5  1  0
  5  6  1  0
  6  7  1  0
  7  8  1  0
  8  9  1  0
  3  1  1  0
  6  4  1  0
  9  6  1  0
  1 10  1  0
  1 11  1  0
  2 12  1  0
  2 13  1  0
  3 14  1  0
  4 15  1  0
  5 16  1  0
  5 17  1  0
  7 18  1  0
  7 19  1  0
  9 20  1  0
  9 21  1  0
M  END
