
     RDKit          3D

 21 23  0  0  0  0  0  0  0  0999 V2000
   -2.1264   -0.2617   -0.9085 C   0  0  0  0  0  0  0  0  0  0  0  0
   -2.4039    0.2345    0.5431 C   0  0  0  0  0  0  0  0  0  0  0  0
   -1.0782    0.0167    0.0561 C   0  0  0  0  0  0  0  0  0  0  0  0
   -0.0227    1.0687   -0.1297 C   0  0  0  0  0  0  0  0  0  0  0  0
    0.9780    0.0147    0.1030 C   0  0  0  0  0  0  0  0  0  0  0  0
    2.1483    0.2528    0.9389 C   0  0  0  0  0  0  0  0  0  0  0  0
    2.9209   -0.4693   -0.0020 O   0  0  0  0  0  0  0  0  0  0  0  0
    1.8949   -0.3858   -0.9736 C   0  0  0  0  0  0  0  0  0  0  0  0
   -0.0742   -0.9482    0.5488 C   0  0  0  0  0  0  0  0  0  0  0  0
   -2.4679   -1.2696   -1.1588 H   0  0  0  0  0  0  0  0  0  0  0  0
   -2.2734    0.5140   -1.7082 H   0  0  0  0  0  0  0  0  0  0  0  0
   -2.8845   -0.5579    1.1873 H   0  0  0  0  0  0  0  0  0  0  0  0
   -2.9076    1.2017    0.6351 H   0  0  0  0  0  0  0  0  0  0  0  0
   -0.1164    1.8613    0.6430 H   0  0  0  0  0  0  0  0  0  0  0  0
   -0.0027    1.5037   -1.1401 H   0  0  0  0  0  0  0  0  0  0  0  0
    2.5315    1.3130    0.9139 H   0  0  0  0  0  0  0  0  0  0  0  0
    2.1982   -0.1148    1.9608 H   0  0  0  0  0  0  0  0  0  0  0  0
    2.1499    0.4394   -1.6981 H   0  0  0  0  0  0  0  0  0  0  0  0
    1.6225   -1.3390   -1.4362 H   0  0  0  0  0  0  0  0  0  0  0  0
    0.0252   -1.9059   -0.0088 H   0  0  0  0  0  0  0  0  0  0  0  0
   -0.1113   -1.1684    1.6339 H   0  0  0  0  0  0  0  0  0  0  0  0
  1  2  1  0
  2  3  1  0
  3  4  1  0
  4  5  1  0
  5  6  1  0
  6  7  1  0
  7  8  1  0
  5  9  1  0
  3  1  1  0
  8  5  1  0
  9  3  1  0
  1 10  1  0
  1 11  1  0
  2 12  1  0
  2 13  1  0
  4 14  1  0
  4 15  1  0
  6 16  1  0
  6 17  1  0
  8 18  1  0
  8 19  1  0
  9 20  1  0
  9 21  1  0
M  END
