
     RDKit          3D

 21 23  0  0  0  0  0  0  0  0999 V2000
   -2.0539    0.7648    0.7126 C   0  0  0  0  0  0  0  0  0  0  0  0
   -2.1268    0.5816   -0.7873 C   0  0  0  0  0  0  0  0  0  0  0  0
   -0.9381    0.1663   -0.0312 C   0  0  0  0  0  0  0  0  0  0  0  0
   -0.6207   -1.2913   -0.0040 C   0  0  0  0  0  0  0  0  0  0  0  0
    0.8452   -1.3264    0.3547 C   0  0  0  0  0  0  0  0  0  0  0  0
    1.3837   -0.0851   -0.3048 C   0  0  0  0  0  0  0  0  0  0  0  0
    2.7887    0.2299   -0.2005 C   0  0  0  0  0  0  0  0  0  0  0  0
    2.1532   -0.1378   -1.4229 O   0  0  0  0  0  0  0  0  0  0  0  0
    0.3491    0.9313   -0.0471 C   0  0  0  0  0  0  0  0  0  0  0  0
   -1.9533    1.8536    0.9909 H   0  0  0  0  0  0  0  0  0  0  0  0
   -2.7247    0.2045    1.3659 H   0  0  0  0  0  0  0  0  0  0  0  0
   -2.0464    1.4338   -1.4615 H   0  0  0  0  0  0  0  0  0  0  0  0
   -2.8551   -0.2140   -1.0851 H   0  0  0  0  0  0  0  0  0  0  0  0
   -1.2403   -1.8475    0.7134 H   0  0  0  0  0  0  0  0  0  0  0  0
   -0.7797   -1.6795   -1.0523 H   0  0  0  0  0  0  0  0  0  0  0  0
    1.3710   -2.2137    0.0011 H   0  0  0  0  0  0  0  0  0  0  0  0
    0.8991   -1.1889    1.4648 H   0  0  0  0  0  0  0  0  0  0  0  0
    3.4518   -0.5416    0.2656 H   0  0  0  0  0  0  0  0  0  0  0  0
    3.2449    1.2225   -0.2717 H   0  0  0  0  0  0  0  0  0  0  0  0
    0.3525    1.8127   -0.6962 H   0  0  0  0  0  0  0  0  0  0  0  0
    0.4996    1.3249    1.0011 H   0  0  0  0  0  0  0  0  0  0  0  0
  1  2  1  0
  2  3  1  0
  3  4  1  0
  4  5  1  0
  5  6  1  0
  6  7  1  0
  7  8  1  0
  6  9  1  0
  3  1  1  0
  8  6  1  0
  9  3  1  0
  1 10  1  0
  1 11  1  0
  2 12  1  0
  2 13  1  0
  4 14  1  0
  4 15  1  0
  5 16  1  0
  5 17  1  0
  7 18  1  0
  7 19  1  0
  9 20  1  0
  9 21  1  0
M  END
