
     RDKit          3D

 19 21  0  0  0  0  0  0  0  0999 V2000
   -2.3944   -0.2393    0.0988 C   0  0  0  0  0  0  0  0  0  0  0  0
   -1.2526   -0.2810    1.1271 C   0  0  0  0  0  0  0  0  0  0  0  0
   -0.3438    0.0608    0.0222 C   0  0  0  0  0  0  0  0  0  0  0  0
   -1.4544    0.6396   -0.7437 C   0  0  0  0  0  0  0  0  0  0  0  0
    0.8796    0.7222    0.2166 C   0  0  0  0  0  0  0  0  0  0  0  0
    2.0585    0.4214    0.8214 O   0  0  0  0  0  0  0  0  0  0  0  0
    2.7844   -0.1066   -0.2772 C   0  0  0  0  0  0  0  0  0  0  0  0
    1.8118   -0.5723   -1.1980 O   0  0  0  0  0  0  0  0  0  0  0  0
    0.7332   -0.7352   -0.3954 C   0  0  0  0  0  0  0  0  0  0  0  0
   -3.2946    0.2580    0.4508 H   0  0  0  0  0  0  0  0  0  0  0  0
   -2.5171   -1.2274   -0.3988 H   0  0  0  0  0  0  0  0  0  0  0  0
   -1.1438   -1.2364    1.6409 H   0  0  0  0  0  0  0  0  0  0  0  0
   -1.3683    0.5639    1.8680 H   0  0  0  0  0  0  0  0  0  0  0  0
   -1.5632    0.3934   -1.8111 H   0  0  0  0  0  0  0  0  0  0  0  0
   -1.7298    1.6943   -0.5712 H   0  0  0  0  0  0  0  0  0  0  0  0
    1.0655    1.5335   -0.5585 H   0  0  0  0  0  0  0  0  0  0  0  0
    3.4020    0.6862   -0.6950 H   0  0  0  0  0  0  0  0  0  0  0  0
    3.3700   -1.0011    0.0620 H   0  0  0  0  0  0  0  0  0  0  0  0
    0.9569   -1.5739    0.3411 H   0  0  0  0  0  0  0  0  0  0  0  0
  1  2  1  0
  2  3  1  0
  3  4  1  0
  3  5  1  0
  5  6  1  0
  6  7  1  0
  7  8  1  0
  8  9  1  0
  4  1  1  0
  9  5  1  0
  9  3  1  0
  1 10  1  0
  1 11  1  0
  2 12  1  0
  2 13  1  0
  4 14  1  0
  4 15  1  0
  5 16  1  0
  7 17  1  0
  7 18  1  0
  9 19  1  0
M  END
