
     RDKit          3D

 18 19  0  0  0  0  0  0  0  0999 V2000
    1.9240   -0.2565   -0.5682 C   0  0  0  0  0  0  0  0  0  0  0  0
    0.4996   -0.7110   -0.8993 C   0  0  0  0  0  0  0  0  0  0  0  0
   -0.3051    0.0154    0.1109 C   0  0  0  0  0  0  0  0  0  0  0  0
    0.6636    0.6830    1.0229 C   0  0  0  0  0  0  0  0  0  0  0  0
    1.9122    0.1282    0.7565 O   0  0  0  0  0  0  0  0  0  0  0  0
   -1.4644   -0.6911    0.7272 C   0  0  0  0  0  0  0  0  0  0  0  0
   -2.1100    0.5631    0.8111 O   0  0  0  0  0  0  0  0  0  0  0  0
   -1.4117    0.8939   -0.3748 C   0  0  0  0  0  0  0  0  0  0  0  0
    2.2496    0.5690   -1.2369 H   0  0  0  0  0  0  0  0  0  0  0  0
    2.6349   -1.0935   -0.6802 H   0  0  0  0  0  0  0  0  0  0  0  0
    0.2334   -0.5309   -1.9411 H   0  0  0  0  0  0  0  0  0  0  0  0
    0.4562   -1.8061   -0.6701 H   0  0  0  0  0  0  0  0  0  0  0  0
    0.7392    1.7717    0.7908 H   0  0  0  0  0  0  0  0  0  0  0  0
    0.3690    0.5122    2.0834 H   0  0  0  0  0  0  0  0  0  0  0  0
   -1.2518   -1.1654    1.6903 H   0  0  0  0  0  0  0  0  0  0  0  0
   -1.9477   -1.4030    0.0335 H   0  0  0  0  0  0  0  0  0  0  0  0
   -1.1983    1.9819   -0.4268 H   0  0  0  0  0  0  0  0  0  0  0  0
   -1.9925    0.5390   -1.2289 H   0  0  0  0  0  0  0  0  0  0  0  0
  1  2  1  0
  2  3  1  0
  3  4  1  0
  4  5  1  0
  3  6  1  0
  6  7  1  0
  7  8  1  0
  5  1  1  0
  8  3  1  0
  1  9  1  0
  1 10  1  0
  2 11  1  0
  2 12  1  0
  4 13  1  0
  4 14  1  0
  6 15  1  0
  6 16  1  0
  8 17  1  0
  8 18  1  0
M  END
