
     RDKit          3D

 23 25  0  0  0  0  0  0  0  0999 V2000
   -2.1870   -0.5780   -0.5697 C   0  0  0  0  0  0  0  0  0  0  0  0
   -2.3509    0.8250   -0.0227 C   0  0  0  0  0  0  0  0  0  0  0  0
   -1.0550    0.5467    0.7584 C   0  0  0  0  0  0  0  0  0  0  0  0
    0.2000    0.8795   -0.0177 C   0  0  0  0  0  0  0  0  0  0  0  0
    1.4415    0.6559    0.6710 C   0  0  0  0  0  0  0  0  0  0  0  0
    2.3189   -0.6036    0.6660 C   0  0  0  0  0  0  0  0  0  0  0  0
    2.5447   -0.0897   -0.7770 C   0  0  0  0  0  0  0  0  0  0  0  0
    1.0274   -0.0653   -0.6850 C   0  0  0  0  0  0  0  0  0  0  0  0
   -1.4951   -0.8981    0.7404 C   0  0  0  0  0  0  0  0  0  0  0  0
   -1.4600   -0.6328   -1.4033 H   0  0  0  0  0  0  0  0  0  0  0  0
   -3.1345   -1.1249   -0.7349 H   0  0  0  0  0  0  0  0  0  0  0  0
   -2.2548    1.6400   -0.7542 H   0  0  0  0  0  0  0  0  0  0  0  0
   -3.2078    0.8787    0.6757 H   0  0  0  0  0  0  0  0  0  0  0  0
   -1.1106    1.0202    1.7646 H   0  0  0  0  0  0  0  0  0  0  0  0
    0.0294    1.8282   -0.6285 H   0  0  0  0  0  0  0  0  0  0  0  0
    2.1670    1.5196    0.5182 H   0  0  0  0  0  0  0  0  0  0  0  0
    3.1767   -0.5027    1.3214 H   0  0  0  0  0  0  0  0  0  0  0  0
    1.7831   -1.5498    0.6462 H   0  0  0  0  0  0  0  0  0  0  0  0
    2.9066   -0.8408   -1.4733 H   0  0  0  0  0  0  0  0  0  0  0  0
    2.9676    0.9156   -0.8281 H   0  0  0  0  0  0  0  0  0  0  0  0
    0.7022   -1.1325   -0.5538 H   0  0  0  0  0  0  0  0  0  0  0  0
   -0.7307   -1.6711    0.7299 H   0  0  0  0  0  0  0  0  0  0  0  0
   -2.2788   -1.0201    1.5435 H   0  0  0  0  0  0  0  0  0  0  0  0
  1  2  1  0
  2  3  1  0
  3  4  1  0
  4  5  1  0
  5  6  1  0
  6  7  1  0
  7  8  1  0
  3  9  1  0
  9  1  1  0
  8  4  1  0
  8  5  1  0
  1 10  1  0
  1 11  1  0
  2 12  1  0
  2 13  1  0
  3 14  1  0
  4 15  1  0
  5 16  1  0
  6 17  1  0
  6 18  1  0
  7 19  1  0
  7 20  1  0
  8 21  1  0
  9 22  1  0
  9 23  1  0
M  END
