
     RDKit          3D

 17 18  0  0  0  0  0  0  0  0999 V2000
   -2.1289   -0.8168   -0.0604 C   0  0  0  0  0  0  0  0  0  0  0  0
   -2.3514    0.5496   -0.1615 C   0  0  0  0  0  0  0  0  0  0  0  0
   -1.2400    1.3591   -0.0898 C   0  0  0  0  0  0  0  0  0  0  0  0
    0.0454    0.8719    0.0740 C   0  0  0  0  0  0  0  0  0  0  0  0
    0.2329   -0.4867    0.1711 C   0  0  0  0  0  0  0  0  0  0  0  0
   -0.8598   -1.3225    0.1028 C   0  0  0  0  0  0  0  0  0  0  0  0
    1.6973   -0.6890    0.3395 C   0  0  0  0  0  0  0  0  0  0  0  0
    2.2642    0.5730   -0.2743 C   0  0  0  0  0  0  0  0  0  0  0  0
    1.2955    1.5200    0.1693 O   0  0  0  0  0  0  0  0  0  0  0  0
   -2.9728   -1.4961   -0.1112 H   0  0  0  0  0  0  0  0  0  0  0  0
   -3.3524    0.9469   -0.2901 H   0  0  0  0  0  0  0  0  0  0  0  0
   -1.3941    2.4330   -0.1671 H   0  0  0  0  0  0  0  0  0  0  0  0
   -0.6951   -2.4019    0.1815 H   0  0  0  0  0  0  0  0  0  0  0  0
    1.8914   -0.6182    1.4391 H   0  0  0  0  0  0  0  0  0  0  0  0
    2.0702   -1.6054   -0.1134 H   0  0  0  0  0  0  0  0  0  0  0  0
    3.2547    0.7383    0.1555 H   0  0  0  0  0  0  0  0  0  0  0  0
    2.2428    0.4447   -1.3647 H   0  0  0  0  0  0  0  0  0  0  0  0
  1  2  2  0
  2  3  1  0
  3  4  2  0
  4  5  1  0
  5  6  2  0
  5  7  1  0
  7  8  1  0
  8  9  1  0
  6  1  1  0
  9  4  1  0
  1 10  1  0
  2 11  1  0
  3 12  1  0
  6 13  1  0
  7 14  1  0
  7 15  1  0
  8 16  1  0
  8 17  1  0
M  END
