
     RDKit          3D

 21 22  0  0  0  0  0  0  0  0999 V2000
   -3.1772   -0.8749    0.4219 C   0  0  0  0  0  0  0  0  0  0  0  0
   -2.9925    0.5893    0.5747 C   0  0  0  0  0  0  0  0  0  0  0  0
   -1.7904   -0.3584    0.6939 C   0  0  0  0  0  0  0  0  0  0  0  0
   -0.7962   -0.3501   -0.4440 C   0  0  0  0  0  0  0  0  0  0  0  0
    0.3966    0.1638    0.0468 O   0  0  0  0  0  0  0  0  0  0  0  0
    1.3812    0.2074   -0.9493 C   0  0  0  0  0  0  0  0  0  0  0  0
    2.6269    0.7904   -0.2663 C   0  0  0  0  0  0  0  0  0  0  0  0
    3.8543    0.0629   -0.3535 C   0  0  0  0  0  0  0  0  0  0  0  0
    3.0947   -0.0007    0.8444 O   0  0  0  0  0  0  0  0  0  0  0  0
   -3.6670   -1.4578    1.2280 H   0  0  0  0  0  0  0  0  0  0  0  0
   -3.4311   -1.2296   -0.6192 H   0  0  0  0  0  0  0  0  0  0  0  0
   -3.0322    1.2143   -0.3412 H   0  0  0  0  0  0  0  0  0  0  0  0
   -3.2616    1.1146    1.5213 H   0  0  0  0  0  0  0  0  0  0  0  0
   -1.3986   -0.5393    1.7313 H   0  0  0  0  0  0  0  0  0  0  0  0
   -1.1338    0.3663   -1.2433 H   0  0  0  0  0  0  0  0  0  0  0  0
   -0.6888   -1.3254   -0.9378 H   0  0  0  0  0  0  0  0  0  0  0  0
    1.6384   -0.8220   -1.3011 H   0  0  0  0  0  0  0  0  0  0  0  0
    1.1037    0.8814   -1.7765 H   0  0  0  0  0  0  0  0  0  0  0  0
    2.5776    1.8578   -0.0106 H   0  0  0  0  0  0  0  0  0  0  0  0
    4.8196    0.6224   -0.3121 H   0  0  0  0  0  0  0  0  0  0  0  0
    3.8764   -0.9125   -0.8695 H   0  0  0  0  0  0  0  0  0  0  0  0
  1  2  1  0
  2  3  1  0
  3  4  1  0
  4  5  1  0
  5  6  1  0
  6  7  1  0
  7  8  1  0
  8  9  1  0
  3  1  1  0
  9  7  1  0
  1 10  1  0
  1 11  1  0
  2 12  1  0
  2 13  1  0
  3 14  1  0
  4 15  1  0
  4 16  1  0
  6 17  1  0
  6 18  1  0
  7 19  1  0
  8 20  1  0
  8 21  1  0
M  END
