
     RDKit          3D

 21 23  0  0  0  0  0  0  0  0999 V2000
   -1.7154   -0.3870    0.2273 C   0  0  0  0  0  0  0  0  0  0  0  0
   -1.1719   -0.2765   -1.1466 C   0  0  0  0  0  0  0  0  0  0  0  0
    0.3138    0.1041   -1.1452 C   0  0  0  0  0  0  0  0  0  0  0  0
    0.3590    1.4487   -0.4012 C   0  0  0  0  0  0  0  0  0  0  0  0
    0.4728    0.5995    0.8733 C   0  0  0  0  0  0  0  0  0  0  0  0
   -0.9309    0.2747    1.2942 C   0  0  0  0  0  0  0  0  0  0  0  0
    1.0513   -0.4797   -0.0110 C   0  0  0  0  0  0  0  0  0  0  0  0
    2.2848   -1.0208    0.1347 C   0  0  0  0  0  0  0  0  0  0  0  0
    1.0091   -1.7915    0.3426 O   0  0  0  0  0  0  0  0  0  0  0  0
   -2.7679    0.0214    0.2088 H   0  0  0  0  0  0  0  0  0  0  0  0
   -1.8450   -1.4638    0.4948 H   0  0  0  0  0  0  0  0  0  0  0  0
   -1.3557   -1.1850   -1.7475 H   0  0  0  0  0  0  0  0  0  0  0  0
   -1.6875    0.5560   -1.7046 H   0  0  0  0  0  0  0  0  0  0  0  0
    0.7495    0.1115   -2.1364 H   0  0  0  0  0  0  0  0  0  0  0  0
    1.2303    2.0590   -0.6251 H   0  0  0  0  0  0  0  0  0  0  0  0
   -0.5846    2.0216   -0.4570 H   0  0  0  0  0  0  0  0  0  0  0  0
    1.1150    1.0064    1.6463 H   0  0  0  0  0  0  0  0  0  0  0  0
   -0.8598   -0.3666    2.2168 H   0  0  0  0  0  0  0  0  0  0  0  0
   -1.4329    1.2361    1.5714 H   0  0  0  0  0  0  0  0  0  0  0  0
    2.8813   -1.4899   -0.7023 H   0  0  0  0  0  0  0  0  0  0  0  0
    2.8848   -0.9784    1.0669 H   0  0  0  0  0  0  0  0  0  0  0  0
  1  2  1  0
  2  3  1  0
  3  4  1  0
  4  5  1  0
  5  6  1  0
  5  7  1  0
  7  8  1  0
  8  9  1  0
  6  1  1  0
  9  7  1  0
  7  3  1  0
  1 10  1  0
  1 11  1  0
  2 12  1  0
  2 13  1  0
  3 14  1  0
  4 15  1  0
  4 16  1  0
  5 17  1  0
  6 18  1  0
  6 19  1  0
  8 20  1  0
  8 21  1  0
M  END
