
     RDKit          3D

 21 23  0  0  0  0  0  0  0  0999 V2000
   -2.0481   -0.1102    0.9116 C   0  0  0  0  0  0  0  0  0  0  0  0
   -1.5641    0.8337   -0.1992 C   0  0  0  0  0  0  0  0  0  0  0  0
   -0.4833    0.0295   -0.8280 C   0  0  0  0  0  0  0  0  0  0  0  0
    0.8443    0.6880   -0.9070 C   0  0  0  0  0  0  0  0  0  0  0  0
    1.7770   -0.5330   -0.9627 C   0  0  0  0  0  0  0  0  0  0  0  0
    1.2835   -0.7543    0.4456 C   0  0  0  0  0  0  0  0  0  0  0  0
    1.2805    0.7792    0.5498 C   0  0  0  0  0  0  0  0  0  0  0  0
   -0.1823   -1.0169    0.2661 C   0  0  0  0  0  0  0  0  0  0  0  0
   -0.8400   -0.5796    1.3970 O   0  0  0  0  0  0  0  0  0  0  0  0
   -2.6659    0.4018    1.6479 H   0  0  0  0  0  0  0  0  0  0  0  0
   -2.5553   -0.9684    0.4225 H   0  0  0  0  0  0  0  0  0  0  0  0
   -1.2459    1.7985    0.2075 H   0  0  0  0  0  0  0  0  0  0  0  0
   -2.4507    0.9316   -0.8925 H   0  0  0  0  0  0  0  0  0  0  0  0
   -0.7540   -0.4641   -1.7724 H   0  0  0  0  0  0  0  0  0  0  0  0
    1.0459    1.4938   -1.5557 H   0  0  0  0  0  0  0  0  0  0  0  0
    2.8368   -0.2362   -1.0576 H   0  0  0  0  0  0  0  0  0  0  0  0
    1.4140   -1.2810   -1.7020 H   0  0  0  0  0  0  0  0  0  0  0  0
    1.8607   -1.2980    1.1370 H   0  0  0  0  0  0  0  0  0  0  0  0
    2.3269    1.1141    0.6337 H   0  0  0  0  0  0  0  0  0  0  0  0
    0.5509    1.1921    1.2418 H   0  0  0  0  0  0  0  0  0  0  0  0
   -0.4307   -2.0206   -0.0601 H   0  0  0  0  0  0  0  0  0  0  0  0
  1  2  1  0
  2  3  1  0
  3  4  1  0
  4  5  1  0
  5  6  1  0
  6  7  1  0
  6  8  1  0
  8  9  1  0
  9  1  1  0
  8  3  1  0
  7  4  1  0
  1 10  1  0
  1 11  1  0
  2 12  1  0
  2 13  1  0
  3 14  1  0
  4 15  1  0
  5 16  1  0
  5 17  1  0
  6 18  1  0
  7 19  1  0
  7 20  1  0
  8 21  1  0
M  END
