
     RDKit          3D

 19 21  0  0  0  0  0  0  0  0999 V2000
    1.1075    1.0216   -0.0011 C   0  0  0  0  0  0  0  0  0  0  0  0
    1.4379   -0.4243   -0.3669 C   0  0  0  0  0  0  0  0  0  0  0  0
    0.3381   -1.2590    0.3075 C   0  0  0  0  0  0  0  0  0  0  0  0
    0.1985   -0.6622    1.5861 O   0  0  0  0  0  0  0  0  0  0  0  0
   -0.8333    0.2613    1.2943 C   0  0  0  0  0  0  0  0  0  0  0  0
   -1.7790   -0.6605    0.7738 O   0  0  0  0  0  0  0  0  0  0  0  0
   -0.9905   -1.0588   -0.3345 C   0  0  0  0  0  0  0  0  0  0  0  0
   -0.9613    0.2967   -1.0506 C   0  0  0  0  0  0  0  0  0  0  0  0
   -0.3991    1.1106    0.1283 C   0  0  0  0  0  0  0  0  0  0  0  0
    1.5216    1.2298    1.0146 H   0  0  0  0  0  0  0  0  0  0  0  0
    1.5265    1.7184   -0.7265 H   0  0  0  0  0  0  0  0  0  0  0  0
    2.3989   -0.7199    0.1363 H   0  0  0  0  0  0  0  0  0  0  0  0
    1.4556   -0.6042   -1.4357 H   0  0  0  0  0  0  0  0  0  0  0  0
    0.6364   -2.3069    0.4177 H   0  0  0  0  0  0  0  0  0  0  0  0
   -1.1890    0.7969    2.1534 H   0  0  0  0  0  0  0  0  0  0  0  0
   -1.3988   -1.8545   -0.9058 H   0  0  0  0  0  0  0  0  0  0  0  0
   -0.3060    0.3062   -1.9126 H   0  0  0  0  0  0  0  0  0  0  0  0
   -1.9825    0.6804   -1.2214 H   0  0  0  0  0  0  0  0  0  0  0  0
   -0.7816    2.1285    0.1429 H   0  0  0  0  0  0  0  0  0  0  0  0
  1  2  1  0
  2  3  1  0
  3  4  1  0
  4  5  1  0
  5  6  1  0
  6  7  1  0
  7  8  1  0
  8  9  1  0
  9  1  1  0
  7  3  1  0
  9  5  1  0
  1 10  1  0
  1 11  1  0
  2 12  1  0
  2 13  1  0
  3 14  1  0
  5 15  1  0
  7 16  1  0
  8 17  1  0
  8 18  1  0
  9 19  1  0
M  END
