
     RDKit          3D

 21 23  0  0  0  0  0  0  0  0999 V2000
   -0.7714    1.2828   -0.2428 C   0  0  0  0  0  0  0  0  0  0  0  0
   -1.5539    0.5507    0.7689 C   0  0  0  0  0  0  0  0  0  0  0  0
   -1.5731   -0.9452    0.6093 C   0  0  0  0  0  0  0  0  0  0  0  0
   -1.7386   -1.4831   -0.6599 O   0  0  0  0  0  0  0  0  0  0  0  0
   -0.4638   -1.5619    0.1073 C   0  0  0  0  0  0  0  0  0  0  0  0
    0.5797   -0.8192   -0.6281 C   0  0  0  0  0  0  0  0  0  0  0  0
    1.8301   -0.5525    0.1823 C   0  0  0  0  0  0  0  0  0  0  0  0
    1.6816    0.9117   -0.1764 C   0  0  0  0  0  0  0  0  0  0  0  0
    0.3627    0.5979   -0.8785 C   0  0  0  0  0  0  0  0  0  0  0  0
   -1.4891    1.6743   -1.0243 H   0  0  0  0  0  0  0  0  0  0  0  0
   -0.3842    2.2292    0.2423 H   0  0  0  0  0  0  0  0  0  0  0  0
   -2.6360    0.8718    0.7505 H   0  0  0  0  0  0  0  0  0  0  0  0
   -1.2238    0.7609    1.8154 H   0  0  0  0  0  0  0  0  0  0  0  0
   -2.2153   -1.4372    1.3767 H   0  0  0  0  0  0  0  0  0  0  0  0
   -0.1913   -2.6275    0.3385 H   0  0  0  0  0  0  0  0  0  0  0  0
    0.8474   -1.3728   -1.5772 H   0  0  0  0  0  0  0  0  0  0  0  0
    2.7301   -1.0330   -0.2213 H   0  0  0  0  0  0  0  0  0  0  0  0
    1.7093   -0.7596    1.2606 H   0  0  0  0  0  0  0  0  0  0  0  0
    1.5414    1.5471    0.7347 H   0  0  0  0  0  0  0  0  0  0  0  0
    2.4895    1.2556   -0.8198 H   0  0  0  0  0  0  0  0  0  0  0  0
    0.4688    0.9102   -1.9585 H   0  0  0  0  0  0  0  0  0  0  0  0
  1  2  1  0
  2  3  1  0
  3  4  1  0
  4  5  1  0
  5  6  1  0
  6  7  1  0
  7  8  1  0
  8  9  1  0
  9  1  1  0
  5  3  1  0
  9  6  1  0
  1 10  1  0
  1 11  1  0
  2 12  1  0
  2 13  1  0
  3 14  1  0
  5 15  1  0
  6 16  1  0
  7 17  1  0
  7 18  1  0
  8 19  1  0
  8 20  1  0
  9 21  1  0
M  END
