
     RDKit          3D

 19 21  0  0  0  0  0  0  0  0999 V2000
   -1.5245    0.5623    0.3664 C   0  0  0  0  0  0  0  0  0  0  0  0
   -1.1741   -0.9228    0.2007 C   0  0  0  0  0  0  0  0  0  0  0  0
    0.3325   -0.8439    0.1850 C   0  0  0  0  0  0  0  0  0  0  0  0
    1.1968   -1.9916    0.0995 C   0  0  0  0  0  0  0  0  0  0  0  0
    1.0693   -1.2457    1.2708 O   0  0  0  0  0  0  0  0  0  0  0  0
    0.6550    0.3962   -0.5764 C   0  0  0  0  0  0  0  0  0  0  0  0
    0.9923    1.6190    0.2134 C   0  0  0  0  0  0  0  0  0  0  0  0
   -0.0422    2.3559   -0.3853 O   0  0  0  0  0  0  0  0  0  0  0  0
   -0.6351    1.1594   -0.7238 C   0  0  0  0  0  0  0  0  0  0  0  0
   -2.5783    0.7498    0.1765 H   0  0  0  0  0  0  0  0  0  0  0  0
   -1.1409    0.9107    1.3328 H   0  0  0  0  0  0  0  0  0  0  0  0
   -1.5830   -1.5212    1.0143 H   0  0  0  0  0  0  0  0  0  0  0  0
   -1.5651   -1.2695   -0.7767 H   0  0  0  0  0  0  0  0  0  0  0  0
    2.1923   -1.8721   -0.3876 H   0  0  0  0  0  0  0  0  0  0  0  0
    0.7043   -3.0032    0.0550 H   0  0  0  0  0  0  0  0  0  0  0  0
    1.2448    0.2442   -1.4881 H   0  0  0  0  0  0  0  0  0  0  0  0
    1.9634    2.0517   -0.1401 H   0  0  0  0  0  0  0  0  0  0  0  0
    0.9179    1.5534    1.3074 H   0  0  0  0  0  0  0  0  0  0  0  0
   -1.0252    1.0677   -1.7437 H   0  0  0  0  0  0  0  0  0  0  0  0
  1  2  1  0
  2  3  1  0
  3  4  1  0
  4  5  1  0
  3  6  1  0
  6  7  1  0
  7  8  1  0
  8  9  1  0
  9  1  1  0
  5  3  1  0
  9  6  1  0
  1 10  1  0
  1 11  1  0
  2 12  1  0
  2 13  1  0
  4 14  1  0
  4 15  1  0
  6 16  1  0
  7 17  1  0
  7 18  1  0
  9 19  1  0
M  END
