
     RDKit          3D

 21 23  0  0  0  0  0  0  0  0999 V2000
   -1.5383    0.0326    0.4402 C   0  0  0  0  0  0  0  0  0  0  0  0
   -1.0575    1.3876    0.0007 C   0  0  0  0  0  0  0  0  0  0  0  0
    0.0004    1.1962   -1.0297 C   0  0  0  0  0  0  0  0  0  0  0  0
    1.2826    0.5364   -0.7407 C   0  0  0  0  0  0  0  0  0  0  0  0
    1.7096    0.1690    0.6485 C   0  0  0  0  0  0  0  0  0  0  0  0
    1.5387   -1.1598    0.9604 O   0  0  0  0  0  0  0  0  0  0  0  0
    0.2676   -1.6363    0.8553 C   0  0  0  0  0  0  0  0  0  0  0  0
   -0.5876   -0.9864   -0.1739 C   0  0  0  0  0  0  0  0  0  0  0  0
    0.1536   -0.2673   -1.2488 C   0  0  0  0  0  0  0  0  0  0  0  0
   -2.5765   -0.1843    0.1202 H   0  0  0  0  0  0  0  0  0  0  0  0
   -1.5328   -0.0084    1.5411 H   0  0  0  0  0  0  0  0  0  0  0  0
   -0.7459    2.0094    0.8667 H   0  0  0  0  0  0  0  0  0  0  0  0
   -1.9325    1.9043   -0.4633 H   0  0  0  0  0  0  0  0  0  0  0  0
   -0.0799    1.8191   -1.9425 H   0  0  0  0  0  0  0  0  0  0  0  0
    2.1000    0.7102   -1.4913 H   0  0  0  0  0  0  0  0  0  0  0  0
    2.8106    0.3810    0.7463 H   0  0  0  0  0  0  0  0  0  0  0  0
    1.2377    0.8552    1.4102 H   0  0  0  0  0  0  0  0  0  0  0  0
    0.3427   -2.7452    0.6489 H   0  0  0  0  0  0  0  0  0  0  0  0
   -0.3007   -1.5937    1.8316 H   0  0  0  0  0  0  0  0  0  0  0  0
   -1.2047   -1.7847   -0.6795 H   0  0  0  0  0  0  0  0  0  0  0  0
    0.1130   -0.6349   -2.3005 H   0  0  0  0  0  0  0  0  0  0  0  0
  1  2  1  0
  2  3  1  0
  3  4  1  0
  4  5  1  0
  5  6  1  0
  6  7  1  0
  7  8  1  0
  8  9  1  0
  8  1  1  0
  9  3  1  0
  9  4  1  0
  1 10  1  0
  1 11  1  0
  2 12  1  0
  2 13  1  0
  3 14  1  0
  4 15  1  0
  5 16  1  0
  5 17  1  0
  7 18  1  0
  7 19  1  0
  8 20  1  0
  9 21  1  0
M  END
