
     RDKit          3D

 22 23  0  0  0  0  0  0  0  0999 V2000
   -1.5285    0.2930   -0.7873 C   0  0  0  0  0  0  0  0  0  0  0  0
   -1.2313    1.2285    0.3925 C   0  0  0  0  0  0  0  0  0  0  0  0
    0.0546    0.6121    0.9052 C   0  0  0  0  0  0  0  0  0  0  0  0
    1.2101    1.0869    0.0819 C   0  0  0  0  0  0  0  0  0  0  0  0
    1.7417   -0.0873   -0.6876 C   0  0  0  0  0  0  0  0  0  0  0  0
    1.1164   -1.3254   -0.0971 C   0  0  0  0  0  0  0  0  0  0  0  0
   -0.0853   -0.8739    0.6843 C   0  0  0  0  0  0  0  0  0  0  0  0
   -1.3771   -1.0529   -0.0994 C   0  0  0  0  0  0  0  0  0  0  0  0
   -2.5644    0.3938   -1.1388 H   0  0  0  0  0  0  0  0  0  0  0  0
   -0.7930    0.4656   -1.5727 H   0  0  0  0  0  0  0  0  0  0  0  0
   -1.1221    2.2544    0.0475 H   0  0  0  0  0  0  0  0  0  0  0  0
   -1.9966    1.1261    1.1792 H   0  0  0  0  0  0  0  0  0  0  0  0
    0.2079    0.7940    1.9875 H   0  0  0  0  0  0  0  0  0  0  0  0
    0.9424    1.9437   -0.5875 H   0  0  0  0  0  0  0  0  0  0  0  0
    1.9789    1.4985    0.7831 H   0  0  0  0  0  0  0  0  0  0  0  0
    2.8539   -0.0793   -0.5705 H   0  0  0  0  0  0  0  0  0  0  0  0
    1.5525   -0.0009   -1.7767 H   0  0  0  0  0  0  0  0  0  0  0  0
    0.8731   -2.0875   -0.8593 H   0  0  0  0  0  0  0  0  0  0  0  0
    1.8800   -1.7609    0.5988 H   0  0  0  0  0  0  0  0  0  0  0  0
   -0.1526   -1.4369    1.6496 H   0  0  0  0  0  0  0  0  0  0  0  0
   -1.3515   -1.8951   -0.7834 H   0  0  0  0  0  0  0  0  0  0  0  0
   -2.2093   -1.0966    0.6506 H   0  0  0  0  0  0  0  0  0  0  0  0
  1  2  1  0
  2  3  1  0
  3  4  1  0
  4  5  1  0
  5  6  1  0
  6  7  1  0
  7  8  1  0
  8  1  1  0
  7  3  1  0
  1  9  1  0
  1 10  1  0
  2 11  1  0
  2 12  1  0
  3 13  1  0
  4 14  1  0
  4 15  1  0
  5 16  1  0
  5 17  1  0
  6 18  1  0
  6 19  1  0
  7 20  1  0
  8 21  1  0
  8 22  1  0
M  END
