
     RDKit          3D

 21 22  0  0  0  0  0  0  0  0999 V2000
   -1.7628    0.3731    0.7371 C   0  0  0  0  0  0  0  0  0  0  0  0
   -1.3940   -0.9052    0.0523 C   0  0  0  0  0  0  0  0  0  0  0  0
    0.0214   -0.8517   -0.5383 C   0  0  0  0  0  0  0  0  0  0  0  0
    1.0289   -1.3398    0.4443 C   0  0  0  0  0  0  0  0  0  0  0  0
    1.2770   -0.4958    1.4970 O   0  0  0  0  0  0  0  0  0  0  0  0
    1.5893    0.8027    1.0993 C   0  0  0  0  0  0  0  0  0  0  0  0
    0.3172    1.3479    0.4339 C   0  0  0  0  0  0  0  0  0  0  0  0
    0.2199    0.6201   -0.9007 C   0  0  0  0  0  0  0  0  0  0  0  0
   -0.7182    1.0642    1.2808 O   0  0  0  0  0  0  0  0  0  0  0  0
   -2.3828    1.0535    0.1060 H   0  0  0  0  0  0  0  0  0  0  0  0
   -2.4465    0.0908    1.5920 H   0  0  0  0  0  0  0  0  0  0  0  0
   -1.5578   -1.8008    0.6500 H   0  0  0  0  0  0  0  0  0  0  0  0
   -2.0652   -0.9880   -0.8532 H   0  0  0  0  0  0  0  0  0  0  0  0
    0.0998   -1.4149   -1.4697 H   0  0  0  0  0  0  0  0  0  0  0  0
    1.9648   -1.6212   -0.1035 H   0  0  0  0  0  0  0  0  0  0  0  0
    0.6208   -2.2922    0.8869 H   0  0  0  0  0  0  0  0  0  0  0  0
    2.4416    0.8060    0.3989 H   0  0  0  0  0  0  0  0  0  0  0  0
    1.8024    1.3919    2.0144 H   0  0  0  0  0  0  0  0  0  0  0  0
    0.4874    2.4152    0.2599 H   0  0  0  0  0  0  0  0  0  0  0  0
   -0.6901    0.9748   -1.4154 H   0  0  0  0  0  0  0  0  0  0  0  0
    1.1468    0.7694   -1.4574 H   0  0  0  0  0  0  0  0  0  0  0  0
  1  2  1  0
  2  3  1  0
  3  4  1  0
  4  5  1  0
  5  6  1  0
  6  7  1  0
  7  8  1  0
  7  9  1  0
  9  1  1  0
  8  3  1  0
  1 10  1  0
  1 11  1  0
  2 12  1  0
  2 13  1  0
  3 14  1  0
  4 15  1  0
  4 16  1  0
  6 17  1  0
  6 18  1  0
  7 19  1  0
  8 20  1  0
  8 21  1  0
M  END
