
     RDKit          3D

 17 19  0  0  0  0  0  0  0  0999 V2000
   -1.9262    0.6782    0.3339 C   0  0  0  0  0  0  0  0  0  0  0  0
   -1.4157   -0.6781   -0.1771 C   0  0  0  0  0  0  0  0  0  0  0  0
    0.0140   -0.4872   -0.2293 C   0  0  0  0  0  0  0  0  0  0  0  0
    0.6061   -0.9256    1.0902 O   0  0  0  0  0  0  0  0  0  0  0  0
    1.2032   -1.0484   -0.2683 C   0  0  0  0  0  0  0  0  0  0  0  0
    2.2311    0.0994   -0.3598 C   0  0  0  0  0  0  0  0  0  0  0  0
    1.4862    1.1785    0.1145 O   0  0  0  0  0  0  0  0  0  0  0  0
    0.1859    1.0369   -0.3101 C   0  0  0  0  0  0  0  0  0  0  0  0
   -0.7669    1.4231    0.6176 O   0  0  0  0  0  0  0  0  0  0  0  0
   -2.4702    0.5617    1.2934 H   0  0  0  0  0  0  0  0  0  0  0  0
   -2.5835    1.1690   -0.3862 H   0  0  0  0  0  0  0  0  0  0  0  0
   -1.8034   -1.4499    0.5236 H   0  0  0  0  0  0  0  0  0  0  0  0
   -1.9185   -0.9112   -1.1604 H   0  0  0  0  0  0  0  0  0  0  0  0
    1.5378   -2.0605   -0.4963 H   0  0  0  0  0  0  0  0  0  0  0  0
    3.0315   -0.1863    0.3551 H   0  0  0  0  0  0  0  0  0  0  0  0
    2.6002    0.2292   -1.3773 H   0  0  0  0  0  0  0  0  0  0  0  0
   -0.0116    1.3712   -1.3257 H   0  0  0  0  0  0  0  0  0  0  0  0
  1  2  1  0
  2  3  1  0
  3  4  1  0
  4  5  1  0
  5  6  1  0
  6  7  1  0
  7  8  1  0
  8  9  1  0
  9  1  1  0
  5  3  1  0
  8  3  1  0
  1 10  1  0
  1 11  1  0
  2 12  1  0
  2 13  1  0
  5 14  1  0
  6 15  1  0
  6 16  1  0
  8 17  1  0
M  END
