
     RDKit          3D

 21 23  0  0  0  0  0  0  0  0999 V2000
    1.6589   -0.5669    0.7128 C   0  0  0  0  0  0  0  0  0  0  0  0
    1.5859   -0.1400   -0.7340 C   0  0  0  0  0  0  0  0  0  0  0  0
    0.1960    0.4547   -0.9723 C   0  0  0  0  0  0  0  0  0  0  0  0
    0.1747    1.7266   -0.1068 C   0  0  0  0  0  0  0  0  0  0  0  0
   -0.1943    0.7710    1.0358 C   0  0  0  0  0  0  0  0  0  0  0  0
    0.9811    0.2539    1.5715 O   0  0  0  0  0  0  0  0  0  0  0  0
   -0.7724   -0.1129   -0.0228 C   0  0  0  0  0  0  0  0  0  0  0  0
   -1.1882   -1.4677    0.1462 C   0  0  0  0  0  0  0  0  0  0  0  0
   -2.1800   -0.3345   -0.2413 C   0  0  0  0  0  0  0  0  0  0  0  0
    2.7525   -0.5518    0.9817 H   0  0  0  0  0  0  0  0  0  0  0  0
    1.2396   -1.5886    0.7685 H   0  0  0  0  0  0  0  0  0  0  0  0
    2.3021    0.7089   -0.9323 H   0  0  0  0  0  0  0  0  0  0  0  0
    1.7275   -0.9630   -1.4319 H   0  0  0  0  0  0  0  0  0  0  0  0
   -0.0819    0.6004   -2.0104 H   0  0  0  0  0  0  0  0  0  0  0  0
   -0.6215    2.4123   -0.4058 H   0  0  0  0  0  0  0  0  0  0  0  0
    1.1534    2.1674    0.0803 H   0  0  0  0  0  0  0  0  0  0  0  0
   -0.9274    1.1431    1.7374 H   0  0  0  0  0  0  0  0  0  0  0  0
   -1.3321   -1.8426    1.2025 H   0  0  0  0  0  0  0  0  0  0  0  0
   -1.0507   -2.2687   -0.6043 H   0  0  0  0  0  0  0  0  0  0  0  0
   -2.5303   -0.3888   -1.3121 H   0  0  0  0  0  0  0  0  0  0  0  0
   -2.8930   -0.0127    0.5371 H   0  0  0  0  0  0  0  0  0  0  0  0
  1  2  1  0
  2  3  1  0
  3  4  1  0
  4  5  1  0
  5  6  1  0
  5  7  1  0
  7  8  1  0
  8  9  1  0
  6  1  1  0
  9  7  1  0
  7  3  1  0
  1 10  1  0
  1 11  1  0
  2 12  1  0
  2 13  1  0
  3 14  1  0
  4 15  1  0
  4 16  1  0
  5 17  1  0
  8 18  1  0
  8 19  1  0
  9 20  1  0
  9 21  1  0
M  END
