
     RDKit          3D

 20 22  0  0  0  0  0  0  0  0999 V2000
    1.2450    1.3622    0.0761 C   0  0  0  0  0  0  0  0  0  0  0  0
   -0.2996    1.3708    0.0200 C   0  0  0  0  0  0  0  0  0  0  0  0
   -0.6595   -0.1225   -0.0090 C   0  0  0  0  0  0  0  0  0  0  0  0
   -1.9625   -0.5351    0.6660 C   0  0  0  0  0  0  0  0  0  0  0  0
   -1.6973   -0.6796   -0.8019 C   0  0  0  0  0  0  0  0  0  0  0  0
    0.5695   -0.7144    0.5164 C   0  0  0  0  0  0  0  0  0  0  0  0
    1.7460   -1.2555   -0.0369 C   0  0  0  0  0  0  0  0  0  0  0  0
    1.5055    0.0330   -0.5243 C   0  0  0  0  0  0  0  0  0  0  0  0
    1.5879    1.4989    1.1075 H   0  0  0  0  0  0  0  0  0  0  0  0
    1.5730    2.1994   -0.5662 H   0  0  0  0  0  0  0  0  0  0  0  0
   -0.6832    1.8073    0.9518 H   0  0  0  0  0  0  0  0  0  0  0  0
   -0.6519    1.8778   -0.8797 H   0  0  0  0  0  0  0  0  0  0  0  0
   -1.9160   -1.4725    1.2649 H   0  0  0  0  0  0  0  0  0  0  0  0
   -2.6092    0.2550    1.0613 H   0  0  0  0  0  0  0  0  0  0  0  0
   -1.5745   -1.7158   -1.2037 H   0  0  0  0  0  0  0  0  0  0  0  0
   -2.2530   -0.0341   -1.5309 H   0  0  0  0  0  0  0  0  0  0  0  0
    0.6930   -0.3660    1.5938 H   0  0  0  0  0  0  0  0  0  0  0  0
    1.6342   -2.1490   -0.7198 H   0  0  0  0  0  0  0  0  0  0  0  0
    2.6552   -1.4306    0.6004 H   0  0  0  0  0  0  0  0  0  0  0  0
    1.0975    0.0706   -1.5860 H   0  0  0  0  0  0  0  0  0  0  0  0
  1  2  1  0
  2  3  1  0
  3  4  1  0
  4  5  1  0
  3  6  1  0
  6  7  1  0
  7  8  1  0
  8  1  1  0
  5  3  1  0
  8  6  1  0
  1  9  1  0
  1 10  1  0
  2 11  1  0
  2 12  1  0
  4 13  1  0
  4 14  1  0
  5 15  1  0
  5 16  1  0
  6 17  1  0
  7 18  1  0
  7 19  1  0
  8 20  1  0
M  END
