
     RDKit          3D

 19 21  0  0  0  0  0  0  0  0999 V2000
    0.8219    1.4972    0.1718 C   0  0  0  0  0  0  0  0  0  0  0  0
    1.6685    0.2472    0.2060 C   0  0  0  0  0  0  0  0  0  0  0  0
    0.7166   -0.9490    0.2437 C   0  0  0  0  0  0  0  0  0  0  0  0
   -0.0895   -0.6689    1.3648 O   0  0  0  0  0  0  0  0  0  0  0  0
   -1.1288    0.0458    0.7590 C   0  0  0  0  0  0  0  0  0  0  0  0
   -1.5564   -1.0640   -0.2241 C   0  0  0  0  0  0  0  0  0  0  0  0
   -0.2030   -0.9578   -0.9609 C   0  0  0  0  0  0  0  0  0  0  0  0
   -0.3510    0.3325   -1.4369 O   0  0  0  0  0  0  0  0  0  0  0  0
   -0.5855    1.0398   -0.2472 C   0  0  0  0  0  0  0  0  0  0  0  0
    0.8135    2.0575    1.1033 H   0  0  0  0  0  0  0  0  0  0  0  0
    1.1834    2.1104   -0.6953 H   0  0  0  0  0  0  0  0  0  0  0  0
    2.4124    0.1807   -0.5741 H   0  0  0  0  0  0  0  0  0  0  0  0
    2.1788    0.2502    1.2055 H   0  0  0  0  0  0  0  0  0  0  0  0
    1.2602   -1.8991    0.3514 H   0  0  0  0  0  0  0  0  0  0  0  0
   -1.9050    0.3879    1.3948 H   0  0  0  0  0  0  0  0  0  0  0  0
   -1.5988   -2.0349    0.2415 H   0  0  0  0  0  0  0  0  0  0  0  0
   -2.3844   -0.7613   -0.8496 H   0  0  0  0  0  0  0  0  0  0  0  0
   -0.0389   -1.7308   -1.6734 H   0  0  0  0  0  0  0  0  0  0  0  0
   -1.2141    1.9165   -0.3802 H   0  0  0  0  0  0  0  0  0  0  0  0
  1  2  1  0
  2  3  1  0
  3  4  1  0
  4  5  1  0
  5  6  1  0
  6  7  1  0
  7  8  1  0
  8  9  1  0
  9  1  1  0
  7  3  1  0
  9  5  1  0
  1 10  1  0
  1 11  1  0
  2 12  1  0
  2 13  1  0
  3 14  1  0
  5 15  1  0
  6 16  1  0
  6 17  1  0
  7 18  1  0
  9 19  1  0
M  END
