
     RDKit          3D

 19 21  0  0  0  0  0  0  0  0999 V2000
   -2.8029    0.6900    0.0127 C   0  0  0  0  0  0  0  0  0  0  0  0
   -2.4178    1.3340   -1.2604 C   0  0  0  0  0  0  0  0  0  0  0  0
   -1.3351    0.9629   -0.3340 C   0  0  0  0  0  0  0  0  0  0  0  0
   -0.5804   -0.1787   -0.4856 O   0  0  0  0  0  0  0  0  0  0  0  0
    0.6713   -0.1242    0.0458 C   0  0  0  0  0  0  0  0  0  0  0  0
    1.4163   -1.3058    0.5281 C   0  0  0  0  0  0  0  0  0  0  0  0
    2.8720   -1.0493    0.8560 C   0  0  0  0  0  0  0  0  0  0  0  0
    3.0901   -0.5693   -0.4416 O   0  0  0  0  0  0  0  0  0  0  0  0
    1.7720   -0.7636   -0.7895 C   0  0  0  0  0  0  0  0  0  0  0  0
   -3.1685    1.2778    0.8770 H   0  0  0  0  0  0  0  0  0  0  0  0
   -3.1706   -0.3453   -0.0341 H   0  0  0  0  0  0  0  0  0  0  0  0
   -2.5735    0.7510   -2.2034 H   0  0  0  0  0  0  0  0  0  0  0  0
   -2.6666    2.4021   -1.3792 H   0  0  0  0  0  0  0  0  0  0  0  0
   -0.8251    1.7849    0.2040 H   0  0  0  0  0  0  0  0  0  0  0  0
    0.9315    0.8365    0.5379 H   0  0  0  0  0  0  0  0  0  0  0  0
    0.9717   -2.2880    0.6804 H   0  0  0  0  0  0  0  0  0  0  0  0
    3.3856   -1.9672    1.1266 H   0  0  0  0  0  0  0  0  0  0  0  0
    2.9276   -0.2057    1.5960 H   0  0  0  0  0  0  0  0  0  0  0  0
    1.5023   -1.2421   -1.7424 H   0  0  0  0  0  0  0  0  0  0  0  0
  1  2  1  0
  2  3  1  0
  3  4  1  0
  4  5  1  0
  5  6  1  0
  6  7  1  0
  7  8  1  0
  8  9  1  0
  3  1  1  0
  9  5  1  0
  9  6  1  0
  1 10  1  0
  1 11  1  0
  2 12  1  0
  2 13  1  0
  3 14  1  0
  5 15  1  0
  6 16  1  0
  7 17  1  0
  7 18  1  0
  9 19  1  0
M  END
