
     RDKit          3D

 21 23  0  0  0  0  0  0  0  0999 V2000
    2.0510    0.7121   -0.5386 C   0  0  0  0  0  0  0  0  0  0  0  0
    1.6372   -0.3085    0.5378 C   0  0  0  0  0  0  0  0  0  0  0  0
    0.4121   -0.8317   -0.0882 C   0  0  0  0  0  0  0  0  0  0  0  0
   -0.7301   -1.1936    0.8081 C   0  0  0  0  0  0  0  0  0  0  0  0
   -1.7492   -0.2029    0.3158 C   0  0  0  0  0  0  0  0  0  0  0  0
   -0.9379    1.0848    0.5415 C   0  0  0  0  0  0  0  0  0  0  0  0
   -0.1441    0.5128   -0.6041 C   0  0  0  0  0  0  0  0  0  0  0  0
   -1.4080    0.0472   -1.1660 C   0  0  0  0  0  0  0  0  0  0  0  0
    0.8455    1.1215   -1.1584 O   0  0  0  0  0  0  0  0  0  0  0  0
    2.6089    0.1629   -1.3354 H   0  0  0  0  0  0  0  0  0  0  0  0
    2.6090    1.5451   -0.1241 H   0  0  0  0  0  0  0  0  0  0  0  0
    2.4647   -1.0280    0.6618 H   0  0  0  0  0  0  0  0  0  0  0  0
    1.4155    0.2584    1.4504 H   0  0  0  0  0  0  0  0  0  0  0  0
    0.5921   -1.5225   -0.9107 H   0  0  0  0  0  0  0  0  0  0  0  0
   -1.0500   -2.2332    0.7521 H   0  0  0  0  0  0  0  0  0  0  0  0
   -0.4418   -0.8916    1.8543 H   0  0  0  0  0  0  0  0  0  0  0  0
   -2.7506   -0.2297    0.6094 H   0  0  0  0  0  0  0  0  0  0  0  0
   -1.5270    1.9355    0.2167 H   0  0  0  0  0  0  0  0  0  0  0  0
   -0.4554    1.1009    1.5159 H   0  0  0  0  0  0  0  0  0  0  0  0
   -2.0394    0.8407   -1.5615 H   0  0  0  0  0  0  0  0  0  0  0  0
   -1.4023   -0.8804   -1.7768 H   0  0  0  0  0  0  0  0  0  0  0  0
  1  2  1  0
  2  3  1  0
  3  4  1  0
  4  5  1  0
  5  6  1  0
  6  7  1  0
  7  8  1  0
  7  9  1  0
  9  1  1  0
  7  3  1  0
  8  5  1  0
  1 10  1  0
  1 11  1  0
  2 12  1  0
  2 13  1  0
  3 14  1  0
  4 15  1  0
  4 16  1  0
  5 17  1  0
  6 18  1  0
  6 19  1  0
  8 20  1  0
  8 21  1  0
M  END
