
     RDKit          3D

 21 23  0  0  0  0  0  0  0  0999 V2000
    2.6353   -0.0372    0.1760 C   0  0  0  0  0  0  0  0  0  0  0  0
    1.5829    1.0439   -0.0858 C   0  0  0  0  0  0  0  0  0  0  0  0
    0.6400   -0.0264   -0.5315 C   0  0  0  0  0  0  0  0  0  0  0  0
   -0.6777    0.0267    0.1967 C   0  0  0  0  0  0  0  0  0  0  0  0
   -1.7439   -0.9831   -0.1325 C   0  0  0  0  0  0  0  0  0  0  0  0
   -2.7848    0.0976   -0.2500 C   0  0  0  0  0  0  0  0  0  0  0  0
   -1.6763    1.1155   -0.2059 C   0  0  0  0  0  0  0  0  0  0  0  0
   -0.9526    1.1267    0.9658 O   0  0  0  0  0  0  0  0  0  0  0  0
    1.5400   -1.0581    0.1215 C   0  0  0  0  0  0  0  0  0  0  0  0
    3.3330   -0.0789   -0.6998 H   0  0  0  0  0  0  0  0  0  0  0  0
    3.1402    0.0529    1.1553 H   0  0  0  0  0  0  0  0  0  0  0  0
    1.2885    1.4760    0.9122 H   0  0  0  0  0  0  0  0  0  0  0  0
    1.8738    1.7970   -0.8168 H   0  0  0  0  0  0  0  0  0  0  0  0
    0.5559   -0.1210   -1.6314 H   0  0  0  0  0  0  0  0  0  0  0  0
   -1.5388   -1.4034   -1.1542 H   0  0  0  0  0  0  0  0  0  0  0  0
   -1.9155   -1.7437    0.6500 H   0  0  0  0  0  0  0  0  0  0  0  0
   -3.4230    0.2210    0.6722 H   0  0  0  0  0  0  0  0  0  0  0  0
   -3.4169    0.0832   -1.1324 H   0  0  0  0  0  0  0  0  0  0  0  0
   -1.3813    1.6722   -1.0880 H   0  0  0  0  0  0  0  0  0  0  0  0
    1.6873   -1.9062   -0.5757 H   0  0  0  0  0  0  0  0  0  0  0  0
    1.2338   -1.3545    1.1376 H   0  0  0  0  0  0  0  0  0  0  0  0
  1  2  1  0
  2  3  1  0
  3  4  1  0
  4  5  1  0
  5  6  1  0
  6  7  1  0
  7  8  1  0
  3  9  1  0
  9  1  1  0
  7  4  1  0
  8  4  1  0
  1 10  1  0
  1 11  1  0
  2 12  1  0
  2 13  1  0
  3 14  1  0
  5 15  1  0
  5 16  1  0
  6 17  1  0
  6 18  1  0
  7 19  1  0
  9 20  1  0
  9 21  1  0
M  END
