
     RDKit          3D

 23 25  0  0  0  0  0  0  0  0999 V2000
    2.0063    0.4979    0.7462 C   0  0  0  0  0  0  0  0  0  0  0  0
    1.6280   -0.9353    0.4136 C   0  0  0  0  0  0  0  0  0  0  0  0
    0.7987   -0.4279   -0.7028 C   0  0  0  0  0  0  0  0  0  0  0  0
    0.8135    0.9415   -0.0653 C   0  0  0  0  0  0  0  0  0  0  0  0
   -0.4116    1.1970    0.7477 C   0  0  0  0  0  0  0  0  0  0  0  0
   -1.6074    0.5099    0.1574 C   0  0  0  0  0  0  0  0  0  0  0  0
   -1.3931   -0.9925    0.3871 C   0  0  0  0  0  0  0  0  0  0  0  0
   -0.5783   -0.9734   -0.8669 C   0  0  0  0  0  0  0  0  0  0  0  0
   -1.4539    0.2098   -1.3153 C   0  0  0  0  0  0  0  0  0  0  0  0
    1.8585    0.6762    1.8219 H   0  0  0  0  0  0  0  0  0  0  0  0
    2.9331    0.8660    0.3130 H   0  0  0  0  0  0  0  0  0  0  0  0
    2.5650   -1.4749    0.0877 H   0  0  0  0  0  0  0  0  0  0  0  0
    1.1206   -1.4767    1.2067 H   0  0  0  0  0  0  0  0  0  0  0  0
    1.3258   -0.3924   -1.6667 H   0  0  0  0  0  0  0  0  0  0  0  0
    1.0120    1.7611   -0.7759 H   0  0  0  0  0  0  0  0  0  0  0  0
   -0.2432    0.7231    1.7590 H   0  0  0  0  0  0  0  0  0  0  0  0
   -0.5568    2.2670    0.9481 H   0  0  0  0  0  0  0  0  0  0  0  0
   -2.5908    0.8844    0.4136 H   0  0  0  0  0  0  0  0  0  0  0  0
   -0.9029   -1.2458    1.3200 H   0  0  0  0  0  0  0  0  0  0  0  0
   -2.3653   -1.4975    0.1991 H   0  0  0  0  0  0  0  0  0  0  0  0
   -0.6327   -1.8504   -1.5043 H   0  0  0  0  0  0  0  0  0  0  0  0
   -0.9278    0.9422   -1.9187 H   0  0  0  0  0  0  0  0  0  0  0  0
   -2.3977   -0.2095   -1.7052 H   0  0  0  0  0  0  0  0  0  0  0  0
  1  2  1  0
  2  3  1  0
  3  4  1  0
  4  5  1  0
  5  6  1  0
  6  7  1  0
  7  8  1  0
  8  9  1  0
  4  1  1  0
  9  6  1  0
  8  3  1  0
  1 10  1  0
  1 11  1  0
  2 12  1  0
  2 13  1  0
  3 14  1  0
  4 15  1  0
  5 16  1  0
  5 17  1  0
  6 18  1  0
  7 19  1  0
  7 20  1  0
  8 21  1  0
  9 22  1  0
  9 23  1  0
M  END
