
     RDKit          3D

 21 23  0  0  0  0  0  0  0  0999 V2000
   -1.5090   -0.8839    0.4203 C   0  0  0  0  0  0  0  0  0  0  0  0
   -1.6941    0.5949    0.0537 C   0  0  0  0  0  0  0  0  0  0  0  0
   -0.4578    0.9949   -0.6995 C   0  0  0  0  0  0  0  0  0  0  0  0
   -0.0558   -0.3603   -1.3103 C   0  0  0  0  0  0  0  0  0  0  0  0
   -0.0782   -1.1254    0.0246 C   0  0  0  0  0  0  0  0  0  0  0  0
    0.8176   -0.2460    0.8512 C   0  0  0  0  0  0  0  0  0  0  0  0
    2.2251   -0.0711    0.3205 C   0  0  0  0  0  0  0  0  0  0  0  0
    1.9364    1.1766   -0.2101 O   0  0  0  0  0  0  0  0  0  0  0  0
    0.6519    1.1770    0.3010 C   0  0  0  0  0  0  0  0  0  0  0  0
   -2.1474   -1.4760   -0.2926 H   0  0  0  0  0  0  0  0  0  0  0  0
   -1.7364   -1.0886    1.4631 H   0  0  0  0  0  0  0  0  0  0  0  0
   -2.6208    0.7761   -0.4896 H   0  0  0  0  0  0  0  0  0  0  0  0
   -1.7119    1.1267    1.0444 H   0  0  0  0  0  0  0  0  0  0  0  0
   -0.5724    1.7744   -1.4272 H   0  0  0  0  0  0  0  0  0  0  0  0
   -0.8662   -0.7446   -1.9232 H   0  0  0  0  0  0  0  0  0  0  0  0
    0.9325   -0.3355   -1.7560 H   0  0  0  0  0  0  0  0  0  0  0  0
    0.2202   -2.1511   -0.0667 H   0  0  0  0  0  0  0  0  0  0  0  0
    0.7337   -0.3322    1.9354 H   0  0  0  0  0  0  0  0  0  0  0  0
    2.5292   -0.7968   -0.4623 H   0  0  0  0  0  0  0  0  0  0  0  0
    2.9716    0.0553    1.1508 H   0  0  0  0  0  0  0  0  0  0  0  0
    0.4319    1.9358    1.0725 H   0  0  0  0  0  0  0  0  0  0  0  0
  1  2  1  0
  2  3  1  0
  3  4  1  0
  4  5  1  0
  5  6  1  0
  6  7  1  0
  7  8  1  0
  8  9  1  0
  5  1  1  0
  9  6  1  0
  9  3  1  0
  1 10  1  0
  1 11  1  0
  2 12  1  0
  2 13  1  0
  3 14  1  0
  4 15  1  0
  4 16  1  0
  5 17  1  0
  6 18  1  0
  7 19  1  0
  7 20  1  0
  9 21  1  0
M  END
