
     RDKit          3D

 18 19  0  0  0  0  0  0  0  0999 V2000
    2.5254    0.0314    0.2164 C   0  0  0  0  0  0  0  0  0  0  0  0
    1.2806    0.9115    0.2444 C   0  0  0  0  0  0  0  0  0  0  0  0
    0.8183   -0.1831   -0.6832 C   0  0  0  0  0  0  0  0  0  0  0  0
   -0.5980   -0.6409   -0.4676 C   0  0  0  0  0  0  0  0  0  0  0  0
   -1.6712    0.3716   -0.7038 C   0  0  0  0  0  0  0  0  0  0  0  0
   -2.3179   -0.5159    0.3693 C   0  0  0  0  0  0  0  0  0  0  0  0
   -1.0070   -0.6860    0.8623 O   0  0  0  0  0  0  0  0  0  0  0  0
    1.6923   -1.0498   -0.0271 O   0  0  0  0  0  0  0  0  0  0  0  0
    3.0454   -0.0626    1.1795 H   0  0  0  0  0  0  0  0  0  0  0  0
    3.1440    0.2506   -0.6699 H   0  0  0  0  0  0  0  0  0  0  0  0
    1.4219    1.8887   -0.2355 H   0  0  0  0  0  0  0  0  0  0  0  0
    0.7796    0.9662    1.2236 H   0  0  0  0  0  0  0  0  0  0  0  0
    1.0967    0.0141   -1.7146 H   0  0  0  0  0  0  0  0  0  0  0  0
   -0.8166   -1.5966   -0.9647 H   0  0  0  0  0  0  0  0  0  0  0  0
   -2.1915    0.3041   -1.6791 H   0  0  0  0  0  0  0  0  0  0  0  0
   -1.5106    1.3684   -0.2898 H   0  0  0  0  0  0  0  0  0  0  0  0
   -2.7405   -1.4094   -0.0986 H   0  0  0  0  0  0  0  0  0  0  0  0
   -2.9510    0.0377    1.0706 H   0  0  0  0  0  0  0  0  0  0  0  0
  1  2  1  0
  2  3  1  0
  3  4  1  0
  4  5  1  0
  5  6  1  0
  6  7  1  0
  3  8  1  0
  8  1  1  0
  7  4  1  0
  1  9  1  0
  1 10  1  0
  2 11  1  0
  2 12  1  0
  3 13  1  0
  4 14  1  0
  5 15  1  0
  5 16  1  0
  6 17  1  0
  6 18  1  0
M  END
