
     RDKit          3D

 19 20  0  0  0  0  0  0  0  0999 V2000
    1.4077   -1.0528   -0.5715 C   0  0  0  0  0  0  0  0  0  0  0  0
    2.4150    0.0152   -0.2098 C   0  0  0  0  0  0  0  0  0  0  0  0
    0.9684    0.3507   -0.5771 C   0  0  0  0  0  0  0  0  0  0  0  0
    0.1400    0.9356    0.5030 C   0  0  0  0  0  0  0  0  0  0  0  0
   -1.1952    0.3335    0.7343 C   0  0  0  0  0  0  0  0  0  0  0  0
   -2.1274    0.4218   -0.5075 C   0  0  0  0  0  0  0  0  0  0  0  0
   -1.7185   -0.8828    0.1311 C   0  0  0  0  0  0  0  0  0  0  0  0
    1.1158   -1.7636    0.2368 H   0  0  0  0  0  0  0  0  0  0  0  0
    1.5930   -1.5278   -1.5714 H   0  0  0  0  0  0  0  0  0  0  0  0
    2.7073    0.0404    0.8421 H   0  0  0  0  0  0  0  0  0  0  0  0
    3.2203    0.2513   -0.9222 H   0  0  0  0  0  0  0  0  0  0  0  0
    0.9023    0.8658   -1.5642 H   0  0  0  0  0  0  0  0  0  0  0  0
    0.7346    0.8805    1.4623 H   0  0  0  0  0  0  0  0  0  0  0  0
   -0.0208    2.0374    0.2986 H   0  0  0  0  0  0  0  0  0  0  0  0
   -1.7060    0.6986    1.6741 H   0  0  0  0  0  0  0  0  0  0  0  0
   -1.6400    0.6183   -1.4829 H   0  0  0  0  0  0  0  0  0  0  0  0
   -3.1465    0.8101   -0.3447 H   0  0  0  0  0  0  0  0  0  0  0  0
   -1.1333   -1.5978   -0.4777 H   0  0  0  0  0  0  0  0  0  0  0  0
   -2.5167   -1.4343    0.7122 H   0  0  0  0  0  0  0  0  0  0  0  0
  1  2  1  0
  2  3  1  0
  3  4  1  0
  4  5  1  0
  5  6  1  0
  6  7  1  0
  3  1  1  0
  7  5  1  0
  1  8  1  0
  1  9  1  0
  2 10  1  0
  2 11  1  0
  3 12  1  0
  4 13  1  0
  4 14  1  0
  5 15  1  0
  6 16  1  0
  6 17  1  0
  7 18  1  0
  7 19  1  0
M  END
