
     RDKit          3D

 23 25  0  0  0  0  0  0  0  0999 V2000
   -2.9424   -1.0119    0.4735 C   0  0  0  0  0  0  0  0  0  0  0  0
   -2.9749    0.4242    0.1053 C   0  0  0  0  0  0  0  0  0  0  0  0
   -1.6936   -0.2232    0.6195 C   0  0  0  0  0  0  0  0  0  0  0  0
   -0.6238   -0.3902   -0.4098 C   0  0  0  0  0  0  0  0  0  0  0  0
    0.5840    0.4388   -0.1779 C   0  0  0  0  0  0  0  0  0  0  0  0
    1.6043    0.1697   -1.3101 C   0  0  0  0  0  0  0  0  0  0  0  0
    2.4993    0.8207   -0.2515 C   0  0  0  0  0  0  0  0  0  0  0  0
    2.9735    0.2552    0.9558 C   0  0  0  0  0  0  0  0  0  0  0  0
    1.6876   -0.2405    0.6109 C   0  0  0  0  0  0  0  0  0  0  0  0
   -3.5410   -1.2634    1.3933 H   0  0  0  0  0  0  0  0  0  0  0  0
   -2.9867   -1.7694   -0.3238 H   0  0  0  0  0  0  0  0  0  0  0  0
   -3.0464    0.6294   -0.9850 H   0  0  0  0  0  0  0  0  0  0  0  0
   -3.4273    1.1911    0.7617 H   0  0  0  0  0  0  0  0  0  0  0  0
   -1.3276    0.0828    1.6188 H   0  0  0  0  0  0  0  0  0  0  0  0
   -0.3424   -1.4598   -0.4517 H   0  0  0  0  0  0  0  0  0  0  0  0
   -1.0072   -0.1435   -1.4436 H   0  0  0  0  0  0  0  0  0  0  0  0
    0.4560    1.5060   -0.0170 H   0  0  0  0  0  0  0  0  0  0  0  0
    1.8538   -0.8799   -1.4360 H   0  0  0  0  0  0  0  0  0  0  0  0
    1.4688    0.7847   -2.1950 H   0  0  0  0  0  0  0  0  0  0  0  0
    2.1006    1.8823   -0.1432 H   0  0  0  0  0  0  0  0  0  0  0  0
    3.9114   -0.3766    0.8903 H   0  0  0  0  0  0  0  0  0  0  0  0
    3.0406    0.8721    1.9019 H   0  0  0  0  0  0  0  0  0  0  0  0
    1.7336   -1.2984    0.1901 H   0  0  0  0  0  0  0  0  0  0  0  0
  1  2  1  0
  2  3  1  0
  3  4  1  0
  4  5  1  0
  5  6  1  0
  6  7  1  0
  7  8  1  0
  8  9  1  0
  3  1  1  0
  9  5  1  0
  9  7  1  0
  1 10  1  0
  1 11  1  0
  2 12  1  0
  2 13  1  0
  3 14  1  0
  4 15  1  0
  4 16  1  0
  5 17  1  0
  6 18  1  0
  6 19  1  0
  7 20  1  0
  8 21  1  0
  8 22  1  0
  9 23  1  0
M  END
