
     RDKit          3D

 19 21  0  0  0  0  0  0  0  0999 V2000
   -2.0612   -0.3894   -0.1407 C   0  0  0  0  0  0  0  0  0  0  0  0
   -1.1756    0.6660   -0.8141 C   0  0  0  0  0  0  0  0  0  0  0  0
   -0.1607    0.3933    0.2531 C   0  0  0  0  0  0  0  0  0  0  0  0
   -1.1087   -0.3928    1.0604 C   0  0  0  0  0  0  0  0  0  0  0  0
    0.4473    1.4871    0.8278 O   0  0  0  0  0  0  0  0  0  0  0  0
    1.5276    1.2769   -0.0608 C   0  0  0  0  0  0  0  0  0  0  0  0
    1.1356   -0.1507   -0.1294 C   0  0  0  0  0  0  0  0  0  0  0  0
    1.8185   -1.3007    0.0906 C   0  0  0  0  0  0  0  0  0  0  0  0
    1.3611   -0.9339   -1.2298 O   0  0  0  0  0  0  0  0  0  0  0  0
   -3.0650   -0.0292    0.1035 H   0  0  0  0  0  0  0  0  0  0  0  0
   -2.0062   -1.3304   -0.7034 H   0  0  0  0  0  0  0  0  0  0  0  0
   -1.5906    1.6953   -0.7205 H   0  0  0  0  0  0  0  0  0  0  0  0
   -0.8573    0.4103   -1.8343 H   0  0  0  0  0  0  0  0  0  0  0  0
   -0.8426   -1.4216    1.3324 H   0  0  0  0  0  0  0  0  0  0  0  0
   -1.5450    0.2101    1.8992 H   0  0  0  0  0  0  0  0  0  0  0  0
    2.4867    1.5437    0.3817 H   0  0  0  0  0  0  0  0  0  0  0  0
    1.3290    1.8374   -1.0138 H   0  0  0  0  0  0  0  0  0  0  0  0
    1.3636   -2.2315    0.5070 H   0  0  0  0  0  0  0  0  0  0  0  0
    2.9438   -1.3400    0.1909 H   0  0  0  0  0  0  0  0  0  0  0  0
  1  2  1  0
  2  3  1  0
  3  4  1  0
  3  5  1  0
  5  6  1  0
  6  7  1  0
  7  8  1  0
  8  9  1  0
  4  1  1  0
  9  7  1  0
  7  3  1  0
  1 10  1  0
  1 11  1  0
  2 12  1  0
  2 13  1  0
  4 14  1  0
  4 15  1  0
  6 16  1  0
  6 17  1  0
  8 18  1  0
  8 19  1  0
M  END
