
     RDKit          3D

 17 18  0  0  0  0  0  0  0  0999 V2000
    1.8152   -0.0060    0.0204 C   0  0  0  0  0  0  0  0  0  0  0  0
    0.7064   -0.7433    0.7835 C   0  0  0  0  0  0  0  0  0  0  0  0
   -0.2720   -0.0045   -0.0202 C   0  0  0  0  0  0  0  0  0  0  0  0
    0.7459    0.6457   -0.8648 C   0  0  0  0  0  0  0  0  0  0  0  0
   -1.4208   -0.6797   -0.6279 C   0  0  0  0  0  0  0  0  0  0  0  0
   -2.1788    0.4993   -0.4492 O   0  0  0  0  0  0  0  0  0  0  0  0
   -1.3198    0.7984    0.6261 C   0  0  0  0  0  0  0  0  0  0  0  0
    2.2914    0.7686    0.6498 H   0  0  0  0  0  0  0  0  0  0  0  0
    2.5000   -0.6707   -0.5335 H   0  0  0  0  0  0  0  0  0  0  0  0
    0.7791   -1.8397    0.6298 H   0  0  0  0  0  0  0  0  0  0  0  0
    0.7582   -0.5200    1.8776 H   0  0  0  0  0  0  0  0  0  0  0  0
    0.7132    1.7466   -0.7996 H   0  0  0  0  0  0  0  0  0  0  0  0
    0.7437    0.2752   -1.9063 H   0  0  0  0  0  0  0  0  0  0  0  0
   -1.2504   -0.9609   -1.6765 H   0  0  0  0  0  0  0  0  0  0  0  0
   -1.8307   -1.4929    0.0157 H   0  0  0  0  0  0  0  0  0  0  0  0
   -1.7349    0.3296    1.5493 H   0  0  0  0  0  0  0  0  0  0  0  0
   -1.0456    1.8542    0.7257 H   0  0  0  0  0  0  0  0  0  0  0  0
  1  2  1  0
  2  3  1  0
  3  4  1  0
  3  5  1  0
  5  6  1  0
  6  7  1  0
  4  1  1  0
  7  3  1  0
  1  8  1  0
  1  9  1  0
  2 10  1  0
  2 11  1  0
  4 12  1  0
  4 13  1  0
  5 14  1  0
  5 15  1  0
  7 16  1  0
  7 17  1  0
M  END
