
     RDKit          3D

 21 23  0  0  0  0  0  0  0  0999 V2000
   -1.0018    1.5638    0.0629 C   0  0  0  0  0  0  0  0  0  0  0  0
    0.4563    1.2323    0.0114 C   0  0  0  0  0  0  0  0  0  0  0  0
    0.7358   -0.2456   -0.0596 C   0  0  0  0  0  0  0  0  0  0  0  0
    1.9846   -0.7699    0.6591 C   0  0  0  0  0  0  0  0  0  0  0  0
    1.8685   -0.7606   -0.8331 C   0  0  0  0  0  0  0  0  0  0  0  0
   -0.4928   -1.0393    0.2377 C   0  0  0  0  0  0  0  0  0  0  0  0
   -1.6819   -0.6826   -0.5759 C   0  0  0  0  0  0  0  0  0  0  0  0
   -1.8116    0.3737    0.5168 C   0  0  0  0  0  0  0  0  0  0  0  0
   -1.1070   -0.4705    1.3604 O   0  0  0  0  0  0  0  0  0  0  0  0
   -1.2241    2.4328    0.7347 H   0  0  0  0  0  0  0  0  0  0  0  0
   -1.3721    1.8218   -0.9697 H   0  0  0  0  0  0  0  0  0  0  0  0
    0.9486    1.6220    0.9348 H   0  0  0  0  0  0  0  0  0  0  0  0
    0.8847    1.7261   -0.8804 H   0  0  0  0  0  0  0  0  0  0  0  0
    1.9345   -1.7511    1.1522 H   0  0  0  0  0  0  0  0  0  0  0  0
    2.6347   -0.0478    1.1759 H   0  0  0  0  0  0  0  0  0  0  0  0
    2.5316   -0.0050   -1.3242 H   0  0  0  0  0  0  0  0  0  0  0  0
    1.8723   -1.7245   -1.3615 H   0  0  0  0  0  0  0  0  0  0  0  0
   -0.3015   -2.1169    0.4151 H   0  0  0  0  0  0  0  0  0  0  0  0
   -1.5268   -0.3017   -1.5839 H   0  0  0  0  0  0  0  0  0  0  0  0
   -2.4839   -1.4421   -0.4589 H   0  0  0  0  0  0  0  0  0  0  0  0
   -2.8482    0.5850    0.7862 H   0  0  0  0  0  0  0  0  0  0  0  0
  1  2  1  0
  2  3  1  0
  3  4  1  0
  4  5  1  0
  3  6  1  0
  6  7  1  0
  7  8  1  0
  8  9  1  0
  8  1  1  0
  5  3  1  0
  9  6  1  0
  1 10  1  0
  1 11  1  0
  2 12  1  0
  2 13  1  0
  4 14  1  0
  4 15  1  0
  5 16  1  0
  5 17  1  0
  6 18  1  0
  7 19  1  0
  7 20  1  0
  8 21  1  0
M  END
