
     RDKit          3D

 21 23  0  0  0  0  0  0  0  0999 V2000
    2.4717    1.2406    0.5253 C   0  0  0  0  0  0  0  0  0  0  0  0
    2.9408    0.1908   -0.4249 C   0  0  0  0  0  0  0  0  0  0  0  0
    1.7118   -0.0753    0.3594 C   0  0  0  0  0  0  0  0  0  0  0  0
    0.4533    0.0987   -0.1949 O   0  0  0  0  0  0  0  0  0  0  0  0
   -0.5185   -0.6971    0.3812 C   0  0  0  0  0  0  0  0  0  0  0  0
   -1.3334   -1.3788   -0.7129 C   0  0  0  0  0  0  0  0  0  0  0  0
   -2.4922   -0.4493   -0.4591 C   0  0  0  0  0  0  0  0  0  0  0  0
   -2.2300    1.0041   -0.3789 C   0  0  0  0  0  0  0  0  0  0  0  0
   -1.7451    0.1256    0.6920 C   0  0  0  0  0  0  0  0  0  0  0  0
    2.0726    2.1477    0.0665 H   0  0  0  0  0  0  0  0  0  0  0  0
    3.0343    1.3810    1.4761 H   0  0  0  0  0  0  0  0  0  0  0  0
    2.9085    0.3607   -1.5232 H   0  0  0  0  0  0  0  0  0  0  0  0
    3.8587   -0.3516   -0.1054 H   0  0  0  0  0  0  0  0  0  0  0  0
    1.7741   -0.8184    1.1798 H   0  0  0  0  0  0  0  0  0  0  0  0
   -0.1874   -1.3630    1.1962 H   0  0  0  0  0  0  0  0  0  0  0  0
   -1.5378   -2.4508   -0.5005 H   0  0  0  0  0  0  0  0  0  0  0  0
   -0.8885   -1.2980   -1.7232 H   0  0  0  0  0  0  0  0  0  0  0  0
   -3.5072   -0.8498   -0.3219 H   0  0  0  0  0  0  0  0  0  0  0  0
   -1.5065    1.4384   -1.0975 H   0  0  0  0  0  0  0  0  0  0  0  0
   -3.0713    1.6707   -0.1271 H   0  0  0  0  0  0  0  0  0  0  0  0
   -2.2077    0.0738    1.6933 H   0  0  0  0  0  0  0  0  0  0  0  0
  1  2  1  0
  2  3  1  0
  3  4  1  0
  4  5  1  0
  5  6  1  0
  6  7  1  0
  7  8  1  0
  8  9  1  0
  3  1  1  0
  9  5  1  0
  9  7  1  0
  1 10  1  0
  1 11  1  0
  2 12  1  0
  2 13  1  0
  3 14  1  0
  5 15  1  0
  6 16  1  0
  6 17  1  0
  7 18  1  0
  8 19  1  0
  8 20  1  0
  9 21  1  0
M  END
