
     RDKit          3D

 23 24  0  0  0  0  0  0  0  0999 V2000
   -2.0390   -0.4422    0.8808 C   0  0  0  0  0  0  0  0  0  0  0  0
   -1.9327    1.0159    0.4787 C   0  0  0  0  0  0  0  0  0  0  0  0
   -0.9669    1.0652   -0.6715 C   0  0  0  0  0  0  0  0  0  0  0  0
   -0.2447   -0.2297   -0.7317 C   0  0  0  0  0  0  0  0  0  0  0  0
    1.0149   -0.2865    0.0799 C   0  0  0  0  0  0  0  0  0  0  0  0
    2.0899    0.6794   -0.2485 C   0  0  0  0  0  0  0  0  0  0  0  0
    2.9185   -0.5614    0.0251 C   0  0  0  0  0  0  0  0  0  0  0  0
    1.8469   -1.3080   -0.4364 O   0  0  0  0  0  0  0  0  0  0  0  0
   -1.2259   -1.2198   -0.0970 C   0  0  0  0  0  0  0  0  0  0  0  0
   -3.1129   -0.7339    0.8201 H   0  0  0  0  0  0  0  0  0  0  0  0
   -1.6935   -0.5872    1.9183 H   0  0  0  0  0  0  0  0  0  0  0  0
   -1.5078    1.6187    1.3226 H   0  0  0  0  0  0  0  0  0  0  0  0
   -2.9263    1.4511    0.2201 H   0  0  0  0  0  0  0  0  0  0  0  0
   -0.3265    1.9576   -0.6813 H   0  0  0  0  0  0  0  0  0  0  0  0
   -1.5999    1.1392   -1.6052 H   0  0  0  0  0  0  0  0  0  0  0  0
   -0.0727   -0.5570   -1.7780 H   0  0  0  0  0  0  0  0  0  0  0  0
    0.8993   -0.4558    1.1607 H   0  0  0  0  0  0  0  0  0  0  0  0
    2.1070    1.0361   -1.2806 H   0  0  0  0  0  0  0  0  0  0  0  0
    2.3211    1.4389    0.5347 H   0  0  0  0  0  0  0  0  0  0  0  0
    3.8499   -0.6303   -0.5702 H   0  0  0  0  0  0  0  0  0  0  0  0
    3.1262   -0.7029    1.1005 H   0  0  0  0  0  0  0  0  0  0  0  0
   -1.8601   -1.6735   -0.8827 H   0  0  0  0  0  0  0  0  0  0  0  0
   -0.6648   -2.0139    0.4418 H   0  0  0  0  0  0  0  0  0  0  0  0
  1  2  1  0
  2  3  1  0
  3  4  1  0
  4  5  1  0
  5  6  1  0
  6  7  1  0
  7  8  1  0
  4  9  1  0
  9  1  1  0
  8  5  1  0
  1 10  1  0
  1 11  1  0
  2 12  1  0
  2 13  1  0
  3 14  1  0
  3 15  1  0
  4 16  1  0
  5 17  1  0
  6 18  1  0
  6 19  1  0
  7 20  1  0
  7 21  1  0
  9 22  1  0
  9 23  1  0
M  END
