
     RDKit          3D

 19 23  0  0  0  0  0  0  0  0999 V2000
    1.9007    0.4922    0.2514 C   0  0  0  0  0  0  0  0  0  0  0  0
    1.9723   -0.8528   -0.4419 C   0  0  0  0  0  0  0  0  0  0  0  0
    0.6700   -0.3353   -0.1668 C   0  0  0  0  0  0  0  0  0  0  0  0
   -0.2264   -0.7013    0.9564 C   0  0  0  0  0  0  0  0  0  0  0  0
   -1.1626    0.4325    1.0709 C   0  0  0  0  0  0  0  0  0  0  0  0
   -1.5822   -0.8105    0.4103 C   0  0  0  0  0  0  0  0  0  0  0  0
   -1.5806   -0.1138   -0.9038 C   0  0  0  0  0  0  0  0  0  0  0  0
   -1.1290    1.1350   -0.2292 C   0  0  0  0  0  0  0  0  0  0  0  0
   -0.2303    0.3766   -1.1265 C   0  0  0  0  0  0  0  0  0  0  0  0
    2.1622    0.5180    1.3156 H   0  0  0  0  0  0  0  0  0  0  0  0
    2.1380    1.3899   -0.3253 H   0  0  0  0  0  0  0  0  0  0  0  0
    2.3478   -0.8157   -1.4974 H   0  0  0  0  0  0  0  0  0  0  0  0
    2.3512   -1.7093    0.1551 H   0  0  0  0  0  0  0  0  0  0  0  0
    0.1139   -1.1971    1.8598 H   0  0  0  0  0  0  0  0  0  0  0  0
   -1.5587    0.8310    1.9857 H   0  0  0  0  0  0  0  0  0  0  0  0
   -2.3556   -1.4774    0.7459 H   0  0  0  0  0  0  0  0  0  0  0  0
   -2.4256   -0.0410   -1.5591 H   0  0  0  0  0  0  0  0  0  0  0  0
   -1.5269    2.1097   -0.4243 H   0  0  0  0  0  0  0  0  0  0  0  0
    0.1217    0.7694   -2.0768 H   0  0  0  0  0  0  0  0  0  0  0  0
  1  2  1  0
  2  3  1  0
  3  4  1  0
  4  5  1  0
  5  6  1  0
  6  7  1  0
  7  8  1  0
  8  9  1  0
  3  1  1  0
  6  4  1  0
  9  7  1  0
  9  3  1  0
  8  5  1  0
  1 10  1  0
  1 11  1  0
  2 12  1  0
  2 13  1  0
  4 14  1  0
  5 15  1  0
  6 16  1  0
  7 17  1  0
  8 18  1  0
  9 19  1  0
M  END
