
     RDKit          3D

 19 20  0  0  0  0  0  0  0  0999 V2000
    1.3305    0.7515   -0.5843 C   0  0  0  0  0  0  0  0  0  0  0  0
    1.3480   -0.6826   -0.2781 C   0  0  0  0  0  0  0  0  0  0  0  0
    0.1667   -1.2307    0.4581 C   0  0  0  0  0  0  0  0  0  0  0  0
   -0.0247   -0.5837    1.6714 O   0  0  0  0  0  0  0  0  0  0  0  0
   -0.9795    0.3944    1.4856 C   0  0  0  0  0  0  0  0  0  0  0  0
   -0.8891    0.9537    0.0592 C   0  0  0  0  0  0  0  0  0  0  0  0
   -1.1656   -0.1087   -0.9567 C   0  0  0  0  0  0  0  0  0  0  0  0
   -0.9783   -1.3335   -0.3023 O   0  0  0  0  0  0  0  0  0  0  0  0
    0.3334    1.5153   -0.0874 O   0  0  0  0  0  0  0  0  0  0  0  0
    2.3122    1.1995   -0.2432 H   0  0  0  0  0  0  0  0  0  0  0  0
    1.3680    0.8895   -1.7056 H   0  0  0  0  0  0  0  0  0  0  0  0
    2.2497   -0.9777    0.3388 H   0  0  0  0  0  0  0  0  0  0  0  0
    1.4608   -1.3087   -1.2129 H   0  0  0  0  0  0  0  0  0  0  0  0
    0.4375   -2.2910    0.7487 H   0  0  0  0  0  0  0  0  0  0  0  0
   -1.9664   -0.0443    1.6429 H   0  0  0  0  0  0  0  0  0  0  0  0
   -0.7459    1.2453    2.1598 H   0  0  0  0  0  0  0  0  0  0  0  0
   -1.6903    1.7405    0.0169 H   0  0  0  0  0  0  0  0  0  0  0  0
   -0.4096   -0.1076   -1.7913 H   0  0  0  0  0  0  0  0  0  0  0  0
   -2.1574   -0.0213   -1.4195 H   0  0  0  0  0  0  0  0  0  0  0  0
  1  2  1  0
  2  3  1  0
  3  4  1  0
  4  5  1  0
  5  6  1  0
  6  7  1  0
  7  8  1  0
  6  9  1  0
  9  1  1  0
  8  3  1  0
  1 10  1  0
  1 11  1  0
  2 12  1  0
  2 13  1  0
  3 14  1  0
  5 15  1  0
  5 16  1  0
  6 17  1  0
  7 18  1  0
  7 19  1  0
M  END
