
     RDKit          3D

 21 24  0  0  0  0  0  0  0  0999 V2000
    1.3990    0.9810    0.3203 C   0  0  0  0  0  0  0  0  0  0  0  0
    1.9361   -0.4184    0.2571 C   0  0  0  0  0  0  0  0  0  0  0  0
    0.9501   -1.2659   -0.4673 C   0  0  0  0  0  0  0  0  0  0  0  0
    0.0700   -0.3528   -1.1869 C   0  0  0  0  0  0  0  0  0  0  0  0
    0.1250    0.9790   -0.5073 C   0  0  0  0  0  0  0  0  0  0  0  0
   -1.0265    0.9783    0.4291 C   0  0  0  0  0  0  0  0  0  0  0  0
   -2.3292    0.3676    0.1432 C   0  0  0  0  0  0  0  0  0  0  0  0
   -1.1879   -0.4323    0.7921 C   0  0  0  0  0  0  0  0  0  0  0  0
   -0.4756   -1.3071   -0.1729 C   0  0  0  0  0  0  0  0  0  0  0  0
    1.1783    1.1862    1.4073 H   0  0  0  0  0  0  0  0  0  0  0  0
    2.1273    1.7344   -0.0389 H   0  0  0  0  0  0  0  0  0  0  0  0
    2.1832   -0.8290    1.2712 H   0  0  0  0  0  0  0  0  0  0  0  0
    2.8922   -0.4347   -0.3133 H   0  0  0  0  0  0  0  0  0  0  0  0
    1.3878   -2.1655   -0.9507 H   0  0  0  0  0  0  0  0  0  0  0  0
   -0.1803   -0.4339   -2.2488 H   0  0  0  0  0  0  0  0  0  0  0  0
    0.0994    1.7938   -1.2493 H   0  0  0  0  0  0  0  0  0  0  0  0
   -0.9627    1.7733    1.2268 H   0  0  0  0  0  0  0  0  0  0  0  0
   -2.6721    0.0853   -0.8536 H   0  0  0  0  0  0  0  0  0  0  0  0
   -3.1475    0.6200    0.8428 H   0  0  0  0  0  0  0  0  0  0  0  0
   -1.3008   -0.7102    1.8579 H   0  0  0  0  0  0  0  0  0  0  0  0
   -1.0658   -2.1491   -0.5588 H   0  0  0  0  0  0  0  0  0  0  0  0
  1  2  1  0
  2  3  1  0
  3  4  1  0
  4  5  1  0
  5  6  1  0
  6  7  1  0
  7  8  1  0
  8  9  1  0
  5  1  1  0
  8  6  1  0
  9  3  1  0
  9  4  1  0
  1 10  1  0
  1 11  1  0
  2 12  1  0
  2 13  1  0
  3 14  1  0
  4 15  1  0
  5 16  1  0
  6 17  1  0
  7 18  1  0
  7 19  1  0
  8 20  1  0
  9 21  1  0
M  END
