
     RDKit          3D

 21 23  0  0  0  0  0  0  0  0999 V2000
   -2.8316   -0.5141   -0.2727 C   0  0  0  0  0  0  0  0  0  0  0  0
   -2.5049    0.6507    0.6281 C   0  0  0  0  0  0  0  0  0  0  0  0
   -1.4111   -0.2163    0.1729 C   0  0  0  0  0  0  0  0  0  0  0  0
   -0.4766    0.1611   -0.9346 C   0  0  0  0  0  0  0  0  0  0  0  0
    0.9134    0.4447   -0.4389 C   0  0  0  0  0  0  0  0  0  0  0  0
    1.6882   -0.6095    0.2716 C   0  0  0  0  0  0  0  0  0  0  0  0
    2.9423   -0.1916   -0.5050 C   0  0  0  0  0  0  0  0  0  0  0  0
    2.0340    0.6585   -1.3562 C   0  0  0  0  0  0  0  0  0  0  0  0
    1.4367    1.6970   -0.6777 O   0  0  0  0  0  0  0  0  0  0  0  0
   -3.1166   -0.2434   -1.3158 H   0  0  0  0  0  0  0  0  0  0  0  0
   -3.2501   -1.4364    0.1591 H   0  0  0  0  0  0  0  0  0  0  0  0
   -2.8767    0.5638    1.6577 H   0  0  0  0  0  0  0  0  0  0  0  0
   -2.5443    1.6688    0.1720 H   0  0  0  0  0  0  0  0  0  0  0  0
   -0.9558   -0.8725    0.9418 H   0  0  0  0  0  0  0  0  0  0  0  0
   -0.8332    1.0416   -1.5121 H   0  0  0  0  0  0  0  0  0  0  0  0
   -0.4492   -0.6809   -1.6741 H   0  0  0  0  0  0  0  0  0  0  0  0
    1.8220   -0.5087    1.3546 H   0  0  0  0  0  0  0  0  0  0  0  0
    1.3610   -1.6444   -0.0276 H   0  0  0  0  0  0  0  0  0  0  0  0
    3.5909    0.4844    0.1223 H   0  0  0  0  0  0  0  0  0  0  0  0
    3.4629   -1.0098   -1.0100 H   0  0  0  0  0  0  0  0  0  0  0  0
    1.9986    0.5572   -2.4332 H   0  0  0  0  0  0  0  0  0  0  0  0
  1  2  1  0
  2  3  1  0
  3  4  1  0
  4  5  1  0
  5  6  1  0
  6  7  1  0
  7  8  1  0
  8  9  1  0
  3  1  1  0
  8  5  1  0
  9  5  1  0
  1 10  1  0
  1 11  1  0
  2 12  1  0
  2 13  1  0
  3 14  1  0
  4 15  1  0
  4 16  1  0
  6 17  1  0
  6 18  1  0
  7 19  1  0
  7 20  1  0
  8 21  1  0
M  END
