
     RDKit          3D

 23 23  0  0  0  0  0  0  0  0999 V2000
   -0.2862   -1.7331   -0.1878 C   0  0  0  0  0  0  0  0  0  0  0  0
    0.8877   -1.1127    0.4981 C   0  0  0  0  0  0  0  0  0  0  0  0
    1.6410   -0.1329   -0.3727 C   0  0  0  0  0  0  0  0  0  0  0  0
    1.5862    1.2202    0.3073 C   0  0  0  0  0  0  0  0  0  0  0  0
    0.3108    1.5341    0.7497 O   0  0  0  0  0  0  0  0  0  0  0  0
   -0.5357    1.8439   -0.3210 C   0  0  0  0  0  0  0  0  0  0  0  0
   -1.8114    1.4409    0.0377 O   0  0  0  0  0  0  0  0  0  0  0  0
   -1.7974    0.1366    0.5903 C   0  0  0  0  0  0  0  0  0  0  0  0
   -1.4598   -0.8868   -0.4175 C   0  0  0  0  0  0  0  0  0  0  0  0
    0.0784   -2.1238   -1.1710 H   0  0  0  0  0  0  0  0  0  0  0  0
   -0.5589   -2.6629    0.3923 H   0  0  0  0  0  0  0  0  0  0  0  0
    1.6063   -1.9670    0.6899 H   0  0  0  0  0  0  0  0  0  0  0  0
    0.6676   -0.7075    1.4952 H   0  0  0  0  0  0  0  0  0  0  0  0
    1.2505   -0.0988   -1.4146 H   0  0  0  0  0  0  0  0  0  0  0  0
    2.7213   -0.3871   -0.4680 H   0  0  0  0  0  0  0  0  0  0  0  0
    2.2329    1.1437    1.2201 H   0  0  0  0  0  0  0  0  0  0  0  0
    2.0270    2.0150   -0.3250 H   0  0  0  0  0  0  0  0  0  0  0  0
   -0.5653    2.9121   -0.5398 H   0  0  0  0  0  0  0  0  0  0  0  0
   -0.2281    1.3169   -1.2505 H   0  0  0  0  0  0  0  0  0  0  0  0
   -1.1771    0.1631    1.4893 H   0  0  0  0  0  0  0  0  0  0  0  0
   -2.8577    0.0205    0.9703 H   0  0  0  0  0  0  0  0  0  0  0  0
   -1.3760   -0.3698   -1.4196 H   0  0  0  0  0  0  0  0  0  0  0  0
   -2.3563   -1.5645   -0.5527 H   0  0  0  0  0  0  0  0  0  0  0  0
  1  2  1  0
  2  3  1  0
  3  4  1  0
  4  5  1  0
  5  6  1  0
  6  7  1  0
  7  8  1  0
  8  9  1  0
  9  1  1  0
  1 10  1  0
  1 11  1  0
  2 12  1  0
  2 13  1  0
  3 14  1  0
  3 15  1  0
  4 16  1  0
  4 17  1  0
  6 18  1  0
  6 19  1  0
  8 20  1  0
  8 21  1  0
  9 22  1  0
  9 23  1  0
M  END
