
     RDKit          3D

 17 20  0  0  0  0  0  0  0  0999 V2000
    1.7869   -0.1228   -0.4003 C   0  0  0  0  0  0  0  0  0  0  0  0
    1.0743    0.7097    0.6358 C   0  0  0  0  0  0  0  0  0  0  0  0
   -0.2871    0.1059    0.6840 C   0  0  0  0  0  0  0  0  0  0  0  0
   -0.5294   -1.3420    0.7577 C   0  0  0  0  0  0  0  0  0  0  0  0
   -0.3727   -0.6877   -0.5558 C   0  0  0  0  0  0  0  0  0  0  0  0
    0.8533   -0.7718   -1.1534 O   0  0  0  0  0  0  0  0  0  0  0  0
   -1.3355    0.2754   -1.1228 C   0  0  0  0  0  0  0  0  0  0  0  0
   -1.2352    1.6432   -0.9137 O   0  0  0  0  0  0  0  0  0  0  0  0
   -1.4662    0.9308    0.2242 C   0  0  0  0  0  0  0  0  0  0  0  0
    2.4811   -0.8503    0.0560 H   0  0  0  0  0  0  0  0  0  0  0  0
    2.4110    0.5365   -1.0614 H   0  0  0  0  0  0  0  0  0  0  0  0
    1.6171    0.7164    1.5877 H   0  0  0  0  0  0  0  0  0  0  0  0
    0.9710    1.7421    0.1888 H   0  0  0  0  0  0  0  0  0  0  0  0
   -1.5603   -1.6497    1.0236 H   0  0  0  0  0  0  0  0  0  0  0  0
    0.2477   -2.0343    1.0687 H   0  0  0  0  0  0  0  0  0  0  0  0
   -2.2101   -0.0172   -1.7019 H   0  0  0  0  0  0  0  0  0  0  0  0
   -2.4460    0.8158    0.6827 H   0  0  0  0  0  0  0  0  0  0  0  0
  1  2  1  0
  2  3  1  0
  3  4  1  0
  4  5  1  0
  5  6  1  0
  5  7  1  0
  7  8  1  0
  8  9  1  0
  6  1  1  0
  9  7  1  0
  5  3  1  0
  9  3  1  0
  1 10  1  0
  1 11  1  0
  2 12  1  0
  2 13  1  0
  4 14  1  0
  4 15  1  0
  7 16  1  0
  9 17  1  0
M  END
