
     RDKit          3D

 23 25  0  0  0  0  0  0  0  0999 V2000
   -2.1587    0.5089   -0.5909 C   0  0  0  0  0  0  0  0  0  0  0  0
   -2.0158   -0.0371    0.8148 C   0  0  0  0  0  0  0  0  0  0  0  0
   -0.5604    0.3385    1.1206 C   0  0  0  0  0  0  0  0  0  0  0  0
    0.1096   -0.0373   -0.1579 C   0  0  0  0  0  0  0  0  0  0  0  0
   -0.8941    0.0364   -1.2576 C   0  0  0  0  0  0  0  0  0  0  0  0
    0.8428   -1.3520   -0.0100 C   0  0  0  0  0  0  0  0  0  0  0  0
    2.1674   -0.6819   -0.0136 C   0  0  0  0  0  0  0  0  0  0  0  0
    2.4310    0.6264    0.5932 C   0  0  0  0  0  0  0  0  0  0  0  0
    1.4119    0.6101   -0.4731 C   0  0  0  0  0  0  0  0  0  0  0  0
   -3.0761    0.1329   -1.0809 H   0  0  0  0  0  0  0  0  0  0  0  0
   -2.2479    1.5985   -0.5270 H   0  0  0  0  0  0  0  0  0  0  0  0
   -2.0870   -1.1439    0.8376 H   0  0  0  0  0  0  0  0  0  0  0  0
   -2.7012    0.4705    1.5056 H   0  0  0  0  0  0  0  0  0  0  0  0
   -0.4528    1.3796    1.4215 H   0  0  0  0  0  0  0  0  0  0  0  0
   -0.2525   -0.3316    1.9762 H   0  0  0  0  0  0  0  0  0  0  0  0
   -1.0680   -0.8979   -1.7983 H   0  0  0  0  0  0  0  0  0  0  0  0
   -0.5949    0.8570   -1.9721 H   0  0  0  0  0  0  0  0  0  0  0  0
    0.6413   -1.9668   -0.9352 H   0  0  0  0  0  0  0  0  0  0  0  0
    0.5440   -1.9284    0.8633 H   0  0  0  0  0  0  0  0  0  0  0  0
    2.8998   -1.0890   -0.7332 H   0  0  0  0  0  0  0  0  0  0  0  0
    3.3940    1.1052    0.3292 H   0  0  0  0  0  0  0  0  0  0  0  0
    2.0692    0.9190    1.5965 H   0  0  0  0  0  0  0  0  0  0  0  0
    1.5984    0.8830   -1.5085 H   0  0  0  0  0  0  0  0  0  0  0  0
  1  2  1  0
  2  3  1  0
  3  4  1  0
  4  5  1  0
  4  6  1  0
  6  7  1  0
  7  8  1  0
  8  9  1  0
  5  1  1  0
  9  7  1  0
  9  4  1  0
  1 10  1  0
  1 11  1  0
  2 12  1  0
  2 13  1  0
  3 14  1  0
  3 15  1  0
  5 16  1  0
  5 17  1  0
  6 18  1  0
  6 19  1  0
  7 20  1  0
  8 21  1  0
  8 22  1  0
  9 23  1  0
M  END
