
     RDKit          3D

 21 22  0  0  0  0  0  0  0  0999 V2000
    1.6047    0.0630    0.3009 C   0  0  0  0  0  0  0  0  0  0  0  0
    1.0443    0.7798   -0.8780 C   0  0  0  0  0  0  0  0  0  0  0  0
   -0.4141    1.0523   -0.8199 C   0  0  0  0  0  0  0  0  0  0  0  0
   -0.9356    1.3590    0.5579 C   0  0  0  0  0  0  0  0  0  0  0  0
   -0.6308    0.3419    1.4431 O   0  0  0  0  0  0  0  0  0  0  0  0
   -0.5697   -0.8876    0.8359 C   0  0  0  0  0  0  0  0  0  0  0  0
    0.8793   -1.2538    0.5309 C   0  0  0  0  0  0  0  0  0  0  0  0
   -1.3876   -1.0029   -0.4155 C   0  0  0  0  0  0  0  0  0  0  0  0
   -1.1808    0.0010   -1.3260 O   0  0  0  0  0  0  0  0  0  0  0  0
    1.5724    0.6384    1.2332 H   0  0  0  0  0  0  0  0  0  0  0  0
    2.6608   -0.2163    0.0535 H   0  0  0  0  0  0  0  0  0  0  0  0
    1.6057    1.7454   -0.9867 H   0  0  0  0  0  0  0  0  0  0  0  0
    1.2264    0.1243   -1.7788 H   0  0  0  0  0  0  0  0  0  0  0  0
   -0.6249    1.9273   -1.4855 H   0  0  0  0  0  0  0  0  0  0  0  0
   -0.5530    2.3362    0.8564 H   0  0  0  0  0  0  0  0  0  0  0  0
   -2.0607    1.3562    0.4590 H   0  0  0  0  0  0  0  0  0  0  0  0
   -0.9496   -1.6404    1.5530 H   0  0  0  0  0  0  0  0  0  0  0  0
    1.3148   -1.7893    1.3863 H   0  0  0  0  0  0  0  0  0  0  0  0
    0.9293   -1.8337   -0.4227 H   0  0  0  0  0  0  0  0  0  0  0  0
   -2.4601   -1.1371   -0.1848 H   0  0  0  0  0  0  0  0  0  0  0  0
   -1.0710   -1.9636   -0.9122 H   0  0  0  0  0  0  0  0  0  0  0  0
  1  2  1  0
  2  3  1  0
  3  4  1  0
  4  5  1  0
  5  6  1  0
  6  7  1  0
  6  8  1  0
  8  9  1  0
  7  1  1  0
  9  3  1  0
  1 10  1  0
  1 11  1  0
  2 12  1  0
  2 13  1  0
  3 14  1  0
  4 15  1  0
  4 16  1  0
  6 17  1  0
  7 18  1  0
  7 19  1  0
  8 20  1  0
  8 21  1  0
M  END
