
     RDKit          3D

 23 25  0  0  0  0  0  0  0  0999 V2000
    1.6494   -0.3664    0.2096 C   0  0  0  0  0  0  0  0  0  0  0  0
    1.3329    0.9955   -0.2871 C   0  0  0  0  0  0  0  0  0  0  0  0
   -0.1038    1.3087   -0.4522 C   0  0  0  0  0  0  0  0  0  0  0  0
   -0.9403    1.3827    0.7844 C   0  0  0  0  0  0  0  0  0  0  0  0
   -1.4080   -0.0279    0.5064 C   0  0  0  0  0  0  0  0  0  0  0  0
   -0.5041   -1.0538    1.1007 C   0  0  0  0  0  0  0  0  0  0  0  0
    0.5232   -1.3633    0.0235 C   0  0  0  0  0  0  0  0  0  0  0  0
   -0.2220   -1.0710   -1.2498 C   0  0  0  0  0  0  0  0  0  0  0  0
   -0.9559    0.1824   -0.9377 C   0  0  0  0  0  0  0  0  0  0  0  0
    2.5537   -0.7879   -0.2959 H   0  0  0  0  0  0  0  0  0  0  0  0
    1.8831   -0.3887    1.3150 H   0  0  0  0  0  0  0  0  0  0  0  0
    1.7897    1.8056    0.3481 H   0  0  0  0  0  0  0  0  0  0  0  0
    1.8297    1.1197   -1.2846 H   0  0  0  0  0  0  0  0  0  0  0  0
   -0.2361    2.2438   -1.0531 H   0  0  0  0  0  0  0  0  0  0  0  0
   -1.8261    2.0744    0.6696 H   0  0  0  0  0  0  0  0  0  0  0  0
   -0.4295    1.5526    1.7322 H   0  0  0  0  0  0  0  0  0  0  0  0
   -2.4776   -0.2066    0.5288 H   0  0  0  0  0  0  0  0  0  0  0  0
   -0.0020   -0.5707    1.9902 H   0  0  0  0  0  0  0  0  0  0  0  0
   -0.9972   -1.9616    1.4563 H   0  0  0  0  0  0  0  0  0  0  0  0
    0.8784   -2.3915    0.0435 H   0  0  0  0  0  0  0  0  0  0  0  0
    0.4127   -1.0225   -2.1422 H   0  0  0  0  0  0  0  0  0  0  0  0
   -0.9876   -1.8879   -1.3652 H   0  0  0  0  0  0  0  0  0  0  0  0
   -1.7627    0.4343   -1.6403 H   0  0  0  0  0  0  0  0  0  0  0  0
  1  2  1  0
  2  3  1  0
  3  4  1  0
  4  5  1  0
  5  6  1  0
  6  7  1  0
  7  8  1  0
  8  9  1  0
  7  1  1  0
  9  3  1  0
  9  5  1  0
  1 10  1  0
  1 11  1  0
  2 12  1  0
  2 13  1  0
  3 14  1  0
  4 15  1  0
  4 16  1  0
  5 17  1  0
  6 18  1  0
  6 19  1  0
  7 20  1  0
  8 21  1  0
  8 22  1  0
  9 23  1  0
M  END
