
     RDKit          3D

 21 23  0  0  0  0  0  0  0  0999 V2000
   -1.4782   -0.7934    0.0951 C   0  0  0  0  0  0  0  0  0  0  0  0
   -1.5390    0.6892   -0.2258 C   0  0  0  0  0  0  0  0  0  0  0  0
   -0.3134    1.3122    0.4416 C   0  0  0  0  0  0  0  0  0  0  0  0
    0.8047    1.2480   -0.5698 C   0  0  0  0  0  0  0  0  0  0  0  0
    1.6700    0.1465   -0.0881 C   0  0  0  0  0  0  0  0  0  0  0  0
    1.0099   -1.1575    0.1245 C   0  0  0  0  0  0  0  0  0  0  0  0
   -0.2721   -1.3818   -0.5488 C   0  0  0  0  0  0  0  0  0  0  0  0
    1.0996   -0.2343    1.2244 C   0  0  0  0  0  0  0  0  0  0  0  0
    0.0431    0.5570    1.5241 O   0  0  0  0  0  0  0  0  0  0  0  0
   -2.3933   -1.2443   -0.3042 H   0  0  0  0  0  0  0  0  0  0  0  0
   -1.4837   -0.8740    1.1979 H   0  0  0  0  0  0  0  0  0  0  0  0
   -2.4704    1.1643    0.0749 H   0  0  0  0  0  0  0  0  0  0  0  0
   -1.4485    0.7890   -1.3342 H   0  0  0  0  0  0  0  0  0  0  0  0
   -0.5179    2.3441    0.7919 H   0  0  0  0  0  0  0  0  0  0  0  0
    1.3582    2.2045   -0.5014 H   0  0  0  0  0  0  0  0  0  0  0  0
    0.4405    1.0442   -1.5899 H   0  0  0  0  0  0  0  0  0  0  0  0
    2.7397    0.2347   -0.2739 H   0  0  0  0  0  0  0  0  0  0  0  0
    1.7303   -2.0246    0.1300 H   0  0  0  0  0  0  0  0  0  0  0  0
   -0.4643   -2.4926   -0.6314 H   0  0  0  0  0  0  0  0  0  0  0  0
   -0.2726   -1.0382   -1.6246 H   0  0  0  0  0  0  0  0  0  0  0  0
    1.7573   -0.4927    2.0877 H   0  0  0  0  0  0  0  0  0  0  0  0
  1  2  1  0
  2  3  1  0
  3  4  1  0
  4  5  1  0
  5  6  1  0
  6  7  1  0
  6  8  1  0
  8  9  1  0
  7  1  1  0
  9  3  1  0
  8  5  1  0
  1 10  1  0
  1 11  1  0
  2 12  1  0
  2 13  1  0
  3 14  1  0
  4 15  1  0
  4 16  1  0
  5 17  1  0
  6 18  1  0
  7 19  1  0
  7 20  1  0
  8 21  1  0
M  END
