
     RDKit          3D

 21 22  0  0  0  0  0  0  0  0999 V2000
   -1.8394   -0.3666   -0.3861 C   0  0  0  0  0  0  0  0  0  0  0  0
   -0.5438   -0.9936   -0.8784 C   0  0  0  0  0  0  0  0  0  0  0  0
    0.4545   -1.1373    0.2283 C   0  0  0  0  0  0  0  0  0  0  0  0
    1.8021   -0.5292   -0.1162 C   0  0  0  0  0  0  0  0  0  0  0  0
    1.7413    0.9570   -0.1394 C   0  0  0  0  0  0  0  0  0  0  0  0
    0.6133    1.5410    0.2886 O   0  0  0  0  0  0  0  0  0  0  0  0
   -0.2577    0.8741    1.0547 C   0  0  0  0  0  0  0  0  0  0  0  0
   -1.6258    0.9050    0.3596 C   0  0  0  0  0  0  0  0  0  0  0  0
    0.0179   -0.4252    1.3629 O   0  0  0  0  0  0  0  0  0  0  0  0
   -2.4814   -0.1608   -1.2593 H   0  0  0  0  0  0  0  0  0  0  0  0
   -2.3583   -1.0838    0.2649 H   0  0  0  0  0  0  0  0  0  0  0  0
   -0.8379   -2.0251   -1.2354 H   0  0  0  0  0  0  0  0  0  0  0  0
   -0.1402   -0.4862   -1.7703 H   0  0  0  0  0  0  0  0  0  0  0  0
    0.6438   -2.1935    0.4939 H   0  0  0  0  0  0  0  0  0  0  0  0
    2.2449   -0.9850   -1.0234 H   0  0  0  0  0  0  0  0  0  0  0  0
    2.4915   -0.8233    0.7254 H   0  0  0  0  0  0  0  0  0  0  0  0
    2.6165    1.4176    0.4048 H   0  0  0  0  0  0  0  0  0  0  0  0
    1.9100    1.2722   -1.2130 H   0  0  0  0  0  0  0  0  0  0  0  0
   -0.3816    1.4279    2.0317 H   0  0  0  0  0  0  0  0  0  0  0  0
   -2.4108    1.0341    1.1324 H   0  0  0  0  0  0  0  0  0  0  0  0
   -1.6590    1.7806   -0.3258 H   0  0  0  0  0  0  0  0  0  0  0  0
  1  2  1  0
  2  3  1  0
  3  4  1  0
  4  5  1  0
  5  6  1  0
  6  7  1  0
  7  8  1  0
  7  9  1  0
  8  1  1  0
  9  3  1  0
  1 10  1  0
  1 11  1  0
  2 12  1  0
  2 13  1  0
  3 14  1  0
  4 15  1  0
  4 16  1  0
  5 17  1  0
  5 18  1  0
  7 19  1  0
  8 20  1  0
  8 21  1  0
M  END
