
     RDKit          3D

 19 21  0  0  0  0  0  0  0  0999 V2000
   -1.3653   -1.0096    0.3851 C   0  0  0  0  0  0  0  0  0  0  0  0
   -1.3594    0.0667   -0.6514 C   0  0  0  0  0  0  0  0  0  0  0  0
   -0.4647    1.2044   -0.3872 C   0  0  0  0  0  0  0  0  0  0  0  0
    0.9763    0.9844   -0.5146 C   0  0  0  0  0  0  0  0  0  0  0  0
    1.4381   -0.4263   -0.5313 C   0  0  0  0  0  0  0  0  0  0  0  0
    0.8467   -1.0175    0.7006 C   0  0  0  0  0  0  0  0  0  0  0  0
   -0.2277   -1.8326    0.3067 O   0  0  0  0  0  0  0  0  0  0  0  0
    0.4006   -0.0027    1.5146 O   0  0  0  0  0  0  0  0  0  0  0  0
    0.3597    1.1632    0.8151 C   0  0  0  0  0  0  0  0  0  0  0  0
   -2.2445   -1.6742    0.2216 H   0  0  0  0  0  0  0  0  0  0  0  0
   -1.4641   -0.5459    1.3880 H   0  0  0  0  0  0  0  0  0  0  0  0
   -2.4162    0.4580   -0.7179 H   0  0  0  0  0  0  0  0  0  0  0  0
   -1.1931   -0.4357   -1.6439 H   0  0  0  0  0  0  0  0  0  0  0  0
   -0.8265    2.2198   -0.7130 H   0  0  0  0  0  0  0  0  0  0  0  0
    1.6615    1.7143   -0.9674 H   0  0  0  0  0  0  0  0  0  0  0  0
    2.5612   -0.4148   -0.4366 H   0  0  0  0  0  0  0  0  0  0  0  0
    1.1832   -0.9220   -1.4667 H   0  0  0  0  0  0  0  0  0  0  0  0
    1.5690   -1.6225    1.3048 H   0  0  0  0  0  0  0  0  0  0  0  0
    0.5653    2.0930    1.3936 H   0  0  0  0  0  0  0  0  0  0  0  0
  1  2  1  0
  2  3  1  0
  3  4  1  0
  4  5  1  0
  5  6  1  0
  6  7  1  0
  6  8  1  0
  8  9  1  0
  7  1  1  0
  9  3  1  0
  9  4  1  0
  1 10  1  0
  1 11  1  0
  2 12  1  0
  2 13  1  0
  3 14  1  0
  4 15  1  0
  5 16  1  0
  5 17  1  0
  6 18  1  0
  9 19  1  0
M  END
