
     RDKit          3D

 21 23  0  0  0  0  0  0  0  0999 V2000
    2.2039    0.6511    0.3507 C   0  0  0  0  0  0  0  0  0  0  0  0
    0.7455    1.0186    0.6673 C   0  0  0  0  0  0  0  0  0  0  0  0
    0.3589   -0.1606   -0.0933 C   0  0  0  0  0  0  0  0  0  0  0  0
    1.7260   -0.5269   -0.4979 C   0  0  0  0  0  0  0  0  0  0  0  0
   -0.6615   -0.1228   -1.1430 C   0  0  0  0  0  0  0  0  0  0  0  0
   -1.9071    0.4452   -0.4731 C   0  0  0  0  0  0  0  0  0  0  0  0
   -1.8097   -0.3968    0.8174 C   0  0  0  0  0  0  0  0  0  0  0  0
   -0.5557   -1.1668    0.4568 C   0  0  0  0  0  0  0  0  0  0  0  0
   -0.8601   -1.5032   -0.8866 O   0  0  0  0  0  0  0  0  0  0  0  0
    2.7782    0.2789    1.1953 H   0  0  0  0  0  0  0  0  0  0  0  0
    2.7156    1.4425   -0.2368 H   0  0  0  0  0  0  0  0  0  0  0  0
    0.5902    0.9006    1.7665 H   0  0  0  0  0  0  0  0  0  0  0  0
    0.4782    2.0291    0.2857 H   0  0  0  0  0  0  0  0  0  0  0  0
    1.8886   -0.3658   -1.5929 H   0  0  0  0  0  0  0  0  0  0  0  0
    2.0359   -1.5069   -0.1520 H   0  0  0  0  0  0  0  0  0  0  0  0
   -0.4567    0.1607   -2.1483 H   0  0  0  0  0  0  0  0  0  0  0  0
   -2.8156    0.1390   -1.0409 H   0  0  0  0  0  0  0  0  0  0  0  0
   -1.8394    1.5103   -0.2690 H   0  0  0  0  0  0  0  0  0  0  0  0
   -1.7070    0.2285    1.7000 H   0  0  0  0  0  0  0  0  0  0  0  0
   -2.6737   -1.0979    0.8424 H   0  0  0  0  0  0  0  0  0  0  0  0
   -0.2344   -1.9568    1.0949 H   0  0  0  0  0  0  0  0  0  0  0  0
  1  2  1  0
  2  3  1  0
  3  4  1  0
  3  5  1  0
  5  6  1  0
  6  7  1  0
  7  8  1  0
  8  9  1  0
  4  1  1  0
  9  5  1  0
  8  3  1  0
  1 10  1  0
  1 11  1  0
  2 12  1  0
  2 13  1  0
  4 14  1  0
  4 15  1  0
  5 16  1  0
  6 17  1  0
  6 18  1  0
  7 19  1  0
  7 20  1  0
  8 21  1  0
M  END
