
     RDKit          3D

 21 23  0  0  0  0  0  0  0  0999 V2000
   -2.3203    0.5614    0.1298 C   0  0  0  0  0  0  0  0  0  0  0  0
   -1.5361   -0.0136   -1.0538 C   0  0  0  0  0  0  0  0  0  0  0  0
   -0.1236    0.2537   -0.6158 C   0  0  0  0  0  0  0  0  0  0  0  0
   -0.0757    0.1288    0.8841 C   0  0  0  0  0  0  0  0  0  0  0  0
   -1.5284   -0.0094    1.2889 C   0  0  0  0  0  0  0  0  0  0  0  0
    0.5886   -0.8699    0.0581 C   0  0  0  0  0  0  0  0  0  0  0  0
    2.0810   -0.8393   -0.0858 C   0  0  0  0  0  0  0  0  0  0  0  0
    2.8686    0.3445    0.4245 C   0  0  0  0  0  0  0  0  0  0  0  0
    2.8831   -0.9359    1.0448 O   0  0  0  0  0  0  0  0  0  0  0  0
   -3.3621    0.2507    0.1304 H   0  0  0  0  0  0  0  0  0  0  0  0
   -2.1601    1.6488    0.1041 H   0  0  0  0  0  0  0  0  0  0  0  0
   -1.7069   -1.1198   -1.1274 H   0  0  0  0  0  0  0  0  0  0  0  0
   -1.7987    0.4685   -1.9960 H   0  0  0  0  0  0  0  0  0  0  0  0
    0.4400    1.0983   -1.0243 H   0  0  0  0  0  0  0  0  0  0  0  0
    0.4962    0.8187    1.5059 H   0  0  0  0  0  0  0  0  0  0  0  0
   -1.8016   -1.0629    1.5008 H   0  0  0  0  0  0  0  0  0  0  0  0
   -1.7595    0.5832    2.1821 H   0  0  0  0  0  0  0  0  0  0  0  0
    0.1614   -1.8852   -0.1208 H   0  0  0  0  0  0  0  0  0  0  0  0
    2.4619   -1.2388   -1.0521 H   0  0  0  0  0  0  0  0  0  0  0  0
    2.4005    1.1753    0.9525 H   0  0  0  0  0  0  0  0  0  0  0  0
    3.7916    0.6428   -0.1160 H   0  0  0  0  0  0  0  0  0  0  0  0
  1  2  1  0
  2  3  1  0
  3  4  1  0
  4  5  1  0
  4  6  1  0
  6  7  1  0
  7  8  1  0
  8  9  1  0
  5  1  1  0
  9  7  1  0
  6  3  1  0
  1 10  1  0
  1 11  1  0
  2 12  1  0
  2 13  1  0
  3 14  1  0
  4 15  1  0
  5 16  1  0
  5 17  1  0
  6 18  1  0
  7 19  1  0
  8 20  1  0
  8 21  1  0
M  END
