
     RDKit          3D

 19 21  0  0  0  0  0  0  0  0999 V2000
   -1.4389    0.3752    0.4514 C   0  0  0  0  0  0  0  0  0  0  0  0
   -1.0955   -1.0675    0.2529 C   0  0  0  0  0  0  0  0  0  0  0  0
   -0.0554   -1.0010   -0.8732 C   0  0  0  0  0  0  0  0  0  0  0  0
   -0.5899    0.0888   -1.6067 O   0  0  0  0  0  0  0  0  0  0  0  0
   -0.5388    1.0666   -0.5825 C   0  0  0  0  0  0  0  0  0  0  0  0
    0.8614    1.2294   -0.0887 C   0  0  0  0  0  0  0  0  0  0  0  0
    1.2742    0.1683    0.9074 C   0  0  0  0  0  0  0  0  0  0  0  0
    1.2970   -0.6191   -0.3714 C   0  0  0  0  0  0  0  0  0  0  0  0
    1.7264    0.5776   -0.9976 O   0  0  0  0  0  0  0  0  0  0  0  0
   -2.4829    0.5556    0.0755 H   0  0  0  0  0  0  0  0  0  0  0  0
   -1.2693    0.7634    1.4511 H   0  0  0  0  0  0  0  0  0  0  0  0
   -1.9650   -1.6688   -0.1369 H   0  0  0  0  0  0  0  0  0  0  0  0
   -0.7304   -1.5881    1.1315 H   0  0  0  0  0  0  0  0  0  0  0  0
   -0.0659   -1.9258   -1.4687 H   0  0  0  0  0  0  0  0  0  0  0  0
   -0.9540    2.0218   -0.9158 H   0  0  0  0  0  0  0  0  0  0  0  0
    1.1835    2.2087    0.2445 H   0  0  0  0  0  0  0  0  0  0  0  0
    2.2647    0.3601    1.3005 H   0  0  0  0  0  0  0  0  0  0  0  0
    0.5635   -0.1054    1.6686 H   0  0  0  0  0  0  0  0  0  0  0  0
    2.0153   -1.4401   -0.4417 H   0  0  0  0  0  0  0  0  0  0  0  0
  1  2  1  0
  2  3  1  0
  3  4  1  0
  4  5  1  0
  5  6  1  0
  6  7  1  0
  7  8  1  0
  8  9  1  0
  5  1  1  0
  9  6  1  0
  8  3  1  0
  1 10  1  0
  1 11  1  0
  2 12  1  0
  2 13  1  0
  3 14  1  0
  5 15  1  0
  6 16  1  0
  7 17  1  0
  7 18  1  0
  8 19  1  0
M  END
