
     RDKit          3D

 23 25  0  0  0  0  0  0  0  0999 V2000
    2.4630   -0.1172   -0.2000 C   0  0  0  0  0  0  0  0  0  0  0  0
    1.4303    0.8012    0.4605 C   0  0  0  0  0  0  0  0  0  0  0  0
    0.3821   -0.1351   -0.0395 C   0  0  0  0  0  0  0  0  0  0  0  0
    1.3598   -1.1706   -0.3766 C   0  0  0  0  0  0  0  0  0  0  0  0
   -0.4506    0.4329   -1.2008 C   0  0  0  0  0  0  0  0  0  0  0  0
   -1.7703    0.5200   -0.4993 C   0  0  0  0  0  0  0  0  0  0  0  0
   -1.8787   -0.8826    0.0843 C   0  0  0  0  0  0  0  0  0  0  0  0
   -0.6933   -0.4136    0.9384 C   0  0  0  0  0  0  0  0  0  0  0  0
   -1.4204    0.9388    0.9350 C   0  0  0  0  0  0  0  0  0  0  0  0
    2.7969    0.3393   -1.1351 H   0  0  0  0  0  0  0  0  0  0  0  0
    3.2522   -0.4415    0.4818 H   0  0  0  0  0  0  0  0  0  0  0  0
    1.4968    0.8059    1.5559 H   0  0  0  0  0  0  0  0  0  0  0  0
    1.3561    1.7974    0.0041 H   0  0  0  0  0  0  0  0  0  0  0  0
    1.3197   -1.5386   -1.4168 H   0  0  0  0  0  0  0  0  0  0  0  0
    1.4803   -2.0109    0.3640 H   0  0  0  0  0  0  0  0  0  0  0  0
   -0.5156   -0.3766   -1.9465 H   0  0  0  0  0  0  0  0  0  0  0  0
   -0.0542    1.3754   -1.5679 H   0  0  0  0  0  0  0  0  0  0  0  0
   -2.6126    0.9541   -0.9552 H   0  0  0  0  0  0  0  0  0  0  0  0
   -2.8234   -0.9724    0.6355 H   0  0  0  0  0  0  0  0  0  0  0  0
   -1.6188   -1.6770   -0.6195 H   0  0  0  0  0  0  0  0  0  0  0  0
   -0.5258   -0.8862    1.8648 H   0  0  0  0  0  0  0  0  0  0  0  0
   -0.7082    1.7599    1.0147 H   0  0  0  0  0  0  0  0  0  0  0  0
   -2.2653    0.8973    1.6181 H   0  0  0  0  0  0  0  0  0  0  0  0
  1  2  1  0
  2  3  1  0
  3  4  1  0
  3  5  1  0
  5  6  1  0
  6  7  1  0
  7  8  1  0
  8  9  1  0
  4  1  1  0
  9  6  1  0
  8  3  1  0
  1 10  1  0
  1 11  1  0
  2 12  1  0
  2 13  1  0
  4 14  1  0
  4 15  1  0
  5 16  1  0
  5 17  1  0
  6 18  1  0
  7 19  1  0
  7 20  1  0
  8 21  1  0
  9 22  1  0
  9 23  1  0
M  END
