
     RDKit          3D

 20 21  0  0  0  0  0  0  0  0999 V2000
   -1.5547    0.4714   -0.9837 C   0  0  0  0  0  0  0  0  0  0  0  0
   -2.0216   -0.2273    0.2679 C   0  0  0  0  0  0  0  0  0  0  0  0
   -0.9457   -1.3076    0.4194 C   0  0  0  0  0  0  0  0  0  0  0  0
    0.3025   -0.7218   -0.1894 C   0  0  0  0  0  0  0  0  0  0  0  0
    1.4018   -0.5257    0.8510 C   0  0  0  0  0  0  0  0  0  0  0  0
    2.6750    0.0535    0.3199 C   0  0  0  0  0  0  0  0  0  0  0  0
    2.5720   -1.2639    0.7030 O   0  0  0  0  0  0  0  0  0  0  0  0
   -0.0716    0.6680   -0.6640 C   0  0  0  0  0  0  0  0  0  0  0  0
   -2.0414    1.4298   -1.1681 H   0  0  0  0  0  0  0  0  0  0  0  0
   -1.5979   -0.2469   -1.8141 H   0  0  0  0  0  0  0  0  0  0  0  0
   -1.8920    0.4587    1.1234 H   0  0  0  0  0  0  0  0  0  0  0  0
   -3.0233   -0.6437    0.1770 H   0  0  0  0  0  0  0  0  0  0  0  0
   -1.2689   -2.1472   -0.2045 H   0  0  0  0  0  0  0  0  0  0  0  0
   -0.8143   -1.5759    1.4858 H   0  0  0  0  0  0  0  0  0  0  0  0
    0.7007   -1.3533   -1.0235 H   0  0  0  0  0  0  0  0  0  0  0  0
    1.0561   -0.2638    1.8565 H   0  0  0  0  0  0  0  0  0  0  0  0
    3.2749    0.7607    0.9555 H   0  0  0  0  0  0  0  0  0  0  0  0
    2.7728    0.3006   -0.7558 H   0  0  0  0  0  0  0  0  0  0  0  0
    0.4880    0.9922   -1.5479 H   0  0  0  0  0  0  0  0  0  0  0  0
   -0.0123    1.3434    0.1918 H   0  0  0  0  0  0  0  0  0  0  0  0
  1  2  1  0
  2  3  1  0
  3  4  1  0
  4  5  1  0
  5  6  1  0
  6  7  1  0
  4  8  1  0
  8  1  1  0
  7  5  1  0
  1  9  1  0
  1 10  1  0
  2 11  1  0
  2 12  1  0
  3 13  1  0
  3 14  1  0
  4 15  1  0
  5 16  1  0
  6 17  1  0
  6 18  1  0
  8 19  1  0
  8 20  1  0
M  END
