
     RDKit          3D

 23 24  0  0  0  0  0  0  0  0999 V2000
   -2.1032   -0.1037   -0.4895 C   0  0  0  0  0  0  0  0  0  0  0  0
   -1.4244    1.0803    0.1378 C   0  0  0  0  0  0  0  0  0  0  0  0
   -0.5643    0.5944    1.2673 C   0  0  0  0  0  0  0  0  0  0  0  0
    0.5729   -0.1997    0.6920 C   0  0  0  0  0  0  0  0  0  0  0  0
    1.6492    0.8147    0.2828 C   0  0  0  0  0  0  0  0  0  0  0  0
    2.8934    0.2187   -0.3258 C   0  0  0  0  0  0  0  0  0  0  0  0
    1.9484    0.8710   -1.0803 O   0  0  0  0  0  0  0  0  0  0  0  0
    0.2220   -1.0642   -0.4509 C   0  0  0  0  0  0  0  0  0  0  0  0
   -1.2251   -1.2754   -0.7060 C   0  0  0  0  0  0  0  0  0  0  0  0
   -2.6292    0.2616   -1.3959 H   0  0  0  0  0  0  0  0  0  0  0  0
   -2.9286   -0.4172    0.2144 H   0  0  0  0  0  0  0  0  0  0  0  0
   -0.8531    1.6724   -0.5761 H   0  0  0  0  0  0  0  0  0  0  0  0
   -2.2182    1.7245    0.5681 H   0  0  0  0  0  0  0  0  0  0  0  0
   -0.1330    1.4797    1.7796 H   0  0  0  0  0  0  0  0  0  0  0  0
   -1.1450   -0.0385    1.9399 H   0  0  0  0  0  0  0  0  0  0  0  0
    0.9971   -0.8085    1.5233 H   0  0  0  0  0  0  0  0  0  0  0  0
    1.6835    1.7829    0.7810 H   0  0  0  0  0  0  0  0  0  0  0  0
    3.8293    0.7677   -0.0534 H   0  0  0  0  0  0  0  0  0  0  0  0
    2.9202   -0.8776   -0.4486 H   0  0  0  0  0  0  0  0  0  0  0  0
    0.6999   -2.0750   -0.3436 H   0  0  0  0  0  0  0  0  0  0  0  0
    0.6861   -0.6449   -1.3896 H   0  0  0  0  0  0  0  0  0  0  0  0
   -1.3277   -1.5804   -1.7899 H   0  0  0  0  0  0  0  0  0  0  0  0
   -1.5501   -2.1828   -0.1364 H   0  0  0  0  0  0  0  0  0  0  0  0
  1  2  1  0
  2  3  1  0
  3  4  1  0
  4  5  1  0
  5  6  1  0
  6  7  1  0
  4  8  1  0
  8  9  1  0
  9  1  1  0
  7  5  1  0
  1 10  1  0
  1 11  1  0
  2 12  1  0
  2 13  1  0
  3 14  1  0
  3 15  1  0
  4 16  1  0
  5 17  1  0
  6 18  1  0
  6 19  1  0
  8 20  1  0
  8 21  1  0
  9 22  1  0
  9 23  1  0
M  END
