
     RDKit          3D

 18 19  0  0  0  0  0  0  0  0999 V2000
    1.9396    0.0629    0.0258 C   0  0  0  0  0  0  0  0  0  0  0  0
    1.0913   -1.1149   -0.3004 C   0  0  0  0  0  0  0  0  0  0  0  0
   -0.0458   -0.8488   -1.0153 O   0  0  0  0  0  0  0  0  0  0  0  0
   -1.1079   -0.8369   -0.1474 C   0  0  0  0  0  0  0  0  0  0  0  0
   -2.1740    0.1802   -0.1818 C   0  0  0  0  0  0  0  0  0  0  0  0
   -0.9673    0.4649    0.6708 C   0  0  0  0  0  0  0  0  0  0  0  0
    0.0386    1.3892    0.0660 C   0  0  0  0  0  0  0  0  0  0  0  0
    1.2976    1.1477    0.5264 O   0  0  0  0  0  0  0  0  0  0  0  0
    2.6913   -0.2719    0.7942 H   0  0  0  0  0  0  0  0  0  0  0  0
    2.5679    0.3393   -0.8690 H   0  0  0  0  0  0  0  0  0  0  0  0
    0.8892   -1.6670    0.6495 H   0  0  0  0  0  0  0  0  0  0  0  0
    1.7168   -1.8170   -0.9173 H   0  0  0  0  0  0  0  0  0  0  0  0
   -1.2784   -1.7734    0.4076 H   0  0  0  0  0  0  0  0  0  0  0  0
   -2.3301    0.8041   -1.0921 H   0  0  0  0  0  0  0  0  0  0  0  0
   -3.0850   -0.0595    0.4041 H   0  0  0  0  0  0  0  0  0  0  0  0
   -1.0063    0.2972    1.7575 H   0  0  0  0  0  0  0  0  0  0  0  0
   -0.2267    2.4464    0.2711 H   0  0  0  0  0  0  0  0  0  0  0  0
   -0.0107    1.2574   -1.0497 H   0  0  0  0  0  0  0  0  0  0  0  0
  1  2  1  0
  2  3  1  0
  3  4  1  0
  4  5  1  0
  5  6  1  0
  6  7  1  0
  7  8  1  0
  8  1  1  0
  6  4  1  0
  1  9  1  0
  1 10  1  0
  2 11  1  0
  2 12  1  0
  4 13  1  0
  5 14  1  0
  5 15  1  0
  6 16  1  0
  7 17  1  0
  7 18  1  0
M  END
