
     RDKit          3D

 19 20  0  0  0  0  0  0  0  0999 V2000
   -2.0576   -0.2809   -0.1693 C   0  0  0  0  0  0  0  0  0  0  0  0
   -1.0684   -1.2589    0.4237 C   0  0  0  0  0  0  0  0  0  0  0  0
    0.1138   -1.1912   -0.2756 O   0  0  0  0  0  0  0  0  0  0  0  0
    1.1456   -0.5947    0.4019 C   0  0  0  0  0  0  0  0  0  0  0  0
    2.3721   -0.3244   -0.4680 C   0  0  0  0  0  0  0  0  0  0  0  0
    1.4914    0.7695    0.0322 C   0  0  0  0  0  0  0  0  0  0  0  0
    0.6522    1.4108   -0.8458 O   0  0  0  0  0  0  0  0  0  0  0  0
   -0.6705    1.4521   -0.4424 C   0  0  0  0  0  0  0  0  0  0  0  0
   -1.4163    0.5091   -1.1491 O   0  0  0  0  0  0  0  0  0  0  0  0
   -2.3848    0.4549    0.6134 H   0  0  0  0  0  0  0  0  0  0  0  0
   -2.9309   -0.7656   -0.6023 H   0  0  0  0  0  0  0  0  0  0  0  0
   -0.9399   -1.1233    1.5216 H   0  0  0  0  0  0  0  0  0  0  0  0
   -1.4970   -2.2886    0.2994 H   0  0  0  0  0  0  0  0  0  0  0  0
    1.3454   -0.8984    1.4529 H   0  0  0  0  0  0  0  0  0  0  0  0
    2.3328   -0.5774   -1.5383 H   0  0  0  0  0  0  0  0  0  0  0  0
    3.3689   -0.4769   -0.0167 H   0  0  0  0  0  0  0  0  0  0  0  0
    1.9647    1.4204    0.8012 H   0  0  0  0  0  0  0  0  0  0  0  0
   -1.1141    2.4448   -0.6823 H   0  0  0  0  0  0  0  0  0  0  0  0
   -0.7077    1.3188    0.6436 H   0  0  0  0  0  0  0  0  0  0  0  0
  1  2  1  0
  2  3  1  0
  3  4  1  0
  4  5  1  0
  5  6  1  0
  6  7  1  0
  7  8  1  0
  8  9  1  0
  9  1  1  0
  6  4  1  0
  1 10  1  0
  1 11  1  0
  2 12  1  0
  2 13  1  0
  4 14  1  0
  5 15  1  0
  5 16  1  0
  6 17  1  0
  8 18  1  0
  8 19  1  0
M  END
