
     RDKit          3D

 20 21  0  0  0  0  0  0  0  0999 V2000
    2.3244    0.3086   -0.2032 C   0  0  0  0  0  0  0  0  0  0  0  0
    1.8889   -1.1085    0.0614 C   0  0  0  0  0  0  0  0  0  0  0  0
    0.5389   -1.1126    0.2809 O   0  0  0  0  0  0  0  0  0  0  0  0
    0.0281    0.0979   -0.2326 C   0  0  0  0  0  0  0  0  0  0  0  0
   -1.3079    0.3071    0.4274 C   0  0  0  0  0  0  0  0  0  0  0  0
   -2.2892   -0.8330    0.1334 C   0  0  0  0  0  0  0  0  0  0  0  0
   -2.5359    0.5393   -0.3556 C   0  0  0  0  0  0  0  0  0  0  0  0
    1.0772    1.0741    0.2646 C   0  0  0  0  0  0  0  0  0  0  0  0
    3.2205    0.6134    0.3242 H   0  0  0  0  0  0  0  0  0  0  0  0
    2.3602    0.4689   -1.3052 H   0  0  0  0  0  0  0  0  0  0  0  0
    2.4734   -1.4691    0.9539 H   0  0  0  0  0  0  0  0  0  0  0  0
    2.1131   -1.7976   -0.7690 H   0  0  0  0  0  0  0  0  0  0  0  0
   -0.0089    0.0356   -1.3200 H   0  0  0  0  0  0  0  0  0  0  0  0
   -1.2596    0.7069    1.4540 H   0  0  0  0  0  0  0  0  0  0  0  0
   -2.0331   -1.5821   -0.6188 H   0  0  0  0  0  0  0  0  0  0  0  0
   -2.7654   -1.2308    1.0447 H   0  0  0  0  0  0  0  0  0  0  0  0
   -3.3281    1.1433    0.1375 H   0  0  0  0  0  0  0  0  0  0  0  0
   -2.5169    0.7082   -1.4576 H   0  0  0  0  0  0  0  0  0  0  0  0
    1.0077    2.0619   -0.1906 H   0  0  0  0  0  0  0  0  0  0  0  0
    1.0124    1.0687    1.3708 H   0  0  0  0  0  0  0  0  0  0  0  0
  1  2  1  0
  2  3  1  0
  3  4  1  0
  4  5  1  0
  5  6  1  0
  6  7  1  0
  4  8  1  0
  8  1  1  0
  7  5  1  0
  1  9  1  0
  1 10  1  0
  2 11  1  0
  2 12  1  0
  4 13  1  0
  5 14  1  0
  6 15  1  0
  6 16  1  0
  7 17  1  0
  7 18  1  0
  8 19  1  0
  8 20  1  0
M  END
