
     RDKit          3D

 21 23  0  0  0  0  0  0  0  0999 V2000
    2.3828    0.2255    0.3125 C   0  0  0  0  0  0  0  0  0  0  0  0
    1.6957    1.3506   -0.4379 C   0  0  0  0  0  0  0  0  0  0  0  0
    0.8007    0.7188   -1.3294 O   0  0  0  0  0  0  0  0  0  0  0  0
    0.2000   -0.1982   -0.4345 C   0  0  0  0  0  0  0  0  0  0  0  0
    1.3967   -0.9250    0.0889 C   0  0  0  0  0  0  0  0  0  0  0  0
   -1.0518   -0.8090   -0.6598 C   0  0  0  0  0  0  0  0  0  0  0  0
   -2.2005   -1.0262    0.3256 C   0  0  0  0  0  0  0  0  0  0  0  0
   -2.2922    0.5031    0.1235 C   0  0  0  0  0  0  0  0  0  0  0  0
   -0.7984    0.3343    0.4194 C   0  0  0  0  0  0  0  0  0  0  0  0
    3.3615    0.0272   -0.1329 H   0  0  0  0  0  0  0  0  0  0  0  0
    2.4273    0.4085    1.3955 H   0  0  0  0  0  0  0  0  0  0  0  0
    1.0931    1.9090    0.3309 H   0  0  0  0  0  0  0  0  0  0  0  0
    2.3989    2.0092   -0.9638 H   0  0  0  0  0  0  0  0  0  0  0  0
    1.2291   -1.5156    0.9890 H   0  0  0  0  0  0  0  0  0  0  0  0
    1.8485   -1.5242   -0.7550 H   0  0  0  0  0  0  0  0  0  0  0  0
   -1.5446   -0.4183   -1.6107 H   0  0  0  0  0  0  0  0  0  0  0  0
   -1.9086   -1.2517    1.3521 H   0  0  0  0  0  0  0  0  0  0  0  0
   -3.0258   -1.5873   -0.1048 H   0  0  0  0  0  0  0  0  0  0  0  0
   -2.8104    1.0332    0.9122 H   0  0  0  0  0  0  0  0  0  0  0  0
   -2.4687    0.8013   -0.9156 H   0  0  0  0  0  0  0  0  0  0  0  0
   -0.7332   -0.0653    1.4825 H   0  0  0  0  0  0  0  0  0  0  0  0
  1  2  1  0
  2  3  1  0
  3  4  1  0
  4  5  1  0
  4  6  1  0
  6  7  1  0
  7  8  1  0
  8  9  1  0
  5  1  1  0
  9  6  1  0
  9  4  1  0
  1 10  1  0
  1 11  1  0
  2 12  1  0
  2 13  1  0
  5 14  1  0
  5 15  1  0
  6 16  1  0
  7 17  1  0
  7 18  1  0
  8 19  1  0
  8 20  1  0
  9 21  1  0
M  END
