
     RDKit          3D

 21 22  0  0  0  0  0  0  0  0999 V2000
    1.3768    1.0297    0.1748 C   0  0  0  0  0  0  0  0  0  0  0  0
    1.8436   -0.1970   -0.5044 C   0  0  0  0  0  0  0  0  0  0  0  0
    1.4635   -1.3829    0.1515 O   0  0  0  0  0  0  0  0  0  0  0  0
    0.2617   -1.8335   -0.4344 C   0  0  0  0  0  0  0  0  0  0  0  0
   -0.8210   -0.9147    0.0321 C   0  0  0  0  0  0  0  0  0  0  0  0
   -2.0926   -1.1535   -0.4435 O   0  0  0  0  0  0  0  0  0  0  0  0
   -2.2747    0.2507   -0.4194 C   0  0  0  0  0  0  0  0  0  0  0  0
   -0.8036    0.3539   -0.8118 C   0  0  0  0  0  0  0  0  0  0  0  0
   -0.0327    1.4317   -0.1275 C   0  0  0  0  0  0  0  0  0  0  0  0
    1.4874    0.9241    1.2690 H   0  0  0  0  0  0  0  0  0  0  0  0
    2.0665    1.8765   -0.1090 H   0  0  0  0  0  0  0  0  0  0  0  0
    2.9699   -0.2055   -0.4716 H   0  0  0  0  0  0  0  0  0  0  0  0
    1.5297   -0.2455   -1.5732 H   0  0  0  0  0  0  0  0  0  0  0  0
    0.3941   -1.8538   -1.5281 H   0  0  0  0  0  0  0  0  0  0  0  0
    0.0537   -2.8441   -0.0328 H   0  0  0  0  0  0  0  0  0  0  0  0
   -0.7555   -0.6773    1.0962 H   0  0  0  0  0  0  0  0  0  0  0  0
   -2.3984    0.5784    0.6377 H   0  0  0  0  0  0  0  0  0  0  0  0
   -2.9786    0.6405   -1.1490 H   0  0  0  0  0  0  0  0  0  0  0  0
   -0.6159    0.1794   -1.8697 H   0  0  0  0  0  0  0  0  0  0  0  0
   -0.0742    2.3389   -0.7946 H   0  0  0  0  0  0  0  0  0  0  0  0
   -0.5998    1.7039    0.8044 H   0  0  0  0  0  0  0  0  0  0  0  0
  1  2  1  0
  2  3  1  0
  3  4  1  0
  4  5  1  0
  5  6  1  0
  6  7  1  0
  7  8  1  0
  8  9  1  0
  9  1  1  0
  8  5  1  0
  1 10  1  0
  1 11  1  0
  2 12  1  0
  2 13  1  0
  4 14  1  0
  4 15  1  0
  5 16  1  0
  7 17  1  0
  7 18  1  0
  8 19  1  0
  9 20  1  0
  9 21  1  0
M  END
