
     RDKit          3D

 19 21  0  0  0  0  0  0  0  0999 V2000
    1.2572   -0.4863   -1.1987 C   0  0  0  0  0  0  0  0  0  0  0  0
    1.7632    0.6440   -0.3271 C   0  0  0  0  0  0  0  0  0  0  0  0
    1.2460    0.5396    0.9704 O   0  0  0  0  0  0  0  0  0  0  0  0
   -0.0976    0.2620    0.9954 C   0  0  0  0  0  0  0  0  0  0  0  0
   -1.0945    1.0885    0.2669 C   0  0  0  0  0  0  0  0  0  0  0  0
   -1.5863   -0.1492   -0.4783 C   0  0  0  0  0  0  0  0  0  0  0  0
   -0.5128   -0.9287    0.2071 C   0  0  0  0  0  0  0  0  0  0  0  0
   -0.5679   -0.9454    1.7083 C   0  0  0  0  0  0  0  0  0  0  0  0
    0.5628   -1.4343   -0.4713 O   0  0  0  0  0  0  0  0  0  0  0  0
    0.6142   -0.0431   -1.9873 H   0  0  0  0  0  0  0  0  0  0  0  0
    2.0959   -0.9772   -1.7165 H   0  0  0  0  0  0  0  0  0  0  0  0
    1.5215    1.6457   -0.7521 H   0  0  0  0  0  0  0  0  0  0  0  0
    2.8730    0.5208   -0.2142 H   0  0  0  0  0  0  0  0  0  0  0  0
   -0.6034    1.7993   -0.4429 H   0  0  0  0  0  0  0  0  0  0  0  0
   -1.8806    1.5385    0.9108 H   0  0  0  0  0  0  0  0  0  0  0  0
   -2.6287   -0.4147   -0.2093 H   0  0  0  0  0  0  0  0  0  0  0  0
   -1.4813   -0.1033   -1.5733 H   0  0  0  0  0  0  0  0  0  0  0  0
    0.1138   -1.6571    2.1809 H   0  0  0  0  0  0  0  0  0  0  0  0
   -1.5946   -0.8991    2.1312 H   0  0  0  0  0  0  0  0  0  0  0  0
  1  2  1  0
  2  3  1  0
  3  4  1  0
  4  5  1  0
  5  6  1  0
  6  7  1  0
  7  8  1  0
  7  9  1  0
  9  1  1  0
  7  4  1  0
  8  4  1  0
  1 10  1  0
  1 11  1  0
  2 12  1  0
  2 13  1  0
  5 14  1  0
  5 15  1  0
  6 16  1  0
  6 17  1  0
  8 18  1  0
  8 19  1  0
M  END
