
     RDKit          3D

 21 22  0  0  0  0  0  0  0  0999 V2000
    1.3094    1.1177    0.2803 C   0  0  0  0  0  0  0  0  0  0  0  0
    2.1754   -0.0662   -0.1135 C   0  0  0  0  0  0  0  0  0  0  0  0
    1.4972   -1.2778    0.0349 O   0  0  0  0  0  0  0  0  0  0  0  0
    0.2588   -1.2208   -0.6299 C   0  0  0  0  0  0  0  0  0  0  0  0
   -0.6607   -0.2658    0.0542 C   0  0  0  0  0  0  0  0  0  0  0  0
    0.1341    0.5280    1.0686 C   0  0  0  0  0  0  0  0  0  0  0  0
   -1.9785   -0.7781    0.5091 C   0  0  0  0  0  0  0  0  0  0  0  0
   -2.5648    0.4352    0.0912 O   0  0  0  0  0  0  0  0  0  0  0  0
   -1.5050    0.6109   -0.8062 C   0  0  0  0  0  0  0  0  0  0  0  0
    0.8561    1.4920   -0.6703 H   0  0  0  0  0  0  0  0  0  0  0  0
    1.8449    1.8827    0.8382 H   0  0  0  0  0  0  0  0  0  0  0  0
    2.5992    0.0534   -1.1411 H   0  0  0  0  0  0  0  0  0  0  0  0
    3.0392   -0.0620    0.5794 H   0  0  0  0  0  0  0  0  0  0  0  0
   -0.1555   -2.2443   -0.7125 H   0  0  0  0  0  0  0  0  0  0  0  0
    0.4796   -0.8576   -1.6690 H   0  0  0  0  0  0  0  0  0  0  0  0
   -0.4918    1.3005    1.5109 H   0  0  0  0  0  0  0  0  0  0  0  0
    0.5672   -0.1007    1.8645 H   0  0  0  0  0  0  0  0  0  0  0  0
   -2.3669   -1.5891   -0.1170 H   0  0  0  0  0  0  0  0  0  0  0  0
   -2.1406   -0.8653    1.6026 H   0  0  0  0  0  0  0  0  0  0  0  0
   -1.7128    0.2269   -1.8210 H   0  0  0  0  0  0  0  0  0  0  0  0
   -1.1844    1.6804   -0.7536 H   0  0  0  0  0  0  0  0  0  0  0  0
  1  2  1  0
  2  3  1  0
  3  4  1  0
  4  5  1  0
  5  6  1  0
  5  7  1  0
  7  8  1  0
  8  9  1  0
  6  1  1  0
  9  5  1  0
  1 10  1  0
  1 11  1  0
  2 12  1  0
  2 13  1  0
  4 14  1  0
  4 15  1  0
  6 16  1  0
  6 17  1  0
  7 18  1  0
  7 19  1  0
  9 20  1  0
  9 21  1  0
M  END
