
     RDKit          3D

 21 22  0  0  0  0  0  0  0  0999 V2000
    1.7162    0.5711   -0.3388 C   0  0  0  0  0  0  0  0  0  0  0  0
    1.6343   -0.9156   -0.0914 C   0  0  0  0  0  0  0  0  0  0  0  0
    0.5534   -1.5248   -0.6351 O   0  0  0  0  0  0  0  0  0  0  0  0
   -0.6490   -1.3623   -0.0795 C   0  0  0  0  0  0  0  0  0  0  0  0
   -0.8016   -0.5723    1.1396 C   0  0  0  0  0  0  0  0  0  0  0  0
   -1.2621    0.6125    0.3128 C   0  0  0  0  0  0  0  0  0  0  0  0
   -0.1911    1.6428    0.1264 C   0  0  0  0  0  0  0  0  0  0  0  0
    1.0269    1.2081    0.6835 O   0  0  0  0  0  0  0  0  0  0  0  0
   -1.4258   -0.3072   -0.8636 C   0  0  0  0  0  0  0  0  0  0  0  0
    2.7654    0.9396   -0.2909 H   0  0  0  0  0  0  0  0  0  0  0  0
    1.3341    0.8613   -1.3329 H   0  0  0  0  0  0  0  0  0  0  0  0
    1.7607   -1.1214    0.9786 H   0  0  0  0  0  0  0  0  0  0  0  0
    2.5483   -1.3573   -0.5894 H   0  0  0  0  0  0  0  0  0  0  0  0
   -1.2467   -2.3165   -0.0676 H   0  0  0  0  0  0  0  0  0  0  0  0
   -1.6772   -0.9170    1.7648 H   0  0  0  0  0  0  0  0  0  0  0  0
    0.0448   -0.3714    1.7896 H   0  0  0  0  0  0  0  0  0  0  0  0
   -2.2274    1.0601    0.6299 H   0  0  0  0  0  0  0  0  0  0  0  0
   -0.4739    2.5463    0.7196 H   0  0  0  0  0  0  0  0  0  0  0  0
   -0.1001    1.8561   -0.9539 H   0  0  0  0  0  0  0  0  0  0  0  0
   -0.8810    0.0461   -1.7716 H   0  0  0  0  0  0  0  0  0  0  0  0
   -2.4483   -0.5782   -1.1303 H   0  0  0  0  0  0  0  0  0  0  0  0
  1  2  1  0
  2  3  1  0
  3  4  1  0
  4  5  1  0
  5  6  1  0
  6  7  1  0
  7  8  1  0
  6  9  1  0
  8  1  1  0
  9  4  1  0
  1 10  1  0
  1 11  1  0
  2 12  1  0
  2 13  1  0
  4 14  1  0
  5 15  1  0
  5 16  1  0
  6 17  1  0
  7 18  1  0
  7 19  1  0
  9 20  1  0
  9 21  1  0
M  END
