
     RDKit          3D

 21 22  0  0  0  0  0  0  0  0999 V2000
   -2.2748   -0.0642   -0.9544 C   0  0  0  0  0  0  0  0  0  0  0  0
   -2.2821    0.6276    0.4150 C   0  0  0  0  0  0  0  0  0  0  0  0
   -1.0170    1.1380    0.5031 O   0  0  0  0  0  0  0  0  0  0  0  0
   -0.1319    0.3073   -0.1197 C   0  0  0  0  0  0  0  0  0  0  0  0
    0.9484   -0.2432    0.7650 C   0  0  0  0  0  0  0  0  0  0  0  0
    2.1597   -0.7297    0.0320 C   0  0  0  0  0  0  0  0  0  0  0  0
    2.5662    0.7158    0.2085 C   0  0  0  0  0  0  0  0  0  0  0  0
    1.6999    0.7976    1.3039 O   0  0  0  0  0  0  0  0  0  0  0  0
   -0.9212   -0.7769   -0.8196 C   0  0  0  0  0  0  0  0  0  0  0  0
   -2.1877    0.7316   -1.7027 H   0  0  0  0  0  0  0  0  0  0  0  0
   -3.1005   -0.7550   -1.0807 H   0  0  0  0  0  0  0  0  0  0  0  0
   -2.3737   -0.1748    1.2004 H   0  0  0  0  0  0  0  0  0  0  0  0
   -3.0934    1.3465    0.4397 H   0  0  0  0  0  0  0  0  0  0  0  0
    0.3754    0.8905   -0.9259 H   0  0  0  0  0  0  0  0  0  0  0  0
    0.5935   -0.8935    1.5930 H   0  0  0  0  0  0  0  0  0  0  0  0
    2.7430   -1.4345    0.6414 H   0  0  0  0  0  0  0  0  0  0  0  0
    1.9689   -1.0442   -1.0175 H   0  0  0  0  0  0  0  0  0  0  0  0
    2.3334    1.3827   -0.6304 H   0  0  0  0  0  0  0  0  0  0  0  0
    3.6044    0.8807    0.5403 H   0  0  0  0  0  0  0  0  0  0  0  0
   -0.5154   -1.0500   -1.7897 H   0  0  0  0  0  0  0  0  0  0  0  0
   -1.0951   -1.6522   -0.1403 H   0  0  0  0  0  0  0  0  0  0  0  0
  1  2  1  0
  2  3  1  0
  3  4  1  0
  4  5  1  0
  5  6  1  0
  6  7  1  0
  7  8  1  0
  4  9  1  0
  9  1  1  0
  8  5  1  0
  1 10  1  0
  1 11  1  0
  2 12  1  0
  2 13  1  0
  4 14  1  0
  5 15  1  0
  6 16  1  0
  6 17  1  0
  7 18  1  0
  7 19  1  0
  9 20  1  0
  9 21  1  0
M  END
