
     RDKit          3D

 18 19  0  0  0  0  0  0  0  0999 V2000
   -1.3134   -0.8798    0.0556 C   0  0  0  0  0  0  0  0  0  0  0  0
   -1.6370    0.3695    0.7797 C   0  0  0  0  0  0  0  0  0  0  0  0
   -0.6144    1.2343    1.0087 O   0  0  0  0  0  0  0  0  0  0  0  0
    0.2734    1.4116   -0.0145 C   0  0  0  0  0  0  0  0  0  0  0  0
    0.9490    0.0769   -0.2613 C   0  0  0  0  0  0  0  0  0  0  0  0
   -0.0821   -0.8655   -0.7648 C   0  0  0  0  0  0  0  0  0  0  0  0
    2.1412   -0.2599    0.3084 C   0  0  0  0  0  0  0  0  0  0  0  0
    2.0893    0.1742   -1.1086 O   0  0  0  0  0  0  0  0  0  0  0  0
   -2.1781   -1.1054   -0.6366 H   0  0  0  0  0  0  0  0  0  0  0  0
   -1.2623   -1.7743    0.7420 H   0  0  0  0  0  0  0  0  0  0  0  0
   -2.4849    0.9351    0.2950 H   0  0  0  0  0  0  0  0  0  0  0  0
   -2.0613    0.0777    1.7866 H   0  0  0  0  0  0  0  0  0  0  0  0
   -0.2146    1.7145   -0.9792 H   0  0  0  0  0  0  0  0  0  0  0  0
    1.0256    2.1541    0.2669 H   0  0  0  0  0  0  0  0  0  0  0  0
    0.3463   -1.8773   -0.8375 H   0  0  0  0  0  0  0  0  0  0  0  0
   -0.3377   -0.5561   -1.8179 H   0  0  0  0  0  0  0  0  0  0  0  0
    2.7894    0.4560    0.8675 H   0  0  0  0  0  0  0  0  0  0  0  0
    2.5716   -1.2856    0.3100 H   0  0  0  0  0  0  0  0  0  0  0  0
  1  2  1  0
  2  3  1  0
  3  4  1  0
  4  5  1  0
  5  6  1  0
  5  7  1  0
  7  8  1  0
  6  1  1  0
  8  5  1  0
  1  9  1  0
  1 10  1  0
  2 11  1  0
  2 12  1  0
  4 13  1  0
  4 14  1  0
  6 15  1  0
  6 16  1  0
  7 17  1  0
  7 18  1  0
M  END
