
     RDKit          3D

 21 23  0  0  0  0  0  0  0  0999 V2000
    1.5907    0.0512    0.6017 C   0  0  0  0  0  0  0  0  0  0  0  0
    1.2428   -1.3578    0.1115 C   0  0  0  0  0  0  0  0  0  0  0  0
    0.3776   -1.2621   -0.9278 O   0  0  0  0  0  0  0  0  0  0  0  0
   -0.8996   -0.8998   -0.6709 C   0  0  0  0  0  0  0  0  0  0  0  0
   -1.3582   -0.6874    0.7122 C   0  0  0  0  0  0  0  0  0  0  0  0
   -1.2759    0.7906    0.5701 C   0  0  0  0  0  0  0  0  0  0  0  0
   -0.2894    1.4769   -0.2645 C   0  0  0  0  0  0  0  0  0  0  0  0
    1.1332    1.0675   -0.3912 C   0  0  0  0  0  0  0  0  0  0  0  0
   -1.1915    0.5559   -0.9708 C   0  0  0  0  0  0  0  0  0  0  0  0
    2.7088    0.1423    0.6869 H   0  0  0  0  0  0  0  0  0  0  0  0
    1.2071    0.2354    1.6219 H   0  0  0  0  0  0  0  0  0  0  0  0
    0.9464   -2.0210    0.9365 H   0  0  0  0  0  0  0  0  0  0  0  0
    2.1938   -1.8190   -0.2952 H   0  0  0  0  0  0  0  0  0  0  0  0
   -1.6072   -1.5142   -1.3066 H   0  0  0  0  0  0  0  0  0  0  0  0
   -2.4261   -1.0399    0.8360 H   0  0  0  0  0  0  0  0  0  0  0  0
   -0.7754   -1.1139    1.5433 H   0  0  0  0  0  0  0  0  0  0  0  0
   -2.1548    1.3580    0.9289 H   0  0  0  0  0  0  0  0  0  0  0  0
   -0.4738    2.5588   -0.4514 H   0  0  0  0  0  0  0  0  0  0  0  0
    1.8149    1.9604   -0.3015 H   0  0  0  0  0  0  0  0  0  0  0  0
    1.2923    0.6683   -1.4134 H   0  0  0  0  0  0  0  0  0  0  0  0
   -2.0560    0.8498   -1.5557 H   0  0  0  0  0  0  0  0  0  0  0  0
  1  2  1  0
  2  3  1  0
  3  4  1  0
  4  5  1  0
  5  6  1  0
  6  7  1  0
  7  8  1  0
  7  9  1  0
  8  1  1  0
  9  4  1  0
  9  6  1  0
  1 10  1  0
  1 11  1  0
  2 12  1  0
  2 13  1  0
  4 14  1  0
  5 15  1  0
  5 16  1  0
  6 17  1  0
  7 18  1  0
  8 19  1  0
  8 20  1  0
  9 21  1  0
M  END
