
     RDKit          3D

 21 21  0  0  0  0  0  0  0  0999 V2000
    1.6727   -1.0626    0.0395 C   0  0  0  0  0  0  0  0  0  0  0  0
    0.3658   -1.6590   -0.4258 C   0  0  0  0  0  0  0  0  0  0  0  0
   -0.4204   -0.7382   -1.1000 O   0  0  0  0  0  0  0  0  0  0  0  0
   -1.6848   -0.6949   -0.5465 C   0  0  0  0  0  0  0  0  0  0  0  0
   -1.8248    0.6233    0.2069 C   0  0  0  0  0  0  0  0  0  0  0  0
   -1.2184    1.6039   -0.5469 O   0  0  0  0  0  0  0  0  0  0  0  0
    0.0005    2.0228   -0.0581 C   0  0  0  0  0  0  0  0  0  0  0  0
    0.6810    1.0113    0.5911 O   0  0  0  0  0  0  0  0  0  0  0  0
    1.6946    0.4569   -0.1594 C   0  0  0  0  0  0  0  0  0  0  0  0
    1.7630   -1.2559    1.1197 H   0  0  0  0  0  0  0  0  0  0  0  0
    2.5439   -1.4416   -0.5487 H   0  0  0  0  0  0  0  0  0  0  0  0
    0.6246   -2.4556   -1.1646 H   0  0  0  0  0  0  0  0  0  0  0  0
   -0.2104   -2.1387    0.3750 H   0  0  0  0  0  0  0  0  0  0  0  0
   -2.5009   -0.7646   -1.2859 H   0  0  0  0  0  0  0  0  0  0  0  0
   -1.8270   -1.5375    0.1642 H   0  0  0  0  0  0  0  0  0  0  0  0
   -1.4437    0.5226    1.2279 H   0  0  0  0  0  0  0  0  0  0  0  0
   -2.9212    0.8512    0.2396 H   0  0  0  0  0  0  0  0  0  0  0  0
    0.6280    2.4119   -0.9024 H   0  0  0  0  0  0  0  0  0  0  0  0
   -0.1839    2.8386    0.6865 H   0  0  0  0  0  0  0  0  0  0  0  0
    2.6670    0.7914    0.2538 H   0  0  0  0  0  0  0  0  0  0  0  0
    1.5941    0.6147   -1.2459 H   0  0  0  0  0  0  0  0  0  0  0  0
  1  2  1  0
  2  3  1  0
  3  4  1  0
  4  5  1  0
  5  6  1  0
  6  7  1  0
  7  8  1  0
  8  9  1  0
  9  1  1  0
  1 10  1  0
  1 11  1  0
  2 12  1  0
  2 13  1  0
  4 14  1  0
  4 15  1  0
  5 16  1  0
  5 17  1  0
  7 18  1  0
  7 19  1  0
  9 20  1  0
  9 21  1  0
M  END
