
     RDKit          3D

 21 22  0  0  0  0  0  0  0  0999 V2000
    1.6783   -0.4484   -0.1006 C   0  0  0  0  0  0  0  0  0  0  0  0
    1.5978    1.0328    0.0855 C   0  0  0  0  0  0  0  0  0  0  0  0
    0.5002    1.3981    0.8071 O   0  0  0  0  0  0  0  0  0  0  0  0
   -0.6987    1.3329    0.1508 C   0  0  0  0  0  0  0  0  0  0  0  0
   -0.6932    0.4392   -1.0593 C   0  0  0  0  0  0  0  0  0  0  0  0
   -0.7778   -0.9152   -0.3393 C   0  0  0  0  0  0  0  0  0  0  0  0
    0.4782   -1.1759    0.4520 C   0  0  0  0  0  0  0  0  0  0  0  0
   -1.8563   -0.5192    0.6594 C   0  0  0  0  0  0  0  0  0  0  0  0
   -1.6367    0.7852    1.0085 O   0  0  0  0  0  0  0  0  0  0  0  0
    2.5729   -0.8851    0.4315 H   0  0  0  0  0  0  0  0  0  0  0  0
    1.8485   -0.7387   -1.1786 H   0  0  0  0  0  0  0  0  0  0  0  0
    2.5055    1.3553    0.6730 H   0  0  0  0  0  0  0  0  0  0  0  0
    1.6998    1.5977   -0.8860 H   0  0  0  0  0  0  0  0  0  0  0  0
   -1.0291    2.3675   -0.0812 H   0  0  0  0  0  0  0  0  0  0  0  0
   -1.6801    0.5592   -1.5583 H   0  0  0  0  0  0  0  0  0  0  0  0
    0.1662    0.5266   -1.6991 H   0  0  0  0  0  0  0  0  0  0  0  0
   -1.0741   -1.7184   -1.0022 H   0  0  0  0  0  0  0  0  0  0  0  0
    0.3829   -0.8500    1.5228 H   0  0  0  0  0  0  0  0  0  0  0  0
    0.6947   -2.2589    0.4833 H   0  0  0  0  0  0  0  0  0  0  0  0
   -1.8201   -1.2410    1.4756 H   0  0  0  0  0  0  0  0  0  0  0  0
   -2.8587   -0.6437    0.1552 H   0  0  0  0  0  0  0  0  0  0  0  0
  1  2  1  0
  2  3  1  0
  3  4  1  0
  4  5  1  0
  5  6  1  0
  6  7  1  0
  6  8  1  0
  8  9  1  0
  7  1  1  0
  9  4  1  0
  1 10  1  0
  1 11  1  0
  2 12  1  0
  2 13  1  0
  4 14  1  0
  5 15  1  0
  5 16  1  0
  6 17  1  0
  7 18  1  0
  7 19  1  0
  8 20  1  0
  8 21  1  0
M  END
