
     RDKit          3D

 19 20  0  0  0  0  0  0  0  0999 V2000
    2.1375    0.1562   -0.3535 C   0  0  0  0  0  0  0  0  0  0  0  0
    1.2605    1.2519    0.1907 C   0  0  0  0  0  0  0  0  0  0  0  0
   -0.0341    1.2109   -0.3192 O   0  0  0  0  0  0  0  0  0  0  0  0
   -0.6281    0.0069   -0.0517 C   0  0  0  0  0  0  0  0  0  0  0  0
    0.2681   -1.1256   -0.4345 C   0  0  0  0  0  0  0  0  0  0  0  0
    1.3504   -0.6404   -1.1897 O   0  0  0  0  0  0  0  0  0  0  0  0
   -1.4257   -0.1291    1.1900 C   0  0  0  0  0  0  0  0  0  0  0  0
   -2.5857   -0.4779    0.5201 O   0  0  0  0  0  0  0  0  0  0  0  0
   -1.9947   -0.1294   -0.6851 C   0  0  0  0  0  0  0  0  0  0  0  0
    2.6305   -0.4406    0.4323 H   0  0  0  0  0  0  0  0  0  0  0  0
    2.9470    0.5805   -0.9810 H   0  0  0  0  0  0  0  0  0  0  0  0
    1.1540    1.1468    1.3025 H   0  0  0  0  0  0  0  0  0  0  0  0
    1.6619    2.2689   -0.0493 H   0  0  0  0  0  0  0  0  0  0  0  0
    0.6476   -1.7135    0.4107 H   0  0  0  0  0  0  0  0  0  0  0  0
   -0.2550   -1.8499   -1.1117 H   0  0  0  0  0  0  0  0  0  0  0  0
   -1.5703    0.8598    1.6865 H   0  0  0  0  0  0  0  0  0  0  0  0
   -1.0965   -0.8628    1.9436 H   0  0  0  0  0  0  0  0  0  0  0  0
   -2.0567   -0.9488   -1.4318 H   0  0  0  0  0  0  0  0  0  0  0  0
   -2.4107    0.8362   -1.0690 H   0  0  0  0  0  0  0  0  0  0  0  0
  1  2  1  0
  2  3  1  0
  3  4  1  0
  4  5  1  0
  5  6  1  0
  4  7  1  0
  7  8  1  0
  8  9  1  0
  6  1  1  0
  9  4  1  0
  1 10  1  0
  1 11  1  0
  2 12  1  0
  2 13  1  0
  5 14  1  0
  5 15  1  0
  7 16  1  0
  7 17  1  0
  9 18  1  0
  9 19  1  0
M  END
