
     RDKit          3D

 19 21  0  0  0  0  0  0  0  0999 V2000
   -1.8863    0.0713   -0.1801 C   0  0  0  0  0  0  0  0  0  0  0  0
   -1.1799    1.3417    0.2086 C   0  0  0  0  0  0  0  0  0  0  0  0
    0.0915    1.2976   -0.3545 O   0  0  0  0  0  0  0  0  0  0  0  0
    0.8982    0.3358    0.1534 C   0  0  0  0  0  0  0  0  0  0  0  0
    2.3643    0.4638    0.2907 C   0  0  0  0  0  0  0  0  0  0  0  0
    1.9056   -0.2805   -0.8754 C   0  0  0  0  0  0  0  0  0  0  0  0
    1.1251   -1.4061   -0.8260 O   0  0  0  0  0  0  0  0  0  0  0  0
    0.3302   -1.0257    0.2671 C   0  0  0  0  0  0  0  0  0  0  0  0
   -1.1230   -1.1647    0.1226 C   0  0  0  0  0  0  0  0  0  0  0  0
   -2.8721    0.0791    0.3614 H   0  0  0  0  0  0  0  0  0  0  0  0
   -2.1418    0.1510   -1.2515 H   0  0  0  0  0  0  0  0  0  0  0  0
   -1.7284    2.1909   -0.2650 H   0  0  0  0  0  0  0  0  0  0  0  0
   -1.1684    1.4434    1.2998 H   0  0  0  0  0  0  0  0  0  0  0  0
    2.7872   -0.0996    1.1742 H   0  0  0  0  0  0  0  0  0  0  0  0
    2.7856    1.4562    0.1396 H   0  0  0  0  0  0  0  0  0  0  0  0
    1.9574    0.2249   -1.8556 H   0  0  0  0  0  0  0  0  0  0  0  0
    0.7531   -1.5459    1.1763 H   0  0  0  0  0  0  0  0  0  0  0  0
   -1.3546   -1.9345   -0.6577 H   0  0  0  0  0  0  0  0  0  0  0  0
   -1.5438   -1.5987    1.0720 H   0  0  0  0  0  0  0  0  0  0  0  0
  1  2  1  0
  2  3  1  0
  3  4  1  0
  4  5  1  0
  5  6  1  0
  6  7  1  0
  7  8  1  0
  8  9  1  0
  9  1  1  0
  6  4  1  0
  8  4  1  0
  1 10  1  0
  1 11  1  0
  2 12  1  0
  2 13  1  0
  5 14  1  0
  5 15  1  0
  6 16  1  0
  8 17  1  0
  9 18  1  0
  9 19  1  0
M  END
