
     RDKit          3D

 21 22  0  0  0  0  0  0  0  0999 V2000
    1.5512    0.7251    0.4194 C   0  0  0  0  0  0  0  0  0  0  0  0
    1.6218   -0.7637    0.3147 C   0  0  0  0  0  0  0  0  0  0  0  0
    0.4818   -1.4276    0.6582 O   0  0  0  0  0  0  0  0  0  0  0  0
   -0.4987   -1.4795   -0.2854 C   0  0  0  0  0  0  0  0  0  0  0  0
   -1.7754   -0.9571    0.3911 C   0  0  0  0  0  0  0  0  0  0  0  0
   -1.4707    0.5315    0.4020 C   0  0  0  0  0  0  0  0  0  0  0  0
   -0.6314    0.6877   -0.8260 C   0  0  0  0  0  0  0  0  0  0  0  0
    0.6738    1.3830   -0.5841 C   0  0  0  0  0  0  0  0  0  0  0  0
   -0.3580   -0.5766   -1.3225 O   0  0  0  0  0  0  0  0  0  0  0  0
    1.3312    0.9859    1.4682 H   0  0  0  0  0  0  0  0  0  0  0  0
    2.5989    1.1094    0.2367 H   0  0  0  0  0  0  0  0  0  0  0  0
    2.4189   -1.0850    1.0502 H   0  0  0  0  0  0  0  0  0  0  0  0
    2.0313   -1.1020   -0.6786 H   0  0  0  0  0  0  0  0  0  0  0  0
   -0.6999   -2.4644   -0.7206 H   0  0  0  0  0  0  0  0  0  0  0  0
   -1.7655   -1.3739    1.4151 H   0  0  0  0  0  0  0  0  0  0  0  0
   -2.6740   -1.2136   -0.1667 H   0  0  0  0  0  0  0  0  0  0  0  0
   -2.4358    1.0580    0.3190 H   0  0  0  0  0  0  0  0  0  0  0  0
   -0.9778    0.8542    1.3338 H   0  0  0  0  0  0  0  0  0  0  0  0
   -1.1973    1.2657   -1.5731 H   0  0  0  0  0  0  0  0  0  0  0  0
    1.2209    1.3938   -1.5596 H   0  0  0  0  0  0  0  0  0  0  0  0
    0.5545    2.4492   -0.2917 H   0  0  0  0  0  0  0  0  0  0  0  0
  1  2  1  0
  2  3  1  0
  3  4  1  0
  4  5  1  0
  5  6  1  0
  6  7  1  0
  7  8  1  0
  7  9  1  0
  8  1  1  0
  9  4  1  0
  1 10  1  0
  1 11  1  0
  2 12  1  0
  2 13  1  0
  4 14  1  0
  5 15  1  0
  5 16  1  0
  6 17  1  0
  6 18  1  0
  7 19  1  0
  8 20  1  0
  8 21  1  0
M  END
