
     RDKit          3D

 21 22  0  0  0  0  0  0  0  0999 V2000
    1.0794   -1.0890    0.6048 C   0  0  0  0  0  0  0  0  0  0  0  0
    2.0599   -0.0981    0.0728 C   0  0  0  0  0  0  0  0  0  0  0  0
    1.5943    0.7175   -0.9132 O   0  0  0  0  0  0  0  0  0  0  0  0
    0.6120    1.5538   -0.3492 C   0  0  0  0  0  0  0  0  0  0  0  0
   -0.7005    1.0883   -0.9096 C   0  0  0  0  0  0  0  0  0  0  0  0
   -1.1174   -0.1283   -0.1141 C   0  0  0  0  0  0  0  0  0  0  0  0
   -0.1467   -1.2591   -0.2193 C   0  0  0  0  0  0  0  0  0  0  0  0
   -2.2213   -0.0821    0.7563 C   0  0  0  0  0  0  0  0  0  0  0  0
   -2.4409   -0.5777   -0.6044 O   0  0  0  0  0  0  0  0  0  0  0  0
    0.7691   -0.8871    1.6504 H   0  0  0  0  0  0  0  0  0  0  0  0
    1.6018   -2.0840    0.6383 H   0  0  0  0  0  0  0  0  0  0  0  0
    3.0165   -0.5572   -0.2783 H   0  0  0  0  0  0  0  0  0  0  0  0
    2.3666    0.5582    0.9370 H   0  0  0  0  0  0  0  0  0  0  0  0
    0.8355    2.6059   -0.5368 H   0  0  0  0  0  0  0  0  0  0  0  0
    0.5635    1.4287    0.7597 H   0  0  0  0  0  0  0  0  0  0  0  0
   -1.5039    1.8205   -0.8403 H   0  0  0  0  0  0  0  0  0  0  0  0
   -0.5507    0.7238   -1.9654 H   0  0  0  0  0  0  0  0  0  0  0  0
    0.0690   -1.4878   -1.2837 H   0  0  0  0  0  0  0  0  0  0  0  0
   -0.6776   -2.1781    0.1677 H   0  0  0  0  0  0  0  0  0  0  0  0
   -2.4490   -0.9107    1.4566 H   0  0  0  0  0  0  0  0  0  0  0  0
   -2.7598    0.8423    0.9707 H   0  0  0  0  0  0  0  0  0  0  0  0
  1  2  1  0
  2  3  1  0
  3  4  1  0
  4  5  1  0
  5  6  1  0
  6  7  1  0
  6  8  1  0
  8  9  1  0
  7  1  1  0
  9  6  1  0
  1 10  1  0
  1 11  1  0
  2 12  1  0
  2 13  1  0
  4 14  1  0
  4 15  1  0
  5 16  1  0
  5 17  1  0
  7 18  1  0
  7 19  1  0
  8 20  1  0
  8 21  1  0
M  END
