
     RDKit          3D

 17 19  0  0  0  0  0  0  0  0999 V2000
    1.4369    0.9931    0.2215 C   0  0  0  0  0  0  0  0  0  0  0  0
    1.6841   -0.3026   -0.4411 C   0  0  0  0  0  0  0  0  0  0  0  0
    0.6429   -1.1402   -0.6064 O   0  0  0  0  0  0  0  0  0  0  0  0
   -0.4163   -1.0496    0.2202 C   0  0  0  0  0  0  0  0  0  0  0  0
   -0.6567    0.2451    0.8891 C   0  0  0  0  0  0  0  0  0  0  0  0
    0.3714    1.0867    1.0397 O   0  0  0  0  0  0  0  0  0  0  0  0
   -1.6921    0.5552   -0.1644 C   0  0  0  0  0  0  0  0  0  0  0  0
   -1.4549    0.3086   -1.4867 O   0  0  0  0  0  0  0  0  0  0  0  0
   -1.6716   -0.7326   -0.6139 C   0  0  0  0  0  0  0  0  0  0  0  0
    2.3580    1.2429    0.8301 H   0  0  0  0  0  0  0  0  0  0  0  0
    1.3860    1.8387   -0.5263 H   0  0  0  0  0  0  0  0  0  0  0  0
    2.1101   -0.0792   -1.4659 H   0  0  0  0  0  0  0  0  0  0  0  0
    2.5192   -0.8719    0.0651 H   0  0  0  0  0  0  0  0  0  0  0  0
   -0.5517   -1.9445    0.8749 H   0  0  0  0  0  0  0  0  0  0  0  0
   -1.1969    0.0800    1.8686 H   0  0  0  0  0  0  0  0  0  0  0  0
   -2.4634    1.2796    0.0800 H   0  0  0  0  0  0  0  0  0  0  0  0
   -2.4052   -1.5094   -0.7844 H   0  0  0  0  0  0  0  0  0  0  0  0
  1  2  1  0
  2  3  1  0
  3  4  1  0
  4  5  1  0
  5  6  1  0
  5  7  1  0
  7  8  1  0
  8  9  1  0
  6  1  1  0
  9  7  1  0
  9  4  1  0
  1 10  1  0
  1 11  1  0
  2 12  1  0
  2 13  1  0
  4 14  1  0
  5 15  1  0
  7 16  1  0
  9 17  1  0
M  END
