
     RDKit          3D

 18 19  0  0  0  0  0  0  0  0999 V2000
    2.1711    0.6396    0.1955 C   0  0  0  0  0  0  0  0  0  0  0  0
    2.2085   -0.8664    0.1129 C   0  0  0  0  0  0  0  0  0  0  0  0
    0.8929   -1.1984   -0.1765 O   0  0  0  0  0  0  0  0  0  0  0  0
    0.0936   -0.1797    0.3219 C   0  0  0  0  0  0  0  0  0  0  0  0
   -1.0872   -0.0395   -0.6053 C   0  0  0  0  0  0  0  0  0  0  0  0
   -2.1219    0.9714   -0.3319 C   0  0  0  0  0  0  0  0  0  0  0  0
   -2.4103   -0.4574   -0.0254 C   0  0  0  0  0  0  0  0  0  0  0  0
    0.8491    0.9806    0.3052 O   0  0  0  0  0  0  0  0  0  0  0  0
    2.7707    0.9937    1.0646 H   0  0  0  0  0  0  0  0  0  0  0  0
    2.5445    1.0899   -0.7703 H   0  0  0  0  0  0  0  0  0  0  0  0
    2.9156   -1.2338   -0.6482 H   0  0  0  0  0  0  0  0  0  0  0  0
    2.4755   -1.3264    1.0800 H   0  0  0  0  0  0  0  0  0  0  0  0
   -0.2724   -0.4390    1.3342 H   0  0  0  0  0  0  0  0  0  0  0  0
   -0.9268   -0.3189   -1.6871 H   0  0  0  0  0  0  0  0  0  0  0  0
   -1.8925    1.6778    0.5105 H   0  0  0  0  0  0  0  0  0  0  0  0
   -2.5675    1.4824   -1.1989 H   0  0  0  0  0  0  0  0  0  0  0  0
   -3.1497   -0.9557   -0.7146 H   0  0  0  0  0  0  0  0  0  0  0  0
   -2.4932   -0.8200    1.0019 H   0  0  0  0  0  0  0  0  0  0  0  0
  1  2  1  0
  2  3  1  0
  3  4  1  0
  4  5  1  0
  5  6  1  0
  6  7  1  0
  4  8  1  0
  8  1  1  0
  7  5  1  0
  1  9  1  0
  1 10  1  0
  2 11  1  0
  2 12  1  0
  4 13  1  0
  5 14  1  0
  6 15  1  0
  6 16  1  0
  7 17  1  0
  7 18  1  0
M  END
