
     RDKit          3D

 21 21  0  0  0  0  0  0  0  0999 V2000
   -1.7800    0.3058   -0.3079 C   0  0  0  0  0  0  0  0  0  0  0  0
   -1.2243    1.3146    0.6547 C   0  0  0  0  0  0  0  0  0  0  0  0
    0.1073    1.1712    0.9272 O   0  0  0  0  0  0  0  0  0  0  0  0
    0.9364    1.2316   -0.1563 C   0  0  0  0  0  0  0  0  0  0  0  0
    2.0438    0.2204    0.0061 C   0  0  0  0  0  0  0  0  0  0  0  0
    1.6797   -1.0618   -0.3103 O   0  0  0  0  0  0  0  0  0  0  0  0
    0.6402   -1.5766    0.4092 C   0  0  0  0  0  0  0  0  0  0  0  0
   -0.5773   -1.6369   -0.4836 C   0  0  0  0  0  0  0  0  0  0  0  0
   -1.6049   -0.9714    0.1758 O   0  0  0  0  0  0  0  0  0  0  0  0
   -2.8944    0.4827   -0.3399 H   0  0  0  0  0  0  0  0  0  0  0  0
   -1.4276    0.3998   -1.3305 H   0  0  0  0  0  0  0  0  0  0  0  0
   -1.4729    2.3508    0.3451 H   0  0  0  0  0  0  0  0  0  0  0  0
   -1.7785    1.1624    1.6233 H   0  0  0  0  0  0  0  0  0  0  0  0
    0.4824    1.0868   -1.1282 H   0  0  0  0  0  0  0  0  0  0  0  0
    1.4282    2.2426   -0.1746 H   0  0  0  0  0  0  0  0  0  0  0  0
    2.4844    0.3472    1.0017 H   0  0  0  0  0  0  0  0  0  0  0  0
    2.8452    0.5196   -0.7245 H   0  0  0  0  0  0  0  0  0  0  0  0
    0.4486   -1.0965    1.3794 H   0  0  0  0  0  0  0  0  0  0  0  0
    0.9050   -2.6472    0.6539 H   0  0  0  0  0  0  0  0  0  0  0  0
   -0.8712   -2.6846   -0.7341 H   0  0  0  0  0  0  0  0  0  0  0  0
   -0.3702   -1.1606   -1.4865 H   0  0  0  0  0  0  0  0  0  0  0  0
  1  2  1  0
  2  3  1  0
  3  4  1  0
  4  5  1  0
  5  6  1  0
  6  7  1  0
  7  8  1  0
  8  9  1  0
  9  1  1  0
  1 10  1  0
  1 11  1  0
  2 12  1  0
  2 13  1  0
  4 14  1  0
  4 15  1  0
  5 16  1  0
  5 17  1  0
  7 18  1  0
  7 19  1  0
  8 20  1  0
  8 21  1  0
M  END
