
     RDKit          3D

 21 23  0  0  0  0  0  0  0  0999 V2000
    1.9268   -0.0636    0.1204 C   0  0  0  0  0  0  0  0  0  0  0  0
    1.4283    1.2947    0.4922 C   0  0  0  0  0  0  0  0  0  0  0  0
    0.2544    1.6168   -0.1195 O   0  0  0  0  0  0  0  0  0  0  0  0
   -0.7898    0.7789    0.0638 C   0  0  0  0  0  0  0  0  0  0  0  0
   -1.6349    0.4683   -1.1208 C   0  0  0  0  0  0  0  0  0  0  0  0
   -1.6528   -1.0036   -0.7584 C   0  0  0  0  0  0  0  0  0  0  0  0
   -0.5132   -0.6538    0.2097 C   0  0  0  0  0  0  0  0  0  0  0  0
    0.8525   -1.0605   -0.1530 C   0  0  0  0  0  0  0  0  0  0  0  0
   -0.9297    0.1040    1.3695 C   0  0  0  0  0  0  0  0  0  0  0  0
    2.6046   -0.4586    0.9155 H   0  0  0  0  0  0  0  0  0  0  0  0
    2.5864    0.0161   -0.7918 H   0  0  0  0  0  0  0  0  0  0  0  0
    2.2036    2.0365    0.1330 H   0  0  0  0  0  0  0  0  0  0  0  0
    1.4225    1.4683    1.6082 H   0  0  0  0  0  0  0  0  0  0  0  0
   -1.0301    0.5812   -2.0667 H   0  0  0  0  0  0  0  0  0  0  0  0
   -2.5992    0.9557   -1.2211 H   0  0  0  0  0  0  0  0  0  0  0  0
   -2.5580   -1.2960   -0.1598 H   0  0  0  0  0  0  0  0  0  0  0  0
   -1.3427   -1.7001   -1.5342 H   0  0  0  0  0  0  0  0  0  0  0  0
    0.8482   -1.3457   -1.2472 H   0  0  0  0  0  0  0  0  0  0  0  0
    1.0885   -2.0351    0.3674 H   0  0  0  0  0  0  0  0  0  0  0  0
   -1.9581   -0.0644    1.7554 H   0  0  0  0  0  0  0  0  0  0  0  0
   -0.2072    0.3608    2.1375 H   0  0  0  0  0  0  0  0  0  0  0  0
  1  2  1  0
  2  3  1  0
  3  4  1  0
  4  5  1  0
  5  6  1  0
  6  7  1  0
  7  8  1  0
  7  9  1  0
  8  1  1  0
  7  4  1  0
  9  4  1  0
  1 10  1  0
  1 11  1  0
  2 12  1  0
  2 13  1  0
  5 14  1  0
  5 15  1  0
  6 16  1  0
  6 17  1  0
  8 18  1  0
  8 19  1  0
  9 20  1  0
  9 21  1  0
M  END
