
     RDKit          3D

 21 22  0  0  0  0  0  0  0  0999 V2000
    2.0529   -0.7589   -0.1442 C   0  0  0  0  0  0  0  0  0  0  0  0
    1.9574    0.7476   -0.1738 C   0  0  0  0  0  0  0  0  0  0  0  0
    1.2276    1.1589    0.9053 O   0  0  0  0  0  0  0  0  0  0  0  0
   -0.1175    1.1904    0.7371 C   0  0  0  0  0  0  0  0  0  0  0  0
   -0.7756   -0.0012    0.1996 C   0  0  0  0  0  0  0  0  0  0  0  0
   -1.7446    0.1373   -0.9773 C   0  0  0  0  0  0  0  0  0  0  0  0
   -2.3092   -0.0107    0.3732 C   0  0  0  0  0  0  0  0  0  0  0  0
   -0.0776   -1.2907    0.2751 C   0  0  0  0  0  0  0  0  0  0  0  0
    1.1742   -1.2825    0.8338 O   0  0  0  0  0  0  0  0  0  0  0  0
    3.0753   -1.1217   -0.0214 H   0  0  0  0  0  0  0  0  0  0  0  0
    1.6658   -1.1083   -1.1463 H   0  0  0  0  0  0  0  0  0  0  0  0
    3.0060    1.1394   -0.0479 H   0  0  0  0  0  0  0  0  0  0  0  0
    1.6107    1.1457   -1.1425 H   0  0  0  0  0  0  0  0  0  0  0  0
   -0.5780    1.4348    1.7393 H   0  0  0  0  0  0  0  0  0  0  0  0
   -0.4023    2.0772    0.0974 H   0  0  0  0  0  0  0  0  0  0  0  0
   -1.8633   -0.7262   -1.6628 H   0  0  0  0  0  0  0  0  0  0  0  0
   -1.7413    1.1499   -1.4237 H   0  0  0  0  0  0  0  0  0  0  0  0
   -2.7064   -0.9786    0.7441 H   0  0  0  0  0  0  0  0  0  0  0  0
   -2.7849    0.8696    0.8204 H   0  0  0  0  0  0  0  0  0  0  0  0
    0.0397   -1.6971   -0.7732 H   0  0  0  0  0  0  0  0  0  0  0  0
   -0.7086   -2.0750    0.7878 H   0  0  0  0  0  0  0  0  0  0  0  0
  1  2  1  0
  2  3  1  0
  3  4  1  0
  4  5  1  0
  5  6  1  0
  6  7  1  0
  5  8  1  0
  8  9  1  0
  9  1  1  0
  7  5  1  0
  1 10  1  0
  1 11  1  0
  2 12  1  0
  2 13  1  0
  4 14  1  0
  4 15  1  0
  6 16  1  0
  6 17  1  0
  7 18  1  0
  7 19  1  0
  8 20  1  0
  8 21  1  0
M  END
