
     RDKit          3D

 20 21  0  0  0  0  0  0  0  0999 V2000
    1.3172    0.5269    0.9238 C   0  0  0  0  0  0  0  0  0  0  0  0
    2.1921   -0.2741   -0.0014 C   0  0  0  0  0  0  0  0  0  0  0  0
    1.3956   -0.9028   -0.9431 O   0  0  0  0  0  0  0  0  0  0  0  0
    0.1318   -1.2152   -0.4852 C   0  0  0  0  0  0  0  0  0  0  0  0
   -0.7100    0.0195   -0.2896 C   0  0  0  0  0  0  0  0  0  0  0  0
    0.2213    1.1518    0.0475 C   0  0  0  0  0  0  0  0  0  0  0  0
   -1.9628   -0.0348    0.5081 C   0  0  0  0  0  0  0  0  0  0  0  0
   -1.9774    0.1934   -0.9760 C   0  0  0  0  0  0  0  0  0  0  0  0
    1.8431    1.2917    1.4965 H   0  0  0  0  0  0  0  0  0  0  0  0
    0.8044   -0.2194    1.5941 H   0  0  0  0  0  0  0  0  0  0  0  0
    2.8981    0.4409   -0.4860 H   0  0  0  0  0  0  0  0  0  0  0  0
    2.7512   -1.0844    0.5312 H   0  0  0  0  0  0  0  0  0  0  0  0
   -0.3661   -1.8142   -1.2745 H   0  0  0  0  0  0  0  0  0  0  0  0
    0.1684   -1.8585    0.4199 H   0  0  0  0  0  0  0  0  0  0  0  0
    0.7471    1.5357   -0.8590 H   0  0  0  0  0  0  0  0  0  0  0  0
   -0.2675    1.9789    0.5814 H   0  0  0  0  0  0  0  0  0  0  0  0
   -2.2249    0.8212    1.1811 H   0  0  0  0  0  0  0  0  0  0  0  0
   -2.2224   -1.0372    0.9001 H   0  0  0  0  0  0  0  0  0  0  0  0
   -2.3430   -0.6762   -1.5846 H   0  0  0  0  0  0  0  0  0  0  0  0
   -2.3961    1.1570   -1.2842 H   0  0  0  0  0  0  0  0  0  0  0  0
  1  2  1  0
  2  3  1  0
  3  4  1  0
  4  5  1  0
  5  6  1  0
  5  7  1  0
  7  8  1  0
  6  1  1  0
  8  5  1  0
  1  9  1  0
  1 10  1  0
  2 11  1  0
  2 12  1  0
  4 13  1  0
  4 14  1  0
  6 15  1  0
  6 16  1  0
  7 17  1  0
  7 18  1  0
  8 19  1  0
  8 20  1  0
M  END
