
     RDKit          3D

 21 22  0  0  0  0  0  0  0  0999 V2000
    1.7502   -0.3114   -0.3675 C   0  0  0  0  0  0  0  0  0  0  0  0
    1.4244    1.0103    0.2242 C   0  0  0  0  0  0  0  0  0  0  0  0
    0.4697    1.7301   -0.5097 O   0  0  0  0  0  0  0  0  0  0  0  0
   -0.7826    1.6431    0.0867 C   0  0  0  0  0  0  0  0  0  0  0  0
   -1.5193    0.5078   -0.5830 C   0  0  0  0  0  0  0  0  0  0  0  0
   -1.5971   -0.7015    0.3005 C   0  0  0  0  0  0  0  0  0  0  0  0
   -0.5714   -1.2247   -0.6708 C   0  0  0  0  0  0  0  0  0  0  0  0
    0.7676   -1.3980   -0.0619 C   0  0  0  0  0  0  0  0  0  0  0  0
   -0.7081   -0.1593   -1.5196 O   0  0  0  0  0  0  0  0  0  0  0  0
    2.7373   -0.6401    0.0660 H   0  0  0  0  0  0  0  0  0  0  0  0
    1.8681   -0.2123   -1.4474 H   0  0  0  0  0  0  0  0  0  0  0  0
    2.3610    1.6412    0.1671 H   0  0  0  0  0  0  0  0  0  0  0  0
    1.1714    0.9791    1.3006 H   0  0  0  0  0  0  0  0  0  0  0  0
   -1.3266    2.6124    0.0007 H   0  0  0  0  0  0  0  0  0  0  0  0
   -0.6708    1.4656    1.1861 H   0  0  0  0  0  0  0  0  0  0  0  0
   -2.4710    0.8752   -1.0025 H   0  0  0  0  0  0  0  0  0  0  0  0
   -2.6003   -1.1526    0.2437 H   0  0  0  0  0  0  0  0  0  0  0  0
   -1.2662   -0.5847    1.3407 H   0  0  0  0  0  0  0  0  0  0  0  0
   -0.9922   -2.1494   -1.1645 H   0  0  0  0  0  0  0  0  0  0  0  0
    0.7475   -1.5798    1.0472 H   0  0  0  0  0  0  0  0  0  0  0  0
    1.2081   -2.3509   -0.4799 H   0  0  0  0  0  0  0  0  0  0  0  0
  1  2  1  0
  2  3  1  0
  3  4  1  0
  4  5  1  0
  5  6  1  0
  6  7  1  0
  7  8  1  0
  7  9  1  0
  8  1  1  0
  9  5  1  0
  1 10  1  0
  1 11  1  0
  2 12  1  0
  2 13  1  0
  4 14  1  0
  4 15  1  0
  5 16  1  0
  6 17  1  0
  6 18  1  0
  7 19  1  0
  8 20  1  0
  8 21  1  0
M  END
