
     RDKit          3D

 21 22  0  0  0  0  0  0  0  0999 V2000
    2.6586   -0.2367    0.2677 C   0  0  0  0  0  0  0  0  0  0  0  0
    1.9240    0.9701   -0.2922 C   0  0  0  0  0  0  0  0  0  0  0  0
    0.6983    1.0215    0.4096 O   0  0  0  0  0  0  0  0  0  0  0  0
   -0.1357    0.1374   -0.2453 C   0  0  0  0  0  0  0  0  0  0  0  0
   -1.3563   -0.2442    0.5040 C   0  0  0  0  0  0  0  0  0  0  0  0
   -2.3840    0.6840    0.9554 C   0  0  0  0  0  0  0  0  0  0  0  0
   -2.6777   -0.0996   -0.2901 C   0  0  0  0  0  0  0  0  0  0  0  0
    0.6857   -1.1166   -0.5670 C   0  0  0  0  0  0  0  0  0  0  0  0
    1.7355   -1.2740    0.3349 O   0  0  0  0  0  0  0  0  0  0  0  0
    2.9231    0.0320    1.3269 H   0  0  0  0  0  0  0  0  0  0  0  0
    3.5461   -0.5078   -0.3206 H   0  0  0  0  0  0  0  0  0  0  0  0
    1.7379    0.8333   -1.3939 H   0  0  0  0  0  0  0  0  0  0  0  0
    2.5320    1.8583   -0.1434 H   0  0  0  0  0  0  0  0  0  0  0  0
   -0.3907    0.6004   -1.2277 H   0  0  0  0  0  0  0  0  0  0  0  0
   -1.2786   -1.2083    1.0817 H   0  0  0  0  0  0  0  0  0  0  0  0
   -2.9625    0.4363    1.8921 H   0  0  0  0  0  0  0  0  0  0  0  0
   -2.3349    1.7852    0.8061 H   0  0  0  0  0  0  0  0  0  0  0  0
   -2.6015    0.4453   -1.2716 H   0  0  0  0  0  0  0  0  0  0  0  0
   -3.3641   -0.9690   -0.2559 H   0  0  0  0  0  0  0  0  0  0  0  0
    0.0329   -2.0157   -0.4248 H   0  0  0  0  0  0  0  0  0  0  0  0
    1.0120   -1.1318   -1.6161 H   0  0  0  0  0  0  0  0  0  0  0  0
  1  2  1  0
  2  3  1  0
  3  4  1  0
  4  5  1  0
  5  6  1  0
  6  7  1  0
  4  8  1  0
  8  9  1  0
  9  1  1  0
  7  5  1  0
  1 10  1  0
  1 11  1  0
  2 12  1  0
  2 13  1  0
  4 14  1  0
  5 15  1  0
  6 16  1  0
  6 17  1  0
  7 18  1  0
  7 19  1  0
  8 20  1  0
  8 21  1  0
M  END
