
     RDKit          3D

 23 24  0  0  0  0  0  0  0  0999 V2000
   -1.7293   -0.3642    0.5897 C   0  0  0  0  0  0  0  0  0  0  0  0
   -0.8568   -1.5340    0.3285 C   0  0  0  0  0  0  0  0  0  0  0  0
    0.3926   -1.4725    0.9142 O   0  0  0  0  0  0  0  0  0  0  0  0
    1.4242   -1.2517    0.0388 C   0  0  0  0  0  0  0  0  0  0  0  0
    1.6759    0.2326   -0.0849 C   0  0  0  0  0  0  0  0  0  0  0  0
    0.8374    0.7309   -1.2480 C   0  0  0  0  0  0  0  0  0  0  0  0
   -0.0900    1.3597   -0.2484 C   0  0  0  0  0  0  0  0  0  0  0  0
   -1.4632    0.8423   -0.2422 C   0  0  0  0  0  0  0  0  0  0  0  0
    0.7714    0.9854    0.9005 C   0  0  0  0  0  0  0  0  0  0  0  0
   -1.7325   -0.1202    1.6620 H   0  0  0  0  0  0  0  0  0  0  0  0
   -2.7900   -0.6827    0.3570 H   0  0  0  0  0  0  0  0  0  0  0  0
   -0.7776   -1.7740   -0.7497 H   0  0  0  0  0  0  0  0  0  0  0  0
   -1.3615   -2.4375    0.7858 H   0  0  0  0  0  0  0  0  0  0  0  0
    1.1710   -1.6598   -0.9752 H   0  0  0  0  0  0  0  0  0  0  0  0
    2.3816   -1.7116    0.3612 H   0  0  0  0  0  0  0  0  0  0  0  0
    2.7226    0.5536   -0.0794 H   0  0  0  0  0  0  0  0  0  0  0  0
    0.4187   -0.0420   -1.9021 H   0  0  0  0  0  0  0  0  0  0  0  0
    1.4430    1.4375   -1.8524 H   0  0  0  0  0  0  0  0  0  0  0  0
   -0.0693    2.4782   -0.3926 H   0  0  0  0  0  0  0  0  0  0  0  0
   -1.7806    0.6588   -1.3089 H   0  0  0  0  0  0  0  0  0  0  0  0
   -2.1537    1.6453    0.1149 H   0  0  0  0  0  0  0  0  0  0  0  0
    0.2556    0.3316    1.6061 H   0  0  0  0  0  0  0  0  0  0  0  0
    1.3104    1.7944    1.4252 H   0  0  0  0  0  0  0  0  0  0  0  0
  1  2  1  0
  2  3  1  0
  3  4  1  0
  4  5  1  0
  5  6  1  0
  6  7  1  0
  7  8  1  0
  7  9  1  0
  8  1  1  0
  9  5  1  0
  1 10  1  0
  1 11  1  0
  2 12  1  0
  2 13  1  0
  4 14  1  0
  4 15  1  0
  5 16  1  0
  6 17  1  0
  6 18  1  0
  7 19  1  0
  8 20  1  0
  8 21  1  0
  9 22  1  0
  9 23  1  0
M  END
