
     RDKit          3D

 11 11  0  0  0  0  0  0  0  0999 V2000
   -0.6337    0.8923   -0.0846 C   0  0  0  0  0  0  0  0  0  0  0  0
   -0.8777   -0.6153   -0.1312 C   0  0  0  0  0  0  0  0  0  0  0  0
    0.4188   -1.0440   -0.4846 O   0  0  0  0  0  0  0  0  0  0  0  0
    1.2861   -0.2176    0.2061 C   0  0  0  0  0  0  0  0  0  0  0  0
    0.6165    0.9375    0.5302 O   0  0  0  0  0  0  0  0  0  0  0  0
   -0.4949    1.2368   -1.1209 H   0  0  0  0  0  0  0  0  0  0  0  0
   -1.3803    1.4277    0.4937 H   0  0  0  0  0  0  0  0  0  0  0  0
   -1.6194   -0.8787   -0.9201 H   0  0  0  0  0  0  0  0  0  0  0  0
   -1.1603   -1.0238    0.8468 H   0  0  0  0  0  0  0  0  0  0  0  0
    2.1558    0.0049   -0.4433 H   0  0  0  0  0  0  0  0  0  0  0  0
    1.6889   -0.7196    1.1079 H   0  0  0  0  0  0  0  0  0  0  0  0
  1  2  1  0
  2  3  1  0
  3  4  1  0
  4  5  1  0
  5  1  1  0
  1  6  1  0
  1  7  1  0
  2  8  1  0
  2  9  1  0
  4 10  1  0
  4 11  1  0
M  END
