
     RDKit          3D

 19 20  0  0  0  0  0  0  0  0999 V2000
    1.8686   -0.5035    0.7325 C   0  0  0  0  0  0  0  0  0  0  0  0
    2.0999    0.2222   -0.5211 C   0  0  0  0  0  0  0  0  0  0  0  0
    1.0495    0.9498   -1.0190 O   0  0  0  0  0  0  0  0  0  0  0  0
   -0.1006    0.2276   -0.8468 C   0  0  0  0  0  0  0  0  0  0  0  0
   -1.2481    0.8038   -1.2988 O   0  0  0  0  0  0  0  0  0  0  0  0
   -2.3050    0.4014   -0.5076 C   0  0  0  0  0  0  0  0  0  0  0  0
   -1.7201   -0.4156    0.6365 C   0  0  0  0  0  0  0  0  0  0  0  0
   -0.3403    0.2069    0.6718 C   0  0  0  0  0  0  0  0  0  0  0  0
    0.6172   -0.5350    1.2469 O   0  0  0  0  0  0  0  0  0  0  0  0
    2.2219   -1.5728    0.6312 H   0  0  0  0  0  0  0  0  0  0  0  0
    2.5559   -0.0788    1.5234 H   0  0  0  0  0  0  0  0  0  0  0  0
    2.9775    0.9314   -0.4502 H   0  0  0  0  0  0  0  0  0  0  0  0
    2.4124   -0.4932   -1.3386 H   0  0  0  0  0  0  0  0  0  0  0  0
    0.0050   -0.8378   -1.1938 H   0  0  0  0  0  0  0  0  0  0  0  0
   -2.7058    1.3369   -0.0166 H   0  0  0  0  0  0  0  0  0  0  0  0
   -3.0860   -0.1421   -1.0537 H   0  0  0  0  0  0  0  0  0  0  0  0
   -1.6250   -1.4517    0.2626 H   0  0  0  0  0  0  0  0  0  0  0  0
   -2.2703   -0.3146    1.5639 H   0  0  0  0  0  0  0  0  0  0  0  0
   -0.4067    1.2651    0.9773 H   0  0  0  0  0  0  0  0  0  0  0  0
  1  2  1  0
  2  3  1  0
  3  4  1  0
  4  5  1  0
  5  6  1  0
  6  7  1  0
  7  8  1  0
  8  9  1  0
  9  1  1  0
  8  4  1  0
  1 10  1  0
  1 11  1  0
  2 12  1  0
  2 13  1  0
  4 14  1  0
  6 15  1  0
  6 16  1  0
  7 17  1  0
  7 18  1  0
  8 19  1  0
M  END
