
     RDKit          3D

 17 18  0  0  0  0  0  0  0  0999 V2000
   -1.5078   -0.3820   -0.1863 C   0  0  0  0  0  0  0  0  0  0  0  0
   -1.3223    0.7242    0.8030 C   0  0  0  0  0  0  0  0  0  0  0  0
   -0.0653    1.2865    0.7496 O   0  0  0  0  0  0  0  0  0  0  0  0
    0.9561    0.3701    0.8254 C   0  0  0  0  0  0  0  0  0  0  0  0
    1.9576    0.4653   -0.3181 C   0  0  0  0  0  0  0  0  0  0  0  0
    0.9898   -0.6458   -0.2433 C   0  0  0  0  0  0  0  0  0  0  0  0
   -0.2854   -0.6740   -1.0035 C   0  0  0  0  0  0  0  0  0  0  0  0
   -1.8278   -1.3116    0.3357 H   0  0  0  0  0  0  0  0  0  0  0  0
   -2.3072   -0.0522   -0.9030 H   0  0  0  0  0  0  0  0  0  0  0  0
   -2.0557    1.5678    0.6476 H   0  0  0  0  0  0  0  0  0  0  0  0
   -1.4612    0.3574    1.8592 H   0  0  0  0  0  0  0  0  0  0  0  0
    1.3042    0.0387    1.8190 H   0  0  0  0  0  0  0  0  0  0  0  0
    1.8519    1.2962   -1.0471 H   0  0  0  0  0  0  0  0  0  0  0  0
    2.9910    0.2867   -0.0100 H   0  0  0  0  0  0  0  0  0  0  0  0
    1.4279   -1.6497   -0.0029 H   0  0  0  0  0  0  0  0  0  0  0  0
   -0.4446   -1.6946   -1.4601 H   0  0  0  0  0  0  0  0  0  0  0  0
   -0.2013    0.0169   -1.8652 H   0  0  0  0  0  0  0  0  0  0  0  0
  1  2  1  0
  2  3  1  0
  3  4  1  0
  4  5  1  0
  5  6  1  0
  6  7  1  0
  7  1  1  0
  6  4  1  0
  1  8  1  0
  1  9  1  0
  2 10  1  0
  2 11  1  0
  4 12  1  0
  5 13  1  0
  5 14  1  0
  6 15  1  0
  7 16  1  0
  7 17  1  0
M  END
