
     RDKit          3D

 19 20  0  0  0  0  0  0  0  0999 V2000
    3.0367    0.0505   -0.1482 C   0  0  0  0  0  0  0  0  0  0  0  0
    2.5115   -1.1395    0.3010 C   0  0  0  0  0  0  0  0  0  0  0  0
    1.1870   -1.1024    0.2430 O   0  0  0  0  0  0  0  0  0  0  0  0
    0.8231    0.0666   -0.2272 C   0  0  0  0  0  0  0  0  0  0  0  0
   -0.5730    0.5107   -0.4471 C   0  0  0  0  0  0  0  0  0  0  0  0
   -1.4743   -0.5110   -1.1080 C   0  0  0  0  0  0  0  0  0  0  0  0
   -2.5899    0.0233   -0.2031 C   0  0  0  0  0  0  0  0  0  0  0  0
   -1.4709    0.3689    0.7823 C   0  0  0  0  0  0  0  0  0  0  0  0
    1.9463    0.8242   -0.4873 C   0  0  0  0  0  0  0  0  0  0  0  0
    4.1017    0.3122   -0.2158 H   0  0  0  0  0  0  0  0  0  0  0  0
    3.1357   -1.9536    0.6406 H   0  0  0  0  0  0  0  0  0  0  0  0
   -0.6820    1.5323   -0.8509 H   0  0  0  0  0  0  0  0  0  0  0  0
   -1.6421   -0.3585   -2.1785 H   0  0  0  0  0  0  0  0  0  0  0  0
   -1.2188   -1.5315   -0.7829 H   0  0  0  0  0  0  0  0  0  0  0  0
   -3.2983   -0.7316    0.1437 H   0  0  0  0  0  0  0  0  0  0  0  0
   -3.0226    0.9836   -0.5678 H   0  0  0  0  0  0  0  0  0  0  0  0
   -1.6179    1.3237    1.3070 H   0  0  0  0  0  0  0  0  0  0  0  0
   -1.1443   -0.4922    1.3983 H   0  0  0  0  0  0  0  0  0  0  0  0
    1.9922    1.8242   -0.8778 H   0  0  0  0  0  0  0  0  0  0  0  0
  1  2  2  0
  2  3  1  0
  3  4  1  0
  4  5  1  0
  5  6  1  0
  6  7  1  0
  7  8  1  0
  4  9  2  0
  9  1  1  0
  8  5  1  0
  1 10  1  0
  2 11  1  0
  5 12  1  0
  6 13  1  0
  6 14  1  0
  7 15  1  0
  7 16  1  0
  8 17  1  0
  8 18  1  0
  9 19  1  0
M  END
