
     RDKit          3D

 21 22  0  0  0  0  0  0  0  0999 V2000
    2.1053    0.5856    0.1854 C   0  0  0  0  0  0  0  0  0  0  0  0
    1.4458   -0.7517   -0.0491 C   0  0  0  0  0  0  0  0  0  0  0  0
    0.4352   -0.9044    0.8516 O   0  0  0  0  0  0  0  0  0  0  0  0
   -0.7296   -1.4308    0.3744 C   0  0  0  0  0  0  0  0  0  0  0  0
   -1.3302   -1.1043   -0.9196 C   0  0  0  0  0  0  0  0  0  0  0  0
   -1.7019   -0.2750    0.2120 C   0  0  0  0  0  0  0  0  0  0  0  0
   -1.1043    1.0335    0.5697 C   0  0  0  0  0  0  0  0  0  0  0  0
    0.0227    1.4995   -0.2629 C   0  0  0  0  0  0  0  0  0  0  0  0
    1.2085    1.5980    0.4564 O   0  0  0  0  0  0  0  0  0  0  0  0
    2.7537    0.4728    1.0923 H   0  0  0  0  0  0  0  0  0  0  0  0
    2.7464    0.8702   -0.6664 H   0  0  0  0  0  0  0  0  0  0  0  0
    2.2301   -1.5285    0.1978 H   0  0  0  0  0  0  0  0  0  0  0  0
    1.1897   -0.9164   -1.0986 H   0  0  0  0  0  0  0  0  0  0  0  0
   -1.0676   -2.3492    0.8992 H   0  0  0  0  0  0  0  0  0  0  0  0
   -0.7262   -0.7525   -1.7785 H   0  0  0  0  0  0  0  0  0  0  0  0
   -2.1226   -1.8203   -1.2824 H   0  0  0  0  0  0  0  0  0  0  0  0
   -2.6860   -0.4703    0.7231 H   0  0  0  0  0  0  0  0  0  0  0  0
   -0.7371    0.9554    1.6357 H   0  0  0  0  0  0  0  0  0  0  0  0
   -1.9397    1.7814    0.6317 H   0  0  0  0  0  0  0  0  0  0  0  0
   -0.2120    2.5579   -0.5907 H   0  0  0  0  0  0  0  0  0  0  0  0
    0.2200    0.9493   -1.1811 H   0  0  0  0  0  0  0  0  0  0  0  0
  1  2  1  0
  2  3  1  0
  3  4  1  0
  4  5  1  0
  5  6  1  0
  6  7  1  0
  7  8  1  0
  8  9  1  0
  9  1  1  0
  6  4  1  0
  1 10  1  0
  1 11  1  0
  2 12  1  0
  2 13  1  0
  4 14  1  0
  5 15  1  0
  5 16  1  0
  6 17  1  0
  7 18  1  0
  7 19  1  0
  8 20  1  0
  8 21  1  0
M  END
