
     RDKit          3D

 21 22  0  0  0  0  0  0  0  0999 V2000
    1.7923    0.3666    0.5440 C   0  0  0  0  0  0  0  0  0  0  0  0
    1.5709   -1.0986    0.1808 C   0  0  0  0  0  0  0  0  0  0  0  0
    0.2232   -1.3791    0.4365 O   0  0  0  0  0  0  0  0  0  0  0  0
   -0.5584   -1.2210   -0.6933 C   0  0  0  0  0  0  0  0  0  0  0  0
   -1.3287    0.0544   -0.5976 C   0  0  0  0  0  0  0  0  0  0  0  0
   -2.0819    0.1296    0.7057 C   0  0  0  0  0  0  0  0  0  0  0  0
   -0.8318    0.4161    1.3078 O   0  0  0  0  0  0  0  0  0  0  0  0
   -0.5585    1.1450    0.1527 C   0  0  0  0  0  0  0  0  0  0  0  0
    0.8500    1.1736   -0.3073 C   0  0  0  0  0  0  0  0  0  0  0  0
    1.5035    0.4706    1.6025 H   0  0  0  0  0  0  0  0  0  0  0  0
    2.8380    0.6749    0.4163 H   0  0  0  0  0  0  0  0  0  0  0  0
    2.2063   -1.7519    0.8009 H   0  0  0  0  0  0  0  0  0  0  0  0
    1.8259   -1.2319   -0.8781 H   0  0  0  0  0  0  0  0  0  0  0  0
   -1.2973   -2.0672   -0.6887 H   0  0  0  0  0  0  0  0  0  0  0  0
    0.0326   -1.2988   -1.6392 H   0  0  0  0  0  0  0  0  0  0  0  0
   -1.8185    0.4358   -1.4841 H   0  0  0  0  0  0  0  0  0  0  0  0
   -2.5096   -0.8364    0.9690 H   0  0  0  0  0  0  0  0  0  0  0  0
   -2.7704    0.9849    0.8212 H   0  0  0  0  0  0  0  0  0  0  0  0
   -1.1372    2.0777    0.1261 H   0  0  0  0  0  0  0  0  0  0  0  0
    1.1678    2.2278   -0.4359 H   0  0  0  0  0  0  0  0  0  0  0  0
    0.8819    0.7279   -1.3393 H   0  0  0  0  0  0  0  0  0  0  0  0
  1  2  1  0
  2  3  1  0
  3  4  1  0
  4  5  1  0
  5  6  1  0
  6  7  1  0
  7  8  1  0
  8  9  1  0
  9  1  1  0
  8  5  1  0
  1 10  1  0
  1 11  1  0
  2 12  1  0
  2 13  1  0
  4 14  1  0
  4 15  1  0
  5 16  1  0
  6 17  1  0
  6 18  1  0
  8 19  1  0
  9 20  1  0
  9 21  1  0
M  END
