
     RDKit          3D

 19 21  0  0  0  0  0  0  0  0999 V2000
   -1.4663   -0.0778    0.8775 C   0  0  0  0  0  0  0  0  0  0  0  0
   -1.7615    0.2288   -0.5276 C   0  0  0  0  0  0  0  0  0  0  0  0
   -1.0006    1.2779   -1.1028 O   0  0  0  0  0  0  0  0  0  0  0  0
    0.1880    1.1950   -0.4318 C   0  0  0  0  0  0  0  0  0  0  0  0
    1.4980    0.7032   -0.6145 C   0  0  0  0  0  0  0  0  0  0  0  0
    2.0149   -0.2699    0.4816 C   0  0  0  0  0  0  0  0  0  0  0  0
    0.6504   -1.0005    0.4626 C   0  0  0  0  0  0  0  0  0  0  0  0
   -0.2822   -0.4738    1.3185 O   0  0  0  0  0  0  0  0  0  0  0  0
    0.5050   -0.2850   -0.8238 C   0  0  0  0  0  0  0  0  0  0  0  0
   -2.2264   -0.8696    1.1697 H   0  0  0  0  0  0  0  0  0  0  0  0
   -1.8165    0.8037    1.4996 H   0  0  0  0  0  0  0  0  0  0  0  0
   -2.8305    0.5106   -0.6114 H   0  0  0  0  0  0  0  0  0  0  0  0
   -1.6556   -0.6887   -1.1771 H   0  0  0  0  0  0  0  0  0  0  0  0
   -0.0607    1.3888    0.6623 H   0  0  0  0  0  0  0  0  0  0  0  0
    2.2441    1.0107   -1.3576 H   0  0  0  0  0  0  0  0  0  0  0  0
    2.7989   -0.9116    0.0759 H   0  0  0  0  0  0  0  0  0  0  0  0
    2.1726    0.2324    1.4289 H   0  0  0  0  0  0  0  0  0  0  0  0
    0.7330   -2.0898    0.4426 H   0  0  0  0  0  0  0  0  0  0  0  0
    0.2954   -0.6843   -1.7727 H   0  0  0  0  0  0  0  0  0  0  0  0
  1  2  1  0
  2  3  1  0
  3  4  1  0
  4  5  1  0
  5  6  1  0
  6  7  1  0
  7  8  1  0
  7  9  1  0
  8  1  1  0
  9  4  1  0
  9  5  1  0
  1 10  1  0
  1 11  1  0
  2 12  1  0
  2 13  1  0
  4 14  1  0
  5 15  1  0
  6 16  1  0
  6 17  1  0
  7 18  1  0
  9 19  1  0
M  END
