
     RDKit          3D

 21 22  0  0  0  0  0  0  0  0999 V2000
    1.5856   -0.5223    0.6744 C   0  0  0  0  0  0  0  0  0  0  0  0
    1.3885    0.9362    0.3932 C   0  0  0  0  0  0  0  0  0  0  0  0
    0.1719    1.4363    0.7497 O   0  0  0  0  0  0  0  0  0  0  0  0
   -0.8603    1.2405   -0.1212 C   0  0  0  0  0  0  0  0  0  0  0  0
   -1.9023    0.4178    0.6602 C   0  0  0  0  0  0  0  0  0  0  0  0
   -1.5110   -0.8918    0.5626 O   0  0  0  0  0  0  0  0  0  0  0  0
   -0.6153   -1.0313   -0.4632 C   0  0  0  0  0  0  0  0  0  0  0  0
    0.7452   -1.4746   -0.0389 C   0  0  0  0  0  0  0  0  0  0  0  0
   -0.6013    0.2738   -1.2289 C   0  0  0  0  0  0  0  0  0  0  0  0
    2.6738   -0.7310    0.4458 H   0  0  0  0  0  0  0  0  0  0  0  0
    1.5187   -0.6480    1.7880 H   0  0  0  0  0  0  0  0  0  0  0  0
    1.7261    1.2336   -0.6365 H   0  0  0  0  0  0  0  0  0  0  0  0
    2.1470    1.4695    1.0480 H   0  0  0  0  0  0  0  0  0  0  0  0
   -1.3127    2.1896   -0.4929 H   0  0  0  0  0  0  0  0  0  0  0  0
   -2.9142    0.6177    0.2543 H   0  0  0  0  0  0  0  0  0  0  0  0
   -1.9032    0.7303    1.7257 H   0  0  0  0  0  0  0  0  0  0  0  0
   -1.0161   -1.7971   -1.1655 H   0  0  0  0  0  0  0  0  0  0  0  0
    1.2827   -1.8169   -0.9728 H   0  0  0  0  0  0  0  0  0  0  0  0
    0.6121   -2.3997    0.5628 H   0  0  0  0  0  0  0  0  0  0  0  0
   -1.4901    0.3246   -1.9172 H   0  0  0  0  0  0  0  0  0  0  0  0
    0.2750    0.4426   -1.8276 H   0  0  0  0  0  0  0  0  0  0  0  0
  1  2  1  0
  2  3  1  0
  3  4  1  0
  4  5  1  0
  5  6  1  0
  6  7  1  0
  7  8  1  0
  7  9  1  0
  8  1  1  0
  9  4  1  0
  1 10  1  0
  1 11  1  0
  2 12  1  0
  2 13  1  0
  4 14  1  0
  5 15  1  0
  5 16  1  0
  7 17  1  0
  8 18  1  0
  8 19  1  0
  9 20  1  0
  9 21  1  0
M  END
