
     RDKit          3D

 23 24  0  0  0  0  0  0  0  0999 V2000
    2.7600   -0.1104   -0.4402 C   0  0  0  0  0  0  0  0  0  0  0  0
    2.8066    0.3066    1.0045 C   0  0  0  0  0  0  0  0  0  0  0  0
    1.5407    0.8144    1.2998 O   0  0  0  0  0  0  0  0  0  0  0  0
    0.6481   -0.0695    0.6935 C   0  0  0  0  0  0  0  0  0  0  0  0
   -0.6976    0.5741    0.6295 C   0  0  0  0  0  0  0  0  0  0  0  0
   -1.7484   -0.2901   -0.0084 C   0  0  0  0  0  0  0  0  0  0  0  0
   -3.1278    0.3975   -0.0619 C   0  0  0  0  0  0  0  0  0  0  0  0
   -2.8862   -0.8432    0.7211 C   0  0  0  0  0  0  0  0  0  0  0  0
    1.2691   -0.1784   -0.7038 C   0  0  0  0  0  0  0  0  0  0  0  0
    3.2220   -1.1050   -0.5871 H   0  0  0  0  0  0  0  0  0  0  0  0
    3.2462    0.6232   -1.1031 H   0  0  0  0  0  0  0  0  0  0  0  0
    3.5631    1.0749    1.1869 H   0  0  0  0  0  0  0  0  0  0  0  0
    3.0251   -0.5620    1.6734 H   0  0  0  0  0  0  0  0  0  0  0  0
    0.6825   -1.0182    1.2348 H   0  0  0  0  0  0  0  0  0  0  0  0
   -0.9972    0.9186    1.6378 H   0  0  0  0  0  0  0  0  0  0  0  0
   -0.6037    1.4888    0.0022 H   0  0  0  0  0  0  0  0  0  0  0  0
   -1.4490   -0.7807   -0.9513 H   0  0  0  0  0  0  0  0  0  0  0  0
   -3.2812    1.3089    0.5119 H   0  0  0  0  0  0  0  0  0  0  0  0
   -3.6720    0.3677   -1.0269 H   0  0  0  0  0  0  0  0  0  0  0  0
   -3.3464   -1.7761    0.3452 H   0  0  0  0  0  0  0  0  0  0  0  0
   -2.8795   -0.7722    1.8174 H   0  0  0  0  0  0  0  0  0  0  0  0
    0.9773    0.7337   -1.2448 H   0  0  0  0  0  0  0  0  0  0  0  0
    0.9484   -1.1027   -1.1834 H   0  0  0  0  0  0  0  0  0  0  0  0
  1  2  1  0
  2  3  1  0
  3  4  1  0
  4  5  1  0
  5  6  1  0
  6  7  1  0
  7  8  1  0
  4  9  1  0
  9  1  1  0
  8  6  1  0
  1 10  1  0
  1 11  1  0
  2 12  1  0
  2 13  1  0
  4 14  1  0
  5 15  1  0
  5 16  1  0
  6 17  1  0
  7 18  1  0
  7 19  1  0
  8 20  1  0
  8 21  1  0
  9 22  1  0
  9 23  1  0
M  END
