
     RDKit          3D

 21 22  0  0  0  0  0  0  0  0999 V2000
   -2.2553    0.5257   -0.0324 C   0  0  0  0  0  0  0  0  0  0  0  0
   -0.9961    1.3515   -0.2058 C   0  0  0  0  0  0  0  0  0  0  0  0
   -0.0600    0.9810    0.7522 O   0  0  0  0  0  0  0  0  0  0  0  0
    0.8824    0.0873    0.2816 C   0  0  0  0  0  0  0  0  0  0  0  0
    0.3629   -1.3063    0.1030 C   0  0  0  0  0  0  0  0  0  0  0  0
   -1.0922   -1.3757   -0.2386 C   0  0  0  0  0  0  0  0  0  0  0  0
   -1.8992   -0.6499    0.6229 O   0  0  0  0  0  0  0  0  0  0  0  0
    1.9938    0.6336   -0.5104 C   0  0  0  0  0  0  0  0  0  0  0  0
    2.2987    0.1382    0.8483 C   0  0  0  0  0  0  0  0  0  0  0  0
   -2.7131    0.2434   -0.9969 H   0  0  0  0  0  0  0  0  0  0  0  0
   -3.0393    1.0711    0.5399 H   0  0  0  0  0  0  0  0  0  0  0  0
   -1.2038    2.4395   -0.0564 H   0  0  0  0  0  0  0  0  0  0  0  0
   -0.6257    1.2298   -1.2350 H   0  0  0  0  0  0  0  0  0  0  0  0
    0.9217   -1.8697   -0.6583 H   0  0  0  0  0  0  0  0  0  0  0  0
    0.4813   -1.8203    1.1024 H   0  0  0  0  0  0  0  0  0  0  0  0
   -1.3245   -1.1425   -1.2905 H   0  0  0  0  0  0  0  0  0  0  0  0
   -1.3963   -2.4563   -0.1033 H   0  0  0  0  0  0  0  0  0  0  0  0
    2.3130    0.1095   -1.4219 H   0  0  0  0  0  0  0  0  0  0  0  0
    2.0395    1.7465   -0.6230 H   0  0  0  0  0  0  0  0  0  0  0  0
    2.4270    0.8679    1.6716 H   0  0  0  0  0  0  0  0  0  0  0  0
    2.8855   -0.8042    0.8888 H   0  0  0  0  0  0  0  0  0  0  0  0
  1  2  1  0
  2  3  1  0
  3  4  1  0
  4  5  1  0
  5  6  1  0
  6  7  1  0
  4  8  1  0
  8  9  1  0
  7  1  1  0
  9  4  1  0
  1 10  1  0
  1 11  1  0
  2 12  1  0
  2 13  1  0
  5 14  1  0
  5 15  1  0
  6 16  1  0
  6 17  1  0
  8 18  1  0
  8 19  1  0
  9 20  1  0
  9 21  1  0
M  END
