
     RDKit          3D

 18 19  0  0  0  0  0  0  0  0999 V2000
    1.4324   -0.8878   -0.2492 C   0  0  0  0  0  0  0  0  0  0  0  0
    1.4914    0.6042   -0.2170 C   0  0  0  0  0  0  0  0  0  0  0  0
    0.4408    1.2495   -0.7868 O   0  0  0  0  0  0  0  0  0  0  0  0
   -0.7808    1.0623   -0.2309 C   0  0  0  0  0  0  0  0  0  0  0  0
   -1.3136   -0.2695   -0.7847 C   0  0  0  0  0  0  0  0  0  0  0  0
   -0.7845   -0.9118    0.4640 C   0  0  0  0  0  0  0  0  0  0  0  0
   -0.8047    0.4424    1.1196 C   0  0  0  0  0  0  0  0  0  0  0  0
    0.4188   -1.4952    0.3702 O   0  0  0  0  0  0  0  0  0  0  0  0
    2.3919   -1.2559    0.2110 H   0  0  0  0  0  0  0  0  0  0  0  0
    1.5068   -1.2234   -1.3214 H   0  0  0  0  0  0  0  0  0  0  0  0
    1.7375    0.9781    0.8137 H   0  0  0  0  0  0  0  0  0  0  0  0
    2.4090    0.8875   -0.8155 H   0  0  0  0  0  0  0  0  0  0  0  0
   -1.4782    1.9094   -0.3816 H   0  0  0  0  0  0  0  0  0  0  0  0
   -2.4334   -0.2035   -0.7780 H   0  0  0  0  0  0  0  0  0  0  0  0
   -0.8729   -0.5821   -1.7291 H   0  0  0  0  0  0  0  0  0  0  0  0
   -1.5452   -1.5977    0.8907 H   0  0  0  0  0  0  0  0  0  0  0  0
   -0.0101    0.6710    1.8201 H   0  0  0  0  0  0  0  0  0  0  0  0
   -1.8051    0.6226    1.6050 H   0  0  0  0  0  0  0  0  0  0  0  0
  1  2  1  0
  2  3  1  0
  3  4  1  0
  4  5  1  0
  5  6  1  0
  6  7  1  0
  6  8  1  0
  8  1  1  0
  7  4  1  0
  1  9  1  0
  1 10  1  0
  2 11  1  0
  2 12  1  0
  4 13  1  0
  5 14  1  0
  5 15  1  0
  6 16  1  0
  7 17  1  0
  7 18  1  0
M  END
