
     RDKit          3D

 21 22  0  0  0  0  0  0  0  0999 V2000
    1.5919    0.2027   -0.2947 C   0  0  0  0  0  0  0  0  0  0  0  0
    0.8194    1.5118   -0.4661 C   0  0  0  0  0  0  0  0  0  0  0  0
    0.0757    1.7841    0.7052 O   0  0  0  0  0  0  0  0  0  0  0  0
   -1.2840    1.4648    0.4808 C   0  0  0  0  0  0  0  0  0  0  0  0
   -1.3128    0.5074   -0.4898 O   0  0  0  0  0  0  0  0  0  0  0  0
   -1.3709   -0.7819   -0.0786 C   0  0  0  0  0  0  0  0  0  0  0  0
   -0.5279   -1.7513   -0.9350 C   0  0  0  0  0  0  0  0  0  0  0  0
   -0.1842   -1.4051    0.4684 C   0  0  0  0  0  0  0  0  0  0  0  0
    0.9594   -0.5417    0.8291 C   0  0  0  0  0  0  0  0  0  0  0  0
    1.6848   -0.3491   -1.2340 H   0  0  0  0  0  0  0  0  0  0  0  0
    2.6463    0.4678    0.0095 H   0  0  0  0  0  0  0  0  0  0  0  0
    0.1771    1.3777   -1.3433 H   0  0  0  0  0  0  0  0  0  0  0  0
    1.4918    2.3733   -0.5998 H   0  0  0  0  0  0  0  0  0  0  0  0
   -1.7581    1.2025    1.4254 H   0  0  0  0  0  0  0  0  0  0  0  0
   -1.7398    2.4283    0.1099 H   0  0  0  0  0  0  0  0  0  0  0  0
   -2.3807   -1.1665    0.2425 H   0  0  0  0  0  0  0  0  0  0  0  0
   -1.0044   -2.7505   -1.1526 H   0  0  0  0  0  0  0  0  0  0  0  0
   -0.0004   -1.3492   -1.7991 H   0  0  0  0  0  0  0  0  0  0  0  0
   -0.3579   -2.2535    1.1958 H   0  0  0  0  0  0  0  0  0  0  0  0
    0.7189    0.2127    1.6316 H   0  0  0  0  0  0  0  0  0  0  0  0
    1.7561   -1.1843    1.2949 H   0  0  0  0  0  0  0  0  0  0  0  0
  1  2  1  0
  2  3  1  0
  3  4  1  0
  4  5  1  0
  5  6  1  0
  6  7  1  0
  7  8  1  0
  8  9  1  0
  9  1  1  0
  8  6  1  0
  1 10  1  0
  1 11  1  0
  2 12  1  0
  2 13  1  0
  4 14  1  0
  4 15  1  0
  6 16  1  0
  7 17  1  0
  7 18  1  0
  8 19  1  0
  9 20  1  0
  9 21  1  0
M  END
