
     RDKit          3D

 21 22  0  0  0  0  0  0  0  0999 V2000
   -1.6209    0.6695   -0.7271 C   0  0  0  0  0  0  0  0  0  0  0  0
   -2.2403   -0.5523   -0.0511 C   0  0  0  0  0  0  0  0  0  0  0  0
   -1.6686   -0.6922    1.1782 O   0  0  0  0  0  0  0  0  0  0  0  0
   -0.3186   -0.8760    1.2017 C   0  0  0  0  0  0  0  0  0  0  0  0
    0.4700   -0.0259    0.2736 C   0  0  0  0  0  0  0  0  0  0  0  0
   -0.1860    0.2287   -1.0515 C   0  0  0  0  0  0  0  0  0  0  0  0
    1.9145   -0.4260    0.2100 C   0  0  0  0  0  0  0  0  0  0  0  0
    2.1259    1.0582    0.2994 C   0  0  0  0  0  0  0  0  0  0  0  0
    0.8572    1.1827    0.8753 O   0  0  0  0  0  0  0  0  0  0  0  0
   -1.5112    1.4353    0.0719 H   0  0  0  0  0  0  0  0  0  0  0  0
   -2.1661    0.9977   -1.6037 H   0  0  0  0  0  0  0  0  0  0  0  0
   -3.3272   -0.4125    0.0738 H   0  0  0  0  0  0  0  0  0  0  0  0
   -2.0461   -1.4023   -0.7495 H   0  0  0  0  0  0  0  0  0  0  0  0
   -0.0954   -1.9730    1.0941 H   0  0  0  0  0  0  0  0  0  0  0  0
    0.0314   -0.6363    2.2505 H   0  0  0  0  0  0  0  0  0  0  0  0
   -0.1954   -0.6790   -1.7095 H   0  0  0  0  0  0  0  0  0  0  0  0
    0.3678    1.0403   -1.5517 H   0  0  0  0  0  0  0  0  0  0  0  0
    2.2655   -0.9849    1.0888 H   0  0  0  0  0  0  0  0  0  0  0  0
    2.2501   -0.9227   -0.7098 H   0  0  0  0  0  0  0  0  0  0  0  0
    2.8963    1.3797    1.0433 H   0  0  0  0  0  0  0  0  0  0  0  0
    2.1971    1.5910   -0.6694 H   0  0  0  0  0  0  0  0  0  0  0  0
  1  2  1  0
  2  3  1  0
  3  4  1  0
  4  5  1  0
  5  6  1  0
  5  7  1  0
  7  8  1  0
  8  9  1  0
  6  1  1  0
  9  5  1  0
  1 10  1  0
  1 11  1  0
  2 12  1  0
  2 13  1  0
  4 14  1  0
  4 15  1  0
  6 16  1  0
  6 17  1  0
  7 18  1  0
  7 19  1  0
  8 20  1  0
  8 21  1  0
M  END
