
     RDKit          3D

 21 23  0  0  0  0  0  0  0  0999 V2000
   -1.9355    0.1229   -0.2048 C   0  0  0  0  0  0  0  0  0  0  0  0
   -1.7420    0.7962    1.1373 C   0  0  0  0  0  0  0  0  0  0  0  0
   -0.4599    1.3497    1.2814 O   0  0  0  0  0  0  0  0  0  0  0  0
    0.3295    0.8235    0.3304 C   0  0  0  0  0  0  0  0  0  0  0  0
    0.2119   -0.7052    0.4812 C   0  0  0  0  0  0  0  0  0  0  0  0
   -0.9506   -1.0450   -0.3770 C   0  0  0  0  0  0  0  0  0  0  0  0
    1.5888   -0.8756    0.0494 C   0  0  0  0  0  0  0  0  0  0  0  0
    2.4032    0.0361   -0.7590 C   0  0  0  0  0  0  0  0  0  0  0  0
    1.7717    0.6259    0.4729 C   0  0  0  0  0  0  0  0  0  0  0  0
   -2.9419   -0.3433   -0.1715 H   0  0  0  0  0  0  0  0  0  0  0  0
   -1.9163    0.8073   -1.0509 H   0  0  0  0  0  0  0  0  0  0  0  0
   -2.0060    0.1097    1.9423 H   0  0  0  0  0  0  0  0  0  0  0  0
   -2.4432    1.6552    1.1555 H   0  0  0  0  0  0  0  0  0  0  0  0
    0.0543    1.1837   -0.6815 H   0  0  0  0  0  0  0  0  0  0  0  0
    0.0388   -0.9900    1.5604 H   0  0  0  0  0  0  0  0  0  0  0  0
   -1.4054   -1.9827    0.0135 H   0  0  0  0  0  0  0  0  0  0  0  0
   -0.6249   -1.1251   -1.4203 H   0  0  0  0  0  0  0  0  0  0  0  0
    2.1946   -1.6063    0.6663 H   0  0  0  0  0  0  0  0  0  0  0  0
    2.0004    0.3940   -1.7406 H   0  0  0  0  0  0  0  0  0  0  0  0
    3.4892   -0.0135   -0.7335 H   0  0  0  0  0  0  0  0  0  0  0  0
    2.3433    0.7824    1.3863 H   0  0  0  0  0  0  0  0  0  0  0  0
  1  2  1  0
  2  3  1  0
  3  4  1  0
  4  5  1  0
  5  6  1  0
  5  7  1  0
  7  8  1  0
  8  9  1  0
  6  1  1  0
  9  7  1  0
  9  4  1  0
  1 10  1  0
  1 11  1  0
  2 12  1  0
  2 13  1  0
  4 14  1  0
  5 15  1  0
  6 16  1  0
  6 17  1  0
  7 18  1  0
  8 19  1  0
  8 20  1  0
  9 21  1  0
M  END
