
     RDKit          3D

 19 21  0  0  0  0  0  0  0  0999 V2000
   -2.1942    0.4448   -0.0004 C   0  0  0  0  0  0  0  0  0  0  0  0
   -1.5983   -0.4849    1.0641 C   0  0  0  0  0  0  0  0  0  0  0  0
   -0.3335    0.1158    1.2258 O   0  0  0  0  0  0  0  0  0  0  0  0
    0.1295    0.1296   -0.0783 C   0  0  0  0  0  0  0  0  0  0  0  0
   -1.0080    0.5084   -0.9725 C   0  0  0  0  0  0  0  0  0  0  0  0
    1.5151    0.4943   -0.4001 C   0  0  0  0  0  0  0  0  0  0  0  0
    2.5818    0.0586    0.5594 C   0  0  0  0  0  0  0  0  0  0  0  0
    2.0682   -1.2381    0.4749 O   0  0  0  0  0  0  0  0  0  0  0  0
    1.0967   -0.9264   -0.4348 C   0  0  0  0  0  0  0  0  0  0  0  0
   -2.3306    1.4176    0.4900 H   0  0  0  0  0  0  0  0  0  0  0  0
   -3.0888    0.0306   -0.4624 H   0  0  0  0  0  0  0  0  0  0  0  0
   -1.3927   -1.4922    0.6322 H   0  0  0  0  0  0  0  0  0  0  0  0
   -2.1849   -0.4989    1.9780 H   0  0  0  0  0  0  0  0  0  0  0  0
   -0.8984    1.5521   -1.3433 H   0  0  0  0  0  0  0  0  0  0  0  0
   -1.1732   -0.1970   -1.8130 H   0  0  0  0  0  0  0  0  0  0  0  0
    1.7512    0.9851   -1.3428 H   0  0  0  0  0  0  0  0  0  0  0  0
    2.4168    0.4259    1.6061 H   0  0  0  0  0  0  0  0  0  0  0  0
    3.6148    0.1831    0.1786 H   0  0  0  0  0  0  0  0  0  0  0  0
    1.0287   -1.5083   -1.3615 H   0  0  0  0  0  0  0  0  0  0  0  0
  1  2  1  0
  2  3  1  0
  3  4  1  0
  4  5  1  0
  4  6  1  0
  6  7  1  0
  7  8  1  0
  8  9  1  0
  5  1  1  0
  9  6  1  0
  9  4  1  0
  1 10  1  0
  1 11  1  0
  2 12  1  0
  2 13  1  0
  5 14  1  0
  5 15  1  0
  6 16  1  0
  7 17  1  0
  7 18  1  0
  9 19  1  0
M  END
