
     RDKit          3D

 19 20  0  0  0  0  0  0  0  0999 V2000
   -2.3259    0.2854    0.1676 C   0  0  0  0  0  0  0  0  0  0  0  0
   -1.8964   -0.7306   -0.8600 C   0  0  0  0  0  0  0  0  0  0  0  0
   -0.4836   -0.6885   -0.8250 O   0  0  0  0  0  0  0  0  0  0  0  0
   -0.2608   -0.2867    0.4754 C   0  0  0  0  0  0  0  0  0  0  0  0
    1.1644    0.1309    0.7285 C   0  0  0  0  0  0  0  0  0  0  0  0
    1.6586    1.2705   -0.0929 C   0  0  0  0  0  0  0  0  0  0  0  0
    2.9130    0.6285   -0.1362 O   0  0  0  0  0  0  0  0  0  0  0  0
    2.2001   -0.5872   -0.1009 C   0  0  0  0  0  0  0  0  0  0  0  0
   -1.1085    0.8241    0.5797 O   0  0  0  0  0  0  0  0  0  0  0  0
   -2.8065   -0.1479    1.0469 H   0  0  0  0  0  0  0  0  0  0  0  0
   -2.9416    1.0615   -0.3309 H   0  0  0  0  0  0  0  0  0  0  0  0
   -2.2939   -0.5552   -1.8599 H   0  0  0  0  0  0  0  0  0  0  0  0
   -2.1620   -1.7351   -0.4391 H   0  0  0  0  0  0  0  0  0  0  0  0
   -0.6192   -1.0308    1.1855 H   0  0  0  0  0  0  0  0  0  0  0  0
    1.4712    0.2004    1.7729 H   0  0  0  0  0  0  0  0  0  0  0  0
    1.1803    1.2999   -1.0931 H   0  0  0  0  0  0  0  0  0  0  0  0
    1.6867    2.2649    0.4026 H   0  0  0  0  0  0  0  0  0  0  0  0
    1.8961   -0.8699   -1.1206 H   0  0  0  0  0  0  0  0  0  0  0  0
    2.7281   -1.3343    0.4994 H   0  0  0  0  0  0  0  0  0  0  0  0
  1  2  1  0
  2  3  1  0
  3  4  1  0
  4  5  1  0
  5  6  1  0
  6  7  1  0
  7  8  1  0
  4  9  1  0
  9  1  1  0
  8  5  1  0
  1 10  1  0
  1 11  1  0
  2 12  1  0
  2 13  1  0
  4 14  1  0
  5 15  1  0
  6 16  1  0
  6 17  1  0
  8 18  1  0
  8 19  1  0
M  END
