
     RDKit          3D

 21 22  0  0  0  0  0  0  0  0999 V2000
    2.3069    0.2567   -0.3688 C   0  0  0  0  0  0  0  0  0  0  0  0
    1.8409    0.6172    1.0056 C   0  0  0  0  0  0  0  0  0  0  0  0
    0.4658    0.6513    1.0225 O   0  0  0  0  0  0  0  0  0  0  0  0
   -0.0893   -0.5061    0.5115 C   0  0  0  0  0  0  0  0  0  0  0  0
   -1.5830   -0.4813    0.7577 C   0  0  0  0  0  0  0  0  0  0  0  0
   -2.3908    0.6437    0.1591 C   0  0  0  0  0  0  0  0  0  0  0  0
   -2.4850   -0.7444   -0.4132 C   0  0  0  0  0  0  0  0  0  0  0  0
    0.1309   -0.6832   -0.8303 O   0  0  0  0  0  0  0  0  0  0  0  0
    1.2109   -0.0189   -1.3423 C   0  0  0  0  0  0  0  0  0  0  0  0
    2.9137    1.1136   -0.7858 H   0  0  0  0  0  0  0  0  0  0  0  0
    3.0467   -0.5844   -0.2960 H   0  0  0  0  0  0  0  0  0  0  0  0
    2.1898   -0.1549    1.7450 H   0  0  0  0  0  0  0  0  0  0  0  0
    2.2480    1.5770    1.3695 H   0  0  0  0  0  0  0  0  0  0  0  0
    0.3126   -1.4075    1.0369 H   0  0  0  0  0  0  0  0  0  0  0  0
   -1.9542   -0.8314    1.7308 H   0  0  0  0  0  0  0  0  0  0  0  0
   -3.3080    0.9809    0.6707 H   0  0  0  0  0  0  0  0  0  0  0  0
   -1.8767    1.4396   -0.3935 H   0  0  0  0  0  0  0  0  0  0  0  0
   -2.0594   -0.8496   -1.4223 H   0  0  0  0  0  0  0  0  0  0  0  0
   -3.4008   -1.3343   -0.2374 H   0  0  0  0  0  0  0  0  0  0  0  0
    1.6354   -0.6379   -2.1647 H   0  0  0  0  0  0  0  0  0  0  0  0
    0.8458    0.9540   -1.7550 H   0  0  0  0  0  0  0  0  0  0  0  0
  1  2  1  0
  2  3  1  0
  3  4  1  0
  4  5  1  0
  5  6  1  0
  6  7  1  0
  4  8  1  0
  8  9  1  0
  9  1  1  0
  7  5  1  0
  1 10  1  0
  1 11  1  0
  2 12  1  0
  2 13  1  0
  4 14  1  0
  5 15  1  0
  6 16  1  0
  6 17  1  0
  7 18  1  0
  7 19  1  0
  9 20  1  0
  9 21  1  0
M  END
