
     RDKit          3D

 18 19  0  0  0  0  0  0  0  0999 V2000
   -1.6711    0.1971    0.4804 C   0  0  0  0  0  0  0  0  0  0  0  0
   -0.8051    1.2588   -0.1785 C   0  0  0  0  0  0  0  0  0  0  0  0
    0.3085    1.4173    0.5755 O   0  0  0  0  0  0  0  0  0  0  0  0
    1.4017    0.6711    0.2526 C   0  0  0  0  0  0  0  0  0  0  0  0
    1.5287   -0.2140   -0.8940 C   0  0  0  0  0  0  0  0  0  0  0  0
    1.2794   -0.7860    0.4324 C   0  0  0  0  0  0  0  0  0  0  0  0
    0.0994   -1.2608    0.8833 O   0  0  0  0  0  0  0  0  0  0  0  0
   -1.0019   -1.1282    0.1128 C   0  0  0  0  0  0  0  0  0  0  0  0
   -1.5459    0.3085    1.5687 H   0  0  0  0  0  0  0  0  0  0  0  0
   -2.7153    0.2419    0.1901 H   0  0  0  0  0  0  0  0  0  0  0  0
   -0.6713    1.0704   -1.2403 H   0  0  0  0  0  0  0  0  0  0  0  0
   -1.4115    2.2099   -0.1075 H   0  0  0  0  0  0  0  0  0  0  0  0
    2.3641    1.1425    0.6182 H   0  0  0  0  0  0  0  0  0  0  0  0
    2.5518   -0.3454   -1.3614 H   0  0  0  0  0  0  0  0  0  0  0  0
    0.7585   -0.3065   -1.6998 H   0  0  0  0  0  0  0  0  0  0  0  0
    2.1691   -1.3150    0.8930 H   0  0  0  0  0  0  0  0  0  0  0  0
   -1.7492   -1.9137    0.4349 H   0  0  0  0  0  0  0  0  0  0  0  0
   -0.8899   -1.2480   -0.9604 H   0  0  0  0  0  0  0  0  0  0  0  0
  1  2  1  0
  2  3  1  0
  3  4  1  0
  4  5  1  0
  5  6  1  0
  6  7  1  0
  7  8  1  0
  8  1  1  0
  6  4  1  0
  1  9  1  0
  1 10  1  0
  2 11  1  0
  2 12  1  0
  4 13  1  0
  5 14  1  0
  5 15  1  0
  6 16  1  0
  8 17  1  0
  8 18  1  0
M  END
