
     RDKit          3D

 17 19  0  0  0  0  0  0  0  0999 V2000
    1.4910    0.0128   -0.4698 C   0  0  0  0  0  0  0  0  0  0  0  0
    0.6993   -0.7445   -1.2775 O   0  0  0  0  0  0  0  0  0  0  0  0
   -0.5174   -1.1037   -0.7717 C   0  0  0  0  0  0  0  0  0  0  0  0
   -1.4358   -0.1163   -1.2055 O   0  0  0  0  0  0  0  0  0  0  0  0
   -0.9800    1.0370   -0.5273 C   0  0  0  0  0  0  0  0  0  0  0  0
   -0.5715    0.5722    0.8297 C   0  0  0  0  0  0  0  0  0  0  0  0
    0.8987    0.2305    0.8948 C   0  0  0  0  0  0  0  0  0  0  0  0
    0.5478   -1.0225    1.3956 O   0  0  0  0  0  0  0  0  0  0  0  0
   -0.6387   -0.9244    0.7265 C   0  0  0  0  0  0  0  0  0  0  0  0
    2.4449   -0.5721   -0.3041 H   0  0  0  0  0  0  0  0  0  0  0  0
    1.8450    0.9707   -0.9358 H   0  0  0  0  0  0  0  0  0  0  0  0
   -0.8744   -2.0896   -1.1178 H   0  0  0  0  0  0  0  0  0  0  0  0
   -1.7405    1.8258   -0.5037 H   0  0  0  0  0  0  0  0  0  0  0  0
   -0.1348    1.4151   -1.1450 H   0  0  0  0  0  0  0  0  0  0  0  0
   -0.9993    1.0474    1.6962 H   0  0  0  0  0  0  0  0  0  0  0  0
    1.4520    0.8906    1.5482 H   0  0  0  0  0  0  0  0  0  0  0  0
   -1.4863   -1.4289    1.1673 H   0  0  0  0  0  0  0  0  0  0  0  0
  1  2  1  0
  2  3  1  0
  3  4  1  0
  4  5  1  0
  5  6  1  0
  6  7  1  0
  7  8  1  0
  8  9  1  0
  7  1  1  0
  9  3  1  0
  9  6  1  0
  1 10  1  0
  1 11  1  0
  3 12  1  0
  5 13  1  0
  5 14  1  0
  6 15  1  0
  7 16  1  0
  9 17  1  0
M  END
