
     RDKit          3D

 19 21  0  0  0  0  0  0  0  0999 V2000
   -2.2031    0.2271    0.3606 C   0  0  0  0  0  0  0  0  0  0  0  0
   -1.9320    0.9064   -0.7858 O   0  0  0  0  0  0  0  0  0  0  0  0
   -0.7977    0.4346   -1.3696 C   0  0  0  0  0  0  0  0  0  0  0  0
   -0.1942   -0.6266   -0.5209 C   0  0  0  0  0  0  0  0  0  0  0  0
   -1.0519   -0.6627    0.6964 C   0  0  0  0  0  0  0  0  0  0  0  0
   -0.1070   -0.0208    1.4829 O   0  0  0  0  0  0  0  0  0  0  0  0
    0.7846   -0.0926    0.4537 C   0  0  0  0  0  0  0  0  0  0  0  0
    2.1648   -0.5517    0.5792 C   0  0  0  0  0  0  0  0  0  0  0  0
    1.8157    0.8847    0.1597 C   0  0  0  0  0  0  0  0  0  0  0  0
   -2.3193    0.9539    1.2090 H   0  0  0  0  0  0  0  0  0  0  0  0
   -3.1203   -0.3952    0.3390 H   0  0  0  0  0  0  0  0  0  0  0  0
   -1.0089    0.0638   -2.4099 H   0  0  0  0  0  0  0  0  0  0  0  0
   -0.0126    1.2297   -1.5210 H   0  0  0  0  0  0  0  0  0  0  0  0
    0.0734   -1.5792   -0.9917 H   0  0  0  0  0  0  0  0  0  0  0  0
   -1.2992   -1.7052    0.9970 H   0  0  0  0  0  0  0  0  0  0  0  0
    2.5290   -1.2399   -0.2256 H   0  0  0  0  0  0  0  0  0  0  0  0
    2.6604   -0.6163    1.5798 H   0  0  0  0  0  0  0  0  0  0  0  0
    1.9969    1.6948    0.8909 H   0  0  0  0  0  0  0  0  0  0  0  0
    2.0215    1.0950   -0.9237 H   0  0  0  0  0  0  0  0  0  0  0  0
  1  2  1  0
  2  3  1  0
  3  4  1  0
  4  5  1  0
  5  6  1  0
  6  7  1  0
  7  8  1  0
  8  9  1  0
  5  1  1  0
  9  7  1  0
  7  4  1  0
  1 10  1  0
  1 11  1  0
  3 12  1  0
  3 13  1  0
  4 14  1  0
  5 15  1  0
  8 16  1  0
  8 17  1  0
  9 18  1  0
  9 19  1  0
M  END
