
     RDKit          3D

 19 21  0  0  0  0  0  0  0  0999 V2000
   -0.4683   -1.5461   -0.1280 C   0  0  0  0  0  0  0  0  0  0  0  0
    0.5377   -1.3736   -1.0099 O   0  0  0  0  0  0  0  0  0  0  0  0
    1.5775   -0.5876   -0.6785 C   0  0  0  0  0  0  0  0  0  0  0  0
    1.3727    0.4697    0.3280 C   0  0  0  0  0  0  0  0  0  0  0  0
    0.3672    1.5560    0.0164 C   0  0  0  0  0  0  0  0  0  0  0  0
   -0.5311    1.2991   -0.9987 O   0  0  0  0  0  0  0  0  0  0  0  0
   -1.6082    0.6262   -0.4699 C   0  0  0  0  0  0  0  0  0  0  0  0
   -0.9799   -0.2950    0.5295 C   0  0  0  0  0  0  0  0  0  0  0  0
    0.1502    0.5047    1.0856 C   0  0  0  0  0  0  0  0  0  0  0  0
   -0.2667   -2.2994    0.6833 H   0  0  0  0  0  0  0  0  0  0  0  0
   -1.3496   -1.9859   -0.6840 H   0  0  0  0  0  0  0  0  0  0  0  0
    2.4655   -1.2189   -0.3793 H   0  0  0  0  0  0  0  0  0  0  0  0
    1.9337   -0.0723   -1.6218 H   0  0  0  0  0  0  0  0  0  0  0  0
    2.3031    0.8418    0.8211 H   0  0  0  0  0  0  0  0  0  0  0  0
    0.5389    2.5859    0.3653 H   0  0  0  0  0  0  0  0  0  0  0  0
   -2.0816    0.0012   -1.2585 H   0  0  0  0  0  0  0  0  0  0  0  0
   -2.3962    1.2635   -0.0549 H   0  0  0  0  0  0  0  0  0  0  0  0
   -1.7219   -0.5730    1.3014 H   0  0  0  0  0  0  0  0  0  0  0  0
    0.1568    0.8038    2.1532 H   0  0  0  0  0  0  0  0  0  0  0  0
  1  2  1  0
  2  3  1  0
  3  4  1  0
  4  5  1  0
  5  6  1  0
  6  7  1  0
  7  8  1  0
  8  9  1  0
  8  1  1  0
  9  4  1  0
  9  5  1  0
  1 10  1  0
  1 11  1  0
  3 12  1  0
  3 13  1  0
  4 14  1  0
  5 15  1  0
  7 16  1  0
  7 17  1  0
  8 18  1  0
  9 19  1  0
M  END
