
     RDKit          3D

 19 21  0  0  0  0  0  0  0  0999 V2000
    2.0401   -0.5132   -0.2245 C   0  0  0  0  0  0  0  0  0  0  0  0
    2.0551    0.2384    0.9154 O   0  0  0  0  0  0  0  0  0  0  0  0
    0.9666    1.0709    0.9393 C   0  0  0  0  0  0  0  0  0  0  0  0
   -0.0457    0.4645    0.0673 C   0  0  0  0  0  0  0  0  0  0  0  0
   -1.2381    1.1240   -0.4712 C   0  0  0  0  0  0  0  0  0  0  0  0
   -2.2893    0.2559   -0.4081 O   0  0  0  0  0  0  0  0  0  0  0  0
   -1.8649   -0.9805   -0.0316 C   0  0  0  0  0  0  0  0  0  0  0  0
   -0.4113   -0.9475    0.2790 C   0  0  0  0  0  0  0  0  0  0  0  0
    0.6203   -0.5978   -0.7229 C   0  0  0  0  0  0  0  0  0  0  0  0
    2.3914   -1.5397   -0.0002 H   0  0  0  0  0  0  0  0  0  0  0  0
    2.6804   -0.1032   -1.0388 H   0  0  0  0  0  0  0  0  0  0  0  0
    1.2067    2.1321    0.7125 H   0  0  0  0  0  0  0  0  0  0  0  0
    0.5714    1.0562    1.9984 H   0  0  0  0  0  0  0  0  0  0  0  0
   -1.0630    1.3545   -1.5635 H   0  0  0  0  0  0  0  0  0  0  0  0
   -1.4312    2.1126   -0.0048 H   0  0  0  0  0  0  0  0  0  0  0  0
   -2.4030   -1.2384    0.9291 H   0  0  0  0  0  0  0  0  0  0  0  0
   -2.1612   -1.8010   -0.7345 H   0  0  0  0  0  0  0  0  0  0  0  0
   -0.0487   -1.5172    1.1634 H   0  0  0  0  0  0  0  0  0  0  0  0
    0.4246   -0.5705   -1.8041 H   0  0  0  0  0  0  0  0  0  0  0  0
  1  2  1  0
  2  3  1  0
  3  4  1  0
  4  5  1  0
  5  6  1  0
  6  7  1  0
  7  8  1  0
  8  9  1  0
  9  1  1  0
  8  4  1  0
  9  4  1  0
  1 10  1  0
  1 11  1  0
  3 12  1  0
  3 13  1  0
  5 14  1  0
  5 15  1  0
  7 16  1  0
  7 17  1  0
  8 18  1  0
  9 19  1  0
M  END
