
     RDKit          3D

 19 21  0  0  0  0  0  0  0  0999 V2000
    1.9877   -1.1827   -0.3218 C   0  0  0  0  0  0  0  0  0  0  0  0
    2.4344   -0.0795    0.4386 O   0  0  0  0  0  0  0  0  0  0  0  0
    1.3160    0.7851    0.3945 C   0  0  0  0  0  0  0  0  0  0  0  0
    0.1871   -0.1565    0.2316 C   0  0  0  0  0  0  0  0  0  0  0  0
    0.7350   -1.4086    0.2957 O   0  0  0  0  0  0  0  0  0  0  0  0
   -1.0801    0.1072    0.9453 C   0  0  0  0  0  0  0  0  0  0  0  0
   -1.7355   -0.7615   -0.1069 C   0  0  0  0  0  0  0  0  0  0  0  0
   -0.7838    0.1081   -0.8857 C   0  0  0  0  0  0  0  0  0  0  0  0
   -1.2826    1.2396   -0.0398 C   0  0  0  0  0  0  0  0  0  0  0  0
    1.8448   -0.7885   -1.3499 H   0  0  0  0  0  0  0  0  0  0  0  0
    2.6541   -2.0359   -0.2478 H   0  0  0  0  0  0  0  0  0  0  0  0
    1.4258    1.5485   -0.3752 H   0  0  0  0  0  0  0  0  0  0  0  0
    1.2914    1.2543    1.4171 H   0  0  0  0  0  0  0  0  0  0  0  0
   -1.2900    0.1227    1.9201 H   0  0  0  0  0  0  0  0  0  0  0  0
   -2.8019   -0.5874   -0.2560 H   0  0  0  0  0  0  0  0  0  0  0  0
   -1.4146   -1.8225   -0.0277 H   0  0  0  0  0  0  0  0  0  0  0  0
   -0.6085    0.0941   -1.8670 H   0  0  0  0  0  0  0  0  0  0  0  0
   -2.3325    1.5132   -0.1630 H   0  0  0  0  0  0  0  0  0  0  0  0
   -0.5467    2.0504   -0.0023 H   0  0  0  0  0  0  0  0  0  0  0  0
  1  2  1  0
  2  3  1  0
  3  4  1  0
  4  5  1  0
  4  6  1  0
  6  7  1  0
  7  8  1  0
  8  9  1  0
  5  1  1  0
  9  6  1  0
  8  4  1  0
  1 10  1  0
  1 11  1  0
  3 12  1  0
  3 13  1  0
  6 14  1  0
  7 15  1  0
  7 16  1  0
  8 17  1  0
  9 18  1  0
  9 19  1  0
M  END
