
     RDKit          3D

 17 19  0  0  0  0  0  0  0  0999 V2000
   -0.8026    1.0079   -0.8043 C   0  0  0  0  0  0  0  0  0  0  0  0
   -0.2682    1.7224    0.2735 O   0  0  0  0  0  0  0  0  0  0  0  0
    0.2140    0.7959    1.1924 C   0  0  0  0  0  0  0  0  0  0  0  0
   -0.8517    0.0898    1.7746 O   0  0  0  0  0  0  0  0  0  0  0  0
   -1.4199   -0.7030    0.7724 C   0  0  0  0  0  0  0  0  0  0  0  0
   -0.5656   -0.4526   -0.4501 C   0  0  0  0  0  0  0  0  0  0  0  0
    0.7744   -0.2744    0.2583 C   0  0  0  0  0  0  0  0  0  0  0  0
    2.0313   -0.4274   -0.2054 C   0  0  0  0  0  0  0  0  0  0  0  0
    1.4652   -1.3437    0.7474 O   0  0  0  0  0  0  0  0  0  0  0  0
   -0.3309    1.2529   -1.7624 H   0  0  0  0  0  0  0  0  0  0  0  0
   -1.9057    1.2412   -0.7921 H   0  0  0  0  0  0  0  0  0  0  0  0
    0.9414    1.1589    1.8808 H   0  0  0  0  0  0  0  0  0  0  0  0
   -1.4156   -1.7837    1.0379 H   0  0  0  0  0  0  0  0  0  0  0  0
   -2.4491   -0.3723    0.5131 H   0  0  0  0  0  0  0  0  0  0  0  0
   -0.5997   -1.1538   -1.2339 H   0  0  0  0  0  0  0  0  0  0  0  0
    2.2846   -0.9432   -1.1509 H   0  0  0  0  0  0  0  0  0  0  0  0
    2.8981    0.1851    0.1727 H   0  0  0  0  0  0  0  0  0  0  0  0
  1  2  1  0
  2  3  1  0
  3  4  1  0
  4  5  1  0
  5  6  1  0
  6  7  1  0
  7  8  1  0
  8  9  1  0
  6  1  1  0
  9  7  1  0
  7  3  1  0
  1 10  1  0
  1 11  1  0
  3 12  1  0
  5 13  1  0
  5 14  1  0
  6 15  1  0
  8 16  1  0
  8 17  1  0
M  END
