
     RDKit          3D

 19 21  0  0  0  0  0  0  0  0999 V2000
   -1.4959    1.2546   -0.1916 C   0  0  0  0  0  0  0  0  0  0  0  0
   -1.9807   -0.0248   -0.0107 O   0  0  0  0  0  0  0  0  0  0  0  0
   -0.9474   -0.9370   -0.0881 C   0  0  0  0  0  0  0  0  0  0  0  0
   -0.1213   -0.7593    1.2030 C   0  0  0  0  0  0  0  0  0  0  0  0
    1.2256   -0.5753    0.6263 C   0  0  0  0  0  0  0  0  0  0  0  0
    1.9902    0.5375    0.2404 C   0  0  0  0  0  0  0  0  0  0  0  0
    0.7236    0.5569   -0.3676 C   0  0  0  0  0  0  0  0  0  0  0  0
   -0.0368   -0.3781   -1.2077 C   0  0  0  0  0  0  0  0  0  0  0  0
   -0.1992    1.4652    0.1504 O   0  0  0  0  0  0  0  0  0  0  0  0
   -1.6868    1.6064   -1.2435 H   0  0  0  0  0  0  0  0  0  0  0  0
   -2.1222    1.9258    0.4417 H   0  0  0  0  0  0  0  0  0  0  0  0
   -1.2307   -1.9636   -0.2633 H   0  0  0  0  0  0  0  0  0  0  0  0
   -0.2220   -1.7235    1.7414 H   0  0  0  0  0  0  0  0  0  0  0  0
   -0.4982    0.0476    1.8266 H   0  0  0  0  0  0  0  0  0  0  0  0
    1.5295   -1.5522    0.1287 H   0  0  0  0  0  0  0  0  0  0  0  0
    2.2439    1.3254    1.0085 H   0  0  0  0  0  0  0  0  0  0  0  0
    2.8879    0.4079   -0.4256 H   0  0  0  0  0  0  0  0  0  0  0  0
    0.5595   -1.2663   -1.5482 H   0  0  0  0  0  0  0  0  0  0  0  0
   -0.6190    0.0529   -2.0208 H   0  0  0  0  0  0  0  0  0  0  0  0
  1  2  1  0
  2  3  1  0
  3  4  1  0
  4  5  1  0
  5  6  1  0
  6  7  1  0
  7  8  1  0
  7  9  1  0
  9  1  1  0
  8  3  1  0
  7  5  1  0
  1 10  1  0
  1 11  1  0
  3 12  1  0
  4 13  1  0
  4 14  1  0
  5 15  1  0
  6 16  1  0
  6 17  1  0
  8 18  1  0
  8 19  1  0
M  END
