
     RDKit          3D

 19 22  0  0  0  0  0  0  0  0999 V2000
    2.1426    0.6411    0.0586 C   0  0  0  0  0  0  0  0  0  0  0  0
    1.1882    1.4061   -0.5403 O   0  0  0  0  0  0  0  0  0  0  0  0
    0.2112    0.6269   -1.1004 C   0  0  0  0  0  0  0  0  0  0  0  0
    0.7368   -0.7820   -1.0780 C   0  0  0  0  0  0  0  0  0  0  0  0
    1.6213   -0.8028    0.0662 C   0  0  0  0  0  0  0  0  0  0  0  0
    0.1548   -0.8854    0.3549 C   0  0  0  0  0  0  0  0  0  0  0  0
   -0.7780    0.1516   -0.0884 C   0  0  0  0  0  0  0  0  0  0  0  0
   -1.7631    0.8795    0.6065 C   0  0  0  0  0  0  0  0  0  0  0  0
   -2.1665   -0.2078   -0.4288 C   0  0  0  0  0  0  0  0  0  0  0  0
    2.3642    0.9110    1.1079 H   0  0  0  0  0  0  0  0  0  0  0  0
    3.1321    0.6742   -0.4817 H   0  0  0  0  0  0  0  0  0  0  0  0
   -0.1868    0.9858   -2.0543 H   0  0  0  0  0  0  0  0  0  0  0  0
    0.4091   -1.5638   -1.7157 H   0  0  0  0  0  0  0  0  0  0  0  0
    2.2986   -1.6284    0.2066 H   0  0  0  0  0  0  0  0  0  0  0  0
   -0.1923   -1.8703    0.6848 H   0  0  0  0  0  0  0  0  0  0  0  0
   -2.0647    1.8861    0.3082 H   0  0  0  0  0  0  0  0  0  0  0  0
   -2.0365    0.6118    1.6558 H   0  0  0  0  0  0  0  0  0  0  0  0
   -2.5427    0.1376   -1.3940 H   0  0  0  0  0  0  0  0  0  0  0  0
   -2.5282   -1.1709   -0.0118 H   0  0  0  0  0  0  0  0  0  0  0  0
  1  2  1  0
  2  3  1  0
  3  4  1  0
  4  5  1  0
  5  6  1  0
  6  7  1  0
  7  8  1  0
  8  9  1  0
  5  1  1  0
  9  7  1  0
  7  3  1  0
  6  4  1  0
  1 10  1  0
  1 11  1  0
  3 12  1  0
  4 13  1  0
  5 14  1  0
  6 15  1  0
  8 16  1  0
  8 17  1  0
  9 18  1  0
  9 19  1  0
M  END
