
     RDKit          3D

 21 23  0  0  0  0  0  0  0  0999 V2000
    2.3125   -0.1906    0.7593 C   0  0  0  0  0  0  0  0  0  0  0  0
    2.5096    0.6408   -0.3363 O   0  0  0  0  0  0  0  0  0  0  0  0
    1.2232    0.3951   -0.7566 C   0  0  0  0  0  0  0  0  0  0  0  0
    0.1371    1.1799   -0.0524 C   0  0  0  0  0  0  0  0  0  0  0  0
   -0.8755    0.1205    0.2534 C   0  0  0  0  0  0  0  0  0  0  0  0
   -2.2285    0.3877    0.7076 C   0  0  0  0  0  0  0  0  0  0  0  0
   -1.9777   -0.0262   -0.7420 C   0  0  0  0  0  0  0  0  0  0  0  0
   -0.0729   -1.0627    0.6854 C   0  0  0  0  0  0  0  0  0  0  0  0
    1.2414   -0.9086   -0.0168 C   0  0  0  0  0  0  0  0  0  0  0  0
    1.9427    0.3971    1.6186 H   0  0  0  0  0  0  0  0  0  0  0  0
    3.1605   -0.8651    0.9606 H   0  0  0  0  0  0  0  0  0  0  0  0
    1.0852    0.3512   -1.8444 H   0  0  0  0  0  0  0  0  0  0  0  0
    0.5150    1.7127    0.8321 H   0  0  0  0  0  0  0  0  0  0  0  0
   -0.2860    1.9523   -0.7415 H   0  0  0  0  0  0  0  0  0  0  0  0
   -2.6493    1.3791    0.9080 H   0  0  0  0  0  0  0  0  0  0  0  0
   -2.7189   -0.4194    1.3195 H   0  0  0  0  0  0  0  0  0  0  0  0
   -2.1260    0.8086   -1.4661 H   0  0  0  0  0  0  0  0  0  0  0  0
   -2.1920   -1.0637   -1.0418 H   0  0  0  0  0  0  0  0  0  0  0  0
    0.0096   -1.0323    1.7953 H   0  0  0  0  0  0  0  0  0  0  0  0
   -0.6161   -1.9821    0.3415 H   0  0  0  0  0  0  0  0  0  0  0  0
    1.6061   -1.7743   -0.5903 H   0  0  0  0  0  0  0  0  0  0  0  0
  1  2  1  0
  2  3  1  0
  3  4  1  0
  4  5  1  0
  5  6  1  0
  6  7  1  0
  5  8  1  0
  8  9  1  0
  9  1  1  0
  9  3  1  0
  7  5  1  0
  1 10  1  0
  1 11  1  0
  3 12  1  0
  4 13  1  0
  4 14  1  0
  6 15  1  0
  6 16  1  0
  7 17  1  0
  7 18  1  0
  8 19  1  0
  8 20  1  0
  9 21  1  0
M  END
