
     RDKit          3D

 19 21  0  0  0  0  0  0  0  0999 V2000
   -0.7670   -0.7215    1.2059 C   0  0  0  0  0  0  0  0  0  0  0  0
   -1.7460    0.2635    1.1140 O   0  0  0  0  0  0  0  0  0  0  0  0
   -1.2796    1.0254    0.0156 C   0  0  0  0  0  0  0  0  0  0  0  0
   -1.2016   -0.1215   -1.0069 C   0  0  0  0  0  0  0  0  0  0  0  0
   -0.2640   -1.0172   -0.1687 C   0  0  0  0  0  0  0  0  0  0  0  0
    1.0872   -0.4629   -0.4666 C   0  0  0  0  0  0  0  0  0  0  0  0
    1.9854    0.1501    0.4787 C   0  0  0  0  0  0  0  0  0  0  0  0
    1.0242    1.0202   -0.3015 C   0  0  0  0  0  0  0  0  0  0  0  0
   -0.0557    1.5057    0.3627 O   0  0  0  0  0  0  0  0  0  0  0  0
   -0.0095   -0.5145    1.9559 H   0  0  0  0  0  0  0  0  0  0  0  0
   -1.3094   -1.6468    1.5565 H   0  0  0  0  0  0  0  0  0  0  0  0
   -2.0117    1.7475   -0.3273 H   0  0  0  0  0  0  0  0  0  0  0  0
   -2.1823   -0.5825   -1.1089 H   0  0  0  0  0  0  0  0  0  0  0  0
   -0.7217    0.2003   -1.9349 H   0  0  0  0  0  0  0  0  0  0  0  0
   -0.4270   -2.0396   -0.5110 H   0  0  0  0  0  0  0  0  0  0  0  0
    1.4820   -0.7893   -1.4672 H   0  0  0  0  0  0  0  0  0  0  0  0
    1.9038    0.0631    1.5635 H   0  0  0  0  0  0  0  0  0  0  0  0
    3.0602    0.2486    0.1470 H   0  0  0  0  0  0  0  0  0  0  0  0
    1.4323    1.6714   -1.1068 H   0  0  0  0  0  0  0  0  0  0  0  0
  1  2  1  0
  2  3  1  0
  3  4  1  0
  4  5  1  0
  5  6  1  0
  6  7  1  0
  7  8  1  0
  8  9  1  0
  5  1  1  0
  8  6  1  0
  9  3  1  0
  1 10  1  0
  1 11  1  0
  3 12  1  0
  4 13  1  0
  4 14  1  0
  5 15  1  0
  6 16  1  0
  7 17  1  0
  7 18  1  0
  8 19  1  0
M  END
