
     RDKit          3D

 15 17  0  0  0  0  0  0  0  0999 V2000
    1.6327    0.0468    0.4390 C   0  0  0  0  0  0  0  0  0  0  0  0
    0.8666   -0.9128    1.0278 O   0  0  0  0  0  0  0  0  0  0  0  0
   -0.3148   -1.0749    0.3522 C   0  0  0  0  0  0  0  0  0  0  0  0
   -1.3725   -0.0127    0.6830 C   0  0  0  0  0  0  0  0  0  0  0  0
   -0.6543    0.9138   -0.2392 C   0  0  0  0  0  0  0  0  0  0  0  0
    0.7569    0.7019   -0.6408 C   0  0  0  0  0  0  0  0  0  0  0  0
   -0.1590   -0.3628   -0.9591 C   0  0  0  0  0  0  0  0  0  0  0  0
    2.5378   -0.3933   -0.0718 H   0  0  0  0  0  0  0  0  0  0  0  0
    1.9873    0.8073    1.1488 H   0  0  0  0  0  0  0  0  0  0  0  0
   -0.7540   -2.0723    0.3322 H   0  0  0  0  0  0  0  0  0  0  0  0
   -1.4419    0.2553    1.7366 H   0  0  0  0  0  0  0  0  0  0  0  0
   -2.3365   -0.3438    0.2041 H   0  0  0  0  0  0  0  0  0  0  0  0
   -1.2476    1.6302   -0.8434 H   0  0  0  0  0  0  0  0  0  0  0  0
    1.2013    1.4026   -1.3283 H   0  0  0  0  0  0  0  0  0  0  0  0
   -0.7019   -0.5851   -1.8411 H   0  0  0  0  0  0  0  0  0  0  0  0
  1  2  1  0
  2  3  1  0
  3  4  1  0
  4  5  1  0
  5  6  1  0
  6  7  1  0
  6  1  1  0
  7  3  1  0
  7  5  1  0
  1  8  1  0
  1  9  1  0
  3 10  1  0
  4 11  1  0
  4 12  1  0
  5 13  1  0
  6 14  1  0
  7 15  1  0
M  END
