
     RDKit          3D

 17 19  0  0  0  0  0  0  0  0999 V2000
    1.6313    0.6066   -0.5430 C   0  0  0  0  0  0  0  0  0  0  0  0
    2.4423   -0.1922    0.2914 O   0  0  0  0  0  0  0  0  0  0  0  0
    1.3156   -0.8183    0.8600 C   0  0  0  0  0  0  0  0  0  0  0  0
    0.4906   -0.2631   -0.2373 C   0  0  0  0  0  0  0  0  0  0  0  0
    0.0501   -1.1448   -1.2088 O   0  0  0  0  0  0  0  0  0  0  0  0
   -1.2033   -1.1075   -0.5555 C   0  0  0  0  0  0  0  0  0  0  0  0
   -0.8395    0.2163   -0.0249 C   0  0  0  0  0  0  0  0  0  0  0  0
   -1.5237    1.2367    0.5141 C   0  0  0  0  0  0  0  0  0  0  0  0
   -1.2284    1.3296   -0.8916 O   0  0  0  0  0  0  0  0  0  0  0  0
    1.5230    1.6306   -0.0852 H   0  0  0  0  0  0  0  0  0  0  0  0
    1.9757    0.7078   -1.5720 H   0  0  0  0  0  0  0  0  0  0  0  0
    1.0386   -0.4599    1.8508 H   0  0  0  0  0  0  0  0  0  0  0  0
    1.3587   -1.9380    0.7956 H   0  0  0  0  0  0  0  0  0  0  0  0
   -1.2699   -1.8781    0.2304 H   0  0  0  0  0  0  0  0  0  0  0  0
   -2.0644   -1.1764   -1.2243 H   0  0  0  0  0  0  0  0  0  0  0  0
   -2.6288    1.1647    0.7471 H   0  0  0  0  0  0  0  0  0  0  0  0
   -1.0680    2.0860    1.0531 H   0  0  0  0  0  0  0  0  0  0  0  0
  1  2  1  0
  2  3  1  0
  3  4  1  0
  4  5  1  0
  5  6  1  0
  6  7  1  0
  7  8  1  0
  8  9  1  0
  4  1  1  0
  9  7  1  0
  7  4  1  0
  1 10  1  0
  1 11  1  0
  3 12  1  0
  3 13  1  0
  6 14  1  0
  6 15  1  0
  8 16  1  0
  8 17  1  0
M  END
