
     RDKit          3D

 17 19  0  0  0  0  0  0  0  0999 V2000
    1.9445   -0.0457   -0.1528 C   0  0  0  0  0  0  0  0  0  0  0  0
    1.4081    0.6242    0.9593 O   0  0  0  0  0  0  0  0  0  0  0  0
    0.0694    0.3796    1.0103 C   0  0  0  0  0  0  0  0  0  0  0  0
   -0.6976    1.0347   -0.1510 C   0  0  0  0  0  0  0  0  0  0  0  0
   -1.9324    0.1673   -0.0955 C   0  0  0  0  0  0  0  0  0  0  0  0
   -1.4237   -1.0978    0.1550 O   0  0  0  0  0  0  0  0  0  0  0  0
   -0.0766   -1.0194    0.3582 C   0  0  0  0  0  0  0  0  0  0  0  0
    0.6993   -0.5756   -0.8723 C   0  0  0  0  0  0  0  0  0  0  0  0
    0.0216    0.5852   -1.2742 O   0  0  0  0  0  0  0  0  0  0  0  0
    2.4308    0.7323   -0.7739 H   0  0  0  0  0  0  0  0  0  0  0  0
    2.6309   -0.8541    0.1283 H   0  0  0  0  0  0  0  0  0  0  0  0
   -0.4162    0.4507    1.9558 H   0  0  0  0  0  0  0  0  0  0  0  0
   -0.8327    2.0806   -0.0660 H   0  0  0  0  0  0  0  0  0  0  0  0
   -2.3922    0.1323   -1.1141 H   0  0  0  0  0  0  0  0  0  0  0  0
   -2.6880    0.5047    0.6082 H   0  0  0  0  0  0  0  0  0  0  0  0
    0.3804   -1.7903    0.9370 H   0  0  0  0  0  0  0  0  0  0  0  0
    0.8743   -1.3086   -1.6123 H   0  0  0  0  0  0  0  0  0  0  0  0
  1  2  1  0
  2  3  1  0
  3  4  1  0
  4  5  1  0
  5  6  1  0
  6  7  1  0
  7  8  1  0
  8  9  1  0
  8  1  1  0
  7  3  1  0
  9  4  1  0
  1 10  1  0
  1 11  1  0
  3 12  1  0
  4 13  1  0
  5 14  1  0
  5 15  1  0
  7 16  1  0
  8 17  1  0
M  END
