
     RDKit          3D

 19 21  0  0  0  0  0  0  0  0999 V2000
   -1.8735    0.9205    0.4110 C   0  0  0  0  0  0  0  0  0  0  0  0
   -3.0129    0.0831    0.4753 O   0  0  0  0  0  0  0  0  0  0  0  0
   -2.2609   -0.8367   -0.2930 C   0  0  0  0  0  0  0  0  0  0  0  0
   -1.0370   -0.3102    0.4207 C   0  0  0  0  0  0  0  0  0  0  0  0
    0.2271   -0.2611   -0.4284 C   0  0  0  0  0  0  0  0  0  0  0  0
    1.2745    0.7096   -0.1975 C   0  0  0  0  0  0  0  0  0  0  0  0
    2.7736    0.3832   -0.1152 C   0  0  0  0  0  0  0  0  0  0  0  0
    2.3060   -0.2861    1.0487 O   0  0  0  0  0  0  0  0  0  0  0  0
    1.4052   -0.8357    0.1278 C   0  0  0  0  0  0  0  0  0  0  0  0
   -1.9156    1.4756   -0.5364 H   0  0  0  0  0  0  0  0  0  0  0  0
   -1.8308    1.5246    1.3327 H   0  0  0  0  0  0  0  0  0  0  0  0
   -2.2835   -0.5108   -1.3512 H   0  0  0  0  0  0  0  0  0  0  0  0
   -2.4697   -1.8890   -0.0872 H   0  0  0  0  0  0  0  0  0  0  0  0
   -0.8968   -0.7176    1.4338 H   0  0  0  0  0  0  0  0  0  0  0  0
   -0.0311   -0.4054   -1.5214 H   0  0  0  0  0  0  0  0  0  0  0  0
    1.0510    1.3400    0.7234 H   0  0  0  0  0  0  0  0  0  0  0  0
    3.3708    1.2723    0.0793 H   0  0  0  0  0  0  0  0  0  0  0  0
    3.1736   -0.2388   -0.9024 H   0  0  0  0  0  0  0  0  0  0  0  0
    2.0300   -1.4175   -0.6199 H   0  0  0  0  0  0  0  0  0  0  0  0
  1  2  1  0
  2  3  1  0
  3  4  1  0
  4  5  1  0
  5  6  1  0
  6  7  1  0
  7  8  1  0
  8  9  1  0
  4  1  1  0
  9  5  1  0
  9  6  1  0
  1 10  1  0
  1 11  1  0
  3 12  1  0
  3 13  1  0
  4 14  1  0
  5 15  1  0
  6 16  1  0
  7 17  1  0
  7 18  1  0
  9 19  1  0
M  END
