
     RDKit          3D

 17 19  0  0  0  0  0  0  0  0999 V2000
   -0.6925    1.5532    0.3051 C   0  0  0  0  0  0  0  0  0  0  0  0
    0.3922    1.3341    1.1064 O   0  0  0  0  0  0  0  0  0  0  0  0
    0.9014    0.0900    0.8761 C   0  0  0  0  0  0  0  0  0  0  0  0
    1.8508    0.1151   -0.3212 C   0  0  0  0  0  0  0  0  0  0  0  0
    0.9560   -0.6883   -1.0698 O   0  0  0  0  0  0  0  0  0  0  0  0
    0.0732   -0.6039   -0.0936 C   0  0  0  0  0  0  0  0  0  0  0  0
   -0.8971   -1.6190    0.2708 C   0  0  0  0  0  0  0  0  0  0  0  0
   -1.7233   -0.5891    0.7901 O   0  0  0  0  0  0  0  0  0  0  0  0
   -1.1654    0.2227   -0.2253 C   0  0  0  0  0  0  0  0  0  0  0  0
   -1.5096    1.9616    0.9291 H   0  0  0  0  0  0  0  0  0  0  0  0
   -0.4917    2.1965   -0.5763 H   0  0  0  0  0  0  0  0  0  0  0  0
    1.2599   -0.4874    1.7348 H   0  0  0  0  0  0  0  0  0  0  0  0
    1.9629    1.1136   -0.7874 H   0  0  0  0  0  0  0  0  0  0  0  0
    2.7919   -0.3776   -0.0597 H   0  0  0  0  0  0  0  0  0  0  0  0
   -1.4164   -2.0686   -0.5825 H   0  0  0  0  0  0  0  0  0  0  0  0
   -0.5995   -2.3725    1.0292 H   0  0  0  0  0  0  0  0  0  0  0  0
   -1.6929    0.2196   -1.1711 H   0  0  0  0  0  0  0  0  0  0  0  0
  1  2  1  0
  2  3  1  0
  3  4  1  0
  4  5  1  0
  5  6  1  0
  6  7  1  0
  7  8  1  0
  8  9  1  0
  9  1  1  0
  6  3  1  0
  9  6  1  0
  1 10  1  0
  1 11  1  0
  3 12  1  0
  4 13  1  0
  4 14  1  0
  7 15  1  0
  7 16  1  0
  9 17  1  0
M  END
