
     RDKit          3D

 17 19  0  0  0  0  0  0  0  0999 V2000
    1.7006    0.1147    0.0725 C   0  0  0  0  0  0  0  0  0  0  0  0
    1.4275   -1.0727   -0.5891 O   0  0  0  0  0  0  0  0  0  0  0  0
    0.0713   -1.4497   -0.4412 C   0  0  0  0  0  0  0  0  0  0  0  0
   -0.7152   -0.2052   -0.5038 C   0  0  0  0  0  0  0  0  0  0  0  0
   -2.0032    0.0919    0.0407 C   0  0  0  0  0  0  0  0  0  0  0  0
   -0.8746    0.4727    0.8926 C   0  0  0  0  0  0  0  0  0  0  0  0
   -0.0996    1.5828    0.7151 O   0  0  0  0  0  0  0  0  0  0  0  0
    0.8234    1.2557   -0.2973 C   0  0  0  0  0  0  0  0  0  0  0  0
   -0.0805    0.7915   -1.2815 O   0  0  0  0  0  0  0  0  0  0  0  0
    1.7219   -0.0341    1.1920 H   0  0  0  0  0  0  0  0  0  0  0  0
    2.7457    0.3843   -0.1923 H   0  0  0  0  0  0  0  0  0  0  0  0
    0.0344   -1.9690    0.5531 H   0  0  0  0  0  0  0  0  0  0  0  0
   -0.1517   -2.1684   -1.2715 H   0  0  0  0  0  0  0  0  0  0  0  0
   -2.6172    0.8743   -0.4984 H   0  0  0  0  0  0  0  0  0  0  0  0
   -2.6618   -0.7122    0.4328 H   0  0  0  0  0  0  0  0  0  0  0  0
   -0.6557   -0.1241    1.7765 H   0  0  0  0  0  0  0  0  0  0  0  0
    1.3348    2.1674   -0.6002 H   0  0  0  0  0  0  0  0  0  0  0  0
  1  2  1  0
  2  3  1  0
  3  4  1  0
  4  5  1  0
  5  6  1  0
  6  7  1  0
  7  8  1  0
  8  9  1  0
  8  1  1  0
  6  4  1  0
  9  4  1  0
  1 10  1  0
  1 11  1  0
  3 12  1  0
  3 13  1  0
  5 14  1  0
  5 15  1  0
  6 16  1  0
  8 17  1  0
M  END
