
     RDKit          3D

 19 21  0  0  0  0  0  0  0  0999 V2000
    1.9995    0.3520   -0.5314 C   0  0  0  0  0  0  0  0  0  0  0  0
    0.8387    0.8344   -1.1825 O   0  0  0  0  0  0  0  0  0  0  0  0
    0.3490   -0.4831   -1.0667 C   0  0  0  0  0  0  0  0  0  0  0  0
    1.0833   -0.5298    0.2701 C   0  0  0  0  0  0  0  0  0  0  0  0
    0.2763    0.2631    1.2497 C   0  0  0  0  0  0  0  0  0  0  0  0
   -1.1861    0.0063    1.0499 C   0  0  0  0  0  0  0  0  0  0  0  0
   -1.7322    0.6206   -0.2123 C   0  0  0  0  0  0  0  0  0  0  0  0
   -1.1064   -0.6035   -0.7880 C   0  0  0  0  0  0  0  0  0  0  0  0
   -1.3256   -1.2425    0.4513 O   0  0  0  0  0  0  0  0  0  0  0  0
    2.4990    1.0922    0.1120 H   0  0  0  0  0  0  0  0  0  0  0  0
    2.7106   -0.1447   -1.1976 H   0  0  0  0  0  0  0  0  0  0  0  0
    0.7581   -1.1532   -1.8273 H   0  0  0  0  0  0  0  0  0  0  0  0
    1.4552   -1.5014    0.5756 H   0  0  0  0  0  0  0  0  0  0  0  0
    0.4637    1.3610    1.1311 H   0  0  0  0  0  0  0  0  0  0  0  0
    0.5381   -0.0375    2.2855 H   0  0  0  0  0  0  0  0  0  0  0  0
   -1.7528    0.1770    1.9686 H   0  0  0  0  0  0  0  0  0  0  0  0
   -1.3402    1.5923   -0.5025 H   0  0  0  0  0  0  0  0  0  0  0  0
   -2.8484    0.5113   -0.2109 H   0  0  0  0  0  0  0  0  0  0  0  0
   -1.6798   -1.1145   -1.5746 H   0  0  0  0  0  0  0  0  0  0  0  0
  1  2  1  0
  2  3  1  0
  3  4  1  0
  4  5  1  0
  5  6  1  0
  6  7  1  0
  7  8  1  0
  8  9  1  0
  4  1  1  0
  9  6  1  0
  8  3  1  0
  1 10  1  0
  1 11  1  0
  3 12  1  0
  4 13  1  0
  5 14  1  0
  5 15  1  0
  6 16  1  0
  7 17  1  0
  7 18  1  0
  8 19  1  0
M  END
