
     RDKit          3D

 17 19  0  0  0  0  0  0  0  0999 V2000
   -1.3952    0.7382   -0.4690 C   0  0  0  0  0  0  0  0  0  0  0  0
   -1.0412    0.8990    0.8618 O   0  0  0  0  0  0  0  0  0  0  0  0
   -0.4821   -0.3011    1.2970 C   0  0  0  0  0  0  0  0  0  0  0  0
   -1.0536   -1.2691    0.4324 O   0  0  0  0  0  0  0  0  0  0  0  0
   -0.7559   -0.6151   -0.7907 C   0  0  0  0  0  0  0  0  0  0  0  0
    0.7388   -0.4918   -0.8866 C   0  0  0  0  0  0  0  0  0  0  0  0
    1.2823    0.6911   -0.1099 C   0  0  0  0  0  0  0  0  0  0  0  0
    0.9944   -0.2904    1.0059 C   0  0  0  0  0  0  0  0  0  0  0  0
    1.3594   -1.3068    0.0904 O   0  0  0  0  0  0  0  0  0  0  0  0
   -2.4880    0.5795   -0.5615 H   0  0  0  0  0  0  0  0  0  0  0  0
   -1.0763    1.5312   -1.1338 H   0  0  0  0  0  0  0  0  0  0  0  0
   -0.7104   -0.5492    2.3325 H   0  0  0  0  0  0  0  0  0  0  0  0
   -1.2147   -1.1059   -1.6461 H   0  0  0  0  0  0  0  0  0  0  0  0
    1.1271   -0.6191   -1.8975 H   0  0  0  0  0  0  0  0  0  0  0  0
    2.3687    0.7606   -0.2678 H   0  0  0  0  0  0  0  0  0  0  0  0
    0.6950    1.6033   -0.1273 H   0  0  0  0  0  0  0  0  0  0  0  0
    1.6516   -0.2543    1.8703 H   0  0  0  0  0  0  0  0  0  0  0  0
  1  2  1  0
  2  3  1  0
  3  4  1  0
  4  5  1  0
  5  6  1  0
  6  7  1  0
  7  8  1  0
  8  9  1  0
  5  1  1  0
  9  6  1  0
  8  3  1  0
  1 10  1  0
  1 11  1  0
  3 12  1  0
  5 13  1  0
  6 14  1  0
  7 15  1  0
  7 16  1  0
  8 17  1  0
M  END
