
     RDKit          3D

 19 21  0  0  0  0  0  0  0  0999 V2000
    1.9197   -0.2032    0.3409 C   0  0  0  0  0  0  0  0  0  0  0  0
    1.1385   -1.3008    0.6766 O   0  0  0  0  0  0  0  0  0  0  0  0
   -0.0060   -1.4660   -0.0184 C   0  0  0  0  0  0  0  0  0  0  0  0
   -0.8302   -0.2731   -0.3835 C   0  0  0  0  0  0  0  0  0  0  0  0
    0.1223    0.6265   -1.0646 C   0  0  0  0  0  0  0  0  0  0  0  0
    0.9501    0.9642    0.1907 C   0  0  0  0  0  0  0  0  0  0  0  0
    0.0675    0.7796    1.2859 O   0  0  0  0  0  0  0  0  0  0  0  0
   -1.1549    0.8113    0.7167 C   0  0  0  0  0  0  0  0  0  0  0  0
   -2.0721   -0.1381    0.2436 C   0  0  0  0  0  0  0  0  0  0  0  0
    2.5344   -0.3531   -0.5532 H   0  0  0  0  0  0  0  0  0  0  0  0
    2.5322    0.0317    1.2565 H   0  0  0  0  0  0  0  0  0  0  0  0
   -0.6186   -2.2386    0.4809 H   0  0  0  0  0  0  0  0  0  0  0  0
    0.2750   -1.9237   -1.0149 H   0  0  0  0  0  0  0  0  0  0  0  0
   -0.3142    1.5277   -1.5099 H   0  0  0  0  0  0  0  0  0  0  0  0
    0.7635    0.0912   -1.7641 H   0  0  0  0  0  0  0  0  0  0  0  0
    1.4108    1.9338    0.1565 H   0  0  0  0  0  0  0  0  0  0  0  0
   -1.3221    1.8680    0.3246 H   0  0  0  0  0  0  0  0  0  0  0  0
   -2.9800    0.2017   -0.3301 H   0  0  0  0  0  0  0  0  0  0  0  0
   -2.4159   -0.9389    0.9657 H   0  0  0  0  0  0  0  0  0  0  0  0
  1  2  1  0
  2  3  1  0
  3  4  1  0
  4  5  1  0
  5  6  1  0
  6  7  1  0
  7  8  1  0
  8  9  1  0
  6  1  1  0
  8  4  1  0
  9  4  1  0
  1 10  1  0
  1 11  1  0
  3 12  1  0
  3 13  1  0
  5 14  1  0
  5 15  1  0
  6 16  1  0
  8 17  1  0
  9 18  1  0
  9 19  1  0
M  END
