
     RDKit          3D

 17 19  0  0  0  0  0  0  0  0999 V2000
    1.4945   -0.3398    0.4333 C   0  0  0  0  0  0  0  0  0  0  0  0
    0.8719   -1.4208   -0.1607 O   0  0  0  0  0  0  0  0  0  0  0  0
   -0.4451   -1.0904   -0.4716 C   0  0  0  0  0  0  0  0  0  0  0  0
   -1.0117   -0.4778    0.8197 C   0  0  0  0  0  0  0  0  0  0  0  0
   -0.6363    0.9771    0.5067 C   0  0  0  0  0  0  0  0  0  0  0  0
   -1.3277    1.0587   -0.7291 O   0  0  0  0  0  0  0  0  0  0  0  0
   -0.5137    0.1100   -1.4024 C   0  0  0  0  0  0  0  0  0  0  0  0
    0.6847    0.8550   -1.3533 O   0  0  0  0  0  0  0  0  0  0  0  0
    0.7801    0.9701    0.0594 C   0  0  0  0  0  0  0  0  0  0  0  0
    2.5015   -0.2518   -0.0680 H   0  0  0  0  0  0  0  0  0  0  0  0
    1.6684   -0.4292    1.4989 H   0  0  0  0  0  0  0  0  0  0  0  0
   -1.0421   -1.9180   -0.8338 H   0  0  0  0  0  0  0  0  0  0  0  0
   -0.5190   -0.8561    1.7084 H   0  0  0  0  0  0  0  0  0  0  0  0
   -2.1010   -0.5748    0.7877 H   0  0  0  0  0  0  0  0  0  0  0  0
   -0.9408    1.6831    1.2349 H   0  0  0  0  0  0  0  0  0  0  0  0
   -0.8501   -0.1118   -2.3959 H   0  0  0  0  0  0  0  0  0  0  0  0
    1.3863    1.8165    0.3657 H   0  0  0  0  0  0  0  0  0  0  0  0
  1  2  1  0
  2  3  1  0
  3  4  1  0
  4  5  1  0
  5  6  1  0
  6  7  1  0
  7  8  1  0
  8  9  1  0
  9  1  1  0
  7  3  1  0
  9  5  1  0
  1 10  1  0
  1 11  1  0
  3 12  1  0
  4 13  1  0
  4 14  1  0
  5 15  1  0
  7 16  1  0
  9 17  1  0
M  END
