
     RDKit          3D

 19 21  0  0  0  0  0  0  0  0999 V2000
    1.8417   -0.5856    0.3555 C   0  0  0  0  0  0  0  0  0  0  0  0
    1.3544   -0.8660   -0.8822 O   0  0  0  0  0  0  0  0  0  0  0  0
    0.0617   -0.4946   -1.1211 C   0  0  0  0  0  0  0  0  0  0  0  0
   -0.9626   -1.1570   -0.2696 C   0  0  0  0  0  0  0  0  0  0  0  0
   -1.3061   -0.2053    0.8497 C   0  0  0  0  0  0  0  0  0  0  0  0
   -0.8502    1.1614    0.3980 C   0  0  0  0  0  0  0  0  0  0  0  0
    0.6395    1.4049    0.3135 C   0  0  0  0  0  0  0  0  0  0  0  0
    1.4714    0.5616    0.9407 O   0  0  0  0  0  0  0  0  0  0  0  0
   -0.1041    0.9595   -0.8518 C   0  0  0  0  0  0  0  0  0  0  0  0
    2.9690   -0.6162    0.2919 H   0  0  0  0  0  0  0  0  0  0  0  0
    1.5850   -1.4542    1.0273 H   0  0  0  0  0  0  0  0  0  0  0  0
   -0.1348   -0.6574   -2.2181 H   0  0  0  0  0  0  0  0  0  0  0  0
   -1.8523   -1.3797   -0.9142 H   0  0  0  0  0  0  0  0  0  0  0  0
   -0.6002   -2.1292    0.1218 H   0  0  0  0  0  0  0  0  0  0  0  0
   -0.8320   -0.4979    1.8197 H   0  0  0  0  0  0  0  0  0  0  0  0
   -2.4122   -0.1984    0.9461 H   0  0  0  0  0  0  0  0  0  0  0  0
   -1.5059    2.0159    0.5858 H   0  0  0  0  0  0  0  0  0  0  0  0
    0.9560    2.4868    0.3168 H   0  0  0  0  0  0  0  0  0  0  0  0
   -0.3182    1.6515   -1.7099 H   0  0  0  0  0  0  0  0  0  0  0  0
  1  2  1  0
  2  3  1  0
  3  4  1  0
  4  5  1  0
  5  6  1  0
  6  7  1  0
  7  8  1  0
  7  9  1  0
  8  1  1  0
  9  3  1  0
  9  6  1  0
  1 10  1  0
  1 11  1  0
  3 12  1  0
  4 13  1  0
  4 14  1  0
  5 15  1  0
  5 16  1  0
  6 17  1  0
  7 18  1  0
  9 19  1  0
M  END
