
     RDKit          3D

 16 18  0  0  0  0  0  0  0  0999 V2000
    1.5370   -0.4805    0.1789 C   0  0  0  0  0  0  0  0  0  0  0  0
    1.2024    0.5897    0.9808 O   0  0  0  0  0  0  0  0  0  0  0  0
    0.3249    1.4782    0.4086 C   0  0  0  0  0  0  0  0  0  0  0  0
   -0.9223    0.8419   -0.1408 C   0  0  0  0  0  0  0  0  0  0  0  0
   -1.4137   -0.4006    0.4719 C   0  0  0  0  0  0  0  0  0  0  0  0
   -0.5466   -1.4249    0.8050 O   0  0  0  0  0  0  0  0  0  0  0  0
    0.3185   -1.2497   -0.2858 C   0  0  0  0  0  0  0  0  0  0  0  0
   -0.7112   -0.3824   -0.9166 C   0  0  0  0  0  0  0  0  0  0  0  0
    2.1989   -0.1840   -0.6513 H   0  0  0  0  0  0  0  0  0  0  0  0
    2.1170   -1.1924    0.8372 H   0  0  0  0  0  0  0  0  0  0  0  0
   -0.0133    2.1705    1.2321 H   0  0  0  0  0  0  0  0  0  0  0  0
    0.8296    2.1321   -0.3265 H   0  0  0  0  0  0  0  0  0  0  0  0
   -1.6691    1.5536   -0.5170 H   0  0  0  0  0  0  0  0  0  0  0  0
   -2.5032   -0.5723    0.4721 H   0  0  0  0  0  0  0  0  0  0  0  0
    0.5914   -2.1747   -0.8074 H   0  0  0  0  0  0  0  0  0  0  0  0
   -1.3402   -0.7044   -1.7409 H   0  0  0  0  0  0  0  0  0  0  0  0
  1  2  1  0
  2  3  1  0
  3  4  1  0
  4  5  1  0
  5  6  1  0
  6  7  1  0
  7  8  1  0
  7  1  1  0
  8  4  1  0
  8  5  1  0
  1  9  1  0
  1 10  1  0
  3 11  1  0
  3 12  1  0
  4 13  1  0
  5 14  1  0
  7 15  1  0
  8 16  1  0
M  END
