
     RDKit          3D

 16 18  0  0  0  0  0  0  0  0999 V2000
   -1.7623    0.4034   -0.0197 C   0  0  0  0  0  0  0  0  0  0  0  0
   -1.4802   -0.5726   -1.0100 O   0  0  0  0  0  0  0  0  0  0  0  0
   -0.1436   -0.8022   -0.8169 C   0  0  0  0  0  0  0  0  0  0  0  0
    0.5047    0.5679   -0.5790 C   0  0  0  0  0  0  0  0  0  0  0  0
    1.7997    0.1805    0.0386 C   0  0  0  0  0  0  0  0  0  0  0  0
    1.3684   -0.8065    0.9629 O   0  0  0  0  0  0  0  0  0  0  0  0
    0.0357   -0.8893    0.7060 C   0  0  0  0  0  0  0  0  0  0  0  0
   -0.4294    0.5732    0.6030 C   0  0  0  0  0  0  0  0  0  0  0  0
   -2.2207    1.2973   -0.4371 H   0  0  0  0  0  0  0  0  0  0  0  0
   -2.4514   -0.0709    0.7295 H   0  0  0  0  0  0  0  0  0  0  0  0
    0.3935   -1.5000   -1.4103 H   0  0  0  0  0  0  0  0  0  0  0  0
    0.4252    1.2974   -1.3337 H   0  0  0  0  0  0  0  0  0  0  0  0
    2.3108    1.0113    0.5393 H   0  0  0  0  0  0  0  0  0  0  0  0
    2.5046   -0.3360   -0.6276 H   0  0  0  0  0  0  0  0  0  0  0  0
   -0.6024   -1.5598    1.2297 H   0  0  0  0  0  0  0  0  0  0  0  0
   -0.2528    1.2063    1.4251 H   0  0  0  0  0  0  0  0  0  0  0  0
  1  2  1  0
  2  3  1  0
  3  4  1  0
  4  5  1  0
  5  6  1  0
  6  7  1  0
  7  8  1  0
  8  1  1  0
  7  3  1  0
  8  4  1  0
  1  9  1  0
  1 10  1  0
  3 11  1  0
  4 12  1  0
  5 13  1  0
  5 14  1  0
  7 15  1  0
  8 16  1  0
M  END
