
     RDKit          3D

 19 21  0  0  0  0  0  0  0  0999 V2000
    1.9263    0.2309   -1.0862 C   0  0  0  0  0  0  0  0  0  0  0  0
    1.1270    1.3511   -0.8065 O   0  0  0  0  0  0  0  0  0  0  0  0
    0.4465    1.0672    0.3716 C   0  0  0  0  0  0  0  0  0  0  0  0
    1.3223    0.1959    1.0685 O   0  0  0  0  0  0  0  0  0  0  0  0
    1.5225   -0.7136    0.0023 C   0  0  0  0  0  0  0  0  0  0  0  0
    0.0965   -1.1548   -0.2819 C   0  0  0  0  0  0  0  0  0  0  0  0
   -0.6616    0.1090    0.0386 C   0  0  0  0  0  0  0  0  0  0  0  0
   -1.9151    0.4829   -0.5701 C   0  0  0  0  0  0  0  0  0  0  0  0
   -1.8728   -0.0247    0.8342 C   0  0  0  0  0  0  0  0  0  0  0  0
    2.9873    0.5560   -1.0036 H   0  0  0  0  0  0  0  0  0  0  0  0
    1.6910   -0.2192   -2.0644 H   0  0  0  0  0  0  0  0  0  0  0  0
    0.1577    1.9289    0.9537 H   0  0  0  0  0  0  0  0  0  0  0  0
    2.2042   -1.5068    0.2297 H   0  0  0  0  0  0  0  0  0  0  0  0
   -0.1732   -1.9547    0.4027 H   0  0  0  0  0  0  0  0  0  0  0  0
    0.0335   -1.4159   -1.3563 H   0  0  0  0  0  0  0  0  0  0  0  0
   -2.4538   -0.1125   -1.3171 H   0  0  0  0  0  0  0  0  0  0  0  0
   -2.1325    1.5861   -0.6820 H   0  0  0  0  0  0  0  0  0  0  0  0
   -2.0100    0.6404    1.6915 H   0  0  0  0  0  0  0  0  0  0  0  0
   -2.2958   -1.0462    0.9822 H   0  0  0  0  0  0  0  0  0  0  0  0
  1  2  1  0
  2  3  1  0
  3  4  1  0
  4  5  1  0
  5  6  1  0
  6  7  1  0
  7  8  1  0
  8  9  1  0
  5  1  1  0
  9  7  1  0
  7  3  1  0
  1 10  1  0
  1 11  1  0
  3 12  1  0
  5 13  1  0
  6 14  1  0
  6 15  1  0
  8 16  1  0
  8 17  1  0
  9 18  1  0
  9 19  1  0
M  END
