
     RDKit          3D

 21 22  0  0  0  0  0  0  0  0999 V2000
    2.0931   -0.1229   -0.5059 C   0  0  0  0  0  0  0  0  0  0  0  0
    1.1213   -0.9746   -1.0501 O   0  0  0  0  0  0  0  0  0  0  0  0
    0.4141   -1.5347   -0.0251 C   0  0  0  0  0  0  0  0  0  0  0  0
   -0.7096   -0.7333    0.5053 C   0  0  0  0  0  0  0  0  0  0  0  0
   -1.8373   -0.5032   -0.5106 C   0  0  0  0  0  0  0  0  0  0  0  0
   -1.3253    0.9250   -0.6499 C   0  0  0  0  0  0  0  0  0  0  0  0
   -0.5821    0.6902    0.6626 C   0  0  0  0  0  0  0  0  0  0  0  0
    0.7457    1.3385    0.6453 C   0  0  0  0  0  0  0  0  0  0  0  0
    1.4964    1.1410   -0.4783 O   0  0  0  0  0  0  0  0  0  0  0  0
    2.9716   -0.0468   -1.1749 H   0  0  0  0  0  0  0  0  0  0  0  0
    2.4276   -0.4527    0.4852 H   0  0  0  0  0  0  0  0  0  0  0  0
    1.0712   -1.8412    0.8117 H   0  0  0  0  0  0  0  0  0  0  0  0
   -0.0120   -2.5034   -0.4189 H   0  0  0  0  0  0  0  0  0  0  0  0
   -1.1585   -1.2459    1.3895 H   0  0  0  0  0  0  0  0  0  0  0  0
   -2.8434   -0.4837   -0.0617 H   0  0  0  0  0  0  0  0  0  0  0  0
   -1.7593   -1.1158   -1.4097 H   0  0  0  0  0  0  0  0  0  0  0  0
   -2.1152    1.6995   -0.5400 H   0  0  0  0  0  0  0  0  0  0  0  0
   -0.6815    1.1053   -1.5115 H   0  0  0  0  0  0  0  0  0  0  0  0
   -1.1866    1.0953    1.5277 H   0  0  0  0  0  0  0  0  0  0  0  0
    1.3004    1.1093    1.5980 H   0  0  0  0  0  0  0  0  0  0  0  0
    0.5696    2.4539    0.7114 H   0  0  0  0  0  0  0  0  0  0  0  0
  1  2  1  0
  2  3  1  0
  3  4  1  0
  4  5  1  0
  5  6  1  0
  6  7  1  0
  7  8  1  0
  8  9  1  0
  9  1  1  0
  7  4  1  0
  1 10  1  0
  1 11  1  0
  3 12  1  0
  3 13  1  0
  4 14  1  0
  5 15  1  0
  5 16  1  0
  6 17  1  0
  6 18  1  0
  7 19  1  0
  8 20  1  0
  8 21  1  0
M  END
