
     RDKit          3D

 19 21  0  0  0  0  0  0  0  0999 V2000
    1.5159   -0.8199    0.4055 C   0  0  0  0  0  0  0  0  0  0  0  0
    1.5222    0.3735    1.0914 O   0  0  0  0  0  0  0  0  0  0  0  0
    0.7456    1.2939    0.4341 C   0  0  0  0  0  0  0  0  0  0  0  0
    0.8249    0.8275   -1.0342 C   0  0  0  0  0  0  0  0  0  0  0  0
    0.4468   -0.6197   -0.6623 C   0  0  0  0  0  0  0  0  0  0  0  0
   -0.8421   -0.3837    0.0510 C   0  0  0  0  0  0  0  0  0  0  0  0
   -2.0339   -1.0937   -0.0636 C   0  0  0  0  0  0  0  0  0  0  0  0
   -1.1582   -1.3997    1.0451 O   0  0  0  0  0  0  0  0  0  0  0  0
   -0.7435    1.0042    0.6550 C   0  0  0  0  0  0  0  0  0  0  0  0
    1.2669   -1.6930    1.0141 H   0  0  0  0  0  0  0  0  0  0  0  0
    2.5142   -0.9235   -0.0991 H   0  0  0  0  0  0  0  0  0  0  0  0
    1.0078    2.3283    0.5582 H   0  0  0  0  0  0  0  0  0  0  0  0
    1.8517    0.8897   -1.4071 H   0  0  0  0  0  0  0  0  0  0  0  0
    0.0637    1.3027   -1.6492 H   0  0  0  0  0  0  0  0  0  0  0  0
    0.4641   -1.3028   -1.4728 H   0  0  0  0  0  0  0  0  0  0  0  0
   -3.0044   -0.6271    0.2106 H   0  0  0  0  0  0  0  0  0  0  0  0
   -2.1394   -1.9201   -0.8174 H   0  0  0  0  0  0  0  0  0  0  0  0
   -1.2965    1.7339    0.0280 H   0  0  0  0  0  0  0  0  0  0  0  0
   -1.0055    1.0295    1.7126 H   0  0  0  0  0  0  0  0  0  0  0  0
  1  2  1  0
  2  3  1  0
  3  4  1  0
  4  5  1  0
  5  6  1  0
  6  7  1  0
  7  8  1  0
  6  9  1  0
  5  1  1  0
  8  6  1  0
  9  3  1  0
  1 10  1  0
  1 11  1  0
  3 12  1  0
  4 13  1  0
  4 14  1  0
  5 15  1  0
  7 16  1  0
  7 17  1  0
  9 18  1  0
  9 19  1  0
M  END
