
     RDKit          3D

 18 19  0  0  0  0  0  0  0  0999 V2000
    1.5980   -0.6387   -0.4253 C   0  0  0  0  0  0  0  0  0  0  0  0
    1.0406    0.2668   -1.2931 O   0  0  0  0  0  0  0  0  0  0  0  0
    0.4533    1.3509   -0.6607 C   0  0  0  0  0  0  0  0  0  0  0  0
   -0.7908    0.8292    0.0427 C   0  0  0  0  0  0  0  0  0  0  0  0
   -0.4454    0.0688    1.3048 C   0  0  0  0  0  0  0  0  0  0  0  0
   -0.4498   -1.1916    0.5120 C   0  0  0  0  0  0  0  0  0  0  0  0
   -1.2599   -0.4693   -0.5565 C   0  0  0  0  0  0  0  0  0  0  0  0
    0.7500   -1.6068    0.0376 O   0  0  0  0  0  0  0  0  0  0  0  0
    2.4207   -1.1644   -0.9899 H   0  0  0  0  0  0  0  0  0  0  0  0
    2.0197   -0.1004    0.4440 H   0  0  0  0  0  0  0  0  0  0  0  0
    1.1166    1.8645    0.0535 H   0  0  0  0  0  0  0  0  0  0  0  0
    0.0778    2.0319   -1.4647 H   0  0  0  0  0  0  0  0  0  0  0  0
   -1.5501    1.6177    0.1629 H   0  0  0  0  0  0  0  0  0  0  0  0
   -1.3134    0.1151    2.0154 H   0  0  0  0  0  0  0  0  0  0  0  0
    0.4833    0.3607    1.8074 H   0  0  0  0  0  0  0  0  0  0  0  0
   -0.9842   -1.9936    1.0426 H   0  0  0  0  0  0  0  0  0  0  0  0
   -0.8246   -0.7149   -1.5587 H   0  0  0  0  0  0  0  0  0  0  0  0
   -2.3419   -0.6260   -0.4743 H   0  0  0  0  0  0  0  0  0  0  0  0
  1  2  1  0
  2  3  1  0
  3  4  1  0
  4  5  1  0
  5  6  1  0
  6  7  1  0
  6  8  1  0
  8  1  1  0
  7  4  1  0
  1  9  1  0
  1 10  1  0
  3 11  1  0
  3 12  1  0
  4 13  1  0
  5 14  1  0
  5 15  1  0
  6 16  1  0
  7 17  1  0
  7 18  1  0
M  END
