
     RDKit          3D

 17 19  0  0  0  0  0  0  0  0999 V2000
   -2.1665    0.5816    0.1524 C   0  0  0  0  0  0  0  0  0  0  0  0
   -1.6956   -0.4052    1.0058 O   0  0  0  0  0  0  0  0  0  0  0  0
   -0.8189   -0.8868    0.0599 C   0  0  0  0  0  0  0  0  0  0  0  0
   -0.9191    0.4279   -0.6625 C   0  0  0  0  0  0  0  0  0  0  0  0
    0.1047    1.2332   -0.2587 O   0  0  0  0  0  0  0  0  0  0  0  0
    0.9666    0.5435    0.5418 C   0  0  0  0  0  0  0  0  0  0  0  0
    2.2091    0.0109   -0.1663 C   0  0  0  0  0  0  0  0  0  0  0  0
    1.4282   -0.9974   -0.6891 O   0  0  0  0  0  0  0  0  0  0  0  0
    0.6359   -0.9227    0.4552 C   0  0  0  0  0  0  0  0  0  0  0  0
   -3.0943    0.3618   -0.3928 H   0  0  0  0  0  0  0  0  0  0  0  0
   -2.1472    1.5675    0.6889 H   0  0  0  0  0  0  0  0  0  0  0  0
   -1.1567   -1.7773   -0.4631 H   0  0  0  0  0  0  0  0  0  0  0  0
   -1.0319    0.3815   -1.7526 H   0  0  0  0  0  0  0  0  0  0  0  0
    1.1975    0.9418    1.5342 H   0  0  0  0  0  0  0  0  0  0  0  0
    2.5660    0.7840   -0.8694 H   0  0  0  0  0  0  0  0  0  0  0  0
    3.0099   -0.2933    0.5341 H   0  0  0  0  0  0  0  0  0  0  0  0
    0.9123   -1.5510    1.2931 H   0  0  0  0  0  0  0  0  0  0  0  0
  1  2  1  0
  2  3  1  0
  3  4  1  0
  4  5  1  0
  5  6  1  0
  6  7  1  0
  7  8  1  0
  8  9  1  0
  4  1  1  0
  9  6  1  0
  9  3  1  0
  1 10  1  0
  1 11  1  0
  3 12  1  0
  4 13  1  0
  6 14  1  0
  7 15  1  0
  7 16  1  0
  9 17  1  0
M  END
