
     RDKit          3D

 12 13  0  0  0  0  0  0  0  0999 V2000
   -0.0777    1.1838    0.4509 C   0  0  0  0  0  0  0  0  0  0  0  0
    1.1151    0.5621    0.6085 O   0  0  0  0  0  0  0  0  0  0  0  0
    1.0726   -0.7067    0.1174 C   0  0  0  0  0  0  0  0  0  0  0  0
   -0.2548   -0.9509   -0.5203 C   0  0  0  0  0  0  0  0  0  0  0  0
   -1.3294   -0.9861    0.3555 O   0  0  0  0  0  0  0  0  0  0  0  0
   -1.0704    0.2679   -0.1481 C   0  0  0  0  0  0  0  0  0  0  0  0
    0.0520    2.0604   -0.2121 H   0  0  0  0  0  0  0  0  0  0  0  0
   -0.4363    1.5752    1.4337 H   0  0  0  0  0  0  0  0  0  0  0  0
    1.9216   -0.8782   -0.5808 H   0  0  0  0  0  0  0  0  0  0  0  0
    1.2074   -1.4824    0.9261 H   0  0  0  0  0  0  0  0  0  0  0  0
   -0.3559   -1.2701   -1.5608 H   0  0  0  0  0  0  0  0  0  0  0  0
   -1.8442    0.6251   -0.8700 H   0  0  0  0  0  0  0  0  0  0  0  0
  1  2  1  0
  2  3  1  0
  3  4  1  0
  4  5  1  0
  5  6  1  0
  6  1  1  0
  6  4  1  0
  1  7  1  0
  1  8  1  0
  3  9  1  0
  3 10  1  0
  4 11  1  0
  6 12  1  0
M  END
