
     RDKit          3D

 19 21  0  0  0  0  0  0  0  0999 V2000
   -1.5671   -0.8996    0.5278 C   0  0  0  0  0  0  0  0  0  0  0  0
   -2.7719   -0.1581    0.4922 O   0  0  0  0  0  0  0  0  0  0  0  0
   -1.9521    0.9690    0.2451 C   0  0  0  0  0  0  0  0  0  0  0  0
   -1.0371    0.0555   -0.4931 C   0  0  0  0  0  0  0  0  0  0  0  0
    0.4011    0.3374   -0.5116 C   0  0  0  0  0  0  0  0  0  0  0  0
    1.3523   -0.7816   -0.7356 C   0  0  0  0  0  0  0  0  0  0  0  0
    2.4233    0.1159   -0.1910 C   0  0  0  0  0  0  0  0  0  0  0  0
    1.2111    0.2090    0.7111 C   0  0  0  0  0  0  0  0  0  0  0  0
    1.1289   -1.1663    0.5765 O   0  0  0  0  0  0  0  0  0  0  0  0
   -1.1623   -0.8392    1.5409 H   0  0  0  0  0  0  0  0  0  0  0  0
   -1.6726   -1.9383    0.1670 H   0  0  0  0  0  0  0  0  0  0  0  0
   -2.4409    1.7115   -0.3983 H   0  0  0  0  0  0  0  0  0  0  0  0
   -1.5887    1.3427    1.2223 H   0  0  0  0  0  0  0  0  0  0  0  0
   -1.4421   -0.1827   -1.4932 H   0  0  0  0  0  0  0  0  0  0  0  0
    0.6546    1.2224   -1.1283 H   0  0  0  0  0  0  0  0  0  0  0  0
    1.4260   -1.3861   -1.5381 H   0  0  0  0  0  0  0  0  0  0  0  0
    2.5595    1.0104   -0.7999 H   0  0  0  0  0  0  0  0  0  0  0  0
    3.3091   -0.3590    0.2359 H   0  0  0  0  0  0  0  0  0  0  0  0
    1.1690    0.7370    1.5703 H   0  0  0  0  0  0  0  0  0  0  0  0
  1  2  1  0
  2  3  1  0
  3  4  1  0
  4  5  1  0
  5  6  1  0
  6  7  1  0
  7  8  1  0
  8  9  1  0
  4  1  1  0
  8  5  1  0
  9  6  1  0
  1 10  1  0
  1 11  1  0
  3 12  1  0
  3 13  1  0
  4 14  1  0
  5 15  1  0
  6 16  1  0
  7 17  1  0
  7 18  1  0
  8 19  1  0
M  END
