
     RDKit          3D

 18 19  0  0  0  0  0  0  0  0999 V2000
    2.1902   -0.0916    0.0713 C   0  0  0  0  0  0  0  0  0  0  0  0
    1.4366   -0.6919    1.0823 O   0  0  0  0  0  0  0  0  0  0  0  0
    0.2282   -1.0739    0.5076 C   0  0  0  0  0  0  0  0  0  0  0  0
   -0.4653    0.0909   -0.1269 C   0  0  0  0  0  0  0  0  0  0  0  0
   -1.8581   -0.2107   -0.6422 C   0  0  0  0  0  0  0  0  0  0  0  0
   -1.6394    0.7440    0.4643 C   0  0  0  0  0  0  0  0  0  0  0  0
    0.4757    0.8783   -0.9897 C   0  0  0  0  0  0  0  0  0  0  0  0
    1.6303    1.1363   -0.2580 O   0  0  0  0  0  0  0  0  0  0  0  0
    3.2264   -0.0076    0.4554 H   0  0  0  0  0  0  0  0  0  0  0  0
    2.1979   -0.7137   -0.8510 H   0  0  0  0  0  0  0  0  0  0  0  0
   -0.4404   -1.5828    1.2243 H   0  0  0  0  0  0  0  0  0  0  0  0
    0.4418   -1.8380   -0.2923 H   0  0  0  0  0  0  0  0  0  0  0  0
   -2.3303   -1.1875   -0.3349 H   0  0  0  0  0  0  0  0  0  0  0  0
   -2.0226    0.1195   -1.6765 H   0  0  0  0  0  0  0  0  0  0  0  0
   -1.9836    0.4689    1.4913 H   0  0  0  0  0  0  0  0  0  0  0  0
   -1.8438    1.8045    0.2292 H   0  0  0  0  0  0  0  0  0  0  0  0
    0.7348    0.2931   -1.8982 H   0  0  0  0  0  0  0  0  0  0  0  0
    0.0220    1.8624   -1.2237 H   0  0  0  0  0  0  0  0  0  0  0  0
  1  2  1  0
  2  3  1  0
  3  4  1  0
  4  5  1  0
  5  6  1  0
  4  7  1  0
  7  8  1  0
  8  1  1  0
  6  4  1  0
  1  9  1  0
  1 10  1  0
  3 11  1  0
  3 12  1  0
  5 13  1  0
  5 14  1  0
  6 15  1  0
  6 16  1  0
  7 17  1  0
  7 18  1  0
M  END
