
     RDKit          3D

 17 19  0  0  0  0  0  0  0  0999 V2000
    2.6687   -0.1139    0.1964 C   0  0  0  0  0  0  0  0  0  0  0  0
    1.7503   -1.3010    0.2964 O   0  0  0  0  0  0  0  0  0  0  0  0
    1.3660   -0.0892   -0.4191 C   0  0  0  0  0  0  0  0  0  0  0  0
    0.1854    0.5362    0.2688 C   0  0  0  0  0  0  0  0  0  0  0  0
   -0.2963    1.7102   -0.3068 O   0  0  0  0  0  0  0  0  0  0  0  0
   -1.5527    1.3320    0.2305 C   0  0  0  0  0  0  0  0  0  0  0  0
   -1.1435   -0.0535   -0.0001 C   0  0  0  0  0  0  0  0  0  0  0  0
   -1.6803   -1.2761    0.1453 C   0  0  0  0  0  0  0  0  0  0  0  0
   -1.4768   -0.6551   -1.1828 O   0  0  0  0  0  0  0  0  0  0  0  0
    3.5457   -0.4518   -0.3505 H   0  0  0  0  0  0  0  0  0  0  0  0
    2.8371    0.2680    1.2138 H   0  0  0  0  0  0  0  0  0  0  0  0
    1.2561   -0.3306   -1.4889 H   0  0  0  0  0  0  0  0  0  0  0  0
    0.3606    0.7126    1.3485 H   0  0  0  0  0  0  0  0  0  0  0  0
   -2.3721    1.7160   -0.4157 H   0  0  0  0  0  0  0  0  0  0  0  0
   -1.6263    1.6847    1.2955 H   0  0  0  0  0  0  0  0  0  0  0  0
   -2.7503   -1.4814    0.3671 H   0  0  0  0  0  0  0  0  0  0  0  0
   -1.0717   -2.2071    0.1677 H   0  0  0  0  0  0  0  0  0  0  0  0
  1  2  1  0
  2  3  1  0
  3  4  1  0
  4  5  1  0
  5  6  1  0
  6  7  1  0
  7  8  1  0
  8  9  1  0
  3  1  1  0
  7  4  1  0
  9  7  1  0
  1 10  1  0
  1 11  1  0
  3 12  1  0
  4 13  1  0
  6 14  1  0
  6 15  1  0
  8 16  1  0
  8 17  1  0
M  END
