
     RDKit          3D

 17 19  0  0  0  0  0  0  0  0999 V2000
   -1.9315    0.6538   -0.1330 C   0  0  0  0  0  0  0  0  0  0  0  0
   -1.8653   -0.7160   -0.0605 O   0  0  0  0  0  0  0  0  0  0  0  0
   -0.6287   -1.2058    0.3239 C   0  0  0  0  0  0  0  0  0  0  0  0
    0.4616   -0.6769   -0.5588 C   0  0  0  0  0  0  0  0  0  0  0  0
    0.3327    0.8400   -0.5853 C   0  0  0  0  0  0  0  0  0  0  0  0
   -0.7557    1.3113    0.0746 O   0  0  0  0  0  0  0  0  0  0  0  0
    1.5504    0.8645    0.3522 C   0  0  0  0  0  0  0  0  0  0  0  0
    1.4128    0.0930    1.5369 O   0  0  0  0  0  0  0  0  0  0  0  0
    1.7312   -0.4563    0.2588 C   0  0  0  0  0  0  0  0  0  0  0  0
   -2.6451    0.9833    0.6798 H   0  0  0  0  0  0  0  0  0  0  0  0
   -2.4504    0.9578   -1.0812 H   0  0  0  0  0  0  0  0  0  0  0  0
   -0.6762   -2.3213    0.1660 H   0  0  0  0  0  0  0  0  0  0  0  0
   -0.3957   -1.0346    1.3897 H   0  0  0  0  0  0  0  0  0  0  0  0
    0.6043   -1.1586   -1.5287 H   0  0  0  0  0  0  0  0  0  0  0  0
    0.6067    1.2843   -1.5500 H   0  0  0  0  0  0  0  0  0  0  0  0
    2.1321    1.7755    0.4460 H   0  0  0  0  0  0  0  0  0  0  0  0
    2.5168   -1.1942    0.2697 H   0  0  0  0  0  0  0  0  0  0  0  0
  1  2  1  0
  2  3  1  0
  3  4  1  0
  4  5  1  0
  5  6  1  0
  5  7  1  0
  7  8  1  0
  8  9  1  0
  6  1  1  0
  9  7  1  0
  9  4  1  0
  1 10  1  0
  1 11  1  0
  3 12  1  0
  3 13  1  0
  4 14  1  0
  5 15  1  0
  7 16  1  0
  9 17  1  0
M  END
