
     RDKit          3D

 17 19  0  0  0  0  0  0  0  0999 V2000
    1.9335    0.1797   -0.3681 C   0  0  0  0  0  0  0  0  0  0  0  0
    1.4135    1.2637    0.3517 O   0  0  0  0  0  0  0  0  0  0  0  0
    0.2542    0.8021    0.9795 C   0  0  0  0  0  0  0  0  0  0  0  0
    0.5351   -0.5717    1.1930 O   0  0  0  0  0  0  0  0  0  0  0  0
    0.8561   -0.8797   -0.1536 C   0  0  0  0  0  0  0  0  0  0  0  0
   -0.4220   -0.5154   -0.8410 C   0  0  0  0  0  0  0  0  0  0  0  0
   -1.5103   -1.2187   -0.3520 O   0  0  0  0  0  0  0  0  0  0  0  0
   -1.9596   -0.2312    0.5351 C   0  0  0  0  0  0  0  0  0  0  0  0
   -0.8941    0.6729    0.0080 C   0  0  0  0  0  0  0  0  0  0  0  0
    2.0971    0.4040   -1.4202 H   0  0  0  0  0  0  0  0  0  0  0  0
    2.8351   -0.1862    0.1720 H   0  0  0  0  0  0  0  0  0  0  0  0
    0.0117    1.3169    1.9002 H   0  0  0  0  0  0  0  0  0  0  0  0
    1.2012   -1.8920   -0.2890 H   0  0  0  0  0  0  0  0  0  0  0  0
   -0.3896   -0.3227   -1.9102 H   0  0  0  0  0  0  0  0  0  0  0  0
   -1.8033   -0.5397    1.5995 H   0  0  0  0  0  0  0  0  0  0  0  0
   -2.9742    0.1622    0.3098 H   0  0  0  0  0  0  0  0  0  0  0  0
   -1.1844    1.5558   -0.5440 H   0  0  0  0  0  0  0  0  0  0  0  0
  1  2  1  0
  2  3  1  0
  3  4  1  0
  4  5  1  0
  5  6  1  0
  6  7  1  0
  7  8  1  0
  8  9  1  0
  5  1  1  0
  9  6  1  0
  9  3  1  0
  1 10  1  0
  1 11  1  0
  3 12  1  0
  5 13  1  0
  6 14  1  0
  8 15  1  0
  8 16  1  0
  9 17  1  0
M  END
