
     RDKit          3D

 16 19  0  0  0  0  0  0  0  0999 V2000
    1.6085   -0.3432   -0.3289 C   0  0  0  0  0  0  0  0  0  0  0  0
    0.8059   -1.2739   -0.9282 O   0  0  0  0  0  0  0  0  0  0  0  0
   -0.4970   -1.1037   -0.5420 C   0  0  0  0  0  0  0  0  0  0  0  0
   -0.3574   -0.5542    0.8608 C   0  0  0  0  0  0  0  0  0  0  0  0
    0.7772    0.4289    0.6686 C   0  0  0  0  0  0  0  0  0  0  0  0
   -0.2399    1.2684   -0.0789 C   0  0  0  0  0  0  0  0  0  0  0  0
   -1.0791    0.2575   -0.8830 C   0  0  0  0  0  0  0  0  0  0  0  0
   -1.3029    0.5179    0.5064 C   0  0  0  0  0  0  0  0  0  0  0  0
    2.0853    0.3744   -1.0104 H   0  0  0  0  0  0  0  0  0  0  0  0
    2.4012   -0.8765    0.2519 H   0  0  0  0  0  0  0  0  0  0  0  0
   -1.1457   -1.9572   -0.6488 H   0  0  0  0  0  0  0  0  0  0  0  0
   -0.4222   -1.1645    1.7023 H   0  0  0  0  0  0  0  0  0  0  0  0
    1.2496    0.8437    1.5321 H   0  0  0  0  0  0  0  0  0  0  0  0
   -0.1183    2.2668   -0.3667 H   0  0  0  0  0  0  0  0  0  0  0  0
   -1.5861    0.5029   -1.7623 H   0  0  0  0  0  0  0  0  0  0  0  0
   -2.1790    0.8127    1.0270 H   0  0  0  0  0  0  0  0  0  0  0  0
  1  2  1  0
  2  3  1  0
  3  4  1  0
  4  5  1  0
  5  6  1  0
  6  7  1  0
  7  8  1  0
  5  1  1  0
  8  6  1  0
  7  3  1  0
  8  4  1  0
  1  9  1  0
  1 10  1  0
  3 11  1  0
  4 12  1  0
  5 13  1  0
  6 14  1  0
  7 15  1  0
  8 16  1  0
M  END
