
     RDKit          3D

 12 13  0  0  0  0  0  0  0  0999 V2000
   -1.4697    1.0831   -0.0926 C   0  0  0  0  0  0  0  0  0  0  0  0
   -2.2448    0.0299    0.0476 O   0  0  0  0  0  0  0  0  0  0  0  0
   -1.4883   -1.0503    0.0216 C   0  0  0  0  0  0  0  0  0  0  0  0
   -0.1681   -0.6795   -0.1425 C   0  0  0  0  0  0  0  0  0  0  0  0
   -0.1567    0.7147   -0.2171 C   0  0  0  0  0  0  0  0  0  0  0  0
    1.1840    1.0530   -0.3817 O   0  0  0  0  0  0  0  0  0  0  0  0
    1.9730   -0.0247    0.1142 C   0  0  0  0  0  0  0  0  0  0  0  0
    1.1350   -1.1275   -0.2617 O   0  0  0  0  0  0  0  0  0  0  0  0
   -1.7861    2.1293   -0.1130 H   0  0  0  0  0  0  0  0  0  0  0  0
   -1.8979   -2.0536    0.1192 H   0  0  0  0  0  0  0  0  0  0  0  0
    1.9564    0.0042    1.2290 H   0  0  0  0  0  0  0  0  0  0  0  0
    2.9634   -0.0786   -0.3230 H   0  0  0  0  0  0  0  0  0  0  0  0
  1  2  1  0
  2  3  1  0
  3  4  2  0
  4  5  1  0
  5  6  1  0
  6  7  1  0
  7  8  1  0
  5  1  2  0
  8  4  1  0
  1  9  1  0
  3 10  1  0
  7 11  1  0
  7 12  1  0
M  END
