
     RDKit          3D

 19 22  0  0  0  0  0  0  0  0999 V2000
    1.8501   -0.5924    0.2122 C   0  0  0  0  0  0  0  0  0  0  0  0
    1.0674   -1.0566    1.2624 O   0  0  0  0  0  0  0  0  0  0  0  0
   -0.1462   -0.4039    1.2253 C   0  0  0  0  0  0  0  0  0  0  0  0
    0.1718    0.9287    0.5667 C   0  0  0  0  0  0  0  0  0  0  0  0
   -1.1113    1.3093   -0.0470 C   0  0  0  0  0  0  0  0  0  0  0  0
   -1.4644    0.0046   -0.7751 C   0  0  0  0  0  0  0  0  0  0  0  0
   -0.1687   -0.5589   -1.1715 C   0  0  0  0  0  0  0  0  0  0  0  0
    0.9317    0.2898   -0.6068 C   0  0  0  0  0  0  0  0  0  0  0  0
   -0.9402   -1.0363    0.0948 C   0  0  0  0  0  0  0  0  0  0  0  0
    2.3399   -1.3763   -0.3655 H   0  0  0  0  0  0  0  0  0  0  0  0
    2.6457    0.0498    0.6915 H   0  0  0  0  0  0  0  0  0  0  0  0
   -0.6687   -0.3299    2.1587 H   0  0  0  0  0  0  0  0  0  0  0  0
    0.7239    1.6192    1.1380 H   0  0  0  0  0  0  0  0  0  0  0  0
   -1.8872    1.4236    0.7454 H   0  0  0  0  0  0  0  0  0  0  0  0
   -1.1039    2.1641   -0.7178 H   0  0  0  0  0  0  0  0  0  0  0  0
   -2.3846   -0.0678   -1.3360 H   0  0  0  0  0  0  0  0  0  0  0  0
   -0.0074   -1.2869   -1.9526 H   0  0  0  0  0  0  0  0  0  0  0  0
    1.4006    0.9874   -1.2607 H   0  0  0  0  0  0  0  0  0  0  0  0
   -1.2485   -2.0675    0.1383 H   0  0  0  0  0  0  0  0  0  0  0  0
  1  2  1  0
  2  3  1  0
  3  4  1  0
  4  5  1  0
  5  6  1  0
  6  7  1  0
  7  8  1  0
  7  9  1  0
  8  1  1  0
  9  3  1  0
  8  4  1  0
  9  6  1  0
  1 10  1  0
  1 11  1  0
  3 12  1  0
  4 13  1  0
  5 14  1  0
  5 15  1  0
  6 16  1  0
  7 17  1  0
  8 18  1  0
  9 19  1  0
M  END
