
     RDKit          3D

 19 20  0  0  0  0  0  0  0  0999 V2000
    1.0419   -1.3560    0.1690 C   0  0  0  0  0  0  0  0  0  0  0  0
    1.9040   -0.3242   -0.0759 O   0  0  0  0  0  0  0  0  0  0  0  0
    1.5015    0.9143    0.2971 C   0  0  0  0  0  0  0  0  0  0  0  0
    0.0276    1.1674    0.2325 C   0  0  0  0  0  0  0  0  0  0  0  0
   -0.5485    0.6976   -1.0879 C   0  0  0  0  0  0  0  0  0  0  0  0
   -1.0095   -0.7036   -0.6898 C   0  0  0  0  0  0  0  0  0  0  0  0
   -1.4436   -0.4473    0.7341 C   0  0  0  0  0  0  0  0  0  0  0  0
   -0.6874    0.5756    1.2376 O   0  0  0  0  0  0  0  0  0  0  0  0
    0.0711   -1.5351   -0.7954 O   0  0  0  0  0  0  0  0  0  0  0  0
    1.6655   -2.3018    0.1352 H   0  0  0  0  0  0  0  0  0  0  0  0
    0.6243   -1.3584    1.2136 H   0  0  0  0  0  0  0  0  0  0  0  0
    1.9831    1.6569   -0.4066 H   0  0  0  0  0  0  0  0  0  0  0  0
    1.8468    1.2403    1.3101 H   0  0  0  0  0  0  0  0  0  0  0  0
   -0.1053    2.2805    0.3123 H   0  0  0  0  0  0  0  0  0  0  0  0
    0.2669    0.6759   -1.8152 H   0  0  0  0  0  0  0  0  0  0  0  0
   -1.3676    1.3237   -1.4519 H   0  0  0  0  0  0  0  0  0  0  0  0
   -1.8048   -1.0586   -1.3429 H   0  0  0  0  0  0  0  0  0  0  0  0
   -2.5100   -0.0802    0.6985 H   0  0  0  0  0  0  0  0  0  0  0  0
   -1.4562   -1.3670    1.3256 H   0  0  0  0  0  0  0  0  0  0  0  0
  1  2  1  0
  2  3  1  0
  3  4  1  0
  4  5  1  0
  5  6  1  0
  6  7  1  0
  7  8  1  0
  6  9  1  0
  9  1  1  0
  8  4  1  0
  1 10  1  0
  1 11  1  0
  3 12  1  0
  3 13  1  0
  4 14  1  0
  5 15  1  0
  5 16  1  0
  6 17  1  0
  7 18  1  0
  7 19  1  0
M  END
