
     RDKit          3D

 19 21  0  0  0  0  0  0  0  0999 V2000
    2.1409   -0.1499    0.1917 C   0  0  0  0  0  0  0  0  0  0  0  0
    1.6161   -0.7394   -0.9432 O   0  0  0  0  0  0  0  0  0  0  0  0
    0.2790   -0.4764   -1.0214 C   0  0  0  0  0  0  0  0  0  0  0  0
   -0.5148   -1.2124    0.0692 C   0  0  0  0  0  0  0  0  0  0  0  0
   -1.8083   -0.4321    0.0990 C   0  0  0  0  0  0  0  0  0  0  0  0
   -1.2994    0.9903   -0.1206 C   0  0  0  0  0  0  0  0  0  0  0  0
    0.1647    0.8866   -0.3020 C   0  0  0  0  0  0  0  0  0  0  0  0
    0.8813    0.3289    0.9330 C   0  0  0  0  0  0  0  0  0  0  0  0
    0.1858   -0.8238    1.2172 O   0  0  0  0  0  0  0  0  0  0  0  0
    2.6340   -0.8703    0.8777 H   0  0  0  0  0  0  0  0  0  0  0  0
    2.7771    0.7306   -0.0219 H   0  0  0  0  0  0  0  0  0  0  0  0
   -0.1810   -0.4864   -1.9818 H   0  0  0  0  0  0  0  0  0  0  0  0
   -0.6021   -2.2647   -0.0881 H   0  0  0  0  0  0  0  0  0  0  0  0
   -2.5302   -0.7411   -0.6509 H   0  0  0  0  0  0  0  0  0  0  0  0
   -2.1874   -0.4596    1.1421 H   0  0  0  0  0  0  0  0  0  0  0  0
   -1.5367    1.6565    0.7256 H   0  0  0  0  0  0  0  0  0  0  0  0
   -1.7541    1.3628   -1.0353 H   0  0  0  0  0  0  0  0  0  0  0  0
    0.6787    1.6747   -0.7991 H   0  0  0  0  0  0  0  0  0  0  0  0
    1.0565    1.0255    1.7089 H   0  0  0  0  0  0  0  0  0  0  0  0
  1  2  1  0
  2  3  1  0
  3  4  1  0
  4  5  1  0
  5  6  1  0
  6  7  1  0
  7  8  1  0
  8  9  1  0
  8  1  1  0
  7  3  1  0
  9  4  1  0
  1 10  1  0
  1 11  1  0
  3 12  1  0
  4 13  1  0
  5 14  1  0
  5 15  1  0
  6 16  1  0
  6 17  1  0
  7 18  1  0
  8 19  1  0
M  END
