
     RDKit          3D

 19 21  0  0  0  0  0  0  0  0999 V2000
    2.1691    0.8220   -0.0170 C   0  0  0  0  0  0  0  0  0  0  0  0
    1.9617   -0.5356   -0.1439 O   0  0  0  0  0  0  0  0  0  0  0  0
    0.6286   -0.8516   -0.1288 C   0  0  0  0  0  0  0  0  0  0  0  0
   -0.0809   -0.4732    1.1443 C   0  0  0  0  0  0  0  0  0  0  0  0
   -1.5088   -0.8235    0.8187 C   0  0  0  0  0  0  0  0  0  0  0  0
   -1.5804   -0.2310   -0.6049 C   0  0  0  0  0  0  0  0  0  0  0  0
   -0.1874    0.3101   -0.7153 C   0  0  0  0  0  0  0  0  0  0  0  0
   -0.0016    0.9696    0.6307 C   0  0  0  0  0  0  0  0  0  0  0  0
    1.2695    1.4161    0.8629 O   0  0  0  0  0  0  0  0  0  0  0  0
    2.0651    1.3675   -0.9832 H   0  0  0  0  0  0  0  0  0  0  0  0
    3.1883    0.9615    0.4130 H   0  0  0  0  0  0  0  0  0  0  0  0
    0.3394   -1.8369   -0.5022 H   0  0  0  0  0  0  0  0  0  0  0  0
    0.3348   -0.6965    2.0836 H   0  0  0  0  0  0  0  0  0  0  0  0
   -2.2379   -0.3303    1.4861 H   0  0  0  0  0  0  0  0  0  0  0  0
   -1.6323   -1.9245    0.7693 H   0  0  0  0  0  0  0  0  0  0  0  0
   -2.3603    0.5351   -0.6503 H   0  0  0  0  0  0  0  0  0  0  0  0
   -1.6875   -1.0583   -1.3122 H   0  0  0  0  0  0  0  0  0  0  0  0
    0.1616    0.7739   -1.5927 H   0  0  0  0  0  0  0  0  0  0  0  0
   -0.8409    1.6057    0.9039 H   0  0  0  0  0  0  0  0  0  0  0  0
  1  2  1  0
  2  3  1  0
  3  4  1  0
  4  5  1  0
  5  6  1  0
  6  7  1  0
  7  8  1  0
  8  9  1  0
  9  1  1  0
  7  3  1  0
  8  4  1  0
  1 10  1  0
  1 11  1  0
  3 12  1  0
  4 13  1  0
  5 14  1  0
  5 15  1  0
  6 16  1  0
  6 17  1  0
  7 18  1  0
  8 19  1  0
M  END
