
     RDKit          3D

 19 21  0  0  0  0  0  0  0  0999 V2000
    2.7313   -0.5621    0.2133 C   0  0  0  0  0  0  0  0  0  0  0  0
    2.2494   -0.1302   -1.1093 O   0  0  0  0  0  0  0  0  0  0  0  0
    1.7061    0.4799    0.0855 C   0  0  0  0  0  0  0  0  0  0  0  0
    0.2735    0.0880    0.3169 C   0  0  0  0  0  0  0  0  0  0  0  0
   -0.7479    1.1553    0.1830 C   0  0  0  0  0  0  0  0  0  0  0  0
   -2.0361    0.4177    0.5567 C   0  0  0  0  0  0  0  0  0  0  0  0
   -1.7978   -0.8169   -0.3378 C   0  0  0  0  0  0  0  0  0  0  0  0
   -0.4682   -0.3830   -0.9057 C   0  0  0  0  0  0  0  0  0  0  0  0
   -0.6830    0.9648   -1.2050 O   0  0  0  0  0  0  0  0  0  0  0  0
    2.5202   -1.6046    0.4506 H   0  0  0  0  0  0  0  0  0  0  0  0
    3.8020   -0.2265    0.3163 H   0  0  0  0  0  0  0  0  0  0  0  0
    2.0256    1.5241    0.2517 H   0  0  0  0  0  0  0  0  0  0  0  0
    0.0852   -0.5452    1.1939 H   0  0  0  0  0  0  0  0  0  0  0  0
   -0.5983    2.1291    0.5753 H   0  0  0  0  0  0  0  0  0  0  0  0
   -1.9509    0.1653    1.6150 H   0  0  0  0  0  0  0  0  0  0  0  0
   -2.9301    0.9639    0.2613 H   0  0  0  0  0  0  0  0  0  0  0  0
   -1.6380   -1.7211    0.2649 H   0  0  0  0  0  0  0  0  0  0  0  0
   -2.5684   -0.8988   -1.1084 H   0  0  0  0  0  0  0  0  0  0  0  0
    0.0253   -0.9996   -1.6184 H   0  0  0  0  0  0  0  0  0  0  0  0
  1  2  1  0
  2  3  1  0
  3  4  1  0
  4  5  1  0
  5  6  1  0
  6  7  1  0
  7  8  1  0
  8  9  1  0
  3  1  1  0
  8  4  1  0
  9  5  1  0
  1 10  1  0
  1 11  1  0
  3 12  1  0
  4 13  1  0
  5 14  1  0
  6 15  1  0
  6 16  1  0
  7 17  1  0
  7 18  1  0
  8 19  1  0
M  END
