
     RDKit          3D

 19 21  0  0  0  0  0  0  0  0999 V2000
   -0.8213    1.5326    0.0406 C   0  0  0  0  0  0  0  0  0  0  0  0
    0.5818    1.4948   -0.0731 O   0  0  0  0  0  0  0  0  0  0  0  0
    1.1299    0.4161    0.5816 C   0  0  0  0  0  0  0  0  0  0  0  0
    2.4129   -0.0628   -0.0643 C   0  0  0  0  0  0  0  0  0  0  0  0
    1.7947   -1.1821   -0.6038 O   0  0  0  0  0  0  0  0  0  0  0  0
    0.6394   -0.8978    0.0909 C   0  0  0  0  0  0  0  0  0  0  0  0
   -0.6318   -0.8702   -0.6694 C   0  0  0  0  0  0  0  0  0  0  0  0
   -1.8832   -0.8180    0.2112 C   0  0  0  0  0  0  0  0  0  0  0  0
   -1.4376    0.3354   -0.6090 C   0  0  0  0  0  0  0  0  0  0  0  0
   -1.1251    2.4671   -0.5028 H   0  0  0  0  0  0  0  0  0  0  0  0
   -1.1305    1.6750    1.0899 H   0  0  0  0  0  0  0  0  0  0  0  0
    1.2065    0.5186    1.6989 H   0  0  0  0  0  0  0  0  0  0  0  0
    3.1845   -0.3738    0.6542 H   0  0  0  0  0  0  0  0  0  0  0  0
    2.7574    0.5965   -0.8978 H   0  0  0  0  0  0  0  0  0  0  0  0
    0.5515   -1.6164    0.9587 H   0  0  0  0  0  0  0  0  0  0  0  0
   -0.6838   -1.4842   -1.6037 H   0  0  0  0  0  0  0  0  0  0  0  0
   -1.7560   -0.7831    1.3066 H   0  0  0  0  0  0  0  0  0  0  0  0
   -2.6792   -1.4973   -0.1179 H   0  0  0  0  0  0  0  0  0  0  0  0
   -2.1100    0.5497   -1.4907 H   0  0  0  0  0  0  0  0  0  0  0  0
  1  2  1  0
  2  3  1  0
  3  4  1  0
  4  5  1  0
  5  6  1  0
  6  7  1  0
  7  8  1  0
  8  9  1  0
  9  1  1  0
  6  3  1  0
  9  7  1  0
  1 10  1  0
  1 11  1  0
  3 12  1  0
  4 13  1  0
  4 14  1  0
  6 15  1  0
  7 16  1  0
  8 17  1  0
  8 18  1  0
  9 19  1  0
M  END
