
     RDKit          3D

 21 23  0  0  0  0  0  0  0  0999 V2000
    1.5579   -0.6778   -0.6734 C   0  0  0  0  0  0  0  0  0  0  0  0
    0.5114   -1.5240   -0.6791 O   0  0  0  0  0  0  0  0  0  0  0  0
   -0.4891   -1.3524    0.1974 C   0  0  0  0  0  0  0  0  0  0  0  0
   -1.7043   -0.7429   -0.5217 C   0  0  0  0  0  0  0  0  0  0  0  0
   -1.2079    0.6002   -0.0067 C   0  0  0  0  0  0  0  0  0  0  0  0
   -0.0976    1.2075   -0.8199 C   0  0  0  0  0  0  0  0  0  0  0  0
    1.2061    0.7256   -0.2197 C   0  0  0  0  0  0  0  0  0  0  0  0
    0.7870    0.5474    1.2476 C   0  0  0  0  0  0  0  0  0  0  0  0
   -0.4901   -0.1987    1.0905 C   0  0  0  0  0  0  0  0  0  0  0  0
    2.0823   -0.6920   -1.6478 H   0  0  0  0  0  0  0  0  0  0  0  0
    2.3151   -1.0523    0.0743 H   0  0  0  0  0  0  0  0  0  0  0  0
   -0.8596   -2.2803    0.7202 H   0  0  0  0  0  0  0  0  0  0  0  0
   -2.6671   -1.0060   -0.0624 H   0  0  0  0  0  0  0  0  0  0  0  0
   -1.6909   -0.8670   -1.6102 H   0  0  0  0  0  0  0  0  0  0  0  0
   -1.9928    1.2567    0.3492 H   0  0  0  0  0  0  0  0  0  0  0  0
   -0.1228    2.3177   -0.6418 H   0  0  0  0  0  0  0  0  0  0  0  0
   -0.1802    1.0214   -1.8901 H   0  0  0  0  0  0  0  0  0  0  0  0
    2.0325    1.4218   -0.3356 H   0  0  0  0  0  0  0  0  0  0  0  0
    0.5565    1.5782    1.6039 H   0  0  0  0  0  0  0  0  0  0  0  0
    1.5456    0.0309    1.8331 H   0  0  0  0  0  0  0  0  0  0  0  0
   -1.0919   -0.3138    1.9922 H   0  0  0  0  0  0  0  0  0  0  0  0
  1  2  1  0
  2  3  1  0
  3  4  1  0
  4  5  1  0
  5  6  1  0
  6  7  1  0
  7  8  1  0
  8  9  1  0
  7  1  1  0
  9  3  1  0
  9  5  1  0
  1 10  1  0
  1 11  1  0
  3 12  1  0
  4 13  1  0
  4 14  1  0
  5 15  1  0
  6 16  1  0
  6 17  1  0
  7 18  1  0
  8 19  1  0
  8 20  1  0
  9 21  1  0
M  END
