
     RDKit          3D

 19 21  0  0  0  0  0  0  0  0999 V2000
    1.7397    0.2347   -0.2654 C   0  0  0  0  0  0  0  0  0  0  0  0
    1.0103    1.3798   -0.0688 O   0  0  0  0  0  0  0  0  0  0  0  0
   -0.2241    1.2058    0.4898 C   0  0  0  0  0  0  0  0  0  0  0  0
   -1.2272    0.8894   -0.5932 C   0  0  0  0  0  0  0  0  0  0  0  0
   -0.9723   -0.5807   -0.8736 C   0  0  0  0  0  0  0  0  0  0  0  0
    0.1405   -0.8293   -1.6553 O   0  0  0  0  0  0  0  0  0  0  0  0
    0.9263   -0.9939   -0.5123 C   0  0  0  0  0  0  0  0  0  0  0  0
   -0.2842   -1.1233    0.3486 C   0  0  0  0  0  0  0  0  0  0  0  0
   -0.3231   -0.0218    1.3705 C   0  0  0  0  0  0  0  0  0  0  0  0
    2.3604    0.4051   -1.1946 H   0  0  0  0  0  0  0  0  0  0  0  0
    2.4579    0.1365    0.5652 H   0  0  0  0  0  0  0  0  0  0  0  0
   -0.5375    2.0977    1.0399 H   0  0  0  0  0  0  0  0  0  0  0  0
   -1.0500    1.5071   -1.4886 H   0  0  0  0  0  0  0  0  0  0  0  0
   -2.2401    0.9701   -0.1752 H   0  0  0  0  0  0  0  0  0  0  0  0
   -1.8762   -1.1711   -1.1309 H   0  0  0  0  0  0  0  0  0  0  0  0
    1.5560   -1.8972   -0.4906 H   0  0  0  0  0  0  0  0  0  0  0  0
   -0.5784   -2.1179    0.6841 H   0  0  0  0  0  0  0  0  0  0  0  0
   -1.3463   -0.0105    1.8228 H   0  0  0  0  0  0  0  0  0  0  0  0
    0.4681   -0.0803    2.1276 H   0  0  0  0  0  0  0  0  0  0  0  0
  1  2  1  0
  2  3  1  0
  3  4  1  0
  4  5  1  0
  5  6  1  0
  6  7  1  0
  7  8  1  0
  8  9  1  0
  7  1  1  0
  9  3  1  0
  8  5  1  0
  1 10  1  0
  1 11  1  0
  3 12  1  0
  4 13  1  0
  4 14  1  0
  5 15  1  0
  7 16  1  0
  8 17  1  0
  9 18  1  0
  9 19  1  0
M  END
