
     RDKit          3D

 17 20  0  0  0  0  0  0  0  0999 V2000
   -1.0079   -1.2994    0.0774 C   0  0  0  0  0  0  0  0  0  0  0  0
   -1.4275   -0.5147    1.1129 O   0  0  0  0  0  0  0  0  0  0  0  0
   -1.2908    0.8150    0.8019 C   0  0  0  0  0  0  0  0  0  0  0  0
   -0.9839    0.9104   -0.6177 C   0  0  0  0  0  0  0  0  0  0  0  0
   -0.2891   -0.3741   -0.9186 C   0  0  0  0  0  0  0  0  0  0  0  0
    0.9322    0.1623   -0.2416 C   0  0  0  0  0  0  0  0  0  0  0  0
    1.9888   -0.5001    0.3292 C   0  0  0  0  0  0  0  0  0  0  0  0
    2.1076    0.3659   -0.8654 O   0  0  0  0  0  0  0  0  0  0  0  0
    0.1183    1.2171    0.4017 C   0  0  0  0  0  0  0  0  0  0  0  0
   -0.2240   -2.0047    0.4270 H   0  0  0  0  0  0  0  0  0  0  0  0
   -1.8103   -1.8719   -0.4137 H   0  0  0  0  0  0  0  0  0  0  0  0
   -1.9281    1.5282    1.3398 H   0  0  0  0  0  0  0  0  0  0  0  0
   -1.1999    1.6855   -1.3104 H   0  0  0  0  0  0  0  0  0  0  0  0
   -0.2242   -0.7248   -1.9330 H   0  0  0  0  0  0  0  0  0  0  0  0
    2.2481   -1.5628    0.1146 H   0  0  0  0  0  0  0  0  0  0  0  0
    2.5485   -0.0869    1.2088 H   0  0  0  0  0  0  0  0  0  0  0  0
    0.4421    2.2550    0.4872 H   0  0  0  0  0  0  0  0  0  0  0  0
  1  2  1  0
  2  3  1  0
  3  4  1  0
  4  5  1  0
  5  6  1  0
  6  7  1  0
  7  8  1  0
  6  9  1  0
  5  1  1  0
  8  6  1  0
  9  3  1  0
  9  4  1  0
  1 10  1  0
  1 11  1  0
  3 12  1  0
  4 13  1  0
  5 14  1  0
  7 15  1  0
  7 16  1  0
  9 17  1  0
M  END
