
     RDKit          3D

 21 23  0  0  0  0  0  0  0  0999 V2000
   -0.8083    1.5620   -0.5163 C   0  0  0  0  0  0  0  0  0  0  0  0
   -1.0654    1.2745    0.8146 O   0  0  0  0  0  0  0  0  0  0  0  0
   -0.7872   -0.0774    1.1135 C   0  0  0  0  0  0  0  0  0  0  0  0
   -1.3238   -0.8498   -0.1060 C   0  0  0  0  0  0  0  0  0  0  0  0
   -0.0389   -0.7703   -0.9452 C   0  0  0  0  0  0  0  0  0  0  0  0
    0.8611   -1.4344    0.1144 C   0  0  0  0  0  0  0  0  0  0  0  0
    0.6956   -0.2886    1.1287 C   0  0  0  0  0  0  0  0  0  0  0  0
    1.3197    0.8118    0.2654 C   0  0  0  0  0  0  0  0  0  0  0  0
    0.3696    0.6717   -0.9425 C   0  0  0  0  0  0  0  0  0  0  0  0
   -1.6505    1.5067   -1.1849 H   0  0  0  0  0  0  0  0  0  0  0  0
   -0.3782    2.6058   -0.5263 H   0  0  0  0  0  0  0  0  0  0  0  0
   -1.3162   -0.4379    1.9876 H   0  0  0  0  0  0  0  0  0  0  0  0
   -1.4490   -1.9101    0.1487 H   0  0  0  0  0  0  0  0  0  0  0  0
   -2.1677   -0.3661   -0.5726 H   0  0  0  0  0  0  0  0  0  0  0  0
   -0.0779   -1.2778   -1.8731 H   0  0  0  0  0  0  0  0  0  0  0  0
    0.3649   -2.3428    0.4883 H   0  0  0  0  0  0  0  0  0  0  0  0
    1.8808   -1.5506   -0.2208 H   0  0  0  0  0  0  0  0  0  0  0  0
    1.1665   -0.4533    2.0624 H   0  0  0  0  0  0  0  0  0  0  0  0
    1.2562    1.7949    0.7232 H   0  0  0  0  0  0  0  0  0  0  0  0
    2.3169    0.5163   -0.0939 H   0  0  0  0  0  0  0  0  0  0  0  0
    0.8316    1.0153   -1.8652 H   0  0  0  0  0  0  0  0  0  0  0  0
  1  2  1  0
  2  3  1  0
  3  4  1  0
  4  5  1  0
  5  6  1  0
  6  7  1  0
  7  8  1  0
  8  9  1  0
  9  1  1  0
  7  3  1  0
  9  5  1  0
  1 10  1  0
  1 11  1  0
  3 12  1  0
  4 13  1  0
  4 14  1  0
  5 15  1  0
  6 16  1  0
  6 17  1  0
  7 18  1  0
  8 19  1  0
  8 20  1  0
  9 21  1  0
M  END
