
     RDKit          3D

 17 20  0  0  0  0  0  0  0  0999 V2000
    1.5510   -0.6105   -0.1558 C   0  0  0  0  0  0  0  0  0  0  0  0
    0.6989   -1.6719   -0.2122 O   0  0  0  0  0  0  0  0  0  0  0  0
   -0.6297   -1.3730   -0.1568 C   0  0  0  0  0  0  0  0  0  0  0  0
   -1.0922   -0.3869    0.7864 C   0  0  0  0  0  0  0  0  0  0  0  0
   -0.1613    0.7615    1.0841 C   0  0  0  0  0  0  0  0  0  0  0  0
   -0.6222    1.8583    0.3018 O   0  0  0  0  0  0  0  0  0  0  0  0
   -0.2305    1.0327   -0.7888 C   0  0  0  0  0  0  0  0  0  0  0  0
    0.9449    0.6967    0.0897 C   0  0  0  0  0  0  0  0  0  0  0  0
   -1.1164   -0.1714   -0.7762 C   0  0  0  0  0  0  0  0  0  0  0  0
    2.0917   -0.5713   -1.1491 H   0  0  0  0  0  0  0  0  0  0  0  0
    2.3527   -0.7894    0.5883 H   0  0  0  0  0  0  0  0  0  0  0  0
   -1.2859   -2.2763   -0.2692 H   0  0  0  0  0  0  0  0  0  0  0  0
   -2.0599   -0.4479    1.2707 H   0  0  0  0  0  0  0  0  0  0  0  0
    0.0583    0.9859    2.1147 H   0  0  0  0  0  0  0  0  0  0  0  0
   -0.0463    1.5445   -1.7191 H   0  0  0  0  0  0  0  0  0  0  0  0
    1.6626    1.5057    0.1796 H   0  0  0  0  0  0  0  0  0  0  0  0
   -2.1160   -0.0868   -1.1881 H   0  0  0  0  0  0  0  0  0  0  0  0
  1  2  1  0
  2  3  1  0
  3  4  1  0
  4  5  1  0
  5  6  1  0
  6  7  1  0
  7  8  1  0
  7  9  1  0
  8  1  1  0
  9  3  1  0
  9  4  1  0
  8  5  1  0
  1 10  1  0
  1 11  1  0
  3 12  1  0
  4 13  1  0
  5 14  1  0
  7 15  1  0
  8 16  1  0
  9 17  1  0
M  END
