
     RDKit          3D

 17 20  0  0  0  0  0  0  0  0999 V2000
    1.7593   -0.7909   -0.3857 C   0  0  0  0  0  0  0  0  0  0  0  0
    1.6408    0.1784    0.5745 O   0  0  0  0  0  0  0  0  0  0  0  0
    0.4017    0.7742    0.3992 C   0  0  0  0  0  0  0  0  0  0  0  0
    0.2537    1.7001   -0.7291 C   0  0  0  0  0  0  0  0  0  0  0  0
   -0.1302    0.2908   -0.8951 C   0  0  0  0  0  0  0  0  0  0  0  0
    0.7328   -0.6998   -1.2716 O   0  0  0  0  0  0  0  0  0  0  0  0
   -1.4286   -0.0837   -0.1879 C   0  0  0  0  0  0  0  0  0  0  0  0
   -1.2842   -1.1794    0.7776 C   0  0  0  0  0  0  0  0  0  0  0  0
   -0.7227    0.1478    1.1245 C   0  0  0  0  0  0  0  0  0  0  0  0
    2.7606   -0.7197   -0.8912 H   0  0  0  0  0  0  0  0  0  0  0  0
    1.7529   -1.7802    0.1329 H   0  0  0  0  0  0  0  0  0  0  0  0
    1.1682    2.0284   -1.2308 H   0  0  0  0  0  0  0  0  0  0  0  0
   -0.5755    2.4395   -0.7858 H   0  0  0  0  0  0  0  0  0  0  0  0
   -2.3234    0.5125   -0.3325 H   0  0  0  0  0  0  0  0  0  0  0  0
   -2.1641   -1.5091    1.3224 H   0  0  0  0  0  0  0  0  0  0  0  0
   -0.6180   -2.0210    0.4452 H   0  0  0  0  0  0  0  0  0  0  0  0
   -1.2234    0.7121    1.9333 H   0  0  0  0  0  0  0  0  0  0  0  0
  1  2  1  0
  2  3  1  0
  3  4  1  0
  4  5  1  0
  5  6  1  0
  5  7  1  0
  7  8  1  0
  8  9  1  0
  6  1  1  0
  9  7  1  0
  5  3  1  0
  9  3  1  0
  1 10  1  0
  1 11  1  0
  4 12  1  0
  4 13  1  0
  7 14  1  0
  8 15  1  0
  8 16  1  0
  9 17  1  0
M  END
