
     RDKit          3D

 18 20  0  0  0  0  0  0  0  0999 V2000
   -1.2865    0.9863    0.8344 C   0  0  0  0  0  0  0  0  0  0  0  0
   -2.2374   -0.0198    0.6207 O   0  0  0  0  0  0  0  0  0  0  0  0
   -1.6012   -0.7881   -0.3688 C   0  0  0  0  0  0  0  0  0  0  0  0
   -0.1686   -0.9432    0.0671 C   0  0  0  0  0  0  0  0  0  0  0  0
    0.0506    0.3128    0.8862 C   0  0  0  0  0  0  0  0  0  0  0  0
    1.0605    0.7501   -0.1241 C   0  0  0  0  0  0  0  0  0  0  0  0
    2.2071   -0.2087   -0.3960 C   0  0  0  0  0  0  0  0  0  0  0  0
    0.8719   -0.5020   -0.9078 C   0  0  0  0  0  0  0  0  0  0  0  0
   -1.2680    1.7076   -0.0190 H   0  0  0  0  0  0  0  0  0  0  0  0
   -1.5157    1.5863    1.7350 H   0  0  0  0  0  0  0  0  0  0  0  0
   -1.7229   -0.2362   -1.3113 H   0  0  0  0  0  0  0  0  0  0  0  0
   -2.1247   -1.7582   -0.4672 H   0  0  0  0  0  0  0  0  0  0  0  0
    0.0963   -1.8726    0.5718 H   0  0  0  0  0  0  0  0  0  0  0  0
    0.5044    0.1762    1.8700 H   0  0  0  0  0  0  0  0  0  0  0  0
    1.0407    1.7336   -0.5862 H   0  0  0  0  0  0  0  0  0  0  0  0
    3.0166    0.2432   -0.9839 H   0  0  0  0  0  0  0  0  0  0  0  0
    2.5101   -0.7607    0.5332 H   0  0  0  0  0  0  0  0  0  0  0  0
    0.5668   -0.4068   -1.9542 H   0  0  0  0  0  0  0  0  0  0  0  0
  1  2  1  0
  2  3  1  0
  3  4  1  0
  4  5  1  0
  5  6  1  0
  6  7  1  0
  7  8  1  0
  5  1  1  0
  8  6  1  0
  8  4  1  0
  1  9  1  0
  1 10  1  0
  3 11  1  0
  3 12  1  0
  4 13  1  0
  5 14  1  0
  6 15  1  0
  7 16  1  0
  7 17  1  0
  8 18  1  0
M  END
