
     RDKit          3D

 17 20  0  0  0  0  0  0  0  0999 V2000
   -1.2260    0.9034   -0.7184 C   0  0  0  0  0  0  0  0  0  0  0  0
   -0.0260    0.7572   -1.4353 O   0  0  0  0  0  0  0  0  0  0  0  0
    0.7278   -0.0248   -0.6281 C   0  0  0  0  0  0  0  0  0  0  0  0
    2.0617    0.1820   -0.1546 C   0  0  0  0  0  0  0  0  0  0  0  0
    1.0033    0.6332    0.7503 C   0  0  0  0  0  0  0  0  0  0  0  0
    0.3767   -0.1435    1.6766 O   0  0  0  0  0  0  0  0  0  0  0  0
   -0.6251   -0.8637    1.0932 C   0  0  0  0  0  0  0  0  0  0  0  0
   -1.4809   -0.3798    0.0045 C   0  0  0  0  0  0  0  0  0  0  0  0
   -0.1747   -1.1485   -0.2568 C   0  0  0  0  0  0  0  0  0  0  0  0
   -2.0567    1.0803   -1.4475 H   0  0  0  0  0  0  0  0  0  0  0  0
   -1.0991    1.7607   -0.0296 H   0  0  0  0  0  0  0  0  0  0  0  0
    2.6903    0.9419   -0.6306 H   0  0  0  0  0  0  0  0  0  0  0  0
    2.6337   -0.7266    0.1904 H   0  0  0  0  0  0  0  0  0  0  0  0
    0.8429    1.7135    0.8439 H   0  0  0  0  0  0  0  0  0  0  0  0
   -1.0130   -1.7024    1.6949 H   0  0  0  0  0  0  0  0  0  0  0  0
   -2.4297   -0.8881   -0.1789 H   0  0  0  0  0  0  0  0  0  0  0  0
   -0.2054   -2.0949   -0.7739 H   0  0  0  0  0  0  0  0  0  0  0  0
  1  2  1  0
  2  3  1  0
  3  4  1  0
  4  5  1  0
  5  6  1  0
  6  7  1  0
  7  8  1  0
  8  9  1  0
  8  1  1  0
  5  3  1  0
  9  7  1  0
  9  3  1  0
  1 10  1  0
  1 11  1  0
  4 12  1  0
  4 13  1  0
  5 14  1  0
  7 15  1  0
  8 16  1  0
  9 17  1  0
M  END
