
     RDKit          3D

 19 21  0  0  0  0  0  0  0  0999 V2000
    2.3837   -0.2468    0.0918 C   0  0  0  0  0  0  0  0  0  0  0  0
    2.0046    0.2776    1.3895 O   0  0  0  0  0  0  0  0  0  0  0  0
    1.2992    0.7101    0.1585 C   0  0  0  0  0  0  0  0  0  0  0  0
   -0.0672    0.3413   -0.0054 C   0  0  0  0  0  0  0  0  0  0  0  0
   -1.1832    1.3354    0.0645 C   0  0  0  0  0  0  0  0  0  0  0  0
   -2.2952    0.4874   -0.1813 O   0  0  0  0  0  0  0  0  0  0  0  0
   -1.7166   -0.7506   -0.2569 C   0  0  0  0  0  0  0  0  0  0  0  0
   -0.6577   -0.7869    0.8555 C   0  0  0  0  0  0  0  0  0  0  0  0
   -0.5050   -0.5233   -1.1791 C   0  0  0  0  0  0  0  0  0  0  0  0
    2.2521   -1.3249    0.0635 H   0  0  0  0  0  0  0  0  0  0  0  0
    3.3885    0.1070   -0.2503 H   0  0  0  0  0  0  0  0  0  0  0  0
    1.5778    1.7918    0.0061 H   0  0  0  0  0  0  0  0  0  0  0  0
   -1.1297    2.1462   -0.6611 H   0  0  0  0  0  0  0  0  0  0  0  0
   -1.2721    1.6760    1.1176 H   0  0  0  0  0  0  0  0  0  0  0  0
   -2.2878   -1.6303   -0.4166 H   0  0  0  0  0  0  0  0  0  0  0  0
   -1.0579   -0.4502    1.8118 H   0  0  0  0  0  0  0  0  0  0  0  0
   -0.1114   -1.7260    0.8075 H   0  0  0  0  0  0  0  0  0  0  0  0
   -0.7318    0.0105   -2.1017 H   0  0  0  0  0  0  0  0  0  0  0  0
    0.1096   -1.4446   -1.3138 H   0  0  0  0  0  0  0  0  0  0  0  0
  1  2  1  0
  2  3  1  0
  3  4  1  0
  4  5  1  0
  5  6  1  0
  6  7  1  0
  7  8  1  0
  7  9  1  0
  3  1  1  0
  8  4  1  0
  9  4  1  0
  1 10  1  0
  1 11  1  0
  3 12  1  0
  5 13  1  0
  5 14  1  0
  7 15  1  0
  8 16  1  0
  8 17  1  0
  9 18  1  0
  9 19  1  0
M  END
