
     RDKit          3D

 21 22  0  0  0  0  0  0  0  0999 V2000
   -2.9337   -0.3781    0.1418 C   0  0  0  0  0  0  0  0  0  0  0  0
   -2.7393    0.7233    1.0081 O   0  0  0  0  0  0  0  0  0  0  0  0
   -2.1910    1.3885   -0.1040 C   0  0  0  0  0  0  0  0  0  0  0  0
   -1.6422    0.0663   -0.5554 C   0  0  0  0  0  0  0  0  0  0  0  0
   -0.4432   -0.4350    0.1771 C   0  0  0  0  0  0  0  0  0  0  0  0
    0.7035   -0.0062   -0.4935 O   0  0  0  0  0  0  0  0  0  0  0  0
    1.8642   -0.4311    0.1243 C   0  0  0  0  0  0  0  0  0  0  0  0
    3.0864    0.5131    0.0471 C   0  0  0  0  0  0  0  0  0  0  0  0
    3.0075   -0.7189   -0.8189 C   0  0  0  0  0  0  0  0  0  0  0  0
   -3.8365   -0.2256   -0.4570 H   0  0  0  0  0  0  0  0  0  0  0  0
   -2.7888   -1.3590    0.6149 H   0  0  0  0  0  0  0  0  0  0  0  0
   -3.0220    1.7180   -0.7548 H   0  0  0  0  0  0  0  0  0  0  0  0
   -1.4436    2.1675    0.1519 H   0  0  0  0  0  0  0  0  0  0  0  0
   -1.7167   -0.1689   -1.6204 H   0  0  0  0  0  0  0  0  0  0  0  0
   -0.4645   -0.0277    1.2094 H   0  0  0  0  0  0  0  0  0  0  0  0
   -0.4696   -1.5539    0.2555 H   0  0  0  0  0  0  0  0  0  0  0  0
    1.7988   -1.0494    1.0591 H   0  0  0  0  0  0  0  0  0  0  0  0
    2.8938    1.4959   -0.4037 H   0  0  0  0  0  0  0  0  0  0  0  0
    3.8242    0.4572    0.8592 H   0  0  0  0  0  0  0  0  0  0  0  0
    3.6620   -1.5888   -0.5683 H   0  0  0  0  0  0  0  0  0  0  0  0
    2.8507   -0.5872   -1.9062 H   0  0  0  0  0  0  0  0  0  0  0  0
  1  2  1  0
  2  3  1  0
  3  4  1  0
  4  5  1  0
  5  6  1  0
  6  7  1  0
  7  8  1  0
  8  9  1  0
  4  1  1  0
  9  7  1  0
  1 10  1  0
  1 11  1  0
  3 12  1  0
  3 13  1  0
  4 14  1  0
  5 15  1  0
  5 16  1  0
  7 17  1  0
  8 18  1  0
  8 19  1  0
  9 20  1  0
  9 21  1  0
M  END
