
     RDKit          3D

 18 19  0  0  0  0  0  0  0  0999 V2000
   -1.7332   -0.1622   -0.6367 C   0  0  0  0  0  0  0  0  0  0  0  0
   -0.8389    0.5634   -1.3336 O   0  0  0  0  0  0  0  0  0  0  0  0
    0.3705    0.8105   -0.7860 C   0  0  0  0  0  0  0  0  0  0  0  0
    1.2750   -0.3894   -0.6549 C   0  0  0  0  0  0  0  0  0  0  0  0
    0.7255   -1.1087    0.5543 C   0  0  0  0  0  0  0  0  0  0  0  0
   -0.2933   -0.1707    1.1815 C   0  0  0  0  0  0  0  0  0  0  0  0
    0.1743    1.1956    0.6792 C   0  0  0  0  0  0  0  0  0  0  0  0
   -1.5093   -0.4448    0.6538 O   0  0  0  0  0  0  0  0  0  0  0  0
   -2.7382    0.3528   -0.7185 H   0  0  0  0  0  0  0  0  0  0  0  0
   -1.9029   -1.1337   -1.1906 H   0  0  0  0  0  0  0  0  0  0  0  0
    0.9088    1.5944   -1.3244 H   0  0  0  0  0  0  0  0  0  0  0  0
    1.2591   -0.9898   -1.5716 H   0  0  0  0  0  0  0  0  0  0  0  0
    2.3063   -0.0223   -0.5027 H   0  0  0  0  0  0  0  0  0  0  0  0
    1.4720   -1.3278    1.3198 H   0  0  0  0  0  0  0  0  0  0  0  0
    0.2254   -2.0353    0.1592 H   0  0  0  0  0  0  0  0  0  0  0  0
   -0.2612   -0.1413    2.2605 H   0  0  0  0  0  0  0  0  0  0  0  0
   -0.5915    1.9694    0.7944 H   0  0  0  0  0  0  0  0  0  0  0  0
    1.1516    1.4399    1.1165 H   0  0  0  0  0  0  0  0  0  0  0  0
  1  2  1  0
  2  3  1  0
  3  4  1  0
  4  5  1  0
  5  6  1  0
  6  7  1  0
  6  8  1  0
  8  1  1  0
  7  3  1  0
  1  9  1  0
  1 10  1  0
  3 11  1  0
  4 12  1  0
  4 13  1  0
  5 14  1  0
  5 15  1  0
  6 16  1  0
  7 17  1  0
  7 18  1  0
M  END
