
     RDKit          3D

 19 21  0  0  0  0  0  0  0  0999 V2000
   -1.7106   -0.8604    0.2102 C   0  0  0  0  0  0  0  0  0  0  0  0
   -0.5992   -1.5010    0.6585 O   0  0  0  0  0  0  0  0  0  0  0  0
    0.5255   -1.3817   -0.1035 C   0  0  0  0  0  0  0  0  0  0  0  0
    1.4072   -0.3195    0.5813 C   0  0  0  0  0  0  0  0  0  0  0  0
    0.7192    0.6576   -0.2337 C   0  0  0  0  0  0  0  0  0  0  0  0
    0.3650   -0.3539   -1.2345 C   0  0  0  0  0  0  0  0  0  0  0  0
    0.3879    2.0092   -0.0982 C   0  0  0  0  0  0  0  0  0  0  0  0
   -0.5329    1.0997    0.5941 C   0  0  0  0  0  0  0  0  0  0  0  0
   -1.6042    0.4907    0.0208 O   0  0  0  0  0  0  0  0  0  0  0  0
   -2.5158   -1.0150    0.9893 H   0  0  0  0  0  0  0  0  0  0  0  0
   -2.1394   -1.3582   -0.7061 H   0  0  0  0  0  0  0  0  0  0  0  0
    1.0535   -2.2721   -0.4250 H   0  0  0  0  0  0  0  0  0  0  0  0
    2.4851   -0.4913    0.4412 H   0  0  0  0  0  0  0  0  0  0  0  0
    1.2057   -0.2743    1.6902 H   0  0  0  0  0  0  0  0  0  0  0  0
    1.1174   -0.4655   -2.0158 H   0  0  0  0  0  0  0  0  0  0  0  0
   -0.6793   -0.2449   -1.5926 H   0  0  0  0  0  0  0  0  0  0  0  0
    1.0048    2.6932    0.5075 H   0  0  0  0  0  0  0  0  0  0  0  0
   -0.0651    2.5442   -0.9806 H   0  0  0  0  0  0  0  0  0  0  0  0
   -0.4249    1.0433    1.6968 H   0  0  0  0  0  0  0  0  0  0  0  0
  1  2  1  0
  2  3  1  0
  3  4  1  0
  4  5  1  0
  5  6  1  0
  5  7  1  0
  7  8  1  0
  8  9  1  0
  9  1  1  0
  6  3  1  0
  8  5  1  0
  1 10  1  0
  1 11  1  0
  3 12  1  0
  4 13  1  0
  4 14  1  0
  6 15  1  0
  6 16  1  0
  7 17  1  0
  7 18  1  0
  8 19  1  0
M  END
