
     RDKit          3D

 19 21  0  0  0  0  0  0  0  0999 V2000
   -1.1246    1.3166    0.0101 C   0  0  0  0  0  0  0  0  0  0  0  0
    0.0917    1.8910    0.1459 O   0  0  0  0  0  0  0  0  0  0  0  0
    1.1486    1.0843    0.4183 C   0  0  0  0  0  0  0  0  0  0  0  0
    1.2258   -0.1798   -0.3668 C   0  0  0  0  0  0  0  0  0  0  0  0
    0.6721   -1.4155    0.2461 C   0  0  0  0  0  0  0  0  0  0  0  0
   -0.6640   -0.9997    0.8333 C   0  0  0  0  0  0  0  0  0  0  0  0
   -1.1202   -0.1353   -0.3588 C   0  0  0  0  0  0  0  0  0  0  0  0
    0.0557   -0.4196   -1.2633 C   0  0  0  0  0  0  0  0  0  0  0  0
    0.2661   -1.7985   -1.0550 O   0  0  0  0  0  0  0  0  0  0  0  0
   -1.7265    1.4923    0.9487 H   0  0  0  0  0  0  0  0  0  0  0  0
   -1.6897    1.8563   -0.7851 H   0  0  0  0  0  0  0  0  0  0  0  0
    2.0828    1.6813    0.1942 H   0  0  0  0  0  0  0  0  0  0  0  0
    1.2212    0.8835    1.5223 H   0  0  0  0  0  0  0  0  0  0  0  0
    2.1873   -0.3515   -0.8780 H   0  0  0  0  0  0  0  0  0  0  0  0
    1.2861   -2.0907    0.7894 H   0  0  0  0  0  0  0  0  0  0  0  0
   -1.3077   -1.8749    0.8739 H   0  0  0  0  0  0  0  0  0  0  0  0
   -0.5765   -0.4153    1.7466 H   0  0  0  0  0  0  0  0  0  0  0  0
   -2.0772   -0.4649   -0.7600 H   0  0  0  0  0  0  0  0  0  0  0  0
    0.0490   -0.0595   -2.2618 H   0  0  0  0  0  0  0  0  0  0  0  0
  1  2  1  0
  2  3  1  0
  3  4  1  0
  4  5  1  0
  5  6  1  0
  6  7  1  0
  7  8  1  0
  8  9  1  0
  7  1  1  0
  8  4  1  0
  9  5  1  0
  1 10  1  0
  1 11  1  0
  3 12  1  0
  3 13  1  0
  4 14  1  0
  5 15  1  0
  6 16  1  0
  6 17  1  0
  7 18  1  0
  8 19  1  0
M  END
