
     RDKit          3D

 21 23  0  0  0  0  0  0  0  0999 V2000
    1.7268   -0.4137    0.0091 C   0  0  0  0  0  0  0  0  0  0  0  0
    1.1010   -1.1359    0.9656 O   0  0  0  0  0  0  0  0  0  0  0  0
   -0.2574   -1.1558    0.9507 C   0  0  0  0  0  0  0  0  0  0  0  0
   -0.8770    0.1993    1.2893 C   0  0  0  0  0  0  0  0  0  0  0  0
   -0.9522    0.9209   -0.0113 C   0  0  0  0  0  0  0  0  0  0  0  0
    0.3217    1.6880   -0.2749 C   0  0  0  0  0  0  0  0  0  0  0  0
    0.8928    0.4144   -0.8776 C   0  0  0  0  0  0  0  0  0  0  0  0
   -0.5043   -0.0603   -1.0950 C   0  0  0  0  0  0  0  0  0  0  0  0
   -0.8073   -1.3830   -0.4397 C   0  0  0  0  0  0  0  0  0  0  0  0
    2.3493   -1.0996   -0.6382 H   0  0  0  0  0  0  0  0  0  0  0  0
    2.5016    0.2361    0.5151 H   0  0  0  0  0  0  0  0  0  0  0  0
   -0.6116   -1.9087    1.6825 H   0  0  0  0  0  0  0  0  0  0  0  0
   -1.9220    0.0134    1.6615 H   0  0  0  0  0  0  0  0  0  0  0  0
   -0.2374    0.6828    2.0382 H   0  0  0  0  0  0  0  0  0  0  0  0
   -1.8882    1.4285   -0.2483 H   0  0  0  0  0  0  0  0  0  0  0  0
    0.2068    2.5289   -0.9634 H   0  0  0  0  0  0  0  0  0  0  0  0
    0.8071    2.0039    0.6716 H   0  0  0  0  0  0  0  0  0  0  0  0
    1.4146    0.6712   -1.8203 H   0  0  0  0  0  0  0  0  0  0  0  0
   -0.9479    0.1074   -2.0831 H   0  0  0  0  0  0  0  0  0  0  0  0
   -0.3984   -2.2481   -0.9477 H   0  0  0  0  0  0  0  0  0  0  0  0
   -1.9180   -1.4896   -0.3841 H   0  0  0  0  0  0  0  0  0  0  0  0
  1  2  1  0
  2  3  1  0
  3  4  1  0
  4  5  1  0
  5  6  1  0
  6  7  1  0
  7  8  1  0
  8  9  1  0
  7  1  1  0
  9  3  1  0
  8  5  1  0
  1 10  1  0
  1 11  1  0
  3 12  1  0
  4 13  1  0
  4 14  1  0
  5 15  1  0
  6 16  1  0
  6 17  1  0
  7 18  1  0
  8 19  1  0
  9 20  1  0
  9 21  1  0
M  END
