
     RDKit          3D

 18 19  0  0  0  0  0  0  0  0999 V2000
   -1.8550    0.9603    0.5742 C   0  0  0  0  0  0  0  0  0  0  0  0
   -2.5345   -0.2431    0.2949 O   0  0  0  0  0  0  0  0  0  0  0  0
   -1.4930   -0.9972   -0.2376 C   0  0  0  0  0  0  0  0  0  0  0  0
   -0.2973   -0.6444    0.6128 C   0  0  0  0  0  0  0  0  0  0  0  0
    0.9164   -0.4574   -0.2547 C   0  0  0  0  0  0  0  0  0  0  0  0
    2.2287   -0.1011    0.3668 C   0  0  0  0  0  0  0  0  0  0  0  0
    1.4932    0.8760   -0.5104 C   0  0  0  0  0  0  0  0  0  0  0  0
   -0.7047    0.5379    1.2280 O   0  0  0  0  0  0  0  0  0  0  0  0
   -1.6329    1.4116   -0.4262 H   0  0  0  0  0  0  0  0  0  0  0  0
   -2.4788    1.5888    1.2081 H   0  0  0  0  0  0  0  0  0  0  0  0
   -1.2665   -0.6955   -1.2736 H   0  0  0  0  0  0  0  0  0  0  0  0
   -1.7538   -2.0623   -0.1909 H   0  0  0  0  0  0  0  0  0  0  0  0
   -0.0895   -1.3947    1.3890 H   0  0  0  0  0  0  0  0  0  0  0  0
    0.9843   -1.1863   -1.0882 H   0  0  0  0  0  0  0  0  0  0  0  0
    3.1763   -0.5013   -0.0717 H   0  0  0  0  0  0  0  0  0  0  0  0
    2.2318    0.0358    1.4647 H   0  0  0  0  0  0  0  0  0  0  0  0
    1.1593    1.7877    0.0158 H   0  0  0  0  0  0  0  0  0  0  0  0
    1.9161    1.0850   -1.5186 H   0  0  0  0  0  0  0  0  0  0  0  0
  1  2  1  0
  2  3  1  0
  3  4  1  0
  4  5  1  0
  5  6  1  0
  6  7  1  0
  4  8  1  0
  8  1  1  0
  7  5  1  0
  1  9  1  0
  1 10  1  0
  3 11  1  0
  3 12  1  0
  4 13  1  0
  5 14  1  0
  6 15  1  0
  6 16  1  0
  7 17  1  0
  7 18  1  0
M  END
