
     RDKit          3D

 19 21  0  0  0  0  0  0  0  0999 V2000
   -1.8129    0.2335   -0.5940 C   0  0  0  0  0  0  0  0  0  0  0  0
   -1.5777    0.8959    0.6009 O   0  0  0  0  0  0  0  0  0  0  0  0
   -0.3704    0.4379    1.1139 C   0  0  0  0  0  0  0  0  0  0  0  0
   -0.4325   -1.0406    0.6984 C   0  0  0  0  0  0  0  0  0  0  0  0
   -0.6554   -0.7089   -0.7914 C   0  0  0  0  0  0  0  0  0  0  0  0
    0.5687    0.1114   -1.0689 C   0  0  0  0  0  0  0  0  0  0  0  0
    1.7495   -0.5756   -0.8414 O   0  0  0  0  0  0  0  0  0  0  0  0
    2.0244    0.1614    0.3110 C   0  0  0  0  0  0  0  0  0  0  0  0
    0.7225    0.9192    0.2116 C   0  0  0  0  0  0  0  0  0  0  0  0
   -2.0009    0.9021   -1.4294 H   0  0  0  0  0  0  0  0  0  0  0  0
   -2.7301   -0.3999   -0.4155 H   0  0  0  0  0  0  0  0  0  0  0  0
   -0.2357    0.5849    2.1631 H   0  0  0  0  0  0  0  0  0  0  0  0
    0.4992   -1.5590    0.8621 H   0  0  0  0  0  0  0  0  0  0  0  0
   -1.3372   -1.4999    1.0890 H   0  0  0  0  0  0  0  0  0  0  0  0
   -0.8260   -1.5639   -1.4051 H   0  0  0  0  0  0  0  0  0  0  0  0
    0.5426    0.7557   -1.9623 H   0  0  0  0  0  0  0  0  0  0  0  0
    2.9247    0.7856    0.1355 H   0  0  0  0  0  0  0  0  0  0  0  0
    2.1668   -0.4343    1.2267 H   0  0  0  0  0  0  0  0  0  0  0  0
    0.7804    1.9946    0.0957 H   0  0  0  0  0  0  0  0  0  0  0  0
  1  2  1  0
  2  3  1  0
  3  4  1  0
  4  5  1  0
  5  6  1  0
  6  7  1  0
  7  8  1  0
  8  9  1  0
  5  1  1  0
  9  6  1  0
  9  3  1  0
  1 10  1  0
  1 11  1  0
  3 12  1  0
  4 13  1  0
  4 14  1  0
  5 15  1  0
  6 16  1  0
  8 17  1  0
  8 18  1  0
  9 19  1  0
M  END
