
     RDKit          3D

 17 19  0  0  0  0  0  0  0  0999 V2000
    1.8762   -0.1765   -0.0501 C   0  0  0  0  0  0  0  0  0  0  0  0
    1.3787    0.9261   -0.7637 O   0  0  0  0  0  0  0  0  0  0  0  0
    0.0224    0.8823   -0.7291 C   0  0  0  0  0  0  0  0  0  0  0  0
   -0.4616    1.2034    0.6949 C   0  0  0  0  0  0  0  0  0  0  0  0
   -1.8030    0.7880    0.5738 O   0  0  0  0  0  0  0  0  0  0  0  0
   -1.7098   -0.4863   -0.0380 C   0  0  0  0  0  0  0  0  0  0  0  0
   -0.3264   -0.6115   -0.5488 C   0  0  0  0  0  0  0  0  0  0  0  0
    0.6428   -0.7543    0.6343 C   0  0  0  0  0  0  0  0  0  0  0  0
    0.1588    0.2263    1.4795 O   0  0  0  0  0  0  0  0  0  0  0  0
    2.6649    0.1001    0.6471 H   0  0  0  0  0  0  0  0  0  0  0  0
    2.2169   -0.9815   -0.7596 H   0  0  0  0  0  0  0  0  0  0  0  0
   -0.5295    1.3586   -1.5010 H   0  0  0  0  0  0  0  0  0  0  0  0
   -0.3269    2.2109    0.9914 H   0  0  0  0  0  0  0  0  0  0  0  0
   -2.4077   -0.4384   -0.9150 H   0  0  0  0  0  0  0  0  0  0  0  0
   -2.0157   -1.2905    0.6526 H   0  0  0  0  0  0  0  0  0  0  0  0
   -0.1189   -1.2174   -1.3854 H   0  0  0  0  0  0  0  0  0  0  0  0
    0.7386   -1.7392    1.0171 H   0  0  0  0  0  0  0  0  0  0  0  0
  1  2  1  0
  2  3  1  0
  3  4  1  0
  4  5  1  0
  5  6  1  0
  6  7  1  0
  7  8  1  0
  8  9  1  0
  8  1  1  0
  7  3  1  0
  9  4  1  0
  1 10  1  0
  1 11  1  0
  3 12  1  0
  4 13  1  0
  6 14  1  0
  6 15  1  0
  7 16  1  0
  8 17  1  0
M  END
