
     RDKit          3D

 17 19  0  0  0  0  0  0  0  0999 V2000
   -1.3363   -0.4886   -0.7128 C   0  0  0  0  0  0  0  0  0  0  0  0
   -0.4181   -1.5102   -0.9546 O   0  0  0  0  0  0  0  0  0  0  0  0
    0.5812   -1.3555    0.0267 C   0  0  0  0  0  0  0  0  0  0  0  0
   -0.1440   -1.0655    1.1536 O   0  0  0  0  0  0  0  0  0  0  0  0
   -1.0180   -0.0692    0.6889 C   0  0  0  0  0  0  0  0  0  0  0  0
   -0.1927    1.2238    0.7217 C   0  0  0  0  0  0  0  0  0  0  0  0
    0.9628    1.0773   -0.2050 C   0  0  0  0  0  0  0  0  0  0  0  0
    2.1383    0.5618    0.4545 O   0  0  0  0  0  0  0  0  0  0  0  0
    1.4809   -0.2567   -0.4276 C   0  0  0  0  0  0  0  0  0  0  0  0
   -1.2570    0.3453   -1.4284 H   0  0  0  0  0  0  0  0  0  0  0  0
   -2.3402   -0.9600   -0.7095 H   0  0  0  0  0  0  0  0  0  0  0  0
    1.0580   -2.3304    0.1544 H   0  0  0  0  0  0  0  0  0  0  0  0
   -1.8818    0.0830    1.3350 H   0  0  0  0  0  0  0  0  0  0  0  0
   -0.9010    2.0301    0.4565 H   0  0  0  0  0  0  0  0  0  0  0  0
    0.1398    1.3150    1.7928 H   0  0  0  0  0  0  0  0  0  0  0  0
    1.1270    1.8559   -0.9609 H   0  0  0  0  0  0  0  0  0  0  0  0
    2.0011   -0.4560   -1.3853 H   0  0  0  0  0  0  0  0  0  0  0  0
  1  2  1  0
  2  3  1  0
  3  4  1  0
  4  5  1  0
  5  6  1  0
  6  7  1  0
  7  8  1  0
  8  9  1  0
  5  1  1  0
  9  7  1  0
  9  3  1  0
  1 10  1  0
  1 11  1  0
  3 12  1  0
  5 13  1  0
  6 14  1  0
  6 15  1  0
  7 16  1  0
  9 17  1  0
M  END
