
     RDKit          3D

 21 23  0  0  0  0  0  0  0  0999 V2000
    2.7655   -0.6084   -0.0161 C   0  0  0  0  0  0  0  0  0  0  0  0
    2.1238   -1.7119    0.5440 O   0  0  0  0  0  0  0  0  0  0  0  0
    1.3086   -0.9819   -0.2788 C   0  0  0  0  0  0  0  0  0  0  0  0
    0.3382    0.0257    0.3078 C   0  0  0  0  0  0  0  0  0  0  0  0
    0.6084    1.3804   -0.3222 C   0  0  0  0  0  0  0  0  0  0  0  0
   -0.8986    1.4327   -0.1931 C   0  0  0  0  0  0  0  0  0  0  0  0
   -1.0264    0.0050   -0.1374 C   0  0  0  0  0  0  0  0  0  0  0  0
   -2.4122   -0.2264    0.0341 C   0  0  0  0  0  0  0  0  0  0  0  0
   -1.5217   -1.2044    0.4153 C   0  0  0  0  0  0  0  0  0  0  0  0
    2.9963    0.1881    0.7005 H   0  0  0  0  0  0  0  0  0  0  0  0
    3.4041   -0.7242   -0.8934 H   0  0  0  0  0  0  0  0  0  0  0  0
    1.0192   -1.3320   -1.2821 H   0  0  0  0  0  0  0  0  0  0  0  0
    0.5311    0.1230    1.4160 H   0  0  0  0  0  0  0  0  0  0  0  0
    0.9920    1.3341   -1.3521 H   0  0  0  0  0  0  0  0  0  0  0  0
    1.1664    2.0858    0.2978 H   0  0  0  0  0  0  0  0  0  0  0  0
   -1.3051    1.9420   -1.1163 H   0  0  0  0  0  0  0  0  0  0  0  0
   -1.1501    2.0230    0.7273 H   0  0  0  0  0  0  0  0  0  0  0  0
   -3.0930    0.2580    0.7983 H   0  0  0  0  0  0  0  0  0  0  0  0
   -3.0064   -0.3636   -0.9212 H   0  0  0  0  0  0  0  0  0  0  0  0
   -1.3488   -2.1211   -0.2282 H   0  0  0  0  0  0  0  0  0  0  0  0
   -1.4913   -1.5240    1.4997 H   0  0  0  0  0  0  0  0  0  0  0  0
  1  2  1  0
  2  3  1  0
  3  4  1  0
  4  5  1  0
  5  6  1  0
  6  7  1  0
  7  8  1  0
  8  9  1  0
  3  1  1  0
  7  4  1  0
  9  7  1  0
  1 10  1  0
  1 11  1  0
  3 12  1  0
  4 13  1  0
  5 14  1  0
  5 15  1  0
  6 16  1  0
  6 17  1  0
  8 18  1  0
  8 19  1  0
  9 20  1  0
  9 21  1  0
M  END
