
     RDKit          3D

 19 22  0  0  0  0  0  0  0  0999 V2000
   -2.0324   -0.4750    0.4909 C   0  0  0  0  0  0  0  0  0  0  0  0
   -0.8476   -1.0309    1.0417 O   0  0  0  0  0  0  0  0  0  0  0  0
    0.1613   -0.8847    0.1757 C   0  0  0  0  0  0  0  0  0  0  0  0
    1.4598   -1.4304    0.0988 C   0  0  0  0  0  0  0  0  0  0  0  0
    1.4344   -0.0626    0.5818 C   0  0  0  0  0  0  0  0  0  0  0  0
    1.2309    1.1547   -0.3004 C   0  0  0  0  0  0  0  0  0  0  0  0
   -0.2577    1.3480   -0.1907 C   0  0  0  0  0  0  0  0  0  0  0  0
   -1.4770    0.6274   -0.4577 C   0  0  0  0  0  0  0  0  0  0  0  0
   -0.3725   -0.0250   -0.9065 C   0  0  0  0  0  0  0  0  0  0  0  0
   -2.6214   -1.2047   -0.0558 H   0  0  0  0  0  0  0  0  0  0  0  0
   -2.5310    0.0372    1.3190 H   0  0  0  0  0  0  0  0  0  0  0  0
    1.9267   -1.5822   -0.9207 H   0  0  0  0  0  0  0  0  0  0  0  0
    1.8082   -2.1971    0.8067 H   0  0  0  0  0  0  0  0  0  0  0  0
    1.4357    0.1390    1.6756 H   0  0  0  0  0  0  0  0  0  0  0  0
    1.6053    0.9994   -1.3315 H   0  0  0  0  0  0  0  0  0  0  0  0
    1.7229    2.0587    0.0566 H   0  0  0  0  0  0  0  0  0  0  0  0
   -0.3610    1.4791    0.9285 H   0  0  0  0  0  0  0  0  0  0  0  0
   -2.2522    1.0846   -1.0864 H   0  0  0  0  0  0  0  0  0  0  0  0
   -0.0326   -0.0356   -1.9258 H   0  0  0  0  0  0  0  0  0  0  0  0
  1  2  1  0
  2  3  1  0
  3  4  1  0
  4  5  1  0
  5  6  1  0
  6  7  1  0
  7  8  1  0
  8  9  1  0
  8  1  1  0
  5  3  1  0
  9  7  1  0
  9  3  1  0
  1 10  1  0
  1 11  1  0
  4 12  1  0
  4 13  1  0
  5 14  1  0
  6 15  1  0
  6 16  1  0
  7 17  1  0
  8 18  1  0
  9 19  1  0
M  END
