
     RDKit          3D

 16 18  0  0  0  0  0  0  0  0999 V2000
    1.8294   -0.0921    0.1088 C   0  0  0  0  0  0  0  0  0  0  0  0
    0.9961   -1.0308    0.6402 O   0  0  0  0  0  0  0  0  0  0  0  0
   -0.1575   -1.0970   -0.0900 C   0  0  0  0  0  0  0  0  0  0  0  0
   -1.3459   -0.5739    0.7319 C   0  0  0  0  0  0  0  0  0  0  0  0
   -1.2465    0.6715   -0.0976 C   0  0  0  0  0  0  0  0  0  0  0  0
    0.0304    1.3845   -0.1414 C   0  0  0  0  0  0  0  0  0  0  0  0
    1.3465    1.1532   -0.0632 O   0  0  0  0  0  0  0  0  0  0  0  0
   -0.2898    0.2075   -0.8871 C   0  0  0  0  0  0  0  0  0  0  0  0
    2.7571   -0.0521    0.7484 H   0  0  0  0  0  0  0  0  0  0  0  0
    2.1799   -0.4833   -0.8912 H   0  0  0  0  0  0  0  0  0  0  0  0
   -0.3592   -1.9966   -0.6679 H   0  0  0  0  0  0  0  0  0  0  0  0
   -1.0845   -0.3990    1.7963 H   0  0  0  0  0  0  0  0  0  0  0  0
   -2.2675   -1.1798    0.5870 H   0  0  0  0  0  0  0  0  0  0  0  0
   -2.1426    1.2097   -0.4434 H   0  0  0  0  0  0  0  0  0  0  0  0
   -0.1696    2.0810    0.6305 H   0  0  0  0  0  0  0  0  0  0  0  0
   -0.0764    0.1973   -1.9614 H   0  0  0  0  0  0  0  0  0  0  0  0
  1  2  1  0
  2  3  1  0
  3  4  1  0
  4  5  1  0
  5  6  1  0
  6  7  1  0
  6  8  1  0
  7  1  1  0
  8  3  1  0
  8  5  1  0
  1  9  1  0
  1 10  1  0
  3 11  1  0
  4 12  1  0
  4 13  1  0
  5 14  1  0
  6 15  1  0
  8 16  1  0
M  END
