
     RDKit          3D

 17 20  0  0  0  0  0  0  0  0999 V2000
    2.2047    0.1570    0.4705 C   0  0  0  0  0  0  0  0  0  0  0  0
    2.2568   -0.6648   -0.6439 O   0  0  0  0  0  0  0  0  0  0  0  0
    1.2498    0.2939   -0.6433 C   0  0  0  0  0  0  0  0  0  0  0  0
   -0.1843   -0.1355   -0.5234 C   0  0  0  0  0  0  0  0  0  0  0  0
   -0.5909   -1.5059   -0.2262 C   0  0  0  0  0  0  0  0  0  0  0  0
   -0.7910   -0.4541    0.7875 C   0  0  0  0  0  0  0  0  0  0  0  0
   -1.7554    0.6659    0.6179 C   0  0  0  0  0  0  0  0  0  0  0  0
   -1.2711    1.9327    0.2658 O   0  0  0  0  0  0  0  0  0  0  0  0
   -1.1911    0.9448   -0.7274 C   0  0  0  0  0  0  0  0  0  0  0  0
    2.9648    0.9883    0.5395 H   0  0  0  0  0  0  0  0  0  0  0  0
    1.8347   -0.2357    1.4322 H   0  0  0  0  0  0  0  0  0  0  0  0
    1.4040    1.0877   -1.4164 H   0  0  0  0  0  0  0  0  0  0  0  0
   -1.4588   -1.9082   -0.8119 H   0  0  0  0  0  0  0  0  0  0  0  0
    0.1575   -2.2671   -0.0013 H   0  0  0  0  0  0  0  0  0  0  0  0
   -0.2105   -0.4683    1.7268 H   0  0  0  0  0  0  0  0  0  0  0  0
   -2.8244    0.5364    0.7809 H   0  0  0  0  0  0  0  0  0  0  0  0
   -1.7946    1.0330   -1.6273 H   0  0  0  0  0  0  0  0  0  0  0  0
  1  2  1  0
  2  3  1  0
  3  4  1  0
  4  5  1  0
  5  6  1  0
  6  7  1  0
  7  8  1  0
  8  9  1  0
  3  1  1  0
  6  4  1  0
  9  7  1  0
  9  4  1  0
  1 10  1  0
  1 11  1  0
  3 12  1  0
  5 13  1  0
  5 14  1  0
  6 15  1  0
  7 16  1  0
  9 17  1  0
M  END
