
     RDKit          3D

 18 20  0  0  0  0  0  0  0  0999 V2000
    0.0453    1.5657    0.4042 C   0  0  0  0  0  0  0  0  0  0  0  0
    1.3879    1.2706    0.3607 O   0  0  0  0  0  0  0  0  0  0  0  0
    1.6764    0.2715   -0.5858 C   0  0  0  0  0  0  0  0  0  0  0  0
    0.9311   -1.0003   -0.3061 C   0  0  0  0  0  0  0  0  0  0  0  0
   -0.4900   -1.1660   -0.6183 C   0  0  0  0  0  0  0  0  0  0  0  0
   -1.5447   -0.1644   -0.3304 C   0  0  0  0  0  0  0  0  0  0  0  0
   -0.7602    0.3818    0.8389 C   0  0  0  0  0  0  0  0  0  0  0  0
    0.0100   -0.9065    0.8312 C   0  0  0  0  0  0  0  0  0  0  0  0
   -0.2550    1.9523   -0.6071 H   0  0  0  0  0  0  0  0  0  0  0  0
   -0.1058    2.3896    1.1096 H   0  0  0  0  0  0  0  0  0  0  0  0
    1.4885    0.6529   -1.6309 H   0  0  0  0  0  0  0  0  0  0  0  0
    2.7728    0.1108   -0.5317 H   0  0  0  0  0  0  0  0  0  0  0  0
    1.5532   -1.9166   -0.3720 H   0  0  0  0  0  0  0  0  0  0  0  0
   -0.8764   -2.1956   -0.8210 H   0  0  0  0  0  0  0  0  0  0  0  0
   -1.8083    0.5546   -1.1121 H   0  0  0  0  0  0  0  0  0  0  0  0
   -2.4948   -0.6209    0.0682 H   0  0  0  0  0  0  0  0  0  0  0  0
   -1.3250    0.5262    1.7679 H   0  0  0  0  0  0  0  0  0  0  0  0
   -0.2049   -1.7057    1.5346 H   0  0  0  0  0  0  0  0  0  0  0  0
  1  2  1  0
  2  3  1  0
  3  4  1  0
  4  5  1  0
  5  6  1  0
  6  7  1  0
  7  8  1  0
  7  1  1  0
  8  4  1  0
  8  5  1  0
  1  9  1  0
  1 10  1  0
  3 11  1  0
  3 12  1  0
  4 13  1  0
  5 14  1  0
  6 15  1  0
  6 16  1  0
  7 17  1  0
  8 18  1  0
M  END
