
     RDKit          3D

 15 17  0  0  0  0  0  0  0  0999 V2000
    1.4946   -0.2717    0.2805 C   0  0  0  0  0  0  0  0  0  0  0  0
    1.2679    1.0147    0.6949 O   0  0  0  0  0  0  0  0  0  0  0  0
   -0.0035    1.3986    0.3594 C   0  0  0  0  0  0  0  0  0  0  0  0
   -1.1377    0.4352    0.3481 C   0  0  0  0  0  0  0  0  0  0  0  0
   -0.8414   -1.0677    0.2339 C   0  0  0  0  0  0  0  0  0  0  0  0
    0.3464   -0.6786   -0.6146 C   0  0  0  0  0  0  0  0  0  0  0  0
   -0.3325    0.6409   -0.8460 C   0  0  0  0  0  0  0  0  0  0  0  0
    2.4221   -0.3992   -0.2746 H   0  0  0  0  0  0  0  0  0  0  0  0
    1.4601   -0.9202    1.2053 H   0  0  0  0  0  0  0  0  0  0  0  0
   -0.2557    2.4345    0.5230 H   0  0  0  0  0  0  0  0  0  0  0  0
   -2.1642    0.7576    0.4990 H   0  0  0  0  0  0  0  0  0  0  0  0
   -0.5980   -1.4832    1.2340 H   0  0  0  0  0  0  0  0  0  0  0  0
   -1.5890   -1.6063   -0.3561 H   0  0  0  0  0  0  0  0  0  0  0  0
    0.5630   -1.2633   -1.4889 H   0  0  0  0  0  0  0  0  0  0  0  0
   -0.6320    1.0087   -1.7979 H   0  0  0  0  0  0  0  0  0  0  0  0
  1  2  1  0
  2  3  1  0
  3  4  1  0
  4  5  1  0
  5  6  1  0
  6  7  1  0
  6  1  1  0
  7  3  1  0
  7  4  1  0
  1  8  1  0
  1  9  1  0
  3 10  1  0
  4 11  1  0
  5 12  1  0
  5 13  1  0
  6 14  1  0
  7 15  1  0
M  END
