
     RDKit          3D

 21 23  0  0  0  0  0  0  0  0999 V2000
   -1.4376    1.1258    0.4863 C   0  0  0  0  0  0  0  0  0  0  0  0
   -1.9167    0.4760   -0.6351 O   0  0  0  0  0  0  0  0  0  0  0  0
   -0.9002   -0.3341   -1.0748 C   0  0  0  0  0  0  0  0  0  0  0  0
   -0.5762   -1.3702   -0.0128 C   0  0  0  0  0  0  0  0  0  0  0  0
    0.8211   -1.0209    0.4689 C   0  0  0  0  0  0  0  0  0  0  0  0
    0.7497    0.2199    1.2931 C   0  0  0  0  0  0  0  0  0  0  0  0
    0.0638    1.2118    0.3568 C   0  0  0  0  0  0  0  0  0  0  0  0
    0.3019    0.6152   -0.9896 C   0  0  0  0  0  0  0  0  0  0  0  0
    1.3950   -0.4327   -0.8335 C   0  0  0  0  0  0  0  0  0  0  0  0
   -1.7678    0.5910    1.3797 H   0  0  0  0  0  0  0  0  0  0  0  0
   -1.8726    2.1478    0.4878 H   0  0  0  0  0  0  0  0  0  0  0  0
   -0.9861   -0.7251   -2.0725 H   0  0  0  0  0  0  0  0  0  0  0  0
   -0.5434   -2.3458   -0.5016 H   0  0  0  0  0  0  0  0  0  0  0  0
   -1.3241   -1.3439    0.8002 H   0  0  0  0  0  0  0  0  0  0  0  0
    1.3898   -1.8403    0.8569 H   0  0  0  0  0  0  0  0  0  0  0  0
    0.2602    0.1269    2.2541 H   0  0  0  0  0  0  0  0  0  0  0  0
    1.7998    0.6048    1.4024 H   0  0  0  0  0  0  0  0  0  0  0  0
    0.4543    2.2359    0.4837 H   0  0  0  0  0  0  0  0  0  0  0  0
    0.4083    1.2718   -1.8178 H   0  0  0  0  0  0  0  0  0  0  0  0
    1.2979   -1.1937   -1.6323 H   0  0  0  0  0  0  0  0  0  0  0  0
    2.3831   -0.0200   -0.6999 H   0  0  0  0  0  0  0  0  0  0  0  0
  1  2  1  0
  2  3  1  0
  3  4  1  0
  4  5  1  0
  5  6  1  0
  6  7  1  0
  7  8  1  0
  8  9  1  0
  7  1  1  0
  8  3  1  0
  9  5  1  0
  1 10  1  0
  1 11  1  0
  3 12  1  0
  4 13  1  0
  4 14  1  0
  5 15  1  0
  6 16  1  0
  6 17  1  0
  7 18  1  0
  8 19  1  0
  9 20  1  0
  9 21  1  0
M  END
