
     RDKit          3D

 15 18  0  0  0  0  0  0  0  0999 V2000
    1.7096    0.4904   -0.6298 C   0  0  0  0  0  0  0  0  0  0  0  0
    1.4770   -0.4652    0.3437 O   0  0  0  0  0  0  0  0  0  0  0  0
    0.1697   -0.3237    0.7477 C   0  0  0  0  0  0  0  0  0  0  0  0
   -0.3409    1.0382    1.0244 C   0  0  0  0  0  0  0  0  0  0  0  0
   -0.4921    0.5357   -0.3815 C   0  0  0  0  0  0  0  0  0  0  0  0
    0.5193    0.6810   -1.3030 O   0  0  0  0  0  0  0  0  0  0  0  0
   -1.4030   -0.6423   -0.6057 C   0  0  0  0  0  0  0  0  0  0  0  0
   -0.8011   -1.8849   -0.9547 O   0  0  0  0  0  0  0  0  0  0  0  0
   -0.8498   -1.3891    0.3816 C   0  0  0  0  0  0  0  0  0  0  0  0
    2.0265    1.4708   -0.1913 H   0  0  0  0  0  0  0  0  0  0  0  0
    2.4618    0.0842   -1.3391 H   0  0  0  0  0  0  0  0  0  0  0  0
   -1.3185    1.1428    1.5594 H   0  0  0  0  0  0  0  0  0  0  0  0
    0.4324    1.8063    1.2087 H   0  0  0  0  0  0  0  0  0  0  0  0
   -2.4023   -0.4339   -0.9796 H   0  0  0  0  0  0  0  0  0  0  0  0
   -1.1888   -2.1103    1.1192 H   0  0  0  0  0  0  0  0  0  0  0  0
  1  2  1  0
  2  3  1  0
  3  4  1  0
  4  5  1  0
  5  6  1  0
  5  7  1  0
  7  8  1  0
  8  9  1  0
  6  1  1  0
  9  7  1  0
  5  3  1  0
  9  3  1  0
  1 10  1  0
  1 11  1  0
  4 12  1  0
  4 13  1  0
  7 14  1  0
  9 15  1  0
M  END
