
     RDKit          3D

 17 19  0  0  0  0  0  0  0  0999 V2000
   -2.3186   -0.2631    0.3539 C   0  0  0  0  0  0  0  0  0  0  0  0
   -1.6845    0.7151    1.1486 O   0  0  0  0  0  0  0  0  0  0  0  0
   -0.5022    0.9088    0.4000 C   0  0  0  0  0  0  0  0  0  0  0  0
    0.6736    0.1885    0.9136 C   0  0  0  0  0  0  0  0  0  0  0  0
    1.9741    0.4687    0.1505 C   0  0  0  0  0  0  0  0  0  0  0  0
    1.6439    0.2969   -1.1968 O   0  0  0  0  0  0  0  0  0  0  0  0
    0.6970   -0.7190   -1.2490 C   0  0  0  0  0  0  0  0  0  0  0  0
   -0.2053   -0.4245   -0.1182 C   0  0  0  0  0  0  0  0  0  0  0  0
   -1.2935   -1.1896    0.1939 O   0  0  0  0  0  0  0  0  0  0  0  0
   -3.1928   -0.7072    0.8786 H   0  0  0  0  0  0  0  0  0  0  0  0
   -2.5997    0.2479   -0.5803 H   0  0  0  0  0  0  0  0  0  0  0  0
   -0.3896    1.8056   -0.2041 H   0  0  0  0  0  0  0  0  0  0  0  0
    0.7170   -0.3256    1.8715 H   0  0  0  0  0  0  0  0  0  0  0  0
    2.2687    1.5492    0.2659 H   0  0  0  0  0  0  0  0  0  0  0  0
    2.7902   -0.1761    0.4866 H   0  0  0  0  0  0  0  0  0  0  0  0
    1.2777   -1.6802   -1.1278 H   0  0  0  0  0  0  0  0  0  0  0  0
    0.1442   -0.6955   -2.1870 H   0  0  0  0  0  0  0  0  0  0  0  0
  1  2  1  0
  2  3  1  0
  3  4  1  0
  4  5  1  0
  5  6  1  0
  6  7  1  0
  7  8  1  0
  8  9  1  0
  9  1  1  0
  8  3  1  0
  8  4  1  0
  1 10  1  0
  1 11  1  0
  3 12  1  0
  4 13  1  0
  5 14  1  0
  5 15  1  0
  7 16  1  0
  7 17  1  0
M  END
