
     RDKit          3D

 15 16  0  0  0  0  0  0  0  0999 V2000
   -1.7990   -0.8067    0.0777 C   0  0  0  0  0  0  0  0  0  0  0  0
   -1.7351    0.1117   -0.9854 O   0  0  0  0  0  0  0  0  0  0  0  0
   -0.6486    0.8974   -0.5342 C   0  0  0  0  0  0  0  0  0  0  0  0
    0.2983   -0.1343   -0.0521 C   0  0  0  0  0  0  0  0  0  0  0  0
    1.3618    0.2722    0.8734 C   0  0  0  0  0  0  0  0  0  0  0  0
    1.6804   -0.2824   -0.4716 C   0  0  0  0  0  0  0  0  0  0  0  0
   -0.4873   -1.2557    0.1454 O   0  0  0  0  0  0  0  0  0  0  0  0
   -2.0244   -0.2620    1.0171 H   0  0  0  0  0  0  0  0  0  0  0  0
   -2.5410   -1.5850   -0.0672 H   0  0  0  0  0  0  0  0  0  0  0  0
   -1.0444    1.4529    0.3442 H   0  0  0  0  0  0  0  0  0  0  0  0
   -0.3192    1.5207   -1.3552 H   0  0  0  0  0  0  0  0  0  0  0  0
    1.5974    1.3577    0.9848 H   0  0  0  0  0  0  0  0  0  0  0  0
    1.5048   -0.3623    1.7696 H   0  0  0  0  0  0  0  0  0  0  0  0
    2.0926   -1.3270   -0.4819 H   0  0  0  0  0  0  0  0  0  0  0  0
    2.0636    0.4028   -1.2647 H   0  0  0  0  0  0  0  0  0  0  0  0
  1  2  1  0
  2  3  1  0
  3  4  1  0
  4  5  1  0
  5  6  1  0
  4  7  1  0
  7  1  1  0
  6  4  1  0
  1  8  1  0
  1  9  1  0
  3 10  1  0
  3 11  1  0
  5 12  1  0
  5 13  1  0
  6 14  1  0
  6 15  1  0
M  END
