
     RDKit          3D

 19 21  0  0  0  0  0  0  0  0999 V2000
   -2.0277    0.5117    0.3409 C   0  0  0  0  0  0  0  0  0  0  0  0
   -1.5284   -0.4790    1.1790 O   0  0  0  0  0  0  0  0  0  0  0  0
   -0.7117   -1.3970    0.4721 C   0  0  0  0  0  0  0  0  0  0  0  0
   -0.0987   -0.5981   -0.6176 C   0  0  0  0  0  0  0  0  0  0  0  0
    1.3367   -0.6752   -0.9170 C   0  0  0  0  0  0  0  0  0  0  0  0
    1.3858    0.8349   -0.6185 C   0  0  0  0  0  0  0  0  0  0  0  0
    1.2860    1.0875    0.8360 C   0  0  0  0  0  0  0  0  0  0  0  0
    0.1296    0.7581    0.0192 C   0  0  0  0  0  0  0  0  0  0  0  0
   -1.0214    1.4357   -0.0419 O   0  0  0  0  0  0  0  0  0  0  0  0
   -2.4779    0.1390   -0.5786 H   0  0  0  0  0  0  0  0  0  0  0  0
   -2.7652    1.0813    0.9028 H   0  0  0  0  0  0  0  0  0  0  0  0
    0.0911   -1.7154    1.1817 H   0  0  0  0  0  0  0  0  0  0  0  0
   -1.2734   -2.2806    0.1516 H   0  0  0  0  0  0  0  0  0  0  0  0
   -0.7738   -0.5504   -1.5001 H   0  0  0  0  0  0  0  0  0  0  0  0
    1.5993   -0.9224   -1.9659 H   0  0  0  0  0  0  0  0  0  0  0  0
    1.9592   -1.2392   -0.1861 H   0  0  0  0  0  0  0  0  0  0  0  0
    1.7486    1.5253   -1.3538 H   0  0  0  0  0  0  0  0  0  0  0  0
    1.3914    2.1263    1.1548 H   0  0  0  0  0  0  0  0  0  0  0  0
    1.7505    0.3575    1.5411 H   0  0  0  0  0  0  0  0  0  0  0  0
  1  2  1  0
  2  3  1  0
  3  4  1  0
  4  5  1  0
  5  6  1  0
  6  7  1  0
  7  8  1  0
  8  9  1  0
  9  1  1  0
  8  4  1  0
  8  6  1  0
  1 10  1  0
  1 11  1  0
  3 12  1  0
  3 13  1  0
  4 14  1  0
  5 15  1  0
  5 16  1  0
  6 17  1  0
  7 18  1  0
  7 19  1  0
M  END
