
     RDKit          3D

 19 21  0  0  0  0  0  0  0  0999 V2000
    2.6242    0.7550   -0.1885 C   0  0  0  0  0  0  0  0  0  0  0  0
    2.8789   -0.5904   -0.3878 O   0  0  0  0  0  0  0  0  0  0  0  0
    1.5474   -0.1020   -0.6322 C   0  0  0  0  0  0  0  0  0  0  0  0
    0.5338   -0.7058    0.2877 C   0  0  0  0  0  0  0  0  0  0  0  0
   -0.3040    0.2766    1.0810 C   0  0  0  0  0  0  0  0  0  0  0  0
   -1.4788   -0.1051    0.2389 C   0  0  0  0  0  0  0  0  0  0  0  0
   -2.4774    0.6831   -0.2459 C   0  0  0  0  0  0  0  0  0  0  0  0
   -2.7174   -0.3284    0.7734 O   0  0  0  0  0  0  0  0  0  0  0  0
   -0.7143   -1.1772   -0.4536 C   0  0  0  0  0  0  0  0  0  0  0  0
    3.1000    1.4238   -0.9387 H   0  0  0  0  0  0  0  0  0  0  0  0
    2.6802    1.1795    0.8405 H   0  0  0  0  0  0  0  0  0  0  0  0
    1.2706   -0.0708   -1.7151 H   0  0  0  0  0  0  0  0  0  0  0  0
    0.9079   -1.4985    0.9587 H   0  0  0  0  0  0  0  0  0  0  0  0
    0.0087    1.3253    1.0342 H   0  0  0  0  0  0  0  0  0  0  0  0
   -0.4596   -0.0146    2.1561 H   0  0  0  0  0  0  0  0  0  0  0  0
   -3.0125    0.4926   -1.2105 H   0  0  0  0  0  0  0  0  0  0  0  0
   -2.7136    1.7044    0.1436 H   0  0  0  0  0  0  0  0  0  0  0  0
   -0.6268   -1.0722   -1.5745 H   0  0  0  0  0  0  0  0  0  0  0  0
   -1.0472   -2.1753   -0.1674 H   0  0  0  0  0  0  0  0  0  0  0  0
  1  2  1  0
  2  3  1  0
  3  4  1  0
  4  5  1  0
  5  6  1  0
  6  7  1  0
  7  8  1  0
  6  9  1  0
  3  1  1  0
  9  4  1  0
  8  6  1  0
  1 10  1  0
  1 11  1  0
  3 12  1  0
  4 13  1  0
  5 14  1  0
  5 15  1  0
  7 16  1  0
  7 17  1  0
  9 18  1  0
  9 19  1  0
M  END
