
     RDKit          3D

 16 18  0  0  0  0  0  0  0  0999 V2000
   -1.5503    0.4097    0.6711 C   0  0  0  0  0  0  0  0  0  0  0  0
   -1.6611   -0.4859   -0.4260 O   0  0  0  0  0  0  0  0  0  0  0  0
   -0.3696   -0.9116   -0.6164 C   0  0  0  0  0  0  0  0  0  0  0  0
    0.1473   -1.1274    0.8176 C   0  0  0  0  0  0  0  0  0  0  0  0
   -0.0624    0.4009    0.8532 C   0  0  0  0  0  0  0  0  0  0  0  0
    0.4246    0.3658   -0.5502 C   0  0  0  0  0  0  0  0  0  0  0  0
    1.5800    0.7315   -1.1453 C   0  0  0  0  0  0  0  0  0  0  0  0
    0.2730    1.3761   -1.4420 O   0  0  0  0  0  0  0  0  0  0  0  0
   -1.9838    1.3767    0.4486 H   0  0  0  0  0  0  0  0  0  0  0  0
   -2.0024   -0.0407    1.5735 H   0  0  0  0  0  0  0  0  0  0  0  0
   -0.1282   -1.6505   -1.3351 H   0  0  0  0  0  0  0  0  0  0  0  0
   -0.5738   -1.6686    1.4373 H   0  0  0  0  0  0  0  0  0  0  0  0
    1.1959   -1.4079    0.8791 H   0  0  0  0  0  0  0  0  0  0  0  0
    0.4117    0.9462    1.6134 H   0  0  0  0  0  0  0  0  0  0  0  0
    1.9831    0.2470   -2.0701 H   0  0  0  0  0  0  0  0  0  0  0  0
    2.3159    1.4388   -0.7089 H   0  0  0  0  0  0  0  0  0  0  0  0
  1  2  1  0
  2  3  1  0
  3  4  1  0
  4  5  1  0
  5  6  1  0
  6  7  1  0
  7  8  1  0
  5  1  1  0
  8  6  1  0
  6  3  1  0
  1  9  1  0
  1 10  1  0
  3 11  1  0
  4 12  1  0
  4 13  1  0
  5 14  1  0
  7 15  1  0
  7 16  1  0
M  END
