
     RDKit          3D

 13 15  0  0  0  0  0  0  0  0999 V2000
    1.4215   -0.1563    0.0597 C   0  0  0  0  0  0  0  0  0  0  0  0
    1.0681    1.1426   -0.2971 O   0  0  0  0  0  0  0  0  0  0  0  0
   -0.3282    1.1948   -0.0879 C   0  0  0  0  0  0  0  0  0  0  0  0
   -0.9811    0.2093    0.7746 C   0  0  0  0  0  0  0  0  0  0  0  0
   -0.5530   -1.0704    0.9788 O   0  0  0  0  0  0  0  0  0  0  0  0
    0.2105   -1.0352   -0.1930 C   0  0  0  0  0  0  0  0  0  0  0  0
   -0.7743   -0.0388   -0.7113 C   0  0  0  0  0  0  0  0  0  0  0  0
    1.6616   -0.1096    1.1600 H   0  0  0  0  0  0  0  0  0  0  0  0
    2.3295   -0.5174   -0.4299 H   0  0  0  0  0  0  0  0  0  0  0  0
   -0.8505    2.1144   -0.3156 H   0  0  0  0  0  0  0  0  0  0  0  0
   -1.9848    0.4576    1.1501 H   0  0  0  0  0  0  0  0  0  0  0  0
    0.3620   -1.9598   -0.7232 H   0  0  0  0  0  0  0  0  0  0  0  0
   -1.5814   -0.2313   -1.3652 H   0  0  0  0  0  0  0  0  0  0  0  0
  1  2  1  0
  2  3  1  0
  3  4  1  0
  4  5  1  0
  5  6  1  0
  6  7  1  0
  6  1  1  0
  7  3  1  0
  7  4  1  0
  1  8  1  0
  1  9  1  0
  3 10  1  0
  4 11  1  0
  6 12  1  0
  7 13  1  0
M  END
