
     RDKit          3D

 19 21  0  0  0  0  0  0  0  0999 V2000
   -0.8362    1.8752    0.0654 C   0  0  0  0  0  0  0  0  0  0  0  0
   -1.8931    1.0991   -0.4770 O   0  0  0  0  0  0  0  0  0  0  0  0
   -1.3578   -0.1090   -0.7602 C   0  0  0  0  0  0  0  0  0  0  0  0
   -1.4167   -1.3754   -0.1282 C   0  0  0  0  0  0  0  0  0  0  0  0
   -0.6026   -0.4481    0.5698 C   0  0  0  0  0  0  0  0  0  0  0  0
    0.7071    0.1543    0.3014 C   0  0  0  0  0  0  0  0  0  0  0  0
    1.9882   -0.2241    0.8109 C   0  0  0  0  0  0  0  0  0  0  0  0
    1.6439   -0.7108   -0.5617 C   0  0  0  0  0  0  0  0  0  0  0  0
    0.4195    1.3870   -0.3015 O   0  0  0  0  0  0  0  0  0  0  0  0
   -0.9557    2.0206    1.1387 H   0  0  0  0  0  0  0  0  0  0  0  0
   -0.9331    2.8651   -0.4271 H   0  0  0  0  0  0  0  0  0  0  0  0
   -0.7491   -0.0496   -1.7021 H   0  0  0  0  0  0  0  0  0  0  0  0
   -0.9092   -2.2499   -0.6224 H   0  0  0  0  0  0  0  0  0  0  0  0
   -2.3714   -1.7133    0.3231 H   0  0  0  0  0  0  0  0  0  0  0  0
   -1.0480   -0.0180    1.5177 H   0  0  0  0  0  0  0  0  0  0  0  0
    2.0576   -1.0011    1.5805 H   0  0  0  0  0  0  0  0  0  0  0  0
    2.8016    0.5434    0.8298 H   0  0  0  0  0  0  0  0  0  0  0  0
    2.1072   -0.2667   -1.4419 H   0  0  0  0  0  0  0  0  0  0  0  0
    1.3479   -1.7787   -0.7152 H   0  0  0  0  0  0  0  0  0  0  0  0
  1  2  1  0
  2  3  1  0
  3  4  1  0
  4  5  1  0
  5  6  1  0
  6  7  1  0
  7  8  1  0
  6  9  1  0
  9  1  1  0
  5  3  1  0
  8  6  1  0
  1 10  1  0
  1 11  1  0
  3 12  1  0
  4 13  1  0
  4 14  1  0
  5 15  1  0
  7 16  1  0
  7 17  1  0
  8 18  1  0
  8 19  1  0
M  END
