
     RDKit          3D

 21 23  0  0  0  0  0  0  0  0999 V2000
    0.7715    1.5200    0.6078 C   0  0  0  0  0  0  0  0  0  0  0  0
   -0.2646    1.2305   -0.2277 O   0  0  0  0  0  0  0  0  0  0  0  0
   -0.9679    0.0972    0.0639 C   0  0  0  0  0  0  0  0  0  0  0  0
   -2.3173    0.1219    0.6901 C   0  0  0  0  0  0  0  0  0  0  0  0
   -2.2267   -0.0765   -0.8009 C   0  0  0  0  0  0  0  0  0  0  0  0
   -0.1447   -1.1415    0.1925 C   0  0  0  0  0  0  0  0  0  0  0  0
    1.2792   -0.9387    0.5074 C   0  0  0  0  0  0  0  0  0  0  0  0
    2.2240   -0.2733   -0.4277 C   0  0  0  0  0  0  0  0  0  0  0  0
    1.7447    0.3979    0.8097 C   0  0  0  0  0  0  0  0  0  0  0  0
    0.4582    1.9302    1.6049 H   0  0  0  0  0  0  0  0  0  0  0  0
    1.3559    2.3638    0.1339 H   0  0  0  0  0  0  0  0  0  0  0  0
   -2.6309   -0.7945    1.2429 H   0  0  0  0  0  0  0  0  0  0  0  0
   -2.7702    1.0386    1.0846 H   0  0  0  0  0  0  0  0  0  0  0  0
   -2.5796    0.7959   -1.3828 H   0  0  0  0  0  0  0  0  0  0  0  0
   -2.4180   -1.0734   -1.2414 H   0  0  0  0  0  0  0  0  0  0  0  0
   -0.2427   -1.7083   -0.7722 H   0  0  0  0  0  0  0  0  0  0  0  0
   -0.6153   -1.7905    0.9582 H   0  0  0  0  0  0  0  0  0  0  0  0
    1.7515   -1.7779    1.0988 H   0  0  0  0  0  0  0  0  0  0  0  0
    3.3088   -0.5729   -0.4254 H   0  0  0  0  0  0  0  0  0  0  0  0
    1.8679    0.1059   -1.4142 H   0  0  0  0  0  0  0  0  0  0  0  0
    2.4162    0.5455    1.6862 H   0  0  0  0  0  0  0  0  0  0  0  0
  1  2  1  0
  2  3  1  0
  3  4  1  0
  4  5  1  0
  3  6  1  0
  6  7  1  0
  7  8  1  0
  8  9  1  0
  9  1  1  0
  5  3  1  0
  9  7  1  0
  1 10  1  0
  1 11  1  0
  4 12  1  0
  4 13  1  0
  5 14  1  0
  5 15  1  0
  6 16  1  0
  6 17  1  0
  7 18  1  0
  8 19  1  0
  8 20  1  0
  9 21  1  0
M  END
