
     RDKit          3D

 19 21  0  0  0  0  0  0  0  0999 V2000
    1.6769    0.2194    0.5647 C   0  0  0  0  0  0  0  0  0  0  0  0
    1.6430   -0.9409   -0.2084 O   0  0  0  0  0  0  0  0  0  0  0  0
    0.4602   -1.6497   -0.1058 C   0  0  0  0  0  0  0  0  0  0  0  0
   -0.6414   -0.8567    0.4666 C   0  0  0  0  0  0  0  0  0  0  0  0
   -1.9113   -0.9524   -0.0393 O   0  0  0  0  0  0  0  0  0  0  0  0
   -1.9785    0.4533    0.1873 C   0  0  0  0  0  0  0  0  0  0  0  0
   -0.6044    0.5096   -0.1528 C   0  0  0  0  0  0  0  0  0  0  0  0
    0.1131    0.9074   -1.3157 C   0  0  0  0  0  0  0  0  0  0  0  0
    0.5701    1.1987    0.1310 C   0  0  0  0  0  0  0  0  0  0  0  0
    2.6316    0.7272    0.3200 H   0  0  0  0  0  0  0  0  0  0  0  0
    1.5681    0.0363    1.6322 H   0  0  0  0  0  0  0  0  0  0  0  0
    0.6654   -2.5140    0.5914 H   0  0  0  0  0  0  0  0  0  0  0  0
    0.2229   -2.1041   -1.0837 H   0  0  0  0  0  0  0  0  0  0  0  0
   -0.6929   -0.8547    1.5908 H   0  0  0  0  0  0  0  0  0  0  0  0
   -2.6900    0.9729   -0.4493 H   0  0  0  0  0  0  0  0  0  0  0  0
   -2.2022    0.5754    1.2818 H   0  0  0  0  0  0  0  0  0  0  0  0
   -0.2532    1.8009   -1.8807 H   0  0  0  0  0  0  0  0  0  0  0  0
    0.6832    0.2185   -1.9275 H   0  0  0  0  0  0  0  0  0  0  0  0
    0.7394    2.2530    0.3975 H   0  0  0  0  0  0  0  0  0  0  0  0
  1  2  1  0
  2  3  1  0
  3  4  1  0
  4  5  1  0
  5  6  1  0
  6  7  1  0
  7  8  1  0
  8  9  1  0
  9  1  1  0
  7  4  1  0
  9  7  1  0
  1 10  1  0
  1 11  1  0
  3 12  1  0
  3 13  1  0
  4 14  1  0
  6 15  1  0
  6 16  1  0
  8 17  1  0
  8 18  1  0
  9 19  1  0
M  END
