
     RDKit          3D

 19 20  0  0  0  0  0  0  0  0999 V2000
    2.0322   -0.7340    0.0493 C   0  0  0  0  0  0  0  0  0  0  0  0
    2.0708    0.4967   -0.5547 O   0  0  0  0  0  0  0  0  0  0  0  0
    0.9745    1.3110   -0.2221 C   0  0  0  0  0  0  0  0  0  0  0  0
   -0.2459    0.5385   -0.4653 C   0  0  0  0  0  0  0  0  0  0  0  0
   -1.5170    0.9934    0.1291 C   0  0  0  0  0  0  0  0  0  0  0  0
   -2.3539   -0.1319    0.0844 O   0  0  0  0  0  0  0  0  0  0  0  0
   -1.5338   -1.2597   -0.0165 C   0  0  0  0  0  0  0  0  0  0  0  0
   -0.1557   -0.8153    0.2674 C   0  0  0  0  0  0  0  0  0  0  0  0
    0.8785   -1.4862   -0.2908 O   0  0  0  0  0  0  0  0  0  0  0  0
    2.9581   -1.2717   -0.2365 H   0  0  0  0  0  0  0  0  0  0  0  0
    1.9593   -0.6290    1.1720 H   0  0  0  0  0  0  0  0  0  0  0  0
    1.0150    2.1597   -0.9654 H   0  0  0  0  0  0  0  0  0  0  0  0
    1.0822    1.7696    0.7670 H   0  0  0  0  0  0  0  0  0  0  0  0
   -0.3787    0.3739   -1.5518 H   0  0  0  0  0  0  0  0  0  0  0  0
   -1.3395    1.1713    1.2314 H   0  0  0  0  0  0  0  0  0  0  0  0
   -1.9766    1.8703   -0.3457 H   0  0  0  0  0  0  0  0  0  0  0  0
   -1.5926   -1.6937   -1.0576 H   0  0  0  0  0  0  0  0  0  0  0  0
   -1.8196   -2.0662    0.6612 H   0  0  0  0  0  0  0  0  0  0  0  0
   -0.0572   -0.5969    1.3446 H   0  0  0  0  0  0  0  0  0  0  0  0
  1  2  1  0
  2  3  1  0
  3  4  1  0
  4  5  1  0
  5  6  1  0
  6  7  1  0
  7  8  1  0
  8  9  1  0
  9  1  1  0
  8  4  1  0
  1 10  1  0
  1 11  1  0
  3 12  1  0
  3 13  1  0
  4 14  1  0
  5 15  1  0
  5 16  1  0
  7 17  1  0
  7 18  1  0
  8 19  1  0
M  END
