
     RDKit          3D

 19 21  0  0  0  0  0  0  0  0999 V2000
    2.9046    0.5110    0.0876 C   0  0  0  0  0  0  0  0  0  0  0  0
    2.2792   -0.0700   -1.0330 O   0  0  0  0  0  0  0  0  0  0  0  0
    1.0736   -0.4771   -0.4799 C   0  0  0  0  0  0  0  0  0  0  0  0
    0.7359    0.4506    0.6335 C   0  0  0  0  0  0  0  0  0  0  0  0
    1.9013    1.2148    0.7426 O   0  0  0  0  0  0  0  0  0  0  0  0
   -0.0676    0.5241   -0.6010 C   0  0  0  0  0  0  0  0  0  0  0  0
   -1.4036   -0.1172   -0.7041 C   0  0  0  0  0  0  0  0  0  0  0  0
   -1.8537   -1.0194    0.4505 C   0  0  0  0  0  0  0  0  0  0  0  0
   -2.5397    0.2778    0.1654 C   0  0  0  0  0  0  0  0  0  0  0  0
    3.3001   -0.3331    0.6830 H   0  0  0  0  0  0  0  0  0  0  0  0
    3.6970    1.1665   -0.3085 H   0  0  0  0  0  0  0  0  0  0  0  0
    0.8571   -1.5474   -0.4332 H   0  0  0  0  0  0  0  0  0  0  0  0
    0.3525    0.1284    1.6004 H   0  0  0  0  0  0  0  0  0  0  0  0
    0.1169    1.4412   -1.2084 H   0  0  0  0  0  0  0  0  0  0  0  0
   -1.7089   -0.4628   -1.7374 H   0  0  0  0  0  0  0  0  0  0  0  0
   -1.2668   -1.0374    1.3759 H   0  0  0  0  0  0  0  0  0  0  0  0
   -2.3711   -1.9645    0.1266 H   0  0  0  0  0  0  0  0  0  0  0  0
   -2.4358    1.1293    0.8714 H   0  0  0  0  0  0  0  0  0  0  0  0
   -3.5709    0.1852   -0.2314 H   0  0  0  0  0  0  0  0  0  0  0  0
  1  2  1  0
  2  3  1  0
  3  4  1  0
  4  5  1  0
  4  6  1  0
  6  7  1  0
  7  8  1  0
  8  9  1  0
  5  1  1  0
  9  7  1  0
  6  3  1  0
  1 10  1  0
  1 11  1  0
  3 12  1  0
  4 13  1  0
  6 14  1  0
  7 15  1  0
  8 16  1  0
  8 17  1  0
  9 18  1  0
  9 19  1  0
M  END
