
     RDKit          3D

 17 19  0  0  0  0  0  0  0  0999 V2000
    1.6687    0.2031    0.5457 C   0  0  0  0  0  0  0  0  0  0  0  0
    0.7072    1.1095    0.9693 O   0  0  0  0  0  0  0  0  0  0  0  0
   -0.2576    1.3558    0.0106 C   0  0  0  0  0  0  0  0  0  0  0  0
   -1.5204    0.5492    0.3175 C   0  0  0  0  0  0  0  0  0  0  0  0
   -1.0621   -0.8450   -0.0773 C   0  0  0  0  0  0  0  0  0  0  0  0
   -0.1835   -1.3466    0.8624 O   0  0  0  0  0  0  0  0  0  0  0  0
    0.9024   -1.0320    0.0572 C   0  0  0  0  0  0  0  0  0  0  0  0
    0.0264   -0.5470   -1.0655 C   0  0  0  0  0  0  0  0  0  0  0  0
    0.1224    0.8223   -1.1992 O   0  0  0  0  0  0  0  0  0  0  0  0
    2.2449    0.5555   -0.3345 H   0  0  0  0  0  0  0  0  0  0  0  0
    2.3057   -0.0942    1.3760 H   0  0  0  0  0  0  0  0  0  0  0  0
   -0.5662    2.4060   -0.0213 H   0  0  0  0  0  0  0  0  0  0  0  0
   -1.7626    0.5433    1.3860 H   0  0  0  0  0  0  0  0  0  0  0  0
   -2.3542    0.8975   -0.3170 H   0  0  0  0  0  0  0  0  0  0  0  0
   -1.8532   -1.5266   -0.3944 H   0  0  0  0  0  0  0  0  0  0  0  0
    1.5236   -1.9101   -0.1400 H   0  0  0  0  0  0  0  0  0  0  0  0
    0.0586   -1.1406   -1.9755 H   0  0  0  0  0  0  0  0  0  0  0  0
  1  2  1  0
  2  3  1  0
  3  4  1  0
  4  5  1  0
  5  6  1  0
  6  7  1  0
  7  8  1  0
  8  9  1  0
  7  1  1  0
  9  3  1  0
  8  5  1  0
  1 10  1  0
  1 11  1  0
  3 12  1  0
  4 13  1  0
  4 14  1  0
  5 15  1  0
  7 16  1  0
  8 17  1  0
M  END
