
     RDKit          3D

 18 20  0  0  0  0  0  0  0  0999 V2000
   -2.7952    0.3610   -0.0134 C   0  0  0  0  0  0  0  0  0  0  0  0
   -2.5321    0.3481   -1.3687 O   0  0  0  0  0  0  0  0  0  0  0  0
   -1.7019   -0.5074   -0.4778 C   0  0  0  0  0  0  0  0  0  0  0  0
   -0.2765   -0.0360   -0.5620 C   0  0  0  0  0  0  0  0  0  0  0  0
    0.4451    0.4382    0.6376 C   0  0  0  0  0  0  0  0  0  0  0  0
    1.8632    0.9197    0.3813 C   0  0  0  0  0  0  0  0  0  0  0  0
    2.2056   -0.5034   -0.0173 C   0  0  0  0  0  0  0  0  0  0  0  0
    0.7647   -0.8946    0.1265 C   0  0  0  0  0  0  0  0  0  0  0  0
   -2.5391    1.2215    0.6100 H   0  0  0  0  0  0  0  0  0  0  0  0
   -3.7356   -0.1403    0.2627 H   0  0  0  0  0  0  0  0  0  0  0  0
   -1.9283   -1.5886   -0.6598 H   0  0  0  0  0  0  0  0  0  0  0  0
    0.0825    0.3360   -1.5563 H   0  0  0  0  0  0  0  0  0  0  0  0
   -0.0109    0.5608    1.6170 H   0  0  0  0  0  0  0  0  0  0  0  0
    2.4016    1.3122    1.2429 H   0  0  0  0  0  0  0  0  0  0  0  0
    1.8620    1.5572   -0.5355 H   0  0  0  0  0  0  0  0  0  0  0  0
    2.8743   -0.9435    0.7345 H   0  0  0  0  0  0  0  0  0  0  0  0
    2.5560   -0.6263   -1.0529 H   0  0  0  0  0  0  0  0  0  0  0  0
    0.4646   -1.8145    0.6313 H   0  0  0  0  0  0  0  0  0  0  0  0
  1  2  1  0
  2  3  1  0
  3  4  1  0
  4  5  1  0
  5  6  1  0
  6  7  1  0
  7  8  1  0
  3  1  1  0
  8  4  1  0
  8  5  1  0
  1  9  1  0
  1 10  1  0
  3 11  1  0
  4 12  1  0
  5 13  1  0
  6 14  1  0
  6 15  1  0
  7 16  1  0
  7 17  1  0
  8 18  1  0
M  END
