
     RDKit          3D

 13 15  0  0  0  0  0  0  0  0999 V2000
    1.6828   -0.4708   -0.3243 C   0  0  0  0  0  0  0  0  0  0  0  0
    1.3951   -0.3440    1.1304 O   0  0  0  0  0  0  0  0  0  0  0  0
    0.4534   -0.1360    0.1615 C   0  0  0  0  0  0  0  0  0  0  0  0
   -0.8407   -0.8473    0.1610 C   0  0  0  0  0  0  0  0  0  0  0  0
   -1.5444    0.5001   -0.0167 C   0  0  0  0  0  0  0  0  0  0  0  0
   -1.2943    1.4805    0.9229 O   0  0  0  0  0  0  0  0  0  0  0  0
   -0.1837    1.1985    0.1061 C   0  0  0  0  0  0  0  0  0  0  0  0
    2.0390   -1.5115   -0.5003 H   0  0  0  0  0  0  0  0  0  0  0  0
    2.4597    0.2817   -0.5663 H   0  0  0  0  0  0  0  0  0  0  0  0
   -1.1314   -1.2996    1.1527 H   0  0  0  0  0  0  0  0  0  0  0  0
   -1.0733   -1.5372   -0.6517 H   0  0  0  0  0  0  0  0  0  0  0  0
   -2.0422    0.7154   -0.9624 H   0  0  0  0  0  0  0  0  0  0  0  0
    0.0800    1.9703   -0.6131 H   0  0  0  0  0  0  0  0  0  0  0  0
  1  2  1  0
  2  3  1  0
  3  4  1  0
  4  5  1  0
  5  6  1  0
  6  7  1  0
  3  1  1  0
  7  5  1  0
  7  3  1  0
  1  8  1  0
  1  9  1  0
  4 10  1  0
  4 11  1  0
  5 12  1  0
  7 13  1  0
M  END
