
     RDKit          3D

 21 23  0  0  0  0  0  0  0  0999 V2000
    1.8749   -0.0525    0.3838 C   0  0  0  0  0  0  0  0  0  0  0  0
    1.2107   -1.1680    0.7972 O   0  0  0  0  0  0  0  0  0  0  0  0
   -0.1332   -1.1621    0.7121 C   0  0  0  0  0  0  0  0  0  0  0  0
   -0.8266    0.1097    1.0567 C   0  0  0  0  0  0  0  0  0  0  0  0
   -0.1061    1.3420    0.5553 C   0  0  0  0  0  0  0  0  0  0  0  0
    0.9562    0.8304   -0.4257 C   0  0  0  0  0  0  0  0  0  0  0  0
    0.2549   -0.0742   -1.4309 C   0  0  0  0  0  0  0  0  0  0  0  0
   -0.6751   -1.0100   -0.7051 C   0  0  0  0  0  0  0  0  0  0  0  0
   -1.8287   -0.2444   -0.0560 C   0  0  0  0  0  0  0  0  0  0  0  0
    2.2053    0.5037    1.3106 H   0  0  0  0  0  0  0  0  0  0  0  0
    2.7606   -0.2814   -0.2161 H   0  0  0  0  0  0  0  0  0  0  0  0
   -0.6007   -2.0202    1.1973 H   0  0  0  0  0  0  0  0  0  0  0  0
   -1.2675    0.1745    2.0541 H   0  0  0  0  0  0  0  0  0  0  0  0
   -0.8059    1.9557   -0.0842 H   0  0  0  0  0  0  0  0  0  0  0  0
    0.3624    1.9281    1.3462 H   0  0  0  0  0  0  0  0  0  0  0  0
    1.5066    1.6405   -0.9007 H   0  0  0  0  0  0  0  0  0  0  0  0
    1.0468   -0.6929   -1.8901 H   0  0  0  0  0  0  0  0  0  0  0  0
   -0.2336    0.4957   -2.2396 H   0  0  0  0  0  0  0  0  0  0  0  0
   -0.9454   -1.9364   -1.2033 H   0  0  0  0  0  0  0  0  0  0  0  0
   -2.1960    0.6115   -0.6197 H   0  0  0  0  0  0  0  0  0  0  0  0
   -2.5598   -0.9495    0.3580 H   0  0  0  0  0  0  0  0  0  0  0  0
  1  2  1  0
  2  3  1  0
  3  4  1  0
  4  5  1  0
  5  6  1  0
  6  7  1  0
  7  8  1  0
  8  9  1  0
  6  1  1  0
  8  3  1  0
  9  4  1  0
  1 10  1  0
  1 11  1  0
  3 12  1  0
  4 13  1  0
  5 14  1  0
  5 15  1  0
  6 16  1  0
  7 17  1  0
  7 18  1  0
  8 19  1  0
  9 20  1  0
  9 21  1  0
M  END
