
     RDKit          3D

 15 18  0  0  0  0  0  0  0  0999 V2000
    2.3072   -0.4494   -0.2078 C   0  0  0  0  0  0  0  0  0  0  0  0
    1.6800    0.7047   -0.9419 O   0  0  0  0  0  0  0  0  0  0  0  0
    1.0691   -0.0438    0.0125 C   0  0  0  0  0  0  0  0  0  0  0  0
    0.2204    0.4485    1.0947 C   0  0  0  0  0  0  0  0  0  0  0  0
   -0.2415   -0.8573    1.2586 O   0  0  0  0  0  0  0  0  0  0  0  0
   -0.2753   -0.6481   -0.1163 C   0  0  0  0  0  0  0  0  0  0  0  0
   -0.8778    0.6340    0.1176 C   0  0  0  0  0  0  0  0  0  0  0  0
   -2.3044    0.3580    0.1347 C   0  0  0  0  0  0  0  0  0  0  0  0
   -1.7702    1.3406    0.7991 O   0  0  0  0  0  0  0  0  0  0  0  0
    3.2267   -0.0112    0.2583 H   0  0  0  0  0  0  0  0  0  0  0  0
    2.6046   -1.2132   -0.9864 H   0  0  0  0  0  0  0  0  0  0  0  0
    0.4960    1.0501    1.8795 H   0  0  0  0  0  0  0  0  0  0  0  0
   -0.5279   -1.3888   -0.7883 H   0  0  0  0  0  0  0  0  0  0  0  0
   -2.8129   -0.4412    0.7119 H   0  0  0  0  0  0  0  0  0  0  0  0
   -2.7940    0.5169   -0.8553 H   0  0  0  0  0  0  0  0  0  0  0  0
  1  2  1  0
  2  3  1  0
  3  4  1  0
  4  5  1  0
  5  6  1  0
  6  7  1  0
  7  8  1  0
  8  9  1  0
  3  1  1  0
  7  4  1  0
  6  3  1  0
  9  7  1  0
  1 10  1  0
  1 11  1  0
  4 12  1  0
  6 13  1  0
  8 14  1  0
  8 15  1  0
M  END
