
     RDKit          3D

 19 20  0  0  0  0  0  0  0  0999 V2000
    0.0383    1.5659    0.3795 C   0  0  0  0  0  0  0  0  0  0  0  0
   -1.1078    0.9311    0.7807 O   0  0  0  0  0  0  0  0  0  0  0  0
   -0.9564   -0.3500    1.2122 C   0  0  0  0  0  0  0  0  0  0  0  0
   -0.1912   -1.2468    0.2830 C   0  0  0  0  0  0  0  0  0  0  0  0
    1.2838   -0.9859    0.2677 C   0  0  0  0  0  0  0  0  0  0  0  0
    1.6279    0.1071   -0.5187 O   0  0  0  0  0  0  0  0  0  0  0  0
    0.5425    0.8725   -0.8792 C   0  0  0  0  0  0  0  0  0  0  0  0
   -0.5813    0.0794   -1.4956 C   0  0  0  0  0  0  0  0  0  0  0  0
   -0.6627   -1.2106   -1.0114 O   0  0  0  0  0  0  0  0  0  0  0  0
    0.8071    1.6777    1.1459 H   0  0  0  0  0  0  0  0  0  0  0  0
   -0.2641    2.5991    0.0422 H   0  0  0  0  0  0  0  0  0  0  0  0
   -1.9875   -0.7973    1.3071 H   0  0  0  0  0  0  0  0  0  0  0  0
   -0.5154   -0.4323    2.2226 H   0  0  0  0  0  0  0  0  0  0  0  0
   -0.3498   -2.3026    0.6477 H   0  0  0  0  0  0  0  0  0  0  0  0
    1.7606   -1.8788   -0.2350 H   0  0  0  0  0  0  0  0  0  0  0  0
    1.7303   -0.9311    1.2756 H   0  0  0  0  0  0  0  0  0  0  0  0
    0.9042    1.6222   -1.6281 H   0  0  0  0  0  0  0  0  0  0  0  0
   -0.5462    0.0863   -2.6132 H   0  0  0  0  0  0  0  0  0  0  0  0
   -1.5327    0.5941   -1.1831 H   0  0  0  0  0  0  0  0  0  0  0  0
  1  2  1  0
  2  3  1  0
  3  4  1  0
  4  5  1  0
  5  6  1  0
  6  7  1  0
  7  8  1  0
  8  9  1  0
  7  1  1  0
  9  4  1  0
  1 10  1  0
  1 11  1  0
  3 12  1  0
  3 13  1  0
  4 14  1  0
  5 15  1  0
  5 16  1  0
  7 17  1  0
  8 18  1  0
  8 19  1  0
M  END
