
     RDKit          3D

 21 23  0  0  0  0  0  0  0  0999 V2000
   -1.0531    1.1551   -0.7751 C   0  0  0  0  0  0  0  0  0  0  0  0
   -0.0405    1.6935    0.0179 O   0  0  0  0  0  0  0  0  0  0  0  0
    1.1414    1.0931   -0.3393 C   0  0  0  0  0  0  0  0  0  0  0  0
    2.1099    0.5974    0.6688 C   0  0  0  0  0  0  0  0  0  0  0  0
    1.2535   -0.3384   -0.1942 C   0  0  0  0  0  0  0  0  0  0  0  0
    0.1702   -1.1004    0.4363 C   0  0  0  0  0  0  0  0  0  0  0  0
   -0.9228   -1.3404   -0.6139 C   0  0  0  0  0  0  0  0  0  0  0  0
   -1.5756   -0.0741   -0.1009 C   0  0  0  0  0  0  0  0  0  0  0  0
   -0.8313   -0.3335    1.2183 C   0  0  0  0  0  0  0  0  0  0  0  0
   -1.8088    1.9370   -0.9489 H   0  0  0  0  0  0  0  0  0  0  0  0
   -0.6161    0.9293   -1.7886 H   0  0  0  0  0  0  0  0  0  0  0  0
    1.6148    1.5760   -1.2456 H   0  0  0  0  0  0  0  0  0  0  0  0
    1.8628    0.5323    1.7393 H   0  0  0  0  0  0  0  0  0  0  0  0
    3.1895    0.6025    0.4132 H   0  0  0  0  0  0  0  0  0  0  0  0
    1.7986   -0.8912   -1.0113 H   0  0  0  0  0  0  0  0  0  0  0  0
    0.4818   -2.0180    0.9753 H   0  0  0  0  0  0  0  0  0  0  0  0
   -0.5832   -1.3189   -1.6470 H   0  0  0  0  0  0  0  0  0  0  0  0
   -1.5520   -2.2196   -0.3249 H   0  0  0  0  0  0  0  0  0  0  0  0
   -2.6789   -0.1230   -0.0060 H   0  0  0  0  0  0  0  0  0  0  0  0
   -1.4589   -0.9776    1.8467 H   0  0  0  0  0  0  0  0  0  0  0  0
   -0.5011    0.6190    1.6801 H   0  0  0  0  0  0  0  0  0  0  0  0
  1  2  1  0
  2  3  1  0
  3  4  1  0
  4  5  1  0
  5  6  1  0
  6  7  1  0
  7  8  1  0
  8  9  1  0
  8  1  1  0
  5  3  1  0
  9  6  1  0
  1 10  1  0
  1 11  1  0
  3 12  1  0
  4 13  1  0
  4 14  1  0
  5 15  1  0
  6 16  1  0
  7 17  1  0
  7 18  1  0
  8 19  1  0
  9 20  1  0
  9 21  1  0
M  END
