
     RDKit          3D

 17 19  0  0  0  0  0  0  0  0999 V2000
    1.5932   -0.3948   -0.4670 C   0  0  0  0  0  0  0  0  0  0  0  0
    0.9464   -1.6044   -0.7695 O   0  0  0  0  0  0  0  0  0  0  0  0
   -0.1497   -1.6081    0.0966 C   0  0  0  0  0  0  0  0  0  0  0  0
   -0.7147   -0.2073   -0.0972 C   0  0  0  0  0  0  0  0  0  0  0  0
   -2.0283   -0.0008   -0.4192 C   0  0  0  0  0  0  0  0  0  0  0  0
   -1.5859    0.2182    0.9855 O   0  0  0  0  0  0  0  0  0  0  0  0
    0.4968    0.6052   -0.2742 C   0  0  0  0  0  0  0  0  0  0  0  0
    0.7261    1.7791    0.5803 C   0  0  0  0  0  0  0  0  0  0  0  0
    0.5303    1.8509   -0.8064 O   0  0  0  0  0  0  0  0  0  0  0  0
    2.1705   -0.5931    0.4646 H   0  0  0  0  0  0  0  0  0  0  0  0
    2.3011   -0.1645   -1.2595 H   0  0  0  0  0  0  0  0  0  0  0  0
    0.2085   -1.6495    1.1443 H   0  0  0  0  0  0  0  0  0  0  0  0
   -0.8540   -2.3898   -0.1761 H   0  0  0  0  0  0  0  0  0  0  0  0
   -2.4650    0.9575   -0.7600 H   0  0  0  0  0  0  0  0  0  0  0  0
   -2.7675   -0.8286   -0.4320 H   0  0  0  0  0  0  0  0  0  0  0  0
   -0.1434    2.1064    1.1953 H   0  0  0  0  0  0  0  0  0  0  0  0
    1.7357    1.9238    0.9947 H   0  0  0  0  0  0  0  0  0  0  0  0
  1  2  1  0
  2  3  1  0
  3  4  1  0
  4  5  1  0
  5  6  1  0
  4  7  1  0
  7  8  1  0
  8  9  1  0
  7  1  1  0
  6  4  1  0
  9  7  1  0
  1 10  1  0
  1 11  1  0
  3 12  1  0
  3 13  1  0
  5 14  1  0
  5 15  1  0
  8 16  1  0
  8 17  1  0
M  END
