
     RDKit          3D

 19 21  0  0  0  0  0  0  0  0999 V2000
   -1.1541   -1.3229   -0.2629 C   0  0  0  0  0  0  0  0  0  0  0  0
    0.0626   -1.8531    0.1773 O   0  0  0  0  0  0  0  0  0  0  0  0
    0.8125   -1.0755    0.9937 C   0  0  0  0  0  0  0  0  0  0  0  0
    0.8646    0.4097    0.6436 C   0  0  0  0  0  0  0  0  0  0  0  0
    1.8429    0.7833   -0.4179 C   0  0  0  0  0  0  0  0  0  0  0  0
    1.9186    1.1796    0.9290 O   0  0  0  0  0  0  0  0  0  0  0  0
   -0.5272    0.8081    0.4671 C   0  0  0  0  0  0  0  0  0  0  0  0
   -1.3136    1.3128   -0.5913 C   0  0  0  0  0  0  0  0  0  0  0  0
   -0.8687   -0.0013   -0.8314 C   0  0  0  0  0  0  0  0  0  0  0  0
   -1.5509   -2.0282   -1.0152 H   0  0  0  0  0  0  0  0  0  0  0  0
   -1.8983   -1.2363    0.5603 H   0  0  0  0  0  0  0  0  0  0  0  0
    0.3416   -1.1023    2.0209 H   0  0  0  0  0  0  0  0  0  0  0  0
    1.8028   -1.5060    1.1051 H   0  0  0  0  0  0  0  0  0  0  0  0
    2.5864    0.0379   -0.7690 H   0  0  0  0  0  0  0  0  0  0  0  0
    1.5263    1.5027   -1.1759 H   0  0  0  0  0  0  0  0  0  0  0  0
   -1.1149    0.5288    1.3977 H   0  0  0  0  0  0  0  0  0  0  0  0
   -2.4036    1.4977   -0.4450 H   0  0  0  0  0  0  0  0  0  0  0  0
   -0.8817    2.1633   -1.1834 H   0  0  0  0  0  0  0  0  0  0  0  0
   -0.0454   -0.0985   -1.6027 H   0  0  0  0  0  0  0  0  0  0  0  0
  1  2  1  0
  2  3  1  0
  3  4  1  0
  4  5  1  0
  5  6  1  0
  4  7  1  0
  7  8  1  0
  8  9  1  0
  9  1  1  0
  6  4  1  0
  9  7  1  0
  1 10  1  0
  1 11  1  0
  3 12  1  0
  3 13  1  0
  5 14  1  0
  5 15  1  0
  7 16  1  0
  8 17  1  0
  8 18  1  0
  9 19  1  0
M  END
