
     RDKit          3D

 19 20  0  0  0  0  0  0  0  0999 V2000
    2.3516    0.4063    0.2224 C   0  0  0  0  0  0  0  0  0  0  0  0
    1.8720   -0.6436   -0.5564 O   0  0  0  0  0  0  0  0  0  0  0  0
    0.7581   -1.2284    0.0151 C   0  0  0  0  0  0  0  0  0  0  0  0
   -0.3568   -0.2092   -0.0026 C   0  0  0  0  0  0  0  0  0  0  0  0
   -1.4757   -0.5305   -0.9289 C   0  0  0  0  0  0  0  0  0  0  0  0
   -2.2491    0.1279    0.1899 C   0  0  0  0  0  0  0  0  0  0  0  0
   -1.2465   -0.2942    1.0664 O   0  0  0  0  0  0  0  0  0  0  0  0
    0.2300    1.1632   -0.0848 C   0  0  0  0  0  0  0  0  0  0  0  0
    1.3535    1.1816    0.7702 O   0  0  0  0  0  0  0  0  0  0  0  0
    2.9454    1.0559   -0.4728 H   0  0  0  0  0  0  0  0  0  0  0  0
    2.9981   -0.0552    1.0028 H   0  0  0  0  0  0  0  0  0  0  0  0
    0.4663   -2.0836   -0.6066 H   0  0  0  0  0  0  0  0  0  0  0  0
    0.9134   -1.4991    1.0919 H   0  0  0  0  0  0  0  0  0  0  0  0
   -1.6855   -1.6200   -0.9272 H   0  0  0  0  0  0  0  0  0  0  0  0
   -1.5031   -0.0241   -1.8995 H   0  0  0  0  0  0  0  0  0  0  0  0
   -3.2229   -0.3609    0.3794 H   0  0  0  0  0  0  0  0  0  0  0  0
   -2.3176    1.2080    0.0223 H   0  0  0  0  0  0  0  0  0  0  0  0
   -0.4369    1.9636    0.2904 H   0  0  0  0  0  0  0  0  0  0  0  0
    0.6059    1.4421   -1.0783 H   0  0  0  0  0  0  0  0  0  0  0  0
  1  2  1  0
  2  3  1  0
  3  4  1  0
  4  5  1  0
  5  6  1  0
  6  7  1  0
  4  8  1  0
  8  9  1  0
  9  1  1  0
  7  4  1  0
  1 10  1  0
  1 11  1  0
  3 12  1  0
  3 13  1  0
  5 14  1  0
  5 15  1  0
  6 16  1  0
  6 17  1  0
  8 18  1  0
  8 19  1  0
M  END
