
     RDKit          3D

 17 20  0  0  0  0  0  0  0  0999 V2000
   -1.8507   -0.9260   -0.0269 C   0  0  0  0  0  0  0  0  0  0  0  0
   -0.7806   -1.4129    0.6679 O   0  0  0  0  0  0  0  0  0  0  0  0
    0.0394   -0.3835    1.0870 C   0  0  0  0  0  0  0  0  0  0  0  0
   -0.6468    0.8844    0.6503 C   0  0  0  0  0  0  0  0  0  0  0  0
   -1.4146    0.4570   -0.5055 C   0  0  0  0  0  0  0  0  0  0  0  0
    0.0751    0.6670   -0.7236 C   0  0  0  0  0  0  0  0  0  0  0  0
    1.0642   -0.0858    0.0581 C   0  0  0  0  0  0  0  0  0  0  0  0
    2.3504   -0.4527   -0.1128 C   0  0  0  0  0  0  0  0  0  0  0  0
    2.1144    0.8385    0.5701 O   0  0  0  0  0  0  0  0  0  0  0  0
   -2.1829   -1.5674   -0.8536 H   0  0  0  0  0  0  0  0  0  0  0  0
   -2.6904   -0.7261    0.7007 H   0  0  0  0  0  0  0  0  0  0  0  0
    0.3686   -0.4215    2.1403 H   0  0  0  0  0  0  0  0  0  0  0  0
   -0.4683    1.8459    1.0489 H   0  0  0  0  0  0  0  0  0  0  0  0
   -2.1085    1.0971   -1.0339 H   0  0  0  0  0  0  0  0  0  0  0  0
    0.3213    1.5735   -1.2919 H   0  0  0  0  0  0  0  0  0  0  0  0
    2.8950   -1.0998    0.6082 H   0  0  0  0  0  0  0  0  0  0  0  0
    2.9144   -0.2878   -1.0436 H   0  0  0  0  0  0  0  0  0  0  0  0
  1  2  1  0
  2  3  1  0
  3  4  1  0
  4  5  1  0
  5  6  1  0
  6  7  1  0
  7  8  1  0
  8  9  1  0
  5  1  1  0
  9  7  1  0
  7  3  1  0
  6  4  1  0
  1 10  1  0
  1 11  1  0
  3 12  1  0
  4 13  1  0
  5 14  1  0
  6 15  1  0
  8 16  1  0
  8 17  1  0
M  END
