
     RDKit          3D

 18 20  0  0  0  0  0  0  0  0999 V2000
    2.4169   -0.0803    0.0999 C   0  0  0  0  0  0  0  0  0  0  0  0
    2.1979   -0.0177   -1.2476 O   0  0  0  0  0  0  0  0  0  0  0  0
    1.1624   -0.6741   -0.5192 C   0  0  0  0  0  0  0  0  0  0  0  0
   -0.0548   -0.1514   -0.1756 C   0  0  0  0  0  0  0  0  0  0  0  0
   -0.6709   -0.0793    1.2060 C   0  0  0  0  0  0  0  0  0  0  0  0
   -1.7303    0.4834    0.3062 C   0  0  0  0  0  0  0  0  0  0  0  0
   -1.4047   -0.6696   -0.6111 C   0  0  0  0  0  0  0  0  0  0  0  0
   -0.6082    1.2088   -0.3942 C   0  0  0  0  0  0  0  0  0  0  0  0
    3.1061   -0.8007    0.5568 H   0  0  0  0  0  0  0  0  0  0  0  0
    2.3074    0.8790    0.6428 H   0  0  0  0  0  0  0  0  0  0  0  0
    1.2296   -1.7833   -0.7430 H   0  0  0  0  0  0  0  0  0  0  0  0
   -0.9486   -1.0728    1.5599 H   0  0  0  0  0  0  0  0  0  0  0  0
   -0.1905    0.6072    1.9042 H   0  0  0  0  0  0  0  0  0  0  0  0
   -2.6305    0.8368    0.5449 H   0  0  0  0  0  0  0  0  0  0  0  0
   -1.5846   -0.5080   -1.6791 H   0  0  0  0  0  0  0  0  0  0  0  0
   -1.6584   -1.6421   -0.1822 H   0  0  0  0  0  0  0  0  0  0  0  0
   -0.1247    2.0185    0.1838 H   0  0  0  0  0  0  0  0  0  0  0  0
   -0.8141    1.4455   -1.4523 H   0  0  0  0  0  0  0  0  0  0  0  0
  1  2  1  0
  2  3  1  0
  3  4  1  0
  4  5  1  0
  5  6  1  0
  6  7  1  0
  6  8  1  0
  3  1  1  0
  7  4  1  0
  8  4  1  0
  1  9  1  0
  1 10  1  0
  3 11  1  0
  5 12  1  0
  5 13  1  0
  6 14  1  0
  7 15  1  0
  7 16  1  0
  8 17  1  0
  8 18  1  0
M  END
