
     RDKit          3D

 21 23  0  0  0  0  0  0  0  0999 V2000
    3.1011    0.4837   -0.5221 C   0  0  0  0  0  0  0  0  0  0  0  0
    2.2794    1.6195   -0.0474 O   0  0  0  0  0  0  0  0  0  0  0  0
    2.0432    0.3250    0.5302 C   0  0  0  0  0  0  0  0  0  0  0  0
    0.7876   -0.3418    0.0719 C   0  0  0  0  0  0  0  0  0  0  0  0
   -0.2875   -0.5071    1.1267 C   0  0  0  0  0  0  0  0  0  0  0  0
   -1.2647   -0.1183    0.0739 C   0  0  0  0  0  0  0  0  0  0  0  0
   -2.6146    0.2969    0.2573 C   0  0  0  0  0  0  0  0  0  0  0  0
   -2.2370   -0.9953   -0.5357 C   0  0  0  0  0  0  0  0  0  0  0  0
   -0.1837    0.5973   -0.6575 C   0  0  0  0  0  0  0  0  0  0  0  0
    2.8437    0.3297   -1.5897 H   0  0  0  0  0  0  0  0  0  0  0  0
    4.1590    0.5721   -0.2332 H   0  0  0  0  0  0  0  0  0  0  0  0
    2.4070    0.2138    1.5662 H   0  0  0  0  0  0  0  0  0  0  0  0
    0.9102   -1.2998   -0.4754 H   0  0  0  0  0  0  0  0  0  0  0  0
   -0.2093    0.3221    1.8904 H   0  0  0  0  0  0  0  0  0  0  0  0
   -0.3870   -1.5106    1.5554 H   0  0  0  0  0  0  0  0  0  0  0  0
   -3.0612    1.1109   -0.3758 H   0  0  0  0  0  0  0  0  0  0  0  0
   -3.1568    0.0752    1.2046 H   0  0  0  0  0  0  0  0  0  0  0  0
   -2.5485   -1.9480   -0.1068 H   0  0  0  0  0  0  0  0  0  0  0  0
   -2.3961   -0.9222   -1.6435 H   0  0  0  0  0  0  0  0  0  0  0  0
   -0.1725    0.4367   -1.7364 H   0  0  0  0  0  0  0  0  0  0  0  0
   -0.0122    1.6625   -0.3533 H   0  0  0  0  0  0  0  0  0  0  0  0
  1  2  1  0
  2  3  1  0
  3  4  1  0
  4  5  1  0
  5  6  1  0
  6  7  1  0
  7  8  1  0
  6  9  1  0
  3  1  1  0
  9  4  1  0
  8  6  1  0
  1 10  1  0
  1 11  1  0
  3 12  1  0
  4 13  1  0
  5 14  1  0
  5 15  1  0
  7 16  1  0
  7 17  1  0
  8 18  1  0
  8 19  1  0
  9 20  1  0
  9 21  1  0
M  END
