
     RDKit          3D

 21 23  0  0  0  0  0  0  0  0999 V2000
    1.6591   -0.3842   -0.3022 C   0  0  0  0  0  0  0  0  0  0  0  0
    1.6841    0.5377    0.7387 O   0  0  0  0  0  0  0  0  0  0  0  0
    0.6749    1.4927    0.6439 C   0  0  0  0  0  0  0  0  0  0  0  0
   -0.3935    1.1556   -0.3325 C   0  0  0  0  0  0  0  0  0  0  0  0
   -1.8048    0.9509    0.0455 C   0  0  0  0  0  0  0  0  0  0  0  0
   -1.0373   -0.2093   -0.0062 C   0  0  0  0  0  0  0  0  0  0  0  0
   -0.2875   -0.9489    1.0277 C   0  0  0  0  0  0  0  0  0  0  0  0
    0.5990   -1.4331   -0.1309 C   0  0  0  0  0  0  0  0  0  0  0  0
   -0.6185   -1.1427   -1.0257 C   0  0  0  0  0  0  0  0  0  0  0  0
    1.5603    0.1319   -1.2748 H   0  0  0  0  0  0  0  0  0  0  0  0
    2.6489   -0.9250   -0.2478 H   0  0  0  0  0  0  0  0  0  0  0  0
    0.2575    1.7399    1.6599 H   0  0  0  0  0  0  0  0  0  0  0  0
    1.1651    2.4267    0.2975 H   0  0  0  0  0  0  0  0  0  0  0  0
   -0.1176    1.3327   -1.4040 H   0  0  0  0  0  0  0  0  0  0  0  0
   -2.6082    1.1442   -0.6949 H   0  0  0  0  0  0  0  0  0  0  0  0
   -2.0830    1.3772    1.0512 H   0  0  0  0  0  0  0  0  0  0  0  0
    0.2153   -0.2982    1.7430 H   0  0  0  0  0  0  0  0  0  0  0  0
   -0.8847   -1.7405    1.4906 H   0  0  0  0  0  0  0  0  0  0  0  0
    0.9008   -2.4706   -0.0864 H   0  0  0  0  0  0  0  0  0  0  0  0
   -1.2224   -2.0355   -1.1994 H   0  0  0  0  0  0  0  0  0  0  0  0
   -0.3075   -0.7015   -1.9932 H   0  0  0  0  0  0  0  0  0  0  0  0
  1  2  1  0
  2  3  1  0
  3  4  1  0
  4  5  1  0
  5  6  1  0
  6  7  1  0
  7  8  1  0
  8  9  1  0
  8  1  1  0
  6  4  1  0
  9  6  1  0
  1 10  1  0
  1 11  1  0
  3 12  1  0
  3 13  1  0
  4 14  1  0
  5 15  1  0
  5 16  1  0
  7 17  1  0
  7 18  1  0
  8 19  1  0
  9 20  1  0
  9 21  1  0
M  END
