
     RDKit          3D

 17 20  0  0  0  0  0  0  0  0999 V2000
    1.6643    0.0720    0.5286 C   0  0  0  0  0  0  0  0  0  0  0  0
    1.5270    1.4428    0.2923 O   0  0  0  0  0  0  0  0  0  0  0  0
    0.3880    1.1988   -0.4418 C   0  0  0  0  0  0  0  0  0  0  0  0
    0.8920   -0.1691   -0.7593 C   0  0  0  0  0  0  0  0  0  0  0  0
   -0.2394   -1.1355   -0.4852 C   0  0  0  0  0  0  0  0  0  0  0  0
   -1.6446   -0.6862   -0.4963 C   0  0  0  0  0  0  0  0  0  0  0  0
   -1.9173    0.6610   -0.5580 O   0  0  0  0  0  0  0  0  0  0  0  0
   -0.8735    0.9442    0.3541 C   0  0  0  0  0  0  0  0  0  0  0  0
   -0.8529   -0.4962    0.7001 C   0  0  0  0  0  0  0  0  0  0  0  0
    1.1023   -0.1943    1.4344 H   0  0  0  0  0  0  0  0  0  0  0  0
    2.6895   -0.3132    0.5350 H   0  0  0  0  0  0  0  0  0  0  0  0
    0.2739    1.8761   -1.3032 H   0  0  0  0  0  0  0  0  0  0  0  0
    1.4718   -0.3220   -1.6544 H   0  0  0  0  0  0  0  0  0  0  0  0
    0.0245   -2.1847   -0.4010 H   0  0  0  0  0  0  0  0  0  0  0  0
   -2.4256   -1.4379   -0.5346 H   0  0  0  0  0  0  0  0  0  0  0  0
   -1.1152    1.6691    1.1266 H   0  0  0  0  0  0  0  0  0  0  0  0
   -0.9649   -0.9248    1.6626 H   0  0  0  0  0  0  0  0  0  0  0  0
  1  2  1  0
  2  3  1  0
  3  4  1  0
  4  5  1  0
  5  6  1  0
  6  7  1  0
  7  8  1  0
  8  9  1  0
  4  1  1  0
  9  5  1  0
  8  3  1  0
  9  6  1  0
  1 10  1  0
  1 11  1  0
  3 12  1  0
  4 13  1  0
  5 14  1  0
  6 15  1  0
  8 16  1  0
  9 17  1  0
M  END
