
     RDKit          3D

 21 23  0  0  0  0  0  0  0  0999 V2000
   -1.3149   -1.2792   -0.0101 C   0  0  0  0  0  0  0  0  0  0  0  0
   -0.0031   -1.5334   -0.3104 O   0  0  0  0  0  0  0  0  0  0  0  0
    0.6352   -0.4832   -0.9570 C   0  0  0  0  0  0  0  0  0  0  0  0
    2.1424   -0.5910   -0.6723 C   0  0  0  0  0  0  0  0  0  0  0  0
    1.7719   -0.0365    0.7121 C   0  0  0  0  0  0  0  0  0  0  0  0
    0.6986    0.7418   -0.0620 C   0  0  0  0  0  0  0  0  0  0  0  0
   -0.5510    1.0155    0.6720 C   0  0  0  0  0  0  0  0  0  0  0  0
   -1.8054    1.2551   -0.0824 C   0  0  0  0  0  0  0  0  0  0  0  0
   -1.5512   -0.0210    0.7576 C   0  0  0  0  0  0  0  0  0  0  0  0
   -1.8743   -1.2283   -0.9878 H   0  0  0  0  0  0  0  0  0  0  0  0
   -1.7012   -2.1241    0.5895 H   0  0  0  0  0  0  0  0  0  0  0  0
    0.3766   -0.3002   -1.9928 H   0  0  0  0  0  0  0  0  0  0  0  0
    2.6845    0.1848   -1.2263 H   0  0  0  0  0  0  0  0  0  0  0  0
    2.5349   -1.6044   -0.6711 H   0  0  0  0  0  0  0  0  0  0  0  0
    1.2803   -0.8150    1.3130 H   0  0  0  0  0  0  0  0  0  0  0  0
    2.5378    0.5755    1.1822 H   0  0  0  0  0  0  0  0  0  0  0  0
    1.1457    1.5802   -0.6505 H   0  0  0  0  0  0  0  0  0  0  0  0
   -0.4101    1.6629    1.5851 H   0  0  0  0  0  0  0  0  0  0  0  0
   -2.5233    1.9858    0.3082 H   0  0  0  0  0  0  0  0  0  0  0  0
   -1.8739    1.0771   -1.1779 H   0  0  0  0  0  0  0  0  0  0  0  0
   -2.1994   -0.0622    1.6809 H   0  0  0  0  0  0  0  0  0  0  0  0
  1  2  1  0
  2  3  1  0
  3  4  1  0
  4  5  1  0
  5  6  1  0
  6  7  1  0
  7  8  1  0
  8  9  1  0
  9  1  1  0
  6  3  1  0
  9  7  1  0
  1 10  1  0
  1 11  1  0
  3 12  1  0
  4 13  1  0
  4 14  1  0
  5 15  1  0
  5 16  1  0
  6 17  1  0
  7 18  1  0
  8 19  1  0
  8 20  1  0
  9 21  1  0
M  END
