
     RDKit          3D

 17 19  0  0  0  0  0  0  0  0999 V2000
    1.8980   -0.1428   -0.1744 C   0  0  0  0  0  0  0  0  0  0  0  0
    1.1034   -1.0856   -0.7724 O   0  0  0  0  0  0  0  0  0  0  0  0
   -0.2248   -0.9811   -0.4916 C   0  0  0  0  0  0  0  0  0  0  0  0
   -0.8476    0.3209   -1.0098 C   0  0  0  0  0  0  0  0  0  0  0  0
   -1.7551    0.2169    0.2267 C   0  0  0  0  0  0  0  0  0  0  0  0
   -0.5512   -0.4813    0.8828 C   0  0  0  0  0  0  0  0  0  0  0  0
    0.2660    0.5431    1.3179 O   0  0  0  0  0  0  0  0  0  0  0  0
    0.9704    1.0242    0.1924 C   0  0  0  0  0  0  0  0  0  0  0  0
    0.0961    1.3085   -0.8386 O   0  0  0  0  0  0  0  0  0  0  0  0
    2.7663    0.1816   -0.7401 H   0  0  0  0  0  0  0  0  0  0  0  0
    2.2728   -0.5963    0.7897 H   0  0  0  0  0  0  0  0  0  0  0  0
   -0.8217   -1.8592   -0.7411 H   0  0  0  0  0  0  0  0  0  0  0  0
   -1.3561    0.2481   -1.9638 H   0  0  0  0  0  0  0  0  0  0  0  0
   -2.5405   -0.5302    0.0697 H   0  0  0  0  0  0  0  0  0  0  0  0
   -2.0223    1.1749    0.6635 H   0  0  0  0  0  0  0  0  0  0  0  0
   -0.8178   -1.2515    1.6123 H   0  0  0  0  0  0  0  0  0  0  0  0
    1.5639    1.9096    0.4244 H   0  0  0  0  0  0  0  0  0  0  0  0
  1  2  1  0
  2  3  1  0
  3  4  1  0
  4  5  1  0
  5  6  1  0
  6  7  1  0
  7  8  1  0
  8  9  1  0
  8  1  1  0
  6  3  1  0
  9  4  1  0
  1 10  1  0
  1 11  1  0
  3 12  1  0
  4 13  1  0
  5 14  1  0
  5 15  1  0
  6 16  1  0
  8 17  1  0
M  END
