
     RDKit          3D

 21 22  0  0  0  0  0  0  0  0999 V2000
   -1.1878   -1.2256   -0.4303 C   0  0  0  0  0  0  0  0  0  0  0  0
   -0.1134   -1.1126   -1.3278 O   0  0  0  0  0  0  0  0  0  0  0  0
    1.0457   -1.2862   -0.5498 C   0  0  0  0  0  0  0  0  0  0  0  0
    1.2277   -0.0661    0.3320 C   0  0  0  0  0  0  0  0  0  0  0  0
    1.1656    1.1456   -0.6087 C   0  0  0  0  0  0  0  0  0  0  0  0
   -0.0158    1.0961   -1.3229 O   0  0  0  0  0  0  0  0  0  0  0  0
   -1.1350    1.2098   -0.5165 C   0  0  0  0  0  0  0  0  0  0  0  0
   -1.1963    0.0080    0.4383 C   0  0  0  0  0  0  0  0  0  0  0  0
    0.0597    0.1210    1.2801 C   0  0  0  0  0  0  0  0  0  0  0  0
   -2.1052   -1.1960   -1.0447 H   0  0  0  0  0  0  0  0  0  0  0  0
   -1.1731   -2.1651    0.1314 H   0  0  0  0  0  0  0  0  0  0  0  0
    1.9003   -1.3300   -1.2362 H   0  0  0  0  0  0  0  0  0  0  0  0
    1.0095   -2.2175    0.0456 H   0  0  0  0  0  0  0  0  0  0  0  0
    2.1872   -0.1253    0.8486 H   0  0  0  0  0  0  0  0  0  0  0  0
    1.2610    2.0317    0.0424 H   0  0  0  0  0  0  0  0  0  0  0  0
    2.0143    1.0460   -1.2867 H   0  0  0  0  0  0  0  0  0  0  0  0
   -2.0373    1.2146   -1.1324 H   0  0  0  0  0  0  0  0  0  0  0  0
   -1.0477    2.1169    0.1351 H   0  0  0  0  0  0  0  0  0  0  0  0
   -2.0617    0.0745    1.0976 H   0  0  0  0  0  0  0  0  0  0  0  0
    0.0769   -0.5340    2.1416 H   0  0  0  0  0  0  0  0  0  0  0  0
    0.1254    1.1942    1.6242 H   0  0  0  0  0  0  0  0  0  0  0  0
  1  2  1  0
  2  3  1  0
  3  4  1  0
  4  5  1  0
  5  6  1  0
  6  7  1  0
  7  8  1  0
  8  9  1  0
  8  1  1  0
  9  4  1  0
  1 10  1  0
  1 11  1  0
  3 12  1  0
  3 13  1  0
  4 14  1  0
  5 15  1  0
  5 16  1  0
  7 17  1  0
  7 18  1  0
  8 19  1  0
  9 20  1  0
  9 21  1  0
M  END
