
     RDKit          3D

 17 19  0  0  0  0  0  0  0  0999 V2000
    1.8077   -0.1401    0.0177 C   0  0  0  0  0  0  0  0  0  0  0  0
    1.2201    0.0207   -1.2010 O   0  0  0  0  0  0  0  0  0  0  0  0
   -0.1423    0.1436   -1.1921 C   0  0  0  0  0  0  0  0  0  0  0  0
   -0.4832    1.2630   -0.1927 C   0  0  0  0  0  0  0  0  0  0  0  0
   -1.0321    0.3660    0.8945 C   0  0  0  0  0  0  0  0  0  0  0  0
   -1.9567   -0.3905    0.1361 O   0  0  0  0  0  0  0  0  0  0  0  0
   -0.8314   -0.9821   -0.4442 C   0  0  0  0  0  0  0  0  0  0  0  0
   -0.2048   -0.8728    0.9165 C   0  0  0  0  0  0  0  0  0  0  0  0
    1.1260   -0.8169    0.9627 O   0  0  0  0  0  0  0  0  0  0  0  0
    2.7899   -0.6741   -0.1557 H   0  0  0  0  0  0  0  0  0  0  0  0
    2.1314    0.8440    0.4709 H   0  0  0  0  0  0  0  0  0  0  0  0
   -0.5433    0.3231   -2.1775 H   0  0  0  0  0  0  0  0  0  0  0  0
    0.3876    1.8345    0.1004 H   0  0  0  0  0  0  0  0  0  0  0  0
   -1.3179    1.8260   -0.6180 H   0  0  0  0  0  0  0  0  0  0  0  0
   -1.3857    0.8055    1.8000 H   0  0  0  0  0  0  0  0  0  0  0  0
   -0.9273   -1.9288   -0.9126 H   0  0  0  0  0  0  0  0  0  0  0  0
   -0.6378   -1.6210    1.5950 H   0  0  0  0  0  0  0  0  0  0  0  0
  1  2  1  0
  2  3  1  0
  3  4  1  0
  4  5  1  0
  5  6  1  0
  6  7  1  0
  7  8  1  0
  8  9  1  0
  9  1  1  0
  7  3  1  0
  8  5  1  0
  1 10  1  0
  1 11  1  0
  3 12  1  0
  4 13  1  0
  4 14  1  0
  5 15  1  0
  7 16  1  0
  8 17  1  0
M  END
