
     RDKit          3D

 17 19  0  0  0  0  0  0  0  0999 V2000
   -1.7788   -0.6047   -0.2140 C   0  0  0  0  0  0  0  0  0  0  0  0
   -1.7811    0.7778   -0.4573 O   0  0  0  0  0  0  0  0  0  0  0  0
   -0.6312    1.2856    0.1309 C   0  0  0  0  0  0  0  0  0  0  0  0
   -0.4558    0.4391    1.2528 O   0  0  0  0  0  0  0  0  0  0  0  0
   -0.4869   -0.7879    0.5424 C   0  0  0  0  0  0  0  0  0  0  0  0
    0.6907   -0.5901   -0.3707 C   0  0  0  0  0  0  0  0  0  0  0  0
    1.9019   -0.1755    0.3944 C   0  0  0  0  0  0  0  0  0  0  0  0
    1.7930    1.0873   -0.1643 O   0  0  0  0  0  0  0  0  0  0  0  0
    0.5494    0.8934   -0.7126 C   0  0  0  0  0  0  0  0  0  0  0  0
   -2.6017   -0.7851    0.5059 H   0  0  0  0  0  0  0  0  0  0  0  0
   -1.8508   -1.1989   -1.1243 H   0  0  0  0  0  0  0  0  0  0  0  0
   -0.6880    2.3316    0.3939 H   0  0  0  0  0  0  0  0  0  0  0  0
   -0.4444   -1.6530    1.1828 H   0  0  0  0  0  0  0  0  0  0  0  0
    0.8038   -1.2618   -1.2091 H   0  0  0  0  0  0  0  0  0  0  0  0
    2.7822   -0.7648    0.1353 H   0  0  0  0  0  0  0  0  0  0  0  0
    1.7598   -0.1014    1.4967 H   0  0  0  0  0  0  0  0  0  0  0  0
    0.4380    1.1083   -1.7826 H   0  0  0  0  0  0  0  0  0  0  0  0
  1  2  1  0
  2  3  1  0
  3  4  1  0
  4  5  1  0
  5  6  1  0
  6  7  1  0
  7  8  1  0
  8  9  1  0
  5  1  1  0
  9  6  1  0
  9  3  1  0
  1 10  1  0
  1 11  1  0
  3 12  1  0
  5 13  1  0
  6 14  1  0
  7 15  1  0
  7 16  1  0
  9 17  1  0
M  END
