
     RDKit          3D

 19 21  0  0  0  0  0  0  0  0999 V2000
   -2.0301   -0.2356    0.1536 C   0  0  0  0  0  0  0  0  0  0  0  0
   -1.9269    0.9541   -0.5225 O   0  0  0  0  0  0  0  0  0  0  0  0
   -0.7670    1.5877   -0.1331 C   0  0  0  0  0  0  0  0  0  0  0  0
    0.1709    0.5636    0.4166 C   0  0  0  0  0  0  0  0  0  0  0  0
   -0.6660   -0.7116    0.5146 C   0  0  0  0  0  0  0  0  0  0  0  0
    0.1389   -1.3076   -0.6482 C   0  0  0  0  0  0  0  0  0  0  0  0
    1.0503   -0.1533   -0.5409 C   0  0  0  0  0  0  0  0  0  0  0  0
    2.4351   -0.0769   -0.5268 C   0  0  0  0  0  0  0  0  0  0  0  0
    1.6786    0.4359   -1.5836 O   0  0  0  0  0  0  0  0  0  0  0  0
   -2.6286   -0.1728    1.0906 H   0  0  0  0  0  0  0  0  0  0  0  0
   -2.4658   -0.9828   -0.5629 H   0  0  0  0  0  0  0  0  0  0  0  0
   -0.9541    2.3499    0.6683 H   0  0  0  0  0  0  0  0  0  0  0  0
   -0.2459    2.0926   -0.9842 H   0  0  0  0  0  0  0  0  0  0  0  0
    0.6907    0.8367    1.3600 H   0  0  0  0  0  0  0  0  0  0  0  0
   -0.5393   -1.2805    1.4356 H   0  0  0  0  0  0  0  0  0  0  0  0
    0.5261   -2.3083   -0.3858 H   0  0  0  0  0  0  0  0  0  0  0  0
   -0.5259   -1.3485   -1.5574 H   0  0  0  0  0  0  0  0  0  0  0  0
    2.9784    0.7280    0.0258 H   0  0  0  0  0  0  0  0  0  0  0  0
    3.0807   -0.9705   -0.7135 H   0  0  0  0  0  0  0  0  0  0  0  0
  1  2  1  0
  2  3  1  0
  3  4  1  0
  4  5  1  0
  5  6  1  0
  6  7  1  0
  7  8  1  0
  8  9  1  0
  5  1  1  0
  9  7  1  0
  7  4  1  0
  1 10  1  0
  1 11  1  0
  3 12  1  0
  3 13  1  0
  4 14  1  0
  5 15  1  0
  6 16  1  0
  6 17  1  0
  8 18  1  0
  8 19  1  0
M  END
