
     RDKit          3D

 15 18  0  0  0  0  0  0  0  0999 V2000
    2.0498    0.1004    0.0320 C   0  0  0  0  0  0  0  0  0  0  0  0
    1.3552    0.8932   -0.9746 O   0  0  0  0  0  0  0  0  0  0  0  0
    0.7342   -0.1043   -0.0601 C   0  0  0  0  0  0  0  0  0  0  0  0
   -0.1526   -1.0062   -0.8243 C   0  0  0  0  0  0  0  0  0  0  0  0
   -1.0700   -0.0860   -1.3722 O   0  0  0  0  0  0  0  0  0  0  0  0
   -1.4722    0.5994   -0.2166 C   0  0  0  0  0  0  0  0  0  0  0  0
   -1.3994   -0.3987    0.8348 C   0  0  0  0  0  0  0  0  0  0  0  0
   -0.9419   -1.5627    0.1833 O   0  0  0  0  0  0  0  0  0  0  0  0
   -0.3390    0.6275    0.7361 C   0  0  0  0  0  0  0  0  0  0  0  0
    2.8334   -0.5239   -0.4528 H   0  0  0  0  0  0  0  0  0  0  0  0
    2.4922    0.8147    0.7852 H   0  0  0  0  0  0  0  0  0  0  0  0
    0.2757   -1.6877   -1.5201 H   0  0  0  0  0  0  0  0  0  0  0  0
   -2.1757    1.4247   -0.2810 H   0  0  0  0  0  0  0  0  0  0  0  0
   -2.0685   -0.4847    1.6882 H   0  0  0  0  0  0  0  0  0  0  0  0
   -0.1213    1.3942    1.4421 H   0  0  0  0  0  0  0  0  0  0  0  0
  1  2  1  0
  2  3  1  0
  3  4  1  0
  4  5  1  0
  5  6  1  0
  6  7  1  0
  7  8  1  0
  7  9  1  0
  3  1  1  0
  8  4  1  0
  9  3  1  0
  9  6  1  0
  1 10  1  0
  1 11  1  0
  4 12  1  0
  6 13  1  0
  7 14  1  0
  9 15  1  0
M  END
