
     RDKit          3D

 19 21  0  0  0  0  0  0  0  0999 V2000
   -1.2300    1.3667    0.4173 C   0  0  0  0  0  0  0  0  0  0  0  0
   -1.9904    0.5537   -0.3798 O   0  0  0  0  0  0  0  0  0  0  0  0
   -1.5118   -0.7209   -0.3350 C   0  0  0  0  0  0  0  0  0  0  0  0
   -0.2721   -0.7697    0.4756 C   0  0  0  0  0  0  0  0  0  0  0  0
    0.0975    0.6801    0.6498 C   0  0  0  0  0  0  0  0  0  0  0  0
    1.0628    0.9153   -0.4650 C   0  0  0  0  0  0  0  0  0  0  0  0
    1.8251   -0.3786   -0.5323 C   0  0  0  0  0  0  0  0  0  0  0  0
    1.2900   -1.2871   -1.4163 O   0  0  0  0  0  0  0  0  0  0  0  0
    0.8750   -1.4786   -0.1303 C   0  0  0  0  0  0  0  0  0  0  0  0
   -1.7780    1.5074    1.3778 H   0  0  0  0  0  0  0  0  0  0  0  0
   -1.0999    2.3465   -0.1036 H   0  0  0  0  0  0  0  0  0  0  0  0
   -1.3673   -1.0759   -1.3867 H   0  0  0  0  0  0  0  0  0  0  0  0
   -2.2784   -1.3721    0.1799 H   0  0  0  0  0  0  0  0  0  0  0  0
   -0.4280   -1.1803    1.5080 H   0  0  0  0  0  0  0  0  0  0  0  0
    0.5456    0.9159    1.6189 H   0  0  0  0  0  0  0  0  0  0  0  0
    0.4591    1.0880   -1.3940 H   0  0  0  0  0  0  0  0  0  0  0  0
    1.7225    1.7676   -0.3441 H   0  0  0  0  0  0  0  0  0  0  0  0
    2.8133   -0.4863   -0.0977 H   0  0  0  0  0  0  0  0  0  0  0  0
    1.2653   -2.3917    0.3576 H   0  0  0  0  0  0  0  0  0  0  0  0
  1  2  1  0
  2  3  1  0
  3  4  1  0
  4  5  1  0
  5  6  1  0
  6  7  1  0
  7  8  1  0
  8  9  1  0
  5  1  1  0
  9  7  1  0
  9  4  1  0
  1 10  1  0
  1 11  1  0
  3 12  1  0
  3 13  1  0
  4 14  1  0
  5 15  1  0
  6 16  1  0
  6 17  1  0
  7 18  1  0
  9 19  1  0
M  END
