
     RDKit          3D

 19 21  0  0  0  0  0  0  0  0999 V2000
    1.4398   -0.1917    1.1265 C   0  0  0  0  0  0  0  0  0  0  0  0
    0.4318    0.6000    1.6113 O   0  0  0  0  0  0  0  0  0  0  0  0
   -0.8084    0.2212    1.2401 C   0  0  0  0  0  0  0  0  0  0  0  0
   -1.3381    0.7123   -0.0519 C   0  0  0  0  0  0  0  0  0  0  0  0
   -0.3795    1.2968   -1.0494 C   0  0  0  0  0  0  0  0  0  0  0  0
    0.9413    1.1174   -0.7442 O   0  0  0  0  0  0  0  0  0  0  0  0
    1.3017   -0.1608   -0.4016 C   0  0  0  0  0  0  0  0  0  0  0  0
    0.1416   -1.0855   -0.6917 C   0  0  0  0  0  0  0  0  0  0  0  0
   -0.9950   -0.7490    0.1891 C   0  0  0  0  0  0  0  0  0  0  0  0
    1.2338   -1.2404    1.4857 H   0  0  0  0  0  0  0  0  0  0  0  0
    2.4310    0.0841    1.4649 H   0  0  0  0  0  0  0  0  0  0  0  0
   -1.5660    0.2119    2.0686 H   0  0  0  0  0  0  0  0  0  0  0  0
   -2.3890    0.9465   -0.2057 H   0  0  0  0  0  0  0  0  0  0  0  0
   -0.5712    2.4087   -1.0474 H   0  0  0  0  0  0  0  0  0  0  0  0
   -0.6391    0.9855   -2.1015 H   0  0  0  0  0  0  0  0  0  0  0  0
    2.2386   -0.4774   -0.8905 H   0  0  0  0  0  0  0  0  0  0  0  0
    0.4793   -2.1251   -0.4901 H   0  0  0  0  0  0  0  0  0  0  0  0
   -0.1534   -1.0637   -1.7625 H   0  0  0  0  0  0  0  0  0  0  0  0
   -1.7992   -1.4908    0.2505 H   0  0  0  0  0  0  0  0  0  0  0  0
  1  2  1  0
  2  3  1  0
  3  4  1  0
  4  5  1  0
  5  6  1  0
  6  7  1  0
  7  8  1  0
  8  9  1  0
  7  1  1  0
  9  3  1  0
  9  4  1  0
  1 10  1  0
  1 11  1  0
  3 12  1  0
  4 13  1  0
  5 14  1  0
  5 15  1  0
  7 16  1  0
  8 17  1  0
  8 18  1  0
  9 19  1  0
M  END
