
     RDKit          3D

 19 21  0  0  0  0  0  0  0  0999 V2000
    1.6315   -0.0080    0.4282 C   0  0  0  0  0  0  0  0  0  0  0  0
    1.5407    1.3843    0.6165 O   0  0  0  0  0  0  0  0  0  0  0  0
    0.3600    1.8213   -0.0291 C   0  0  0  0  0  0  0  0  0  0  0  0
   -0.4112    0.6697   -0.2519 C   0  0  0  0  0  0  0  0  0  0  0  0
   -1.2218    0.0230    0.8428 C   0  0  0  0  0  0  0  0  0  0  0  0
   -1.5206   -0.8350   -0.3567 C   0  0  0  0  0  0  0  0  0  0  0  0
   -0.1768   -1.5727   -0.4714 C   0  0  0  0  0  0  0  0  0  0  0  0
    0.6803   -0.3648   -0.6219 C   0  0  0  0  0  0  0  0  0  0  0  0
   -1.3551    0.3511   -1.1154 O   0  0  0  0  0  0  0  0  0  0  0  0
    2.6797   -0.1675    0.0376 H   0  0  0  0  0  0  0  0  0  0  0  0
    1.5681   -0.5704    1.3576 H   0  0  0  0  0  0  0  0  0  0  0  0
    0.5955    2.3984   -0.9212 H   0  0  0  0  0  0  0  0  0  0  0  0
   -0.0907    2.5546    0.7034 H   0  0  0  0  0  0  0  0  0  0  0  0
   -2.0764    0.6447    1.0948 H   0  0  0  0  0  0  0  0  0  0  0  0
   -0.6645   -0.4472    1.6552 H   0  0  0  0  0  0  0  0  0  0  0  0
   -2.4134   -1.3784   -0.4381 H   0  0  0  0  0  0  0  0  0  0  0  0
   -0.1552   -2.2039   -1.3636 H   0  0  0  0  0  0  0  0  0  0  0  0
   -0.0098   -2.1139    0.4803 H   0  0  0  0  0  0  0  0  0  0  0  0
    1.0398   -0.1853   -1.6473 H   0  0  0  0  0  0  0  0  0  0  0  0
  1  2  1  0
  2  3  1  0
  3  4  1  0
  4  5  1  0
  5  6  1  0
  6  7  1  0
  7  8  1  0
  6  9  1  0
  8  1  1  0
  8  4  1  0
  9  4  1  0
  1 10  1  0
  1 11  1  0
  3 12  1  0
  3 13  1  0
  5 14  1  0
  5 15  1  0
  6 16  1  0
  7 17  1  0
  7 18  1  0
  8 19  1  0
M  END
