
     RDKit          3D

 19 21  0  0  0  0  0  0  0  0999 V2000
    2.1980    0.4020    0.3254 C   0  0  0  0  0  0  0  0  0  0  0  0
    1.9103   -0.9079    0.1264 O   0  0  0  0  0  0  0  0  0  0  0  0
    0.7152   -1.1682   -0.5129 C   0  0  0  0  0  0  0  0  0  0  0  0
   -0.3627   -0.5386    0.2727 C   0  0  0  0  0  0  0  0  0  0  0  0
   -1.7013   -1.0523    0.4840 C   0  0  0  0  0  0  0  0  0  0  0  0
   -1.5547   -0.0397   -0.5773 C   0  0  0  0  0  0  0  0  0  0  0  0
   -1.0241    1.3264   -0.3467 C   0  0  0  0  0  0  0  0  0  0  0  0
   -0.0542    0.8391    0.7385 C   0  0  0  0  0  0  0  0  0  0  0  0
    1.2142    1.2629    0.5988 O   0  0  0  0  0  0  0  0  0  0  0  0
    2.7644    0.7686   -0.5818 H   0  0  0  0  0  0  0  0  0  0  0  0
    2.9711    0.4553    1.1497 H   0  0  0  0  0  0  0  0  0  0  0  0
    0.5792   -2.2360   -0.6503 H   0  0  0  0  0  0  0  0  0  0  0  0
    0.7354   -0.7004   -1.5355 H   0  0  0  0  0  0  0  0  0  0  0  0
   -2.1875   -0.7645    1.4635 H   0  0  0  0  0  0  0  0  0  0  0  0
   -1.9305   -2.0728    0.1911 H   0  0  0  0  0  0  0  0  0  0  0  0
   -1.6116   -0.3962   -1.6170 H   0  0  0  0  0  0  0  0  0  0  0  0
   -0.4014    1.6664   -1.2196 H   0  0  0  0  0  0  0  0  0  0  0  0
   -1.7063    2.1145   -0.0375 H   0  0  0  0  0  0  0  0  0  0  0  0
   -0.5535    1.0415    1.7286 H   0  0  0  0  0  0  0  0  0  0  0  0
  1  2  1  0
  2  3  1  0
  3  4  1  0
  4  5  1  0
  5  6  1  0
  6  7  1  0
  7  8  1  0
  8  9  1  0
  9  1  1  0
  6  4  1  0
  8  4  1  0
  1 10  1  0
  1 11  1  0
  3 12  1  0
  3 13  1  0
  5 14  1  0
  5 15  1  0
  6 16  1  0
  7 17  1  0
  7 18  1  0
  8 19  1  0
M  END
