
     RDKit          3D

 17 19  0  0  0  0  0  0  0  0999 V2000
   -1.5399   -0.8668   -0.5496 C   0  0  0  0  0  0  0  0  0  0  0  0
   -0.2701   -1.1439   -0.7960 O   0  0  0  0  0  0  0  0  0  0  0  0
    0.7000   -0.1941   -0.8286 C   0  0  0  0  0  0  0  0  0  0  0  0
    1.7759   -0.4165    0.2637 C   0  0  0  0  0  0  0  0  0  0  0  0
    1.4762    0.5731    1.2424 O   0  0  0  0  0  0  0  0  0  0  0  0
    0.1095    0.5323    1.2224 C   0  0  0  0  0  0  0  0  0  0  0  0
   -0.9873    1.1119    0.5348 C   0  0  0  0  0  0  0  0  0  0  0  0
   -1.9752    0.3674   -0.1702 O   0  0  0  0  0  0  0  0  0  0  0  0
    0.1506    1.0630   -0.2704 C   0  0  0  0  0  0  0  0  0  0  0  0
   -1.9252   -1.5912    0.2332 H   0  0  0  0  0  0  0  0  0  0  0  0
   -2.1575   -1.1532   -1.4577 H   0  0  0  0  0  0  0  0  0  0  0  0
    1.1599   -0.0769   -1.8122 H   0  0  0  0  0  0  0  0  0  0  0  0
    1.5181   -1.3722    0.7345 H   0  0  0  0  0  0  0  0  0  0  0  0
    2.7762   -0.3222   -0.1284 H   0  0  0  0  0  0  0  0  0  0  0  0
   -0.1376   -0.5673    1.3728 H   0  0  0  0  0  0  0  0  0  0  0  0
   -1.3951    2.0805    0.8579 H   0  0  0  0  0  0  0  0  0  0  0  0
    0.7216    1.9763   -0.4487 H   0  0  0  0  0  0  0  0  0  0  0  0
  1  2  1  0
  2  3  1  0
  3  4  1  0
  4  5  1  0
  5  6  1  0
  6  7  1  0
  7  8  1  0
  7  9  1  0
  8  1  1  0
  9  3  1  0
  9  6  1  0
  1 10  1  0
  1 11  1  0
  3 12  1  0
  4 13  1  0
  4 14  1  0
  6 15  1  0
  7 16  1  0
  9 17  1  0
M  END
