
     RDKit          3D

 18 20  0  0  0  0  0  0  0  0999 V2000
    1.9328   -0.7018    0.0147 C   0  0  0  0  0  0  0  0  0  0  0  0
    1.7008    0.0668    1.1854 O   0  0  0  0  0  0  0  0  0  0  0  0
    0.4082    0.4781    1.0253 C   0  0  0  0  0  0  0  0  0  0  0  0
   -0.3365   -0.7874    0.5721 C   0  0  0  0  0  0  0  0  0  0  0  0
   -1.6719   -0.2460    0.1779 C   0  0  0  0  0  0  0  0  0  0  0  0
   -1.2111    0.9613   -0.6646 C   0  0  0  0  0  0  0  0  0  0  0  0
    0.2642    0.8473   -0.4583 C   0  0  0  0  0  0  0  0  0  0  0  0
    0.5768   -0.6269   -0.6220 C   0  0  0  0  0  0  0  0  0  0  0  0
    2.2797   -1.7083    0.2435 H   0  0  0  0  0  0  0  0  0  0  0  0
    2.6313   -0.1197   -0.6370 H   0  0  0  0  0  0  0  0  0  0  0  0
   -0.0780    1.1012    1.7324 H   0  0  0  0  0  0  0  0  0  0  0  0
   -0.2505   -1.6499    1.1846 H   0  0  0  0  0  0  0  0  0  0  0  0
   -2.1602    0.1636    1.0773 H   0  0  0  0  0  0  0  0  0  0  0  0
   -2.2898   -0.9216   -0.4151 H   0  0  0  0  0  0  0  0  0  0  0  0
   -1.4471    0.7996   -1.7380 H   0  0  0  0  0  0  0  0  0  0  0  0
   -1.6449    1.8925   -0.2966 H   0  0  0  0  0  0  0  0  0  0  0  0
    0.9346    1.5667   -0.8530 H   0  0  0  0  0  0  0  0  0  0  0  0
    0.3616   -1.1154   -1.5287 H   0  0  0  0  0  0  0  0  0  0  0  0
  1  2  1  0
  2  3  1  0
  3  4  1  0
  4  5  1  0
  5  6  1  0
  6  7  1  0
  7  8  1  0
  8  1  1  0
  7  3  1  0
  8  4  1  0
  1  9  1  0
  1 10  1  0
  3 11  1  0
  4 12  1  0
  5 13  1  0
  5 14  1  0
  6 15  1  0
  6 16  1  0
  7 17  1  0
  8 18  1  0
M  END
