
     RDKit          3D

 17 19  0  0  0  0  0  0  0  0999 V2000
   -2.1040   -0.1653   -0.6634 C   0  0  0  0  0  0  0  0  0  0  0  0
   -1.3827   -1.3713   -0.6575 O   0  0  0  0  0  0  0  0  0  0  0  0
   -0.4323   -0.8964    0.2445 C   0  0  0  0  0  0  0  0  0  0  0  0
   -0.9434    0.4736    0.0384 C   0  0  0  0  0  0  0  0  0  0  0  0
   -0.1638    1.2608   -0.8085 O   0  0  0  0  0  0  0  0  0  0  0  0
    1.1068    1.3215   -0.2042 C   0  0  0  0  0  0  0  0  0  0  0  0
    1.7906    0.0217   -0.4830 C   0  0  0  0  0  0  0  0  0  0  0  0
    1.3186   -0.8509   -1.4354 O   0  0  0  0  0  0  0  0  0  0  0  0
    0.9942   -1.1183   -0.1136 C   0  0  0  0  0  0  0  0  0  0  0  0
   -2.2964    0.1499   -1.6992 H   0  0  0  0  0  0  0  0  0  0  0  0
   -3.0182   -0.1708   -0.0511 H   0  0  0  0  0  0  0  0  0  0  0  0
   -0.6597   -1.3087    1.2506 H   0  0  0  0  0  0  0  0  0  0  0  0
   -1.1824    0.9932    0.9999 H   0  0  0  0  0  0  0  0  0  0  0  0
    0.9604    1.3906    0.9002 H   0  0  0  0  0  0  0  0  0  0  0  0
    1.6130    2.2075   -0.5778 H   0  0  0  0  0  0  0  0  0  0  0  0
    2.8792    0.0282   -0.2838 H   0  0  0  0  0  0  0  0  0  0  0  0
    1.5201   -1.9654    0.4092 H   0  0  0  0  0  0  0  0  0  0  0  0
  1  2  1  0
  2  3  1  0
  3  4  1  0
  4  5  1  0
  5  6  1  0
  6  7  1  0
  7  8  1  0
  8  9  1  0
  4  1  1  0
  9  7  1  0
  9  3  1  0
  1 10  1  0
  1 11  1  0
  3 12  1  0
  4 13  1  0
  6 14  1  0
  6 15  1  0
  7 16  1  0
  9 17  1  0
M  END
