
     RDKit          3D

 17 19  0  0  0  0  0  0  0  0999 V2000
    2.1263    0.1085    0.1822 C   0  0  0  0  0  0  0  0  0  0  0  0
    1.4579   -1.0837    0.0863 O   0  0  0  0  0  0  0  0  0  0  0  0
    0.1190   -1.0095    0.2862 C   0  0  0  0  0  0  0  0  0  0  0  0
   -0.5946   -0.0717   -0.6955 C   0  0  0  0  0  0  0  0  0  0  0  0
   -1.9790   -0.1158   -0.1235 C   0  0  0  0  0  0  0  0  0  0  0  0
   -1.6649    0.0372    1.2529 O   0  0  0  0  0  0  0  0  0  0  0  0
   -0.2964    0.0823    1.2747 C   0  0  0  0  0  0  0  0  0  0  0  0
    0.0169    1.0461    0.1213 C   0  0  0  0  0  0  0  0  0  0  0  0
    1.3578    1.2148   -0.0777 O   0  0  0  0  0  0  0  0  0  0  0  0
    2.9410    0.0886   -0.5997 H   0  0  0  0  0  0  0  0  0  0  0  0
    2.6275    0.1391    1.1844 H   0  0  0  0  0  0  0  0  0  0  0  0
   -0.3872   -1.9536    0.4591 H   0  0  0  0  0  0  0  0  0  0  0  0
   -0.4022   -0.1604   -1.7191 H   0  0  0  0  0  0  0  0  0  0  0  0
   -2.3794   -1.1521   -0.2197 H   0  0  0  0  0  0  0  0  0  0  0  0
   -2.6520    0.6596   -0.4823 H   0  0  0  0  0  0  0  0  0  0  0  0
    0.2510    0.1854    2.1688 H   0  0  0  0  0  0  0  0  0  0  0  0
   -0.5416    1.9852    0.1557 H   0  0  0  0  0  0  0  0  0  0  0  0
  1  2  1  0
  2  3  1  0
  3  4  1  0
  4  5  1  0
  5  6  1  0
  6  7  1  0
  7  8  1  0
  8  9  1  0
  9  1  1  0
  7  3  1  0
  8  4  1  0
  1 10  1  0
  1 11  1  0
  3 12  1  0
  4 13  1  0
  5 14  1  0
  5 15  1  0
  7 16  1  0
  8 17  1  0
M  END
