
     RDKit          3D

 17 20  0  0  0  0  0  0  0  0999 V2000
    2.8497    0.2752   -0.5237 C   0  0  0  0  0  0  0  0  0  0  0  0
    2.3089   -0.3809    0.5796 O   0  0  0  0  0  0  0  0  0  0  0  0
    1.5767   -0.3732   -0.7094 C   0  0  0  0  0  0  0  0  0  0  0  0
    0.2480    0.3494   -0.6466 C   0  0  0  0  0  0  0  0  0  0  0  0
   -0.9395   -0.5507   -0.8741 C   0  0  0  0  0  0  0  0  0  0  0  0
   -2.3269   -0.0605   -0.6551 C   0  0  0  0  0  0  0  0  0  0  0  0
   -2.9586   -0.4477    0.6090 O   0  0  0  0  0  0  0  0  0  0  0  0
   -2.0431    0.5807    0.5071 C   0  0  0  0  0  0  0  0  0  0  0  0
   -0.5963    0.0794    0.5178 C   0  0  0  0  0  0  0  0  0  0  0  0
    2.8605    1.3860   -0.3904 H   0  0  0  0  0  0  0  0  0  0  0  0
    3.7338   -0.1283   -1.0343 H   0  0  0  0  0  0  0  0  0  0  0  0
    1.5937   -1.4156   -1.1420 H   0  0  0  0  0  0  0  0  0  0  0  0
    0.1648    1.3443   -1.1338 H   0  0  0  0  0  0  0  0  0  0  0  0
   -0.8020   -1.6301   -0.9567 H   0  0  0  0  0  0  0  0  0  0  0  0
   -3.0759   -0.0030   -1.4349 H   0  0  0  0  0  0  0  0  0  0  0  0
   -2.2651    1.5946    0.8285 H   0  0  0  0  0  0  0  0  0  0  0  0
   -0.3287   -0.6197    1.3163 H   0  0  0  0  0  0  0  0  0  0  0  0
  1  2  1  0
  2  3  1  0
  3  4  1  0
  4  5  1  0
  5  6  1  0
  6  7  1  0
  7  8  1  0
  8  9  1  0
  3  1  1  0
  9  4  1  0
  9  5  1  0
  8  6  1  0
  1 10  1  0
  1 11  1  0
  3 12  1  0
  4 13  1  0
  5 14  1  0
  6 15  1  0
  8 16  1  0
  9 17  1  0
M  END
