
     RDKit          3D

 17 21  0  0  0  0  0  0  0  0999 V2000
   -1.3496   -0.8481    0.7449 C   0  0  0  0  0  0  0  0  0  0  0  0
   -2.1519   -0.1748   -0.1989 O   0  0  0  0  0  0  0  0  0  0  0  0
   -1.2641    0.5540   -1.0200 C   0  0  0  0  0  0  0  0  0  0  0  0
    0.0288    0.2272   -0.7422 C   0  0  0  0  0  0  0  0  0  0  0  0
    1.1273    1.1095   -0.1113 C   0  0  0  0  0  0  0  0  0  0  0  0
    0.9332    0.4002    1.1348 C   0  0  0  0  0  0  0  0  0  0  0  0
    1.2775   -0.9185    0.3531 C   0  0  0  0  0  0  0  0  0  0  0  0
    1.3450   -0.0697   -0.8965 C   0  0  0  0  0  0  0  0  0  0  0  0
   -0.0001   -0.5119    0.6130 C   0  0  0  0  0  0  0  0  0  0  0  0
   -1.8042   -0.6274    1.7450 H   0  0  0  0  0  0  0  0  0  0  0  0
   -1.5534   -1.9472    0.5858 H   0  0  0  0  0  0  0  0  0  0  0  0
   -1.6030    0.3671   -2.0802 H   0  0  0  0  0  0  0  0  0  0  0  0
   -1.5443    1.6339   -0.8427 H   0  0  0  0  0  0  0  0  0  0  0  0
    1.0011    2.1298   -0.3571 H   0  0  0  0  0  0  0  0  0  0  0  0
    1.4711    0.4718    2.0506 H   0  0  0  0  0  0  0  0  0  0  0  0
    2.0437   -1.5400    0.7070 H   0  0  0  0  0  0  0  0  0  0  0  0
    2.0430   -0.2558   -1.6852 H   0  0  0  0  0  0  0  0  0  0  0  0
  1  2  1  0
  2  3  1  0
  3  4  1  0
  4  5  1  0
  5  6  1  0
  6  7  1  0
  7  8  1  0
  7  9  1  0
  9  1  1  0
  8  4  1  0
  9  4  1  0
  8  5  1  0
  9  6  1  0
  1 10  1  0
  1 11  1  0
  3 12  1  0
  3 13  1  0
  5 14  1  0
  6 15  1  0
  7 16  1  0
  8 17  1  0
M  END
