
     RDKit          3D

 21 23  0  0  0  0  0  0  0  0999 V2000
   -1.6769    1.1005   -0.2837 C   0  0  0  0  0  0  0  0  0  0  0  0
   -2.9069    0.6281    0.2421 O   0  0  0  0  0  0  0  0  0  0  0  0
   -2.2077   -0.5731    0.5100 C   0  0  0  0  0  0  0  0  0  0  0  0
   -1.4015   -0.2974   -0.7104 C   0  0  0  0  0  0  0  0  0  0  0  0
    0.0172   -0.7776   -0.7350 C   0  0  0  0  0  0  0  0  0  0  0  0
    0.8778   -0.8137    0.4247 C   0  0  0  0  0  0  0  0  0  0  0  0
    2.3485   -0.4729    0.5251 C   0  0  0  0  0  0  0  0  0  0  0  0
    1.7453    0.9393    0.3335 C   0  0  0  0  0  0  0  0  0  0  0  0
    1.0655    0.1799   -0.8028 C   0  0  0  0  0  0  0  0  0  0  0  0
   -1.1102    1.5355    0.5354 H   0  0  0  0  0  0  0  0  0  0  0  0
   -1.9473    1.8178   -1.1077 H   0  0  0  0  0  0  0  0  0  0  0  0
   -1.6807   -0.4626    1.4602 H   0  0  0  0  0  0  0  0  0  0  0  0
   -2.8470   -1.4683    0.3846 H   0  0  0  0  0  0  0  0  0  0  0  0
   -1.9367   -0.5294   -1.6485 H   0  0  0  0  0  0  0  0  0  0  0  0
    0.0714   -1.7556   -1.3195 H   0  0  0  0  0  0  0  0  0  0  0  0
    0.3658   -0.3206    1.3107 H   0  0  0  0  0  0  0  0  0  0  0  0
    2.7424   -0.6602    1.5161 H   0  0  0  0  0  0  0  0  0  0  0  0
    2.9723   -0.7852   -0.3222 H   0  0  0  0  0  0  0  0  0  0  0  0
    1.1490    1.1582    1.2123 H   0  0  0  0  0  0  0  0  0  0  0  0
    2.4511    1.6860   -0.0200 H   0  0  0  0  0  0  0  0  0  0  0  0
    1.9086   -0.1287   -1.5048 H   0  0  0  0  0  0  0  0  0  0  0  0
  1  2  1  0
  2  3  1  0
  3  4  1  0
  4  5  1  0
  5  6  1  0
  6  7  1  0
  7  8  1  0
  8  9  1  0
  4  1  1  0
  9  5  1  0
  9  6  1  0
  1 10  1  0
  1 11  1  0
  3 12  1  0
  3 13  1  0
  4 14  1  0
  5 15  1  0
  6 16  1  0
  7 17  1  0
  7 18  1  0
  8 19  1  0
  8 20  1  0
  9 21  1  0
M  END
