
     RDKit          3D

 19 21  0  0  0  0  0  0  0  0999 V2000
   -1.7036   -1.2584    0.0906 C   0  0  0  0  0  0  0  0  0  0  0  0
   -2.8112   -0.4563    0.4538 O   0  0  0  0  0  0  0  0  0  0  0  0
   -2.0034    0.6495    0.1846 C   0  0  0  0  0  0  0  0  0  0  0  0
   -0.8139   -0.2063    0.6277 C   0  0  0  0  0  0  0  0  0  0  0  0
    0.3993    0.1728   -0.1291 C   0  0  0  0  0  0  0  0  0  0  0  0
    1.2448    1.2768    0.5283 C   0  0  0  0  0  0  0  0  0  0  0  0
    1.7701   -0.0691    0.2525 C   0  0  0  0  0  0  0  0  0  0  0  0
    1.9790   -0.3972   -1.2254 C   0  0  0  0  0  0  0  0  0  0  0  0
    0.6184   -0.1480   -1.4295 O   0  0  0  0  0  0  0  0  0  0  0  0
   -1.7824   -2.2021    0.7030 H   0  0  0  0  0  0  0  0  0  0  0  0
   -1.6927   -1.4308   -1.0040 H   0  0  0  0  0  0  0  0  0  0  0  0
   -1.9049    0.8922   -0.9028 H   0  0  0  0  0  0  0  0  0  0  0  0
   -2.1052    1.5017    0.8630 H   0  0  0  0  0  0  0  0  0  0  0  0
   -0.6681   -0.2729    1.7053 H   0  0  0  0  0  0  0  0  0  0  0  0
    0.9440    1.6226    1.5137 H   0  0  0  0  0  0  0  0  0  0  0  0
    1.5314    2.1005   -0.1775 H   0  0  0  0  0  0  0  0  0  0  0  0
    2.1212   -0.7607    1.0160 H   0  0  0  0  0  0  0  0  0  0  0  0
    2.3120   -1.4235   -1.3767 H   0  0  0  0  0  0  0  0  0  0  0  0
    2.5650    0.4091   -1.6935 H   0  0  0  0  0  0  0  0  0  0  0  0
  1  2  1  0
  2  3  1  0
  3  4  1  0
  4  5  1  0
  5  6  1  0
  6  7  1  0
  7  8  1  0
  8  9  1  0
  4  1  1  0
  7  5  1  0
  9  5  1  0
  1 10  1  0
  1 11  1  0
  3 12  1  0
  3 13  1  0
  4 14  1  0
  6 15  1  0
  6 16  1  0
  7 17  1  0
  8 18  1  0
  8 19  1  0
M  END
