
     RDKit          3D

 19 21  0  0  0  0  0  0  0  0999 V2000
    0.9286   -1.3274    0.7072 C   0  0  0  0  0  0  0  0  0  0  0  0
    0.1716   -0.2996    1.2966 O   0  0  0  0  0  0  0  0  0  0  0  0
   -0.5561    0.1735    0.2273 C   0  0  0  0  0  0  0  0  0  0  0  0
   -1.8178   -0.5377   -0.0708 C   0  0  0  0  0  0  0  0  0  0  0  0
   -2.4806    0.3381    0.8116 O   0  0  0  0  0  0  0  0  0  0  0  0
   -1.5032    1.2983    0.4909 C   0  0  0  0  0  0  0  0  0  0  0  0
    0.4404    0.3511   -0.8604 C   0  0  0  0  0  0  0  0  0  0  0  0
    1.8173    0.8293   -0.3446 C   0  0  0  0  0  0  0  0  0  0  0  0
    1.5288   -0.6144   -0.5021 C   0  0  0  0  0  0  0  0  0  0  0  0
    0.2630   -2.1638    0.3822 H   0  0  0  0  0  0  0  0  0  0  0  0
    1.7186   -1.6912    1.3953 H   0  0  0  0  0  0  0  0  0  0  0  0
   -1.8276   -1.5796    0.3365 H   0  0  0  0  0  0  0  0  0  0  0  0
   -2.1981   -0.5389   -1.0947 H   0  0  0  0  0  0  0  0  0  0  0  0
   -1.7279    1.8839   -0.4297 H   0  0  0  0  0  0  0  0  0  0  0  0
   -1.2252    1.9725    1.3143 H   0  0  0  0  0  0  0  0  0  0  0  0
    0.1694    0.5670   -1.8912 H   0  0  0  0  0  0  0  0  0  0  0  0
    1.8583    1.2767    0.6586 H   0  0  0  0  0  0  0  0  0  0  0  0
    2.5121    1.2616   -1.0952 H   0  0  0  0  0  0  0  0  0  0  0  0
    1.9283   -1.1995   -1.3319 H   0  0  0  0  0  0  0  0  0  0  0  0
  1  2  1  0
  2  3  1  0
  3  4  1  0
  4  5  1  0
  5  6  1  0
  3  7  1  0
  7  8  1  0
  8  9  1  0
  9  1  1  0
  6  3  1  0
  9  7  1  0
  1 10  1  0
  1 11  1  0
  4 12  1  0
  4 13  1  0
  6 14  1  0
  6 15  1  0
  7 16  1  0
  8 17  1  0
  8 18  1  0
  9 19  1  0
M  END
