
     RDKit          3D

 21 23  0  0  0  0  0  0  0  0999 V2000
    2.0419   -0.0786   -0.5433 C   0  0  0  0  0  0  0  0  0  0  0  0
    1.2443   -0.9175   -1.2963 O   0  0  0  0  0  0  0  0  0  0  0  0
    0.0018   -1.0012   -0.7296 C   0  0  0  0  0  0  0  0  0  0  0  0
   -0.8112    0.2789   -0.8913 C   0  0  0  0  0  0  0  0  0  0  0  0
   -1.8530    0.0753    0.1872 C   0  0  0  0  0  0  0  0  0  0  0  0
   -1.0305   -0.5470    1.3243 C   0  0  0  0  0  0  0  0  0  0  0  0
    0.3174   -0.7709    0.7657 C   0  0  0  0  0  0  0  0  0  0  0  0
    1.0715    0.5307    0.4789 C   0  0  0  0  0  0  0  0  0  0  0  0
    0.1228    1.3434   -0.3443 C   0  0  0  0  0  0  0  0  0  0  0  0
    2.4421    0.7041   -1.1947 H   0  0  0  0  0  0  0  0  0  0  0  0
    2.8825   -0.5740   -0.0434 H   0  0  0  0  0  0  0  0  0  0  0  0
   -0.5553   -1.9059   -0.8999 H   0  0  0  0  0  0  0  0  0  0  0  0
   -1.1857    0.4552   -1.8765 H   0  0  0  0  0  0  0  0  0  0  0  0
   -2.6379   -0.5918   -0.1584 H   0  0  0  0  0  0  0  0  0  0  0  0
   -2.1984    1.0835    0.4952 H   0  0  0  0  0  0  0  0  0  0  0  0
   -1.0643    0.1010    2.2232 H   0  0  0  0  0  0  0  0  0  0  0  0
   -1.4822   -1.5058    1.5847 H   0  0  0  0  0  0  0  0  0  0  0  0
    0.9246   -1.5444    1.1893 H   0  0  0  0  0  0  0  0  0  0  0  0
    1.5291    0.9857    1.3173 H   0  0  0  0  0  0  0  0  0  0  0  0
    0.6245    1.7928   -1.2357 H   0  0  0  0  0  0  0  0  0  0  0  0
   -0.3842    2.0866    0.2758 H   0  0  0  0  0  0  0  0  0  0  0  0
  1  2  1  0
  2  3  1  0
  3  4  1  0
  4  5  1  0
  5  6  1  0
  6  7  1  0
  7  8  1  0
  8  9  1  0
  8  1  1  0
  7  3  1  0
  9  4  1  0
  1 10  1  0
  1 11  1  0
  3 12  1  0
  4 13  1  0
  5 14  1  0
  5 15  1  0
  6 16  1  0
  6 17  1  0
  7 18  1  0
  8 19  1  0
  9 20  1  0
  9 21  1  0
M  END
