
     RDKit          3D

 16 18  0  0  0  0  0  0  0  0999 V2000
    2.1410   -0.3015   -0.1957 C   0  0  0  0  0  0  0  0  0  0  0  0
    2.0502   -1.2076    0.8575 O   0  0  0  0  0  0  0  0  0  0  0  0
    0.8620   -0.8811    0.1356 C   0  0  0  0  0  0  0  0  0  0  0  0
   -0.1367   -0.0028    0.8584 C   0  0  0  0  0  0  0  0  0  0  0  0
   -0.4624    1.2101    0.0169 C   0  0  0  0  0  0  0  0  0  0  0  0
   -1.7718    0.5539   -0.3225 C   0  0  0  0  0  0  0  0  0  0  0  0
   -2.6145    0.3550    0.7430 O   0  0  0  0  0  0  0  0  0  0  0  0
   -1.5266   -0.4965    0.7013 C   0  0  0  0  0  0  0  0  0  0  0  0
    2.7028   -0.5825   -1.1122 H   0  0  0  0  0  0  0  0  0  0  0  0
    2.3521    0.7328    0.1519 H   0  0  0  0  0  0  0  0  0  0  0  0
    0.4644   -1.7718   -0.3779 H   0  0  0  0  0  0  0  0  0  0  0  0
    0.1132    0.2101    1.9138 H   0  0  0  0  0  0  0  0  0  0  0  0
    0.1606    1.3300   -0.8835 H   0  0  0  0  0  0  0  0  0  0  0  0
   -0.6051    2.1110    0.6351 H   0  0  0  0  0  0  0  0  0  0  0  0
   -2.0406    0.3035   -1.3418 H   0  0  0  0  0  0  0  0  0  0  0  0
   -1.6886   -1.5624    0.5073 H   0  0  0  0  0  0  0  0  0  0  0  0
  1  2  1  0
  2  3  1  0
  3  4  1  0
  4  5  1  0
  5  6  1  0
  6  7  1  0
  7  8  1  0
  3  1  1  0
  8  4  1  0
  8  6  1  0
  1  9  1  0
  1 10  1  0
  3 11  1  0
  4 12  1  0
  5 13  1  0
  5 14  1  0
  6 15  1  0
  8 16  1  0
M  END
