
     RDKit          3D

 17 20  0  0  0  0  0  0  0  0999 V2000
    1.6021   -0.3224    0.6699 C   0  0  0  0  0  0  0  0  0  0  0  0
    0.9281   -1.4146    0.2073 O   0  0  0  0  0  0  0  0  0  0  0  0
   -0.0412   -1.0335   -0.6747 C   0  0  0  0  0  0  0  0  0  0  0  0
   -1.3590   -0.9439    0.1021 C   0  0  0  0  0  0  0  0  0  0  0  0
   -2.3525   -0.1154   -0.3602 O   0  0  0  0  0  0  0  0  0  0  0  0
   -1.3751    0.3173    0.7035 C   0  0  0  0  0  0  0  0  0  0  0  0
   -0.3633    1.2068    0.0681 C   0  0  0  0  0  0  0  0  0  0  0  0
    1.0711    0.9071    0.0154 C   0  0  0  0  0  0  0  0  0  0  0  0
    0.1814    0.3978   -1.0510 C   0  0  0  0  0  0  0  0  0  0  0  0
    2.6833   -0.4472    0.3914 H   0  0  0  0  0  0  0  0  0  0  0  0
    1.5228   -0.2022    1.7717 H   0  0  0  0  0  0  0  0  0  0  0  0
   -0.0865   -1.7335   -1.5027 H   0  0  0  0  0  0  0  0  0  0  0  0
   -1.6945   -1.9157    0.4685 H   0  0  0  0  0  0  0  0  0  0  0  0
   -1.9267    0.6113    1.6096 H   0  0  0  0  0  0  0  0  0  0  0  0
   -0.7376    2.2039   -0.2227 H   0  0  0  0  0  0  0  0  0  0  0  0
    1.7642    1.7374   -0.1223 H   0  0  0  0  0  0  0  0  0  0  0  0
    0.1833    0.7469   -2.0739 H   0  0  0  0  0  0  0  0  0  0  0  0
  1  2  1  0
  2  3  1  0
  3  4  1  0
  4  5  1  0
  5  6  1  0
  6  7  1  0
  7  8  1  0
  8  9  1  0
  8  1  1  0
  9  3  1  0
  6  4  1  0
  9  7  1  0
  1 10  1  0
  1 11  1  0
  3 12  1  0
  4 13  1  0
  6 14  1  0
  7 15  1  0
  8 16  1  0
  9 17  1  0
M  END
