
     RDKit          3D

 17 20  0  0  0  0  0  0  0  0999 V2000
    1.4728   -0.5885   -0.0058 C   0  0  0  0  0  0  0  0  0  0  0  0
    0.6874   -1.5057    0.7348 O   0  0  0  0  0  0  0  0  0  0  0  0
   -0.5599   -1.5562    0.1534 C   0  0  0  0  0  0  0  0  0  0  0  0
   -1.5775   -0.5146    0.3046 C   0  0  0  0  0  0  0  0  0  0  0  0
   -1.4075    0.6819    0.9335 O   0  0  0  0  0  0  0  0  0  0  0  0
   -0.1425    1.1220    0.8233 C   0  0  0  0  0  0  0  0  0  0  0  0
    0.4570    1.8219   -0.3153 C   0  0  0  0  0  0  0  0  0  0  0  0
    0.4724    0.4037   -0.4149 C   0  0  0  0  0  0  0  0  0  0  0  0
   -0.6801   -0.4593   -0.8452 C   0  0  0  0  0  0  0  0  0  0  0  0
    1.9764   -1.1452   -0.8019 H   0  0  0  0  0  0  0  0  0  0  0  0
    2.1939   -0.1645    0.7435 H   0  0  0  0  0  0  0  0  0  0  0  0
   -0.9174   -2.5440   -0.2028 H   0  0  0  0  0  0  0  0  0  0  0  0
   -2.6533   -0.8188    0.2061 H   0  0  0  0  0  0  0  0  0  0  0  0
    0.4442    1.1335    1.7630 H   0  0  0  0  0  0  0  0  0  0  0  0
   -0.2208    2.3804   -1.0281 H   0  0  0  0  0  0  0  0  0  0  0  0
    1.4008    2.3624   -0.1689 H   0  0  0  0  0  0  0  0  0  0  0  0
   -0.9460   -0.6089   -1.8793 H   0  0  0  0  0  0  0  0  0  0  0  0
  1  2  1  0
  2  3  1  0
  3  4  1  0
  4  5  1  0
  5  6  1  0
  6  7  1  0
  7  8  1  0
  8  9  1  0
  8  1  1  0
  9  3  1  0
  9  4  1  0
  8  6  1  0
  1 10  1  0
  1 11  1  0
  3 12  1  0
  4 13  1  0
  6 14  1  0
  7 15  1  0
  7 16  1  0
  9 17  1  0
M  END
