
     RDKit          3D

 17 20  0  0  0  0  0  0  0  0999 V2000
    1.7548    0.3281    0.2497 C   0  0  0  0  0  0  0  0  0  0  0  0
    1.0109   -0.2002    1.3407 O   0  0  0  0  0  0  0  0  0  0  0  0
    0.0831   -1.0775    0.8324 C   0  0  0  0  0  0  0  0  0  0  0  0
    0.0519   -0.8439   -0.5887 C   0  0  0  0  0  0  0  0  0  0  0  0
    0.5168    0.6238   -0.6318 C   0  0  0  0  0  0  0  0  0  0  0  0
   -0.4539    1.3228    0.2112 C   0  0  0  0  0  0  0  0  0  0  0  0
   -1.6757    1.7847    0.0199 O   0  0  0  0  0  0  0  0  0  0  0  0
   -1.6927    0.5183   -0.2937 C   0  0  0  0  0  0  0  0  0  0  0  0
   -1.2260   -0.7456    0.3115 C   0  0  0  0  0  0  0  0  0  0  0  0
    2.1973    1.2865    0.4913 H   0  0  0  0  0  0  0  0  0  0  0  0
    2.4021   -0.4181   -0.2058 H   0  0  0  0  0  0  0  0  0  0  0  0
    0.2437   -2.1204    1.1793 H   0  0  0  0  0  0  0  0  0  0  0  0
    0.0637   -1.4769   -1.4215 H   0  0  0  0  0  0  0  0  0  0  0  0
    0.7549    0.9814   -1.6010 H   0  0  0  0  0  0  0  0  0  0  0  0
   -0.2972    1.2119    1.3345 H   0  0  0  0  0  0  0  0  0  0  0  0
   -1.7803    0.4148   -1.4244 H   0  0  0  0  0  0  0  0  0  0  0  0
   -1.9536   -1.5896    0.1965 H   0  0  0  0  0  0  0  0  0  0  0  0
  1  2  1  0
  2  3  1  0
  3  4  1  0
  4  5  1  0
  5  6  1  0
  6  7  1  0
  7  8  1  0
  8  9  1  0
  5  1  1  0
  8  6  1  0
  9  3  1  0
  9  4  1  0
  1 10  1  0
  1 11  1  0
  3 12  1  0
  4 13  1  0
  5 14  1  0
  6 15  1  0
  8 16  1  0
  9 17  1  0
M  END
