
     RDKit          3D

 19 21  0  0  0  0  0  0  0  0999 V2000
    1.7059   -0.5611   -0.0749 C   0  0  0  0  0  0  0  0  0  0  0  0
    0.8044   -1.4072   -0.6579 O   0  0  0  0  0  0  0  0  0  0  0  0
   -0.4156   -1.2803   -0.0490 C   0  0  0  0  0  0  0  0  0  0  0  0
   -1.3528   -0.3596   -0.8450 C   0  0  0  0  0  0  0  0  0  0  0  0
   -1.1985    0.9288   -0.0756 C   0  0  0  0  0  0  0  0  0  0  0  0
    0.2444    1.4037   -0.1169 C   0  0  0  0  0  0  0  0  0  0  0  0
    0.9212    0.4088    0.7924 C   0  0  0  0  0  0  0  0  0  0  0  0
   -0.2315   -0.4665    1.2100 C   0  0  0  0  0  0  0  0  0  0  0  0
   -1.2847    0.4470    1.2524 O   0  0  0  0  0  0  0  0  0  0  0  0
    2.4680   -1.0763    0.5494 H   0  0  0  0  0  0  0  0  0  0  0  0
    2.2664   -0.0105   -0.8536 H   0  0  0  0  0  0  0  0  0  0  0  0
   -0.8424   -2.2664    0.1121 H   0  0  0  0  0  0  0  0  0  0  0  0
   -1.0717   -0.2906   -1.8956 H   0  0  0  0  0  0  0  0  0  0  0  0
   -2.4076   -0.6971   -0.6841 H   0  0  0  0  0  0  0  0  0  0  0  0
   -1.9249    1.6904   -0.3029 H   0  0  0  0  0  0  0  0  0  0  0  0
    0.6047    1.3005   -1.1620 H   0  0  0  0  0  0  0  0  0  0  0  0
    0.3071    2.4327    0.2377 H   0  0  0  0  0  0  0  0  0  0  0  0
    1.4894    0.8400    1.6017 H   0  0  0  0  0  0  0  0  0  0  0  0
   -0.0819   -1.0361    2.1082 H   0  0  0  0  0  0  0  0  0  0  0  0
  1  2  1  0
  2  3  1  0
  3  4  1  0
  4  5  1  0
  5  6  1  0
  6  7  1  0
  7  8  1  0
  8  9  1  0
  7  1  1  0
  8  3  1  0
  9  5  1  0
  1 10  1  0
  1 11  1  0
  3 12  1  0
  4 13  1  0
  4 14  1  0
  5 15  1  0
  6 16  1  0
  6 17  1  0
  7 18  1  0
  8 19  1  0
M  END
