
     RDKit          3D

 19 21  0  0  0  0  0  0  0  0999 V2000
    2.5310    0.4834    0.4055 C   0  0  0  0  0  0  0  0  0  0  0  0
    1.5525    1.0526    1.1893 O   0  0  0  0  0  0  0  0  0  0  0  0
    1.1504    0.5675   -0.0486 C   0  0  0  0  0  0  0  0  0  0  0  0
    0.2219   -0.5916   -0.1475 C   0  0  0  0  0  0  0  0  0  0  0  0
   -0.0415   -1.3109    1.1241 C   0  0  0  0  0  0  0  0  0  0  0  0
   -1.1151   -0.6640    1.7213 O   0  0  0  0  0  0  0  0  0  0  0  0
   -1.9289   -0.2004    0.7159 C   0  0  0  0  0  0  0  0  0  0  0  0
   -1.6359    1.1630    0.2052 C   0  0  0  0  0  0  0  0  0  0  0  0
   -1.1538   -0.0726   -0.5307 C   0  0  0  0  0  0  0  0  0  0  0  0
    3.3100    1.1479   -0.0667 H   0  0  0  0  0  0  0  0  0  0  0  0
    3.0024   -0.4869    0.7147 H   0  0  0  0  0  0  0  0  0  0  0  0
    0.9559    1.3399   -0.8487 H   0  0  0  0  0  0  0  0  0  0  0  0
    0.5380   -1.3232   -0.9440 H   0  0  0  0  0  0  0  0  0  0  0  0
    0.8061   -1.4316    1.7944 H   0  0  0  0  0  0  0  0  0  0  0  0
   -0.4031   -2.3464    0.8658 H   0  0  0  0  0  0  0  0  0  0  0  0
   -2.9690   -0.5898    0.5993 H   0  0  0  0  0  0  0  0  0  0  0  0
   -2.3933    1.7631   -0.3354 H   0  0  0  0  0  0  0  0  0  0  0  0
   -0.8696    1.7820    0.7068 H   0  0  0  0  0  0  0  0  0  0  0  0
   -1.5581   -0.2820   -1.5216 H   0  0  0  0  0  0  0  0  0  0  0  0
  1  2  1  0
  2  3  1  0
  3  4  1  0
  4  5  1  0
  5  6  1  0
  6  7  1  0
  7  8  1  0
  8  9  1  0
  3  1  1  0
  9  4  1  0
  9  7  1  0
  1 10  1  0
  1 11  1  0
  3 12  1  0
  4 13  1  0
  5 14  1  0
  5 15  1  0
  7 16  1  0
  8 17  1  0
  8 18  1  0
  9 19  1  0
M  END
