
     RDKit          3D

 19 22  0  0  0  0  0  0  0  0999 V2000
    0.8396    1.4849    0.0806 C   0  0  0  0  0  0  0  0  0  0  0  0
    1.2399    0.7351    1.1481 O   0  0  0  0  0  0  0  0  0  0  0  0
    1.3592   -0.5777    0.7836 C   0  0  0  0  0  0  0  0  0  0  0  0
    1.0413   -0.7408   -0.6501 C   0  0  0  0  0  0  0  0  0  0  0  0
    0.3177    0.5334   -0.9784 C   0  0  0  0  0  0  0  0  0  0  0  0
   -1.1263    0.2887   -0.6860 C   0  0  0  0  0  0  0  0  0  0  0  0
   -1.6669    0.3252    0.6897 C   0  0  0  0  0  0  0  0  0  0  0  0
   -1.1452   -0.9431    0.1487 C   0  0  0  0  0  0  0  0  0  0  0  0
    0.2406   -1.4188    0.3658 C   0  0  0  0  0  0  0  0  0  0  0  0
    0.0118    2.1612    0.4466 H   0  0  0  0  0  0  0  0  0  0  0  0
    1.5984    2.1273   -0.3648 H   0  0  0  0  0  0  0  0  0  0  0  0
    2.2763   -1.0790    1.1517 H   0  0  0  0  0  0  0  0  0  0  0  0
    1.7215   -1.2113   -1.3486 H   0  0  0  0  0  0  0  0  0  0  0  0
    0.5276    0.9138   -1.9764 H   0  0  0  0  0  0  0  0  0  0  0  0
   -1.8085    0.3952   -1.5503 H   0  0  0  0  0  0  0  0  0  0  0  0
   -2.7611    0.4482    0.7694 H   0  0  0  0  0  0  0  0  0  0  0  0
   -1.1036    0.7625    1.5365 H   0  0  0  0  0  0  0  0  0  0  0  0
   -1.8938   -1.6957   -0.1523 H   0  0  0  0  0  0  0  0  0  0  0  0
    0.3317   -2.5092    0.5862 H   0  0  0  0  0  0  0  0  0  0  0  0
  1  2  1  0
  2  3  1  0
  3  4  1  0
  4  5  1  0
  5  6  1  0
  6  7  1  0
  7  8  1  0
  8  9  1  0
  5  1  1  0
  8  6  1  0
  9  3  1  0
  9  4  1  0
  1 10  1  0
  1 11  1  0
  3 12  1  0
  4 13  1  0
  5 14  1  0
  6 15  1  0
  7 16  1  0
  7 17  1  0
  8 18  1  0
  9 19  1  0
M  END
