
     RDKit          3D

 17 20  0  0  0  0  0  0  0  0999 V2000
    1.6928   -0.1542   -0.0811 C   0  0  0  0  0  0  0  0  0  0  0  0
    1.2828    1.0782   -0.4083 O   0  0  0  0  0  0  0  0  0  0  0  0
    0.0938    1.5420   -0.0251 C   0  0  0  0  0  0  0  0  0  0  0  0
   -1.1491    0.9593   -0.7299 C   0  0  0  0  0  0  0  0  0  0  0  0
   -0.9135   -0.1743   -1.4514 O   0  0  0  0  0  0  0  0  0  0  0  0
   -0.5591   -1.1987   -0.6159 C   0  0  0  0  0  0  0  0  0  0  0  0
    0.6646   -1.1810    0.2017 C   0  0  0  0  0  0  0  0  0  0  0  0
   -0.5818   -0.7295    0.7899 C   0  0  0  0  0  0  0  0  0  0  0  0
   -0.8430    0.7175    0.6989 C   0  0  0  0  0  0  0  0  0  0  0  0
    2.3217   -0.5527   -0.9338 H   0  0  0  0  0  0  0  0  0  0  0  0
    2.4155   -0.1251    0.7833 H   0  0  0  0  0  0  0  0  0  0  0  0
    0.0296    2.6481    0.1471 H   0  0  0  0  0  0  0  0  0  0  0  0
   -1.9519    1.6561   -1.0133 H   0  0  0  0  0  0  0  0  0  0  0  0
   -0.9402   -2.1917   -0.9121 H   0  0  0  0  0  0  0  0  0  0  0  0
    1.0692   -2.1560    0.5527 H   0  0  0  0  0  0  0  0  0  0  0  0
   -1.2036   -1.3073    1.4798 H   0  0  0  0  0  0  0  0  0  0  0  0
   -1.4279    1.1694    1.5174 H   0  0  0  0  0  0  0  0  0  0  0  0
  1  2  1  0
  2  3  1  0
  3  4  1  0
  4  5  1  0
  5  6  1  0
  6  7  1  0
  7  8  1  0
  8  9  1  0
  7  1  1  0
  9  3  1  0
  9  4  1  0
  8  6  1  0
  1 10  1  0
  1 11  1  0
  3 12  1  0
  4 13  1  0
  6 14  1  0
  7 15  1  0
  8 16  1  0
  9 17  1  0
M  END
