
     RDKit          3D

 17 19  0  0  0  0  0  0  0  0999 V2000
   -0.1450    1.5628   -0.1961 C   0  0  0  0  0  0  0  0  0  0  0  0
    1.0000    1.1562   -0.7857 O   0  0  0  0  0  0  0  0  0  0  0  0
    1.4339   -0.1125   -0.5524 C   0  0  0  0  0  0  0  0  0  0  0  0
    0.6390   -1.3166   -0.5224 C   0  0  0  0  0  0  0  0  0  0  0  0
   -0.7146   -1.4178   -0.6718 O   0  0  0  0  0  0  0  0  0  0  0  0
   -1.4824   -0.4499   -0.1290 C   0  0  0  0  0  0  0  0  0  0  0  0
   -0.7884    0.5555    0.7212 C   0  0  0  0  0  0  0  0  0  0  0  0
    0.1559   -0.0947    1.5026 O   0  0  0  0  0  0  0  0  0  0  0  0
    1.1079   -0.7178    0.7450 C   0  0  0  0  0  0  0  0  0  0  0  0
   -0.8970    1.7689   -1.0149 H   0  0  0  0  0  0  0  0  0  0  0  0
   -0.0327    2.5639    0.3156 H   0  0  0  0  0  0  0  0  0  0  0  0
    2.5254   -0.2256   -0.8397 H   0  0  0  0  0  0  0  0  0  0  0  0
    1.1524   -2.2809   -0.8247 H   0  0  0  0  0  0  0  0  0  0  0  0
   -2.3300   -0.8710    0.4730 H   0  0  0  0  0  0  0  0  0  0  0  0
   -1.9979    0.1006   -0.9707 H   0  0  0  0  0  0  0  0  0  0  0  0
   -1.4826    1.0672    1.4095 H   0  0  0  0  0  0  0  0  0  0  0  0
    1.8561   -1.2882    1.3405 H   0  0  0  0  0  0  0  0  0  0  0  0
  1  2  1  0
  2  3  1  0
  3  4  1  0
  4  5  1  0
  5  6  1  0
  6  7  1  0
  7  8  1  0
  8  9  1  0
  7  1  1  0
  9  3  1  0
  9  4  1  0
  1 10  1  0
  1 11  1  0
  3 12  1  0
  4 13  1  0
  6 14  1  0
  6 15  1  0
  7 16  1  0
  9 17  1  0
M  END
