
     RDKit          3D

 17 21  0  0  0  0  0  0  0  0999 V2000
    2.3414   -0.3283   -0.3597 C   0  0  0  0  0  0  0  0  0  0  0  0
    2.4862    0.6664    0.6042 O   0  0  0  0  0  0  0  0  0  0  0  0
    1.2664   -0.2010    0.6818 C   0  0  0  0  0  0  0  0  0  0  0  0
    0.0898    0.5127    0.2238 C   0  0  0  0  0  0  0  0  0  0  0  0
   -0.7052   -0.0913   -1.0306 C   0  0  0  0  0  0  0  0  0  0  0  0
   -2.0609   -0.2133   -0.1021 C   0  0  0  0  0  0  0  0  0  0  0  0
   -0.9770   -0.6847   -0.0510 C   0  0  0  0  0  0  0  0  0  0  0  0
   -0.9878    0.9801    0.1623 C   0  0  0  0  0  0  0  0  0  0  0  0
   -1.2530    0.3851    1.1489 C   0  0  0  0  0  0  0  0  0  0  0  0
    3.0894   -1.1466   -0.2723 H   0  0  0  0  0  0  0  0  0  0  0  0
    2.1627   -0.0229   -1.4025 H   0  0  0  0  0  0  0  0  0  0  0  0
    1.3542   -0.8586    1.5357 H   0  0  0  0  0  0  0  0  0  0  0  0
   -0.8315    0.6112   -1.8599 H   0  0  0  0  0  0  0  0  0  0  0  0
   -2.8693    0.4317   -0.4651 H   0  0  0  0  0  0  0  0  0  0  0  0
   -0.4465   -1.3026    0.6618 H   0  0  0  0  0  0  0  0  0  0  0  0
   -1.5381    1.5895   -0.5502 H   0  0  0  0  0  0  0  0  0  0  0  0
   -1.1208   -0.3274    1.9731 H   0  0  0  0  0  0  0  0  0  0  0  0
  1  2  1  0
  2  3  1  0
  3  4  1  0
  4  5  1  0
  5  6  1  0
  6  7  1  0
  7  8  1  0
  8  9  1  0
  3  1  1  0
  8  4  1  0
  9  4  1  0
  7  5  1  0
  9  6  1  0
  1 10  1  0
  1 11  1  0
  3 12  1  0
  5 13  1  0
  6 14  1  0
  7 15  1  0
  8 16  1  0
  9 17  1  0
M  END
