
     RDKit          3D

 19 21  0  0  0  0  0  0  0  0999 V2000
    1.7889    1.1424   -0.0024 C   0  0  0  0  0  0  0  0  0  0  0  0
    2.3767    0.1539    0.8239 O   0  0  0  0  0  0  0  0  0  0  0  0
    1.8318   -0.9990    0.3069 C   0  0  0  0  0  0  0  0  0  0  0  0
    0.3977   -0.6493    0.1436 C   0  0  0  0  0  0  0  0  0  0  0  0
    0.3773    0.6962   -0.0436 C   0  0  0  0  0  0  0  0  0  0  0  0
   -1.0828    0.9631   -0.1862 C   0  0  0  0  0  0  0  0  0  0  0  0
   -1.4721   -0.1829   -1.1258 C   0  0  0  0  0  0  0  0  0  0  0  0
   -1.0161   -1.0162    0.0802 C   0  0  0  0  0  0  0  0  0  0  0  0
   -1.6564    0.0971    0.9119 C   0  0  0  0  0  0  0  0  0  0  0  0
    2.2136    1.1097   -1.0183 H   0  0  0  0  0  0  0  0  0  0  0  0
    1.8946    2.1200    0.5009 H   0  0  0  0  0  0  0  0  0  0  0  0
    2.2959   -1.1815   -0.6829 H   0  0  0  0  0  0  0  0  0  0  0  0
    1.9626   -1.8878    0.9612 H   0  0  0  0  0  0  0  0  0  0  0  0
   -1.4455    1.9242   -0.3679 H   0  0  0  0  0  0  0  0  0  0  0  0
   -0.7477   -0.3476   -1.9429 H   0  0  0  0  0  0  0  0  0  0  0  0
   -2.5289   -0.2606   -1.3562 H   0  0  0  0  0  0  0  0  0  0  0  0
   -1.3627   -1.9962    0.1768 H   0  0  0  0  0  0  0  0  0  0  0  0
   -2.7419    0.0554    0.9862 H   0  0  0  0  0  0  0  0  0  0  0  0
   -1.0852    0.2593    1.8344 H   0  0  0  0  0  0  0  0  0  0  0  0
  1  2  1  0
  2  3  1  0
  3  4  1  0
  4  5  2  0
  5  6  1  0
  6  7  1  0
  7  8  1  0
  8  9  1  0
  5  1  1  0
  9  6  1  0
  8  4  1  0
  1 10  1  0
  1 11  1  0
  3 12  1  0
  3 13  1  0
  6 14  1  0
  7 15  1  0
  7 16  1  0
  8 17  1  0
  9 18  1  0
  9 19  1  0
M  END
