
     RDKit          3D

 17 19  0  0  0  0  0  0  0  0999 V2000
    1.8026    0.0230    0.8718 C   0  0  0  0  0  0  0  0  0  0  0  0
    2.6204   -0.3245   -0.2321 O   0  0  0  0  0  0  0  0  0  0  0  0
    1.5741   -0.0082   -1.1303 C   0  0  0  0  0  0  0  0  0  0  0  0
    0.6344   -0.0800   -0.0004 C   0  0  0  0  0  0  0  0  0  0  0  0
   -0.0124   -1.4168    0.1247 O   0  0  0  0  0  0  0  0  0  0  0  0
   -0.6786   -0.2345    0.0780 C   0  0  0  0  0  0  0  0  0  0  0  0
   -1.7425    0.1787    0.9897 C   0  0  0  0  0  0  0  0  0  0  0  0
   -2.6885   -0.0899   -0.0272 O   0  0  0  0  0  0  0  0  0  0  0  0
   -1.6771    0.0961   -0.9835 C   0  0  0  0  0  0  0  0  0  0  0  0
    2.0514    1.1001    1.1096 H   0  0  0  0  0  0  0  0  0  0  0  0
    1.9343   -0.6697    1.7086 H   0  0  0  0  0  0  0  0  0  0  0  0
    1.6758    1.0415   -1.5204 H   0  0  0  0  0  0  0  0  0  0  0  0
    1.4770   -0.7838   -1.9089 H   0  0  0  0  0  0  0  0  0  0  0  0
   -1.7932    1.2555    1.2536 H   0  0  0  0  0  0  0  0  0  0  0  0
   -1.8917   -0.5147    1.8388 H   0  0  0  0  0  0  0  0  0  0  0  0
   -1.6277    1.1113   -1.4109 H   0  0  0  0  0  0  0  0  0  0  0  0
   -1.6583   -0.6840   -1.7819 H   0  0  0  0  0  0  0  0  0  0  0  0
  1  2  1  0
  2  3  1  0
  3  4  1  0
  4  5  1  0
  5  6  1  0
  6  7  1  0
  7  8  1  0
  8  9  1  0
  4  1  1  0
  9  6  1  0
  6  4  1  0
  1 10  1  0
  1 11  1  0
  3 12  1  0
  3 13  1  0
  7 14  1  0
  7 15  1  0
  9 16  1  0
  9 17  1  0
M  END
