
     RDKit          3D

 16 18  0  0  0  0  0  0  0  0999 V2000
   -1.4540   -0.2069   -0.8761 C   0  0  0  0  0  0  0  0  0  0  0  0
   -0.3689    0.6405   -1.2087 O   0  0  0  0  0  0  0  0  0  0  0  0
    0.4768    0.4430   -0.1801 C   0  0  0  0  0  0  0  0  0  0  0  0
    1.9027    0.5093   -0.1175 C   0  0  0  0  0  0  0  0  0  0  0  0
    1.2591   -0.8853   -0.2752 C   0  0  0  0  0  0  0  0  0  0  0  0
   -0.3712    0.5563    1.0428 C   0  0  0  0  0  0  0  0  0  0  0  0
   -1.5396    1.4343    0.9094 O   0  0  0  0  0  0  0  0  0  0  0  0
   -1.6528    0.0819    0.6214 C   0  0  0  0  0  0  0  0  0  0  0  0
   -1.1624   -1.2582   -1.0454 H   0  0  0  0  0  0  0  0  0  0  0  0
   -2.3647    0.0562   -1.4165 H   0  0  0  0  0  0  0  0  0  0  0  0
    2.5815    0.7636   -0.9326 H   0  0  0  0  0  0  0  0  0  0  0  0
    2.3631    0.6920    0.8944 H   0  0  0  0  0  0  0  0  0  0  0  0
    1.3310   -1.3585   -1.2733 H   0  0  0  0  0  0  0  0  0  0  0  0
    1.2568   -1.5398    0.6142 H   0  0  0  0  0  0  0  0  0  0  0  0
    0.0322    0.6483    2.0414 H   0  0  0  0  0  0  0  0  0  0  0  0
   -2.2896   -0.5769    1.2019 H   0  0  0  0  0  0  0  0  0  0  0  0
  1  2  1  0
  2  3  1  0
  3  4  1  0
  4  5  1  0
  3  6  1  0
  6  7  1  0
  7  8  1  0
  8  1  1  0
  5  3  1  0
  8  6  1  0
  1  9  1  0
  1 10  1  0
  4 11  1  0
  4 12  1  0
  5 13  1  0
  5 14  1  0
  6 15  1  0
  8 16  1  0
M  END
