
     RDKit          3D

 15 16  0  0  0  0  0  0  0  0999 V2000
    1.7913   -1.0314   -0.0268 C   0  0  0  0  0  0  0  0  0  0  0  0
    2.5852   -0.0014    0.1744 O   0  0  0  0  0  0  0  0  0  0  0  0
    1.8854    1.1094    0.1795 C   0  0  0  0  0  0  0  0  0  0  0  0
    0.5712    0.7859   -0.0288 C   0  0  0  0  0  0  0  0  0  0  0  0
    0.5040   -0.5849   -0.1618 C   0  0  0  0  0  0  0  0  0  0  0  0
   -0.8399   -1.1587   -0.3968 C   0  0  0  0  0  0  0  0  0  0  0  0
   -1.7348   -0.5293    0.4178 O   0  0  0  0  0  0  0  0  0  0  0  0
   -1.7966    0.8233    0.3371 C   0  0  0  0  0  0  0  0  0  0  0  0
   -0.6366    1.4712   -0.1315 O   0  0  0  0  0  0  0  0  0  0  0  0
    2.0591   -2.0932   -0.0863 H   0  0  0  0  0  0  0  0  0  0  0  0
    2.2451    2.1345    0.3212 H   0  0  0  0  0  0  0  0  0  0  0  0
   -1.0512   -1.0463   -1.4874 H   0  0  0  0  0  0  0  0  0  0  0  0
   -0.8798   -2.2461   -0.1900 H   0  0  0  0  0  0  0  0  0  0  0  0
   -2.0044    1.2710    1.3543 H   0  0  0  0  0  0  0  0  0  0  0  0
   -2.6979    1.0960   -0.2747 H   0  0  0  0  0  0  0  0  0  0  0  0
  1  2  1  0
  2  3  1  0
  3  4  2  0
  4  5  1  0
  5  6  1  0
  6  7  1  0
  7  8  1  0
  8  9  1  0
  5  1  2  0
  9  4  1  0
  1 10  1  0
  3 11  1  0
  6 12  1  0
  6 13  1  0
  8 14  1  0
  8 15  1  0
M  END
