
     RDKit          3D

 19 21  0  0  0  0  0  0  0  0999 V2000
   -3.0249   -0.5984   -0.4175 C   0  0  0  0  0  0  0  0  0  0  0  0
   -2.0887   -1.5455   -0.7820 O   0  0  0  0  0  0  0  0  0  0  0  0
   -1.6019   -0.2427   -0.7600 C   0  0  0  0  0  0  0  0  0  0  0  0
   -0.7489    0.1471    0.4494 C   0  0  0  0  0  0  0  0  0  0  0  0
    0.6489    0.4901    0.0617 C   0  0  0  0  0  0  0  0  0  0  0  0
    1.5728    0.8839    1.1444 C   0  0  0  0  0  0  0  0  0  0  0  0
    1.8104   -0.3352    0.3471 C   0  0  0  0  0  0  0  0  0  0  0  0
    2.2556   -0.0840   -1.0951 C   0  0  0  0  0  0  0  0  0  0  0  0
    1.0239    0.5822   -1.2686 O   0  0  0  0  0  0  0  0  0  0  0  0
   -3.3663   -0.6190    0.6227 H   0  0  0  0  0  0  0  0  0  0  0  0
   -3.7661   -0.2469   -1.1734 H   0  0  0  0  0  0  0  0  0  0  0  0
   -1.3716    0.2700   -1.6950 H   0  0  0  0  0  0  0  0  0  0  0  0
   -0.8376   -0.5828    1.2671 H   0  0  0  0  0  0  0  0  0  0  0  0
   -1.2246    1.0972    0.8325 H   0  0  0  0  0  0  0  0  0  0  0  0
    2.1959    1.7754    0.9511 H   0  0  0  0  0  0  0  0  0  0  0  0
    1.2301    0.7433    2.1687 H   0  0  0  0  0  0  0  0  0  0  0  0
    1.8079   -1.3435    0.7451 H   0  0  0  0  0  0  0  0  0  0  0  0
    2.3695   -1.0068   -1.6740 H   0  0  0  0  0  0  0  0  0  0  0  0
    3.1155    0.6154   -1.0880 H   0  0  0  0  0  0  0  0  0  0  0  0
  1  2  1  0
  2  3  1  0
  3  4  1  0
  4  5  1  0
  5  6  1  0
  6  7  1  0
  7  8  1  0
  8  9  1  0
  3  1  1  0
  7  5  1  0
  9  5  1  0
  1 10  1  0
  1 11  1  0
  3 12  1  0
  4 13  1  0
  4 14  1  0
  6 15  1  0
  6 16  1  0
  7 17  1  0
  8 18  1  0
  8 19  1  0
M  END
