
     RDKit          3D

 17 19  0  0  0  0  0  0  0  0999 V2000
    1.5550    0.8476    0.0500 C   0  0  0  0  0  0  0  0  0  0  0  0
    1.3157    0.1279   -1.1027 O   0  0  0  0  0  0  0  0  0  0  0  0
    0.6803   -1.0625   -0.7882 C   0  0  0  0  0  0  0  0  0  0  0  0
   -0.6817   -0.7338   -0.2513 C   0  0  0  0  0  0  0  0  0  0  0  0
   -1.0578   -1.0995    1.1541 C   0  0  0  0  0  0  0  0  0  0  0  0
   -0.5276    0.2506    0.8709 C   0  0  0  0  0  0  0  0  0  0  0  0
   -1.2625    1.2102    0.0005 C   0  0  0  0  0  0  0  0  0  0  0  0
   -1.4200    0.1970   -0.9508 O   0  0  0  0  0  0  0  0  0  0  0  0
    0.7998    0.4823    1.1277 O   0  0  0  0  0  0  0  0  0  0  0  0
    1.5170    1.9478   -0.1640 H   0  0  0  0  0  0  0  0  0  0  0  0
    2.6347    0.6499    0.3191 H   0  0  0  0  0  0  0  0  0  0  0  0
    0.5321   -1.6862   -1.7019 H   0  0  0  0  0  0  0  0  0  0  0  0
    1.2618   -1.6487   -0.0646 H   0  0  0  0  0  0  0  0  0  0  0  0
   -0.3568   -1.8192    1.6292 H   0  0  0  0  0  0  0  0  0  0  0  0
   -2.1538   -1.2870    1.2812 H   0  0  0  0  0  0  0  0  0  0  0  0
   -0.6021    2.0413   -0.3787 H   0  0  0  0  0  0  0  0  0  0  0  0
   -2.2340    1.5826    0.3498 H   0  0  0  0  0  0  0  0  0  0  0  0
  1  2  1  0
  2  3  1  0
  3  4  1  0
  4  5  1  0
  5  6  1  0
  6  7  1  0
  7  8  1  0
  6  9  1  0
  9  1  1  0
  6  4  1  0
  8  4  1  0
  1 10  1  0
  1 11  1  0
  3 12  1  0
  3 13  1  0
  5 14  1  0
  5 15  1  0
  7 16  1  0
  7 17  1  0
M  END
