
     RDKit          3D

 15 16  0  0  0  0  0  0  0  0999 V2000
    1.2861    0.5958   -0.3003 C   0  0  0  0  0  0  0  0  0  0  0  0
    0.2957    1.4877   -0.7157 O   0  0  0  0  0  0  0  0  0  0  0  0
   -0.8905    1.1324   -0.0833 C   0  0  0  0  0  0  0  0  0  0  0  0
   -1.1136   -0.3545   -0.2037 C   0  0  0  0  0  0  0  0  0  0  0  0
   -0.1699   -1.0375    0.7705 C   0  0  0  0  0  0  0  0  0  0  0  0
    0.7583   -0.8046   -0.4049 C   0  0  0  0  0  0  0  0  0  0  0  0
   -0.3617   -0.9005   -1.2356 O   0  0  0  0  0  0  0  0  0  0  0  0
    1.5254    0.8080    0.7721 H   0  0  0  0  0  0  0  0  0  0  0  0
    2.1772    0.7637   -0.9221 H   0  0  0  0  0  0  0  0  0  0  0  0
   -0.7834    1.3743    0.9982 H   0  0  0  0  0  0  0  0  0  0  0  0
   -1.7311    1.6741   -0.5401 H   0  0  0  0  0  0  0  0  0  0  0  0
   -2.1599   -0.6581   -0.1366 H   0  0  0  0  0  0  0  0  0  0  0  0
    0.0419   -0.3965    1.6394 H   0  0  0  0  0  0  0  0  0  0  0  0
   -0.3685   -2.0965    0.9604 H   0  0  0  0  0  0  0  0  0  0  0  0
    1.4939   -1.5879   -0.5982 H   0  0  0  0  0  0  0  0  0  0  0  0
  1  2  1  0
  2  3  1  0
  3  4  1  0
  4  5  1  0
  5  6  1  0
  6  7  1  0
  6  1  1  0
  7  4  1  0
  1  8  1  0
  1  9  1  0
  3 10  1  0
  3 11  1  0
  4 12  1  0
  5 13  1  0
  5 14  1  0
  6 15  1  0
M  END
