
     RDKit          3D

 19 21  0  0  0  0  0  0  0  0999 V2000
   -1.9417   -0.2357   -0.0176 C   0  0  0  0  0  0  0  0  0  0  0  0
   -1.5215    0.9025   -0.7250 O   0  0  0  0  0  0  0  0  0  0  0  0
   -0.5675    1.5614    0.0013 C   0  0  0  0  0  0  0  0  0  0  0  0
    0.7217    0.8330    0.1385 C   0  0  0  0  0  0  0  0  0  0  0  0
    1.2512    0.1252   -1.0651 C   0  0  0  0  0  0  0  0  0  0  0  0
    1.2518   -1.1552   -0.2816 C   0  0  0  0  0  0  0  0  0  0  0  0
   -0.0648   -1.5457    0.3457 C   0  0  0  0  0  0  0  0  0  0  0  0
   -1.1615   -1.2816   -0.4085 O   0  0  0  0  0  0  0  0  0  0  0  0
    0.6879   -0.4249    0.8905 C   0  0  0  0  0  0  0  0  0  0  0  0
   -2.0361   -0.0726    1.0513 H   0  0  0  0  0  0  0  0  0  0  0  0
   -2.9861   -0.4364   -0.3994 H   0  0  0  0  0  0  0  0  0  0  0  0
   -0.3537    2.5351   -0.5113 H   0  0  0  0  0  0  0  0  0  0  0  0
   -0.9044    1.8510    1.0278 H   0  0  0  0  0  0  0  0  0  0  0  0
    1.5058    1.5297    0.5545 H   0  0  0  0  0  0  0  0  0  0  0  0
    0.5355    0.1854   -1.9080 H   0  0  0  0  0  0  0  0  0  0  0  0
    2.2704    0.4270   -1.3691 H   0  0  0  0  0  0  0  0  0  0  0  0
    2.1263   -1.7957   -0.2147 H   0  0  0  0  0  0  0  0  0  0  0  0
   -0.0746   -2.4731    0.9289 H   0  0  0  0  0  0  0  0  0  0  0  0
    1.2612   -0.5295    1.8229 H   0  0  0  0  0  0  0  0  0  0  0  0
  1  2  1  0
  2  3  1  0
  3  4  1  0
  4  5  1  0
  5  6  1  0
  6  7  1  0
  7  8  1  0
  7  9  1  0
  8  1  1  0
  9  4  1  0
  9  6  1  0
  1 10  1  0
  1 11  1  0
  3 12  1  0
  3 13  1  0
  4 14  1  0
  5 15  1  0
  5 16  1  0
  6 17  1  0
  7 18  1  0
  9 19  1  0
M  END
