
     RDKit          3D

 19 22  0  0  0  0  0  0  0  0999 V2000
    2.6299   -0.2027    0.2978 C   0  0  0  0  0  0  0  0  0  0  0  0
    2.0978    0.2762    1.5371 O   0  0  0  0  0  0  0  0  0  0  0  0
    1.2100   -0.4702    0.8096 C   0  0  0  0  0  0  0  0  0  0  0  0
    0.1548    0.1424   -0.0411 C   0  0  0  0  0  0  0  0  0  0  0  0
    0.1651    1.6094   -0.2157 C   0  0  0  0  0  0  0  0  0  0  0  0
   -0.9625    0.9340    0.4915 C   0  0  0  0  0  0  0  0  0  0  0  0
   -1.9197    0.1496   -0.3653 C   0  0  0  0  0  0  0  0  0  0  0  0
   -1.9882   -1.3237   -0.2533 C   0  0  0  0  0  0  0  0  0  0  0  0
   -0.7337   -0.7629   -0.8103 C   0  0  0  0  0  0  0  0  0  0  0  0
    3.3696   -1.0011    0.3325 H   0  0  0  0  0  0  0  0  0  0  0  0
    2.7687    0.6586   -0.4032 H   0  0  0  0  0  0  0  0  0  0  0  0
    1.0834   -1.5178    1.1972 H   0  0  0  0  0  0  0  0  0  0  0  0
   -0.0201    1.9638   -1.2558 H   0  0  0  0  0  0  0  0  0  0  0  0
    0.8522    2.1683    0.4349 H   0  0  0  0  0  0  0  0  0  0  0  0
   -1.1554    1.1004    1.5531 H   0  0  0  0  0  0  0  0  0  0  0  0
   -2.3714    0.7086   -1.1992 H   0  0  0  0  0  0  0  0  0  0  0  0
   -2.6496   -1.8255   -0.9895 H   0  0  0  0  0  0  0  0  0  0  0  0
   -1.9813   -1.7693    0.7673 H   0  0  0  0  0  0  0  0  0  0  0  0
   -0.5495   -0.8382   -1.8877 H   0  0  0  0  0  0  0  0  0  0  0  0
  1  2  1  0
  2  3  1  0
  3  4  1  0
  4  5  1  0
  5  6  1  0
  6  7  1  0
  7  8  1  0
  8  9  1  0
  3  1  1  0
  6  4  1  0
  9  7  1  0
  9  4  1  0
  1 10  1  0
  1 11  1  0
  3 12  1  0
  5 13  1  0
  5 14  1  0
  6 15  1  0
  7 16  1  0
  8 17  1  0
  8 18  1  0
  9 19  1  0
M  END
