
     RDKit          3D

 15 16  0  0  0  0  0  0  0  0999 V2000
   -1.2716   -0.7900    0.0463 C   0  0  0  0  0  0  0  0  0  0  0  0
   -0.5699   -0.6135    1.2185 O   0  0  0  0  0  0  0  0  0  0  0  0
    0.4972    0.2313    0.9596 C   0  0  0  0  0  0  0  0  0  0  0  0
    1.4229   -0.4917    0.0133 C   0  0  0  0  0  0  0  0  0  0  0  0
    0.7334   -0.5785   -1.1849 O   0  0  0  0  0  0  0  0  0  0  0  0
   -0.5132    0.0059   -0.9917 C   0  0  0  0  0  0  0  0  0  0  0  0
   -0.1361    1.1851   -0.0718 C   0  0  0  0  0  0  0  0  0  0  0  0
   -1.4351   -1.8309   -0.2365 H   0  0  0  0  0  0  0  0  0  0  0  0
   -2.2550   -0.2503    0.1814 H   0  0  0  0  0  0  0  0  0  0  0  0
    0.9413    0.7209    1.7906 H   0  0  0  0  0  0  0  0  0  0  0  0
    2.3783    0.0837   -0.0936 H   0  0  0  0  0  0  0  0  0  0  0  0
    1.6885   -1.4556    0.4485 H   0  0  0  0  0  0  0  0  0  0  0  0
   -1.0476    0.2891   -1.8622 H   0  0  0  0  0  0  0  0  0  0  0  0
   -1.0358    1.6616    0.3135 H   0  0  0  0  0  0  0  0  0  0  0  0
    0.6026    1.8329   -0.5310 H   0  0  0  0  0  0  0  0  0  0  0  0
  1  2  1  0
  2  3  1  0
  3  4  1  0
  4  5  1  0
  5  6  1  0
  6  7  1  0
  6  1  1  0
  7  3  1  0
  1  8  1  0
  1  9  1  0
  3 10  1  0
  4 11  1  0
  4 12  1  0
  6 13  1  0
  7 14  1  0
  7 15  1  0
M  END
