
     RDKit          3D

 19 21  0  0  0  0  0  0  0  0999 V2000
   -1.1619    1.2924   -0.1346 C   0  0  0  0  0  0  0  0  0  0  0  0
   -0.1691    1.2829   -1.0553 O   0  0  0  0  0  0  0  0  0  0  0  0
    0.8030    0.3619   -0.9610 C   0  0  0  0  0  0  0  0  0  0  0  0
    1.7759    0.4779    0.2014 C   0  0  0  0  0  0  0  0  0  0  0  0
    0.8892   -0.5428    0.9274 C   0  0  0  0  0  0  0  0  0  0  0  0
   -0.1824    0.0110    1.5680 O   0  0  0  0  0  0  0  0  0  0  0  0
   -1.2566    0.0641    0.7251 C   0  0  0  0  0  0  0  0  0  0  0  0
   -1.0664   -1.1260   -0.2275 C   0  0  0  0  0  0  0  0  0  0  0  0
    0.4193   -0.9857   -0.4552 C   0  0  0  0  0  0  0  0  0  0  0  0
   -1.1340    2.2124    0.4896 H   0  0  0  0  0  0  0  0  0  0  0  0
   -2.1439    1.3605   -0.6912 H   0  0  0  0  0  0  0  0  0  0  0  0
    1.3661    0.2622   -1.9289 H   0  0  0  0  0  0  0  0  0  0  0  0
    1.8185    1.4631    0.6702 H   0  0  0  0  0  0  0  0  0  0  0  0
    2.7598    0.0043   -0.0482 H   0  0  0  0  0  0  0  0  0  0  0  0
    1.4378   -1.3042    1.4923 H   0  0  0  0  0  0  0  0  0  0  0  0
   -2.2269    0.0392    1.2264 H   0  0  0  0  0  0  0  0  0  0  0  0
   -1.5807   -0.9574   -1.1860 H   0  0  0  0  0  0  0  0  0  0  0  0
   -1.2826   -2.0698    0.2636 H   0  0  0  0  0  0  0  0  0  0  0  0
    0.9350   -1.8460   -0.8760 H   0  0  0  0  0  0  0  0  0  0  0  0
  1  2  1  0
  2  3  1  0
  3  4  1  0
  4  5  1  0
  5  6  1  0
  6  7  1  0
  7  8  1  0
  8  9  1  0
  7  1  1  0
  9  3  1  0
  9  5  1  0
  1 10  1  0
  1 11  1  0
  3 12  1  0
  4 13  1  0
  4 14  1  0
  5 15  1  0
  7 16  1  0
  8 17  1  0
  8 18  1  0
  9 19  1  0
M  END
