
     RDKit          3D

 19 21  0  0  0  0  0  0  0  0999 V2000
    3.1708    0.2626   -0.8593 C   0  0  0  0  0  0  0  0  0  0  0  0
    2.8068    0.1632    0.4804 O   0  0  0  0  0  0  0  0  0  0  0  0
    1.9413   -0.4199   -0.5780 C   0  0  0  0  0  0  0  0  0  0  0  0
    0.6072    0.2638   -0.5042 C   0  0  0  0  0  0  0  0  0  0  0  0
   -0.2520   -0.3829    0.5801 C   0  0  0  0  0  0  0  0  0  0  0  0
   -1.2762   -0.1177   -0.4566 C   0  0  0  0  0  0  0  0  0  0  0  0
   -2.6090   -0.6595   -0.5014 C   0  0  0  0  0  0  0  0  0  0  0  0
   -2.3439    0.8658   -0.3470 C   0  0  0  0  0  0  0  0  0  0  0  0
   -0.3341   -0.1654   -1.4343 O   0  0  0  0  0  0  0  0  0  0  0  0
    3.1802    1.2684   -1.3426 H   0  0  0  0  0  0  0  0  0  0  0  0
    4.0654   -0.3394   -1.1108 H   0  0  0  0  0  0  0  0  0  0  0  0
    1.9286   -1.5089   -0.4159 H   0  0  0  0  0  0  0  0  0  0  0  0
    0.6108    1.3528   -0.3961 H   0  0  0  0  0  0  0  0  0  0  0  0
   -0.0082   -1.4582    0.7228 H   0  0  0  0  0  0  0  0  0  0  0  0
   -0.3081    0.2186    1.5070 H   0  0  0  0  0  0  0  0  0  0  0  0
   -3.0951   -0.9757   -1.4401 H   0  0  0  0  0  0  0  0  0  0  0  0
   -2.9896   -1.1568    0.4394 H   0  0  0  0  0  0  0  0  0  0  0  0
   -2.5514    1.4774   -1.2672 H   0  0  0  0  0  0  0  0  0  0  0  0
   -2.5435    1.3119    0.6314 H   0  0  0  0  0  0  0  0  0  0  0  0
  1  2  1  0
  2  3  1  0
  3  4  1  0
  4  5  1  0
  5  6  1  0
  6  7  1  0
  7  8  1  0
  6  9  1  0
  3  1  1  0
  9  4  1  0
  8  6  1  0
  1 10  1  0
  1 11  1  0
  3 12  1  0
  4 13  1  0
  5 14  1  0
  5 15  1  0
  7 16  1  0
  7 17  1  0
  8 18  1  0
  8 19  1  0
M  END
