
     RDKit          3D

 19 21  0  0  0  0  0  0  0  0999 V2000
    2.3631   -0.3382    0.5452 C   0  0  0  0  0  0  0  0  0  0  0  0
    2.2642    0.0715   -0.7943 O   0  0  0  0  0  0  0  0  0  0  0  0
    0.9209   -0.1238   -0.7227 C   0  0  0  0  0  0  0  0  0  0  0  0
    0.1029    1.0774   -0.2237 C   0  0  0  0  0  0  0  0  0  0  0  0
   -0.7859    0.3159    0.7164 C   0  0  0  0  0  0  0  0  0  0  0  0
   -1.8931   -0.4504   -0.0042 C   0  0  0  0  0  0  0  0  0  0  0  0
   -2.1531    0.6223    1.0114 C   0  0  0  0  0  0  0  0  0  0  0  0
    0.0851   -0.4385    1.4329 O   0  0  0  0  0  0  0  0  0  0  0  0
    0.9939   -0.9492    0.5245 C   0  0  0  0  0  0  0  0  0  0  0  0
    3.1744   -1.0433    0.7569 H   0  0  0  0  0  0  0  0  0  0  0  0
    2.4633    0.5553    1.2170 H   0  0  0  0  0  0  0  0  0  0  0  0
    0.4148   -0.6584   -1.5314 H   0  0  0  0  0  0  0  0  0  0  0  0
    0.7993    1.7047    0.3627 H   0  0  0  0  0  0  0  0  0  0  0  0
   -0.4164    1.5893   -1.0288 H   0  0  0  0  0  0  0  0  0  0  0  0
   -2.0556   -0.2870   -1.0701 H   0  0  0  0  0  0  0  0  0  0  0  0
   -2.0850   -1.4991    0.3191 H   0  0  0  0  0  0  0  0  0  0  0  0
   -2.5825    1.5689    0.5746 H   0  0  0  0  0  0  0  0  0  0  0  0
   -2.5600    0.3233    2.0094 H   0  0  0  0  0  0  0  0  0  0  0  0
    0.9498   -2.0405    0.3944 H   0  0  0  0  0  0  0  0  0  0  0  0
  1  2  1  0
  2  3  1  0
  3  4  1  0
  4  5  1  0
  5  6  1  0
  6  7  1  0
  5  8  1  0
  8  9  1  0
  9  1  1  0
  9  3  1  0
  7  5  1  0
  1 10  1  0
  1 11  1  0
  3 12  1  0
  4 13  1  0
  4 14  1  0
  6 15  1  0
  6 16  1  0
  7 17  1  0
  7 18  1  0
  9 19  1  0
M  END
