
     RDKit          3D

 16 19  0  0  0  0  0  0  0  0999 V2000
    0.4558   -1.5156   -0.4982 C   0  0  0  0  0  0  0  0  0  0  0  0
    1.5224   -0.6618   -0.5747 O   0  0  0  0  0  0  0  0  0  0  0  0
    1.4078    0.4377    0.2194 C   0  0  0  0  0  0  0  0  0  0  0  0
    0.3343    1.3225   -0.2682 C   0  0  0  0  0  0  0  0  0  0  0  0
   -0.8765    0.6036   -0.7315 C   0  0  0  0  0  0  0  0  0  0  0  0
   -0.8733   -0.8429   -0.5449 C   0  0  0  0  0  0  0  0  0  0  0  0
   -1.0306    0.0373    0.6292 C   0  0  0  0  0  0  0  0  0  0  0  0
    0.2655    0.5525    1.0945 C   0  0  0  0  0  0  0  0  0  0  0  0
    0.5169   -2.0231    0.5108 H   0  0  0  0  0  0  0  0  0  0  0  0
    0.5586   -2.3296   -1.2508 H   0  0  0  0  0  0  0  0  0  0  0  0
    2.3445    0.9301    0.5183 H   0  0  0  0  0  0  0  0  0  0  0  0
    0.3621    2.4027   -0.2119 H   0  0  0  0  0  0  0  0  0  0  0  0
   -1.6482    1.1597   -1.2502 H   0  0  0  0  0  0  0  0  0  0  0  0
   -1.7566   -1.4140   -0.8409 H   0  0  0  0  0  0  0  0  0  0  0  0
   -1.9220    0.1266    1.2259 H   0  0  0  0  0  0  0  0  0  0  0  0
    0.3392    1.2142    1.9730 H   0  0  0  0  0  0  0  0  0  0  0  0
  1  2  1  0
  2  3  1  0
  3  4  1  0
  4  5  1  0
  5  6  1  0
  6  7  1  0
  7  8  1  0
  6  1  1  0
  8  3  1  0
  8  4  1  0
  7  5  1  0
  1  9  1  0
  1 10  1  0
  3 11  1  0
  4 12  1  0
  5 13  1  0
  6 14  1  0
  7 15  1  0
  8 16  1  0
M  END
