
     RDKit          3D

 19 21  0  0  0  0  0  0  0  0999 V2000
   -1.6057   -1.0610    0.1270 C   0  0  0  0  0  0  0  0  0  0  0  0
   -1.8730    0.1643    0.6985 O   0  0  0  0  0  0  0  0  0  0  0  0
   -1.2251    1.1626   -0.0660 C   0  0  0  0  0  0  0  0  0  0  0  0
    0.2509    1.0922    0.0519 C   0  0  0  0  0  0  0  0  0  0  0  0
    0.9983    0.3354   -1.0227 C   0  0  0  0  0  0  0  0  0  0  0  0
    1.9196   -0.0721    0.1429 C   0  0  0  0  0  0  0  0  0  0  0  0
    0.5871   -0.1737    0.8555 C   0  0  0  0  0  0  0  0  0  0  0  0
   -0.1031   -1.2185    0.0369 C   0  0  0  0  0  0  0  0  0  0  0  0
    0.3181   -0.8361   -1.2638 O   0  0  0  0  0  0  0  0  0  0  0  0
   -2.0065   -1.8799    0.7539 H   0  0  0  0  0  0  0  0  0  0  0  0
   -2.0743   -1.0930   -0.8816 H   0  0  0  0  0  0  0  0  0  0  0  0
   -1.6248    1.1950   -1.0830 H   0  0  0  0  0  0  0  0  0  0  0  0
   -1.5349    2.1288    0.4344 H   0  0  0  0  0  0  0  0  0  0  0  0
    0.8007    1.9819    0.3544 H   0  0  0  0  0  0  0  0  0  0  0  0
    1.4484    0.8786   -1.8187 H   0  0  0  0  0  0  0  0  0  0  0  0
    2.5068    0.7904    0.5202 H   0  0  0  0  0  0  0  0  0  0  0  0
    2.4594   -1.0042   -0.0112 H   0  0  0  0  0  0  0  0  0  0  0  0
    0.5315   -0.1406    1.8993 H   0  0  0  0  0  0  0  0  0  0  0  0
    0.2266   -2.2499    0.2722 H   0  0  0  0  0  0  0  0  0  0  0  0
  1  2  1  0
  2  3  1  0
  3  4  1  0
  4  5  1  0
  5  6  1  0
  6  7  1  0
  7  8  1  0
  8  9  1  0
  8  1  1  0
  7  4  1  0
  9  5  1  0
  1 10  1  0
  1 11  1  0
  3 12  1  0
  3 13  1  0
  4 14  1  0
  5 15  1  0
  6 16  1  0
  6 17  1  0
  7 18  1  0
  8 19  1  0
M  END
