
     RDKit          3D

 17 19  0  0  0  0  0  0  0  0999 V2000
   -0.9804   -0.9992   -0.8732 C   0  0  0  0  0  0  0  0  0  0  0  0
   -1.7262    0.1947   -0.7616 O   0  0  0  0  0  0  0  0  0  0  0  0
   -1.0648    0.8436    0.2925 C   0  0  0  0  0  0  0  0  0  0  0  0
    0.2312    1.4239   -0.1545 C   0  0  0  0  0  0  0  0  0  0  0  0
    1.4411    0.6601    0.2484 C   0  0  0  0  0  0  0  0  0  0  0  0
    1.8751   -0.2847   -0.6715 O   0  0  0  0  0  0  0  0  0  0  0  0
    1.2042   -0.8326    0.3736 C   0  0  0  0  0  0  0  0  0  0  0  0
   -0.2341   -1.1438    0.3902 C   0  0  0  0  0  0  0  0  0  0  0  0
   -0.8614   -0.1862    1.2237 O   0  0  0  0  0  0  0  0  0  0  0  0
   -1.7628   -1.8081   -0.9631 H   0  0  0  0  0  0  0  0  0  0  0  0
   -0.4082   -1.0241   -1.7943 H   0  0  0  0  0  0  0  0  0  0  0  0
   -1.6977    1.6200    0.7378 H   0  0  0  0  0  0  0  0  0  0  0  0
    0.3354    2.4675    0.2364 H   0  0  0  0  0  0  0  0  0  0  0  0
    0.1739    1.5428   -1.2737 H   0  0  0  0  0  0  0  0  0  0  0  0
    2.1132    1.0632    1.0104 H   0  0  0  0  0  0  0  0  0  0  0  0
    1.8150   -1.4025    1.1331 H   0  0  0  0  0  0  0  0  0  0  0  0
   -0.4534   -2.1346    0.8455 H   0  0  0  0  0  0  0  0  0  0  0  0
  1  2  1  0
  2  3  1  0
  3  4  1  0
  4  5  1  0
  5  6  1  0
  6  7  1  0
  7  8  1  0
  8  9  1  0
  8  1  1  0
  9  3  1  0
  7  5  1  0
  1 10  1  0
  1 11  1  0
  3 12  1  0
  4 13  1  0
  4 14  1  0
  5 15  1  0
  7 16  1  0
  8 17  1  0
M  END
