
     RDKit          3D

 19 20  0  0  0  0  0  0  0  0999 V2000
   -1.8313    1.3862   -0.2891 C   0  0  0  0  0  0  0  0  0  0  0  0
   -2.6281    0.2566   -0.2884 O   0  0  0  0  0  0  0  0  0  0  0  0
   -1.8462   -0.8079    0.1186 C   0  0  0  0  0  0  0  0  0  0  0  0
   -0.4708   -0.3894   -0.3321 C   0  0  0  0  0  0  0  0  0  0  0  0
    0.5400   -0.9326    0.6463 C   0  0  0  0  0  0  0  0  0  0  0  0
    1.9423   -0.5838    0.3066 C   0  0  0  0  0  0  0  0  0  0  0  0
    2.4458    0.7646    0.1979 C   0  0  0  0  0  0  0  0  0  0  0  0
    2.0172    0.0717   -1.0029 O   0  0  0  0  0  0  0  0  0  0  0  0
   -0.5183    0.9897   -0.1720 O   0  0  0  0  0  0  0  0  0  0  0  0
   -2.1136    2.0958    0.5415 H   0  0  0  0  0  0  0  0  0  0  0  0
   -1.9598    1.9927   -1.2271 H   0  0  0  0  0  0  0  0  0  0  0  0
   -2.1937   -1.7469   -0.3798 H   0  0  0  0  0  0  0  0  0  0  0  0
   -1.9069   -1.0102    1.2077 H   0  0  0  0  0  0  0  0  0  0  0  0
   -0.2825   -0.6891   -1.3645 H   0  0  0  0  0  0  0  0  0  0  0  0
    0.4339   -2.0393    0.6269 H   0  0  0  0  0  0  0  0  0  0  0  0
    0.3021   -0.5390    1.6660 H   0  0  0  0  0  0  0  0  0  0  0  0
    2.6921   -1.3986    0.4423 H   0  0  0  0  0  0  0  0  0  0  0  0
    1.8416    1.6636    0.4584 H   0  0  0  0  0  0  0  0  0  0  0  0
    3.5363    0.9159    0.1543 H   0  0  0  0  0  0  0  0  0  0  0  0
  1  2  1  0
  2  3  1  0
  3  4  1  0
  4  5  1  0
  5  6  1  0
  6  7  1  0
  7  8  1  0
  4  9  1  0
  9  1  1  0
  8  6  1  0
  1 10  1  0
  1 11  1  0
  3 12  1  0
  3 13  1  0
  4 14  1  0
  5 15  1  0
  5 16  1  0
  6 17  1  0
  7 18  1  0
  7 19  1  0
M  END
