
     RDKit          3D

 21 23  0  0  0  0  0  0  0  0999 V2000
   -1.2086    1.0560   -0.2377 C   0  0  0  0  0  0  0  0  0  0  0  0
   -0.1185    1.6428   -0.8156 O   0  0  0  0  0  0  0  0  0  0  0  0
    0.9706    1.6877    0.0953 C   0  0  0  0  0  0  0  0  0  0  0  0
    1.0461    0.2881    0.6458 C   0  0  0  0  0  0  0  0  0  0  0  0
    2.0120   -0.7176    0.2744 C   0  0  0  0  0  0  0  0  0  0  0  0
    0.8528   -0.6257   -0.5663 C   0  0  0  0  0  0  0  0  0  0  0  0
   -0.4291   -1.3357   -0.4763 C   0  0  0  0  0  0  0  0  0  0  0  0
   -1.4044   -1.3080    0.5776 C   0  0  0  0  0  0  0  0  0  0  0  0
   -1.5265   -0.3370   -0.5944 C   0  0  0  0  0  0  0  0  0  0  0  0
   -2.1016    1.6867   -0.5295 H   0  0  0  0  0  0  0  0  0  0  0  0
   -1.1347    1.2327    0.8761 H   0  0  0  0  0  0  0  0  0  0  0  0
    1.8487    1.9522   -0.5107 H   0  0  0  0  0  0  0  0  0  0  0  0
    0.8174    2.4596    0.8505 H   0  0  0  0  0  0  0  0  0  0  0  0
    0.4488    0.1404    1.5416 H   0  0  0  0  0  0  0  0  0  0  0  0
    2.9984   -0.3816   -0.1342 H   0  0  0  0  0  0  0  0  0  0  0  0
    2.1829   -1.5475    1.0204 H   0  0  0  0  0  0  0  0  0  0  0  0
    1.0129   -0.1806   -1.5953 H   0  0  0  0  0  0  0  0  0  0  0  0
   -0.4813   -2.2120   -1.1958 H   0  0  0  0  0  0  0  0  0  0  0  0
   -1.2872   -0.9059    1.5967 H   0  0  0  0  0  0  0  0  0  0  0  0
   -2.2207   -2.0790    0.5516 H   0  0  0  0  0  0  0  0  0  0  0  0
   -2.2780   -0.5155   -1.3741 H   0  0  0  0  0  0  0  0  0  0  0  0
  1  2  1  0
  2  3  1  0
  3  4  1  0
  4  5  1  0
  5  6  1  0
  6  7  1  0
  7  8  1  0
  8  9  1  0
  9  1  1  0
  6  4  1  0
  9  7  1  0
  1 10  1  0
  1 11  1  0
  3 12  1  0
  3 13  1  0
  4 14  1  0
  5 15  1  0
  5 16  1  0
  6 17  1  0
  7 18  1  0
  8 19  1  0
  8 20  1  0
  9 21  1  0
M  END
