
     RDKit          3D

 21 23  0  0  0  0  0  0  0  0999 V2000
   -0.9727   -0.0606    1.5472 C   0  0  0  0  0  0  0  0  0  0  0  0
    0.3341   -0.4242    1.3397 O   0  0  0  0  0  0  0  0  0  0  0  0
    0.8848    0.0416    0.1664 C   0  0  0  0  0  0  0  0  0  0  0  0
    2.1480    0.7549    0.2040 C   0  0  0  0  0  0  0  0  0  0  0  0
    2.1676   -0.6677   -0.2532 C   0  0  0  0  0  0  0  0  0  0  0  0
   -0.1173    0.1397   -0.9380 C   0  0  0  0  0  0  0  0  0  0  0  0
   -1.2912    1.0332   -0.5976 C   0  0  0  0  0  0  0  0  0  0  0  0
   -1.7736   -0.1277    0.2846 C   0  0  0  0  0  0  0  0  0  0  0  0
   -1.0790   -1.0417   -0.7345 C   0  0  0  0  0  0  0  0  0  0  0  0
   -1.4401   -0.7392    2.2891 H   0  0  0  0  0  0  0  0  0  0  0  0
   -0.9938    0.9786    1.9889 H   0  0  0  0  0  0  0  0  0  0  0  0
    2.6060    0.9064    1.2188 H   0  0  0  0  0  0  0  0  0  0  0  0
    2.4539    1.5482   -0.5007 H   0  0  0  0  0  0  0  0  0  0  0  0
    2.3729   -0.7909   -1.3400 H   0  0  0  0  0  0  0  0  0  0  0  0
    2.5373   -1.4777    0.3757 H   0  0  0  0  0  0  0  0  0  0  0  0
    0.2677    0.2038   -1.9503 H   0  0  0  0  0  0  0  0  0  0  0  0
   -1.0664    1.9503   -0.0548 H   0  0  0  0  0  0  0  0  0  0  0  0
   -1.9692    1.1093   -1.4654 H   0  0  0  0  0  0  0  0  0  0  0  0
   -2.8469   -0.2418    0.3582 H   0  0  0  0  0  0  0  0  0  0  0  0
   -0.5625   -1.9030   -0.2944 H   0  0  0  0  0  0  0  0  0  0  0  0
   -1.6595   -1.1914   -1.6437 H   0  0  0  0  0  0  0  0  0  0  0  0
  1  2  1  0
  2  3  1  0
  3  4  1  0
  4  5  1  0
  3  6  1  0
  6  7  1  0
  7  8  1  0
  8  9  1  0
  8  1  1  0
  5  3  1  0
  9  6  1  0
  1 10  1  0
  1 11  1  0
  4 12  1  0
  4 13  1  0
  5 14  1  0
  5 15  1  0
  6 16  1  0
  7 17  1  0
  7 18  1  0
  8 19  1  0
  9 20  1  0
  9 21  1  0
M  END
