
     RDKit          3D

 19 21  0  0  0  0  0  0  0  0999 V2000
    2.6258    0.1302    0.8120 C   0  0  0  0  0  0  0  0  0  0  0  0
    1.6401    0.9697    1.5194 O   0  0  0  0  0  0  0  0  0  0  0  0
    1.4952    0.7363    0.1442 C   0  0  0  0  0  0  0  0  0  0  0  0
    0.2941   -0.0048   -0.3388 C   0  0  0  0  0  0  0  0  0  0  0  0
   -0.4390   -0.7233    0.8110 C   0  0  0  0  0  0  0  0  0  0  0  0
   -1.9207   -0.6108    0.4115 C   0  0  0  0  0  0  0  0  0  0  0  0
   -1.8047   -0.1880   -1.0015 C   0  0  0  0  0  0  0  0  0  0  0  0
   -1.7206    0.9684   -1.6022 O   0  0  0  0  0  0  0  0  0  0  0  0
   -0.7812    0.9544   -0.6986 C   0  0  0  0  0  0  0  0  0  0  0  0
    3.6132    0.6327    0.7616 H   0  0  0  0  0  0  0  0  0  0  0  0
    2.6150   -0.8646    1.2538 H   0  0  0  0  0  0  0  0  0  0  0  0
    1.7082    1.6697   -0.4541 H   0  0  0  0  0  0  0  0  0  0  0  0
    0.4995   -0.7820   -1.0855 H   0  0  0  0  0  0  0  0  0  0  0  0
   -0.1546   -1.7686    0.8882 H   0  0  0  0  0  0  0  0  0  0  0  0
   -0.3365   -0.1416    1.7525 H   0  0  0  0  0  0  0  0  0  0  0  0
   -2.4713    0.0690    1.0585 H   0  0  0  0  0  0  0  0  0  0  0  0
   -2.4133   -1.6096    0.4600 H   0  0  0  0  0  0  0  0  0  0  0  0
   -1.4132   -1.0363   -1.6434 H   0  0  0  0  0  0  0  0  0  0  0  0
   -1.0362    1.5992    0.2008 H   0  0  0  0  0  0  0  0  0  0  0  0
  1  2  1  0
  2  3  1  0
  3  4  1  0
  4  5  1  0
  5  6  1  0
  6  7  1  0
  7  8  1  0
  8  9  1  0
  3  1  1  0
  9  4  1  0
  9  7  1  0
  1 10  1  0
  1 11  1  0
  3 12  1  0
  4 13  1  0
  5 14  1  0
  5 15  1  0
  6 16  1  0
  6 17  1  0
  7 18  1  0
  9 19  1  0
M  END
