
     RDKit          3D

 16 17  0  0  0  0  0  0  0  0999 V2000
    1.8001    0.3924    0.6764 C   0  0  0  0  0  0  0  0  0  0  0  0
    0.7514    1.2480    0.4436 O   0  0  0  0  0  0  0  0  0  0  0  0
    0.0299    0.7059   -0.6016 C   0  0  0  0  0  0  0  0  0  0  0  0
   -1.4340    0.8268   -0.2758 C   0  0  0  0  0  0  0  0  0  0  0  0
   -1.8018   -0.2659    0.4600 O   0  0  0  0  0  0  0  0  0  0  0  0
   -0.8802   -1.2575    0.3169 C   0  0  0  0  0  0  0  0  0  0  0  0
    0.2770   -0.7674   -0.4721 C   0  0  0  0  0  0  0  0  0  0  0  0
    1.4892   -0.8428    0.1646 O   0  0  0  0  0  0  0  0  0  0  0  0
    2.7089    0.8464    0.2069 H   0  0  0  0  0  0  0  0  0  0  0  0
    1.9658    0.2784    1.7787 H   0  0  0  0  0  0  0  0  0  0  0  0
    0.3069    1.0942   -1.5846 H   0  0  0  0  0  0  0  0  0  0  0  0
   -1.5688    1.7289    0.3882 H   0  0  0  0  0  0  0  0  0  0  0  0
   -2.0667    1.0183   -1.1626 H   0  0  0  0  0  0  0  0  0  0  0  0
   -0.5833   -1.6072    1.3415 H   0  0  0  0  0  0  0  0  0  0  0  0
   -1.3576   -2.1065   -0.2337 H   0  0  0  0  0  0  0  0  0  0  0  0
    0.3632   -1.2919   -1.4465 H   0  0  0  0  0  0  0  0  0  0  0  0
  1  2  1  0
  2  3  1  0
  3  4  1  0
  4  5  1  0
  5  6  1  0
  6  7  1  0
  7  8  1  0
  8  1  1  0
  7  3  1  0
  1  9  1  0
  1 10  1  0
  3 11  1  0
  4 12  1  0
  4 13  1  0
  6 14  1  0
  6 15  1  0
  7 16  1  0
M  END
