
     RDKit          3D

 19 21  0  0  0  0  0  0  0  0999 V2000
    2.1498    0.0590    0.0207 C   0  0  0  0  0  0  0  0  0  0  0  0
    1.7381    1.3498   -0.2153 O   0  0  0  0  0  0  0  0  0  0  0  0
    0.3901    1.4287    0.1607 C   0  0  0  0  0  0  0  0  0  0  0  0
    0.4076    0.6043    1.3130 O   0  0  0  0  0  0  0  0  0  0  0  0
    0.9371   -0.5531    0.6875 C   0  0  0  0  0  0  0  0  0  0  0  0
   -0.0828   -0.8197   -0.3622 C   0  0  0  0  0  0  0  0  0  0  0  0
   -1.4723   -1.1340    0.0844 C   0  0  0  0  0  0  0  0  0  0  0  0
   -1.8127    0.3335   -0.0636 C   0  0  0  0  0  0  0  0  0  0  0  0
   -0.4968    0.6115   -0.7355 C   0  0  0  0  0  0  0  0  0  0  0  0
    3.0511   -0.0352    0.6263 H   0  0  0  0  0  0  0  0  0  0  0  0
    2.2653   -0.4329   -0.9886 H   0  0  0  0  0  0  0  0  0  0  0  0
    0.0466    2.4329    0.3645 H   0  0  0  0  0  0  0  0  0  0  0  0
    1.1499   -1.3500    1.3760 H   0  0  0  0  0  0  0  0  0  0  0  0
    0.3083   -1.4035   -1.2135 H   0  0  0  0  0  0  0  0  0  0  0  0
   -1.4827   -1.5183    1.1281 H   0  0  0  0  0  0  0  0  0  0  0  0
   -2.0268   -1.7670   -0.6441 H   0  0  0  0  0  0  0  0  0  0  0  0
   -2.6547    0.5772   -0.7111 H   0  0  0  0  0  0  0  0  0  0  0  0
   -1.9137    0.7817    0.9646 H   0  0  0  0  0  0  0  0  0  0  0  0
   -0.5014    0.8353   -1.7920 H   0  0  0  0  0  0  0  0  0  0  0  0
  1  2  1  0
  2  3  1  0
  3  4  1  0
  4  5  1  0
  5  6  1  0
  6  7  1  0
  7  8  1  0
  8  9  1  0
  5  1  1  0
  9  6  1  0
  9  3  1  0
  1 10  1  0
  1 11  1  0
  3 12  1  0
  5 13  1  0
  6 14  1  0
  7 15  1  0
  7 16  1  0
  8 17  1  0
  8 18  1  0
  9 19  1  0
M  END
