
     RDKit          3D

 19 21  0  0  0  0  0  0  0  0999 V2000
    1.3425   -1.0328   -0.5963 C   0  0  0  0  0  0  0  0  0  0  0  0
    0.9262   -1.2296    0.6893 O   0  0  0  0  0  0  0  0  0  0  0  0
   -0.2892   -0.6137    0.9987 C   0  0  0  0  0  0  0  0  0  0  0  0
   -1.3470   -1.1311    0.0131 C   0  0  0  0  0  0  0  0  0  0  0  0
   -1.1978    0.1751   -0.7118 C   0  0  0  0  0  0  0  0  0  0  0  0
   -0.3669    0.6779    0.4276 C   0  0  0  0  0  0  0  0  0  0  0  0
    0.1125    1.9752    0.4391 C   0  0  0  0  0  0  0  0  0  0  0  0
    1.1440    1.0309    0.1598 C   0  0  0  0  0  0  0  0  0  0  0  0
    1.4123    0.3322   -0.9699 O   0  0  0  0  0  0  0  0  0  0  0  0
    2.4195   -1.3737   -0.6379 H   0  0  0  0  0  0  0  0  0  0  0  0
    0.8222   -1.6203   -1.3619 H   0  0  0  0  0  0  0  0  0  0  0  0
   -0.5481   -0.8019    2.0411 H   0  0  0  0  0  0  0  0  0  0  0  0
   -2.3169   -1.2956    0.5262 H   0  0  0  0  0  0  0  0  0  0  0  0
   -1.0389   -1.9754   -0.5979 H   0  0  0  0  0  0  0  0  0  0  0  0
   -2.1938    0.7084   -0.6988 H   0  0  0  0  0  0  0  0  0  0  0  0
   -0.7513    0.1580   -1.7038 H   0  0  0  0  0  0  0  0  0  0  0  0
    0.2196    2.5878    1.3789 H   0  0  0  0  0  0  0  0  0  0  0  0
   -0.1914    2.6706   -0.4045 H   0  0  0  0  0  0  0  0  0  0  0  0
    1.8424    0.7580    1.0090 H   0  0  0  0  0  0  0  0  0  0  0  0
  1  2  1  0
  2  3  1  0
  3  4  1  0
  4  5  1  0
  5  6  1  0
  6  7  1  0
  7  8  1  0
  8  9  1  0
  9  1  1  0
  6  3  1  0
  8  6  1  0
  1 10  1  0
  1 11  1  0
  3 12  1  0
  4 13  1  0
  4 14  1  0
  5 15  1  0
  5 16  1  0
  7 17  1  0
  7 18  1  0
  8 19  1  0
M  END
