
     RDKit          3D

 17 18  0  0  0  0  0  0  0  0999 V2000
    1.6441    1.4275   -0.2043 C   0  0  0  0  0  0  0  0  0  0  0  0
    2.5714    0.5634    0.1427 O   0  0  0  0  0  0  0  0  0  0  0  0
    2.0581   -0.6354    0.3203 C   0  0  0  0  0  0  0  0  0  0  0  0
    0.7030   -0.5862    0.0805 C   0  0  0  0  0  0  0  0  0  0  0  0
    0.4510    0.7277   -0.2516 C   0  0  0  0  0  0  0  0  0  0  0  0
   -0.9551    1.0854   -0.5679 C   0  0  0  0  0  0  0  0  0  0  0  0
   -1.8189    0.1420    0.2805 C   0  0  0  0  0  0  0  0  0  0  0  0
   -1.6017   -1.1438   -0.1484 O   0  0  0  0  0  0  0  0  0  0  0  0
   -0.3335   -1.6298    0.1354 C   0  0  0  0  0  0  0  0  0  0  0  0
    1.7871    2.4996   -0.4164 H   0  0  0  0  0  0  0  0  0  0  0  0
    2.6328   -1.5058    0.6092 H   0  0  0  0  0  0  0  0  0  0  0  0
   -1.1855    2.1388   -0.3729 H   0  0  0  0  0  0  0  0  0  0  0  0
   -1.1277    0.7873   -1.6232 H   0  0  0  0  0  0  0  0  0  0  0  0
   -1.4747    0.3216    1.3376 H   0  0  0  0  0  0  0  0  0  0  0  0
   -2.8821    0.3803    0.1873 H   0  0  0  0  0  0  0  0  0  0  0  0
   -0.0792   -2.4202   -0.6212 H   0  0  0  0  0  0  0  0  0  0  0  0
   -0.3893   -2.1526    1.1124 H   0  0  0  0  0  0  0  0  0  0  0  0
  1  2  1  0
  2  3  1  0
  3  4  2  0
  4  5  1  0
  5  6  1  0
  6  7  1  0
  7  8  1  0
  8  9  1  0
  5  1  2  0
  9  4  1  0
  1 10  1  0
  3 11  1  0
  6 12  1  0
  6 13  1  0
  7 14  1  0
  7 15  1  0
  9 16  1  0
  9 17  1  0
M  END
