
     RDKit          3D

 17 19  0  0  0  0  0  0  0  0999 V2000
    2.3746    0.8601   -0.0800 C   0  0  0  0  0  0  0  0  0  0  0  0
    2.0418    0.9439    1.3538 O   0  0  0  0  0  0  0  0  0  0  0  0
    1.5588   -0.1615    0.4904 C   0  0  0  0  0  0  0  0  0  0  0  0
    0.0593   -0.1516    0.5099 C   0  0  0  0  0  0  0  0  0  0  0  0
   -0.5028    1.0116    0.0517 O   0  0  0  0  0  0  0  0  0  0  0  0
   -1.8542    0.6882   -0.0914 C   0  0  0  0  0  0  0  0  0  0  0  0
   -1.8163   -0.6459   -0.8045 C   0  0  0  0  0  0  0  0  0  0  0  0
   -1.6839   -1.8112   -0.0407 O   0  0  0  0  0  0  0  0  0  0  0  0
   -0.5013   -1.1930   -0.4344 C   0  0  0  0  0  0  0  0  0  0  0  0
    2.0127    1.7490   -0.5948 H   0  0  0  0  0  0  0  0  0  0  0  0
    3.4576    0.6779   -0.1970 H   0  0  0  0  0  0  0  0  0  0  0  0
    2.0119   -1.1320    0.7639 H   0  0  0  0  0  0  0  0  0  0  0  0
   -0.3467   -0.3590    1.5249 H   0  0  0  0  0  0  0  0  0  0  0  0
   -2.2917    0.5855    0.9281 H   0  0  0  0  0  0  0  0  0  0  0  0
   -2.3863    1.4295   -0.7112 H   0  0  0  0  0  0  0  0  0  0  0  0
   -2.2972   -0.7862   -1.7654 H   0  0  0  0  0  0  0  0  0  0  0  0
    0.1638   -1.7053   -1.1360 H   0  0  0  0  0  0  0  0  0  0  0  0
  1  2  1  0
  2  3  1  0
  3  4  1  0
  4  5  1  0
  5  6  1  0
  6  7  1  0
  7  8  1  0
  8  9  1  0
  3  1  1  0
  9  4  1  0
  9  7  1  0
  1 10  1  0
  1 11  1  0
  3 12  1  0
  4 13  1  0
  6 14  1  0
  6 15  1  0
  7 16  1  0
  9 17  1  0
M  END
