
     RDKit          3D

 17 19  0  0  0  0  0  0  0  0999 V2000
    1.6682    0.1975    0.5765 C   0  0  0  0  0  0  0  0  0  0  0  0
    0.7148    1.0649    1.0376 O   0  0  0  0  0  0  0  0  0  0  0  0
   -0.2006    1.4824    0.1083 C   0  0  0  0  0  0  0  0  0  0  0  0
   -1.2274    0.5157   -0.2942 C   0  0  0  0  0  0  0  0  0  0  0  0
   -1.2630   -0.7878    0.3331 C   0  0  0  0  0  0  0  0  0  0  0  0
   -0.1742   -1.2101    1.0235 O   0  0  0  0  0  0  0  0  0  0  0  0
    0.9461   -1.1077    0.2175 C   0  0  0  0  0  0  0  0  0  0  0  0
    0.5118   -0.9584   -1.0908 O   0  0  0  0  0  0  0  0  0  0  0  0
   -0.8104   -0.6457   -1.0821 C   0  0  0  0  0  0  0  0  0  0  0  0
    2.4120    0.0270    1.3715 H   0  0  0  0  0  0  0  0  0  0  0  0
    2.1806    0.5461   -0.3490 H   0  0  0  0  0  0  0  0  0  0  0  0
   -0.7225    2.3750    0.5663 H   0  0  0  0  0  0  0  0  0  0  0  0
    0.3075    1.9219   -0.8016 H   0  0  0  0  0  0  0  0  0  0  0  0
   -2.2295    0.9510   -0.5803 H   0  0  0  0  0  0  0  0  0  0  0  0
   -2.2556   -1.2813    0.5154 H   0  0  0  0  0  0  0  0  0  0  0  0
    1.5998   -1.9772    0.2913 H   0  0  0  0  0  0  0  0  0  0  0  0
   -1.4575   -1.1134   -1.8432 H   0  0  0  0  0  0  0  0  0  0  0  0
  1  2  1  0
  2  3  1  0
  3  4  1  0
  4  5  1  0
  5  6  1  0
  6  7  1  0
  7  8  1  0
  8  9  1  0
  7  1  1  0
  9  4  1  0
  9  5  1  0
  1 10  1  0
  1 11  1  0
  3 12  1  0
  3 13  1  0
  4 14  1  0
  5 15  1  0
  7 16  1  0
  9 17  1  0
M  END
