
     RDKit          3D

 17 20  0  0  0  0  0  0  0  0999 V2000
   -1.5942    0.3220   -0.5781 C   0  0  0  0  0  0  0  0  0  0  0  0
   -1.4520   -1.0339   -0.3191 O   0  0  0  0  0  0  0  0  0  0  0  0
   -0.4126   -1.2708    0.6013 C   0  0  0  0  0  0  0  0  0  0  0  0
   -0.4608   -0.2639    1.5495 O   0  0  0  0  0  0  0  0  0  0  0  0
    0.2208    0.8012    0.9676 C   0  0  0  0  0  0  0  0  0  0  0  0
   -0.2528    0.9814   -0.4781 C   0  0  0  0  0  0  0  0  0  0  0  0
    0.8858    0.0880   -0.9128 C   0  0  0  0  0  0  0  0  0  0  0  0
    0.9414   -1.1330   -0.1018 C   0  0  0  0  0  0  0  0  0  0  0  0
    1.4427    0.1449    0.4190 C   0  0  0  0  0  0  0  0  0  0  0  0
   -2.0081    0.4989   -1.5836 H   0  0  0  0  0  0  0  0  0  0  0  0
   -2.2597    0.8151    0.1790 H   0  0  0  0  0  0  0  0  0  0  0  0
   -0.5730   -2.2761    0.9979 H   0  0  0  0  0  0  0  0  0  0  0  0
    0.3209    1.7084    1.5420 H   0  0  0  0  0  0  0  0  0  0  0  0
   -0.1797    2.0194   -0.8412 H   0  0  0  0  0  0  0  0  0  0  0  0
    1.4008    0.2396   -1.8515 H   0  0  0  0  0  0  0  0  0  0  0  0
    1.5373   -2.0081   -0.3136 H   0  0  0  0  0  0  0  0  0  0  0  0
    2.4434    0.3668    0.7236 H   0  0  0  0  0  0  0  0  0  0  0  0
  1  2  1  0
  2  3  1  0
  3  4  1  0
  4  5  1  0
  5  6  1  0
  6  7  1  0
  7  8  1  0
  8  9  1  0
  6  1  1  0
  9  7  1  0
  8  3  1  0
  9  5  1  0
  1 10  1  0
  1 11  1  0
  3 12  1  0
  5 13  1  0
  6 14  1  0
  7 15  1  0
  8 16  1  0
  9 17  1  0
M  END
