
     RDKit          3D

 19 21  0  0  0  0  0  0  0  0999 V2000
    1.7526   -0.4106   -0.7862 C   0  0  0  0  0  0  0  0  0  0  0  0
    0.5501   -0.1972   -1.5090 O   0  0  0  0  0  0  0  0  0  0  0  0
   -0.4029   -0.7369   -0.6809 C   0  0  0  0  0  0  0  0  0  0  0  0
   -1.7926   -0.1965   -0.7295 C   0  0  0  0  0  0  0  0  0  0  0  0
   -1.6674    0.0037    0.7967 C   0  0  0  0  0  0  0  0  0  0  0  0
   -0.2555    0.0162    0.6290 C   0  0  0  0  0  0  0  0  0  0  0  0
    0.5541    1.2446    0.5302 C   0  0  0  0  0  0  0  0  0  0  0  0
    1.6258    0.1443    0.6093 C   0  0  0  0  0  0  0  0  0  0  0  0
    0.6754   -0.5772    1.3753 O   0  0  0  0  0  0  0  0  0  0  0  0
    2.6139    0.0381   -1.2662 H   0  0  0  0  0  0  0  0  0  0  0  0
    1.8251   -1.5229   -0.6956 H   0  0  0  0  0  0  0  0  0  0  0  0
   -0.2829   -1.8255   -0.6020 H   0  0  0  0  0  0  0  0  0  0  0  0
   -1.9414    0.7247   -1.2921 H   0  0  0  0  0  0  0  0  0  0  0  0
   -2.5159   -1.0289   -0.9365 H   0  0  0  0  0  0  0  0  0  0  0  0
   -2.1468    0.9985    1.0288 H   0  0  0  0  0  0  0  0  0  0  0  0
   -2.1618   -0.7661    1.3917 H   0  0  0  0  0  0  0  0  0  0  0  0
    0.5589    1.8029   -0.4076 H   0  0  0  0  0  0  0  0  0  0  0  0
    0.4755    1.8705    1.4198 H   0  0  0  0  0  0  0  0  0  0  0  0
    2.5357    0.4182    1.1246 H   0  0  0  0  0  0  0  0  0  0  0  0
  1  2  1  0
  2  3  1  0
  3  4  1  0
  4  5  1  0
  5  6  1  0
  6  7  1  0
  7  8  1  0
  8  9  1  0
  8  1  1  0
  6  3  1  0
  9  6  1  0
  1 10  1  0
  1 11  1  0
  3 12  1  0
  4 13  1  0
  4 14  1  0
  5 15  1  0
  5 16  1  0
  7 17  1  0
  7 18  1  0
  8 19  1  0
M  END
