
     RDKit          3D

 19 21  0  0  0  0  0  0  0  0999 V2000
   -1.8879   -0.5874    0.2514 C   0  0  0  0  0  0  0  0  0  0  0  0
   -2.5898    0.4584   -0.3843 O   0  0  0  0  0  0  0  0  0  0  0  0
   -1.3890    1.0223   -0.8788 C   0  0  0  0  0  0  0  0  0  0  0  0
   -0.6670    0.2063    0.0958 C   0  0  0  0  0  0  0  0  0  0  0  0
    0.0812    0.8546    1.1714 C   0  0  0  0  0  0  0  0  0  0  0  0
    0.6802   -0.1118    0.2592 C   0  0  0  0  0  0  0  0  0  0  0  0
    1.2991   -1.3914    0.6796 C   0  0  0  0  0  0  0  0  0  0  0  0
    2.1951   -1.2518   -0.4029 O   0  0  0  0  0  0  0  0  0  0  0  0
    1.8541    0.1091   -0.5908 C   0  0  0  0  0  0  0  0  0  0  0  0
   -1.9229   -1.4700   -0.4441 H   0  0  0  0  0  0  0  0  0  0  0  0
   -2.2497   -0.8564    1.2425 H   0  0  0  0  0  0  0  0  0  0  0  0
   -1.4238    2.1173   -0.6215 H   0  0  0  0  0  0  0  0  0  0  0  0
   -1.2441    0.8544   -1.9543 H   0  0  0  0  0  0  0  0  0  0  0  0
   -0.0032    0.5685    2.2347 H   0  0  0  0  0  0  0  0  0  0  0  0
    0.4184    1.9223    1.0449 H   0  0  0  0  0  0  0  0  0  0  0  0
    0.6595   -2.2811    0.5977 H   0  0  0  0  0  0  0  0  0  0  0  0
    1.8233   -1.2916    1.6616 H   0  0  0  0  0  0  0  0  0  0  0  0
    1.7222    0.4058   -1.6390 H   0  0  0  0  0  0  0  0  0  0  0  0
    2.6442    0.7224   -0.0815 H   0  0  0  0  0  0  0  0  0  0  0  0
  1  2  1  0
  2  3  1  0
  3  4  1  0
  4  5  1  0
  5  6  1  0
  6  7  1  0
  7  8  1  0
  8  9  1  0
  4  1  1  0
  9  6  1  0
  6  4  1  0
  1 10  1  0
  1 11  1  0
  3 12  1  0
  3 13  1  0
  5 14  1  0
  5 15  1  0
  7 16  1  0
  7 17  1  0
  9 18  1  0
  9 19  1  0
M  END
