
     RDKit          3D

 17 20  0  0  0  0  0  0  0  0999 V2000
    1.4042    0.9958    0.2786 C   0  0  0  0  0  0  0  0  0  0  0  0
    0.4593    1.5841   -0.4891 O   0  0  0  0  0  0  0  0  0  0  0  0
   -0.6770    0.9420   -0.7308 C   0  0  0  0  0  0  0  0  0  0  0  0
   -1.3463    0.2216    0.3905 C   0  0  0  0  0  0  0  0  0  0  0  0
   -1.9097   -0.5807   -0.6416 O   0  0  0  0  0  0  0  0  0  0  0  0
   -0.6086   -0.4677   -1.2087 C   0  0  0  0  0  0  0  0  0  0  0  0
    0.3230   -1.2067   -0.2804 C   0  0  0  0  0  0  0  0  0  0  0  0
    1.0711   -0.4071    0.6610 C   0  0  0  0  0  0  0  0  0  0  0  0
   -0.3046   -0.6519    1.0555 C   0  0  0  0  0  0  0  0  0  0  0  0
    2.3723    0.9739   -0.2788 H   0  0  0  0  0  0  0  0  0  0  0  0
    1.5869    1.6337    1.1772 H   0  0  0  0  0  0  0  0  0  0  0  0
   -1.4032    1.5227   -1.3112 H   0  0  0  0  0  0  0  0  0  0  0  0
   -2.0488    0.7407    1.0173 H   0  0  0  0  0  0  0  0  0  0  0  0
   -0.5427   -0.6708   -2.2642 H   0  0  0  0  0  0  0  0  0  0  0  0
    0.4091   -2.2835   -0.3536 H   0  0  0  0  0  0  0  0  0  0  0  0
    1.8528   -0.9165    1.2446 H   0  0  0  0  0  0  0  0  0  0  0  0
   -0.6377   -1.4295    1.7336 H   0  0  0  0  0  0  0  0  0  0  0  0
  1  2  1  0
  2  3  1  0
  3  4  1  0
  4  5  1  0
  5  6  1  0
  6  7  1  0
  7  8  1  0
  8  9  1  0
  8  1  1  0
  6  3  1  0
  9  7  1  0
  9  4  1  0
  1 10  1  0
  1 11  1  0
  3 12  1  0
  4 13  1  0
  6 14  1  0
  7 15  1  0
  8 16  1  0
  9 17  1  0
M  END
