
     RDKit          3D

 18 19  0  0  0  0  0  0  0  0999 V2000
    1.9028   -0.2528   -0.6281 C   0  0  0  0  0  0  0  0  0  0  0  0
    1.5139    1.0776   -0.5478 O   0  0  0  0  0  0  0  0  0  0  0  0
    0.7534    1.2975    0.5789 C   0  0  0  0  0  0  0  0  0  0  0  0
   -0.4430    0.4054    0.6998 C   0  0  0  0  0  0  0  0  0  0  0  0
   -1.4643    0.4926   -0.3855 C   0  0  0  0  0  0  0  0  0  0  0  0
   -1.5552   -1.0403   -0.3383 C   0  0  0  0  0  0  0  0  0  0  0  0
   -0.1272   -1.0043    0.1971 C   0  0  0  0  0  0  0  0  0  0  0  0
    0.7602   -1.0060   -0.8489 O   0  0  0  0  0  0  0  0  0  0  0  0
    2.5063   -0.5938    0.2215 H   0  0  0  0  0  0  0  0  0  0  0  0
    2.5342   -0.3459   -1.5355 H   0  0  0  0  0  0  0  0  0  0  0  0
    1.4133    1.0703    1.4606 H   0  0  0  0  0  0  0  0  0  0  0  0
    0.4698    2.3494    0.6779 H   0  0  0  0  0  0  0  0  0  0  0  0
   -0.8760    0.4204    1.7020 H   0  0  0  0  0  0  0  0  0  0  0  0
   -1.0906    0.8005   -1.3775 H   0  0  0  0  0  0  0  0  0  0  0  0
   -2.4525    0.8966   -0.1003 H   0  0  0  0  0  0  0  0  0  0  0  0
   -1.6893   -1.5228   -1.3023 H   0  0  0  0  0  0  0  0  0  0  0  0
   -2.2299   -1.3871    0.4797 H   0  0  0  0  0  0  0  0  0  0  0  0
    0.0742   -1.6573    1.0470 H   0  0  0  0  0  0  0  0  0  0  0  0
  1  2  1  0
  2  3  1  0
  3  4  1  0
  4  5  1  0
  5  6  1  0
  6  7  1  0
  7  8  1  0
  8  1  1  0
  7  4  1  0
  1  9  1  0
  1 10  1  0
  3 11  1  0
  3 12  1  0
  4 13  1  0
  5 14  1  0
  5 15  1  0
  6 16  1  0
  6 17  1  0
  7 18  1  0
M  END
