
     RDKit          3D

 17 19  0  0  0  0  0  0  0  0999 V2000
   -1.1945   -1.0441   -0.4713 C   0  0  0  0  0  0  0  0  0  0  0  0
   -1.8873   -0.0001    0.1495 O   0  0  0  0  0  0  0  0  0  0  0  0
   -1.0339    1.0877    0.1864 C   0  0  0  0  0  0  0  0  0  0  0  0
    0.1609    0.7603    1.0405 C   0  0  0  0  0  0  0  0  0  0  0  0
    0.1946   -0.6170    1.3567 O   0  0  0  0  0  0  0  0  0  0  0  0
    0.1925   -1.2007    0.0674 C   0  0  0  0  0  0  0  0  0  0  0  0
    1.2267   -0.3960   -0.6593 C   0  0  0  0  0  0  0  0  0  0  0  0
    2.3659   -0.1353    0.2535 O   0  0  0  0  0  0  0  0  0  0  0  0
    1.3850    0.8180    0.1124 C   0  0  0  0  0  0  0  0  0  0  0  0
   -1.2312   -0.9797   -1.5772 H   0  0  0  0  0  0  0  0  0  0  0  0
   -1.7625   -1.9754   -0.2062 H   0  0  0  0  0  0  0  0  0  0  0  0
   -0.7658    1.3502   -0.8599 H   0  0  0  0  0  0  0  0  0  0  0  0
   -1.5876    1.9507    0.5908 H   0  0  0  0  0  0  0  0  0  0  0  0
    0.2682    1.3963    1.9114 H   0  0  0  0  0  0  0  0  0  0  0  0
    0.5368   -2.2490    0.0959 H   0  0  0  0  0  0  0  0  0  0  0  0
    1.5000   -0.5714   -1.6860 H   0  0  0  0  0  0  0  0  0  0  0  0
    1.6323    1.8057   -0.3046 H   0  0  0  0  0  0  0  0  0  0  0  0
  1  2  1  0
  2  3  1  0
  3  4  1  0
  4  5  1  0
  5  6  1  0
  6  7  1  0
  7  8  1  0
  8  9  1  0
  6  1  1  0
  9  7  1  0
  9  4  1  0
  1 10  1  0
  1 11  1  0
  3 12  1  0
  3 13  1  0
  4 14  1  0
  6 15  1  0
  7 16  1  0
  9 17  1  0
M  END
