
     RDKit          3D

 16 17  0  0  0  0  0  0  0  0999 V2000
   -1.8049    0.2206    0.3835 C   0  0  0  0  0  0  0  0  0  0  0  0
   -1.3731    0.9259   -0.7187 O   0  0  0  0  0  0  0  0  0  0  0  0
   -0.0120    0.9671   -0.8687 C   0  0  0  0  0  0  0  0  0  0  0  0
    0.6299   -0.0751    0.0424 C   0  0  0  0  0  0  0  0  0  0  0  0
   -0.1748   -1.3388   -0.1114 C   0  0  0  0  0  0  0  0  0  0  0  0
   -1.4664   -1.1161    0.3715 O   0  0  0  0  0  0  0  0  0  0  0  0
    1.9646    0.0275    0.4044 C   0  0  0  0  0  0  0  0  0  0  0  0
    0.8936    0.4225    1.3158 O   0  0  0  0  0  0  0  0  0  0  0  0
   -1.4813    0.6450    1.3470 H   0  0  0  0  0  0  0  0  0  0  0  0
   -2.9321    0.2611    0.3629 H   0  0  0  0  0  0  0  0  0  0  0  0
    0.4121    1.9828   -0.6817 H   0  0  0  0  0  0  0  0  0  0  0  0
    0.2102    0.7410   -1.9464 H   0  0  0  0  0  0  0  0  0  0  0  0
   -0.2860   -1.5154   -1.2065 H   0  0  0  0  0  0  0  0  0  0  0  0
    0.2689   -2.2177    0.3497 H   0  0  0  0  0  0  0  0  0  0  0  0
    2.6149    0.8613    0.0730 H   0  0  0  0  0  0  0  0  0  0  0  0
    2.5362   -0.7917    0.8833 H   0  0  0  0  0  0  0  0  0  0  0  0
  1  2  1  0
  2  3  1  0
  3  4  1  0
  4  5  1  0
  5  6  1  0
  4  7  1  0
  7  8  1  0
  6  1  1  0
  8  4  1  0
  1  9  1  0
  1 10  1  0
  3 11  1  0
  3 12  1  0
  5 13  1  0
  5 14  1  0
  7 15  1  0
  7 16  1  0
M  END
