
     RDKit          3D

 21 23  0  0  0  0  0  0  0  0999 V2000
    2.7996   -0.4900    0.5942 C   0  0  0  0  0  0  0  0  0  0  0  0
    3.0382    0.9705    0.8182 O   0  0  0  0  0  0  0  0  0  0  0  0
    1.7319    0.3062    1.0639 C   0  0  0  0  0  0  0  0  0  0  0  0
    0.7068    0.9002    0.1543 C   0  0  0  0  0  0  0  0  0  0  0  0
   -0.0463   -0.1676   -0.6141 C   0  0  0  0  0  0  0  0  0  0  0  0
   -1.0823    0.3901   -1.5362 C   0  0  0  0  0  0  0  0  0  0  0  0
   -2.1450   -0.3413   -0.7626 C   0  0  0  0  0  0  0  0  0  0  0  0
   -2.2954   -0.1159    0.6884 C   0  0  0  0  0  0  0  0  0  0  0  0
   -1.0863   -0.8708    0.2300 C   0  0  0  0  0  0  0  0  0  0  0  0
    2.8623   -0.7439   -0.4972 H   0  0  0  0  0  0  0  0  0  0  0  0
    3.4738   -1.0177    1.2824 H   0  0  0  0  0  0  0  0  0  0  0  0
    1.4488    0.2950    2.1363 H   0  0  0  0  0  0  0  0  0  0  0  0
    1.1313    1.5987   -0.5912 H   0  0  0  0  0  0  0  0  0  0  0  0
    0.0129    1.5134    0.7650 H   0  0  0  0  0  0  0  0  0  0  0  0
    0.6739   -0.8732   -1.0549 H   0  0  0  0  0  0  0  0  0  0  0  0
   -1.2150    1.4847   -1.5144 H   0  0  0  0  0  0  0  0  0  0  0  0
   -1.0091    0.0175   -2.5684 H   0  0  0  0  0  0  0  0  0  0  0  0
   -2.7559   -1.1152   -1.2417 H   0  0  0  0  0  0  0  0  0  0  0  0
   -2.1887    0.9264    1.0613 H   0  0  0  0  0  0  0  0  0  0  0  0
   -3.0444   -0.7138    1.2164 H   0  0  0  0  0  0  0  0  0  0  0  0
   -1.0110   -1.9534    0.3703 H   0  0  0  0  0  0  0  0  0  0  0  0
  1  2  1  0
  2  3  1  0
  3  4  1  0
  4  5  1  0
  5  6  1  0
  6  7  1  0
  7  8  1  0
  8  9  1  0
  3  1  1  0
  9  5  1  0
  9  7  1  0
  1 10  1  0
  1 11  1  0
  3 12  1  0
  4 13  1  0
  4 14  1  0
  5 15  1  0
  6 16  1  0
  6 17  1  0
  7 18  1  0
  8 19  1  0
  8 20  1  0
  9 21  1  0
M  END
