
     RDKit          3D

 19 21  0  0  0  0  0  0  0  0999 V2000
    0.4674   -0.0110    1.4713 C   0  0  0  0  0  0  0  0  0  0  0  0
   -0.1485    1.2219    1.2375 O   0  0  0  0  0  0  0  0  0  0  0  0
   -0.3483    1.3911   -0.1197 C   0  0  0  0  0  0  0  0  0  0  0  0
    0.8876    1.4637   -0.7844 O   0  0  0  0  0  0  0  0  0  0  0  0
    1.6480    0.3288   -0.6241 C   0  0  0  0  0  0  0  0  0  0  0  0
    0.7994   -0.6690    0.1651 C   0  0  0  0  0  0  0  0  0  0  0  0
   -0.4340   -0.9822   -0.6390 C   0  0  0  0  0  0  0  0  0  0  0  0
   -1.7467   -0.8048    0.0062 C   0  0  0  0  0  0  0  0  0  0  0  0
   -1.2302    0.3574   -0.7300 C   0  0  0  0  0  0  0  0  0  0  0  0
    1.4544    0.2437    1.9569 H   0  0  0  0  0  0  0  0  0  0  0  0
   -0.0665   -0.6375    2.1816 H   0  0  0  0  0  0  0  0  0  0  0  0
   -0.8319    2.3873   -0.2515 H   0  0  0  0  0  0  0  0  0  0  0  0
    1.9635   -0.1506   -1.5619 H   0  0  0  0  0  0  0  0  0  0  0  0
    2.5509    0.5445    0.0171 H   0  0  0  0  0  0  0  0  0  0  0  0
    1.3579   -1.6077    0.3674 H   0  0  0  0  0  0  0  0  0  0  0  0
   -0.2985   -1.4706   -1.6011 H   0  0  0  0  0  0  0  0  0  0  0  0
   -1.7809   -0.8740    1.1021 H   0  0  0  0  0  0  0  0  0  0  0  0
   -2.5934   -1.3448   -0.4821 H   0  0  0  0  0  0  0  0  0  0  0  0
   -1.6501    0.6139   -1.7113 H   0  0  0  0  0  0  0  0  0  0  0  0
  1  2  1  0
  2  3  1  0
  3  4  1  0
  4  5  1  0
  5  6  1  0
  6  7  1  0
  7  8  1  0
  8  9  1  0
  6  1  1  0
  9  7  1  0
  9  3  1  0
  1 10  1  0
  1 11  1  0
  3 12  1  0
  5 13  1  0
  5 14  1  0
  6 15  1  0
  7 16  1  0
  8 17  1  0
  8 18  1  0
  9 19  1  0
M  END
