
     RDKit          3D

 16 18  0  0  0  0  0  0  0  0999 V2000
   -0.8019   -1.0372    0.7541 C   0  0  0  0  0  0  0  0  0  0  0  0
   -1.0406   -1.1648   -0.6102 O   0  0  0  0  0  0  0  0  0  0  0  0
   -0.3467   -0.0947   -1.2162 C   0  0  0  0  0  0  0  0  0  0  0  0
   -0.7670    1.0420   -0.2652 C   0  0  0  0  0  0  0  0  0  0  0  0
   -0.1891    0.3272    0.9713 C   0  0  0  0  0  0  0  0  0  0  0  0
    1.2581    0.2211    0.5478 C   0  0  0  0  0  0  0  0  0  0  0  0
    1.7473    1.0404   -0.4471 O   0  0  0  0  0  0  0  0  0  0  0  0
    1.1260   -0.1621   -0.8976 C   0  0  0  0  0  0  0  0  0  0  0  0
   -0.0167   -1.8132    0.9941 H   0  0  0  0  0  0  0  0  0  0  0  0
   -1.6725   -1.2383    1.3801 H   0  0  0  0  0  0  0  0  0  0  0  0
   -0.6064    0.0789   -2.2358 H   0  0  0  0  0  0  0  0  0  0  0  0
   -0.2359    1.9693   -0.4795 H   0  0  0  0  0  0  0  0  0  0  0  0
   -1.8568    1.1176   -0.2156 H   0  0  0  0  0  0  0  0  0  0  0  0
   -0.3895    0.8069    1.8948 H   0  0  0  0  0  0  0  0  0  0  0  0
    2.0070   -0.2181    1.1993 H   0  0  0  0  0  0  0  0  0  0  0  0
    1.7848   -0.8749   -1.3743 H   0  0  0  0  0  0  0  0  0  0  0  0
  1  2  1  0
  2  3  1  0
  3  4  1  0
  4  5  1  0
  5  6  1  0
  6  7  1  0
  7  8  1  0
  5  1  1  0
  8  6  1  0
  8  3  1  0
  1  9  1  0
  1 10  1  0
  3 11  1  0
  4 12  1  0
  4 13  1  0
  5 14  1  0
  6 15  1  0
  8 16  1  0
M  END
