
     RDKit          3D

 17 20  0  0  0  0  0  0  0  0999 V2000
    2.2135    0.2302    0.1379 C   0  0  0  0  0  0  0  0  0  0  0  0
    1.9025    0.4248   -1.2114 O   0  0  0  0  0  0  0  0  0  0  0  0
    0.7426   -0.3158   -1.2524 C   0  0  0  0  0  0  0  0  0  0  0  0
    0.9837   -0.6220    0.2491 C   0  0  0  0  0  0  0  0  0  0  0  0
   -0.2711   -0.0749   -0.2591 C   0  0  0  0  0  0  0  0  0  0  0  0
   -1.5869   -0.7263   -0.1538 C   0  0  0  0  0  0  0  0  0  0  0  0
   -2.0498    0.5002    0.6437 C   0  0  0  0  0  0  0  0  0  0  0  0
   -2.0602    1.6681   -0.0585 O   0  0  0  0  0  0  0  0  0  0  0  0
   -0.7795    1.2367    0.1938 C   0  0  0  0  0  0  0  0  0  0  0  0
    3.1834   -0.2818    0.2595 H   0  0  0  0  0  0  0  0  0  0  0  0
    2.0914    1.1566    0.7156 H   0  0  0  0  0  0  0  0  0  0  0  0
    0.7099   -1.2068   -1.9186 H   0  0  0  0  0  0  0  0  0  0  0  0
    1.0476   -1.6760    0.5452 H   0  0  0  0  0  0  0  0  0  0  0  0
   -2.2185   -0.8101   -1.0506 H   0  0  0  0  0  0  0  0  0  0  0  0
   -1.5470   -1.6551    0.4380 H   0  0  0  0  0  0  0  0  0  0  0  0
   -2.1820    0.4284    1.7142 H   0  0  0  0  0  0  0  0  0  0  0  0
   -0.1796    1.7239    1.0075 H   0  0  0  0  0  0  0  0  0  0  0  0
  1  2  1  0
  2  3  1  0
  3  4  1  0
  4  5  1  0
  5  6  1  0
  6  7  1  0
  7  8  1  0
  8  9  1  0
  4  1  1  0
  9  5  1  0
  5  3  1  0
  9  7  1  0
  1 10  1  0
  1 11  1  0
  3 12  1  0
  4 13  1  0
  6 14  1  0
  6 15  1  0
  7 16  1  0
  9 17  1  0
M  END
