
     RDKit          3D

 16 18  0  0  0  0  0  0  0  0999 V2000
    1.7583    0.0903    0.2749 C   0  0  0  0  0  0  0  0  0  0  0  0
    0.9888   -0.4802    1.2798 O   0  0  0  0  0  0  0  0  0  0  0  0
   -0.0523   -1.1637    0.6703 C   0  0  0  0  0  0  0  0  0  0  0  0
   -1.2559   -0.4214    0.2178 C   0  0  0  0  0  0  0  0  0  0  0  0
   -1.2920    1.0939    0.2598 C   0  0  0  0  0  0  0  0  0  0  0  0
   -0.0475    1.5536   -0.0685 O   0  0  0  0  0  0  0  0  0  0  0  0
    0.6673    0.5699   -0.6946 C   0  0  0  0  0  0  0  0  0  0  0  0
   -0.1784   -0.6845   -0.7270 C   0  0  0  0  0  0  0  0  0  0  0  0
    2.3764    0.9028    0.6322 H   0  0  0  0  0  0  0  0  0  0  0  0
    2.3053   -0.7038   -0.2856 H   0  0  0  0  0  0  0  0  0  0  0  0
   -0.1927   -2.2253    0.8815 H   0  0  0  0  0  0  0  0  0  0  0  0
   -2.2208   -0.9263    0.1938 H   0  0  0  0  0  0  0  0  0  0  0  0
   -2.0060    1.3959   -0.5622 H   0  0  0  0  0  0  0  0  0  0  0  0
   -1.7142    1.4812    1.1898 H   0  0  0  0  0  0  0  0  0  0  0  0
    1.0780    0.8431   -1.6702 H   0  0  0  0  0  0  0  0  0  0  0  0
   -0.2142   -1.3256   -1.5918 H   0  0  0  0  0  0  0  0  0  0  0  0
  1  2  1  0
  2  3  1  0
  3  4  1  0
  4  5  1  0
  5  6  1  0
  6  7  1  0
  7  8  1  0
  7  1  1  0
  8  3  1  0
  8  4  1  0
  1  9  1  0
  1 10  1  0
  3 11  1  0
  4 12  1  0
  5 13  1  0
  5 14  1  0
  7 15  1  0
  8 16  1  0
M  END
