
     RDKit          3D

 19 21  0  0  0  0  0  0  0  0999 V2000
   -1.3313   -0.8924    0.6330 C   0  0  0  0  0  0  0  0  0  0  0  0
   -1.1523    0.2143    1.3911 O   0  0  0  0  0  0  0  0  0  0  0  0
   -0.1282    1.0433    1.0504 C   0  0  0  0  0  0  0  0  0  0  0  0
   -0.2967    1.4674   -0.3836 C   0  0  0  0  0  0  0  0  0  0  0  0
   -0.1005    0.2496   -1.2478 C   0  0  0  0  0  0  0  0  0  0  0  0
   -0.6150   -0.9732   -0.6538 C   0  0  0  0  0  0  0  0  0  0  0  0
    0.8287   -0.7425   -0.7144 C   0  0  0  0  0  0  0  0  0  0  0  0
    1.6542   -0.3229    0.4569 C   0  0  0  0  0  0  0  0  0  0  0  0
    1.0666    0.4891    1.3515 O   0  0  0  0  0  0  0  0  0  0  0  0
   -2.4436   -1.0326    0.4957 H   0  0  0  0  0  0  0  0  0  0  0  0
   -1.0312   -1.7882    1.2534 H   0  0  0  0  0  0  0  0  0  0  0  0
   -0.2366    1.9827    1.6689 H   0  0  0  0  0  0  0  0  0  0  0  0
   -1.3815    1.7565   -0.4993 H   0  0  0  0  0  0  0  0  0  0  0  0
    0.3550    2.3046   -0.6242 H   0  0  0  0  0  0  0  0  0  0  0  0
   -0.0958    0.4019   -2.3577 H   0  0  0  0  0  0  0  0  0  0  0  0
   -1.0536   -1.7224   -1.3778 H   0  0  0  0  0  0  0  0  0  0  0  0
    1.4054   -1.3637   -1.4570 H   0  0  0  0  0  0  0  0  0  0  0  0
    2.5668    0.1924    0.0351 H   0  0  0  0  0  0  0  0  0  0  0  0
    1.9893   -1.2640    0.9795 H   0  0  0  0  0  0  0  0  0  0  0  0
  1  2  1  0
  2  3  1  0
  3  4  1  0
  4  5  1  0
  5  6  1  0
  6  7  1  0
  7  8  1  0
  8  9  1  0
  6  1  1  0
  9  3  1  0
  7  5  1  0
  1 10  1  0
  1 11  1  0
  3 12  1  0
  4 13  1  0
  4 14  1  0
  5 15  1  0
  6 16  1  0
  7 17  1  0
  8 18  1  0
  8 19  1  0
M  END
