
     RDKit          3D

 17 19  0  0  0  0  0  0  0  0999 V2000
   -1.3972   -0.8024   -0.3774 C   0  0  0  0  0  0  0  0  0  0  0  0
   -0.1453   -1.1265   -0.9426 O   0  0  0  0  0  0  0  0  0  0  0  0
    0.7672   -1.0933    0.0471 C   0  0  0  0  0  0  0  0  0  0  0  0
    1.9177   -0.2758    0.2457 C   0  0  0  0  0  0  0  0  0  0  0  0
    0.7317    0.4104    0.5029 C   0  0  0  0  0  0  0  0  0  0  0  0
    0.2402    1.4278   -0.5141 C   0  0  0  0  0  0  0  0  0  0  0  0
   -1.0975    1.5498   -0.2200 O   0  0  0  0  0  0  0  0  0  0  0  0
   -1.3730    0.3745    0.5208 C   0  0  0  0  0  0  0  0  0  0  0  0
   -0.2564    0.4051    1.3941 O   0  0  0  0  0  0  0  0  0  0  0  0
   -2.1003   -0.5707   -1.2148 H   0  0  0  0  0  0  0  0  0  0  0  0
   -1.8344   -1.6622    0.1551 H   0  0  0  0  0  0  0  0  0  0  0  0
    0.5462   -1.8562    0.8533 H   0  0  0  0  0  0  0  0  0  0  0  0
    2.5122    0.0146   -0.6717 H   0  0  0  0  0  0  0  0  0  0  0  0
    2.6241   -0.5378    1.0694 H   0  0  0  0  0  0  0  0  0  0  0  0
    0.8335    2.3311   -0.3941 H   0  0  0  0  0  0  0  0  0  0  0  0
    0.3379    0.9627   -1.5151 H   0  0  0  0  0  0  0  0  0  0  0  0
   -2.3067    0.4491    1.0614 H   0  0  0  0  0  0  0  0  0  0  0  0
  1  2  1  0
  2  3  1  0
  3  4  1  0
  4  5  1  0
  5  6  1  0
  6  7  1  0
  7  8  1  0
  8  9  1  0
  8  1  1  0
  5  3  1  0
  9  5  1  0
  1 10  1  0
  1 11  1  0
  3 12  1  0
  4 13  1  0
  4 14  1  0
  6 15  1  0
  6 16  1  0
  8 17  1  0
M  END
