
     RDKit          3D

 19 21  0  0  0  0  0  0  0  0999 V2000
   -0.9809    1.5666   -0.3858 C   0  0  0  0  0  0  0  0  0  0  0  0
    0.3827    1.5274   -0.2405 O   0  0  0  0  0  0  0  0  0  0  0  0
    0.7463    0.2551    0.0996 C   0  0  0  0  0  0  0  0  0  0  0  0
    1.7822   -0.4075   -0.7519 C   0  0  0  0  0  0  0  0  0  0  0  0
    2.0679   -0.0804    0.6571 C   0  0  0  0  0  0  0  0  0  0  0  0
   -0.4335   -0.4803    0.6215 C   0  0  0  0  0  0  0  0  0  0  0  0
   -1.2298   -1.2961   -0.3377 C   0  0  0  0  0  0  0  0  0  0  0  0
   -2.3239   -0.4513   -0.1856 O   0  0  0  0  0  0  0  0  0  0  0  0
   -1.5658    0.4833    0.4925 C   0  0  0  0  0  0  0  0  0  0  0  0
   -1.3951    2.5379   -0.0308 H   0  0  0  0  0  0  0  0  0  0  0  0
   -1.2143    1.4026   -1.4672 H   0  0  0  0  0  0  0  0  0  0  0  0
    2.2727    0.2292   -1.5168 H   0  0  0  0  0  0  0  0  0  0  0  0
    1.5151   -1.4309   -1.0763 H   0  0  0  0  0  0  0  0  0  0  0  0
    2.7309    0.7793    0.8719 H   0  0  0  0  0  0  0  0  0  0  0  0
    2.0957   -0.8470    1.4580 H   0  0  0  0  0  0  0  0  0  0  0  0
   -0.2380   -0.9104    1.6115 H   0  0  0  0  0  0  0  0  0  0  0  0
   -1.4492   -2.3101    0.0694 H   0  0  0  0  0  0  0  0  0  0  0  0
   -0.8087   -1.3679   -1.3535 H   0  0  0  0  0  0  0  0  0  0  0  0
   -1.9543    0.8005    1.4645 H   0  0  0  0  0  0  0  0  0  0  0  0
  1  2  1  0
  2  3  1  0
  3  4  1  0
  4  5  1  0
  3  6  1  0
  6  7  1  0
  7  8  1  0
  8  9  1  0
  9  1  1  0
  5  3  1  0
  9  6  1  0
  1 10  1  0
  1 11  1  0
  4 12  1  0
  4 13  1  0
  5 14  1  0
  5 15  1  0
  6 16  1  0
  7 17  1  0
  7 18  1  0
  9 19  1  0
M  END
