
     RDKit          3D

 19 21  0  0  0  0  0  0  0  0999 V2000
    1.6792   -0.4019   -0.2310 C   0  0  0  0  0  0  0  0  0  0  0  0
    1.4719   -0.4568    1.1563 O   0  0  0  0  0  0  0  0  0  0  0  0
    0.7182    0.7074    1.3893 C   0  0  0  0  0  0  0  0  0  0  0  0
   -0.4008    0.6485    0.3667 C   0  0  0  0  0  0  0  0  0  0  0  0
   -1.6378   -0.1275    0.6613 C   0  0  0  0  0  0  0  0  0  0  0  0
   -1.6350   -1.2857   -0.0404 O   0  0  0  0  0  0  0  0  0  0  0  0
   -0.5961   -1.3343   -0.9132 C   0  0  0  0  0  0  0  0  0  0  0  0
    0.2835   -0.1590   -0.7423 C   0  0  0  0  0  0  0  0  0  0  0  0
   -0.1966    1.2016   -1.0021 C   0  0  0  0  0  0  0  0  0  0  0  0
    2.3837    0.4258   -0.4902 H   0  0  0  0  0  0  0  0  0  0  0  0
    2.0750   -1.3639   -0.6188 H   0  0  0  0  0  0  0  0  0  0  0  0
    1.3569    1.5808    1.2270 H   0  0  0  0  0  0  0  0  0  0  0  0
    0.2502    0.6448    2.3793 H   0  0  0  0  0  0  0  0  0  0  0  0
   -1.6487   -0.3635    1.7568 H   0  0  0  0  0  0  0  0  0  0  0  0
   -2.5124    0.5373    0.4491 H   0  0  0  0  0  0  0  0  0  0  0  0
   -0.9747   -1.3293   -1.9755 H   0  0  0  0  0  0  0  0  0  0  0  0
   -0.0266   -2.2872   -0.7171 H   0  0  0  0  0  0  0  0  0  0  0  0
    0.5260    2.0382   -1.0593 H   0  0  0  0  0  0  0  0  0  0  0  0
   -1.1159    1.3245   -1.5960 H   0  0  0  0  0  0  0  0  0  0  0  0
  1  2  1  0
  2  3  1  0
  3  4  1  0
  4  5  1  0
  5  6  1  0
  6  7  1  0
  7  8  1  0
  8  9  1  0
  8  1  1  0
  8  4  1  0
  9  4  1  0
  1 10  1  0
  1 11  1  0
  3 12  1  0
  3 13  1  0
  5 14  1  0
  5 15  1  0
  7 16  1  0
  7 17  1  0
  9 18  1  0
  9 19  1  0
M  END
