
     RDKit          3D

 17 19  0  0  0  0  0  0  0  0999 V2000
    1.6722   -0.2987   -0.3977 C   0  0  0  0  0  0  0  0  0  0  0  0
    1.4438    0.7042    0.5123 O   0  0  0  0  0  0  0  0  0  0  0  0
    0.5014    1.5686   -0.0713 C   0  0  0  0  0  0  0  0  0  0  0  0
   -0.8456    0.9049    0.1676 C   0  0  0  0  0  0  0  0  0  0  0  0
   -1.3123    0.3371   -0.9813 O   0  0  0  0  0  0  0  0  0  0  0  0
   -1.3382   -0.9120   -0.4254 C   0  0  0  0  0  0  0  0  0  0  0  0
   -0.1923   -1.5223    0.2723 C   0  0  0  0  0  0  0  0  0  0  0  0
    1.0878   -1.4839   -0.1541 O   0  0  0  0  0  0  0  0  0  0  0  0
   -0.7671   -0.3600    0.9221 C   0  0  0  0  0  0  0  0  0  0  0  0
    1.4148    0.0344   -1.4345 H   0  0  0  0  0  0  0  0  0  0  0  0
    2.7908   -0.4544   -0.4312 H   0  0  0  0  0  0  0  0  0  0  0  0
    0.7245    1.6303   -1.1690 H   0  0  0  0  0  0  0  0  0  0  0  0
    0.5583    2.5846    0.3164 H   0  0  0  0  0  0  0  0  0  0  0  0
   -1.5098    1.6383    0.6739 H   0  0  0  0  0  0  0  0  0  0  0  0
   -2.3426   -1.3652   -0.3641 H   0  0  0  0  0  0  0  0  0  0  0  0
   -0.4425   -2.5124    0.7554 H   0  0  0  0  0  0  0  0  0  0  0  0
   -1.4432   -0.4935    1.8085 H   0  0  0  0  0  0  0  0  0  0  0  0
  1  2  1  0
  2  3  1  0
  3  4  1  0
  4  5  1  0
  5  6  1  0
  6  7  1  0
  7  8  1  0
  7  9  1  0
  8  1  1  0
  9  4  1  0
  9  6  1  0
  1 10  1  0
  1 11  1  0
  3 12  1  0
  3 13  1  0
  4 14  1  0
  6 15  1  0
  7 16  1  0
  9 17  1  0
M  END
