
     RDKit          3D

 17 19  0  0  0  0  0  0  0  0999 V2000
   -1.6603   -0.9280    0.1639 C   0  0  0  0  0  0  0  0  0  0  0  0
   -1.8056    0.2614    0.8249 O   0  0  0  0  0  0  0  0  0  0  0  0
   -1.0359    1.2210    0.2060 C   0  0  0  0  0  0  0  0  0  0  0  0
   -0.0412    0.5313   -0.6050 C   0  0  0  0  0  0  0  0  0  0  0  0
    0.8457    1.0368   -1.4600 O   0  0  0  0  0  0  0  0  0  0  0  0
    1.4233    0.8126   -0.2473 C   0  0  0  0  0  0  0  0  0  0  0  0
    1.8562   -0.5223    0.2341 C   0  0  0  0  0  0  0  0  0  0  0  0
    0.6810   -1.1485    0.7104 O   0  0  0  0  0  0  0  0  0  0  0  0
   -0.2155   -0.9267   -0.3160 C   0  0  0  0  0  0  0  0  0  0  0  0
   -2.2800   -0.9419   -0.7774 H   0  0  0  0  0  0  0  0  0  0  0  0
   -1.8744   -1.7819    0.8100 H   0  0  0  0  0  0  0  0  0  0  0  0
   -1.7100    1.9260   -0.3091 H   0  0  0  0  0  0  0  0  0  0  0  0
   -0.5581    1.8244    1.0333 H   0  0  0  0  0  0  0  0  0  0  0  0
    1.6036    1.7311    0.3591 H   0  0  0  0  0  0  0  0  0  0  0  0
    2.2793   -1.1895   -0.5091 H   0  0  0  0  0  0  0  0  0  0  0  0
    2.5472   -0.3762    1.0901 H   0  0  0  0  0  0  0  0  0  0  0  0
   -0.0554   -1.5297   -1.2079 H   0  0  0  0  0  0  0  0  0  0  0  0
  1  2  1  0
  2  3  1  0
  3  4  1  0
  4  5  1  0
  5  6  1  0
  6  7  1  0
  7  8  1  0
  8  9  1  0
  9  1  1  0
  6  4  1  0
  9  4  1  0
  1 10  1  0
  1 11  1  0
  3 12  1  0
  3 13  1  0
  6 14  1  0
  7 15  1  0
  7 16  1  0
  9 17  1  0
M  END
