
     RDKit          3D

 19 21  0  0  0  0  0  0  0  0999 V2000
   -2.0588   -0.4267   -0.0347 C   0  0  0  0  0  0  0  0  0  0  0  0
   -1.6701   -0.0912    1.2907 O   0  0  0  0  0  0  0  0  0  0  0  0
   -0.3169    0.1048    1.1888 C   0  0  0  0  0  0  0  0  0  0  0  0
    0.1477   -1.0083    0.2531 C   0  0  0  0  0  0  0  0  0  0  0  0
    1.5730   -0.9079   -0.1244 C   0  0  0  0  0  0  0  0  0  0  0  0
    2.0721    0.3514    0.0859 O   0  0  0  0  0  0  0  0  0  0  0  0
    1.1952    1.3620   -0.2916 C   0  0  0  0  0  0  0  0  0  0  0  0
   -0.2311    1.0114   -0.0480 C   0  0  0  0  0  0  0  0  0  0  0  0
   -0.7423   -0.2330   -0.7302 C   0  0  0  0  0  0  0  0  0  0  0  0
   -2.7790    0.2846   -0.4318 H   0  0  0  0  0  0  0  0  0  0  0  0
   -2.3905   -1.4642    0.0097 H   0  0  0  0  0  0  0  0  0  0  0  0
    0.2804    0.3486    2.0220 H   0  0  0  0  0  0  0  0  0  0  0  0
   -0.2738   -1.9881    0.4880 H   0  0  0  0  0  0  0  0  0  0  0  0
    1.6483   -1.1049   -1.2339 H   0  0  0  0  0  0  0  0  0  0  0  0
    2.2346   -1.6446    0.3484 H   0  0  0  0  0  0  0  0  0  0  0  0
    1.3947    1.6773   -1.3450 H   0  0  0  0  0  0  0  0  0  0  0  0
    1.4408    2.2441    0.3351 H   0  0  0  0  0  0  0  0  0  0  0  0
   -0.9041    1.8710   -0.0262 H   0  0  0  0  0  0  0  0  0  0  0  0
   -0.6202   -0.3863   -1.7559 H   0  0  0  0  0  0  0  0  0  0  0  0
  1  2  1  0
  2  3  1  0
  3  4  1  0
  4  5  1  0
  5  6  1  0
  6  7  1  0
  7  8  1  0
  8  9  1  0
  9  1  1  0
  8  3  1  0
  9  4  1  0
  1 10  1  0
  1 11  1  0
  3 12  1  0
  4 13  1  0
  5 14  1  0
  5 15  1  0
  7 16  1  0
  7 17  1  0
  8 18  1  0
  9 19  1  0
M  END
