
     RDKit          3D

 17 19  0  0  0  0  0  0  0  0999 V2000
   -1.2712   -0.9365   -0.2492 C   0  0  0  0  0  0  0  0  0  0  0  0
   -0.3428   -1.4618    0.6218 O   0  0  0  0  0  0  0  0  0  0  0  0
    0.7104   -0.5893    0.8160 C   0  0  0  0  0  0  0  0  0  0  0  0
    1.4884   -0.5250   -0.4959 C   0  0  0  0  0  0  0  0  0  0  0  0
    0.9352    0.4679   -1.2543 O   0  0  0  0  0  0  0  0  0  0  0  0
    0.0433    1.1892   -0.5164 C   0  0  0  0  0  0  0  0  0  0  0  0
   -1.2880    0.5671   -0.2375 C   0  0  0  0  0  0  0  0  0  0  0  0
   -1.1259    0.9530    1.1112 O   0  0  0  0  0  0  0  0  0  0  0  0
    0.2215    0.8281    0.9378 C   0  0  0  0  0  0  0  0  0  0  0  0
   -1.1476   -1.3770   -1.2473 H   0  0  0  0  0  0  0  0  0  0  0  0
   -2.2834   -1.2537    0.1402 H   0  0  0  0  0  0  0  0  0  0  0  0
    1.3902   -0.8778    1.6098 H   0  0  0  0  0  0  0  0  0  0  0  0
    2.5572   -0.2867   -0.2893 H   0  0  0  0  0  0  0  0  0  0  0  0
    1.4717   -1.4809   -1.0207 H   0  0  0  0  0  0  0  0  0  0  0  0
   -0.0399    2.2572   -0.7180 H   0  0  0  0  0  0  0  0  0  0  0  0
   -2.1244    1.0166   -0.7593 H   0  0  0  0  0  0  0  0  0  0  0  0
    0.8053    1.5095    1.5511 H   0  0  0  0  0  0  0  0  0  0  0  0
  1  2  1  0
  2  3  1  0
  3  4  1  0
  4  5  1  0
  5  6  1  0
  6  7  1  0
  7  8  1  0
  8  9  1  0
  7  1  1  0
  9  3  1  0
  9  6  1  0
  1 10  1  0
  1 11  1  0
  3 12  1  0
  4 13  1  0
  4 14  1  0
  6 15  1  0
  7 16  1  0
  9 17  1  0
M  END
