
     RDKit          3D

 16 17  0  0  0  0  0  0  0  0999 V2000
   -1.5535    1.3716    0.1750 C   0  0  0  0  0  0  0  0  0  0  0  0
   -2.0822    0.3503   -0.6166 O   0  0  0  0  0  0  0  0  0  0  0  0
   -1.2801   -0.7645   -0.3930 C   0  0  0  0  0  0  0  0  0  0  0  0
   -0.1324   -0.1972    0.4059 C   0  0  0  0  0  0  0  0  0  0  0  0
    1.1815   -0.8569    0.1003 C   0  0  0  0  0  0  0  0  0  0  0  0
    2.2889    0.0531   -0.3291 C   0  0  0  0  0  0  0  0  0  0  0  0
    1.6436   -0.9132   -1.1969 O   0  0  0  0  0  0  0  0  0  0  0  0
   -0.1808    1.1353    0.0467 O   0  0  0  0  0  0  0  0  0  0  0  0
   -1.8541    2.3648   -0.1773 H   0  0  0  0  0  0  0  0  0  0  0  0
   -1.7923    1.1955    1.2500 H   0  0  0  0  0  0  0  0  0  0  0  0
   -0.9383   -1.2064   -1.3695 H   0  0  0  0  0  0  0  0  0  0  0  0
   -1.7931   -1.5369    0.2228 H   0  0  0  0  0  0  0  0  0  0  0  0
   -0.3913   -0.2760    1.4646 H   0  0  0  0  0  0  0  0  0  0  0  0
    1.4843   -1.6153    0.8481 H   0  0  0  0  0  0  0  0  0  0  0  0
    2.0503    1.0908   -0.6531 H   0  0  0  0  0  0  0  0  0  0  0  0
    3.3497   -0.1951   -0.0871 H   0  0  0  0  0  0  0  0  0  0  0  0
  1  2  1  0
  2  3  1  0
  3  4  1  0
  4  5  1  0
  5  6  1  0
  6  7  1  0
  4  8  1  0
  8  1  1  0
  7  5  1  0
  1  9  1  0
  1 10  1  0
  3 11  1  0
  3 12  1  0
  4 13  1  0
  5 14  1  0
  6 15  1  0
  6 16  1  0
M  END
