
     RDKit          3D

 18 20  0  0  0  0  0  0  0  0999 V2000
    0.4930    1.5888   -0.3717 C   0  0  0  0  0  0  0  0  0  0  0  0
   -0.6205    1.0591   -0.9894 O   0  0  0  0  0  0  0  0  0  0  0  0
   -1.4643    0.4120   -0.1253 C   0  0  0  0  0  0  0  0  0  0  0  0
   -1.6520   -1.0617   -0.2040 C   0  0  0  0  0  0  0  0  0  0  0  0
   -0.7964   -0.4156    0.8779 C   0  0  0  0  0  0  0  0  0  0  0  0
    0.6679   -0.5925    0.7438 C   0  0  0  0  0  0  0  0  0  0  0  0
    1.3217   -0.8743   -0.5325 C   0  0  0  0  0  0  0  0  0  0  0  0
    1.4130    0.5084    0.1153 C   0  0  0  0  0  0  0  0  0  0  0  0
    1.0609    2.1951   -1.1129 H   0  0  0  0  0  0  0  0  0  0  0  0
    0.2129    2.2122    0.5136 H   0  0  0  0  0  0  0  0  0  0  0  0
   -2.3564    1.0346    0.1717 H   0  0  0  0  0  0  0  0  0  0  0  0
   -2.6023   -1.5365    0.0715 H   0  0  0  0  0  0  0  0  0  0  0  0
   -1.1080   -1.5453   -1.0531 H   0  0  0  0  0  0  0  0  0  0  0  0
   -1.2214   -0.3820    1.9064 H   0  0  0  0  0  0  0  0  0  0  0  0
    1.1616   -1.0412    1.6499 H   0  0  0  0  0  0  0  0  0  0  0  0
    2.2331   -1.5086   -0.5447 H   0  0  0  0  0  0  0  0  0  0  0  0
    0.8161   -0.8384   -1.5125 H   0  0  0  0  0  0  0  0  0  0  0  0
    2.4410    0.7860    0.3961 H   0  0  0  0  0  0  0  0  0  0  0  0
  1  2  1  0
  2  3  1  0
  3  4  1  0
  4  5  1  0
  5  6  1  0
  6  7  1  0
  7  8  1  0
  8  1  1  0
  5  3  1  0
  8  6  1  0
  1  9  1  0
  1 10  1  0
  3 11  1  0
  4 12  1  0
  4 13  1  0
  5 14  1  0
  6 15  1  0
  7 16  1  0
  7 17  1  0
  8 18  1  0
M  END
