
     RDKit          3D

 14 16  0  0  0  0  0  0  0  0999 V2000
   -1.5061    0.0216   -0.3748 C   0  0  0  0  0  0  0  0  0  0  0  0
   -0.6770    1.0233   -0.8142 O   0  0  0  0  0  0  0  0  0  0  0  0
    0.5331    1.1016   -0.2123 C   0  0  0  0  0  0  0  0  0  0  0  0
    0.8142    0.2740    0.9442 C   0  0  0  0  0  0  0  0  0  0  0  0
   -0.0419   -0.7346    1.2581 O   0  0  0  0  0  0  0  0  0  0  0  0
   -0.5672   -1.1233    0.0310 C   0  0  0  0  0  0  0  0  0  0  0  0
    0.5477   -1.1555   -0.8170 O   0  0  0  0  0  0  0  0  0  0  0  0
    1.3594   -0.0955   -0.3731 C   0  0  0  0  0  0  0  0  0  0  0  0
   -2.2566   -0.2933   -1.0963 H   0  0  0  0  0  0  0  0  0  0  0  0
   -2.0343    0.4151    0.5391 H   0  0  0  0  0  0  0  0  0  0  0  0
    1.0328    2.0866   -0.2652 H   0  0  0  0  0  0  0  0  0  0  0  0
    1.4413    0.6598    1.7595 H   0  0  0  0  0  0  0  0  0  0  0  0
   -1.0641   -2.0881    0.0398 H   0  0  0  0  0  0  0  0  0  0  0  0
    2.4186   -0.0918   -0.6187 H   0  0  0  0  0  0  0  0  0  0  0  0
  1  2  1  0
  2  3  1  0
  3  4  1  0
  4  5  1  0
  5  6  1  0
  6  7  1  0
  7  8  1  0
  6  1  1  0
  8  3  1  0
  8  4  1  0
  1  9  1  0
  1 10  1  0
  3 11  1  0
  4 12  1  0
  6 13  1  0
  8 14  1  0
M  END
