
     RDKit          3D

 17 19  0  0  0  0  0  0  0  0999 V2000
    2.2287   -0.4761    0.5570 C   0  0  0  0  0  0  0  0  0  0  0  0
    2.6023    0.7898    0.4439 O   0  0  0  0  0  0  0  0  0  0  0  0
    1.6252    1.5199   -0.0263 C   0  0  0  0  0  0  0  0  0  0  0  0
    0.5143    0.6925   -0.2472 C   0  0  0  0  0  0  0  0  0  0  0  0
    0.9237   -0.5738    0.1330 C   0  0  0  0  0  0  0  0  0  0  0  0
   -0.2916   -1.4678   -0.0851 C   0  0  0  0  0  0  0  0  0  0  0  0
   -1.2967   -0.4656    0.4153 C   0  0  0  0  0  0  0  0  0  0  0  0
   -2.0952    0.5455   -0.0995 C   0  0  0  0  0  0  0  0  0  0  0  0
   -0.8444    0.5468   -0.7001 C   0  0  0  0  0  0  0  0  0  0  0  0
    2.8119   -1.3221    0.9150 H   0  0  0  0  0  0  0  0  0  0  0  0
    1.6406    2.5842   -0.2225 H   0  0  0  0  0  0  0  0  0  0  0  0
   -0.3856   -1.6439   -1.1615 H   0  0  0  0  0  0  0  0  0  0  0  0
   -0.2593   -2.3478    0.5506 H   0  0  0  0  0  0  0  0  0  0  0  0
   -0.9432   -0.2249    1.4746 H   0  0  0  0  0  0  0  0  0  0  0  0
   -2.3788    1.4580    0.5052 H   0  0  0  0  0  0  0  0  0  0  0  0
   -3.0156    0.2585   -0.6909 H   0  0  0  0  0  0  0  0  0  0  0  0
   -0.8363    0.1268   -1.7615 H   0  0  0  0  0  0  0  0  0  0  0  0
  1  2  1  0
  2  3  1  0
  3  4  2  0
  4  5  1  0
  5  6  1  0
  6  7  1  0
  7  8  1  0
  8  9  1  0
  5  1  2  0
  9  7  1  0
  9  4  1  0
  1 10  1  0
  3 11  1  0
  6 12  1  0
  6 13  1  0
  7 14  1  0
  8 15  1  0
  8 16  1  0
  9 17  1  0
M  END
