
     RDKit          3D

 19 22  0  0  0  0  0  0  0  0999 V2000
    2.1790    0.1467   -0.8669 C   0  0  0  0  0  0  0  0  0  0  0  0
    2.5679    0.5459    0.4206 O   0  0  0  0  0  0  0  0  0  0  0  0
    1.8516   -0.7371    0.2137 C   0  0  0  0  0  0  0  0  0  0  0  0
    0.5887   -0.7586    0.9951 C   0  0  0  0  0  0  0  0  0  0  0  0
   -0.6862   -1.0059    0.2884 C   0  0  0  0  0  0  0  0  0  0  0  0
   -1.1032   -0.1776   -0.9075 C   0  0  0  0  0  0  0  0  0  0  0  0
   -2.2994    0.6815   -0.6368 C   0  0  0  0  0  0  0  0  0  0  0  0
   -0.8905    1.0567   -0.1800 C   0  0  0  0  0  0  0  0  0  0  0  0
   -0.3904    0.3432    1.0252 C   0  0  0  0  0  0  0  0  0  0  0  0
    1.3931    0.7271   -1.3701 H   0  0  0  0  0  0  0  0  0  0  0  0
    3.0325   -0.1465   -1.5286 H   0  0  0  0  0  0  0  0  0  0  0  0
    2.5865   -1.5447    0.4920 H   0  0  0  0  0  0  0  0  0  0  0  0
    0.6628   -1.3138    1.9753 H   0  0  0  0  0  0  0  0  0  0  0  0
   -1.5220   -1.5709    0.7491 H   0  0  0  0  0  0  0  0  0  0  0  0
   -0.7637   -0.4168   -1.9101 H   0  0  0  0  0  0  0  0  0  0  0  0
   -2.7812    1.2673   -1.4165 H   0  0  0  0  0  0  0  0  0  0  0  0
   -2.9870    0.3823    0.1912 H   0  0  0  0  0  0  0  0  0  0  0  0
   -0.4574    1.9880   -0.5368 H   0  0  0  0  0  0  0  0  0  0  0  0
   -0.9812    0.5334    1.9498 H   0  0  0  0  0  0  0  0  0  0  0  0
  1  2  1  0
  2  3  1  0
  3  4  1  0
  4  5  1  0
  5  6  1  0
  6  7  1  0
  7  8  1  0
  8  9  1  0
  3  1  1  0
  9  4  1  0
  9  5  1  0
  8  6  1  0
  1 10  1  0
  1 11  1  0
  3 12  1  0
  4 13  1  0
  5 14  1  0
  6 15  1  0
  7 16  1  0
  7 17  1  0
  8 18  1  0
  9 19  1  0
M  END
