
     RDKit          3D

 16 18  0  0  0  0  0  0  0  0999 V2000
    1.2348    1.0386    0.1570 C   0  0  0  0  0  0  0  0  0  0  0  0
    2.1079    0.1732   -0.5470 O   0  0  0  0  0  0  0  0  0  0  0  0
    1.3627   -0.8778    0.0392 C   0  0  0  0  0  0  0  0  0  0  0  0
    0.2074    0.0044    0.0099 C   0  0  0  0  0  0  0  0  0  0  0  0
   -0.9122   -0.1263    0.9333 C   0  0  0  0  0  0  0  0  0  0  0  0
   -1.8408    0.0100   -0.2842 C   0  0  0  0  0  0  0  0  0  0  0  0
   -1.6393    1.0805   -1.1400 O   0  0  0  0  0  0  0  0  0  0  0  0
   -0.7140    0.0314   -1.1460 C   0  0  0  0  0  0  0  0  0  0  0  0
    1.6261    1.1510    1.1827 H   0  0  0  0  0  0  0  0  0  0  0  0
    0.9807    1.9592   -0.3729 H   0  0  0  0  0  0  0  0  0  0  0  0
    1.7662   -1.0317    1.0605 H   0  0  0  0  0  0  0  0  0  0  0  0
    1.2809   -1.7776   -0.5720 H   0  0  0  0  0  0  0  0  0  0  0  0
   -1.0913   -1.1505    1.3589 H   0  0  0  0  0  0  0  0  0  0  0  0
   -1.0872    0.6209    1.7136 H   0  0  0  0  0  0  0  0  0  0  0  0
   -2.7467   -0.5822   -0.3279 H   0  0  0  0  0  0  0  0  0  0  0  0
   -0.5352   -0.5233   -2.0650 H   0  0  0  0  0  0  0  0  0  0  0  0
  1  2  1  0
  2  3  1  0
  3  4  1  0
  4  5  1  0
  5  6  1  0
  6  7  1  0
  7  8  1  0
  4  1  1  0
  8  6  1  0
  8  4  1  0
  1  9  1  0
  1 10  1  0
  3 11  1  0
  3 12  1  0
  5 13  1  0
  5 14  1  0
  6 15  1  0
  8 16  1  0
M  END
