
     RDKit          3D

 19 21  0  0  0  0  0  0  0  0999 V2000
   -1.1305    0.8227   -0.8115 C   0  0  0  0  0  0  0  0  0  0  0  0
   -0.4916    1.6527    0.0526 O   0  0  0  0  0  0  0  0  0  0  0  0
    0.5423    1.1417    0.7634 C   0  0  0  0  0  0  0  0  0  0  0  0
    1.6932    1.1017   -0.0479 O   0  0  0  0  0  0  0  0  0  0  0  0
    1.5320    0.0319   -0.9077 C   0  0  0  0  0  0  0  0  0  0  0  0
    0.5784   -0.9340   -0.2819 C   0  0  0  0  0  0  0  0  0  0  0  0
   -0.8910   -0.6269   -0.4854 C   0  0  0  0  0  0  0  0  0  0  0  0
   -1.0480   -0.7442    1.0360 C   0  0  0  0  0  0  0  0  0  0  0  0
    0.3839   -0.3224    1.1071 C   0  0  0  0  0  0  0  0  0  0  0  0
   -0.9528    1.0510   -1.8958 H   0  0  0  0  0  0  0  0  0  0  0  0
   -2.2413    0.9864   -0.6810 H   0  0  0  0  0  0  0  0  0  0  0  0
    0.7396    1.7391    1.6649 H   0  0  0  0  0  0  0  0  0  0  0  0
    1.2838    0.3254   -1.9358 H   0  0  0  0  0  0  0  0  0  0  0  0
    2.5338   -0.4759   -0.9688 H   0  0  0  0  0  0  0  0  0  0  0  0
    0.8181   -1.9890   -0.3033 H   0  0  0  0  0  0  0  0  0  0  0  0
   -1.4204   -1.3635   -1.0701 H   0  0  0  0  0  0  0  0  0  0  0  0
   -1.2244   -1.7480    1.4085 H   0  0  0  0  0  0  0  0  0  0  0  0
   -1.7104    0.0643    1.4644 H   0  0  0  0  0  0  0  0  0  0  0  0
    1.0054   -0.7131    1.8922 H   0  0  0  0  0  0  0  0  0  0  0  0
  1  2  1  0
  2  3  1  0
  3  4  1  0
  4  5  1  0
  5  6  1  0
  6  7  1  0
  7  8  1  0
  8  9  1  0
  7  1  1  0
  9  3  1  0
  9  6  1  0
  1 10  1  0
  1 11  1  0
  3 12  1  0
  5 13  1  0
  5 14  1  0
  6 15  1  0
  7 16  1  0
  8 17  1  0
  8 18  1  0
  9 19  1  0
M  END
