
     RDKit          3D

 19 21  0  0  0  0  0  0  0  0999 V2000
    2.6595    0.5045   -0.2800 C   0  0  0  0  0  0  0  0  0  0  0  0
    2.5920    0.8169    1.0610 O   0  0  0  0  0  0  0  0  0  0  0  0
    1.3788    0.8061    0.3796 C   0  0  0  0  0  0  0  0  0  0  0  0
    0.4481   -0.3864    0.6052 C   0  0  0  0  0  0  0  0  0  0  0  0
    0.0466   -1.0805   -0.7111 C   0  0  0  0  0  0  0  0  0  0  0  0
   -0.8822   -0.2948    0.0621 C   0  0  0  0  0  0  0  0  0  0  0  0
   -2.1408   -0.7247    0.6652 C   0  0  0  0  0  0  0  0  0  0  0  0
   -2.6048    0.6097    0.5710 O   0  0  0  0  0  0  0  0  0  0  0  0
   -1.5966    0.9165   -0.3605 C   0  0  0  0  0  0  0  0  0  0  0  0
    3.0260    1.2642   -1.0158 H   0  0  0  0  0  0  0  0  0  0  0  0
    2.9818   -0.5358   -0.4872 H   0  0  0  0  0  0  0  0  0  0  0  0
    0.9397    1.7917    0.2362 H   0  0  0  0  0  0  0  0  0  0  0  0
    0.6391   -1.0016    1.4841 H   0  0  0  0  0  0  0  0  0  0  0  0
    0.0051   -2.1955   -0.6032 H   0  0  0  0  0  0  0  0  0  0  0  0
    0.5520   -0.7712   -1.6347 H   0  0  0  0  0  0  0  0  0  0  0  0
   -2.1593   -1.1316    1.6829 H   0  0  0  0  0  0  0  0  0  0  0  0
   -2.8328   -1.3450    0.0279 H   0  0  0  0  0  0  0  0  0  0  0  0
   -1.0731    1.8531   -0.0902 H   0  0  0  0  0  0  0  0  0  0  0  0
   -1.9790    0.9046   -1.4143 H   0  0  0  0  0  0  0  0  0  0  0  0
  1  2  1  0
  2  3  1  0
  3  4  1  0
  4  5  1  0
  5  6  1  0
  6  7  1  0
  7  8  1  0
  8  9  1  0
  3  1  1  0
  6  4  1  0
  9  6  1  0
  1 10  1  0
  1 11  1  0
  3 12  1  0
  4 13  1  0
  5 14  1  0
  5 15  1  0
  7 16  1  0
  7 17  1  0
  9 18  1  0
  9 19  1  0
M  END
