
     RDKit          3D

 17 19  0  0  0  0  0  0  0  0999 V2000
    1.9594    0.0711   -0.1669 C   0  0  0  0  0  0  0  0  0  0  0  0
    1.2714    0.5202   -1.2918 O   0  0  0  0  0  0  0  0  0  0  0  0
    0.0008    0.9109   -0.8497 C   0  0  0  0  0  0  0  0  0  0  0  0
    0.3287    1.4703    0.4138 O   0  0  0  0  0  0  0  0  0  0  0  0
    0.9876    0.3330    0.9408 C   0  0  0  0  0  0  0  0  0  0  0  0
   -0.1102   -0.6936    0.8565 C   0  0  0  0  0  0  0  0  0  0  0  0
   -0.8100   -0.2582   -0.4080 C   0  0  0  0  0  0  0  0  0  0  0  0
   -2.2485   -0.3431   -0.4365 C   0  0  0  0  0  0  0  0  0  0  0  0
   -1.4107   -1.1265   -1.2473 O   0  0  0  0  0  0  0  0  0  0  0  0
    2.8630    0.7149    0.0356 H   0  0  0  0  0  0  0  0  0  0  0  0
    2.3118   -0.9577   -0.2404 H   0  0  0  0  0  0  0  0  0  0  0  0
   -0.4894    1.6170   -1.5052 H   0  0  0  0  0  0  0  0  0  0  0  0
    1.4054    0.4913    1.9173 H   0  0  0  0  0  0  0  0  0  0  0  0
   -0.7785   -0.5759    1.7309 H   0  0  0  0  0  0  0  0  0  0  0  0
    0.3093   -1.7124    0.7537 H   0  0  0  0  0  0  0  0  0  0  0  0
   -2.7660   -0.9308    0.3743 H   0  0  0  0  0  0  0  0  0  0  0  0
   -2.8241    0.4697   -0.8771 H   0  0  0  0  0  0  0  0  0  0  0  0
  1  2  1  0
  2  3  1  0
  3  4  1  0
  4  5  1  0
  5  6  1  0
  6  7  1  0
  7  8  1  0
  8  9  1  0
  5  1  1  0
  9  7  1  0
  7  3  1  0
  1 10  1  0
  1 11  1  0
  3 12  1  0
  5 13  1  0
  6 14  1  0
  6 15  1  0
  8 16  1  0
  8 17  1  0
M  END
