
     RDKit          3D

 21 23  0  0  0  0  0  0  0  0999 V2000
    3.5867    0.3984    0.0501 C   0  0  0  0  0  0  0  0  0  0  0  0
    2.7574    1.3313    0.6964 O   0  0  0  0  0  0  0  0  0  0  0  0
    2.1262    0.5432   -0.3040 C   0  0  0  0  0  0  0  0  0  0  0  0
    1.1606   -0.5263    0.1611 C   0  0  0  0  0  0  0  0  0  0  0  0
   -0.2170   -0.1772   -0.3006 C   0  0  0  0  0  0  0  0  0  0  0  0
   -1.3848   -1.0380    0.0022 C   0  0  0  0  0  0  0  0  0  0  0  0
   -2.7179   -0.5474   -0.5000 C   0  0  0  0  0  0  0  0  0  0  0  0
   -2.4981    0.8109    0.1557 C   0  0  0  0  0  0  0  0  0  0  0  0
   -1.1979    0.2632    0.7029 C   0  0  0  0  0  0  0  0  0  0  0  0
    4.3415    0.8150   -0.6356 H   0  0  0  0  0  0  0  0  0  0  0  0
    3.8079   -0.5108    0.6399 H   0  0  0  0  0  0  0  0  0  0  0  0
    1.9236    1.0551   -1.2694 H   0  0  0  0  0  0  0  0  0  0  0  0
    1.5147   -1.5081   -0.2227 H   0  0  0  0  0  0  0  0  0  0  0  0
    1.2097   -0.5519    1.2677 H   0  0  0  0  0  0  0  0  0  0  0  0
   -0.2631    0.3400   -1.2966 H   0  0  0  0  0  0  0  0  0  0  0  0
   -1.2996   -1.9951    0.5296 H   0  0  0  0  0  0  0  0  0  0  0  0
   -3.6084   -1.0772   -0.0963 H   0  0  0  0  0  0  0  0  0  0  0  0
   -2.6998   -0.5089   -1.6245 H   0  0  0  0  0  0  0  0  0  0  0  0
   -2.2553    1.5780   -0.6297 H   0  0  0  0  0  0  0  0  0  0  0  0
   -3.2467    1.1089    0.8891 H   0  0  0  0  0  0  0  0  0  0  0  0
   -1.0394    0.1969    1.7847 H   0  0  0  0  0  0  0  0  0  0  0  0
  1  2  1  0
  2  3  1  0
  3  4  1  0
  4  5  1  0
  5  6  1  0
  6  7  1  0
  7  8  1  0
  8  9  1  0
  3  1  1  0
  9  5  1  0
  9  6  1  0
  1 10  1  0
  1 11  1  0
  3 12  1  0
  4 13  1  0
  4 14  1  0
  5 15  1  0
  6 16  1  0
  7 17  1  0
  7 18  1  0
  8 19  1  0
  8 20  1  0
  9 21  1  0
M  END
