
     RDKit          3D

 19 21  0  0  0  0  0  0  0  0999 V2000
    1.5653   -0.8528    0.3422 C   0  0  0  0  0  0  0  0  0  0  0  0
    1.6316    0.4433    0.7813 O   0  0  0  0  0  0  0  0  0  0  0  0
    0.7458    1.2202    0.1005 C   0  0  0  0  0  0  0  0  0  0  0  0
   -0.6433    1.3522    0.7243 C   0  0  0  0  0  0  0  0  0  0  0  0
   -1.2604    0.7219   -0.4999 C   0  0  0  0  0  0  0  0  0  0  0  0
   -1.8646   -0.5014   -0.3162 O   0  0  0  0  0  0  0  0  0  0  0  0
   -0.8969   -1.3379    0.2586 C   0  0  0  0  0  0  0  0  0  0  0  0
    0.3348   -0.9999   -0.5173 C   0  0  0  0  0  0  0  0  0  0  0  0
    0.1122    0.4119   -0.9908 C   0  0  0  0  0  0  0  0  0  0  0  0
    2.4374   -1.1035   -0.3137 H   0  0  0  0  0  0  0  0  0  0  0  0
    1.5115   -1.5504    1.2004 H   0  0  0  0  0  0  0  0  0  0  0  0
    1.1079    2.2171   -0.1896 H   0  0  0  0  0  0  0  0  0  0  0  0
   -0.7434    0.8099    1.6639 H   0  0  0  0  0  0  0  0  0  0  0  0
   -0.9850    2.4002    0.8528 H   0  0  0  0  0  0  0  0  0  0  0  0
   -1.8611    1.3802   -1.1394 H   0  0  0  0  0  0  0  0  0  0  0  0
   -1.2363   -2.3968    0.0967 H   0  0  0  0  0  0  0  0  0  0  0  0
   -0.8148   -1.2080    1.3412 H   0  0  0  0  0  0  0  0  0  0  0  0
    0.4911   -1.6507   -1.3795 H   0  0  0  0  0  0  0  0  0  0  0  0
    0.3683    0.6445   -2.0156 H   0  0  0  0  0  0  0  0  0  0  0  0
  1  2  1  0
  2  3  1  0
  3  4  1  0
  4  5  1  0
  5  6  1  0
  6  7  1  0
  7  8  1  0
  8  9  1  0
  8  1  1  0
  9  3  1  0
  9  5  1  0
  1 10  1  0
  1 11  1  0
  3 12  1  0
  4 13  1  0
  4 14  1  0
  5 15  1  0
  7 16  1  0
  7 17  1  0
  8 18  1  0
  9 19  1  0
M  END
