
     RDKit          3D

 19 21  0  0  0  0  0  0  0  0999 V2000
    0.2621    1.4974   -0.6101 C   0  0  0  0  0  0  0  0  0  0  0  0
   -1.0481    1.3921   -0.3161 O   0  0  0  0  0  0  0  0  0  0  0  0
   -1.6217    0.1743   -0.2727 C   0  0  0  0  0  0  0  0  0  0  0  0
   -1.0132   -0.6461    0.8409 C   0  0  0  0  0  0  0  0  0  0  0  0
    0.2422   -0.0389    1.3643 C   0  0  0  0  0  0  0  0  0  0  0  0
    1.0413    0.4683    0.1843 C   0  0  0  0  0  0  0  0  0  0  0  0
    1.2697   -0.6890   -0.7365 C   0  0  0  0  0  0  0  0  0  0  0  0
    0.1721   -1.3449   -1.1535 O   0  0  0  0  0  0  0  0  0  0  0  0
   -1.0118   -1.1206   -0.5333 C   0  0  0  0  0  0  0  0  0  0  0  0
    0.4507    1.4097   -1.6990 H   0  0  0  0  0  0  0  0  0  0  0  0
    0.6094    2.5315   -0.3367 H   0  0  0  0  0  0  0  0  0  0  0  0
   -2.7445    0.2273   -0.2007 H   0  0  0  0  0  0  0  0  0  0  0  0
   -1.6835   -1.1030    1.6109 H   0  0  0  0  0  0  0  0  0  0  0  0
    0.8746   -0.8095    1.8616 H   0  0  0  0  0  0  0  0  0  0  0  0
    0.1081    0.7905    2.0635 H   0  0  0  0  0  0  0  0  0  0  0  0
    1.9943    0.8460    0.5725 H   0  0  0  0  0  0  0  0  0  0  0  0
    1.7890   -0.2748   -1.6504 H   0  0  0  0  0  0  0  0  0  0  0  0
    2.0474   -1.3419   -0.2539 H   0  0  0  0  0  0  0  0  0  0  0  0
   -1.7382   -1.9683   -0.7353 H   0  0  0  0  0  0  0  0  0  0  0  0
  1  2  1  0
  2  3  1  0
  3  4  1  0
  4  5  1  0
  5  6  1  0
  6  7  1  0
  7  8  1  0
  8  9  1  0
  6  1  1  0
  9  3  1  0
  9  4  1  0
  1 10  1  0
  1 11  1  0
  3 12  1  0
  4 13  1  0
  5 14  1  0
  5 15  1  0
  6 16  1  0
  7 17  1  0
  7 18  1  0
  9 19  1  0
M  END
