
     RDKit          3D

 16 18  0  0  0  0  0  0  0  0999 V2000
   -1.7201   -0.2720    0.4411 C   0  0  0  0  0  0  0  0  0  0  0  0
   -1.3601    1.0727    0.5009 O   0  0  0  0  0  0  0  0  0  0  0  0
   -0.4611    0.8933   -0.5361 C   0  0  0  0  0  0  0  0  0  0  0  0
   -0.5929   -0.6009   -0.5008 C   0  0  0  0  0  0  0  0  0  0  0  0
    0.6684   -1.0958    0.1341 C   0  0  0  0  0  0  0  0  0  0  0  0
    1.6144    0.0688    0.2365 C   0  0  0  0  0  0  0  0  0  0  0  0
    1.2441    0.9942    1.2277 O   0  0  0  0  0  0  0  0  0  0  0  0
    0.9748    1.2038   -0.2255 C   0  0  0  0  0  0  0  0  0  0  0  0
   -1.6316   -0.7226    1.4500 H   0  0  0  0  0  0  0  0  0  0  0  0
   -2.7351   -0.4648    0.0196 H   0  0  0  0  0  0  0  0  0  0  0  0
   -0.7893    1.2895   -1.4988 H   0  0  0  0  0  0  0  0  0  0  0  0
   -0.8911   -1.0889   -1.4511 H   0  0  0  0  0  0  0  0  0  0  0  0
    1.1361   -1.8387   -0.5430 H   0  0  0  0  0  0  0  0  0  0  0  0
    0.4982   -1.5331    1.1422 H   0  0  0  0  0  0  0  0  0  0  0  0
    2.7118   -0.1058    0.0815 H   0  0  0  0  0  0  0  0  0  0  0  0
    1.3335    2.2004   -0.4783 H   0  0  0  0  0  0  0  0  0  0  0  0
  1  2  1  0
  2  3  1  0
  3  4  1  0
  4  5  1  0
  5  6  1  0
  6  7  1  0
  7  8  1  0
  4  1  1  0
  8  6  1  0
  8  3  1  0
  1  9  1  0
  1 10  1  0
  3 11  1  0
  4 12  1  0
  5 13  1  0
  5 14  1  0
  6 15  1  0
  8 16  1  0
M  END
