
     RDKit          3D

 17 19  0  0  0  0  0  0  0  0999 V2000
    0.7902    1.2527   -0.3276 C   0  0  0  0  0  0  0  0  0  0  0  0
   -0.5104    1.6719    0.0363 O   0  0  0  0  0  0  0  0  0  0  0  0
   -1.3400    0.5975    0.3671 C   0  0  0  0  0  0  0  0  0  0  0  0
   -1.1547   -0.4996   -0.5659 C   0  0  0  0  0  0  0  0  0  0  0  0
   -1.3532   -1.8063   -0.4936 O   0  0  0  0  0  0  0  0  0  0  0  0
   -0.2622   -1.5308    0.1746 C   0  0  0  0  0  0  0  0  0  0  0  0
    1.0715   -1.1150   -0.2391 C   0  0  0  0  0  0  0  0  0  0  0  0
    2.1376   -0.7764    0.4411 O   0  0  0  0  0  0  0  0  0  0  0  0
    1.2589    0.2019    0.5601 C   0  0  0  0  0  0  0  0  0  0  0  0
    1.4234    2.1767   -0.1761 H   0  0  0  0  0  0  0  0  0  0  0  0
    0.8132    1.0311   -1.4119 H   0  0  0  0  0  0  0  0  0  0  0  0
   -2.3915    1.0004    0.2672 H   0  0  0  0  0  0  0  0  0  0  0  0
   -1.2513    0.3010    1.4294 H   0  0  0  0  0  0  0  0  0  0  0  0
   -0.8214   -0.1745   -1.5903 H   0  0  0  0  0  0  0  0  0  0  0  0
   -0.4010   -1.5578    1.2992 H   0  0  0  0  0  0  0  0  0  0  0  0
    1.1923   -1.0184   -1.3596 H   0  0  0  0  0  0  0  0  0  0  0  0
    0.7985    0.2453    1.5892 H   0  0  0  0  0  0  0  0  0  0  0  0
  1  2  1  0
  2  3  1  0
  3  4  1  0
  4  5  1  0
  5  6  1  0
  6  7  1  0
  7  8  1  0
  8  9  1  0
  9  1  1  0
  6  4  1  0
  9  7  1  0
  1 10  1  0
  1 11  1  0
  3 12  1  0
  3 13  1  0
  4 14  1  0
  6 15  1  0
  7 16  1  0
  9 17  1  0
M  END
