
     RDKit          3D

 19 21  0  0  0  0  0  0  0  0999 V2000
   -1.8643    0.1135   -0.0017 C   0  0  0  0  0  0  0  0  0  0  0  0
   -1.7821   -1.0812    0.6758 O   0  0  0  0  0  0  0  0  0  0  0  0
   -0.4645   -1.3307    0.9790 C   0  0  0  0  0  0  0  0  0  0  0  0
    0.3812   -0.5343    0.0347 C   0  0  0  0  0  0  0  0  0  0  0  0
    1.7248   -0.9045   -0.3718 C   0  0  0  0  0  0  0  0  0  0  0  0
    1.4535    0.3570    0.4552 C   0  0  0  0  0  0  0  0  0  0  0  0
    1.3562    1.5374   -0.3045 O   0  0  0  0  0  0  0  0  0  0  0  0
   -0.0020    1.6967   -0.5828 C   0  0  0  0  0  0  0  0  0  0  0  0
   -0.5592    0.2964   -0.7526 C   0  0  0  0  0  0  0  0  0  0  0  0
   -2.0771    0.9708    0.6821 H   0  0  0  0  0  0  0  0  0  0  0  0
   -2.6807    0.0443   -0.7522 H   0  0  0  0  0  0  0  0  0  0  0  0
   -0.1988   -1.1777    2.0347 H   0  0  0  0  0  0  0  0  0  0  0  0
   -0.2758   -2.4173    0.7464 H   0  0  0  0  0  0  0  0  0  0  0  0
    2.1862   -1.7723    0.1657 H   0  0  0  0  0  0  0  0  0  0  0  0
    2.1254   -0.7675   -1.3944 H   0  0  0  0  0  0  0  0  0  0  0  0
    1.8664    0.4089    1.4683 H   0  0  0  0  0  0  0  0  0  0  0  0
   -0.4529    2.2343    0.2726 H   0  0  0  0  0  0  0  0  0  0  0  0
   -0.1000    2.2749   -1.5361 H   0  0  0  0  0  0  0  0  0  0  0  0
   -0.6365    0.0512   -1.8183 H   0  0  0  0  0  0  0  0  0  0  0  0
  1  2  1  0
  2  3  1  0
  3  4  1  0
  4  5  1  0
  5  6  1  0
  6  7  1  0
  7  8  1  0
  8  9  1  0
  9  1  1  0
  6  4  1  0
  9  4  1  0
  1 10  1  0
  1 11  1  0
  3 12  1  0
  3 13  1  0
  5 14  1  0
  5 15  1  0
  6 16  1  0
  8 17  1  0
  8 18  1  0
  9 19  1  0
M  END
