
     RDKit          3D

 17 19  0  0  0  0  0  0  0  0999 V2000
   -1.6441    0.6492    0.2736 C   0  0  0  0  0  0  0  0  0  0  0  0
   -0.4575    1.3076   -0.0095 O   0  0  0  0  0  0  0  0  0  0  0  0
    0.4398    0.3274   -0.2862 C   0  0  0  0  0  0  0  0  0  0  0  0
    0.9916   -0.3246    0.9764 C   0  0  0  0  0  0  0  0  0  0  0  0
    2.1196    0.5062    0.8147 O   0  0  0  0  0  0  0  0  0  0  0  0
    1.8437    0.6674   -0.5626 C   0  0  0  0  0  0  0  0  0  0  0  0
   -0.2381   -0.6902   -1.1366 C   0  0  0  0  0  0  0  0  0  0  0  0
   -1.3421   -0.4153   -1.8859 O   0  0  0  0  0  0  0  0  0  0  0  0
   -1.6652   -0.6081   -0.5689 C   0  0  0  0  0  0  0  0  0  0  0  0
   -1.8090    0.4763    1.3347 H   0  0  0  0  0  0  0  0  0  0  0  0
   -2.4647    1.3011   -0.1338 H   0  0  0  0  0  0  0  0  0  0  0  0
    1.1812   -1.3960    0.8287 H   0  0  0  0  0  0  0  0  0  0  0  0
    0.4069   -0.1160    1.8954 H   0  0  0  0  0  0  0  0  0  0  0  0
    2.3401   -0.1324   -1.1737 H   0  0  0  0  0  0  0  0  0  0  0  0
    2.0924    1.6807   -0.9132 H   0  0  0  0  0  0  0  0  0  0  0  0
    0.2129   -1.6796   -1.2765 H   0  0  0  0  0  0  0  0  0  0  0  0
   -2.0076   -1.5535   -0.1644 H   0  0  0  0  0  0  0  0  0  0  0  0
  1  2  1  0
  2  3  1  0
  3  4  1  0
  4  5  1  0
  5  6  1  0
  3  7  1  0
  7  8  1  0
  8  9  1  0
  9  1  1  0
  6  3  1  0
  9  7  1  0
  1 10  1  0
  1 11  1  0
  4 12  1  0
  4 13  1  0
  6 14  1  0
  6 15  1  0
  7 16  1  0
  9 17  1  0
M  END
