
     RDKit          3D

 21 22  0  0  0  0  0  0  0  0999 V2000
    2.3875    0.6197   -0.8434 C   0  0  0  0  0  0  0  0  0  0  0  0
    3.0084    0.6867    0.4215 O   0  0  0  0  0  0  0  0  0  0  0  0
    1.6963    0.7489    0.9455 C   0  0  0  0  0  0  0  0  0  0  0  0
    1.3139   -0.2068   -0.1909 C   0  0  0  0  0  0  0  0  0  0  0  0
   -0.0661    0.0267   -0.7460 C   0  0  0  0  0  0  0  0  0  0  0  0
   -1.0547   -0.8513   -0.0194 C   0  0  0  0  0  0  0  0  0  0  0  0
   -2.4773   -0.6973   -0.4985 C   0  0  0  0  0  0  0  0  0  0  0  0
   -2.9287   -0.7421    0.8229 O   0  0  0  0  0  0  0  0  0  0  0  0
   -1.6803   -0.2172    1.1941 C   0  0  0  0  0  0  0  0  0  0  0  0
    2.0253    1.6509   -1.0847 H   0  0  0  0  0  0  0  0  0  0  0  0
    2.9872    0.1348   -1.6170 H   0  0  0  0  0  0  0  0  0  0  0  0
    1.5830    0.3404    1.9454 H   0  0  0  0  0  0  0  0  0  0  0  0
    1.2871    1.7515    0.7421 H   0  0  0  0  0  0  0  0  0  0  0  0
    1.5943   -1.2391   -0.0145 H   0  0  0  0  0  0  0  0  0  0  0  0
   -0.0641   -0.2800   -1.8079 H   0  0  0  0  0  0  0  0  0  0  0  0
   -0.3237    1.0806   -0.6399 H   0  0  0  0  0  0  0  0  0  0  0  0
   -0.7375   -1.8910    0.1469 H   0  0  0  0  0  0  0  0  0  0  0  0
   -2.8611   -1.5305   -1.1181 H   0  0  0  0  0  0  0  0  0  0  0  0
   -2.6321    0.3156   -0.9082 H   0  0  0  0  0  0  0  0  0  0  0  0
   -1.3518   -0.5774    2.1701 H   0  0  0  0  0  0  0  0  0  0  0  0
   -1.7058    0.8770    1.1000 H   0  0  0  0  0  0  0  0  0  0  0  0
  1  2  1  0
  2  3  1  0
  3  4  1  0
  4  5  1  0
  5  6  1  0
  6  7  1  0
  7  8  1  0
  8  9  1  0
  4  1  1  0
  9  6  1  0
  1 10  1  0
  1 11  1  0
  3 12  1  0
  3 13  1  0
  4 14  1  0
  5 15  1  0
  5 16  1  0
  6 17  1  0
  7 18  1  0
  7 19  1  0
  9 20  1  0
  9 21  1  0
M  END
