
     RDKit          3D

 17 20  0  0  0  0  0  0  0  0999 V2000
   -1.7162   -0.1487    0.1928 C   0  0  0  0  0  0  0  0  0  0  0  0
   -1.3364   -0.2291   -1.1332 O   0  0  0  0  0  0  0  0  0  0  0  0
    0.0225   -0.4626   -1.1978 C   0  0  0  0  0  0  0  0  0  0  0  0
    0.3352   -1.2047    0.1104 C   0  0  0  0  0  0  0  0  0  0  0  0
    1.6234   -0.8803    0.3487 O   0  0  0  0  0  0  0  0  0  0  0  0
    1.6673    0.5113    0.2254 C   0  0  0  0  0  0  0  0  0  0  0  0
    0.3621    1.0254    0.6313 C   0  0  0  0  0  0  0  0  0  0  0  0
   -0.4329   -0.1999    0.9843 C   0  0  0  0  0  0  0  0  0  0  0  0
    0.7301    0.8223   -0.8543 C   0  0  0  0  0  0  0  0  0  0  0  0
   -2.3427   -1.0658    0.3935 H   0  0  0  0  0  0  0  0  0  0  0  0
   -2.2797    0.7467    0.4571 H   0  0  0  0  0  0  0  0  0  0  0  0
    0.3768   -0.9728   -2.0734 H   0  0  0  0  0  0  0  0  0  0  0  0
   -0.0035   -2.1974    0.1601 H   0  0  0  0  0  0  0  0  0  0  0  0
    2.6090    1.0452    0.2756 H   0  0  0  0  0  0  0  0  0  0  0  0
    0.1273    2.0089    0.9828 H   0  0  0  0  0  0  0  0  0  0  0  0
   -0.5042   -0.4651    2.0108 H   0  0  0  0  0  0  0  0  0  0  0  0
    0.7618    1.6667   -1.5142 H   0  0  0  0  0  0  0  0  0  0  0  0
  1  2  1  0
  2  3  1  0
  3  4  1  0
  4  5  1  0
  5  6  1  0
  6  7  1  0
  7  8  1  0
  7  9  1  0
  8  1  1  0
  9  3  1  0
  8  4  1  0
  9  6  1  0
  1 10  1  0
  1 11  1  0
  3 12  1  0
  4 13  1  0
  6 14  1  0
  7 15  1  0
  8 16  1  0
  9 17  1  0
M  END
