
     RDKit          3D

 16 18  0  0  0  0  0  0  0  0999 V2000
    2.0438   -0.1461    0.7043 C   0  0  0  0  0  0  0  0  0  0  0  0
    1.9688   -0.5984   -0.6420 O   0  0  0  0  0  0  0  0  0  0  0  0
    0.6459   -0.8357   -0.2871 C   0  0  0  0  0  0  0  0  0  0  0  0
    0.8014    0.6425    0.2588 C   0  0  0  0  0  0  0  0  0  0  0  0
   -0.4392    0.0569   -0.1778 C   0  0  0  0  0  0  0  0  0  0  0  0
   -1.3125    0.5825   -1.2506 C   0  0  0  0  0  0  0  0  0  0  0  0
   -2.4161    0.3727   -0.3892 O   0  0  0  0  0  0  0  0  0  0  0  0
   -1.6330   -0.1880    0.6487 C   0  0  0  0  0  0  0  0  0  0  0  0
    2.9101    0.5081    0.8901 H   0  0  0  0  0  0  0  0  0  0  0  0
    1.8151   -0.8895    1.4643 H   0  0  0  0  0  0  0  0  0  0  0  0
    0.6511   -1.6276    0.5280 H   0  0  0  0  0  0  0  0  0  0  0  0
    1.1765    1.3768   -0.5253 H   0  0  0  0  0  0  0  0  0  0  0  0
   -1.1954    1.6521   -1.4374 H   0  0  0  0  0  0  0  0  0  0  0  0
   -1.3717    0.0028   -2.1902 H   0  0  0  0  0  0  0  0  0  0  0  0
   -1.7097    0.3440    1.6109 H   0  0  0  0  0  0  0  0  0  0  0  0
   -1.9351   -1.2532    0.7606 H   0  0  0  0  0  0  0  0  0  0  0  0
  1  2  1  0
  2  3  1  0
  3  4  1  0
  4  5  1  0
  5  6  1  0
  6  7  1  0
  7  8  1  0
  4  1  1  0
  8  5  1  0
  5  3  1  0
  1  9  1  0
  1 10  1  0
  3 11  1  0
  4 12  1  0
  6 13  1  0
  6 14  1  0
  8 15  1  0
  8 16  1  0
M  END
