
     RDKit          3D

 19 21  0  0  0  0  0  0  0  0999 V2000
    1.7015   -0.9148    0.0460 C   0  0  0  0  0  0  0  0  0  0  0  0
    1.2511   -0.3358    1.2152 O   0  0  0  0  0  0  0  0  0  0  0  0
    1.0258    0.8620    0.5358 C   0  0  0  0  0  0  0  0  0  0  0  0
   -0.4424    1.2305    0.6507 C   0  0  0  0  0  0  0  0  0  0  0  0
   -1.0729    0.0214   -0.0248 C   0  0  0  0  0  0  0  0  0  0  0  0
   -2.1991   -0.5754    0.4474 C   0  0  0  0  0  0  0  0  0  0  0  0
   -0.8973   -1.1914    0.8216 O   0  0  0  0  0  0  0  0  0  0  0  0
   -0.2815   -0.1193   -1.2540 C   0  0  0  0  0  0  0  0  0  0  0  0
    1.1325    0.2029   -0.7973 C   0  0  0  0  0  0  0  0  0  0  0  0
    1.2407   -1.8965   -0.2120 H   0  0  0  0  0  0  0  0  0  0  0  0
    2.8058   -0.9832    0.0353 H   0  0  0  0  0  0  0  0  0  0  0  0
    1.7346    1.6731    0.7628 H   0  0  0  0  0  0  0  0  0  0  0  0
   -0.6610    2.0957    0.0267 H   0  0  0  0  0  0  0  0  0  0  0  0
   -0.7676    1.3338    1.7009 H   0  0  0  0  0  0  0  0  0  0  0  0
   -2.8253   -1.2969   -0.1184 H   0  0  0  0  0  0  0  0  0  0  0  0
   -2.6795   -0.2586    1.3956 H   0  0  0  0  0  0  0  0  0  0  0  0
   -0.5846    0.6509   -1.9963 H   0  0  0  0  0  0  0  0  0  0  0  0
   -0.2706   -1.1415   -1.6970 H   0  0  0  0  0  0  0  0  0  0  0  0
    1.7899    0.6431   -1.5383 H   0  0  0  0  0  0  0  0  0  0  0  0
  1  2  1  0
  2  3  1  0
  3  4  1  0
  4  5  1  0
  5  6  1  0
  6  7  1  0
  5  8  1  0
  8  9  1  0
  9  1  1  0
  9  3  1  0
  7  5  1  0
  1 10  1  0
  1 11  1  0
  3 12  1  0
  4 13  1  0
  4 14  1  0
  6 15  1  0
  6 16  1  0
  8 17  1  0
  8 18  1  0
  9 19  1  0
M  END
