
     RDKit          3D

 17 19  0  0  0  0  0  0  0  0999 V2000
   -0.8555   -0.8771    0.7737 C   0  0  0  0  0  0  0  0  0  0  0  0
   -0.4048    0.1155    1.6509 O   0  0  0  0  0  0  0  0  0  0  0  0
    0.5318    0.8924    0.9800 C   0  0  0  0  0  0  0  0  0  0  0  0
   -0.1475    1.7001    0.0937 O   0  0  0  0  0  0  0  0  0  0  0  0
   -0.9689    0.9977   -0.7726 C   0  0  0  0  0  0  0  0  0  0  0  0
   -0.5854   -0.4652   -0.6803 C   0  0  0  0  0  0  0  0  0  0  0  0
    0.8892   -0.6780   -0.8977 C   0  0  0  0  0  0  0  0  0  0  0  0
    1.7467    0.3688   -1.0693 O   0  0  0  0  0  0  0  0  0  0  0  0
    1.5705    0.0614    0.2612 C   0  0  0  0  0  0  0  0  0  0  0  0
   -1.9327   -0.9732    0.8846 H   0  0  0  0  0  0  0  0  0  0  0  0
   -0.2811   -1.7960    1.0376 H   0  0  0  0  0  0  0  0  0  0  0  0
    1.0763    1.5643    1.6831 H   0  0  0  0  0  0  0  0  0  0  0  0
   -2.0377    1.0499   -0.4140 H   0  0  0  0  0  0  0  0  0  0  0  0
   -0.9344    1.3587   -1.8062 H   0  0  0  0  0  0  0  0  0  0  0  0
   -1.1693   -1.0960   -1.3540 H   0  0  0  0  0  0  0  0  0  0  0  0
    1.2493   -1.6591   -1.1920 H   0  0  0  0  0  0  0  0  0  0  0  0
    2.2535   -0.5641    0.8212 H   0  0  0  0  0  0  0  0  0  0  0  0
  1  2  1  0
  2  3  1  0
  3  4  1  0
  4  5  1  0
  5  6  1  0
  6  7  1  0
  7  8  1  0
  8  9  1  0
  6  1  1  0
  9  7  1  0
  9  3  1  0
  1 10  1  0
  1 11  1  0
  3 12  1  0
  5 13  1  0
  5 14  1  0
  6 15  1  0
  7 16  1  0
  9 17  1  0
M  END
