
     RDKit          3D

 19 21  0  0  0  0  0  0  0  0999 V2000
    1.4977   -0.7288   -0.7929 C   0  0  0  0  0  0  0  0  0  0  0  0
    2.1489   -0.2692    0.3343 O   0  0  0  0  0  0  0  0  0  0  0  0
    1.2689    0.3036    1.2493 C   0  0  0  0  0  0  0  0  0  0  0  0
    0.2171    1.1629    0.5347 C   0  0  0  0  0  0  0  0  0  0  0  0
    0.8292    1.5465   -0.6800 O   0  0  0  0  0  0  0  0  0  0  0  0
    0.4400    0.2740   -1.1649 C   0  0  0  0  0  0  0  0  0  0  0  0
   -0.6516    0.2574   -0.2163 C   0  0  0  0  0  0  0  0  0  0  0  0
   -1.3152   -0.8446    0.4315 C   0  0  0  0  0  0  0  0  0  0  0  0
   -2.0553    0.2251   -0.3920 C   0  0  0  0  0  0  0  0  0  0  0  0
    1.0003   -1.7190   -0.6380 H   0  0  0  0  0  0  0  0  0  0  0  0
    2.2204   -0.8733   -1.6104 H   0  0  0  0  0  0  0  0  0  0  0  0
    1.7961    0.8524    2.0268 H   0  0  0  0  0  0  0  0  0  0  0  0
    0.6931   -0.5566    1.6940 H   0  0  0  0  0  0  0  0  0  0  0  0
   -0.1928    1.9707    1.1295 H   0  0  0  0  0  0  0  0  0  0  0  0
    0.1746    0.3474   -2.2245 H   0  0  0  0  0  0  0  0  0  0  0  0
   -1.5286   -0.7587    1.5200 H   0  0  0  0  0  0  0  0  0  0  0  0
   -1.2933   -1.8751    0.0370 H   0  0  0  0  0  0  0  0  0  0  0  0
   -2.7754    0.8729    0.1185 H   0  0  0  0  0  0  0  0  0  0  0  0
   -2.4740   -0.1877   -1.3565 H   0  0  0  0  0  0  0  0  0  0  0  0
  1  2  1  0
  2  3  1  0
  3  4  1  0
  4  5  1  0
  5  6  1  0
  6  7  1  0
  7  8  1  0
  8  9  1  0
  6  1  1  0
  9  7  1  0
  7  4  1  0
  1 10  1  0
  1 11  1  0
  3 12  1  0
  3 13  1  0
  4 14  1  0
  6 15  1  0
  8 16  1  0
  8 17  1  0
  9 18  1  0
  9 19  1  0
M  END
