
     RDKit          3D

 21 22  0  0  0  0  0  0  0  0999 V2000
    3.5697    0.8102   -0.1784 C   0  0  0  0  0  0  0  0  0  0  0  0
    2.2835    0.1319   -0.0100 C   0  0  0  0  0  0  0  0  0  0  0  0
    1.2391   -0.4187    0.1477 C   0  0  0  0  0  0  0  0  0  0  0  0
   -0.0498   -1.0702    0.3466 C   0  0  0  0  0  0  0  0  0  0  0  0
   -0.8100   -1.3442   -0.9096 C   0  0  0  0  0  0  0  0  0  0  0  0
   -1.9781   -0.5340   -0.4324 C   0  0  0  0  0  0  0  0  0  0  0  0
   -2.4388   -0.5948    0.9769 C   0  0  0  0  0  0  0  0  0  0  0  0
   -1.0952   -0.0729    0.7389 C   0  0  0  0  0  0  0  0  0  0  0  0
   -0.7655    1.3919    0.7785 C   0  0  0  0  0  0  0  0  0  0  0  0
    4.0992    0.9488    0.7845 H   0  0  0  0  0  0  0  0  0  0  0  0
    4.2015    0.2389   -0.9171 H   0  0  0  0  0  0  0  0  0  0  0  0
    3.3542    1.8077   -0.6124 H   0  0  0  0  0  0  0  0  0  0  0  0
   -0.0500   -1.9539    1.0089 H   0  0  0  0  0  0  0  0  0  0  0  0
   -0.3306   -0.8971   -1.8043 H   0  0  0  0  0  0  0  0  0  0  0  0
   -1.0732   -2.4206   -1.0638 H   0  0  0  0  0  0  0  0  0  0  0  0
   -2.3970    0.2525   -1.0875 H   0  0  0  0  0  0  0  0  0  0  0  0
   -2.4962   -1.5759    1.5152 H   0  0  0  0  0  0  0  0  0  0  0  0
   -3.2212    0.1057    1.2602 H   0  0  0  0  0  0  0  0  0  0  0  0
    0.2299    1.5306    0.3344 H   0  0  0  0  0  0  0  0  0  0  0  0
   -0.7130    1.7164    1.8468 H   0  0  0  0  0  0  0  0  0  0  0  0
   -1.5586    1.9476    0.2670 H   0  0  0  0  0  0  0  0  0  0  0  0
  1  2  1  0
  2  3  3  0
  3  4  1  0
  4  5  1  0
  5  6  1  0
  6  7  1  0
  7  8  1  0
  8  9  1  0
  8  4  1  0
  8  6  1  0
  1 10  1  0
  1 11  1  0
  1 12  1  0
  4 13  1  0
  5 14  1  0
  5 15  1  0
  6 16  1  0
  7 17  1  0
  7 18  1  0
  9 19  1  0
  9 20  1  0
  9 21  1  0
M  END
