
     RDKit          3D

 21 21  0  0  0  0  0  0  0  0999 V2000
    2.5741    2.2468   -0.9085 C   0  0  0  0  0  0  0  0  0  0  0  0
    1.4613    1.3403   -0.3525 C   0  0  0  0  0  0  0  0  0  0  0  0
    0.5425    0.5943    0.0824 C   0  0  0  0  0  0  0  0  0  0  0  0
   -0.5131   -0.2556    0.5549 C   0  0  0  0  0  0  0  0  0  0  0  0
   -0.6738   -1.4975   -0.3333 C   0  0  0  0  0  0  0  0  0  0  0  0
   -0.9475   -1.0421   -1.7540 C   0  0  0  0  0  0  0  0  0  0  0  0
   -1.6256    0.3440    1.2270 C   0  0  0  0  0  0  0  0  0  0  0  0
   -0.9696    0.2104    2.4842 O   0  0  0  0  0  0  0  0  0  0  0  0
   -0.2162   -0.7826    1.9920 C   0  0  0  0  0  0  0  0  0  0  0  0
    3.2567    1.5449   -1.4592 H   0  0  0  0  0  0  0  0  0  0  0  0
    3.1628    2.6244   -0.0541 H   0  0  0  0  0  0  0  0  0  0  0  0
    2.1236    3.0291   -1.4619 H   0  0  0  0  0  0  0  0  0  0  0  0
    0.3000   -2.0205   -0.3265 H   0  0  0  0  0  0  0  0  0  0  0  0
   -1.4830   -2.1676    0.0051 H   0  0  0  0  0  0  0  0  0  0  0  0
   -1.5858   -1.7898   -2.2703 H   0  0  0  0  0  0  0  0  0  0  0  0
    0.0497   -1.0145   -2.2613 H   0  0  0  0  0  0  0  0  0  0  0  0
   -1.3953   -0.0318   -1.7670 H   0  0  0  0  0  0  0  0  0  0  0  0
   -1.8264    1.4553    1.1231 H   0  0  0  0  0  0  0  0  0  0  0  0
   -2.5873   -0.2370    1.3112 H   0  0  0  0  0  0  0  0  0  0  0  0
   -0.5445   -1.8214    2.0715 H   0  0  0  0  0  0  0  0  0  0  0  0
    0.8973   -0.7290    2.0973 H   0  0  0  0  0  0  0  0  0  0  0  0
  1  2  1  0
  2  3  3  0
  3  4  1  0
  4  5  1  0
  5  6  1  0
  4  7  1  0
  7  8  1  0
  8  9  1  0
  9  4  1  0
  1 10  1  0
  1 11  1  0
  1 12  1  0
  5 13  1  0
  5 14  1  0
  6 15  1  0
  6 16  1  0
  6 17  1  0
  7 18  1  0
  7 19  1  0
  9 20  1  0
  9 21  1  0
M  END
