
     RDKit          3D

 19 20  0  0  0  0  0  0  0  0999 V2000
    3.6772   -0.4985    2.4016 C   0  0  0  0  0  0  0  0  0  0  0  0
    2.6194   -0.0973    1.4724 C   0  0  0  0  0  0  0  0  0  0  0  0
    1.7574    0.2407    0.6879 C   0  0  0  0  0  0  0  0  0  0  0  0
    0.7142    0.6540   -0.2522 C   0  0  0  0  0  0  0  0  0  0  0  0
   -0.1896    1.7084    0.3362 O   0  0  0  0  0  0  0  0  0  0  0  0
   -0.6680    0.3696   -0.0644 C   0  0  0  0  0  0  0  0  0  0  0  0
   -1.6057    0.5310   -1.2443 C   0  0  0  0  0  0  0  0  0  0  0  0
   -3.0681    0.2339   -1.0536 C   0  0  0  0  0  0  0  0  0  0  0  0
   -2.2315   -0.7016   -1.8379 C   0  0  0  0  0  0  0  0  0  0  0  0
    3.5842   -1.5791    2.5875 H   0  0  0  0  0  0  0  0  0  0  0  0
    4.6796   -0.2098    2.0125 H   0  0  0  0  0  0  0  0  0  0  0  0
    3.5864    0.0360    3.3870 H   0  0  0  0  0  0  0  0  0  0  0  0
    1.0801    0.9652   -1.2529 H   0  0  0  0  0  0  0  0  0  0  0  0
   -1.0514   -0.2235    0.7911 H   0  0  0  0  0  0  0  0  0  0  0  0
   -1.3790    1.3426   -1.9650 H   0  0  0  0  0  0  0  0  0  0  0  0
   -3.8227    0.8414   -1.5948 H   0  0  0  0  0  0  0  0  0  0  0  0
   -3.4352   -0.1351   -0.0739 H   0  0  0  0  0  0  0  0  0  0  0  0
   -1.9666   -1.6961   -1.3935 H   0  0  0  0  0  0  0  0  0  0  0  0
   -2.2807   -0.7540   -2.9438 H   0  0  0  0  0  0  0  0  0  0  0  0
  1  2  1  0
  2  3  3  0
  3  4  1  0
  4  5  1  0
  5  6  1  0
  6  7  1  0
  7  8  1  0
  8  9  1  0
  6  4  1  0
  9  7  1  0
  1 10  1  0
  1 11  1  0
  1 12  1  0
  4 13  1  0
  6 14  1  0
  7 15  1  0
  8 16  1  0
  8 17  1  0
  9 18  1  0
  9 19  1  0
M  END
