
     RDKit          3D

 18 17  0  0  0  0  0  0  0  0999 V2000
    3.4839   -0.9058    0.2379 C   0  0  0  0  0  0  0  0  0  0  0  0
    2.2503   -0.2053    0.0821 C   0  0  0  0  0  0  0  0  0  0  0  0
    1.1409    0.4116   -0.0756 C   0  0  0  0  0  0  0  0  0  0  0  0
   -0.1215    1.1400   -0.2447 C   0  0  0  0  0  0  0  0  0  0  0  0
   -0.2894    1.9937    0.9769 C   0  0  0  0  0  0  0  0  0  0  0  0
   -1.2068    0.2026   -0.4574 C   0  0  0  0  0  0  0  0  0  0  0  0
   -2.1142   -0.5992   -0.6204 C   0  0  0  0  0  0  0  0  0  0  0  0
   -3.2018   -1.5778   -0.8399 C   0  0  0  0  0  0  0  0  0  0  0  0
    4.3542   -0.3881   -0.2537 H   0  0  0  0  0  0  0  0  0  0  0  0
    3.6870   -1.0160    1.3202 H   0  0  0  0  0  0  0  0  0  0  0  0
    3.4679   -1.9295   -0.2486 H   0  0  0  0  0  0  0  0  0  0  0  0
   -0.0851    1.8164   -1.1187 H   0  0  0  0  0  0  0  0  0  0  0  0
   -1.0554    2.7771    0.7405 H   0  0  0  0  0  0  0  0  0  0  0  0
    0.7015    2.4282    1.2584 H   0  0  0  0  0  0  0  0  0  0  0  0
   -0.5891    1.3811    1.8633 H   0  0  0  0  0  0  0  0  0  0  0  0
   -3.2993   -1.8038   -1.9249 H   0  0  0  0  0  0  0  0  0  0  0  0
   -4.1559   -1.2160   -0.4401 H   0  0  0  0  0  0  0  0  0  0  0  0
   -2.9673   -2.5093   -0.2551 H   0  0  0  0  0  0  0  0  0  0  0  0
  1  2  1  0
  2  3  3  0
  3  4  1  0
  4  5  1  0
  4  6  1  0
  6  7  3  0
  7  8  1  0
  1  9  1  0
  1 10  1  0
  1 11  1  0
  4 12  1  0
  5 13  1  0
  5 14  1  0
  5 15  1  0
  8 16  1  0
  8 17  1  0
  8 18  1  0
M  END
