
     RDKit          3D

 19 18  0  0  0  0  0  0  0  0999 V2000
    4.0734   -2.0156    0.9497 C   0  0  0  0  0  0  0  0  0  0  0  0
    2.7927   -1.5051    0.3580 C   0  0  0  0  0  0  0  0  0  0  0  0
    1.7788   -1.0879   -0.1002 C   0  0  0  0  0  0  0  0  0  0  0  0
    0.5226   -0.5921   -0.6827 C   0  0  0  0  0  0  0  0  0  0  0  0
    0.1509   -0.8115   -1.8235 O   0  0  0  0  0  0  0  0  0  0  0  0
   -0.3115    0.2374    0.2394 C   0  0  0  0  0  0  0  0  0  0  0  0
   -1.5163    0.7112   -0.5814 C   0  0  0  0  0  0  0  0  0  0  0  0
   -2.3469    1.4045    0.2760 O   0  0  0  0  0  0  0  0  0  0  0  0
   -3.4777    1.9012   -0.3486 C   0  0  0  0  0  0  0  0  0  0  0  0
    4.8006   -1.9963    0.1192 H   0  0  0  0  0  0  0  0  0  0  0  0
    4.3604   -1.4410    1.8407 H   0  0  0  0  0  0  0  0  0  0  0  0
    3.8775   -3.0721    1.3084 H   0  0  0  0  0  0  0  0  0  0  0  0
   -0.6108   -0.2545    1.1574 H   0  0  0  0  0  0  0  0  0  0  0  0
    0.3194    1.1683    0.4043 H   0  0  0  0  0  0  0  0  0  0  0  0
   -2.0118   -0.0871   -1.1411 H   0  0  0  0  0  0  0  0  0  0  0  0
   -1.1525    1.4331   -1.3764 H   0  0  0  0  0  0  0  0  0  0  0  0
   -3.1685    2.6403   -1.1371 H   0  0  0  0  0  0  0  0  0  0  0  0
   -3.9541    1.0683   -0.9295 H   0  0  0  0  0  0  0  0  0  0  0  0
   -4.1262    2.2990    0.4242 H   0  0  0  0  0  0  0  0  0  0  0  0
  1  2  1  0
  2  3  3  0
  3  4  1  0
  4  5  2  0
  4  6  1  0
  6  7  1  0
  7  8  1  0
  8  9  1  0
  1 10  1  0
  1 11  1  0
  1 12  1  0
  6 13  1  0
  6 14  1  0
  7 15  1  0
  7 16  1  0
  9 17  1  0
  9 18  1  0
  9 19  1  0
M  END
