
     RDKit          3D

 19 20  0  0  0  0  0  0  0  0999 V2000
    3.3392   -0.0659   -1.0440 C   0  0  0  0  0  0  0  0  0  0  0  0
    2.0328   -0.3166   -0.4289 C   0  0  0  0  0  0  0  0  0  0  0  0
    0.9653   -0.5133    0.0750 C   0  0  0  0  0  0  0  0  0  0  0  0
   -0.3349   -0.7575    0.7109 C   0  0  0  0  0  0  0  0  0  0  0  0
   -1.4191   -0.7264   -0.3278 C   0  0  0  0  0  0  0  0  0  0  0  0
   -1.0562   -0.2346   -1.5716 O   0  0  0  0  0  0  0  0  0  0  0  0
   -2.1341    0.3131    0.5060 C   0  0  0  0  0  0  0  0  0  0  0  0
   -1.4357    1.5983    0.7137 C   0  0  0  0  0  0  0  0  0  0  0  0
   -0.9433    0.4040    1.4182 C   0  0  0  0  0  0  0  0  0  0  0  0
    3.2938    0.0347   -2.1352 H   0  0  0  0  0  0  0  0  0  0  0  0
    3.8073    0.8284   -0.5520 H   0  0  0  0  0  0  0  0  0  0  0  0
    4.0460   -0.9200   -0.8362 H   0  0  0  0  0  0  0  0  0  0  0  0
   -0.3581   -1.6966    1.3312 H   0  0  0  0  0  0  0  0  0  0  0  0
   -2.0010   -1.6748   -0.3848 H   0  0  0  0  0  0  0  0  0  0  0  0
   -0.7867   -0.9909   -2.1285 H   0  0  0  0  0  0  0  0  0  0  0  0
   -3.1000    0.0711    0.9819 H   0  0  0  0  0  0  0  0  0  0  0  0
   -0.8766    2.0041   -0.1709 H   0  0  0  0  0  0  0  0  0  0  0  0
   -1.9711    2.3408    1.3297 H   0  0  0  0  0  0  0  0  0  0  0  0
   -1.0677    0.3021    2.5133 H   0  0  0  0  0  0  0  0  0  0  0  0
  1  2  1  0
  2  3  3  0
  3  4  1  0
  4  5  1  0
  5  6  1  0
  5  7  1  0
  7  8  1  0
  8  9  1  0
  9  4  1  0
  9  7  1  0
  1 10  1  0
  1 11  1  0
  1 12  1  0
  4 13  1  0
  5 14  1  0
  6 15  1  0
  7 16  1  0
  8 17  1  0
  8 18  1  0
  9 19  1  0
M  END
