
     RDKit          3D

 18 18  0  0  0  0  0  0  0  0999 V2000
    2.0619    2.7403    1.2213 C   0  0  0  0  0  0  0  0  0  0  0  0
    1.2134    1.8970    0.4954 C   0  0  0  0  0  0  0  0  0  0  0  0
    0.4512    1.1104   -0.1791 C   0  0  0  0  0  0  0  0  0  0  0  0
   -0.4327    0.2236   -0.9287 C   0  0  0  0  0  0  0  0  0  0  0  0
   -1.6929   -0.1316   -0.2171 C   0  0  0  0  0  0  0  0  0  0  0  0
   -0.5752   -1.1487   -0.4034 C   0  0  0  0  0  0  0  0  0  0  0  0
   -0.9367   -2.3004   -1.2852 C   0  0  0  0  0  0  0  0  0  0  0  0
    0.1665   -1.4961    0.7445 O   0  0  0  0  0  0  0  0  0  0  0  0
    3.0888    2.7024    0.7870 H   0  0  0  0  0  0  0  0  0  0  0  0
    1.7699    3.8372    1.1817 H   0  0  0  0  0  0  0  0  0  0  0  0
    2.2008    2.4561    2.2904 H   0  0  0  0  0  0  0  0  0  0  0  0
   -0.5077    0.4400   -2.0127 H   0  0  0  0  0  0  0  0  0  0  0  0
   -1.8683    0.1502    0.8288 H   0  0  0  0  0  0  0  0  0  0  0  0
   -2.6159   -0.2469   -0.8516 H   0  0  0  0  0  0  0  0  0  0  0  0
   -1.9579   -2.7130   -1.1170 H   0  0  0  0  0  0  0  0  0  0  0  0
   -0.7903   -2.0600   -2.3770 H   0  0  0  0  0  0  0  0  0  0  0  0
   -0.2458   -3.1448   -1.0535 H   0  0  0  0  0  0  0  0  0  0  0  0
    0.6709   -2.3158    0.5560 H   0  0  0  0  0  0  0  0  0  0  0  0
  1  2  1  0
  2  3  3  0
  3  4  1  0
  4  5  1  0
  5  6  1  0
  6  7  1  0
  6  8  1  0
  6  4  1  0
  1  9  1  0
  1 10  1  0
  1 11  1  0
  4 12  1  0
  5 13  1  0
  5 14  1  0
  7 15  1  0
  7 16  1  0
  7 17  1  0
  8 18  1  0
M  END
