
     RDKit          3D

 23 22  0  0  0  0  0  0  0  0999 V2000
    3.2832   -2.8784    0.2460 C   0  0  0  0  0  0  0  0  0  0  0  0
    2.7458   -1.5259    0.0370 C   0  0  0  0  0  0  0  0  0  0  0  0
    2.3177   -0.3914   -0.1359 C   0  0  0  0  0  0  0  0  0  0  0  0
    1.7880    0.9560   -0.3264 C   0  0  0  0  0  0  0  0  0  0  0  0
    0.3113    0.8186   -0.6317 C   0  0  0  0  0  0  0  0  0  0  0  0
   -0.3449    0.1316    0.5456 C   0  0  0  0  0  0  0  0  0  0  0  0
   -1.8348   -0.0295    0.2846 C   0  0  0  0  0  0  0  0  0  0  0  0
   -2.3925    1.2323    0.1058 O   0  0  0  0  0  0  0  0  0  0  0  0
   -3.7763    1.1324   -0.1393 C   0  0  0  0  0  0  0  0  0  0  0  0
    3.4622   -3.4015   -0.7102 H   0  0  0  0  0  0  0  0  0  0  0  0
    4.2975   -2.8249    0.7388 H   0  0  0  0  0  0  0  0  0  0  0  0
    2.6288   -3.4115    0.9369 H   0  0  0  0  0  0  0  0  0  0  0  0
    2.3186    1.4939   -1.1548 H   0  0  0  0  0  0  0  0  0  0  0  0
    1.9558    1.5694    0.5817 H   0  0  0  0  0  0  0  0  0  0  0  0
   -0.1182    1.8472   -0.6817 H   0  0  0  0  0  0  0  0  0  0  0  0
    0.1151    0.3156   -1.5758 H   0  0  0  0  0  0  0  0  0  0  0  0
   -0.1539    0.7064    1.4671 H   0  0  0  0  0  0  0  0  0  0  0  0
    0.0505   -0.9109    0.6608 H   0  0  0  0  0  0  0  0  0  0  0  0
   -2.3447   -0.5149    1.1221 H   0  0  0  0  0  0  0  0  0  0  0  0
   -1.9699   -0.5952   -0.6557 H   0  0  0  0  0  0  0  0  0  0  0  0
   -3.8574    0.5132   -1.0752 H   0  0  0  0  0  0  0  0  0  0  0  0
   -4.2248    2.1079   -0.3196 H   0  0  0  0  0  0  0  0  0  0  0  0
   -4.2571    0.5566    0.6799 H   0  0  0  0  0  0  0  0  0  0  0  0
  1  2  1  0
  2  3  3  0
  3  4  1  0
  4  5  1  0
  5  6  1  0
  6  7  1  0
  7  8  1  0
  8  9  1  0
  1 10  1  0
  1 11  1  0
  1 12  1  0
  4 13  1  0
  4 14  1  0
  5 15  1  0
  5 16  1  0
  6 17  1  0
  6 18  1  0
  7 19  1  0
  7 20  1  0
  9 21  1  0
  9 22  1  0
  9 23  1  0
M  END
