
     RDKit          3D

 15 15  0  0  0  0  0  0  0  0999 V2000
    2.8194    0.9692    0.8264 C   0  0  0  0  0  0  0  0  0  0  0  0
    1.4205    0.5410    0.6628 C   0  0  0  0  0  0  0  0  0  0  0  0
    0.2616    0.1891    0.5486 C   0  0  0  0  0  0  0  0  0  0  0  0
   -1.1346   -0.2137    0.4270 C   0  0  0  0  0  0  0  0  0  0  0  0
   -1.7295    0.2984   -0.8608 C   0  0  0  0  0  0  0  0  0  0  0  0
   -1.1005   -0.7596   -1.5162 O   0  0  0  0  0  0  0  0  0  0  0  0
   -1.2761   -1.5015   -0.3491 C   0  0  0  0  0  0  0  0  0  0  0  0
    3.3860    0.2587    1.4616 H   0  0  0  0  0  0  0  0  0  0  0  0
    3.2532    0.9869   -0.1936 H   0  0  0  0  0  0  0  0  0  0  0  0
    2.8563    2.0035    1.2034 H   0  0  0  0  0  0  0  0  0  0  0  0
   -1.7532   -0.1189    1.3263 H   0  0  0  0  0  0  0  0  0  0  0  0
   -1.3907    1.3117   -1.1611 H   0  0  0  0  0  0  0  0  0  0  0  0
   -2.8374    0.1520   -0.9294 H   0  0  0  0  0  0  0  0  0  0  0  0
   -2.3103   -1.8974   -0.1974 H   0  0  0  0  0  0  0  0  0  0  0  0
   -0.4648   -2.2194   -0.1218 H   0  0  0  0  0  0  0  0  0  0  0  0
  1  2  1  0
  2  3  3  0
  3  4  1  0
  4  5  1  0
  5  6  1  0
  6  7  1  0
  7  4  1  0
  1  8  1  0
  1  9  1  0
  1 10  1  0
  4 11  1  0
  5 12  1  0
  5 13  1  0
  7 14  1  0
  7 15  1  0
M  END
