
     RDKit          3D

 23 23  0  0  0  0  0  0  0  0999 V2000
    3.7338    0.7301    0.6910 C   0  0  0  0  0  0  0  0  0  0  0  0
    2.3864    0.2224    0.3698 C   0  0  0  0  0  0  0  0  0  0  0  0
    1.2800   -0.1838    0.0887 C   0  0  0  0  0  0  0  0  0  0  0  0
   -0.0585   -0.6630   -0.2738 C   0  0  0  0  0  0  0  0  0  0  0  0
   -0.1203   -1.4120   -1.5622 C   0  0  0  0  0  0  0  0  0  0  0  0
   -0.9373   -1.0873    0.8945 C   0  0  0  0  0  0  0  0  0  0  0  0
   -1.2161    0.1597    0.1117 C   0  0  0  0  0  0  0  0  0  0  0  0
   -0.9282    1.5067    0.6779 C   0  0  0  0  0  0  0  0  0  0  0  0
   -2.5303    0.0776   -0.6350 C   0  0  0  0  0  0  0  0  0  0  0  0
    4.5062    0.2400    0.0863 H   0  0  0  0  0  0  0  0  0  0  0  0
    3.9957    0.4959    1.7649 H   0  0  0  0  0  0  0  0  0  0  0  0
    3.7268    1.8334    0.6165 H   0  0  0  0  0  0  0  0  0  0  0  0
   -0.7754   -0.8027   -2.2513 H   0  0  0  0  0  0  0  0  0  0  0  0
   -0.5689   -2.4003   -1.5065 H   0  0  0  0  0  0  0  0  0  0  0  0
    0.8683   -1.5151   -2.0475 H   0  0  0  0  0  0  0  0  0  0  0  0
   -0.5158   -0.9106    1.9166 H   0  0  0  0  0  0  0  0  0  0  0  0
   -1.5597   -1.9814    0.7989 H   0  0  0  0  0  0  0  0  0  0  0  0
   -1.2887    1.5262    1.7321 H   0  0  0  0  0  0  0  0  0  0  0  0
    0.1649    1.7433    0.7262 H   0  0  0  0  0  0  0  0  0  0  0  0
   -1.4565    2.2871    0.1095 H   0  0  0  0  0  0  0  0  0  0  0  0
   -3.3383    0.0772    0.1452 H   0  0  0  0  0  0  0  0  0  0  0  0
   -2.6520   -0.8855   -1.1717 H   0  0  0  0  0  0  0  0  0  0  0  0
   -2.7160    0.9422   -1.2819 H   0  0  0  0  0  0  0  0  0  0  0  0
  1  2  1  0
  2  3  3  0
  3  4  1  0
  4  5  1  0
  4  6  1  0
  6  7  1  0
  7  8  1  0
  7  9  1  0
  7  4  1  0
  1 10  1  0
  1 11  1  0
  1 12  1  0
  5 13  1  0
  5 14  1  0
  5 15  1  0
  6 16  1  0
  6 17  1  0
  8 18  1  0
  8 19  1  0
  8 20  1  0
  9 21  1  0
  9 22  1  0
  9 23  1  0
M  END
