
     RDKit          3D

 17 17  0  0  0  0  0  0  0  0999 V2000
    2.2205    1.7022   -2.8775 C   0  0  0  0  0  0  0  0  0  0  0  0
    1.3673    1.0855   -1.8607 C   0  0  0  0  0  0  0  0  0  0  0  0
    0.6733    0.5648   -1.0024 C   0  0  0  0  0  0  0  0  0  0  0  0
   -0.1625   -0.0308    0.0140 C   0  0  0  0  0  0  0  0  0  0  0  0
   -0.0732    0.1366    1.3111 C   0  0  0  0  0  0  0  0  0  0  0  0
   -1.1124   -0.6458    2.0174 C   0  0  0  0  0  0  0  0  0  0  0  0
   -1.5940   -1.6473    0.9880 C   0  0  0  0  0  0  0  0  0  0  0  0
   -1.2601   -0.9270   -0.2731 C   0  0  0  0  0  0  0  0  0  0  0  0
   -1.8769   -1.1230   -1.3609 O   0  0  0  0  0  0  0  0  0  0  0  0
    3.2211    1.8222   -2.4238 H   0  0  0  0  0  0  0  0  0  0  0  0
    1.8673    2.7167   -3.1560 H   0  0  0  0  0  0  0  0  0  0  0  0
    2.2315    1.1112   -3.8068 H   0  0  0  0  0  0  0  0  0  0  0  0
    0.6469    0.7564    1.8673 H   0  0  0  0  0  0  0  0  0  0  0  0
   -0.6146   -1.1435    2.8821 H   0  0  0  0  0  0  0  0  0  0  0  0
   -1.9232   -0.0198    2.4177 H   0  0  0  0  0  0  0  0  0  0  0  0
   -0.9476   -2.5311    1.0498 H   0  0  0  0  0  0  0  0  0  0  0  0
   -2.6635   -1.8275    1.0262 H   0  0  0  0  0  0  0  0  0  0  0  0
  1  2  1  0
  2  3  3  0
  3  4  1  0
  4  5  2  0
  5  6  1  0
  6  7  1  0
  7  8  1  0
  8  9  2  0
  8  4  1  0
  1 10  1  0
  1 11  1  0
  1 12  1  0
  5 13  1  0
  6 14  1  0
  6 15  1  0
  7 16  1  0
  7 17  1  0
M  END
