
     RDKit          3D

 21 22  0  0  0  0  0  0  0  0999 V2000
    3.6930   -1.1134   -0.9305 C   0  0  0  0  0  0  0  0  0  0  0  0
    2.5746   -0.2983   -0.4365 C   0  0  0  0  0  0  0  0  0  0  0  0
    1.6366    0.3717   -0.0440 C   0  0  0  0  0  0  0  0  0  0  0  0
    0.5116    1.1874    0.4428 C   0  0  0  0  0  0  0  0  0  0  0  0
   -0.6313    0.2919    0.7888 C   0  0  0  0  0  0  0  0  0  0  0  0
   -1.2140   -0.5668   -0.2716 C   0  0  0  0  0  0  0  0  0  0  0  0
   -2.4007   -0.6736    0.6552 C   0  0  0  0  0  0  0  0  0  0  0  0
   -2.0144    0.8041    0.6835 C   0  0  0  0  0  0  0  0  0  0  0  0
   -1.8961    0.6583   -0.7929 C   0  0  0  0  0  0  0  0  0  0  0  0
    4.5952   -0.4440   -0.9898 H   0  0  0  0  0  0  0  0  0  0  0  0
    3.9729   -1.9040   -0.2034 H   0  0  0  0  0  0  0  0  0  0  0  0
    3.3946   -1.5300   -1.8965 H   0  0  0  0  0  0  0  0  0  0  0  0
    0.9168    1.7133    1.3495 H   0  0  0  0  0  0  0  0  0  0  0  0
    0.2744    1.9892   -0.2698 H   0  0  0  0  0  0  0  0  0  0  0  0
   -0.3997   -0.3221    1.7069 H   0  0  0  0  0  0  0  0  0  0  0  0
   -0.7952   -1.3066   -0.7986 H   0  0  0  0  0  0  0  0  0  0  0  0
   -3.3567   -0.8992    0.1699 H   0  0  0  0  0  0  0  0  0  0  0  0
   -2.1869   -1.2229    1.5977 H   0  0  0  0  0  0  0  0  0  0  0  0
   -2.4842    1.5063    1.2120 H   0  0  0  0  0  0  0  0  0  0  0  0
   -2.8704    0.3601   -1.2718 H   0  0  0  0  0  0  0  0  0  0  0  0
   -1.3201    1.3986   -1.3348 H   0  0  0  0  0  0  0  0  0  0  0  0
  1  2  1  0
  2  3  3  0
  3  4  1  0
  4  5  1  0
  5  6  1  0
  6  7  1  0
  7  8  1  0
  8  9  1  0
  8  5  1  0
  9  6  1  0
  1 10  1  0
  1 11  1  0
  1 12  1  0
  4 13  1  0
  4 14  1  0
  5 15  1  0
  6 16  1  0
  7 17  1  0
  7 18  1  0
  8 19  1  0
  9 20  1  0
  9 21  1  0
M  END
