
     RDKit          3D

 15 14  0  0  0  0  0  0  0  0999 V2000
    2.6185    0.5437   -1.3703 C   0  0  0  0  0  0  0  0  0  0  0  0
    1.3786    0.1260   -0.6574 C   0  0  0  0  0  0  0  0  0  0  0  0
    0.4456   -0.1903   -0.1423 C   0  0  0  0  0  0  0  0  0  0  0  0
   -0.8856   -0.6346    0.5613 C   0  0  0  0  0  0  0  0  0  0  0  0
   -1.9485   -0.3679   -0.4522 C   0  0  0  0  0  0  0  0  0  0  0  0
   -0.9976    0.1580    1.7852 C   0  0  0  0  0  0  0  0  0  0  0  0
    0.0295    0.2430    2.5264 O   0  0  0  0  0  0  0  0  0  0  0  0
    2.3253    1.3485   -2.1106 H   0  0  0  0  0  0  0  0  0  0  0  0
    3.2933    1.0455   -0.5882 H   0  0  0  0  0  0  0  0  0  0  0  0
    3.0763   -0.2933   -1.8304 H   0  0  0  0  0  0  0  0  0  0  0  0
   -0.7886   -1.7211    0.7306 H   0  0  0  0  0  0  0  0  0  0  0  0
   -2.0459   -1.2793   -1.0910 H   0  0  0  0  0  0  0  0  0  0  0  0
   -2.9310   -0.1021    0.0429 H   0  0  0  0  0  0  0  0  0  0  0  0
   -1.7099    0.4708   -1.1260 H   0  0  0  0  0  0  0  0  0  0  0  0
   -1.8600    0.6531    2.0814 H   0  0  0  0  0  0  0  0  0  0  0  0
  1  2  1  0
  2  3  3  0
  3  4  1  0
  4  5  1  0
  4  6  1  0
  6  7  2  0
  1  8  1  0
  1  9  1  0
  1 10  1  0
  4 11  1  0
  5 12  1  0
  5 13  1  0
  5 14  1  0
  6 15  1  0
M  END
