
     RDKit          3D

 17 17  0  0  0  0  0  0  0  0999 V2000
    3.7345    0.0454   -0.1509 C   0  0  0  0  0  0  0  0  0  0  0  0
    2.3448   -0.0026   -0.4068 C   0  0  0  0  0  0  0  0  0  0  0  0
    0.8050   -0.0777   -0.7072 C   0  0  0  0  0  0  0  0  0  0  0  0
   -0.6244   -0.1642   -1.0059 C   0  0  0  0  0  0  0  0  0  0  0  0
   -1.4774    0.0352   -0.0458 C   0  0  0  0  0  0  0  0  0  0  0  0
   -2.1669   -1.1185    0.7319 C   0  0  0  0  0  0  0  0  0  0  0  0
   -2.4609   -1.1316    1.7915 O   0  0  0  0  0  0  0  0  0  0  0  0
   -1.9798    1.3837    0.4289 C   0  0  0  0  0  0  0  0  0  0  0  0
   -2.7130    0.7833   -0.7674 O   0  0  0  0  0  0  0  0  0  0  0  0
    3.8183   -0.2365    0.9295 H   0  0  0  0  0  0  0  0  0  0  0  0
    4.0784   -0.8701   -0.6651 H   0  0  0  0  0  0  0  0  0  0  0  0
    4.0506    0.9706   -0.4940 H   0  0  0  0  0  0  0  0  0  0  0  0
   -0.5872   -1.3620   -1.3480 H   0  0  0  0  0  0  0  0  0  0  0  0
   -0.6066    0.1935   -2.1080 H   0  0  0  0  0  0  0  0  0  0  0  0
   -2.3375   -1.9803   -0.0259 H   0  0  0  0  0  0  0  0  0  0  0  0
   -1.4113    2.2012    0.1690 H   0  0  0  0  0  0  0  0  0  0  0  0
   -2.4665    1.3305    1.3699 H   0  0  0  0  0  0  0  0  0  0  0  0
  1  2  1  0
  2  3  3  0
  3  4  1  0
  4  5  1  0
  5  6  1  0
  6  7  2  0
  5  8  1  0
  8  9  1  0
  9  5  1  0
  1 10  1  0
  1 11  1  0
  1 12  1  0
  4 13  1  0
  4 14  1  0
  6 15  1  0
  8 16  1  0
  8 17  1  0
M  END
