
     RDKit          3D

 21 20  0  0  0  0  0  0  0  0999 V2000
    3.7931    2.0875    0.3576 C   0  0  0  0  0  0  0  0  0  0  0  0
    2.6675    1.1373    0.4717 C   0  0  0  0  0  0  0  0  0  0  0  0
    1.7186    0.3255    0.5890 C   0  0  0  0  0  0  0  0  0  0  0  0
    0.6342   -0.5924    0.7464 C   0  0  0  0  0  0  0  0  0  0  0  0
    0.9460   -1.8796    0.2773 O   0  0  0  0  0  0  0  0  0  0  0  0
   -0.6123   -0.0965    0.0398 C   0  0  0  0  0  0  0  0  0  0  0  0
   -1.7070   -1.1372    0.2373 C   0  0  0  0  0  0  0  0  0  0  0  0
   -2.9710   -0.6822   -0.4557 C   0  0  0  0  0  0  0  0  0  0  0  0
   -3.3550    0.5232    0.1405 O   0  0  0  0  0  0  0  0  0  0  0  0
    3.5807    2.8861   -0.3754 H   0  0  0  0  0  0  0  0  0  0  0  0
    3.9726    2.4319    1.3907 H   0  0  0  0  0  0  0  0  0  0  0  0
    4.7120    1.5124   -0.0120 H   0  0  0  0  0  0  0  0  0  0  0  0
    0.3583   -0.7289    1.8266 H   0  0  0  0  0  0  0  0  0  0  0  0
    1.8054   -1.8266   -0.2529 H   0  0  0  0  0  0  0  0  0  0  0  0
   -0.4086    0.0222   -1.0266 H   0  0  0  0  0  0  0  0  0  0  0  0
   -0.9085    0.8852    0.4545 H   0  0  0  0  0  0  0  0  0  0  0  0
   -1.3858   -2.0964   -0.2551 H   0  0  0  0  0  0  0  0  0  0  0  0
   -1.9222   -1.3132    1.3026 H   0  0  0  0  0  0  0  0  0  0  0  0
   -2.7978   -0.4878   -1.5542 H   0  0  0  0  0  0  0  0  0  0  0  0
   -3.7460   -1.4720   -0.3584 H   0  0  0  0  0  0  0  0  0  0  0  0
   -4.3742    0.5014    0.2026 H   0  0  0  0  0  0  0  0  0  0  0  0
  1  2  1  0
  2  3  3  0
  3  4  1  0
  4  5  1  0
  4  6  1  0
  6  7  1  0
  7  8  1  0
  8  9  1  0
  1 10  1  0
  1 11  1  0
  1 12  1  0
  4 13  1  0
  5 14  1  0
  6 15  1  0
  6 16  1  0
  7 17  1  0
  7 18  1  0
  8 19  1  0
  8 20  1  0
  9 21  1  0
M  END
