
     RDKit          3D

 17 17  0  0  0  0  0  0  0  0999 V2000
   -2.9858    1.2815   -1.5421 C   0  0  0  0  0  0  0  0  0  0  0  0
   -2.0028    0.6680   -0.6200 C   0  0  0  0  0  0  0  0  0  0  0  0
   -1.1871    0.1804    0.1226 C   0  0  0  0  0  0  0  0  0  0  0  0
   -0.1803   -0.4291    1.0120 C   0  0  0  0  0  0  0  0  0  0  0  0
    0.7342   -1.2299    0.1580 C   0  0  0  0  0  0  0  0  0  0  0  0
    1.7854   -1.8776    1.0061 O   0  0  0  0  0  0  0  0  0  0  0  0
    2.1439   -0.8867    0.0318 C   0  0  0  0  0  0  0  0  0  0  0  0
    2.7391    0.3687    0.5313 C   0  0  0  0  0  0  0  0  0  0  0  0
    3.7935    0.8262    0.1228 O   0  0  0  0  0  0  0  0  0  0  0  0
   -3.5756    0.4496   -1.9842 H   0  0  0  0  0  0  0  0  0  0  0  0
   -2.5064    1.8385   -2.3497 H   0  0  0  0  0  0  0  0  0  0  0  0
   -3.7052    1.9164   -0.9853 H   0  0  0  0  0  0  0  0  0  0  0  0
    0.3334    0.3636    1.5428 H   0  0  0  0  0  0  0  0  0  0  0  0
   -0.7335   -1.0541    1.7660 H   0  0  0  0  0  0  0  0  0  0  0  0
    0.3252   -1.9901   -0.5404 H   0  0  0  0  0  0  0  0  0  0  0  0
    2.7769   -1.3665   -0.7557 H   0  0  0  0  0  0  0  0  0  0  0  0
    2.2450    0.9412    1.2993 H   0  0  0  0  0  0  0  0  0  0  0  0
  1  2  1  0
  2  3  3  0
  3  4  1  0
  4  5  1  0
  5  6  1  0
  6  7  1  0
  7  8  1  0
  8  9  2  0
  7  5  1  0
  1 10  1  0
  1 11  1  0
  1 12  1  0
  4 13  1  0
  4 14  1  0
  5 15  1  0
  7 16  1  0
  8 17  1  0
M  END
