
     RDKit          3D

 21 21  0  0  0  0  0  0  0  0999 V2000
    3.6722   -1.5630   -0.1376 C   0  0  0  0  0  0  0  0  0  0  0  0
    2.5156   -0.6809    0.0410 C   0  0  0  0  0  0  0  0  0  0  0  0
    1.5461    0.0471    0.1938 C   0  0  0  0  0  0  0  0  0  0  0  0
    0.4063    0.9282    0.3785 C   0  0  0  0  0  0  0  0  0  0  0  0
   -0.6974    0.4843   -0.5238 C   0  0  0  0  0  0  0  0  0  0  0  0
   -1.8723    1.4147   -0.3164 C   0  0  0  0  0  0  0  0  0  0  0  0
   -2.4249    0.8997    0.9552 C   0  0  0  0  0  0  0  0  0  0  0  0
   -2.1107   -0.3808    1.0813 C   0  0  0  0  0  0  0  0  0  0  0  0
   -1.3115   -0.8330   -0.1107 C   0  0  0  0  0  0  0  0  0  0  0  0
    3.5475   -2.0622   -1.1265 H   0  0  0  0  0  0  0  0  0  0  0  0
    4.6244   -0.9908   -0.1645 H   0  0  0  0  0  0  0  0  0  0  0  0
    3.7401   -2.2903    0.6942 H   0  0  0  0  0  0  0  0  0  0  0  0
    0.6473    1.9900    0.0749 H   0  0  0  0  0  0  0  0  0  0  0  0
    0.1063    0.9801    1.4439 H   0  0  0  0  0  0  0  0  0  0  0  0
   -0.4180    0.4655   -1.5728 H   0  0  0  0  0  0  0  0  0  0  0  0
   -1.4375    2.4347   -0.1894 H   0  0  0  0  0  0  0  0  0  0  0  0
   -2.5875    1.3931   -1.1570 H   0  0  0  0  0  0  0  0  0  0  0  0
   -2.9996    1.5244    1.6514 H   0  0  0  0  0  0  0  0  0  0  0  0
   -2.4130   -0.9683    1.9408 H   0  0  0  0  0  0  0  0  0  0  0  0
   -0.5416   -1.5429    0.2291 H   0  0  0  0  0  0  0  0  0  0  0  0
   -1.9919   -1.2496   -0.8434 H   0  0  0  0  0  0  0  0  0  0  0  0
  1  2  1  0
  2  3  3  0
  3  4  1  0
  4  5  1  0
  5  6  1  0
  6  7  1  0
  7  8  2  0
  8  9  1  0
  9  5  1  0
  1 10  1  0
  1 11  1  0
  1 12  1  0
  4 13  1  0
  4 14  1  0
  5 15  1  0
  6 16  1  0
  6 17  1  0
  7 18  1  0
  8 19  1  0
  9 20  1  0
  9 21  1  0
M  END
