
     RDKit          3D

 21 21  0  0  0  0  0  0  0  0999 V2000
    3.7704   -0.0622   -0.0067 C   0  0  0  0  0  0  0  0  0  0  0  0
    2.3498   -0.0769   -0.3806 C   0  0  0  0  0  0  0  0  0  0  0  0
    1.1837   -0.0814   -0.7008 C   0  0  0  0  0  0  0  0  0  0  0  0
   -0.2484   -0.0771   -1.0717 C   0  0  0  0  0  0  0  0  0  0  0  0
   -0.8169    1.3063   -1.1736 C   0  0  0  0  0  0  0  0  0  0  0  0
   -1.1685    0.4059   -0.0360 C   0  0  0  0  0  0  0  0  0  0  0  0
   -0.7044    0.7199    1.3606 C   0  0  0  0  0  0  0  0  0  0  0  0
   -2.4757   -0.0804   -0.0836 O   0  0  0  0  0  0  0  0  0  0  0  0
   -2.5003   -1.4715    0.0387 C   0  0  0  0  0  0  0  0  0  0  0  0
    4.2974    0.7327   -0.5648 H   0  0  0  0  0  0  0  0  0  0  0  0
    3.8021    0.0751    1.0933 H   0  0  0  0  0  0  0  0  0  0  0  0
    4.2577   -1.0491   -0.2248 H   0  0  0  0  0  0  0  0  0  0  0  0
   -0.5818   -0.8359   -1.8029 H   0  0  0  0  0  0  0  0  0  0  0  0
   -1.4989    1.4654   -2.0198 H   0  0  0  0  0  0  0  0  0  0  0  0
   -0.1989    2.1850   -0.8988 H   0  0  0  0  0  0  0  0  0  0  0  0
    0.2693    1.2189    1.4061 H   0  0  0  0  0  0  0  0  0  0  0  0
   -0.6793   -0.2292    1.9469 H   0  0  0  0  0  0  0  0  0  0  0  0
   -1.4936    1.3498    1.8289 H   0  0  0  0  0  0  0  0  0  0  0  0
   -3.5483   -1.8020   -0.0048 H   0  0  0  0  0  0  0  0  0  0  0  0
   -1.9611   -1.9420   -0.7842 H   0  0  0  0  0  0  0  0  0  0  0  0
   -2.0543   -1.7513    1.0272 H   0  0  0  0  0  0  0  0  0  0  0  0
  1  2  1  0
  2  3  3  0
  3  4  1  0
  4  5  1  0
  5  6  1  0
  6  7  1  0
  6  8  1  0
  8  9  1  0
  6  4  1  0
  1 10  1  0
  1 11  1  0
  1 12  1  0
  4 13  1  0
  5 14  1  0
  5 15  1  0
  7 16  1  0
  7 17  1  0
  7 18  1  0
  9 19  1  0
  9 20  1  0
  9 21  1  0
M  END
