
     RDKit          3D

 23 23  0  0  0  0  0  0  0  0999 V2000
    1.2916   -3.6942   -0.6883 C   0  0  0  0  0  0  0  0  0  0  0  0
    0.4938   -2.5786   -0.2225 C   0  0  0  0  0  0  0  0  0  0  0  0
   -0.1729   -1.6118    0.1853 C   0  0  0  0  0  0  0  0  0  0  0  0
   -0.9794   -0.4818    0.6549 C   0  0  0  0  0  0  0  0  0  0  0  0
   -0.0796    0.6706    1.0189 C   0  0  0  0  0  0  0  0  0  0  0  0
   -0.8129    1.9024    1.5233 C   0  0  0  0  0  0  0  0  0  0  0  0
   -0.8963    2.3391    0.0740 C   0  0  0  0  0  0  0  0  0  0  0  0
    0.3960    1.5347   -0.1247 C   0  0  0  0  0  0  0  0  0  0  0  0
    0.4518    0.8288   -1.4399 C   0  0  0  0  0  0  0  0  0  0  0  0
    0.8619   -4.1751   -1.6008 H   0  0  0  0  0  0  0  0  0  0  0  0
    2.3301   -3.3833   -0.9586 H   0  0  0  0  0  0  0  0  0  0  0  0
    1.2887   -4.4665    0.0979 H   0  0  0  0  0  0  0  0  0  0  0  0
   -1.5485   -0.8379    1.5416 H   0  0  0  0  0  0  0  0  0  0  0  0
   -1.6653   -0.1645   -0.1562 H   0  0  0  0  0  0  0  0  0  0  0  0
    0.6741    0.3656    1.7515 H   0  0  0  0  0  0  0  0  0  0  0  0
   -0.2011    2.5917    2.1206 H   0  0  0  0  0  0  0  0  0  0  0  0
   -1.7944    1.6293    1.9760 H   0  0  0  0  0  0  0  0  0  0  0  0
   -0.6986    3.4179   -0.0119 H   0  0  0  0  0  0  0  0  0  0  0  0
   -1.7487    1.9521   -0.5099 H   0  0  0  0  0  0  0  0  0  0  0  0
    1.3029    2.0906    0.1706 H   0  0  0  0  0  0  0  0  0  0  0  0
    0.9304    1.5313   -2.1802 H   0  0  0  0  0  0  0  0  0  0  0  0
    1.1428   -0.0387   -1.4149 H   0  0  0  0  0  0  0  0  0  0  0  0
   -0.5663    0.5781   -1.8067 H   0  0  0  0  0  0  0  0  0  0  0  0
  1  2  1  0
  2  3  3  0
  3  4  1  0
  4  5  1  0
  5  6  1  0
  6  7  1  0
  7  8  1  0
  8  9  1  0
  8  5  1  0
  1 10  1  0
  1 11  1  0
  1 12  1  0
  4 13  1  0
  4 14  1  0
  5 15  1  0
  6 16  1  0
  6 17  1  0
  7 18  1  0
  7 19  1  0
  8 20  1  0
  9 21  1  0
  9 22  1  0
  9 23  1  0
M  END
