
     RDKit          3D

 17 16  0  0  0  0  0  0  0  0999 V2000
    2.7752   -1.1308    1.4783 C   0  0  0  0  0  0  0  0  0  0  0  0
    1.7910   -0.3372    0.7471 C   0  0  0  0  0  0  0  0  0  0  0  0
    0.9925    0.3334    0.1408 C   0  0  0  0  0  0  0  0  0  0  0  0
   -0.0064    1.1527   -0.5859 C   0  0  0  0  0  0  0  0  0  0  0  0
   -0.9152    0.1871   -1.2974 C   0  0  0  0  0  0  0  0  0  0  0  0
   -1.5635   -0.6699   -0.4187 O   0  0  0  0  0  0  0  0  0  0  0  0
   -2.3532    0.0042    0.4968 C   0  0  0  0  0  0  0  0  0  0  0  0
    2.2489   -1.9251    2.0436 H   0  0  0  0  0  0  0  0  0  0  0  0
    3.5396   -1.5775    0.8002 H   0  0  0  0  0  0  0  0  0  0  0  0
    3.3376   -0.5019    2.2196 H   0  0  0  0  0  0  0  0  0  0  0  0
   -0.5302    1.8402    0.0963 H   0  0  0  0  0  0  0  0  0  0  0  0
    0.5348    1.7184   -1.4007 H   0  0  0  0  0  0  0  0  0  0  0  0
   -1.7002    0.8059   -1.8010 H   0  0  0  0  0  0  0  0  0  0  0  0
   -0.3406   -0.3416   -2.0629 H   0  0  0  0  0  0  0  0  0  0  0  0
   -3.1555    0.6157   -0.0111 H   0  0  0  0  0  0  0  0  0  0  0  0
   -2.8968   -0.7972    1.0757 H   0  0  0  0  0  0  0  0  0  0  0  0
   -1.7580    0.6237    1.1695 H   0  0  0  0  0  0  0  0  0  0  0  0
  1  2  1  0
  2  3  3  0
  3  4  1  0
  4  5  1  0
  5  6  1  0
  6  7  1  0
  1  8  1  0
  1  9  1  0
  1 10  1  0
  4 11  1  0
  4 12  1  0
  5 13  1  0
  5 14  1  0
  7 15  1  0
  7 16  1  0
  7 17  1  0
M  END
