
     RDKit          3D

 20 20  0  0  0  0  0  0  0  0999 V2000
    3.3547   -1.2322   -0.9759 C   0  0  0  0  0  0  0  0  0  0  0  0
    2.2177   -0.5687   -0.3334 C   0  0  0  0  0  0  0  0  0  0  0  0
    1.2814   -0.0013    0.2135 C   0  0  0  0  0  0  0  0  0  0  0  0
    0.1687    0.6675    0.8902 C   0  0  0  0  0  0  0  0  0  0  0  0
   -0.7606   -0.2368    1.6419 C   0  0  0  0  0  0  0  0  0  0  0  0
   -1.1776    0.4146    0.3630 C   0  0  0  0  0  0  0  0  0  0  0  0
   -1.3784   -0.4721   -0.8476 C   0  0  0  0  0  0  0  0  0  0  0  0
   -2.1683    1.5759    0.5139 C   0  0  0  0  0  0  0  0  0  0  0  0
    4.3061   -1.0428   -0.3968 H   0  0  0  0  0  0  0  0  0  0  0  0
    3.5109   -0.7815   -1.9634 H   0  0  0  0  0  0  0  0  0  0  0  0
    3.1787   -2.3300   -1.0040 H   0  0  0  0  0  0  0  0  0  0  0  0
    0.3883    1.6805    1.3397 H   0  0  0  0  0  0  0  0  0  0  0  0
   -0.5777   -1.3248    1.5850 H   0  0  0  0  0  0  0  0  0  0  0  0
   -1.1004    0.1434    2.6170 H   0  0  0  0  0  0  0  0  0  0  0  0
   -1.9957    0.0140   -1.6262 H   0  0  0  0  0  0  0  0  0  0  0  0
   -1.8188   -1.4381   -0.5919 H   0  0  0  0  0  0  0  0  0  0  0  0
   -0.3636   -0.6348   -1.3144 H   0  0  0  0  0  0  0  0  0  0  0  0
   -3.1998    1.1953    0.5199 H   0  0  0  0  0  0  0  0  0  0  0  0
   -1.9144    2.1063    1.4633 H   0  0  0  0  0  0  0  0  0  0  0  0
   -1.9512    2.2657   -0.3298 H   0  0  0  0  0  0  0  0  0  0  0  0
  1  2  1  0
  2  3  3  0
  3  4  1  0
  4  5  1  0
  5  6  1  0
  6  7  1  0
  6  8  1  0
  6  4  1  0
  1  9  1  0
  1 10  1  0
  1 11  1  0
  4 12  1  0
  5 13  1  0
  5 14  1  0
  7 15  1  0
  7 16  1  0
  7 17  1  0
  8 18  1  0
  8 19  1  0
  8 20  1  0
M  END
