
     RDKit          3D

 19 18  0  0  0  0  0  0  0  0999 V2000
    3.1571    0.9548   -1.7283 C   0  0  0  0  0  0  0  0  0  0  0  0
    1.8601    0.7557   -1.0794 C   0  0  0  0  0  0  0  0  0  0  0  0
    0.7920    0.5711   -0.5491 C   0  0  0  0  0  0  0  0  0  0  0  0
   -0.5196    0.3206    0.0936 C   0  0  0  0  0  0  0  0  0  0  0  0
   -0.7303    1.1940    1.1576 O   0  0  0  0  0  0  0  0  0  0  0  0
   -1.6087    0.5053   -0.8802 C   0  0  0  0  0  0  0  0  0  0  0  0
   -1.6321   -0.1604   -1.9021 O   0  0  0  0  0  0  0  0  0  0  0  0
   -0.5160   -1.0811    0.6677 C   0  0  0  0  0  0  0  0  0  0  0  0
   -1.8826   -1.2896    1.3158 C   0  0  0  0  0  0  0  0  0  0  0  0
    3.3383    2.0557   -1.7362 H   0  0  0  0  0  0  0  0  0  0  0  0
    3.1329    0.5330   -2.7577 H   0  0  0  0  0  0  0  0  0  0  0  0
    3.9922    0.4988   -1.1582 H   0  0  0  0  0  0  0  0  0  0  0  0
   -0.2920    0.7975    1.9529 H   0  0  0  0  0  0  0  0  0  0  0  0
   -2.4156    1.2288   -0.7250 H   0  0  0  0  0  0  0  0  0  0  0  0
   -0.2722   -1.8470   -0.0663 H   0  0  0  0  0  0  0  0  0  0  0  0
    0.2365   -1.0710    1.4968 H   0  0  0  0  0  0  0  0  0  0  0  0
   -2.0024   -0.5382    2.1117 H   0  0  0  0  0  0  0  0  0  0  0  0
   -2.0042   -2.3362    1.6779 H   0  0  0  0  0  0  0  0  0  0  0  0
   -2.6334   -1.0918    0.4970 H   0  0  0  0  0  0  0  0  0  0  0  0
  1  2  1  0
  2  3  3  0
  3  4  1  0
  4  5  1  0
  4  6  1  0
  6  7  2  0
  4  8  1  0
  8  9  1  0
  1 10  1  0
  1 11  1  0
  1 12  1  0
  5 13  1  0
  6 14  1  0
  8 15  1  0
  8 16  1  0
  9 17  1  0
  9 18  1  0
  9 19  1  0
M  END
