
     RDKit          3D

 19 18  0  0  0  0  0  0  0  0999 V2000
    1.7463    3.4869    0.3346 C   0  0  0  0  0  0  0  0  0  0  0  0
    0.8053    2.3517    0.1524 C   0  0  0  0  0  0  0  0  0  0  0  0
    0.0140    1.4220   -0.0131 C   0  0  0  0  0  0  0  0  0  0  0  0
   -0.9275    0.3256   -0.2341 C   0  0  0  0  0  0  0  0  0  0  0  0
   -2.1447    0.5556   -0.3714 O   0  0  0  0  0  0  0  0  0  0  0  0
   -0.3958   -1.0358   -0.2840 C   0  0  0  0  0  0  0  0  0  0  0  0
   -1.5500   -1.9729   -0.6889 C   0  0  0  0  0  0  0  0  0  0  0  0
   -0.0694   -1.3997    1.1804 C   0  0  0  0  0  0  0  0  0  0  0  0
    0.4688   -2.6583    1.3001 O   0  0  0  0  0  0  0  0  0  0  0  0
    2.1101    3.8515   -0.6852 H   0  0  0  0  0  0  0  0  0  0  0  0
    1.2578    4.3187    0.8261 H   0  0  0  0  0  0  0  0  0  0  0  0
    2.6706    3.1489    0.8365 H   0  0  0  0  0  0  0  0  0  0  0  0
    0.4410   -1.1930   -0.9484 H   0  0  0  0  0  0  0  0  0  0  0  0
   -1.4303   -2.2822   -1.7565 H   0  0  0  0  0  0  0  0  0  0  0  0
   -2.5151   -1.4533   -0.5974 H   0  0  0  0  0  0  0  0  0  0  0  0
   -1.4626   -2.8943   -0.0662 H   0  0  0  0  0  0  0  0  0  0  0  0
    0.5927   -0.6573    1.6437 H   0  0  0  0  0  0  0  0  0  0  0  0
   -1.0711   -1.3661    1.7071 H   0  0  0  0  0  0  0  0  0  0  0  0
    1.4599   -2.5480    1.3462 H   0  0  0  0  0  0  0  0  0  0  0  0
  1  2  1  0
  2  3  3  0
  3  4  1  0
  4  5  2  0
  4  6  1  0
  6  7  1  0
  6  8  1  0
  8  9  1  0
  1 10  1  0
  1 11  1  0
  1 12  1  0
  6 13  1  0
  7 14  1  0
  7 15  1  0
  7 16  1  0
  8 17  1  0
  8 18  1  0
  9 19  1  0
M  END
