
     RDKit          3D

 19 19  0  0  0  0  0  0  0  0999 V2000
    3.2265    1.1096   -0.2617 C   0  0  0  0  0  0  0  0  0  0  0  0
    2.1010    0.1788   -0.1552 C   0  0  0  0  0  0  0  0  0  0  0  0
    1.1424   -0.5872   -0.0719 C   0  0  0  0  0  0  0  0  0  0  0  0
    0.0076   -1.5082    0.0046 C   0  0  0  0  0  0  0  0  0  0  0  0
    0.0523   -2.4324   -1.0665 O   0  0  0  0  0  0  0  0  0  0  0  0
   -1.2721   -0.7142   -0.2151 C   0  0  0  0  0  0  0  0  0  0  0  0
   -1.4673    0.3692    0.8171 C   0  0  0  0  0  0  0  0  0  0  0  0
   -2.7265    1.1695    0.6223 C   0  0  0  0  0  0  0  0  0  0  0  0
   -2.5723    0.2555    1.6742 O   0  0  0  0  0  0  0  0  0  0  0  0
    2.9447    2.0851   -0.6728 H   0  0  0  0  0  0  0  0  0  0  0  0
    3.7268    1.1759    0.7384 H   0  0  0  0  0  0  0  0  0  0  0  0
    3.9214    0.6330   -1.0125 H   0  0  0  0  0  0  0  0  0  0  0  0
    0.0481   -2.0130    0.9700 H   0  0  0  0  0  0  0  0  0  0  0  0
    0.9092   -2.2362   -1.5583 H   0  0  0  0  0  0  0  0  0  0  0  0
   -2.1444   -1.3591   -0.3051 H   0  0  0  0  0  0  0  0  0  0  0  0
   -1.1203   -0.1828   -1.1984 H   0  0  0  0  0  0  0  0  0  0  0  0
   -0.5957    0.9327    1.1561 H   0  0  0  0  0  0  0  0  0  0  0  0
   -3.4264    0.8903   -0.2162 H   0  0  0  0  0  0  0  0  0  0  0  0
   -2.7551    2.2335    0.9035 H   0  0  0  0  0  0  0  0  0  0  0  0
  1  2  1  0
  2  3  3  0
  3  4  1  0
  4  5  1  0
  4  6  1  0
  6  7  1  0
  7  8  1  0
  8  9  1  0
  9  7  1  0
  1 10  1  0
  1 11  1  0
  1 12  1  0
  4 13  1  0
  5 14  1  0
  6 15  1  0
  6 16  1  0
  7 17  1  0
  8 18  1  0
  8 19  1  0
M  END
