
     RDKit          3D

 19 20  0  0  0  0  0  0  0  0999 V2000
    3.7339    0.0548   -0.1151 C   0  0  0  0  0  0  0  0  0  0  0  0
    2.2728    0.0866    0.0076 C   0  0  0  0  0  0  0  0  0  0  0  0
    1.0703    0.1162    0.1003 C   0  0  0  0  0  0  0  0  0  0  0  0
   -0.4147    0.1772    0.2080 C   0  0  0  0  0  0  0  0  0  0  0  0
   -1.1092    1.0276   -0.7749 C   0  0  0  0  0  0  0  0  0  0  0  0
   -2.3971    0.3731   -1.0232 C   0  0  0  0  0  0  0  0  0  0  0  0
   -2.4032   -0.8093   -0.4476 C   0  0  0  0  0  0  0  0  0  0  0  0
   -1.1252   -1.0760    0.2479 C   0  0  0  0  0  0  0  0  0  0  0  0
   -0.9892   -0.2400    1.5111 C   0  0  0  0  0  0  0  0  0  0  0  0
    4.1654    1.0978   -0.0752 H   0  0  0  0  0  0  0  0  0  0  0  0
    4.0389   -0.4373   -1.0432 H   0  0  0  0  0  0  0  0  0  0  0  0
    4.1138   -0.4392    0.8055 H   0  0  0  0  0  0  0  0  0  0  0  0
   -0.5142    1.0150   -1.7289 H   0  0  0  0  0  0  0  0  0  0  0  0
   -1.2046    2.0621   -0.3803 H   0  0  0  0  0  0  0  0  0  0  0  0
   -3.2219    0.8306   -1.6109 H   0  0  0  0  0  0  0  0  0  0  0  0
   -3.2440   -1.4895   -0.4867 H   0  0  0  0  0  0  0  0  0  0  0  0
   -0.6755   -2.0758    0.2340 H   0  0  0  0  0  0  0  0  0  0  0  0
   -0.2734   -0.6325    2.2568 H   0  0  0  0  0  0  0  0  0  0  0  0
   -1.8229    0.3585    1.8810 H   0  0  0  0  0  0  0  0  0  0  0  0
  1  2  1  0
  2  3  3  0
  3  4  1  0
  4  5  1  0
  5  6  1  0
  6  7  2  0
  7  8  1  0
  8  9  1  0
  8  4  1  0
  9  4  1  0
  1 10  1  0
  1 11  1  0
  1 12  1  0
  5 13  1  0
  5 14  1  0
  6 15  1  0
  7 16  1  0
  8 17  1  0
  9 18  1  0
  9 19  1  0
M  END
