
     RDKit          3D

 18 18  0  0  0  0  0  0  0  0999 V2000
    3.6882    0.2910   -0.4994 C   0  0  0  0  0  0  0  0  0  0  0  0
    2.2381    0.2945   -0.2718 C   0  0  0  0  0  0  0  0  0  0  0  0
    1.0407    0.2827   -0.0695 C   0  0  0  0  0  0  0  0  0  0  0  0
   -0.4124    0.2811    0.1595 C   0  0  0  0  0  0  0  0  0  0  0  0
   -1.0835   -1.0643   -0.0668 C   0  0  0  0  0  0  0  0  0  0  0  0
   -2.5481   -1.0079    0.1783 C   0  0  0  0  0  0  0  0  0  0  0  0
   -1.0546    1.3192    0.7696 C   0  0  0  0  0  0  0  0  0  0  0  0
   -1.1310    1.2694   -0.6867 O   0  0  0  0  0  0  0  0  0  0  0  0
    3.9652    0.9711   -1.3447 H   0  0  0  0  0  0  0  0  0  0  0  0
    4.0526   -0.7150   -0.7986 H   0  0  0  0  0  0  0  0  0  0  0  0
    4.1606    0.6906    0.3989 H   0  0  0  0  0  0  0  0  0  0  0  0
   -0.5526   -1.8708    0.4625 H   0  0  0  0  0  0  0  0  0  0  0  0
   -0.9265   -1.2754   -1.1638 H   0  0  0  0  0  0  0  0  0  0  0  0
   -2.9288   -0.0166   -0.1158 H   0  0  0  0  0  0  0  0  0  0  0  0
   -3.0340   -1.7576   -0.5070 H   0  0  0  0  0  0  0  0  0  0  0  0
   -2.8353   -1.1764    1.2277 H   0  0  0  0  0  0  0  0  0  0  0  0
   -2.0650    1.2121    1.2644 H   0  0  0  0  0  0  0  0  0  0  0  0
   -0.5736    2.2725    1.0634 H   0  0  0  0  0  0  0  0  0  0  0  0
  1  2  1  0
  2  3  3  0
  3  4  1  0
  4  5  1  0
  5  6  1  0
  4  7  1  0
  7  8  1  0
  8  4  1  0
  1  9  1  0
  1 10  1  0
  1 11  1  0
  5 12  1  0
  5 13  1  0
  6 14  1  0
  6 15  1  0
  6 16  1  0
  7 17  1  0
  7 18  1  0
M  END
