
     RDKit          3D

 19 19  0  0  0  0  0  0  0  0999 V2000
    4.5452    0.1463    0.0996 C   0  0  0  0  0  0  0  0  0  0  0  0
    3.1351   -0.2327    0.2055 C   0  0  0  0  0  0  0  0  0  0  0  0
    1.9600   -0.5550    0.2738 C   0  0  0  0  0  0  0  0  0  0  0  0
    0.5471   -0.9194    0.3431 C   0  0  0  0  0  0  0  0  0  0  0  0
   -0.2682    0.2006    0.5429 O   0  0  0  0  0  0  0  0  0  0  0  0
   -1.5818   -0.2679    0.5917 C   0  0  0  0  0  0  0  0  0  0  0  0
   -2.5794    0.8251    0.8029 C   0  0  0  0  0  0  0  0  0  0  0  0
   -3.6668    0.8819   -0.2706 C   0  0  0  0  0  0  0  0  0  0  0  0
   -2.6953    1.8623   -0.0986 O   0  0  0  0  0  0  0  0  0  0  0  0
    5.0848   -0.6265   -0.4831 H   0  0  0  0  0  0  0  0  0  0  0  0
    5.0401    0.2038    1.0832 H   0  0  0  0  0  0  0  0  0  0  0  0
    4.5939    1.1524   -0.3550 H   0  0  0  0  0  0  0  0  0  0  0  0
    0.3389   -1.6007    1.2097 H   0  0  0  0  0  0  0  0  0  0  0  0
    0.2397   -1.4911   -0.5658 H   0  0  0  0  0  0  0  0  0  0  0  0
   -1.7719   -0.8634   -0.3250 H   0  0  0  0  0  0  0  0  0  0  0  0
   -1.6549   -0.9726    1.4433 H   0  0  0  0  0  0  0  0  0  0  0  0
   -2.9769    0.9820    1.8363 H   0  0  0  0  0  0  0  0  0  0  0  0
   -3.5892    0.1962   -1.1359 H   0  0  0  0  0  0  0  0  0  0  0  0
   -4.7002    1.0786    0.0393 H   0  0  0  0  0  0  0  0  0  0  0  0
  1  2  1  0
  2  3  3  0
  3  4  1  0
  4  5  1  0
  5  6  1  0
  6  7  1  0
  7  8  1  0
  8  9  1  0
  9  7  1  0
  1 10  1  0
  1 11  1  0
  1 12  1  0
  4 13  1  0
  4 14  1  0
  6 15  1  0
  6 16  1  0
  7 17  1  0
  8 18  1  0
  8 19  1  0
M  END
