
     RDKit          3D

 19 19  0  0  0  0  0  0  0  0999 V2000
    4.0544   -0.1839   -0.4141 C   0  0  0  0  0  0  0  0  0  0  0  0
    2.6121   -0.0813   -0.1365 C   0  0  0  0  0  0  0  0  0  0  0  0
    1.4324    0.0224    0.0879 C   0  0  0  0  0  0  0  0  0  0  0  0
   -0.0175    0.1399    0.3745 C   0  0  0  0  0  0  0  0  0  0  0  0
   -0.7704    0.9042   -0.6512 C   0  0  0  0  0  0  0  0  0  0  0  0
   -0.8841   -0.5762   -0.5901 C   0  0  0  0  0  0  0  0  0  0  0  0
   -2.1959   -1.0815   -0.0952 C   0  0  0  0  0  0  0  0  0  0  0  0
   -2.9005   -0.4617    1.0460 C   0  0  0  0  0  0  0  0  0  0  0  0
   -2.7365   -2.0415   -0.6298 O   0  0  0  0  0  0  0  0  0  0  0  0
    4.6488    0.0195    0.5175 H   0  0  0  0  0  0  0  0  0  0  0  0
    4.3835    0.5166   -1.1943 H   0  0  0  0  0  0  0  0  0  0  0  0
    4.2722   -1.2130   -0.7095 H   0  0  0  0  0  0  0  0  0  0  0  0
   -0.3185    0.1542    1.4408 H   0  0  0  0  0  0  0  0  0  0  0  0
   -0.2450    1.4158   -1.4857 H   0  0  0  0  0  0  0  0  0  0  0  0
   -1.5927    1.5477   -0.2332 H   0  0  0  0  0  0  0  0  0  0  0  0
   -0.4588   -1.1237   -1.4494 H   0  0  0  0  0  0  0  0  0  0  0  0
   -2.3454    0.3784    1.4938 H   0  0  0  0  0  0  0  0  0  0  0  0
   -3.0103   -1.2357    1.8350 H   0  0  0  0  0  0  0  0  0  0  0  0
   -3.9278   -0.1292    0.7935 H   0  0  0  0  0  0  0  0  0  0  0  0
  1  2  1  0
  2  3  3  0
  3  4  1  0
  4  5  1  0
  5  6  1  0
  6  7  1  0
  7  8  1  0
  7  9  2  0
  6  4  1  0
  1 10  1  0
  1 11  1  0
  1 12  1  0
  4 13  1  0
  5 14  1  0
  5 15  1  0
  6 16  1  0
  8 17  1  0
  8 18  1  0
  8 19  1  0
M  END
