
     RDKit          3D

 19 20  0  0  0  0  0  0  0  0999 V2000
    2.8196    2.0036   -0.6427 C   0  0  0  0  0  0  0  0  0  0  0  0
    1.5877    1.2019   -0.5402 C   0  0  0  0  0  0  0  0  0  0  0  0
    0.5901    0.5364   -0.4701 C   0  0  0  0  0  0  0  0  0  0  0  0
   -0.6207   -0.2984   -0.3720 C   0  0  0  0  0  0  0  0  0  0  0  0
   -0.9530   -1.0689   -1.5777 C   0  0  0  0  0  0  0  0  0  0  0  0
   -0.3947   -1.8260   -0.4547 C   0  0  0  0  0  0  0  0  0  0  0  0
   -1.2693   -2.0138    0.6239 O   0  0  0  0  0  0  0  0  0  0  0  0
   -0.9198   -0.7468    1.0164 C   0  0  0  0  0  0  0  0  0  0  0  0
   -1.9746    0.0428    1.7483 C   0  0  0  0  0  0  0  0  0  0  0  0
    2.5562    3.0264   -0.3853 H   0  0  0  0  0  0  0  0  0  0  0  0
    3.2564    1.9703   -1.6583 H   0  0  0  0  0  0  0  0  0  0  0  0
    3.5903    1.5621    0.0347 H   0  0  0  0  0  0  0  0  0  0  0  0
   -0.3214   -0.9521   -2.4839 H   0  0  0  0  0  0  0  0  0  0  0  0
   -2.0164   -1.3071   -1.8429 H   0  0  0  0  0  0  0  0  0  0  0  0
    0.6431   -2.1256   -0.3497 H   0  0  0  0  0  0  0  0  0  0  0  0
    0.0051   -0.8039    1.6638 H   0  0  0  0  0  0  0  0  0  0  0  0
   -2.3376   -0.5552    2.5837 H   0  0  0  0  0  0  0  0  0  0  0  0
   -1.4676    0.9394    2.1676 H   0  0  0  0  0  0  0  0  0  0  0  0
   -2.7733    0.4150    1.0794 H   0  0  0  0  0  0  0  0  0  0  0  0
  1  2  1  0
  2  3  3  0
  3  4  1  0
  4  5  1  0
  5  6  1  0
  6  7  1  0
  7  8  1  0
  8  9  1  0
  6  4  1  0
  8  4  1  0
  1 10  1  0
  1 11  1  0
  1 12  1  0
  5 13  1  0
  5 14  1  0
  6 15  1  0
  8 16  1  0
  9 17  1  0
  9 18  1  0
  9 19  1  0
M  END
