
     RDKit          3D

 20 19  0  0  0  0  0  0  0  0999 V2000
    3.5987    0.5897   -0.4229 C   0  0  0  0  0  0  0  0  0  0  0  0
    2.3331    0.0069   -0.8750 C   0  0  0  0  0  0  0  0  0  0  0  0
    1.2776   -0.4560   -1.2502 C   0  0  0  0  0  0  0  0  0  0  0  0
    0.0154   -1.0296   -1.7057 C   0  0  0  0  0  0  0  0  0  0  0  0
   -1.0960   -0.2462   -1.0420 C   0  0  0  0  0  0  0  0  0  0  0  0
   -1.0095   -0.3352    0.4666 C   0  0  0  0  0  0  0  0  0  0  0  0
   -2.1706    0.4859    1.0234 C   0  0  0  0  0  0  0  0  0  0  0  0
   -2.0698    0.3889    2.4179 O   0  0  0  0  0  0  0  0  0  0  0  0
    4.1155   -0.0675    0.3141 H   0  0  0  0  0  0  0  0  0  0  0  0
    3.4041    1.5547    0.0911 H   0  0  0  0  0  0  0  0  0  0  0  0
    4.2851    0.8079   -1.2915 H   0  0  0  0  0  0  0  0  0  0  0  0
   -0.0712   -2.1049   -1.5326 H   0  0  0  0  0  0  0  0  0  0  0  0
   -0.1297   -0.8806   -2.8131 H   0  0  0  0  0  0  0  0  0  0  0  0
   -2.0814   -0.7295   -1.3106 H   0  0  0  0  0  0  0  0  0  0  0  0
   -1.1569    0.7826   -1.4023 H   0  0  0  0  0  0  0  0  0  0  0  0
   -1.1439   -1.3540    0.8147 H   0  0  0  0  0  0  0  0  0  0  0  0
   -0.0737    0.1424    0.7887 H   0  0  0  0  0  0  0  0  0  0  0  0
   -2.0772    1.5305    0.6662 H   0  0  0  0  0  0  0  0  0  0  0  0
   -3.1466    0.0370    0.7342 H   0  0  0  0  0  0  0  0  0  0  0  0
   -2.8031    0.8770    2.8713 H   0  0  0  0  0  0  0  0  0  0  0  0
  1  2  1  0
  2  3  3  0
  3  4  1  0
  4  5  1  0
  5  6  1  0
  6  7  1  0
  7  8  1  0
  1  9  1  0
  1 10  1  0
  1 11  1  0
  4 12  1  0
  4 13  1  0
  5 14  1  0
  5 15  1  0
  6 16  1  0
  6 17  1  0
  7 18  1  0
  7 19  1  0
  8 20  1  0
M  END
