
     RDKit          3D

 15 15  0  0  0  0  0  0  0  0999 V2000
    2.8633    0.6355    0.8130 C   0  0  0  0  0  0  0  0  0  0  0  0
    1.5967    0.2910    0.1605 C   0  0  0  0  0  0  0  0  0  0  0  0
    0.5448    0.0003   -0.3620 C   0  0  0  0  0  0  0  0  0  0  0  0
   -0.7200   -0.3278   -0.9733 C   0  0  0  0  0  0  0  0  0  0  0  0
   -1.5586    0.7254   -1.3311 O   0  0  0  0  0  0  0  0  0  0  0  0
   -1.9951    0.7690   -0.0182 C   0  0  0  0  0  0  0  0  0  0  0  0
   -2.4023    1.7087    0.6959 O   0  0  0  0  0  0  0  0  0  0  0  0
   -1.7472   -0.6874    0.0493 C   0  0  0  0  0  0  0  0  0  0  0  0
   -1.2647   -1.0223    1.3094 O   0  0  0  0  0  0  0  0  0  0  0  0
    2.7849    1.5924    1.3797 H   0  0  0  0  0  0  0  0  0  0  0  0
    3.1937   -0.1983    1.4650 H   0  0  0  0  0  0  0  0  0  0  0  0
    3.6812    0.8015    0.0533 H   0  0  0  0  0  0  0  0  0  0  0  0
   -0.6791   -1.1209   -1.7636 H   0  0  0  0  0  0  0  0  0  0  0  0
   -2.5450   -1.3332   -0.3521 H   0  0  0  0  0  0  0  0  0  0  0  0
   -1.7526   -1.8339    1.5988 H   0  0  0  0  0  0  0  0  0  0  0  0
  1  2  1  0
  2  3  3  0
  3  4  1  0
  4  5  1  0
  5  6  1  0
  6  7  2  0
  6  8  1  0
  8  9  1  0
  8  4  1  0
  1 10  1  0
  1 11  1  0
  1 12  1  0
  4 13  1  0
  8 14  1  0
  9 15  1  0
M  END
