
     RDKit          3D

 23 22  0  0  0  0  0  0  0  0999 V2000
    4.3126   -1.3817   -0.9179 C   0  0  0  0  0  0  0  0  0  0  0  0
    2.9612   -1.2171   -0.3759 C   0  0  0  0  0  0  0  0  0  0  0  0
    1.8322   -1.0906    0.0568 C   0  0  0  0  0  0  0  0  0  0  0  0
    0.4659   -0.9618    0.5876 C   0  0  0  0  0  0  0  0  0  0  0  0
   -0.0241    0.4330    0.3693 C   0  0  0  0  0  0  0  0  0  0  0  0
   -1.4012    0.6897    0.8667 C   0  0  0  0  0  0  0  0  0  0  0  0
   -1.7293    2.1539    0.5606 C   0  0  0  0  0  0  0  0  0  0  0  0
   -2.3633   -0.1301    0.0328 C   0  0  0  0  0  0  0  0  0  0  0  0
   -3.6466    0.1346    0.5257 O   0  0  0  0  0  0  0  0  0  0  0  0
    4.3985   -0.9141   -1.9347 H   0  0  0  0  0  0  0  0  0  0  0  0
    4.5745   -2.4556   -1.0706 H   0  0  0  0  0  0  0  0  0  0  0  0
    5.0065   -0.8527   -0.2679 H   0  0  0  0  0  0  0  0  0  0  0  0
   -0.1679   -1.6905    0.0737 H   0  0  0  0  0  0  0  0  0  0  0  0
    0.4921   -1.1356    1.7037 H   0  0  0  0  0  0  0  0  0  0  0  0
    0.0172    0.7076   -0.7072 H   0  0  0  0  0  0  0  0  0  0  0  0
    0.6804    1.1315    0.9046 H   0  0  0  0  0  0  0  0  0  0  0  0
   -1.4808    0.4813    1.9469 H   0  0  0  0  0  0  0  0  0  0  0  0
   -1.2417    2.4786   -0.3800 H   0  0  0  0  0  0  0  0  0  0  0  0
   -2.8070    2.3332    0.4922 H   0  0  0  0  0  0  0  0  0  0  0  0
   -1.3015    2.8142    1.3609 H   0  0  0  0  0  0  0  0  0  0  0  0
   -2.1409   -1.1940    0.0070 H   0  0  0  0  0  0  0  0  0  0  0  0
   -2.3395    0.3323   -0.9936 H   0  0  0  0  0  0  0  0  0  0  0  0
   -4.0973   -0.6660    0.8379 H   0  0  0  0  0  0  0  0  0  0  0  0
  1  2  1  0
  2  3  3  0
  3  4  1  0
  4  5  1  0
  5  6  1  0
  6  7  1  0
  6  8  1  0
  8  9  1  0
  1 10  1  0
  1 11  1  0
  1 12  1  0
  4 13  1  0
  4 14  1  0
  5 15  1  0
  5 16  1  0
  6 17  1  0
  7 18  1  0
  7 19  1  0
  7 20  1  0
  8 21  1  0
  8 22  1  0
  9 23  1  0
M  END
