
     RDKit          3D

 18 18  0  0  0  0  0  0  0  0999 V2000
    3.0064    0.9716    1.7393 C   0  0  0  0  0  0  0  0  0  0  0  0
    1.8623    0.6558    0.8673 C   0  0  0  0  0  0  0  0  0  0  0  0
    0.9265    0.4093    0.1342 C   0  0  0  0  0  0  0  0  0  0  0  0
   -0.2067    0.1371   -0.7467 C   0  0  0  0  0  0  0  0  0  0  0  0
   -0.6737   -1.3030   -0.6368 C   0  0  0  0  0  0  0  0  0  0  0  0
   -2.1678   -1.1501   -0.7829 C   0  0  0  0  0  0  0  0  0  0  0  0
   -2.4584    0.1899   -0.8027 O   0  0  0  0  0  0  0  0  0  0  0  0
   -1.4232    0.8638   -0.1581 C   0  0  0  0  0  0  0  0  0  0  0  0
    2.8543    2.0167    2.0989 H   0  0  0  0  0  0  0  0  0  0  0  0
    3.9489    0.8405    1.1850 H   0  0  0  0  0  0  0  0  0  0  0  0
    3.0504    0.2703    2.6062 H   0  0  0  0  0  0  0  0  0  0  0  0
   -0.0285    0.4479   -1.7876 H   0  0  0  0  0  0  0  0  0  0  0  0
   -0.2250   -1.9609   -1.3809 H   0  0  0  0  0  0  0  0  0  0  0  0
   -0.4715   -1.6855    0.3626 H   0  0  0  0  0  0  0  0  0  0  0  0
   -2.7170   -1.6274    0.0519 H   0  0  0  0  0  0  0  0  0  0  0  0
   -2.4355   -1.6616   -1.7521 H   0  0  0  0  0  0  0  0  0  0  0  0
   -1.4382    0.6617    0.9225 H   0  0  0  0  0  0  0  0  0  0  0  0
   -1.4034    1.9240   -0.4209 H   0  0  0  0  0  0  0  0  0  0  0  0
  1  2  1  0
  2  3  3  0
  3  4  1  0
  4  5  1  0
  5  6  1  0
  6  7  1  0
  7  8  1  0
  8  4  1  0
  1  9  1  0
  1 10  1  0
  1 11  1  0
  4 12  1  0
  5 13  1  0
  5 14  1  0
  6 15  1  0
  6 16  1  0
  8 17  1  0
  8 18  1  0
M  END
