
     RDKit          3D

 21 21  0  0  0  0  0  0  0  0999 V2000
    3.5136    0.3600    1.3232 C   0  0  0  0  0  0  0  0  0  0  0  0
    2.2493    0.1722    0.5970 C   0  0  0  0  0  0  0  0  0  0  0  0
    1.2076    0.0323   -0.0173 C   0  0  0  0  0  0  0  0  0  0  0  0
   -0.0480   -0.1605   -0.7499 C   0  0  0  0  0  0  0  0  0  0  0  0
   -0.3895   -1.6528   -0.8628 C   0  0  0  0  0  0  0  0  0  0  0  0
   -1.8919   -1.6233   -0.8629 C   0  0  0  0  0  0  0  0  0  0  0  0
   -2.3107   -0.4942   -0.2992 C   0  0  0  0  0  0  0  0  0  0  0  0
   -1.1483    0.3322    0.1280 C   0  0  0  0  0  0  0  0  0  0  0  0
   -1.4272    1.8022   -0.0213 C   0  0  0  0  0  0  0  0  0  0  0  0
    3.2920    0.8602    2.2879 H   0  0  0  0  0  0  0  0  0  0  0  0
    3.9800   -0.6138    1.5859 H   0  0  0  0  0  0  0  0  0  0  0  0
    4.2432    0.9086    0.6993 H   0  0  0  0  0  0  0  0  0  0  0  0
   -0.0195    0.3015   -1.7492 H   0  0  0  0  0  0  0  0  0  0  0  0
   -0.0428   -2.1956    0.0286 H   0  0  0  0  0  0  0  0  0  0  0  0
   -0.0377   -2.0433   -1.8171 H   0  0  0  0  0  0  0  0  0  0  0  0
   -2.5467   -2.3722   -1.2461 H   0  0  0  0  0  0  0  0  0  0  0  0
   -3.3639   -0.2170   -0.1703 H   0  0  0  0  0  0  0  0  0  0  0  0
   -0.8873    0.0591    1.1790 H   0  0  0  0  0  0  0  0  0  0  0  0
   -1.2433    2.2803    0.9743 H   0  0  0  0  0  0  0  0  0  0  0  0
   -0.6663    2.2279   -0.7022 H   0  0  0  0  0  0  0  0  0  0  0  0
   -2.4626    2.0362   -0.3050 H   0  0  0  0  0  0  0  0  0  0  0  0
  1  2  1  0
  2  3  3  0
  3  4  1  0
  4  5  1  0
  5  6  1  0
  6  7  2  0
  7  8  1  0
  8  9  1  0
  8  4  1  0
  1 10  1  0
  1 11  1  0
  1 12  1  0
  4 13  1  0
  5 14  1  0
  5 15  1  0
  6 16  1  0
  7 17  1  0
  8 18  1  0
  9 19  1  0
  9 20  1  0
  9 21  1  0
M  END
