
     RDKit          3D

 17 17  0  0  0  0  0  0  0  0999 V2000
   -2.1430   -0.6315   -2.2671 C   0  0  0  0  0  0  0  0  0  0  0  0
   -1.2962   -0.5410   -1.2475 C   0  0  0  0  0  0  0  0  0  0  0  0
   -0.4540   -0.4706   -0.2168 C   0  0  0  0  0  0  0  0  0  0  0  0
    0.4455   -0.3944    0.9244 C   0  0  0  0  0  0  0  0  0  0  0  0
    0.1455   -1.3868    1.8381 O   0  0  0  0  0  0  0  0  0  0  0  0
    0.5839    1.0096    1.4889 C   0  0  0  0  0  0  0  0  0  0  0  0
    1.6159    1.1822    0.3664 C   0  0  0  0  0  0  0  0  0  0  0  0
    1.8973   -0.3207    0.5924 C   0  0  0  0  0  0  0  0  0  0  0  0
    2.8748   -0.9277    0.4921 O   0  0  0  0  0  0  0  0  0  0  0  0
   -3.1576   -1.0634   -2.0252 H   0  0  0  0  0  0  0  0  0  0  0  0
   -2.2429    0.3425   -2.8383 H   0  0  0  0  0  0  0  0  0  0  0  0
   -1.8023   -1.3526   -3.1126 H   0  0  0  0  0  0  0  0  0  0  0  0
   -0.7508   -1.2705    2.2203 H   0  0  0  0  0  0  0  0  0  0  0  0
   -0.3508    1.5636    1.3242 H   0  0  0  0  0  0  0  0  0  0  0  0
    1.0027    1.1091    2.4695 H   0  0  0  0  0  0  0  0  0  0  0  0
    1.1697    1.3581   -0.6044 H   0  0  0  0  0  0  0  0  0  0  0  0
    2.4622    1.7941    0.5954 H   0  0  0  0  0  0  0  0  0  0  0  0
  1  2  1  0
  2  3  3  0
  3  4  1  0
  4  5  1  0
  4  6  1  0
  6  7  1  0
  7  8  1  0
  8  9  2  0
  8  4  1  0
  1 10  1  0
  1 11  1  0
  1 12  1  0
  5 13  1  0
  6 14  1  0
  6 15  1  0
  7 16  1  0
  7 17  1  0
M  END
