
     RDKit          3D

 17 17  0  0  0  0  0  0  0  0999 V2000
    3.2107   -0.2228    0.5949 C   0  0  0  0  0  0  0  0  0  0  0  0
    1.7793   -0.1508    0.2849 C   0  0  0  0  0  0  0  0  0  0  0  0
    0.6022   -0.0951    0.0130 C   0  0  0  0  0  0  0  0  0  0  0  0
   -0.8330   -0.0325   -0.3391 C   0  0  0  0  0  0  0  0  0  0  0  0
   -1.1614   -0.5911   -1.6562 C   0  0  0  0  0  0  0  0  0  0  0  0
   -2.2143   -1.0981   -1.9575 O   0  0  0  0  0  0  0  0  0  0  0  0
   -1.4871    1.2925   -0.0112 C   0  0  0  0  0  0  0  0  0  0  0  0
   -2.5819    0.5985    0.4700 O   0  0  0  0  0  0  0  0  0  0  0  0
   -1.7145   -0.4518    0.8005 C   0  0  0  0  0  0  0  0  0  0  0  0
    3.7055   -0.8202   -0.2085 H   0  0  0  0  0  0  0  0  0  0  0  0
    3.3624   -0.6323    1.6018 H   0  0  0  0  0  0  0  0  0  0  0  0
    3.6895    0.7806    0.5505 H   0  0  0  0  0  0  0  0  0  0  0  0
   -0.3878   -0.5439   -2.4280 H   0  0  0  0  0  0  0  0  0  0  0  0
   -0.8710    1.8073    0.7762 H   0  0  0  0  0  0  0  0  0  0  0  0
   -1.6673    1.9061   -0.9172 H   0  0  0  0  0  0  0  0  0  0  0  0
   -1.2440   -0.2935    1.7768 H   0  0  0  0  0  0  0  0  0  0  0  0
   -2.1874   -1.4529    0.6491 H   0  0  0  0  0  0  0  0  0  0  0  0
  1  2  1  0
  2  3  3  0
  3  4  1  0
  4  5  1  0
  5  6  2  0
  4  7  1  0
  7  8  1  0
  8  9  1  0
  9  4  1  0
  1 10  1  0
  1 11  1  0
  1 12  1  0
  5 13  1  0
  7 14  1  0
  7 15  1  0
  9 16  1  0
  9 17  1  0
M  END
