
     RDKit          3D

 21 20  0  0  0  0  0  0  0  0999 V2000
    3.7775    0.8342    0.7189 C   0  0  0  0  0  0  0  0  0  0  0  0
    2.7821    0.2256   -0.2264 C   0  0  0  0  0  0  0  0  0  0  0  0
    2.0107   -0.2576   -0.9863 C   0  0  0  0  0  0  0  0  0  0  0  0
    1.0518   -0.8733   -1.9362 C   0  0  0  0  0  0  0  0  0  0  0  0
    0.0010   -1.6907   -1.2229 C   0  0  0  0  0  0  0  0  0  0  0  0
   -0.7777   -0.8292   -0.3437 C   0  0  0  0  0  0  0  0  0  0  0  0
   -1.4208   -0.0968    0.4148 C   0  0  0  0  0  0  0  0  0  0  0  0
   -2.1870    0.7603    1.2806 C   0  0  0  0  0  0  0  0  0  0  0  0
   -3.6721    0.7416    0.9891 C   0  0  0  0  0  0  0  0  0  0  0  0
    3.6442    1.9321    0.6972 H   0  0  0  0  0  0  0  0  0  0  0  0
    4.7679    0.5168    0.3245 H   0  0  0  0  0  0  0  0  0  0  0  0
    3.6326    0.4619    1.7523 H   0  0  0  0  0  0  0  0  0  0  0  0
    1.6547   -1.4901   -2.6471 H   0  0  0  0  0  0  0  0  0  0  0  0
    0.6147   -0.0285   -2.5155 H   0  0  0  0  0  0  0  0  0  0  0  0
    0.5888   -2.3658   -0.5140 H   0  0  0  0  0  0  0  0  0  0  0  0
   -0.5939   -2.3145   -1.8785 H   0  0  0  0  0  0  0  0  0  0  0  0
   -1.8234    1.8117    1.1080 H   0  0  0  0  0  0  0  0  0  0  0  0
   -1.9866    0.5386    2.3702 H   0  0  0  0  0  0  0  0  0  0  0  0
   -3.9377    1.6099    0.3363 H   0  0  0  0  0  0  0  0  0  0  0  0
   -4.2910    0.6816    1.9058 H   0  0  0  0  0  0  0  0  0  0  0  0
   -3.8360   -0.1679    0.3729 H   0  0  0  0  0  0  0  0  0  0  0  0
  1  2  1  0
  2  3  3  0
  3  4  1  0
  4  5  1  0
  5  6  1  0
  6  7  3  0
  7  8  1  0
  8  9  1  0
  1 10  1  0
  1 11  1  0
  1 12  1  0
  4 13  1  0
  4 14  1  0
  5 15  1  0
  5 16  1  0
  8 17  1  0
  8 18  1  0
  9 19  1  0
  9 20  1  0
  9 21  1  0
M  END
