
     RDKit          3D

 21 22  0  0  0  0  0  0  0  0999 V2000
    3.4428   -1.0118   -0.6318 C   0  0  0  0  0  0  0  0  0  0  0  0
    1.9949   -0.8025   -0.5917 C   0  0  0  0  0  0  0  0  0  0  0  0
    0.7969   -0.6326   -0.5793 C   0  0  0  0  0  0  0  0  0  0  0  0
   -0.6526   -0.4085   -0.5463 C   0  0  0  0  0  0  0  0  0  0  0  0
   -1.2559    0.6631   -1.3944 C   0  0  0  0  0  0  0  0  0  0  0  0
   -1.9998    1.2117   -0.1750 C   0  0  0  0  0  0  0  0  0  0  0  0
   -1.1913    0.2450    0.6632 C   0  0  0  0  0  0  0  0  0  0  0  0
   -0.3107    0.7491    1.7577 C   0  0  0  0  0  0  0  0  0  0  0  0
   -1.4661   -1.1811    0.4378 C   0  0  0  0  0  0  0  0  0  0  0  0
    3.7341   -1.7563   -1.3998 H   0  0  0  0  0  0  0  0  0  0  0  0
    3.9755   -0.0610   -0.9263 H   0  0  0  0  0  0  0  0  0  0  0  0
    3.8239   -1.2606    0.3721 H   0  0  0  0  0  0  0  0  0  0  0  0
   -0.5022    1.3796   -1.7770 H   0  0  0  0  0  0  0  0  0  0  0  0
   -1.9032    0.3407   -2.2221 H   0  0  0  0  0  0  0  0  0  0  0  0
   -3.0814    0.9552   -0.2742 H   0  0  0  0  0  0  0  0  0  0  0  0
   -1.8280    2.2706    0.0061 H   0  0  0  0  0  0  0  0  0  0  0  0
   -0.6082    1.7967    2.0165 H   0  0  0  0  0  0  0  0  0  0  0  0
   -0.4032    0.1530    2.6880 H   0  0  0  0  0  0  0  0  0  0  0  0
    0.7749    0.7682    1.4712 H   0  0  0  0  0  0  0  0  0  0  0  0
   -0.8913   -1.8965    1.0495 H   0  0  0  0  0  0  0  0  0  0  0  0
   -2.4493   -1.5219    0.0558 H   0  0  0  0  0  0  0  0  0  0  0  0
  1  2  1  0
  2  3  3  0
  3  4  1  0
  4  5  1  0
  5  6  1  0
  6  7  1  0
  7  8  1  0
  7  9  1  0
  7  4  1  0
  9  4  1  0
  1 10  1  0
  1 11  1  0
  1 12  1  0
  5 13  1  0
  5 14  1  0
  6 15  1  0
  6 16  1  0
  8 17  1  0
  8 18  1  0
  8 19  1  0
  9 20  1  0
  9 21  1  0
M  END
