
     RDKit          3D

 16 17  0  0  0  0  0  0  0  0999 V2000
    3.3557   -0.2795    0.1716 C   0  0  0  0  0  0  0  0  0  0  0  0
    1.8848   -0.1908   -0.0509 C   0  0  0  0  0  0  0  0  0  0  0  0
    0.7025   -0.1196   -0.2120 C   0  0  0  0  0  0  0  0  0  0  0  0
   -0.6269   -0.0507   -0.4087 C   0  0  0  0  0  0  0  0  0  0  0  0
   -1.6773   -0.7170    0.3783 C   0  0  0  0  0  0  0  0  0  0  0  0
   -2.3408    0.0157   -0.7534 C   0  0  0  0  0  0  0  0  0  0  0  0
   -1.4517    1.1829   -0.4247 C   0  0  0  0  0  0  0  0  0  0  0  0
   -1.2990   -0.4447   -1.5512 O   0  0  0  0  0  0  0  0  0  0  0  0
    3.6697    0.4085    0.9819 H   0  0  0  0  0  0  0  0  0  0  0  0
    3.6357   -1.3035    0.4816 H   0  0  0  0  0  0  0  0  0  0  0  0
    3.8867    0.0307   -0.7452 H   0  0  0  0  0  0  0  0  0  0  0  0
   -1.8389   -0.2714    1.3937 H   0  0  0  0  0  0  0  0  0  0  0  0
   -1.7168   -1.8141    0.3271 H   0  0  0  0  0  0  0  0  0  0  0  0
   -3.3190    0.0379   -0.9780 H   0  0  0  0  0  0  0  0  0  0  0  0
   -1.6730    1.6662    0.5318 H   0  0  0  0  0  0  0  0  0  0  0  0
   -1.1916    1.8494   -1.2651 H   0  0  0  0  0  0  0  0  0  0  0  0
  1  2  1  0
  2  3  3  0
  3  4  1  0
  4  5  1  0
  5  6  1  0
  6  7  1  0
  6  8  1  0
  7  4  1  0
  8  4  1  0
  1  9  1  0
  1 10  1  0
  1 11  1  0
  5 12  1  0
  5 13  1  0
  6 14  1  0
  7 15  1  0
  7 16  1  0
M  END
