
     RDKit          3D

 21 21  0  0  0  0  0  0  0  0999 V2000
    3.5057    0.7047    0.4422 C   0  0  0  0  0  0  0  0  0  0  0  0
    2.1953    0.0490    0.3592 C   0  0  0  0  0  0  0  0  0  0  0  0
    1.1022   -0.4865    0.2717 C   0  0  0  0  0  0  0  0  0  0  0  0
   -0.2131   -1.1267    0.1824 C   0  0  0  0  0  0  0  0  0  0  0  0
   -0.8577   -0.8914   -1.1657 C   0  0  0  0  0  0  0  0  0  0  0  0
   -1.7910    0.3072   -1.1269 C   0  0  0  0  0  0  0  0  0  0  0  0
   -1.4446    1.2397    0.0114 C   0  0  0  0  0  0  0  0  0  0  0  0
   -1.4857    0.6365    1.2365 O   0  0  0  0  0  0  0  0  0  0  0  0
   -1.1189   -0.6724    1.2961 C   0  0  0  0  0  0  0  0  0  0  0  0
    3.8154    0.9401   -0.5853 H   0  0  0  0  0  0  0  0  0  0  0  0
    4.2526    0.0520    0.9591 H   0  0  0  0  0  0  0  0  0  0  0  0
    3.4469    1.6816    0.9855 H   0  0  0  0  0  0  0  0  0  0  0  0
   -0.0420   -2.2188    0.2798 H   0  0  0  0  0  0  0  0  0  0  0  0
   -1.4225   -1.8000   -1.4484 H   0  0  0  0  0  0  0  0  0  0  0  0
   -0.0906   -0.7294   -1.9367 H   0  0  0  0  0  0  0  0  0  0  0  0
   -2.8170   -0.0906   -1.0117 H   0  0  0  0  0  0  0  0  0  0  0  0
   -1.7183    0.8573   -2.0706 H   0  0  0  0  0  0  0  0  0  0  0  0
   -2.2099    2.0476    0.0003 H   0  0  0  0  0  0  0  0  0  0  0  0
   -0.4776    1.7386   -0.2112 H   0  0  0  0  0  0  0  0  0  0  0  0
   -2.0364   -1.2958    1.2775 H   0  0  0  0  0  0  0  0  0  0  0  0
   -0.5925   -0.9426    2.2549 H   0  0  0  0  0  0  0  0  0  0  0  0
  1  2  1  0
  2  3  3  0
  3  4  1  0
  4  5  1  0
  5  6  1  0
  6  7  1  0
  7  8  1  0
  8  9  1  0
  9  4  1  0
  1 10  1  0
  1 11  1  0
  1 12  1  0
  4 13  1  0
  5 14  1  0
  5 15  1  0
  6 16  1  0
  6 17  1  0
  7 18  1  0
  7 19  1  0
  9 20  1  0
  9 21  1  0
M  END
