
     RDKit          3D

 21 22  0  0  0  0  0  0  0  0999 V2000
    3.5426   -0.6372    0.3688 C   0  0  0  0  0  0  0  0  0  0  0  0
    2.2187   -0.0966    0.0588 C   0  0  0  0  0  0  0  0  0  0  0  0
    1.1354    0.3286   -0.2056 C   0  0  0  0  0  0  0  0  0  0  0  0
   -0.1684    0.8500   -0.5006 C   0  0  0  0  0  0  0  0  0  0  0  0
   -0.9960   -0.2237   -1.2381 C   0  0  0  0  0  0  0  0  0  0  0  0
   -2.0511   -0.6462   -0.1914 C   0  0  0  0  0  0  0  0  0  0  0  0
   -1.2433   -0.3931    1.0174 C   0  0  0  0  0  0  0  0  0  0  0  0
   -1.1612    0.6416    1.9596 C   0  0  0  0  0  0  0  0  0  0  0  0
   -1.0368    1.1369    0.6528 C   0  0  0  0  0  0  0  0  0  0  0  0
    3.8812   -0.2198    1.3465 H   0  0  0  0  0  0  0  0  0  0  0  0
    4.2778   -0.4114   -0.4392 H   0  0  0  0  0  0  0  0  0  0  0  0
    3.4277   -1.7429    0.4435 H   0  0  0  0  0  0  0  0  0  0  0  0
   -0.1050    1.7224   -1.2032 H   0  0  0  0  0  0  0  0  0  0  0  0
   -1.4552    0.1667   -2.1414 H   0  0  0  0  0  0  0  0  0  0  0  0
   -0.3758   -1.1411   -1.3965 H   0  0  0  0  0  0  0  0  0  0  0  0
   -2.3854   -1.6726   -0.3497 H   0  0  0  0  0  0  0  0  0  0  0  0
   -2.8879    0.1066   -0.2753 H   0  0  0  0  0  0  0  0  0  0  0  0
   -0.3011   -1.0262    0.9336 H   0  0  0  0  0  0  0  0  0  0  0  0
   -0.2708    0.7173    2.6441 H   0  0  0  0  0  0  0  0  0  0  0  0
   -2.0800    0.8729    2.5737 H   0  0  0  0  0  0  0  0  0  0  0  0
   -1.9655    1.6676    0.2656 H   0  0  0  0  0  0  0  0  0  0  0  0
  1  2  1  0
  2  3  3  0
  3  4  1  0
  4  5  1  0
  5  6  1  0
  6  7  1  0
  7  8  1  0
  8  9  1  0
  9  4  1  0
  9  7  1  0
  1 10  1  0
  1 11  1  0
  1 12  1  0
  4 13  1  0
  5 14  1  0
  5 15  1  0
  6 16  1  0
  6 17  1  0
  7 18  1  0
  8 19  1  0
  8 20  1  0
  9 21  1  0
M  END
