
     RDKit          3D

 15 14  0  0  0  0  0  0  0  0999 V2000
    2.9735    1.3467    0.9385 C   0  0  0  0  0  0  0  0  0  0  0  0
    2.0832    0.3585    0.3309 C   0  0  0  0  0  0  0  0  0  0  0  0
    1.3454   -0.4641   -0.1973 C   0  0  0  0  0  0  0  0  0  0  0  0
    0.4476   -1.4286   -0.8356 C   0  0  0  0  0  0  0  0  0  0  0  0
   -0.9171   -0.8841   -0.7083 C   0  0  0  0  0  0  0  0  0  0  0  0
   -2.0390   -0.4432   -0.6210 C   0  0  0  0  0  0  0  0  0  0  0  0
   -3.4170    0.0783   -0.5320 C   0  0  0  0  0  0  0  0  0  0  0  0
    3.9290    1.4557    0.3987 H   0  0  0  0  0  0  0  0  0  0  0  0
    2.4994    2.3528    1.0031 H   0  0  0  0  0  0  0  0  0  0  0  0
    3.1700    1.0279    1.9715 H   0  0  0  0  0  0  0  0  0  0  0  0
    0.6927   -1.5471   -1.9285 H   0  0  0  0  0  0  0  0  0  0  0  0
    0.5354   -2.4348   -0.3758 H   0  0  0  0  0  0  0  0  0  0  0  0
   -3.7699    0.3602   -1.5561 H   0  0  0  0  0  0  0  0  0  0  0  0
   -4.0559   -0.7149   -0.1387 H   0  0  0  0  0  0  0  0  0  0  0  0
   -3.4774    0.9368    0.1735 H   0  0  0  0  0  0  0  0  0  0  0  0
  1  2  1  0
  2  3  3  0
  3  4  1  0
  4  5  1  0
  5  6  3  0
  6  7  1  0
  1  8  1  0
  1  9  1  0
  1 10  1  0
  4 11  1  0
  4 12  1  0
  7 13  1  0
  7 14  1  0
  7 15  1  0
M  END
