
     RDKit          3D

 19 19  0  0  0  0  0  0  0  0999 V2000
   -3.5535   -0.6802    0.7922 C   0  0  0  0  0  0  0  0  0  0  0  0
   -2.1355   -0.6665    0.4218 C   0  0  0  0  0  0  0  0  0  0  0  0
   -0.9680   -0.6532    0.1195 C   0  0  0  0  0  0  0  0  0  0  0  0
    0.4439   -0.6555   -0.2622 C   0  0  0  0  0  0  0  0  0  0  0  0
    0.7395    0.2801   -1.4157 C   0  0  0  0  0  0  0  0  0  0  0  0
    2.0265    0.6577   -0.6703 C   0  0  0  0  0  0  0  0  0  0  0  0
    2.3875    1.9712   -0.7894 O   0  0  0  0  0  0  0  0  0  0  0  0
    1.3154    0.2642    0.6046 C   0  0  0  0  0  0  0  0  0  0  0  0
    2.0638   -0.5275    1.4712 O   0  0  0  0  0  0  0  0  0  0  0  0
   -3.7116   -0.3611    1.8511 H   0  0  0  0  0  0  0  0  0  0  0  0
   -4.0430    0.1151    0.1689 H   0  0  0  0  0  0  0  0  0  0  0  0
   -4.0372   -1.6586    0.5774 H   0  0  0  0  0  0  0  0  0  0  0  0
    0.9033   -1.6359   -0.4009 H   0  0  0  0  0  0  0  0  0  0  0  0
    0.9246   -0.1991   -2.3848 H   0  0  0  0  0  0  0  0  0  0  0  0
    0.0553    1.1250   -1.5263 H   0  0  0  0  0  0  0  0  0  0  0  0
    2.8455   -0.0825   -0.8629 H   0  0  0  0  0  0  0  0  0  0  0  0
    2.5343    2.4190    0.0822 H   0  0  0  0  0  0  0  0  0  0  0  0
    0.7583    1.0686    1.1043 H   0  0  0  0  0  0  0  0  0  0  0  0
    1.4510   -0.7809    2.2112 H   0  0  0  0  0  0  0  0  0  0  0  0
  1  2  1  0
  2  3  3  0
  3  4  1  0
  4  5  1  0
  5  6  1  0
  6  7  1  0
  6  8  1  0
  8  9  1  0
  8  4  1  0
  1 10  1  0
  1 11  1  0
  1 12  1  0
  4 13  1  0
  5 14  1  0
  5 15  1  0
  6 16  1  0
  7 17  1  0
  8 18  1  0
  9 19  1  0
M  END
