
     RDKit          3D

 17 18  0  0  0  0  0  0  0  0999 V2000
    3.5016    0.3242    0.1300 C   0  0  0  0  0  0  0  0  0  0  0  0
    2.0674   -0.0108   -0.0494 C   0  0  0  0  0  0  0  0  0  0  0  0
    0.9250   -0.2873   -0.2111 C   0  0  0  0  0  0  0  0  0  0  0  0
   -0.4749   -0.6132   -0.4044 C   0  0  0  0  0  0  0  0  0  0  0  0
   -1.3488   -0.9397    0.7671 C   0  0  0  0  0  0  0  0  0  0  0  0
   -2.5810   -0.3731    0.5682 O   0  0  0  0  0  0  0  0  0  0  0  0
   -2.4866    0.5948   -0.3971 C   0  0  0  0  0  0  0  0  0  0  0  0
   -1.2870    0.3419   -1.2368 C   0  0  0  0  0  0  0  0  0  0  0  0
   -0.9405   -0.9198   -1.6619 O   0  0  0  0  0  0  0  0  0  0  0  0
    3.6474    0.9417    1.0491 H   0  0  0  0  0  0  0  0  0  0  0  0
    3.8591    0.8275   -0.7862 H   0  0  0  0  0  0  0  0  0  0  0  0
    4.0926   -0.6152    0.3126 H   0  0  0  0  0  0  0  0  0  0  0  0
   -1.4901   -2.0562    0.8113 H   0  0  0  0  0  0  0  0  0  0  0  0
   -0.8563   -0.6418    1.7180 H   0  0  0  0  0  0  0  0  0  0  0  0
   -3.4424    0.5974   -0.9681 H   0  0  0  0  0  0  0  0  0  0  0  0
   -2.3966    1.5990    0.0783 H   0  0  0  0  0  0  0  0  0  0  0  0
   -0.7887    1.2304   -1.6672 H   0  0  0  0  0  0  0  0  0  0  0  0
  1  2  1  0
  2  3  3  0
  3  4  1  0
  4  5  1  0
  5  6  1  0
  6  7  1  0
  7  8  1  0
  8  9  1  0
  8  4  1  0
  9  4  1  0
  1 10  1  0
  1 11  1  0
  1 12  1  0
  5 13  1  0
  5 14  1  0
  7 15  1  0
  7 16  1  0
  8 17  1  0
M  END
