
     RDKit          3D

 19 19  0  0  0  0  0  0  0  0999 V2000
    3.6655   -0.5620   -0.0577 C   0  0  0  0  0  0  0  0  0  0  0  0
    2.2066   -0.3760   -0.0411 C   0  0  0  0  0  0  0  0  0  0  0  0
    1.0108   -0.2254   -0.0072 C   0  0  0  0  0  0  0  0  0  0  0  0
   -0.4588   -0.0154    0.0267 C   0  0  0  0  0  0  0  0  0  0  0  0
   -1.1679   -1.1494    0.2979 O   0  0  0  0  0  0  0  0  0  0  0  0
   -2.5275   -1.0195    0.3438 C   0  0  0  0  0  0  0  0  0  0  0  0
   -0.7535    1.2321    0.7797 C   0  0  0  0  0  0  0  0  0  0  0  0
   -0.4998    1.9482   -0.3910 O   0  0  0  0  0  0  0  0  0  0  0  0
   -0.8696    0.8267   -1.1425 C   0  0  0  0  0  0  0  0  0  0  0  0
    4.0772   -0.1753    0.8954 H   0  0  0  0  0  0  0  0  0  0  0  0
    4.0545   -0.0323   -0.9490 H   0  0  0  0  0  0  0  0  0  0  0  0
    3.9491   -1.6321   -0.1277 H   0  0  0  0  0  0  0  0  0  0  0  0
   -2.9983   -0.6603   -0.5895 H   0  0  0  0  0  0  0  0  0  0  0  0
   -2.9396   -2.0595    0.4962 H   0  0  0  0  0  0  0  0  0  0  0  0
   -2.8016   -0.4367    1.2370 H   0  0  0  0  0  0  0  0  0  0  0  0
   -0.0724    1.4611    1.6242 H   0  0  0  0  0  0  0  0  0  0  0  0
   -1.8086    1.3297    1.0868 H   0  0  0  0  0  0  0  0  0  0  0  0
   -0.1649    0.7389   -2.0106 H   0  0  0  0  0  0  0  0  0  0  0  0
   -1.9011    0.8070   -1.4714 H   0  0  0  0  0  0  0  0  0  0  0  0
  1  2  1  0
  2  3  3  0
  3  4  1  0
  4  5  1  0
  5  6  1  0
  4  7  1  0
  7  8  1  0
  8  9  1  0
  9  4  1  0
  1 10  1  0
  1 11  1  0
  1 12  1  0
  6 13  1  0
  6 14  1  0
  6 15  1  0
  7 16  1  0
  7 17  1  0
  9 18  1  0
  9 19  1  0
M  END
