
     RDKit          3D

 21 21  0  0  0  0  0  0  0  0999 V2000
    3.5251    1.6289   -0.4099 C   0  0  0  0  0  0  0  0  0  0  0  0
    2.2497    0.9575   -0.6717 C   0  0  0  0  0  0  0  0  0  0  0  0
    1.1986    0.4000   -0.8694 C   0  0  0  0  0  0  0  0  0  0  0  0
   -0.0961   -0.2780   -1.1367 C   0  0  0  0  0  0  0  0  0  0  0  0
   -1.2767    0.5842   -0.9068 C   0  0  0  0  0  0  0  0  0  0  0  0
   -0.9915   -0.6039   -0.0076 C   0  0  0  0  0  0  0  0  0  0  0  0
   -1.8873   -1.8312   -0.1607 C   0  0  0  0  0  0  0  0  0  0  0  0
   -0.6496   -0.2867    1.4051 C   0  0  0  0  0  0  0  0  0  0  0  0
   -1.6944   -0.7158    2.2490 O   0  0  0  0  0  0  0  0  0  0  0  0
    4.3445    1.2028   -1.0523 H   0  0  0  0  0  0  0  0  0  0  0  0
    3.3841    2.6998   -0.5758 H   0  0  0  0  0  0  0  0  0  0  0  0
    3.8682    1.4554    0.6409 H   0  0  0  0  0  0  0  0  0  0  0  0
   -0.1515   -0.9558   -2.0134 H   0  0  0  0  0  0  0  0  0  0  0  0
   -1.1943    1.6061   -0.5136 H   0  0  0  0  0  0  0  0  0  0  0  0
   -2.1666    0.4346   -1.5776 H   0  0  0  0  0  0  0  0  0  0  0  0
   -2.5438   -1.7049   -1.0439 H   0  0  0  0  0  0  0  0  0  0  0  0
   -2.5127   -1.9151    0.7276 H   0  0  0  0  0  0  0  0  0  0  0  0
   -1.2218   -2.7146   -0.2471 H   0  0  0  0  0  0  0  0  0  0  0  0
    0.2858   -0.7631    1.7600 H   0  0  0  0  0  0  0  0  0  0  0  0
   -0.5416    0.8095    1.5088 H   0  0  0  0  0  0  0  0  0  0  0  0
   -1.9284   -0.0096    2.8951 H   0  0  0  0  0  0  0  0  0  0  0  0
  1  2  1  0
  2  3  3  0
  3  4  1  0
  4  5  1  0
  5  6  1  0
  6  7  1  0
  6  8  1  0
  8  9  1  0
  6  4  1  0
  1 10  1  0
  1 11  1  0
  1 12  1  0
  4 13  1  0
  5 14  1  0
  5 15  1  0
  7 16  1  0
  7 17  1  0
  7 18  1  0
  8 19  1  0
  8 20  1  0
  9 21  1  0
M  END
