
     RDKit          3D

 17 18  0  0  0  0  0  0  0  0999 V2000
    3.5704    0.4106   -0.7723 C   0  0  0  0  0  0  0  0  0  0  0  0
    2.2088    0.5171   -0.2479 C   0  0  0  0  0  0  0  0  0  0  0  0
    1.0621    0.6112    0.1735 C   0  0  0  0  0  0  0  0  0  0  0  0
   -0.3132    0.6993    0.6710 C   0  0  0  0  0  0  0  0  0  0  0  0
   -1.2348    1.3289   -0.3154 O   0  0  0  0  0  0  0  0  0  0  0  0
   -1.3501    0.0209    0.1271 C   0  0  0  0  0  0  0  0  0  0  0  0
   -1.5287   -1.0115   -0.8863 C   0  0  0  0  0  0  0  0  0  0  0  0
   -2.4998   -1.6172   -0.0917 O   0  0  0  0  0  0  0  0  0  0  0  0
   -2.6066   -0.5012    0.7078 C   0  0  0  0  0  0  0  0  0  0  0  0
    4.1791    1.3023   -0.4767 H   0  0  0  0  0  0  0  0  0  0  0  0
    4.0081   -0.5013   -0.3345 H   0  0  0  0  0  0  0  0  0  0  0  0
    3.5702    0.4028   -1.8891 H   0  0  0  0  0  0  0  0  0  0  0  0
   -0.4530    1.2922    1.6250 H   0  0  0  0  0  0  0  0  0  0  0  0
   -0.7168   -1.7487   -1.0751 H   0  0  0  0  0  0  0  0  0  0  0  0
   -1.9285   -0.7054   -1.8887 H   0  0  0  0  0  0  0  0  0  0  0  0
   -2.5077   -0.6888    1.8003 H   0  0  0  0  0  0  0  0  0  0  0  0
   -3.4596    0.1888    0.5035 H   0  0  0  0  0  0  0  0  0  0  0  0
  1  2  1  0
  2  3  3  0
  3  4  1  0
  4  5  1  0
  5  6  1  0
  6  7  1  0
  7  8  1  0
  8  9  1  0
  6  4  1  0
  9  6  1  0
  1 10  1  0
  1 11  1  0
  1 12  1  0
  4 13  1  0
  7 14  1  0
  7 15  1  0
  9 16  1  0
  9 17  1  0
M  END
