
     RDKit          3D

 17 17  0  0  0  0  0  0  0  0999 V2000
    2.5307    0.4772   -2.2336 C   0  0  0  0  0  0  0  0  0  0  0  0
    1.4563    0.2974   -1.2549 C   0  0  0  0  0  0  0  0  0  0  0  0
    0.5760    0.1485   -0.4413 C   0  0  0  0  0  0  0  0  0  0  0  0
   -0.4855   -0.0308    0.5741 C   0  0  0  0  0  0  0  0  0  0  0  0
   -0.7642    1.1927    1.3828 C   0  0  0  0  0  0  0  0  0  0  0  0
   -0.2193   -1.1205    1.4144 O   0  0  0  0  0  0  0  0  0  0  0  0
   -1.5127   -1.6284    1.1630 C   0  0  0  0  0  0  0  0  0  0  0  0
   -1.6294   -0.7388   -0.0029 C   0  0  0  0  0  0  0  0  0  0  0  0
   -2.3132   -0.5959   -0.9994 O   0  0  0  0  0  0  0  0  0  0  0  0
    3.5040    0.6307   -1.7184 H   0  0  0  0  0  0  0  0  0  0  0  0
    2.2855    1.3422   -2.9091 H   0  0  0  0  0  0  0  0  0  0  0  0
    2.5580   -0.4544   -2.8425 H   0  0  0  0  0  0  0  0  0  0  0  0
   -1.7906    1.5785    1.2826 H   0  0  0  0  0  0  0  0  0  0  0  0
   -0.6039    1.0171    2.4821 H   0  0  0  0  0  0  0  0  0  0  0  0
    0.0063    1.9604    1.1100 H   0  0  0  0  0  0  0  0  0  0  0  0
   -1.4414   -2.7153    0.9562 H   0  0  0  0  0  0  0  0  0  0  0  0
   -2.1566   -1.3604    2.0368 H   0  0  0  0  0  0  0  0  0  0  0  0
  1  2  1  0
  2  3  3  0
  3  4  1  0
  4  5  1  0
  4  6  1  0
  6  7  1  0
  7  8  1  0
  8  9  2  0
  8  4  1  0
  1 10  1  0
  1 11  1  0
  1 12  1  0
  5 13  1  0
  5 14  1  0
  5 15  1  0
  7 16  1  0
  7 17  1  0
M  END
