
     RDKit          3D

 21 20  0  0  0  0  0  0  0  0999 V2000
    3.1554   -1.6614    0.6735 C   0  0  0  0  0  0  0  0  0  0  0  0
    2.1104   -0.8221    0.1896 C   0  0  0  0  0  0  0  0  0  0  0  0
    1.1896   -0.0568   -0.2442 C   0  0  0  0  0  0  0  0  0  0  0  0
    0.1795    0.8018   -0.7313 C   0  0  0  0  0  0  0  0  0  0  0  0
   -0.1965    1.8238    0.3605 C   0  0  0  0  0  0  0  0  0  0  0  0
   -0.9567    0.2330   -1.4168 C   0  0  0  0  0  0  0  0  0  0  0  0
   -1.8727   -0.7487   -0.8284 C   0  0  0  0  0  0  0  0  0  0  0  0
   -2.3923   -0.0728    0.4662 C   0  0  0  0  0  0  0  0  0  0  0  0
   -2.2746   -0.7426    1.4590 O   0  0  0  0  0  0  0  0  0  0  0  0
    2.8317   -2.7633    0.6428 H   0  0  0  0  0  0  0  0  0  0  0  0
    4.1345   -1.6270    0.1803 H   0  0  0  0  0  0  0  0  0  0  0  0
    3.3414   -1.3934    1.7821 H   0  0  0  0  0  0  0  0  0  0  0  0
    0.6415    1.5486   -1.5315 H   0  0  0  0  0  0  0  0  0  0  0  0
   -0.3546    1.2924    1.3146 H   0  0  0  0  0  0  0  0  0  0  0  0
    0.6859    2.5191    0.4680 H   0  0  0  0  0  0  0  0  0  0  0  0
   -1.0334    2.4354    0.0191 H   0  0  0  0  0  0  0  0  0  0  0  0
   -0.5920   -0.1956   -2.3988 H   0  0  0  0  0  0  0  0  0  0  0  0
   -1.6510    1.1342   -1.6608 H   0  0  0  0  0  0  0  0  0  0  0  0
   -1.3945   -1.6921   -0.5683 H   0  0  0  0  0  0  0  0  0  0  0  0
   -2.7595   -0.9006   -1.4740 H   0  0  0  0  0  0  0  0  0  0  0  0
   -2.7919    0.8880    0.4018 H   0  0  0  0  0  0  0  0  0  0  0  0
  1  2  1  0
  2  3  3  0
  3  4  1  0
  4  5  1  0
  4  6  1  0
  6  7  1  0
  7  8  1  0
  8  9  2  0
  1 10  1  0
  1 11  1  0
  1 12  1  0
  4 13  1  0
  5 14  1  0
  5 15  1  0
  5 16  1  0
  6 17  1  0
  6 18  1  0
  7 19  1  0
  7 20  1  0
  8 21  1  0
M  END
