
     RDKit          3D

 19 18  0  0  0  0  0  0  0  0999 V2000
    3.2634   -1.4805   -0.0333 C   0  0  0  0  0  0  0  0  0  0  0  0
    1.9149   -0.9674   -0.2892 C   0  0  0  0  0  0  0  0  0  0  0  0
    0.8079   -0.5240   -0.5047 C   0  0  0  0  0  0  0  0  0  0  0  0
   -0.5376    0.0411   -0.7592 C   0  0  0  0  0  0  0  0  0  0  0  0
   -0.3476    1.5539   -0.7002 C   0  0  0  0  0  0  0  0  0  0  0  0
    0.1343    1.8212    0.5963 O   0  0  0  0  0  0  0  0  0  0  0  0
   -1.5085   -0.3971    0.3080 C   0  0  0  0  0  0  0  0  0  0  0  0
   -2.8616    0.1258    0.1141 C   0  0  0  0  0  0  0  0  0  0  0  0
   -3.1672    0.8287   -0.8069 O   0  0  0  0  0  0  0  0  0  0  0  0
    3.3280   -2.0770    0.8900 H   0  0  0  0  0  0  0  0  0  0  0  0
    3.9290   -0.5824    0.0507 H   0  0  0  0  0  0  0  0  0  0  0  0
    3.5332   -2.1096   -0.9041 H   0  0  0  0  0  0  0  0  0  0  0  0
   -0.8306   -0.2804   -1.7660 H   0  0  0  0  0  0  0  0  0  0  0  0
   -1.2375    2.1238   -0.9568 H   0  0  0  0  0  0  0  0  0  0  0  0
    0.4778    1.8632   -1.3815 H   0  0  0  0  0  0  0  0  0  0  0  0
   -0.6175    1.9173    1.2165 H   0  0  0  0  0  0  0  0  0  0  0  0
   -1.0924   -0.1990    1.3058 H   0  0  0  0  0  0  0  0  0  0  0  0
   -1.5680   -1.5202    0.2260 H   0  0  0  0  0  0  0  0  0  0  0  0
   -3.6199   -0.1375    0.8400 H   0  0  0  0  0  0  0  0  0  0  0  0
  1  2  1  0
  2  3  3  0
  3  4  1  0
  4  5  1  0
  5  6  1  0
  4  7  1  0
  7  8  1  0
  8  9  2  0
  1 10  1  0
  1 11  1  0
  1 12  1  0
  4 13  1  0
  5 14  1  0
  5 15  1  0
  6 16  1  0
  7 17  1  0
  7 18  1  0
  8 19  1  0
M  END
