
     RDKit          3D

 23 22  0  0  0  0  0  0  0  0999 V2000
    3.1569   -2.0927    2.0699 C   0  0  0  0  0  0  0  0  0  0  0  0
    2.6279   -1.2577    1.3308 C   0  0  0  0  0  0  0  0  0  0  0  0
    2.0274   -0.3080    0.5007 C   0  0  0  0  0  0  0  0  0  0  0  0
    1.4076    0.7184   -0.3747 C   0  0  0  0  0  0  0  0  0  0  0  0
   -0.0166    0.1334   -0.4744 C   0  0  0  0  0  0  0  0  0  0  0  0
   -0.4354    0.0131    0.9028 O   0  0  0  0  0  0  0  0  0  0  0  0
   -0.8799    1.1492   -1.1529 C   0  0  0  0  0  0  0  0  0  0  0  0
   -2.2821    0.7592   -1.4551 C   0  0  0  0  0  0  0  0  0  0  0  0
   -3.1294    0.4187   -0.3002 C   0  0  0  0  0  0  0  0  0  0  0  0
    3.7342   -3.0096    1.5669 H   0  0  0  0  0  0  0  0  0  0  0  0
    4.0832   -1.6923    2.7293 H   0  0  0  0  0  0  0  0  0  0  0  0
    2.5705   -2.7006    2.8408 H   0  0  0  0  0  0  0  0  0  0  0  0
    1.8485    0.6695   -1.3712 H   0  0  0  0  0  0  0  0  0  0  0  0
    1.4405    1.7211    0.0356 H   0  0  0  0  0  0  0  0  0  0  0  0
   -0.0637   -0.8428   -0.8994 H   0  0  0  0  0  0  0  0  0  0  0  0
    0.3356    0.3043    1.4986 H   0  0  0  0  0  0  0  0  0  0  0  0
   -0.4041    1.4874   -2.1329 H   0  0  0  0  0  0  0  0  0  0  0  0
   -0.8248    2.0933   -0.5300 H   0  0  0  0  0  0  0  0  0  0  0  0
   -2.7614    1.4888   -2.1716 H   0  0  0  0  0  0  0  0  0  0  0  0
   -2.1821   -0.1924   -2.1364 H   0  0  0  0  0  0  0  0  0  0  0  0
   -3.7630    1.3501   -0.0851 H   0  0  0  0  0  0  0  0  0  0  0  0
   -3.8732   -0.4183   -0.5616 H   0  0  0  0  0  0  0  0  0  0  0  0
   -2.6167    0.2080    0.6077 H   0  0  0  0  0  0  0  0  0  0  0  0
  1  2  1  0
  2  3  3  0
  3  4  1  0
  4  5  1  0
  5  6  1  0
  5  7  1  0
  7  8  1  0
  8  9  1  0
  1 10  1  0
  1 11  1  0
  1 12  1  0
  4 13  1  0
  4 14  1  0
  5 15  1  0
  6 16  1  0
  7 17  1  0
  7 18  1  0
  8 19  1  0
  8 20  1  0
  9 21  1  0
  9 22  1  0
  9 23  1  0
M  END
