
     RDKit          3D

 23 23  0  0  0  0  0  0  0  0999 V2000
   -4.6014   -1.3698    0.7930 C   0  0  0  0  0  0  0  0  0  0  0  0
   -3.3155   -0.6516    0.7192 C   0  0  0  0  0  0  0  0  0  0  0  0
   -2.2592   -0.0704    0.6784 C   0  0  0  0  0  0  0  0  0  0  0  0
   -0.9644    0.6312    0.6517 C   0  0  0  0  0  0  0  0  0  0  0  0
   -0.6402    1.3868   -0.6588 C   0  0  0  0  0  0  0  0  0  0  0  0
    0.0989    0.1543   -0.2584 C   0  0  0  0  0  0  0  0  0  0  0  0
    1.5309    0.3779    0.1731 C   0  0  0  0  0  0  0  0  0  0  0  0
    2.5103   -0.1573   -0.8492 C   0  0  0  0  0  0  0  0  0  0  0  0
    3.9227    0.0915   -0.3692 C   0  0  0  0  0  0  0  0  0  0  0  0
   -4.7836   -1.9596   -0.1483 H   0  0  0  0  0  0  0  0  0  0  0  0
   -4.5577   -2.0609    1.6754 H   0  0  0  0  0  0  0  0  0  0  0  0
   -5.4604   -0.6651    0.8640 H   0  0  0  0  0  0  0  0  0  0  0  0
   -0.6500    1.1018    1.5978 H   0  0  0  0  0  0  0  0  0  0  0  0
   -1.4359    1.3655   -1.4054 H   0  0  0  0  0  0  0  0  0  0  0  0
   -0.1961    2.3897   -0.4998 H   0  0  0  0  0  0  0  0  0  0  0  0
   -0.1232   -0.7326   -0.9053 H   0  0  0  0  0  0  0  0  0  0  0  0
    1.6990    1.4489    0.3829 H   0  0  0  0  0  0  0  0  0  0  0  0
    1.7211   -0.1537    1.1464 H   0  0  0  0  0  0  0  0  0  0  0  0
    2.3208   -1.2112   -1.0962 H   0  0  0  0  0  0  0  0  0  0  0  0
    2.3713    0.4779   -1.7655 H   0  0  0  0  0  0  0  0  0  0  0  0
    4.2416   -0.6341    0.3948 H   0  0  0  0  0  0  0  0  0  0  0  0
    3.9299    1.1088    0.0859 H   0  0  0  0  0  0  0  0  0  0  0  0
    4.6414    0.1201   -1.2065 H   0  0  0  0  0  0  0  0  0  0  0  0
  1  2  1  0
  2  3  3  0
  3  4  1  0
  4  5  1  0
  5  6  1  0
  6  7  1  0
  7  8  1  0
  8  9  1  0
  6  4  1  0
  1 10  1  0
  1 11  1  0
  1 12  1  0
  4 13  1  0
  5 14  1  0
  5 15  1  0
  6 16  1  0
  7 17  1  0
  7 18  1  0
  8 19  1  0
  8 20  1  0
  9 21  1  0
  9 22  1  0
  9 23  1  0
M  END
