
     RDKit          3D

 14 13  0  0  0  0  0  0  0  0999 V2000
    3.2273   -0.6524    0.0745 C   0  0  0  0  0  0  0  0  0  0  0  0
    1.8092   -0.2970    0.0123 C   0  0  0  0  0  0  0  0  0  0  0  0
    0.6212   -0.0019   -0.0236 C   0  0  0  0  0  0  0  0  0  0  0  0
   -0.7981    0.3494   -0.0889 C   0  0  0  0  0  0  0  0  0  0  0  0
   -1.3992   -0.0997   -1.2557 O   0  0  0  0  0  0  0  0  0  0  0  0
   -2.7379    0.2912   -1.2039 C   0  0  0  0  0  0  0  0  0  0  0  0
    3.6077   -0.3080    1.0579 H   0  0  0  0  0  0  0  0  0  0  0  0
    3.4031   -1.7277   -0.0547 H   0  0  0  0  0  0  0  0  0  0  0  0
    3.7334   -0.0947   -0.7301 H   0  0  0  0  0  0  0  0  0  0  0  0
   -1.3048   -0.1392    0.7713 H   0  0  0  0  0  0  0  0  0  0  0  0
   -0.8961    1.4433    0.0602 H   0  0  0  0  0  0  0  0  0  0  0  0
   -2.8012    1.4132   -1.1322 H   0  0  0  0  0  0  0  0  0  0  0  0
   -3.1915   -0.0161   -2.1695 H   0  0  0  0  0  0  0  0  0  0  0  0
   -3.2731   -0.1603   -0.3640 H   0  0  0  0  0  0  0  0  0  0  0  0
  1  2  1  0
  2  3  3  0
  3  4  1  0
  4  5  1  0
  5  6  1  0
  1  7  1  0
  1  8  1  0
  1  9  1  0
  4 10  1  0
  4 11  1  0
  6 12  1  0
  6 13  1  0
  6 14  1  0
M  END
