
     RDKit          3D

 21 21  0  0  0  0  0  0  0  0999 V2000
   -3.9716    1.7657    0.9024 C   0  0  0  0  0  0  0  0  0  0  0  0
   -2.7949    1.1434    0.3857 C   0  0  0  0  0  0  0  0  0  0  0  0
   -1.8015    0.5957   -0.0622 C   0  0  0  0  0  0  0  0  0  0  0  0
   -0.6201   -0.0841   -0.6068 C   0  0  0  0  0  0  0  0  0  0  0  0
    0.5843    0.7895   -0.8500 C   0  0  0  0  0  0  0  0  0  0  0  0
    1.3922   -0.3948   -0.3547 C   0  0  0  0  0  0  0  0  0  0  0  0
    2.5354   -0.1310    0.3227 O   0  0  0  0  0  0  0  0  0  0  0  0
    3.5638   -0.9341   -0.1678 C   0  0  0  0  0  0  0  0  0  0  0  0
    0.1690   -0.6946    0.5446 C   0  0  0  0  0  0  0  0  0  0  0  0
   -4.7495    1.0037    1.0824 H   0  0  0  0  0  0  0  0  0  0  0  0
   -4.3254    2.6166    0.2476 H   0  0  0  0  0  0  0  0  0  0  0  0
   -3.7758    2.2917    1.8815 H   0  0  0  0  0  0  0  0  0  0  0  0
   -0.8347   -0.8103   -1.3960 H   0  0  0  0  0  0  0  0  0  0  0  0
    0.6215    1.6803   -0.1868 H   0  0  0  0  0  0  0  0  0  0  0  0
    0.6785    1.0192   -1.9332 H   0  0  0  0  0  0  0  0  0  0  0  0
    1.5085   -1.1591   -1.1316 H   0  0  0  0  0  0  0  0  0  0  0  0
    3.3100   -2.0228   -0.0689 H   0  0  0  0  0  0  0  0  0  0  0  0
    3.7874   -0.7572   -1.2223 H   0  0  0  0  0  0  0  0  0  0  0  0
    4.4766   -0.8404    0.5042 H   0  0  0  0  0  0  0  0  0  0  0  0
    0.2233   -0.0501    1.4286 H   0  0  0  0  0  0  0  0  0  0  0  0
    0.0232   -1.7840    0.6807 H   0  0  0  0  0  0  0  0  0  0  0  0
  1  2  1  0
  2  3  3  0
  3  4  1  0
  4  5  1  0
  5  6  1  0
  6  7  1  0
  7  8  1  0
  6  9  1  0
  9  4  1  0
  1 10  1  0
  1 11  1  0
  1 12  1  0
  4 13  1  0
  5 14  1  0
  5 15  1  0
  6 16  1  0
  8 17  1  0
  8 18  1  0
  8 19  1  0
  9 20  1  0
  9 21  1  0
M  END
