
     RDKit          3D

 17 17  0  0  0  0  0  0  0  0999 V2000
    3.1718   -0.5544   -0.8119 C   0  0  0  0  0  0  0  0  0  0  0  0
    1.6777   -0.1093   -0.6647 C   0  0  0  0  0  0  0  0  0  0  0  0
    0.4497    0.2758   -0.5390 C   0  0  0  0  0  0  0  0  0  0  0  0
   -0.6758    0.6419   -0.4228 C   0  0  0  0  0  0  0  0  0  0  0  0
   -0.3708    2.2332    0.2277 O   0  0  0  0  0  0  0  0  0  0  0  0
   -2.1393    0.7235   -0.2420 C   0  0  0  0  0  0  0  0  0  0  0  0
   -1.3935    0.0297    0.8394 C   0  0  0  0  0  0  0  0  0  0  0  0
   -1.4754   -1.4355    0.8836 C   0  0  0  0  0  0  0  0  0  0  0  0
   -2.0403   -1.9636   -0.1403 O   0  0  0  0  0  0  0  0  0  0  0  0
    3.1943   -1.2979   -1.6824 H   0  0  0  0  0  0  0  0  0  0  0  0
    3.3236   -1.3167    0.0609 H   0  0  0  0  0  0  0  0  0  0  0  0
    3.8495    0.1711   -0.9145 H   0  0  0  0  0  0  0  0  0  0  0  0
    0.2301    2.4023   -0.4967 H   0  0  0  0  0  0  0  0  0  0  0  0
   -2.8981    0.1214   -0.7841 H   0  0  0  0  0  0  0  0  0  0  0  0
   -2.6609    1.6839    0.1135 H   0  0  0  0  0  0  0  0  0  0  0  0
   -1.0888    0.5054    1.7336 H   0  0  0  0  0  0  0  0  0  0  0  0
   -1.1537   -2.1108    1.6114 H   0  0  0  0  0  0  0  0  0  0  0  0
  1  2  1  0
  2  3  3  0
  3  4  1  0
  4  5  1  0
  4  6  1  0
  6  7  1  0
  7  8  1  0
  8  9  2  0
  7  4  1  0
  1 10  1  0
  1 11  1  0
  1 12  1  0
  5 13  1  0
  6 14  1  0
  6 15  1  0
  7 16  1  0
  8 17  1  0
M  END
