
     RDKit          3D

 21 21  0  0  0  0  0  0  0  0999 V2000
    1.2346   -0.2063   -3.3360 C   0  0  0  0  0  0  0  0  0  0  0  0
    0.8146   -0.4572   -1.9537 C   0  0  0  0  0  0  0  0  0  0  0  0
    0.4800   -0.6486   -0.8054 C   0  0  0  0  0  0  0  0  0  0  0  0
    0.0704   -0.8553    0.5892 C   0  0  0  0  0  0  0  0  0  0  0  0
   -0.7884   -2.0816    0.8603 C   0  0  0  0  0  0  0  0  0  0  0  0
    1.0030   -0.3761    1.6288 C   0  0  0  0  0  0  0  0  0  0  0  0
   -0.2712    0.3957    1.4254 C   0  0  0  0  0  0  0  0  0  0  0  0
   -0.1242    1.6422    0.8142 O   0  0  0  0  0  0  0  0  0  0  0  0
   -1.1238    2.4939    1.2886 C   0  0  0  0  0  0  0  0  0  0  0  0
    0.3483   -0.1367   -4.0287 H   0  0  0  0  0  0  0  0  0  0  0  0
    1.7856    0.7541   -3.3867 H   0  0  0  0  0  0  0  0  0  0  0  0
    1.8763   -1.0552   -3.6553 H   0  0  0  0  0  0  0  0  0  0  0  0
   -0.9955   -2.1895    1.9391 H   0  0  0  0  0  0  0  0  0  0  0  0
   -1.7178   -1.9885    0.2788 H   0  0  0  0  0  0  0  0  0  0  0  0
   -0.1901   -2.9781    0.5210 H   0  0  0  0  0  0  0  0  0  0  0  0
    1.9431    0.1081    1.3119 H   0  0  0  0  0  0  0  0  0  0  0  0
    1.0517   -0.9019    2.6051 H   0  0  0  0  0  0  0  0  0  0  0  0
   -1.1131    0.2818    2.1521 H   0  0  0  0  0  0  0  0  0  0  0  0
   -1.0305    3.4762    0.8279 H   0  0  0  0  0  0  0  0  0  0  0  0
   -1.1090    2.6105    2.3848 H   0  0  0  0  0  0  0  0  0  0  0  0
   -2.1440    2.1125    1.0083 H   0  0  0  0  0  0  0  0  0  0  0  0
  1  2  1  0
  2  3  3  0
  3  4  1  0
  4  5  1  0
  4  6  1  0
  6  7  1  0
  7  8  1  0
  8  9  1  0
  7  4  1  0
  1 10  1  0
  1 11  1  0
  1 12  1  0
  5 13  1  0
  5 14  1  0
  5 15  1  0
  6 16  1  0
  6 17  1  0
  7 18  1  0
  9 19  1  0
  9 20  1  0
  9 21  1  0
M  END
