
     RDKit          3D

 17 18  0  0  0  0  0  0  0  0999 V2000
    3.0391   -1.0928   -1.2211 C   0  0  0  0  0  0  0  0  0  0  0  0
    1.6798   -0.7181   -0.7644 C   0  0  0  0  0  0  0  0  0  0  0  0
    0.5669   -0.4323   -0.3962 C   0  0  0  0  0  0  0  0  0  0  0  0
   -0.7590   -0.0856    0.0606 C   0  0  0  0  0  0  0  0  0  0  0  0
   -1.7126   -0.9308   -0.4385 O   0  0  0  0  0  0  0  0  0  0  0  0
   -0.9020    0.3675    1.4658 C   0  0  0  0  0  0  0  0  0  0  0  0
   -2.1434    1.1015    1.0377 C   0  0  0  0  0  0  0  0  0  0  0  0
   -1.0750    1.3810    0.0393 C   0  0  0  0  0  0  0  0  0  0  0  0
   -0.1991    1.5074    1.1079 O   0  0  0  0  0  0  0  0  0  0  0  0
    2.9589   -1.7374   -2.1387 H   0  0  0  0  0  0  0  0  0  0  0  0
    3.5115   -1.6128   -0.3798 H   0  0  0  0  0  0  0  0  0  0  0  0
    3.6066   -0.1911   -1.5425 H   0  0  0  0  0  0  0  0  0  0  0  0
   -1.2933   -1.7665   -0.7175 H   0  0  0  0  0  0  0  0  0  0  0  0
   -0.7908   -0.1690    2.3127 H   0  0  0  0  0  0  0  0  0  0  0  0
   -2.9645    0.4607    0.6724 H   0  0  0  0  0  0  0  0  0  0  0  0
   -2.3984    1.9435    1.6755 H   0  0  0  0  0  0  0  0  0  0  0  0
   -1.1247    1.9747   -0.7732 H   0  0  0  0  0  0  0  0  0  0  0  0
  1  2  1  0
  2  3  3  0
  3  4  1  0
  4  5  1  0
  4  6  1  0
  6  7  1  0
  7  8  1  0
  8  9  1  0
  8  4  1  0
  9  6  1  0
  1 10  1  0
  1 11  1  0
  1 12  1  0
  5 13  1  0
  6 14  1  0
  7 15  1  0
  7 16  1  0
  8 17  1  0
M  END
