
     RDKit          3D

 19 19  0  0  0  0  0  0  0  0999 V2000
    3.8676   -0.8694   -0.0799 C   0  0  0  0  0  0  0  0  0  0  0  0
    2.5296   -0.2406    0.0495 C   0  0  0  0  0  0  0  0  0  0  0  0
    1.4552    0.2580    0.1332 C   0  0  0  0  0  0  0  0  0  0  0  0
    0.1487    0.8737    0.2113 C   0  0  0  0  0  0  0  0  0  0  0  0
   -0.8653    0.4258   -0.8360 C   0  0  0  0  0  0  0  0  0  0  0  0
   -1.8837    0.6353    0.2966 C   0  0  0  0  0  0  0  0  0  0  0  0
   -3.0026   -0.3798    0.2862 C   0  0  0  0  0  0  0  0  0  0  0  0
   -0.7721    0.2877    1.2182 C   0  0  0  0  0  0  0  0  0  0  0  0
   -0.6515   -0.2355    2.3017 O   0  0  0  0  0  0  0  0  0  0  0  0
    3.8365   -1.9491    0.1445 H   0  0  0  0  0  0  0  0  0  0  0  0
    4.5694   -0.3893    0.6596 H   0  0  0  0  0  0  0  0  0  0  0  0
    4.2912   -0.6937   -1.0819 H   0  0  0  0  0  0  0  0  0  0  0  0
    0.1591    2.0013    0.2081 H   0  0  0  0  0  0  0  0  0  0  0  0
   -0.7771   -0.6713   -1.0243 H   0  0  0  0  0  0  0  0  0  0  0  0
   -0.9871    1.0718   -1.7020 H   0  0  0  0  0  0  0  0  0  0  0  0
   -2.1889    1.6961    0.3591 H   0  0  0  0  0  0  0  0  0  0  0  0
   -2.5426   -1.3652    0.4751 H   0  0  0  0  0  0  0  0  0  0  0  0
   -3.6667   -0.1085    1.1440 H   0  0  0  0  0  0  0  0  0  0  0  0
   -3.5197   -0.3474   -0.6848 H   0  0  0  0  0  0  0  0  0  0  0  0
  1  2  1  0
  2  3  3  0
  3  4  1  0
  4  5  1  0
  5  6  1  0
  6  7  1  0
  6  8  1  0
  8  9  2  0
  8  4  1  0
  1 10  1  0
  1 11  1  0
  1 12  1  0
  4 13  1  0
  5 14  1  0
  5 15  1  0
  6 16  1  0
  7 17  1  0
  7 18  1  0
  7 19  1  0
M  END
