
     RDKit          3D

 12 11  0  0  0  0  0  0  0  0999 V2000
    3.3853   -0.0102   -0.1343 C   0  0  0  0  0  0  0  0  0  0  0  0
    1.9210    0.0112   -0.1030 C   0  0  0  0  0  0  0  0  0  0  0  0
    0.7133    0.0256   -0.0563 C   0  0  0  0  0  0  0  0  0  0  0  0
   -0.7142    0.0663    0.0008 C   0  0  0  0  0  0  0  0  0  0  0  0
   -1.9213    0.0828    0.0485 C   0  0  0  0  0  0  0  0  0  0  0  0
   -3.3912    0.0862    0.1261 C   0  0  0  0  0  0  0  0  0  0  0  0
    3.8052    0.9750    0.1811 H   0  0  0  0  0  0  0  0  0  0  0  0
    3.8031   -0.7458    0.6041 H   0  0  0  0  0  0  0  0  0  0  0  0
    3.6928   -0.2153   -1.1661 H   0  0  0  0  0  0  0  0  0  0  0  0
   -3.7829   -0.9233    0.4113 H   0  0  0  0  0  0  0  0  0  0  0  0
   -3.7470    0.7651    0.9515 H   0  0  0  0  0  0  0  0  0  0  0  0
   -3.7640    0.4130   -0.8637 H   0  0  0  0  0  0  0  0  0  0  0  0
  1  2  1  0
  2  3  3  0
  3  4  1  0
  4  5  3  0
  5  6  1  0
  1  7  1  0
  1  8  1  0
  1  9  1  0
  6 10  1  0
  6 11  1  0
  6 12  1  0
M  END
