
     RDKit          3D

 19 19  0  0  0  0  0  0  0  0999 V2000
    4.0736    1.4158   -0.0466 C   0  0  0  0  0  0  0  0  0  0  0  0
    2.6901    1.0775   -0.4256 C   0  0  0  0  0  0  0  0  0  0  0  0
    1.5506    0.7999   -0.7346 C   0  0  0  0  0  0  0  0  0  0  0  0
    0.1898    0.4813   -1.1246 C   0  0  0  0  0  0  0  0  0  0  0  0
   -0.5874   -0.1388   -0.0219 C   0  0  0  0  0  0  0  0  0  0  0  0
   -0.0449   -0.3169    1.0568 O   0  0  0  0  0  0  0  0  0  0  0  0
   -1.9984   -0.5163   -0.2840 C   0  0  0  0  0  0  0  0  0  0  0  0
   -2.9679   -0.6249    0.8336 C   0  0  0  0  0  0  0  0  0  0  0  0
   -2.3597   -1.8733    0.3173 C   0  0  0  0  0  0  0  0  0  0  0  0
    4.1148    2.4284    0.4257 H   0  0  0  0  0  0  0  0  0  0  0  0
    4.7461    1.4270   -0.9443 H   0  0  0  0  0  0  0  0  0  0  0  0
    4.4068    0.6387    0.6628 H   0  0  0  0  0  0  0  0  0  0  0  0
    0.2131   -0.2453   -1.9578 H   0  0  0  0  0  0  0  0  0  0  0  0
   -0.3321    1.4185   -1.4449 H   0  0  0  0  0  0  0  0  0  0  0  0
   -2.3594   -0.3001   -1.2974 H   0  0  0  0  0  0  0  0  0  0  0  0
   -2.6954   -0.2394    1.8499 H   0  0  0  0  0  0  0  0  0  0  0  0
   -4.0354   -0.4576    0.5446 H   0  0  0  0  0  0  0  0  0  0  0  0
   -2.9760   -2.5691   -0.3075 H   0  0  0  0  0  0  0  0  0  0  0  0
   -1.6283   -2.4054    0.9371 H   0  0  0  0  0  0  0  0  0  0  0  0
  1  2  1  0
  2  3  3  0
  3  4  1  0
  4  5  1  0
  5  6  2  0
  5  7  1  0
  7  8  1  0
  8  9  1  0
  9  7  1  0
  1 10  1  0
  1 11  1  0
  1 12  1  0
  4 13  1  0
  4 14  1  0
  7 15  1  0
  8 16  1  0
  8 17  1  0
  9 18  1  0
  9 19  1  0
M  END
