
     RDKit          3D

 19 18  0  0  0  0  0  0  0  0999 V2000
    2.8583    1.8945   -0.6520 C   0  0  0  0  0  0  0  0  0  0  0  0
    1.9313    0.9977    0.0846 C   0  0  0  0  0  0  0  0  0  0  0  0
    1.1578    0.2502    0.6790 C   0  0  0  0  0  0  0  0  0  0  0  0
    0.2296   -0.6160    1.3938 C   0  0  0  0  0  0  0  0  0  0  0  0
   -0.2212   -1.6259    0.4081 C   0  0  0  0  0  0  0  0  0  0  0  0
    0.2912   -2.7463    0.3377 O   0  0  0  0  0  0  0  0  0  0  0  0
   -1.3189   -1.2365   -0.5001 C   0  0  0  0  0  0  0  0  0  0  0  0
   -1.8545    0.1458   -0.2303 C   0  0  0  0  0  0  0  0  0  0  0  0
   -2.8557    0.3689   -1.1919 O   0  0  0  0  0  0  0  0  0  0  0  0
    3.7211    2.1283    0.0232 H   0  0  0  0  0  0  0  0  0  0  0  0
    3.2313    1.3669   -1.5249 H   0  0  0  0  0  0  0  0  0  0  0  0
    2.3246    2.8216   -0.9678 H   0  0  0  0  0  0  0  0  0  0  0  0
    0.7521   -1.1455    2.2426 H   0  0  0  0  0  0  0  0  0  0  0  0
   -0.6527   -0.1003    1.7716 H   0  0  0  0  0  0  0  0  0  0  0  0
   -1.0471   -1.3850   -1.5645 H   0  0  0  0  0  0  0  0  0  0  0  0
   -2.1815   -1.9336   -0.2866 H   0  0  0  0  0  0  0  0  0  0  0  0
   -1.1085    0.9490   -0.3364 H   0  0  0  0  0  0  0  0  0  0  0  0
   -2.3368    0.2222    0.7782 H   0  0  0  0  0  0  0  0  0  0  0  0
   -2.9204   -0.3558   -1.8521 H   0  0  0  0  0  0  0  0  0  0  0  0
  1  2  1  0
  2  3  3  0
  3  4  1  0
  4  5  1  0
  5  6  2  0
  5  7  1  0
  7  8  1  0
  8  9  1  0
  1 10  1  0
  1 11  1  0
  1 12  1  0
  4 13  1  0
  4 14  1  0
  7 15  1  0
  7 16  1  0
  8 17  1  0
  8 18  1  0
  9 19  1  0
M  END
