
     RDKit          3D

 19 20  0  0  0  0  0  0  0  0999 V2000
    3.0014    1.9654   -0.4502 C   0  0  0  0  0  0  0  0  0  0  0  0
    1.7447    1.2422   -0.3383 C   0  0  0  0  0  0  0  0  0  0  0  0
    0.6890    0.6098   -0.2444 C   0  0  0  0  0  0  0  0  0  0  0  0
   -0.5684   -0.1649   -0.1251 C   0  0  0  0  0  0  0  0  0  0  0  0
   -1.7403    0.4869   -0.7394 C   0  0  0  0  0  0  0  0  0  0  0  0
   -0.2844   -1.5991   -0.2629 C   0  0  0  0  0  0  0  0  0  0  0  0
   -1.4576   -1.9332    0.5468 C   0  0  0  0  0  0  0  0  0  0  0  0
   -0.8120   -0.7657    1.1923 C   0  0  0  0  0  0  0  0  0  0  0  0
    0.3928   -1.4609    0.9740 O   0  0  0  0  0  0  0  0  0  0  0  0
    3.4340    1.7819   -1.4725 H   0  0  0  0  0  0  0  0  0  0  0  0
    2.7843    3.0453   -0.2685 H   0  0  0  0  0  0  0  0  0  0  0  0
    3.7351    1.6211    0.3403 H   0  0  0  0  0  0  0  0  0  0  0  0
   -2.6944   -0.0405   -0.5892 H   0  0  0  0  0  0  0  0  0  0  0  0
   -1.5662    0.8116   -1.7947 H   0  0  0  0  0  0  0  0  0  0  0  0
   -1.8823    1.4722   -0.1846 H   0  0  0  0  0  0  0  0  0  0  0  0
    0.1011   -2.0903   -1.0637 H   0  0  0  0  0  0  0  0  0  0  0  0
   -1.3909   -2.8846    1.1484 H   0  0  0  0  0  0  0  0  0  0  0  0
   -2.4436   -1.7915    0.0794 H   0  0  0  0  0  0  0  0  0  0  0  0
   -1.0422   -0.3058    2.0675 H   0  0  0  0  0  0  0  0  0  0  0  0
  1  2  1  0
  2  3  3  0
  3  4  1  0
  4  5  1  0
  4  6  1  0
  6  7  1  0
  7  8  1  0
  8  9  1  0
  8  4  1  0
  9  6  1  0
  1 10  1  0
  1 11  1  0
  1 12  1  0
  5 13  1  0
  5 14  1  0
  5 15  1  0
  6 16  1  0
  7 17  1  0
  7 18  1  0
  8 19  1  0
M  END
