
     RDKit          3D

 17 17  0  0  0  0  0  0  0  0999 V2000
    4.7421    0.0977   -0.2692 C   0  0  0  0  0  0  0  0  0  0  0  0
    3.2728    0.1567   -0.0873 C   0  0  0  0  0  0  0  0  0  0  0  0
    2.0769    0.1966    0.0702 C   0  0  0  0  0  0  0  0  0  0  0  0
    0.6716    0.2456    0.2363 C   0  0  0  0  0  0  0  0  0  0  0  0
   -0.5297    0.2695    0.3881 C   0  0  0  0  0  0  0  0  0  0  0  0
   -1.9941    0.2771    0.5627 C   0  0  0  0  0  0  0  0  0  0  0  0
   -2.7889    0.7208   -0.6246 C   0  0  0  0  0  0  0  0  0  0  0  0
   -2.7384   -0.7153   -0.2331 C   0  0  0  0  0  0  0  0  0  0  0  0
   -3.8361   -1.3325    0.3396 O   0  0  0  0  0  0  0  0  0  0  0  0
    4.9855   -0.9614   -0.4801 H   0  0  0  0  0  0  0  0  0  0  0  0
    5.0010    0.7527   -1.1333 H   0  0  0  0  0  0  0  0  0  0  0  0
    5.2693    0.4555    0.6316 H   0  0  0  0  0  0  0  0  0  0  0  0
   -2.3488    0.6277    1.5385 H   0  0  0  0  0  0  0  0  0  0  0  0
   -2.2354    1.0848   -1.4909 H   0  0  0  0  0  0  0  0  0  0  0  0
   -3.7757    1.2252   -0.4875 H   0  0  0  0  0  0  0  0  0  0  0  0
   -2.1800   -1.3726   -0.9342 H   0  0  0  0  0  0  0  0  0  0  0  0
   -3.5921   -1.7281    1.2320 H   0  0  0  0  0  0  0  0  0  0  0  0
  1  2  1  0
  2  3  3  0
  3  4  1  0
  4  5  3  0
  5  6  1  0
  6  7  1  0
  7  8  1  0
  8  9  1  0
  8  6  1  0
  1 10  1  0
  1 11  1  0
  1 12  1  0
  6 13  1  0
  7 14  1  0
  7 15  1  0
  8 16  1  0
  9 17  1  0
M  END
