
     RDKit          3D

 21 21  0  0  0  0  0  0  0  0999 V2000
    2.3620   -2.8227   -0.8743 C   0  0  0  0  0  0  0  0  0  0  0  0
    1.4452   -1.8463   -0.2899 C   0  0  0  0  0  0  0  0  0  0  0  0
    0.6983   -1.0318    0.2104 C   0  0  0  0  0  0  0  0  0  0  0  0
   -0.2272   -0.0588    0.8268 C   0  0  0  0  0  0  0  0  0  0  0  0
   -1.6400   -0.3811    0.4943 C   0  0  0  0  0  0  0  0  0  0  0  0
   -1.8821    0.0973   -0.7522 O   0  0  0  0  0  0  0  0  0  0  0  0
   -0.9515    1.0067   -1.1062 C   0  0  0  0  0  0  0  0  0  0  0  0
   -0.0954    1.2922    0.0870 C   0  0  0  0  0  0  0  0  0  0  0  0
   -0.5830    2.3847    0.9682 C   0  0  0  0  0  0  0  0  0  0  0  0
    3.3621   -2.6605   -0.4060 H   0  0  0  0  0  0  0  0  0  0  0  0
    2.5025   -2.6650   -1.9636 H   0  0  0  0  0  0  0  0  0  0  0  0
    1.9705   -3.8496   -0.7029 H   0  0  0  0  0  0  0  0  0  0  0  0
   -0.0616    0.0295    1.8977 H   0  0  0  0  0  0  0  0  0  0  0  0
   -2.3686    0.0837    1.2066 H   0  0  0  0  0  0  0  0  0  0  0  0
   -1.8064   -1.4977    0.4607 H   0  0  0  0  0  0  0  0  0  0  0  0
   -1.3580    1.9318   -1.5736 H   0  0  0  0  0  0  0  0  0  0  0  0
   -0.2756    0.5159   -1.8693 H   0  0  0  0  0  0  0  0  0  0  0  0
    0.9755    1.3855   -0.1395 H   0  0  0  0  0  0  0  0  0  0  0  0
    0.2456    3.1197    1.0953 H   0  0  0  0  0  0  0  0  0  0  0  0
   -0.8985    2.0150    1.9723 H   0  0  0  0  0  0  0  0  0  0  0  0
   -1.4139    2.9514    0.4581 H   0  0  0  0  0  0  0  0  0  0  0  0
  1  2  1  0
  2  3  3  0
  3  4  1  0
  4  5  1  0
  5  6  1  0
  6  7  1  0
  7  8  1  0
  8  9  1  0
  8  4  1  0
  1 10  1  0
  1 11  1  0
  1 12  1  0
  4 13  1  0
  5 14  1  0
  5 15  1  0
  7 16  1  0
  7 17  1  0
  8 18  1  0
  9 19  1  0
  9 20  1  0
  9 21  1  0
M  END
