
     RDKit          3D

 15 15  0  0  0  0  0  0  0  0999 V2000
    3.1323   -0.1216   -0.0018 C   0  0  0  0  0  0  0  0  0  0  0  0
    1.6673   -0.0026   -0.0197 C   0  0  0  0  0  0  0  0  0  0  0  0
    0.4524    0.0773   -0.0446 C   0  0  0  0  0  0  0  0  0  0  0  0
   -1.0119    0.1879   -0.0959 C   0  0  0  0  0  0  0  0  0  0  0  0
   -1.7956   -0.9699   -0.6584 C   0  0  0  0  0  0  0  0  0  0  0  0
   -1.6953    1.1253    0.8798 C   0  0  0  0  0  0  0  0  0  0  0  0
   -1.4906    1.4615   -0.4548 O   0  0  0  0  0  0  0  0  0  0  0  0
    3.6219    0.7283   -0.5410 H   0  0  0  0  0  0  0  0  0  0  0  0
    3.3725   -1.0958   -0.4790 H   0  0  0  0  0  0  0  0  0  0  0  0
    3.5310   -0.1158    1.0331 H   0  0  0  0  0  0  0  0  0  0  0  0
   -2.8132   -0.9257   -0.2186 H   0  0  0  0  0  0  0  0  0  0  0  0
   -1.3202   -1.9326   -0.4998 H   0  0  0  0  0  0  0  0  0  0  0  0
   -1.9480   -0.7349   -1.7529 H   0  0  0  0  0  0  0  0  0  0  0  0
   -2.7004    0.7843    1.2122 H   0  0  0  0  0  0  0  0  0  0  0  0
   -1.0024    1.5343    1.6413 H   0  0  0  0  0  0  0  0  0  0  0  0
  1  2  1  0
  2  3  3  0
  3  4  1  0
  4  5  1  0
  4  6  1  0
  6  7  1  0
  7  4  1  0
  1  8  1  0
  1  9  1  0
  1 10  1  0
  5 11  1  0
  5 12  1  0
  5 13  1  0
  6 14  1  0
  6 15  1  0
M  END
