
     RDKit          3D

 23 22  0  0  0  0  0  0  0  0999 V2000
    0.8550    3.5882   -0.9217 C   0  0  0  0  0  0  0  0  0  0  0  0
    0.8206    2.2194   -0.4355 C   0  0  0  0  0  0  0  0  0  0  0  0
    0.7725    1.0573   -0.0177 C   0  0  0  0  0  0  0  0  0  0  0  0
    0.6907   -0.3145    0.4808 C   0  0  0  0  0  0  0  0  0  0  0  0
    1.6838   -1.1490   -0.3207 C   0  0  0  0  0  0  0  0  0  0  0  0
   -0.6831   -0.8759    0.1776 C   0  0  0  0  0  0  0  0  0  0  0  0
   -0.8610   -2.2754    0.6507 C   0  0  0  0  0  0  0  0  0  0  0  0
   -1.6927   -0.0035    0.8916 C   0  0  0  0  0  0  0  0  0  0  0  0
   -0.9402   -0.7345   -1.2000 O   0  0  0  0  0  0  0  0  0  0  0  0
    0.0616    3.7745   -1.6980 H   0  0  0  0  0  0  0  0  0  0  0  0
    0.7196    4.2664   -0.0697 H   0  0  0  0  0  0  0  0  0  0  0  0
    1.8211    3.8177   -1.4476 H   0  0  0  0  0  0  0  0  0  0  0  0
    0.9006   -0.3171    1.5516 H   0  0  0  0  0  0  0  0  0  0  0  0
    2.6559   -1.0771    0.1803 H   0  0  0  0  0  0  0  0  0  0  0  0
    1.7807   -0.6825   -1.3201 H   0  0  0  0  0  0  0  0  0  0  0  0
    1.3358   -2.1943   -0.4545 H   0  0  0  0  0  0  0  0  0  0  0  0
   -1.8690   -2.4727    1.1120 H   0  0  0  0  0  0  0  0  0  0  0  0
   -0.8572   -2.9352   -0.2640 H   0  0  0  0  0  0  0  0  0  0  0  0
   -0.1035   -2.6378    1.3477 H   0  0  0  0  0  0  0  0  0  0  0  0
   -1.8290    0.9575    0.3950 H   0  0  0  0  0  0  0  0  0  0  0  0
   -1.2788    0.1737    1.9211 H   0  0  0  0  0  0  0  0  0  0  0  0
   -2.6451   -0.5989    0.9672 H   0  0  0  0  0  0  0  0  0  0  0  0
   -1.3385   -1.5862   -1.5260 H   0  0  0  0  0  0  0  0  0  0  0  0
  1  2  1  0
  2  3  3  0
  3  4  1  0
  4  5  1  0
  4  6  1  0
  6  7  1  0
  6  8  1  0
  6  9  1  0
  1 10  1  0
  1 11  1  0
  1 12  1  0
  4 13  1  0
  5 14  1  0
  5 15  1  0
  5 16  1  0
  7 17  1  0
  7 18  1  0
  7 19  1  0
  8 20  1  0
  8 21  1  0
  8 22  1  0
  9 23  1  0
M  END
