
     RDKit          3D

 21 22  0  0  0  0  0  0  0  0999 V2000
    3.8578    0.7600    0.1848 C   0  0  0  0  0  0  0  0  0  0  0  0
    2.4198    0.9126    0.0347 C   0  0  0  0  0  0  0  0  0  0  0  0
    1.1853    1.0413   -0.0918 C   0  0  0  0  0  0  0  0  0  0  0  0
   -0.2497    1.1950   -0.2139 C   0  0  0  0  0  0  0  0  0  0  0  0
   -0.9575    0.0459    0.0042 C   0  0  0  0  0  0  0  0  0  0  0  0
   -2.4720   -0.0871   -0.0691 C   0  0  0  0  0  0  0  0  0  0  0  0
   -2.0104   -1.4378    0.3977 C   0  0  0  0  0  0  0  0  0  0  0  0
   -0.9016   -1.2956   -0.6102 C   0  0  0  0  0  0  0  0  0  0  0  0
   -1.1046   -0.6755    1.3269 C   0  0  0  0  0  0  0  0  0  0  0  0
    4.0892    0.2477    1.1634 H   0  0  0  0  0  0  0  0  0  0  0  0
    4.2536    0.2563   -0.6865 H   0  0  0  0  0  0  0  0  0  0  0  0
    4.3664    1.7582    0.3009 H   0  0  0  0  0  0  0  0  0  0  0  0
   -0.5888    2.0331    0.4734 H   0  0  0  0  0  0  0  0  0  0  0  0
   -0.4356    1.6396   -1.2274 H   0  0  0  0  0  0  0  0  0  0  0  0
   -3.0040    0.5485    0.6569 H   0  0  0  0  0  0  0  0  0  0  0  0
   -2.8654   -0.1170   -1.1036 H   0  0  0  0  0  0  0  0  0  0  0  0
   -2.5754   -2.2387    0.6053 H   0  0  0  0  0  0  0  0  0  0  0  0
   -0.0088   -1.9322   -0.3525 H   0  0  0  0  0  0  0  0  0  0  0  0
   -1.2222   -1.3678   -1.6612 H   0  0  0  0  0  0  0  0  0  0  0  0
   -1.5721   -0.0325    2.0728 H   0  0  0  0  0  0  0  0  0  0  0  0
   -0.2041   -1.2542    1.6177 H   0  0  0  0  0  0  0  0  0  0  0  0
  1  2  1  0
  2  3  3  0
  3  4  1  0
  4  5  1  0
  5  6  1  0
  6  7  1  0
  7  8  1  0
  7  9  1  0
  8  5  1  0
  9  5  1  0
  1 10  1  0
  1 11  1  0
  1 12  1  0
  4 13  1  0
  4 14  1  0
  6 15  1  0
  6 16  1  0
  7 17  1  0
  8 18  1  0
  8 19  1  0
  9 20  1  0
  9 21  1  0
M  END
