
     RDKit          3D

 21 21  0  0  0  0  0  0  0  0999 V2000
    3.5615   -0.2775    0.4300 C   0  0  0  0  0  0  0  0  0  0  0  0
    2.1324   -0.5141   -0.1684 C   0  0  0  0  0  0  0  0  0  0  0  0
    0.9202   -0.7326   -0.6597 C   0  0  0  0  0  0  0  0  0  0  0  0
   -0.2154   -0.9547   -1.1206 C   0  0  0  0  0  0  0  0  0  0  0  0
   -1.0423    0.1312   -1.8771 C   0  0  0  0  0  0  0  0  0  0  0  0
   -1.5433   -0.5293   -0.5692 C   0  0  0  0  0  0  0  0  0  0  0  0
   -1.6690    0.5189    0.5281 C   0  0  0  0  0  0  0  0  0  0  0  0
   -0.9362    0.1533    1.7644 C   0  0  0  0  0  0  0  0  0  0  0  0
   -1.1486    1.7269    0.0692 O   0  0  0  0  0  0  0  0  0  0  0  0
    3.4154   -0.7321    1.4476 H   0  0  0  0  0  0  0  0  0  0  0  0
    4.1759   -0.9934   -0.1559 H   0  0  0  0  0  0  0  0  0  0  0  0
    3.7093    0.7618    0.3446 H   0  0  0  0  0  0  0  0  0  0  0  0
   -0.3688   -1.9320   -1.8042 H   0  0  0  0  0  0  0  0  0  0  0  0
   -1.5316   -0.1279   -2.8243 H   0  0  0  0  0  0  0  0  0  0  0  0
   -0.5543    1.1216   -1.7958 H   0  0  0  0  0  0  0  0  0  0  0  0
   -2.4142   -1.1683   -0.7019 H   0  0  0  0  0  0  0  0  0  0  0  0
   -2.7400    0.6726    0.7633 H   0  0  0  0  0  0  0  0  0  0  0  0
   -0.1725   -0.6619    1.5710 H   0  0  0  0  0  0  0  0  0  0  0  0
   -1.5276   -0.0071    2.6874 H   0  0  0  0  0  0  0  0  0  0  0  0
   -0.3049    1.0649    2.0310 H   0  0  0  0  0  0  0  0  0  0  0  0
   -1.7459    2.4798    0.0407 H   0  0  0  0  0  0  0  0  0  0  0  0
  1  2  1  0
  2  3  3  0
  3  4  1  0
  4  5  1  0
  5  6  1  0
  6  7  1  0
  7  8  1  0
  7  9  1  0
  6  4  1  0
  1 10  1  0
  1 11  1  0
  1 12  1  0
  4 13  1  0
  5 14  1  0
  5 15  1  0
  6 16  1  0
  7 17  1  0
  8 18  1  0
  8 19  1  0
  8 20  1  0
  9 21  1  0
M  END
