
     RDKit          3D

 19 18  0  0  0  0  0  0  0  0999 V2000
   -4.2110    0.6458   -1.3260 C   0  0  0  0  0  0  0  0  0  0  0  0
   -2.7424    0.4912   -1.1824 C   0  0  0  0  0  0  0  0  0  0  0  0
   -1.5541    0.3611   -1.0457 C   0  0  0  0  0  0  0  0  0  0  0  0
   -0.1213    0.2106   -0.8573 C   0  0  0  0  0  0  0  0  0  0  0  0
    0.1323    0.0696    0.6271 C   0  0  0  0  0  0  0  0  0  0  0  0
   -0.5547   -1.0626    1.0823 O   0  0  0  0  0  0  0  0  0  0  0  0
    1.5754   -0.0896    0.8496 C   0  0  0  0  0  0  0  0  0  0  0  0
    2.7581   -0.2290    1.0512 C   0  0  0  0  0  0  0  0  0  0  0  0
    4.2063   -0.4247    1.2912 C   0  0  0  0  0  0  0  0  0  0  0  0
   -4.7027    0.1144   -0.5084 H   0  0  0  0  0  0  0  0  0  0  0  0
   -4.4674    1.7329   -1.3232 H   0  0  0  0  0  0  0  0  0  0  0  0
   -4.4851    0.1667   -2.2872 H   0  0  0  0  0  0  0  0  0  0  0  0
    0.2713   -0.6991   -1.3460 H   0  0  0  0  0  0  0  0  0  0  0  0
    0.4655    1.0885   -1.1967 H   0  0  0  0  0  0  0  0  0  0  0  0
   -0.1911    0.9844    1.1452 H   0  0  0  0  0  0  0  0  0  0  0  0
   -0.0500   -1.8904    0.9290 H   0  0  0  0  0  0  0  0  0  0  0  0
    4.7331    0.5667    1.3036 H   0  0  0  0  0  0  0  0  0  0  0  0
    4.6530   -1.0807    0.5187 H   0  0  0  0  0  0  0  0  0  0  0  0
    4.2846   -0.9558    2.2499 H   0  0  0  0  0  0  0  0  0  0  0  0
  1  2  1  0
  2  3  3  0
  3  4  1  0
  4  5  1  0
  5  6  1  0
  5  7  1  0
  7  8  3  0
  8  9  1  0
  1 10  1  0
  1 11  1  0
  1 12  1  0
  4 13  1  0
  4 14  1  0
  5 15  1  0
  6 16  1  0
  9 17  1  0
  9 18  1  0
  9 19  1  0
M  END
