
     RDKit          3D

 21 21  0  0  0  0  0  0  0  0999 V2000
    3.1176    2.3815    0.0642 C   0  0  0  0  0  0  0  0  0  0  0  0
    2.0102    1.4919    0.3159 C   0  0  0  0  0  0  0  0  0  0  0  0
    1.0188    0.6676    0.5382 C   0  0  0  0  0  0  0  0  0  0  0  0
   -0.0379   -0.2095    0.8000 C   0  0  0  0  0  0  0  0  0  0  0  0
   -1.3816   -0.0622    0.3026 C   0  0  0  0  0  0  0  0  0  0  0  0
   -1.9269    1.0108   -0.5871 C   0  0  0  0  0  0  0  0  0  0  0  0
   -0.4920   -1.0420   -0.4333 C   0  0  0  0  0  0  0  0  0  0  0  0
   -0.4714   -2.5130   -0.1622 C   0  0  0  0  0  0  0  0  0  0  0  0
   -1.2997   -2.8395    0.8885 O   0  0  0  0  0  0  0  0  0  0  0  0
    4.1110    1.8869    0.2990 H   0  0  0  0  0  0  0  0  0  0  0  0
    3.0743    2.7950   -0.9288 H   0  0  0  0  0  0  0  0  0  0  0  0
    3.0940    3.1946    0.8888 H   0  0  0  0  0  0  0  0  0  0  0  0
    0.1005   -0.9203    1.7350 H   0  0  0  0  0  0  0  0  0  0  0  0
   -2.1993   -0.5671    0.9058 H   0  0  0  0  0  0  0  0  0  0  0  0
   -1.2188    1.7019   -0.9977 H   0  0  0  0  0  0  0  0  0  0  0  0
   -2.4976    0.4620   -1.4118 H   0  0  0  0  0  0  0  0  0  0  0  0
   -2.7131    1.5801    0.0092 H   0  0  0  0  0  0  0  0  0  0  0  0
   -0.0464   -0.6982   -1.3906 H   0  0  0  0  0  0  0  0  0  0  0  0
   -0.6300   -3.1272   -1.0817 H   0  0  0  0  0  0  0  0  0  0  0  0
    0.5906   -2.6947    0.2396 H   0  0  0  0  0  0  0  0  0  0  0  0
   -2.2023   -2.4986    0.8880 H   0  0  0  0  0  0  0  0  0  0  0  0
  1  2  1  0
  2  3  3  0
  3  4  1  0
  4  5  1  0
  5  6  1  0
  5  7  1  0
  7  8  1  0
  8  9  1  0
  7  4  1  0
  1 10  1  0
  1 11  1  0
  1 12  1  0
  4 13  1  0
  5 14  1  0
  6 15  1  0
  6 16  1  0
  6 17  1  0
  7 18  1  0
  8 19  1  0
  8 20  1  0
  9 21  1  0
M  END
