
     RDKit          3D

 22 21  0  0  0  0  0  0  0  0999 V2000
    2.7332    1.0567    2.1162 C   0  0  0  0  0  0  0  0  0  0  0  0
    1.6655    0.4406    1.1906 C   0  0  0  0  0  0  0  0  0  0  0  0
    0.6382   -0.1517    0.2732 C   0  0  0  0  0  0  0  0  0  0  0  0
   -0.1908   -0.6225   -0.4662 C   0  0  0  0  0  0  0  0  0  0  0  0
   -0.5953   -2.0904    0.0372 C   0  0  0  0  0  0  0  0  0  0  0  0
    0.0289   -0.6727   -1.9740 C   0  0  0  0  0  0  0  0  0  0  0  0
   -1.5616    0.1064   -0.2620 C   0  0  0  0  0  0  0  0  0  0  0  0
   -1.4206    1.6112   -0.3402 C   0  0  0  0  0  0  0  0  0  0  0  0
    3.6706    1.0357    1.4625 H   0  0  0  0  0  0  0  0  0  0  0  0
    2.9025    0.3467    2.9004 H   0  0  0  0  0  0  0  0  0  0  0  0
    2.4040    2.0643    2.2930 H   0  0  0  0  0  0  0  0  0  0  0  0
   -1.1456   -2.6464   -0.6694 H   0  0  0  0  0  0  0  0  0  0  0  0
    0.3725   -2.4310    0.4223 H   0  0  0  0  0  0  0  0  0  0  0  0
   -1.2244   -1.8466    0.9594 H   0  0  0  0  0  0  0  0  0  0  0  0
   -0.8260   -1.0722   -2.5188 H   0  0  0  0  0  0  0  0  0  0  0  0
    0.0420    0.4267   -2.2969 H   0  0  0  0  0  0  0  0  0  0  0  0
    1.0122   -1.1693   -2.0862 H   0  0  0  0  0  0  0  0  0  0  0  0
   -2.2227   -0.3054   -1.0410 H   0  0  0  0  0  0  0  0  0  0  0  0
   -1.9887   -0.1958    0.7560 H   0  0  0  0  0  0  0  0  0  0  0  0
   -1.7114    2.0665   -1.2817 H   0  0  0  0  0  0  0  0  0  0  0  0
   -0.4304    2.0063    0.0527 H   0  0  0  0  0  0  0  0  0  0  0  0
   -2.1521    2.0429    0.4729 H   0  0  0  0  0  0  0  0  0  0  0  0
  1  2  1  0
  2  3  3  0
  3  4  1  0
  4  5  1  0
  4  6  1  0
  4  7  1  0
  7  8  1  0
  1  9  1  0
  1 10  1  0
  1 11  1  0
  5 12  1  0
  5 13  1  0
  5 14  1  0
  6 15  1  0
  6 16  1  0
  6 17  1  0
  7 18  1  0
  7 19  1  0
  8 20  1  0
  8 21  1  0
  8 22  1  0
M  END
