
     RDKit          3D

 18 17  0  0  0  0  0  0  0  0999 V2000
    3.2814    0.2843   -0.0938 C   0  0  0  0  0  0  0  0  0  0  0  0
    1.8190    0.1132   -0.0538 C   0  0  0  0  0  0  0  0  0  0  0  0
    0.6203   -0.0141   -0.0335 C   0  0  0  0  0  0  0  0  0  0  0  0
   -0.8495   -0.1677   -0.0343 C   0  0  0  0  0  0  0  0  0  0  0  0
   -1.3815    0.8260   -1.0379 C   0  0  0  0  0  0  0  0  0  0  0  0
   -1.3525    0.0780    1.3499 C   0  0  0  0  0  0  0  0  0  0  0  0
   -1.2536   -1.5156   -0.4731 C   0  0  0  0  0  0  0  0  0  0  0  0
   -1.7858   -2.2774    0.3000 O   0  0  0  0  0  0  0  0  0  0  0  0
    3.5582    0.3402   -1.1528 H   0  0  0  0  0  0  0  0  0  0  0  0
    3.6021    1.1829    0.4957 H   0  0  0  0  0  0  0  0  0  0  0  0
    3.7083   -0.5946    0.4389 H   0  0  0  0  0  0  0  0  0  0  0  0
   -1.4890    1.7912   -0.5146 H   0  0  0  0  0  0  0  0  0  0  0  0
   -0.6898    0.8585   -1.8945 H   0  0  0  0  0  0  0  0  0  0  0  0
   -2.3748    0.4956   -1.4464 H   0  0  0  0  0  0  0  0  0  0  0  0
   -2.2624   -0.5484    1.5008 H   0  0  0  0  0  0  0  0  0  0  0  0
   -0.5472   -0.2246    2.0573 H   0  0  0  0  0  0  0  0  0  0  0  0
   -1.5559    1.1518    1.4906 H   0  0  0  0  0  0  0  0  0  0  0  0
   -1.0471   -1.7795   -1.5186 H   0  0  0  0  0  0  0  0  0  0  0  0
  1  2  1  0
  2  3  3  0
  3  4  1  0
  4  5  1  0
  4  6  1  0
  4  7  1  0
  7  8  2  0
  1  9  1  0
  1 10  1  0
  1 11  1  0
  5 12  1  0
  5 13  1  0
  5 14  1  0
  6 15  1  0
  6 16  1  0
  6 17  1  0
  7 18  1  0
M  END
