
     RDKit          3D

 19 20  0  0  0  0  0  0  0  0999 V2000
    3.7864    0.0197    0.0258 C   0  0  0  0  0  0  0  0  0  0  0  0
    2.3000   -0.0215   -0.0776 C   0  0  0  0  0  0  0  0  0  0  0  0
    1.1074   -0.0354   -0.1521 C   0  0  0  0  0  0  0  0  0  0  0  0
   -0.2182   -0.0587   -0.2559 C   0  0  0  0  0  0  0  0  0  0  0  0
   -1.1648    0.9962    0.2469 C   0  0  0  0  0  0  0  0  0  0  0  0
   -2.0676   -0.0727   -0.3228 C   0  0  0  0  0  0  0  0  0  0  0  0
   -3.3030   -0.0931   -0.4251 O   0  0  0  0  0  0  0  0  0  0  0  0
   -1.0467   -0.1351   -1.4725 C   0  0  0  0  0  0  0  0  0  0  0  0
   -1.1470   -1.0528    0.3732 C   0  0  0  0  0  0  0  0  0  0  0  0
    4.2613   -0.2358   -0.9291 H   0  0  0  0  0  0  0  0  0  0  0  0
    4.0784   -0.7211    0.7881 H   0  0  0  0  0  0  0  0  0  0  0  0
    4.1222    1.0350    0.3308 H   0  0  0  0  0  0  0  0  0  0  0  0
   -1.2010    1.1039    1.3460 H   0  0  0  0  0  0  0  0  0  0  0  0
   -1.1720    1.9447   -0.3186 H   0  0  0  0  0  0  0  0  0  0  0  0
   -3.8205    0.7303   -0.1916 H   0  0  0  0  0  0  0  0  0  0  0  0
   -1.0843   -1.1122   -2.0099 H   0  0  0  0  0  0  0  0  0  0  0  0
   -1.0528    0.7629   -2.1113 H   0  0  0  0  0  0  0  0  0  0  0  0
   -1.1370   -2.0724   -0.0612 H   0  0  0  0  0  0  0  0  0  0  0  0
   -1.2411   -0.9818    1.4660 H   0  0  0  0  0  0  0  0  0  0  0  0
  1  2  1  0
  2  3  3  0
  3  4  1  0
  4  5  1  0
  5  6  1  0
  6  7  1  0
  6  8  1  0
  6  9  1  0
  8  4  1  0
  9  4  1  0
  1 10  1  0
  1 11  1  0
  1 12  1  0
  5 13  1  0
  5 14  1  0
  7 15  1  0
  8 16  1  0
  8 17  1  0
  9 18  1  0
  9 19  1  0
M  END
