
     RDKit          3D

 16 15  0  0  0  0  0  0  0  0999 V2000
    2.6136    2.3405   -0.7442 C   0  0  0  0  0  0  0  0  0  0  0  0
    1.9186    1.4074   -0.0448 C   0  0  0  0  0  0  0  0  0  0  0  0
    1.2167    0.4819    0.6286 C   0  0  0  0  0  0  0  0  0  0  0  0
    0.4799   -0.4917    1.3652 C   0  0  0  0  0  0  0  0  0  0  0  0
   -0.7593   -0.7853    0.5829 C   0  0  0  0  0  0  0  0  0  0  0  0
   -0.9009   -0.3400   -0.5941 O   0  0  0  0  0  0  0  0  0  0  0  0
   -1.7367   -1.5481    1.1734 O   0  0  0  0  0  0  0  0  0  0  0  0
   -2.9022   -1.8404    0.4628 C   0  0  0  0  0  0  0  0  0  0  0  0
    3.1751    1.9612   -1.6699 H   0  0  0  0  0  0  0  0  0  0  0  0
    3.4575    2.8493   -0.1856 H   0  0  0  0  0  0  0  0  0  0  0  0
    1.9283    3.1457   -1.1363 H   0  0  0  0  0  0  0  0  0  0  0  0
    0.1989   -0.0749    2.3852 H   0  0  0  0  0  0  0  0  0  0  0  0
    1.0306   -1.4481    1.5902 H   0  0  0  0  0  0  0  0  0  0  0  0
   -2.6752   -2.3584   -0.5224 H   0  0  0  0  0  0  0  0  0  0  0  0
   -3.6532   -2.4198    1.0210 H   0  0  0  0  0  0  0  0  0  0  0  0
   -3.3919   -0.8790    0.1479 H   0  0  0  0  0  0  0  0  0  0  0  0
  1  2  1  0
  2  3  3  0
  3  4  1  0
  4  5  1  0
  5  6  2  0
  5  7  1  0
  7  8  1  0
  1  9  1  0
  1 10  1  0
  1 11  1  0
  4 12  1  0
  4 13  1  0
  8 14  1  0
  8 15  1  0
  8 16  1  0
M  END
