
     RDKit          3D

 19 19  0  0  0  0  0  0  0  0999 V2000
    3.4027   -0.5895    0.0336 C   0  0  0  0  0  0  0  0  0  0  0  0
    2.0094   -0.1171   -0.1538 C   0  0  0  0  0  0  0  0  0  0  0  0
    0.7837    0.2751   -0.3164 C   0  0  0  0  0  0  0  0  0  0  0  0
   -0.7805    0.7469   -0.5179 C   0  0  0  0  0  0  0  0  0  0  0  0
   -0.8371    1.2381   -1.8556 C   0  0  0  0  0  0  0  0  0  0  0  0
   -1.8033    1.2923   -2.5723 O   0  0  0  0  0  0  0  0  0  0  0  0
   -1.6897   -0.5461   -0.4973 C   0  0  0  0  0  0  0  0  0  0  0  0
   -1.5636    0.5034    0.6072 C   0  0  0  0  0  0  0  0  0  0  0  0
   -1.2082   -0.2551    1.9256 C   0  0  0  0  0  0  0  0  0  0  0  0
    3.4422   -1.6404   -0.1216 H   0  0  0  0  0  0  0  0  0  0  0  0
    3.7877   -0.3263    1.0064 H   0  0  0  0  0  0  0  0  0  0  0  0
    3.9932   -0.0683   -0.8163 H   0  0  0  0  0  0  0  0  0  0  0  0
    0.0961    1.6364   -2.3923 H   0  0  0  0  0  0  0  0  0  0  0  0
   -1.1185   -1.4764   -0.4675 H   0  0  0  0  0  0  0  0  0  0  0  0
   -2.6133   -0.5636   -1.0575 H   0  0  0  0  0  0  0  0  0  0  0  0
   -2.4451    1.1797    0.8022 H   0  0  0  0  0  0  0  0  0  0  0  0
   -1.1150   -1.3248    1.7429 H   0  0  0  0  0  0  0  0  0  0  0  0
   -2.0458   -0.1006    2.6662 H   0  0  0  0  0  0  0  0  0  0  0  0
   -0.2949    0.1363    2.3777 H   0  0  0  0  0  0  0  0  0  0  0  0
  1  2  1  0
  2  3  3  0
  3  4  1  0
  4  5  1  0
  5  6  2  0
  4  7  1  0
  7  8  1  0
  8  9  1  0
  8  4  1  0
  1 10  1  0
  1 11  1  0
  1 12  1  0
  5 13  1  0
  7 14  1  0
  7 15  1  0
  8 16  1  0
  9 17  1  0
  9 18  1  0
  9 19  1  0
M  END
