
     RDKit          3D

 21 20  0  0  0  0  0  0  0  0999 V2000
    3.7890    2.4467    0.4289 C   0  0  0  0  0  0  0  0  0  0  0  0
    2.7700    1.4191    0.6564 C   0  0  0  0  0  0  0  0  0  0  0  0
    1.9096    0.5729    0.8568 C   0  0  0  0  0  0  0  0  0  0  0  0
    0.8797   -0.4338    1.1215 C   0  0  0  0  0  0  0  0  0  0  0  0
    0.0019   -0.4595    0.0214 O   0  0  0  0  0  0  0  0  0  0  0  0
   -0.9698   -1.4311    0.3059 C   0  0  0  0  0  0  0  0  0  0  0  0
   -1.9560   -1.5299   -0.8183 C   0  0  0  0  0  0  0  0  0  0  0  0
   -2.6724   -0.2176   -1.0580 C   0  0  0  0  0  0  0  0  0  0  0  0
   -3.3709    0.1783    0.0794 O   0  0  0  0  0  0  0  0  0  0  0  0
    3.9810    2.9819    1.3890 H   0  0  0  0  0  0  0  0  0  0  0  0
    4.7771    1.9735    0.1541 H   0  0  0  0  0  0  0  0  0  0  0  0
    3.4747    3.1275   -0.3858 H   0  0  0  0  0  0  0  0  0  0  0  0
    1.3231   -1.4697    1.1646 H   0  0  0  0  0  0  0  0  0  0  0  0
    0.3577   -0.2311    2.0598 H   0  0  0  0  0  0  0  0  0  0  0  0
   -0.5007   -2.4420    0.4145 H   0  0  0  0  0  0  0  0  0  0  0  0
   -1.4755   -1.1159    1.2236 H   0  0  0  0  0  0  0  0  0  0  0  0
   -1.4865   -1.8997   -1.7511 H   0  0  0  0  0  0  0  0  0  0  0  0
   -2.7288   -2.2796   -0.5471 H   0  0  0  0  0  0  0  0  0  0  0  0
   -3.4021   -0.4087   -1.8835 H   0  0  0  0  0  0  0  0  0  0  0  0
   -1.9858    0.5696   -1.4292 H   0  0  0  0  0  0  0  0  0  0  0  0
   -2.7152    0.6492    0.6842 H   0  0  0  0  0  0  0  0  0  0  0  0
  1  2  1  0
  2  3  3  0
  3  4  1  0
  4  5  1  0
  5  6  1  0
  6  7  1  0
  7  8  1  0
  8  9  1  0
  1 10  1  0
  1 11  1  0
  1 12  1  0
  4 13  1  0
  4 14  1  0
  6 15  1  0
  6 16  1  0
  7 17  1  0
  7 18  1  0
  8 19  1  0
  8 20  1  0
  9 21  1  0
M  END
