
     RDKit          3D

 21 20  0  0  0  0  0  0  0  0999 V2000
    1.8473    2.7169    3.2251 C   0  0  0  0  0  0  0  0  0  0  0  0
    1.8318    1.6645    2.3705 C   0  0  0  0  0  0  0  0  0  0  0  0
    1.8361    0.7178    1.5894 C   0  0  0  0  0  0  0  0  0  0  0  0
    1.8683   -0.4653    0.6171 C   0  0  0  0  0  0  0  0  0  0  0  0
    0.6338   -0.7548    0.1391 C   0  0  0  0  0  0  0  0  0  0  0  0
   -0.5185   -1.0216   -0.2837 C   0  0  0  0  0  0  0  0  0  0  0  0
   -1.8917   -1.3259   -0.7641 C   0  0  0  0  0  0  0  0  0  0  0  0
   -2.1657   -0.6575   -2.0609 C   0  0  0  0  0  0  0  0  0  0  0  0
   -1.2208   -1.0801   -3.1341 C   0  0  0  0  0  0  0  0  0  0  0  0
    0.8435    3.1288    3.5684 H   0  0  0  0  0  0  0  0  0  0  0  0
    2.4537    3.6043    2.8580 H   0  0  0  0  0  0  0  0  0  0  0  0
    2.3923    2.4914    4.2208 H   0  0  0  0  0  0  0  0  0  0  0  0
    2.3062   -1.3321    1.3107 H   0  0  0  0  0  0  0  0  0  0  0  0
    2.7302   -0.3551   -0.0844 H   0  0  0  0  0  0  0  0  0  0  0  0
   -2.6408   -0.9085   -0.0256 H   0  0  0  0  0  0  0  0  0  0  0  0
   -2.0631   -2.4182   -0.8187 H   0  0  0  0  0  0  0  0  0  0  0  0
   -3.2379   -0.8931   -2.3891 H   0  0  0  0  0  0  0  0  0  0  0  0
   -2.1249    0.4401   -1.8798 H   0  0  0  0  0  0  0  0  0  0  0  0
   -1.7600   -1.7204   -3.9035 H   0  0  0  0  0  0  0  0  0  0  0  0
   -0.3400   -1.6605   -2.8086 H   0  0  0  0  0  0  0  0  0  0  0  0
   -0.7798   -0.1705   -3.6354 H   0  0  0  0  0  0  0  0  0  0  0  0
  1  2  1  0
  2  3  3  0
  3  4  1  0
  4  5  1  0
  5  6  3  0
  6  7  1  0
  7  8  1  0
  8  9  1  0
  1 10  1  0
  1 11  1  0
  1 12  1  0
  4 13  1  0
  4 14  1  0
  7 15  1  0
  7 16  1  0
  8 17  1  0
  8 18  1  0
  9 19  1  0
  9 20  1  0
  9 21  1  0
M  END
