
     RDKit          3D

 21 21  0  0  0  0  0  0  0  0999 V2000
    2.9696    2.6065   -0.3563 C   0  0  0  0  0  0  0  0  0  0  0  0
    2.0656    1.6764    0.3632 C   0  0  0  0  0  0  0  0  0  0  0  0
    1.3305    0.9337    0.9644 C   0  0  0  0  0  0  0  0  0  0  0  0
    0.4150    0.0346    1.6816 C   0  0  0  0  0  0  0  0  0  0  0  0
   -0.4190   -0.6394    0.6444 C   0  0  0  0  0  0  0  0  0  0  0  0
   -0.5132   -1.9426    0.3992 C   0  0  0  0  0  0  0  0  0  0  0  0
   -1.4617   -2.1994   -0.7274 C   0  0  0  0  0  0  0  0  0  0  0  0
   -2.1989   -0.8990   -0.9403 C   0  0  0  0  0  0  0  0  0  0  0  0
   -1.2990    0.1315   -0.2940 C   0  0  0  0  0  0  0  0  0  0  0  0
    3.1998    2.2392   -1.3754 H   0  0  0  0  0  0  0  0  0  0  0  0
    3.8884    2.6658    0.2831 H   0  0  0  0  0  0  0  0  0  0  0  0
    2.5294    3.6302   -0.3836 H   0  0  0  0  0  0  0  0  0  0  0  0
   -0.2424    0.6601    2.3378 H   0  0  0  0  0  0  0  0  0  0  0  0
    0.9307   -0.6699    2.3386 H   0  0  0  0  0  0  0  0  0  0  0  0
    0.0506   -2.6655    0.9780 H   0  0  0  0  0  0  0  0  0  0  0  0
   -2.1943   -2.9571   -0.3388 H   0  0  0  0  0  0  0  0  0  0  0  0
   -0.9577   -2.5370   -1.6398 H   0  0  0  0  0  0  0  0  0  0  0  0
   -2.2983   -0.6783   -2.0174 H   0  0  0  0  0  0  0  0  0  0  0  0
   -3.2135   -0.9081   -0.4777 H   0  0  0  0  0  0  0  0  0  0  0  0
   -1.9146    0.8491    0.3007 H   0  0  0  0  0  0  0  0  0  0  0  0
   -0.6671    0.6691   -1.0393 H   0  0  0  0  0  0  0  0  0  0  0  0
  1  2  1  0
  2  3  3  0
  3  4  1  0
  4  5  1  0
  5  6  2  0
  6  7  1  0
  7  8  1  0
  8  9  1  0
  9  5  1  0
  1 10  1  0
  1 11  1  0
  1 12  1  0
  4 13  1  0
  4 14  1  0
  6 15  1  0
  7 16  1  0
  7 17  1  0
  8 18  1  0
  8 19  1  0
  9 20  1  0
  9 21  1  0
M  END
