
     RDKit          3D

 21 22  0  0  0  0  0  0  0  0999 V2000
    3.7422    0.3260    0.9987 C   0  0  0  0  0  0  0  0  0  0  0  0
    2.3398    0.1990    0.5804 C   0  0  0  0  0  0  0  0  0  0  0  0
    1.1694    0.1001    0.2524 C   0  0  0  0  0  0  0  0  0  0  0  0
   -0.2369   -0.0349   -0.1217 C   0  0  0  0  0  0  0  0  0  0  0  0
   -0.9612   -1.2822    0.2599 C   0  0  0  0  0  0  0  0  0  0  0  0
   -1.4920   -1.4672   -1.1511 C   0  0  0  0  0  0  0  0  0  0  0  0
   -0.5099   -0.3868   -1.5794 C   0  0  0  0  0  0  0  0  0  0  0  0
   -0.8023    0.9622   -1.0451 C   0  0  0  0  0  0  0  0  0  0  0  0
   -2.2295    1.4209   -0.8674 C   0  0  0  0  0  0  0  0  0  0  0  0
    4.2680    0.9476    0.2335 H   0  0  0  0  0  0  0  0  0  0  0  0
    3.8481    0.8612    1.9555 H   0  0  0  0  0  0  0  0  0  0  0  0
    4.1885   -0.6808    1.0772 H   0  0  0  0  0  0  0  0  0  0  0  0
   -1.7451   -1.1742    1.0413 H   0  0  0  0  0  0  0  0  0  0  0  0
   -0.2362   -2.1140    0.4651 H   0  0  0  0  0  0  0  0  0  0  0  0
   -1.2807   -2.4540   -1.6067 H   0  0  0  0  0  0  0  0  0  0  0  0
   -2.5215   -1.0856   -1.3075 H   0  0  0  0  0  0  0  0  0  0  0  0
    0.3167   -0.6194   -2.2380 H   0  0  0  0  0  0  0  0  0  0  0  0
   -0.1165    1.7575   -1.3847 H   0  0  0  0  0  0  0  0  0  0  0  0
   -2.1886    2.3864   -0.2898 H   0  0  0  0  0  0  0  0  0  0  0  0
   -2.7320    1.6163   -1.8431 H   0  0  0  0  0  0  0  0  0  0  0  0
   -2.8202    0.7218   -0.2475 H   0  0  0  0  0  0  0  0  0  0  0  0
  1  2  1  0
  2  3  3  0
  3  4  1  0
  4  5  1  0
  5  6  1  0
  6  7  1  0
  7  8  1  0
  8  9  1  0
  7  4  1  0
  8  4  1  0
  1 10  1  0
  1 11  1  0
  1 12  1  0
  5 13  1  0
  5 14  1  0
  6 15  1  0
  6 16  1  0
  7 17  1  0
  8 18  1  0
  9 19  1  0
  9 20  1  0
  9 21  1  0
M  END
