
     RDKit          3D

 21 21  0  0  0  0  0  0  0  0999 V2000
    1.4879    2.5939   -2.6132 C   0  0  0  0  0  0  0  0  0  0  0  0
    0.7698    1.7126   -2.1469 C   0  0  0  0  0  0  0  0  0  0  0  0
    0.0314    0.7791   -1.6712 C   0  0  0  0  0  0  0  0  0  0  0  0
   -0.8915   -0.4179   -1.0903 C   0  0  0  0  0  0  0  0  0  0  0  0
   -1.1820    0.0522    0.2784 C   0  0  0  0  0  0  0  0  0  0  0  0
   -1.7220   -0.8216    1.1979 O   0  0  0  0  0  0  0  0  0  0  0  0
   -0.6510   -1.7329    1.4595 C   0  0  0  0  0  0  0  0  0  0  0  0
   -0.3048   -2.1620    2.8016 C   0  0  0  0  0  0  0  0  0  0  0  0
    0.2968   -0.8562    2.4777 C   0  0  0  0  0  0  0  0  0  0  0  0
    2.1564    2.3472   -3.5735 H   0  0  0  0  0  0  0  0  0  0  0  0
    1.0236    3.5699   -3.0824 H   0  0  0  0  0  0  0  0  0  0  0  0
    2.3184    3.1124   -1.9269 H   0  0  0  0  0  0  0  0  0  0  0  0
   -0.2403   -1.2483   -1.2419 H   0  0  0  0  0  0  0  0  0  0  0  0
   -1.8210   -0.3541   -1.7270 H   0  0  0  0  0  0  0  0  0  0  0  0
   -1.7808    1.0444    0.2157 H   0  0  0  0  0  0  0  0  0  0  0  0
   -0.1501    0.3852    0.7037 H   0  0  0  0  0  0  0  0  0  0  0  0
    0.0384   -1.8754    0.5711 H   0  0  0  0  0  0  0  0  0  0  0  0
   -1.0747   -2.2625    3.6046 H   0  0  0  0  0  0  0  0  0  0  0  0
    0.3872   -3.0848    2.7795 H   0  0  0  0  0  0  0  0  0  0  0  0
   -0.0711    0.1386    2.6353 H   0  0  0  0  0  0  0  0  0  0  0  0
    1.3794   -0.9195    2.0630 H   0  0  0  0  0  0  0  0  0  0  0  0
  1  2  1  0
  2  3  3  0
  3  4  1  0
  4  5  1  0
  5  6  1  0
  6  7  1  0
  7  8  1  0
  8  9  1  0
  9  7  1  0
  1 10  1  0
  1 11  1  0
  1 12  1  0
  4 13  1  0
  4 14  1  0
  5 15  1  0
  5 16  1  0
  7 17  1  0
  8 18  1  0
  8 19  1  0
  9 20  1  0
  9 21  1  0
M  END
