
     RDKit          3D

 21 21  0  0  0  0  0  0  0  0999 V2000
    4.0607    0.3163    0.2752 C   0  0  0  0  0  0  0  0  0  0  0  0
    2.6383    0.3136   -0.0786 C   0  0  0  0  0  0  0  0  0  0  0  0
    1.4773    0.3076   -0.3885 C   0  0  0  0  0  0  0  0  0  0  0  0
    0.0895    0.3033   -0.7487 C   0  0  0  0  0  0  0  0  0  0  0  0
   -0.8104    1.0673    0.2285 C   0  0  0  0  0  0  0  0  0  0  0  0
   -1.8749    0.0230   -0.1316 C   0  0  0  0  0  0  0  0  0  0  0  0
   -2.8169   -0.3248    0.9634 C   0  0  0  0  0  0  0  0  0  0  0  0
   -0.6972   -0.9403   -0.3146 C   0  0  0  0  0  0  0  0  0  0  0  0
   -0.8647   -1.8398   -1.3393 O   0  0  0  0  0  0  0  0  0  0  0  0
    4.6463   -0.3663   -0.3887 H   0  0  0  0  0  0  0  0  0  0  0  0
    4.1667   -0.0166    1.3276 H   0  0  0  0  0  0  0  0  0  0  0  0
    4.5017    1.3443    0.1465 H   0  0  0  0  0  0  0  0  0  0  0  0
   -0.1914    0.5596   -1.7665 H   0  0  0  0  0  0  0  0  0  0  0  0
   -0.5082    0.9742    1.2870 H   0  0  0  0  0  0  0  0  0  0  0  0
   -1.1012    2.0752   -0.1154 H   0  0  0  0  0  0  0  0  0  0  0  0
   -2.3210    0.2112   -1.1334 H   0  0  0  0  0  0  0  0  0  0  0  0
   -2.7627    0.3372    1.8398 H   0  0  0  0  0  0  0  0  0  0  0  0
   -2.7289   -1.3742    1.3079 H   0  0  0  0  0  0  0  0  0  0  0  0
   -3.8673   -0.2341    0.5666 H   0  0  0  0  0  0  0  0  0  0  0  0
   -0.3777   -1.3540    0.6504 H   0  0  0  0  0  0  0  0  0  0  0  0
   -0.6581   -1.3828   -2.1875 H   0  0  0  0  0  0  0  0  0  0  0  0
  1  2  1  0
  2  3  3  0
  3  4  1  0
  4  5  1  0
  5  6  1  0
  6  7  1  0
  6  8  1  0
  8  9  1  0
  8  4  1  0
  1 10  1  0
  1 11  1  0
  1 12  1  0
  4 13  1  0
  5 14  1  0
  5 15  1  0
  6 16  1  0
  7 17  1  0
  7 18  1  0
  7 19  1  0
  8 20  1  0
  9 21  1  0
M  END
