
     RDKit          3D

 17 16  0  0  0  0  0  0  0  0999 V2000
   -2.8083    0.8726    0.4290 C   0  0  0  0  0  0  0  0  0  0  0  0
   -1.5575    0.5994   -0.2724 C   0  0  0  0  0  0  0  0  0  0  0  0
   -0.5297    0.3958   -0.8513 C   0  0  0  0  0  0  0  0  0  0  0  0
    0.7244    0.1235   -1.5561 C   0  0  0  0  0  0  0  0  0  0  0  0
    1.8145    0.0286   -0.5277 C   0  0  0  0  0  0  0  0  0  0  0  0
    1.4779   -1.0841    0.3775 C   0  0  0  0  0  0  0  0  0  0  0  0
    1.7065   -2.2546   -0.0266 O   0  0  0  0  0  0  0  0  0  0  0  0
    0.9082   -0.8282    1.6750 C   0  0  0  0  0  0  0  0  0  0  0  0
    0.6855    0.3429    2.0623 O   0  0  0  0  0  0  0  0  0  0  0  0
   -2.6442    0.8502    1.5327 H   0  0  0  0  0  0  0  0  0  0  0  0
   -3.5808    0.1018    0.2359 H   0  0  0  0  0  0  0  0  0  0  0  0
   -3.2335    1.8350    0.0794 H   0  0  0  0  0  0  0  0  0  0  0  0
    0.6699   -0.8815   -2.0718 H   0  0  0  0  0  0  0  0  0  0  0  0
    0.9487    0.8437   -2.3544 H   0  0  0  0  0  0  0  0  0  0  0  0
    2.0147    0.9685   -0.0051 H   0  0  0  0  0  0  0  0  0  0  0  0
    2.7506   -0.2681   -1.0879 H   0  0  0  0  0  0  0  0  0  0  0  0
    0.6532   -1.6455    2.3616 H   0  0  0  0  0  0  0  0  0  0  0  0
  1  2  1  0
  2  3  3  0
  3  4  1  0
  4  5  1  0
  5  6  1  0
  6  7  2  0
  6  8  1  0
  8  9  2  0
  1 10  1  0
  1 11  1  0
  1 12  1  0
  4 13  1  0
  4 14  1  0
  5 15  1  0
  5 16  1  0
  8 17  1  0
M  END
