
     RDKit          3D

 21 21  0  0  0  0  0  0  0  0999 V2000
    3.4835    1.4511   -2.0136 C   0  0  0  0  0  0  0  0  0  0  0  0
    2.1832    1.2462   -1.3343 C   0  0  0  0  0  0  0  0  0  0  0  0
    1.1240    1.0991   -0.7907 C   0  0  0  0  0  0  0  0  0  0  0  0
   -0.1856    0.9114   -0.0897 C   0  0  0  0  0  0  0  0  0  0  0  0
   -1.2358    0.9034   -0.9973 O   0  0  0  0  0  0  0  0  0  0  0  0
   -0.0536   -0.3915    0.6610 C   0  0  0  0  0  0  0  0  0  0  0  0
   -1.2526   -0.7894    1.4522 C   0  0  0  0  0  0  0  0  0  0  0  0
   -2.5837   -1.0155    0.8766 C   0  0  0  0  0  0  0  0  0  0  0  0
   -1.7687   -2.2241    1.1007 C   0  0  0  0  0  0  0  0  0  0  0  0
    4.2617    1.7575   -1.2786 H   0  0  0  0  0  0  0  0  0  0  0  0
    3.7256    0.5280   -2.5426 H   0  0  0  0  0  0  0  0  0  0  0  0
    3.4213    2.3069   -2.7518 H   0  0  0  0  0  0  0  0  0  0  0  0
   -0.3455    1.7571    0.6051 H   0  0  0  0  0  0  0  0  0  0  0  0
   -1.1658    1.7544   -1.5336 H   0  0  0  0  0  0  0  0  0  0  0  0
    0.7942   -0.2583    1.4001 H   0  0  0  0  0  0  0  0  0  0  0  0
    0.3171   -1.1928   -0.0213 H   0  0  0  0  0  0  0  0  0  0  0  0
   -1.2402   -0.5956    2.5664 H   0  0  0  0  0  0  0  0  0  0  0  0
   -3.4832   -0.8488    1.5341 H   0  0  0  0  0  0  0  0  0  0  0  0
   -2.7845   -0.7732   -0.1982 H   0  0  0  0  0  0  0  0  0  0  0  0
   -1.2835   -2.7125    0.2119 H   0  0  0  0  0  0  0  0  0  0  0  0
   -1.9281   -2.9133    1.9284 H   0  0  0  0  0  0  0  0  0  0  0  0
  1  2  1  0
  2  3  3  0
  3  4  1  0
  4  5  1  0
  4  6  1  0
  6  7  1  0
  7  8  1  0
  8  9  1  0
  9  7  1  0
  1 10  1  0
  1 11  1  0
  1 12  1  0
  4 13  1  0
  5 14  1  0
  6 15  1  0
  6 16  1  0
  7 17  1  0
  8 18  1  0
  8 19  1  0
  9 20  1  0
  9 21  1  0
M  END
