
     RDKit          3D

 19 19  0  0  0  0  0  0  0  0999 V2000
    2.3741   -2.0754    2.1811 C   0  0  0  0  0  0  0  0  0  0  0  0
    1.5782   -1.2121    1.5797 C   0  0  0  0  0  0  0  0  0  0  0  0
    0.7881   -0.3241    0.9822 C   0  0  0  0  0  0  0  0  0  0  0  0
   -0.1036    0.6668    0.3396 C   0  0  0  0  0  0  0  0  0  0  0  0
    0.3064    1.9693    0.2415 O   0  0  0  0  0  0  0  0  0  0  0  0
   -1.5800    0.5461    0.8113 C   0  0  0  0  0  0  0  0  0  0  0  0
   -1.1527    0.1108   -0.5589 C   0  0  0  0  0  0  0  0  0  0  0  0
   -1.5089    0.9695   -1.7449 C   0  0  0  0  0  0  0  0  0  0  0  0
   -0.3658    1.1674   -2.5378 O   0  0  0  0  0  0  0  0  0  0  0  0
    1.8802   -2.8097    2.9218 H   0  0  0  0  0  0  0  0  0  0  0  0
    2.9809   -2.7505    1.4972 H   0  0  0  0  0  0  0  0  0  0  0  0
    3.1482   -1.5889    2.8995 H   0  0  0  0  0  0  0  0  0  0  0  0
    0.5451    2.2021   -0.6819 H   0  0  0  0  0  0  0  0  0  0  0  0
   -2.1307    1.4834    1.0233 H   0  0  0  0  0  0  0  0  0  0  0  0
   -1.7428   -0.2334    1.5960 H   0  0  0  0  0  0  0  0  0  0  0  0
   -1.0975   -0.9939   -0.7821 H   0  0  0  0  0  0  0  0  0  0  0  0
   -1.8995    1.9319   -1.3790 H   0  0  0  0  0  0  0  0  0  0  0  0
   -2.3211    0.4613   -2.3130 H   0  0  0  0  0  0  0  0  0  0  0  0
    0.3016    0.4795   -2.2179 H   0  0  0  0  0  0  0  0  0  0  0  0
  1  2  1  0
  2  3  3  0
  3  4  1  0
  4  5  1  0
  4  6  1  0
  6  7  1  0
  7  8  1  0
  8  9  1  0
  7  4  1  0
  1 10  1  0
  1 11  1  0
  1 12  1  0
  5 13  1  0
  6 14  1  0
  6 15  1  0
  7 16  1  0
  8 17  1  0
  8 18  1  0
  9 19  1  0
M  END
