
     RDKit          3D

 21 21  0  0  0  0  0  0  0  0999 V2000
    3.7338   -0.2632   -1.1076 C   0  0  0  0  0  0  0  0  0  0  0  0
    2.1175   -0.5937    0.0121 C   0  0  0  0  0  0  0  0  0  0  0  0
    0.9803   -0.8464    0.8153 C   0  0  0  0  0  0  0  0  0  0  0  0
   -0.1225   -1.0697    1.5827 C   0  0  0  0  0  0  0  0  0  0  0  0
   -1.4883   -0.9936    0.8086 C   0  0  0  0  0  0  0  0  0  0  0  0
   -0.8168   -0.0032   -0.1888 C   0  0  0  0  0  0  0  0  0  0  0  0
   -1.9201    0.7393   -0.9855 C   0  0  0  0  0  0  0  0  0  0  0  0
   -1.4127    1.6634   -1.8555 O   0  0  0  0  0  0  0  0  0  0  0  0
   -0.5568    0.7888    1.0622 C   0  0  0  0  0  0  0  0  0  0  0  0
    3.6994    0.6040   -0.1524 H   0  0  0  0  0  0  0  0  0  0  0  0
    3.0741    0.0134   -1.7625 H   0  0  0  0  0  0  0  0  0  0  0  0
    4.0557   -1.1394   -0.5585 H   0  0  0  0  0  0  0  0  0  0  0  0
    0.0124   -0.4857    2.5417 H   0  0  0  0  0  0  0  0  0  0  0  0
   -1.8797   -1.8513    0.2615 H   0  0  0  0  0  0  0  0  0  0  0  0
   -2.2374   -0.4401    1.3805 H   0  0  0  0  0  0  0  0  0  0  0  0
   -0.1131   -0.5823   -0.7497 H   0  0  0  0  0  0  0  0  0  0  0  0
   -2.7078    0.1085   -1.4262 H   0  0  0  0  0  0  0  0  0  0  0  0
   -2.4728    1.2724   -0.1298 H   0  0  0  0  0  0  0  0  0  0  0  0
   -0.9171    1.1679   -2.5497 H   0  0  0  0  0  0  0  0  0  0  0  0
    0.3776    1.1261    1.2249 H   0  0  0  0  0  0  0  0  0  0  0  0
   -1.4056    0.7846    1.7768 H   0  0  0  0  0  0  0  0  0  0  0  0
  1  2  1  0
  2  3  3  0
  3  4  1  0
  4  5  1  0
  5  6  1  0
  6  7  1  0
  7  8  1  0
  6  9  1  0
  9  4  1  0
  1 10  1  0
  1 11  1  0
  1 12  1  0
  4 13  1  0
  5 14  1  0
  5 15  1  0
  6 16  1  0
  7 17  1  0
  7 18  1  0
  8 19  1  0
  9 20  1  0
  9 21  1  0
M  END
