
     RDKit          3D

 17 18  0  0  0  0  0  0  0  0999 V2000
    2.6243    1.4940   -0.9616 C   0  0  0  0  0  0  0  0  0  0  0  0
    1.5718    0.5145   -0.6856 C   0  0  0  0  0  0  0  0  0  0  0  0
    0.6764   -0.2903   -0.4571 C   0  0  0  0  0  0  0  0  0  0  0  0
   -0.3696   -1.2321   -0.1695 C   0  0  0  0  0  0  0  0  0  0  0  0
   -0.6732   -1.1979    1.3281 C   0  0  0  0  0  0  0  0  0  0  0  0
   -1.4237   -0.1138    1.4949 C   0  0  0  0  0  0  0  0  0  0  0  0
   -1.6049    0.5280    0.2219 C   0  0  0  0  0  0  0  0  0  0  0  0
   -2.3057    0.3550   -0.8582 O   0  0  0  0  0  0  0  0  0  0  0  0
   -1.7354   -0.7781   -0.5977 C   0  0  0  0  0  0  0  0  0  0  0  0
    2.7157    2.2389   -0.1401 H   0  0  0  0  0  0  0  0  0  0  0  0
    2.4320    1.9269   -1.9460 H   0  0  0  0  0  0  0  0  0  0  0  0
    3.5773    0.9004   -1.0356 H   0  0  0  0  0  0  0  0  0  0  0  0
   -0.1739   -2.2489   -0.5078 H   0  0  0  0  0  0  0  0  0  0  0  0
   -0.3257   -1.9270    2.0535 H   0  0  0  0  0  0  0  0  0  0  0  0
   -1.8070    0.1857    2.4590 H   0  0  0  0  0  0  0  0  0  0  0  0
   -0.6893    1.1703   -0.0119 H   0  0  0  0  0  0  0  0  0  0  0  0
   -2.4893   -1.5257   -0.1863 H   0  0  0  0  0  0  0  0  0  0  0  0
  1  2  1  0
  2  3  3  0
  3  4  1  0
  4  5  1  0
  5  6  2  0
  6  7  1  0
  7  8  1  0
  8  9  1  0
  9  4  1  0
  9  7  1  0
  1 10  1  0
  1 11  1  0
  1 12  1  0
  4 13  1  0
  5 14  1  0
  6 15  1  0
  7 16  1  0
  9 17  1  0
M  END
