
     RDKit          3D

 21 21  0  0  0  0  0  0  0  0999 V2000
    4.2108    0.5616    0.5024 C   0  0  0  0  0  0  0  0  0  0  0  0
    2.7716    0.2723    0.4173 C   0  0  0  0  0  0  0  0  0  0  0  0
    1.5830    0.0448    0.3583 C   0  0  0  0  0  0  0  0  0  0  0  0
    0.1756   -0.2112    0.3098 C   0  0  0  0  0  0  0  0  0  0  0  0
   -0.5990    0.1687    1.3087 C   0  0  0  0  0  0  0  0  0  0  0  0
   -2.0457   -0.1350    1.1786 C   0  0  0  0  0  0  0  0  0  0  0  0
   -2.4759    0.4474   -0.1526 C   0  0  0  0  0  0  0  0  0  0  0  0
   -1.7689   -0.3017   -1.2590 C   0  0  0  0  0  0  0  0  0  0  0  0
   -0.4488   -0.8987   -0.8394 C   0  0  0  0  0  0  0  0  0  0  0  0
    4.3901    1.5483    1.0036 H   0  0  0  0  0  0  0  0  0  0  0  0
    4.7529   -0.2130    1.0590 H   0  0  0  0  0  0  0  0  0  0  0  0
    4.5815    0.6839   -0.5326 H   0  0  0  0  0  0  0  0  0  0  0  0
   -0.1365    0.6681    2.1428 H   0  0  0  0  0  0  0  0  0  0  0  0
   -2.1935   -1.2461    1.0820 H   0  0  0  0  0  0  0  0  0  0  0  0
   -2.5884    0.2864    2.0264 H   0  0  0  0  0  0  0  0  0  0  0  0
   -2.1843    1.5359   -0.1674 H   0  0  0  0  0  0  0  0  0  0  0  0
   -3.5674    0.4325   -0.2654 H   0  0  0  0  0  0  0  0  0  0  0  0
   -1.6148    0.3584   -2.1604 H   0  0  0  0  0  0  0  0  0  0  0  0
   -2.4185   -1.1381   -1.6509 H   0  0  0  0  0  0  0  0  0  0  0  0
   -0.6274   -1.9592   -0.5123 H   0  0  0  0  0  0  0  0  0  0  0  0
    0.2037   -0.9051   -1.7386 H   0  0  0  0  0  0  0  0  0  0  0  0
  1  2  1  0
  2  3  3  0
  3  4  1  0
  4  5  2  0
  5  6  1  0
  6  7  1  0
  7  8  1  0
  8  9  1  0
  9  4  1  0
  1 10  1  0
  1 11  1  0
  1 12  1  0
  5 13  1  0
  6 14  1  0
  6 15  1  0
  7 16  1  0
  7 17  1  0
  8 18  1  0
  8 19  1  0
  9 20  1  0
  9 21  1  0
M  END
