
     RDKit          3D

 17 16  0  0  0  0  0  0  0  0999 V2000
    3.9463   -0.2625   -0.7159 C   0  0  0  0  0  0  0  0  0  0  0  0
    2.7753   -0.6593    0.0105 C   0  0  0  0  0  0  0  0  0  0  0  0
    1.7190   -1.0130    0.6726 C   0  0  0  0  0  0  0  0  0  0  0  0
    0.5264   -1.3927    1.3967 C   0  0  0  0  0  0  0  0  0  0  0  0
   -0.6551   -0.7201    0.7664 C   0  0  0  0  0  0  0  0  0  0  0  0
   -1.7246   -0.1062    0.2186 C   0  0  0  0  0  0  0  0  0  0  0  0
   -2.7710    0.4730   -0.3272 C   0  0  0  0  0  0  0  0  0  0  0  0
   -3.4341    1.6934    0.4243 C   0  0  0  0  0  0  0  0  0  0  0  0
   -3.3532    0.1904   -1.3935 O   0  0  0  0  0  0  0  0  0  0  0  0
    4.7108    0.0234    0.0358 H   0  0  0  0  0  0  0  0  0  0  0  0
    3.7425    0.5986   -1.4004 H   0  0  0  0  0  0  0  0  0  0  0  0
    4.3595   -1.1375   -1.2973 H   0  0  0  0  0  0  0  0  0  0  0  0
    0.3090   -2.4798    1.2902 H   0  0  0  0  0  0  0  0  0  0  0  0
    0.6042   -1.0652    2.4597 H   0  0  0  0  0  0  0  0  0  0  0  0
   -4.5028    1.4673    0.4644 H   0  0  0  0  0  0  0  0  0  0  0  0
   -3.2577    2.5713   -0.2703 H   0  0  0  0  0  0  0  0  0  0  0  0
   -2.9944    1.8189    1.3934 H   0  0  0  0  0  0  0  0  0  0  0  0
  1  2  1  0
  2  3  3  0
  3  4  1  0
  4  5  1  0
  5  6  3  0
  6  7  1  0
  7  8  1  0
  7  9  2  0
  1 10  1  0
  1 11  1  0
  1 12  1  0
  4 13  1  0
  4 14  1  0
  8 15  1  0
  8 16  1  0
  8 17  1  0
M  END
