
     RDKit          3D

 20 19  0  0  0  0  0  0  0  0999 V2000
    2.4506    0.6400   -2.3583 C   0  0  0  0  0  0  0  0  0  0  0  0
    1.8636    0.7662   -0.9800 C   0  0  0  0  0  0  0  0  0  0  0  0
    1.3724    0.8770    0.1241 C   0  0  0  0  0  0  0  0  0  0  0  0
    0.7886    1.0279    1.4068 C   0  0  0  0  0  0  0  0  0  0  0  0
   -0.5906    0.3971    1.4000 C   0  0  0  0  0  0  0  0  0  0  0  0
   -0.5118   -1.0779    1.0656 C   0  0  0  0  0  0  0  0  0  0  0  0
   -1.7453   -1.7088    1.0455 O   0  0  0  0  0  0  0  0  0  0  0  0
   -2.6267   -1.1992    0.1214 C   0  0  0  0  0  0  0  0  0  0  0  0
    2.1792    1.5672   -2.8743 H   0  0  0  0  0  0  0  0  0  0  0  0
    3.5564    0.6771   -2.2327 H   0  0  0  0  0  0  0  0  0  0  0  0
    2.0964   -0.2864   -2.8417 H   0  0  0  0  0  0  0  0  0  0  0  0
    0.6341    2.1106    1.6816 H   0  0  0  0  0  0  0  0  0  0  0  0
    1.3909    0.6101    2.2450 H   0  0  0  0  0  0  0  0  0  0  0  0
   -1.0088    0.4945    2.4202 H   0  0  0  0  0  0  0  0  0  0  0  0
   -1.2347    0.9246    0.7012 H   0  0  0  0  0  0  0  0  0  0  0  0
    0.1673   -1.6288    1.7353 H   0  0  0  0  0  0  0  0  0  0  0  0
   -0.0157   -1.1164    0.0574 H   0  0  0  0  0  0  0  0  0  0  0  0
   -3.6003   -1.7532    0.1380 H   0  0  0  0  0  0  0  0  0  0  0  0
   -2.2349   -1.1777   -0.9027 H   0  0  0  0  0  0  0  0  0  0  0  0
   -2.9306   -0.1440    0.3859 H   0  0  0  0  0  0  0  0  0  0  0  0
  1  2  1  0
  2  3  3  0
  3  4  1  0
  4  5  1  0
  5  6  1  0
  6  7  1  0
  7  8  1  0
  1  9  1  0
  1 10  1  0
  1 11  1  0
  4 12  1  0
  4 13  1  0
  5 14  1  0
  5 15  1  0
  6 16  1  0
  6 17  1  0
  8 18  1  0
  8 19  1  0
  8 20  1  0
M  END
