
     RDKit          3D

 21 21  0  0  0  0  0  0  0  0999 V2000
    3.6431    0.5130   -0.9861 C   0  0  0  0  0  0  0  0  0  0  0  0
    2.2597    0.1792   -0.5630 C   0  0  0  0  0  0  0  0  0  0  0  0
    1.1518   -0.0675   -0.2276 C   0  0  0  0  0  0  0  0  0  0  0  0
   -0.1982   -0.3734    0.2003 C   0  0  0  0  0  0  0  0  0  0  0  0
   -0.3486   -1.5854    1.0589 C   0  0  0  0  0  0  0  0  0  0  0  0
   -0.8971    0.8336    0.8363 C   0  0  0  0  0  0  0  0  0  0  0  0
   -2.1625    0.2765    0.1973 C   0  0  0  0  0  0  0  0  0  0  0  0
   -3.0628    1.2409   -0.2242 O   0  0  0  0  0  0  0  0  0  0  0  0
   -1.2497   -0.2385   -0.9069 C   0  0  0  0  0  0  0  0  0  0  0  0
    3.6170    1.0207   -1.9621 H   0  0  0  0  0  0  0  0  0  0  0  0
    4.2280   -0.4334   -1.1214 H   0  0  0  0  0  0  0  0  0  0  0  0
    4.0736    1.1240   -0.1884 H   0  0  0  0  0  0  0  0  0  0  0  0
   -0.5020   -1.3184    2.1460 H   0  0  0  0  0  0  0  0  0  0  0  0
   -1.1871   -2.2348    0.7783 H   0  0  0  0  0  0  0  0  0  0  0  0
    0.6076   -2.1838    1.0674 H   0  0  0  0  0  0  0  0  0  0  0  0
   -0.9431    0.8012    1.9262 H   0  0  0  0  0  0  0  0  0  0  0  0
   -0.6187    1.8021    0.3711 H   0  0  0  0  0  0  0  0  0  0  0  0
   -2.5505   -0.5365    0.8126 H   0  0  0  0  0  0  0  0  0  0  0  0
   -3.3830    1.7507    0.5567 H   0  0  0  0  0  0  0  0  0  0  0  0
   -1.5483   -1.1676   -1.3825 H   0  0  0  0  0  0  0  0  0  0  0  0
   -0.9293    0.5973   -1.5705 H   0  0  0  0  0  0  0  0  0  0  0  0
  1  2  1  0
  2  3  3  0
  3  4  1  0
  4  5  1  0
  4  6  1  0
  6  7  1  0
  7  8  1  0
  7  9  1  0
  9  4  1  0
  1 10  1  0
  1 11  1  0
  1 12  1  0
  5 13  1  0
  5 14  1  0
  5 15  1  0
  6 16  1  0
  6 17  1  0
  7 18  1  0
  8 19  1  0
  9 20  1  0
  9 21  1  0
M  END
