
     RDKit          3D

 21 21  0  0  0  0  0  0  0  0999 V2000
    3.2461   -0.5898   -0.0814 C   0  0  0  0  0  0  0  0  0  0  0  0
    1.9026   -0.2673    0.4171 C   0  0  0  0  0  0  0  0  0  0  0  0
    0.8062    0.0027    0.8434 C   0  0  0  0  0  0  0  0  0  0  0  0
   -0.5381    0.3402    1.3663 C   0  0  0  0  0  0  0  0  0  0  0  0
   -0.6388    1.7011    1.7350 O   0  0  0  0  0  0  0  0  0  0  0  0
   -0.6997    1.9735    0.3487 C   0  0  0  0  0  0  0  0  0  0  0  0
   -1.4708    0.6521    0.2355 C   0  0  0  0  0  0  0  0  0  0  0  0
   -1.2246   -0.0699   -1.0467 C   0  0  0  0  0  0  0  0  0  0  0  0
   -1.3423   -1.5531   -0.7927 C   0  0  0  0  0  0  0  0  0  0  0  0
    3.4639   -1.6822    0.0404 H   0  0  0  0  0  0  0  0  0  0  0  0
    4.0382   -0.0280    0.4638 H   0  0  0  0  0  0  0  0  0  0  0  0
    3.2778   -0.2978   -1.1370 H   0  0  0  0  0  0  0  0  0  0  0  0
   -0.9068   -0.3634    2.1343 H   0  0  0  0  0  0  0  0  0  0  0  0
   -1.2844    2.8490    0.0714 H   0  0  0  0  0  0  0  0  0  0  0  0
    0.3066    1.8623   -0.0986 H   0  0  0  0  0  0  0  0  0  0  0  0
   -2.5264    0.7614    0.5556 H   0  0  0  0  0  0  0  0  0  0  0  0
   -2.0070    0.2555   -1.7715 H   0  0  0  0  0  0  0  0  0  0  0  0
   -0.2366    0.2254   -1.4456 H   0  0  0  0  0  0  0  0  0  0  0  0
   -1.8424   -2.0058   -1.6848 H   0  0  0  0  0  0  0  0  0  0  0  0
   -1.9745   -1.7159    0.1009 H   0  0  0  0  0  0  0  0  0  0  0  0
   -0.3489   -2.0499   -0.7130 H   0  0  0  0  0  0  0  0  0  0  0  0
  1  2  1  0
  2  3  3  0
  3  4  1  0
  4  5  1  0
  5  6  1  0
  6  7  1  0
  7  8  1  0
  8  9  1  0
  7  4  1  0
  1 10  1  0
  1 11  1  0
  1 12  1  0
  4 13  1  0
  6 14  1  0
  6 15  1  0
  7 16  1  0
  8 17  1  0
  8 18  1  0
  9 19  1  0
  9 20  1  0
  9 21  1  0
M  END
