
     RDKit          3D

 15 16  0  0  0  0  0  0  0  0999 V2000
    3.0878   -0.1059   -0.5298 C   0  0  0  0  0  0  0  0  0  0  0  0
    1.6237   -0.1074   -0.5233 C   0  0  0  0  0  0  0  0  0  0  0  0
    0.3994   -0.1090   -0.5343 C   0  0  0  0  0  0  0  0  0  0  0  0
   -1.0627   -0.0862   -0.5486 C   0  0  0  0  0  0  0  0  0  0  0  0
   -1.7800    1.1992   -0.4002 C   0  0  0  0  0  0  0  0  0  0  0  0
   -1.6994    0.2805    0.7381 C   0  0  0  0  0  0  0  0  0  0  0  0
   -2.4673   -0.8984    0.6733 O   0  0  0  0  0  0  0  0  0  0  0  0
   -1.7702   -1.3630   -0.4415 C   0  0  0  0  0  0  0  0  0  0  0  0
   -1.7711   -2.4477   -1.0760 O   0  0  0  0  0  0  0  0  0  0  0  0
    3.4260   -1.0504   -0.0940 H   0  0  0  0  0  0  0  0  0  0  0  0
    3.5025    0.7960   -0.0372 H   0  0  0  0  0  0  0  0  0  0  0  0
    3.4653   -0.0845   -1.5802 H   0  0  0  0  0  0  0  0  0  0  0  0
   -1.1305    2.1062   -0.3688 H   0  0  0  0  0  0  0  0  0  0  0  0
   -2.7479    1.4018   -0.8971 H   0  0  0  0  0  0  0  0  0  0  0  0
   -1.0756    0.4690    1.6306 H   0  0  0  0  0  0  0  0  0  0  0  0
  1  2  1  0
  2  3  3  0
  3  4  1  0
  4  5  1  0
  5  6  1  0
  6  7  1  0
  7  8  1  0
  8  9  2  0
  6  4  1  0
  8  4  1  0
  1 10  1  0
  1 11  1  0
  1 12  1  0
  5 13  1  0
  5 14  1  0
  6 15  1  0
M  END
