
     RDKit          3D

 21 22  0  0  0  0  0  0  0  0999 V2000
    3.5067    0.8526    1.5871 C   0  0  0  0  0  0  0  0  0  0  0  0
    2.3079    0.2644    0.9883 C   0  0  0  0  0  0  0  0  0  0  0  0
    1.3259   -0.2212    0.5148 C   0  0  0  0  0  0  0  0  0  0  0  0
    0.1300   -0.8035   -0.0343 C   0  0  0  0  0  0  0  0  0  0  0  0
   -1.0171   -0.7793    0.9956 C   0  0  0  0  0  0  0  0  0  0  0  0
   -2.0884   -0.1627    0.1437 C   0  0  0  0  0  0  0  0  0  0  0  0
   -1.8644   -0.7549   -1.2339 C   0  0  0  0  0  0  0  0  0  0  0  0
   -0.5224   -0.0090   -1.1206 C   0  0  0  0  0  0  0  0  0  0  0  0
   -1.3548    1.0636   -0.4187 C   0  0  0  0  0  0  0  0  0  0  0  0
    3.7282    1.8672    1.1560 H   0  0  0  0  0  0  0  0  0  0  0  0
    3.3542    0.9469    2.6766 H   0  0  0  0  0  0  0  0  0  0  0  0
    4.3969    0.1849    1.4420 H   0  0  0  0  0  0  0  0  0  0  0  0
    0.2614   -1.8468   -0.3684 H   0  0  0  0  0  0  0  0  0  0  0  0
   -1.2369   -1.7943    1.3274 H   0  0  0  0  0  0  0  0  0  0  0  0
   -0.7962   -0.0673    1.8088 H   0  0  0  0  0  0  0  0  0  0  0  0
   -3.0725   -0.0376    0.5013 H   0  0  0  0  0  0  0  0  0  0  0  0
   -1.6984   -1.8305   -1.1977 H   0  0  0  0  0  0  0  0  0  0  0  0
   -2.5258   -0.3577   -2.0217 H   0  0  0  0  0  0  0  0  0  0  0  0
   -0.0149    0.2357   -2.0114 H   0  0  0  0  0  0  0  0  0  0  0  0
   -1.9920    1.5940   -1.1258 H   0  0  0  0  0  0  0  0  0  0  0  0
   -0.8273    1.6553    0.3272 H   0  0  0  0  0  0  0  0  0  0  0  0
  1  2  1  0
  2  3  3  0
  3  4  1  0
  4  5  1  0
  5  6  1  0
  6  7  1  0
  7  8  1  0
  8  9  1  0
  8  4  1  0
  9  6  1  0
  1 10  1  0
  1 11  1  0
  1 12  1  0
  4 13  1  0
  5 14  1  0
  5 15  1  0
  6 16  1  0
  7 17  1  0
  7 18  1  0
  8 19  1  0
  9 20  1  0
  9 21  1  0
M  END
