
     RDKit          3D

 19 19  0  0  0  0  0  0  0  0999 V2000
    2.2271    2.1440    2.4418 C   0  0  0  0  0  0  0  0  0  0  0  0
    1.2333    1.1597    1.8423 C   0  0  0  0  0  0  0  0  0  0  0  0
    0.4581    0.3651    1.3766 C   0  0  0  0  0  0  0  0  0  0  0  0
   -0.4911   -0.6327    0.7780 C   0  0  0  0  0  0  0  0  0  0  0  0
   -1.3803    0.1699   -0.2209 C   0  0  0  0  0  0  0  0  0  0  0  0
   -0.7890   -0.6133   -1.3260 C   0  0  0  0  0  0  0  0  0  0  0  0
   -1.7246   -1.5685   -1.9354 C   0  0  0  0  0  0  0  0  0  0  0  0
   -1.4469   -2.7554   -1.8772 O   0  0  0  0  0  0  0  0  0  0  0  0
    0.2875   -1.1746   -0.4190 C   0  0  0  0  0  0  0  0  0  0  0  0
    2.8001    2.5213    1.5817 H   0  0  0  0  0  0  0  0  0  0  0  0
    2.8818    1.5270    3.1359 H   0  0  0  0  0  0  0  0  0  0  0  0
    1.7229    2.8728    3.0649 H   0  0  0  0  0  0  0  0  0  0  0  0
   -0.9746   -1.2876    1.4324 H   0  0  0  0  0  0  0  0  0  0  0  0
   -2.4301    0.1543    0.0005 H   0  0  0  0  0  0  0  0  0  0  0  0
   -1.0142    1.2425   -0.2656 H   0  0  0  0  0  0  0  0  0  0  0  0
   -0.3642    0.0650   -2.1333 H   0  0  0  0  0  0  0  0  0  0  0  0
   -2.6222   -1.2601   -2.4177 H   0  0  0  0  0  0  0  0  0  0  0  0
    0.3302   -2.2579   -0.4134 H   0  0  0  0  0  0  0  0  0  0  0  0
    1.2962   -0.6714   -0.5748 H   0  0  0  0  0  0  0  0  0  0  0  0
  1  2  1  0
  2  3  3  0
  3  4  1  0
  4  5  1  0
  5  6  1  0
  6  7  1  0
  7  8  2  0
  6  9  1  0
  9  4  1  0
  1 10  1  0
  1 11  1  0
  1 12  1  0
  4 13  1  0
  5 14  1  0
  5 15  1  0
  6 16  1  0
  7 17  1  0
  9 18  1  0
  9 19  1  0
M  END
