
     RDKit          3D

 17 16  0  0  0  0  0  0  0  0999 V2000
    3.7040   -1.8788    1.6431 C   0  0  0  0  0  0  0  0  0  0  0  0
    2.7753   -1.2740    1.1616 C   0  0  0  0  0  0  0  0  0  0  0  0
    1.7727   -0.6374    0.6637 C   0  0  0  0  0  0  0  0  0  0  0  0
    0.3834    0.2103   -0.0243 C   0  0  0  0  0  0  0  0  0  0  0  0
   -0.3396    0.6587   -0.3798 C   0  0  0  0  0  0  0  0  0  0  0  0
   -1.5185    1.4178   -0.9565 C   0  0  0  0  0  0  0  0  0  0  0  0
   -1.3545    0.8880   -2.4362 O   0  0  0  0  0  0  0  0  0  0  0  0
   -2.7675    0.9361   -0.5824 C   0  0  0  0  0  0  0  0  0  0  0  0
   -3.4185    1.5655    0.4651 O   0  0  0  0  0  0  0  0  0  0  0  0
    3.9025   -2.7450    2.1683 H   0  0  0  0  0  0  0  0  0  0  0  0
    4.7414   -1.5453    1.0500 H   0  0  0  0  0  0  0  0  0  0  0  0
    3.6456   -2.8590    0.4591 H   0  0  0  0  0  0  0  0  0  0  0  0
   -1.1936    2.4790   -1.1967 H   0  0  0  0  0  0  0  0  0  0  0  0
   -0.8575    0.0083   -2.1483 H   0  0  0  0  0  0  0  0  0  0  0  0
   -2.4023   -0.1379    0.1117 H   0  0  0  0  0  0  0  0  0  0  0  0
   -3.3746    0.4662   -1.3122 H   0  0  0  0  0  0  0  0  0  0  0  0
   -3.6983    2.4475    0.3087 H   0  0  0  0  0  0  0  0  0  0  0  0
  1  2  1  0
  2  3  3  0
  3  4  1  0
  4  5  3  0
  5  6  1  0
  6  7  1  0
  6  8  1  0
  8  9  1  0
  1 10  1  0
  1 11  1  0
  1 12  1  0
  6 13  1  0
  7 14  1  0
  8 15  1  0
  8 16  1  0
  9 17  1  0
M  END
