
     RDKit          3D

 13 12  0  0  0  0  0  0  0  0999 V2000
   -3.9155   -0.4984    0.3956 C   0  0  0  0  0  0  0  0  0  0  0  0
   -3.0219   -0.3803    0.3690 C   0  0  0  0  0  0  0  0  0  0  0  0
   -1.4965   -0.1735    0.3156 C   0  0  0  0  0  0  0  0  0  0  0  0
   -0.1494    0.0137    0.2485 C   0  0  0  0  0  0  0  0  0  0  0  0
    1.0691    0.1915    0.1690 C   0  0  0  0  0  0  0  0  0  0  0  0
    2.5707    0.3883    0.0859 C   0  0  0  0  0  0  0  0  0  0  0  0
    3.2872    0.4820    0.0572 C   0  0  0  0  0  0  0  0  0  0  0  0
    4.9366    0.6823    0.0161 C   0  0  0  0  0  0  0  0  0  0  0  0
    5.5019    1.5604    0.3271 O   0  0  0  0  0  0  0  0  0  0  0  0
   -4.8324    0.3915    0.3187 H   0  0  0  0  0  0  0  0  0  0  0  0
   -4.5672   -1.0281    1.3951 H   0  0  0  0  0  0  0  0  0  0  0  0
   -4.6235   -1.2850   -0.3920 H   0  0  0  0  0  0  0  0  0  0  0  0
    5.2411   -0.3445   -0.4086 H   0  0  0  0  0  0  0  0  0  0  0  0
  1  2  1  0
  2  3  3  0
  3  4  1  0
  4  5  3  0
  5  6  1  0
  6  7  3  0
  7  8  1  0
  8  9  2  0
  1 10  1  0
  1 11  1  0
  1 12  1  0
  8 13  1  0
M  END
