
     RDKit          3D

 21 21  0  0  0  0  0  0  0  0999 V2000
    3.6188   -1.0598   -0.1440 C   0  0  0  0  0  0  0  0  0  0  0  0
    2.2328   -0.5905   -0.2283 C   0  0  0  0  0  0  0  0  0  0  0  0
    1.1004   -0.1904   -0.2845 C   0  0  0  0  0  0  0  0  0  0  0  0
   -0.2825    0.3009   -0.3785 C   0  0  0  0  0  0  0  0  0  0  0  0
   -1.1894   -0.4643   -1.0588 O   0  0  0  0  0  0  0  0  0  0  0  0
   -1.3557   -1.7374   -0.5222 C   0  0  0  0  0  0  0  0  0  0  0  0
   -0.4322    1.8226   -0.5926 C   0  0  0  0  0  0  0  0  0  0  0  0
   -0.7524    1.1894    0.7079 C   0  0  0  0  0  0  0  0  0  0  0  0
   -2.2305    1.1171    1.0498 C   0  0  0  0  0  0  0  0  0  0  0  0
    4.0296   -0.8421    0.8781 H   0  0  0  0  0  0  0  0  0  0  0  0
    3.7238   -2.1180   -0.4285 H   0  0  0  0  0  0  0  0  0  0  0  0
    4.2803   -0.4863   -0.8487 H   0  0  0  0  0  0  0  0  0  0  0  0
   -2.1053   -2.2784   -1.1378 H   0  0  0  0  0  0  0  0  0  0  0  0
   -0.3869   -2.2825   -0.7019 H   0  0  0  0  0  0  0  0  0  0  0  0
   -1.6321   -1.7249    0.5496 H   0  0  0  0  0  0  0  0  0  0  0  0
    0.5329    2.3752   -0.7470 H   0  0  0  0  0  0  0  0  0  0  0  0
   -1.2174    2.1599   -1.2921 H   0  0  0  0  0  0  0  0  0  0  0  0
   -0.1185    1.4550    1.5742 H   0  0  0  0  0  0  0  0  0  0  0  0
   -2.7640    0.8296    0.1269 H   0  0  0  0  0  0  0  0  0  0  0  0
   -2.4516    0.3947    1.8352 H   0  0  0  0  0  0  0  0  0  0  0  0
   -2.6005    2.1301    1.3219 H   0  0  0  0  0  0  0  0  0  0  0  0
  1  2  1  0
  2  3  3  0
  3  4  1  0
  4  5  1  0
  5  6  1  0
  4  7  1  0
  7  8  1  0
  8  9  1  0
  8  4  1  0
  1 10  1  0
  1 11  1  0
  1 12  1  0
  6 13  1  0
  6 14  1  0
  6 15  1  0
  7 16  1  0
  7 17  1  0
  8 18  1  0
  9 19  1  0
  9 20  1  0
  9 21  1  0
M  END
