
     RDKit          3D

 19 19  0  0  0  0  0  0  0  0999 V2000
    3.6009    0.6274    0.3622 C   0  0  0  0  0  0  0  0  0  0  0  0
    1.9093    0.0486    0.1521 C   0  0  0  0  0  0  0  0  0  0  0  0
    0.7562   -0.3411    0.0303 C   0  0  0  0  0  0  0  0  0  0  0  0
   -0.9439   -0.9019   -0.1713 C   0  0  0  0  0  0  0  0  0  0  0  0
   -1.3403   -0.7610    1.2847 C   0  0  0  0  0  0  0  0  0  0  0  0
   -0.4915   -1.5989    1.9267 O   0  0  0  0  0  0  0  0  0  0  0  0
   -1.3380   -0.2710   -1.4286 C   0  0  0  0  0  0  0  0  0  0  0  0
   -1.3162    0.7814   -0.4814 C   0  0  0  0  0  0  0  0  0  0  0  0
   -2.3933    1.2244    0.2557 O   0  0  0  0  0  0  0  0  0  0  0  0
    3.4119    1.5122    0.7439 H   0  0  0  0  0  0  0  0  0  0  0  0
    3.7090   -0.1731    1.2901 H   0  0  0  0  0  0  0  0  0  0  0  0
    3.9759   -0.0133   -0.3825 H   0  0  0  0  0  0  0  0  0  0  0  0
   -2.4350   -0.8193    1.3171 H   0  0  0  0  0  0  0  0  0  0  0  0
   -1.1150    0.3159    1.7005 H   0  0  0  0  0  0  0  0  0  0  0  0
   -0.3824   -2.4502    1.3870 H   0  0  0  0  0  0  0  0  0  0  0  0
   -2.2817   -0.6083   -1.9009 H   0  0  0  0  0  0  0  0  0  0  0  0
   -0.5491   -0.2265   -2.2541 H   0  0  0  0  0  0  0  0  0  0  0  0
   -0.4027    1.4264   -0.2534 H   0  0  0  0  0  0  0  0  0  0  0  0
   -2.3741    2.2282    0.3001 H   0  0  0  0  0  0  0  0  0  0  0  0
  1  2  1  0
  2  3  3  0
  3  4  1  0
  4  5  1  0
  5  6  1  0
  4  7  1  0
  7  8  1  0
  8  9  1  0
  8  4  1  0
  1 10  1  0
  1 11  1  0
  1 12  1  0
  5 13  1  0
  5 14  1  0
  6 15  1  0
  7 16  1  0
  7 17  1  0
  8 18  1  0
  9 19  1  0
M  END
