
     RDKit          3D

 19 18  0  0  0  0  0  0  0  0999 V2000
    3.3653    1.2028    0.0451 C   0  0  0  0  0  0  0  0  0  0  0  0
    2.1654    0.4198    0.3397 C   0  0  0  0  0  0  0  0  0  0  0  0
    1.1524   -0.2165    0.5808 C   0  0  0  0  0  0  0  0  0  0  0  0
   -0.0530   -1.0011    0.8653 C   0  0  0  0  0  0  0  0  0  0  0  0
   -1.2085   -0.3197    0.2120 C   0  0  0  0  0  0  0  0  0  0  0  0
   -2.4426   -1.1619    0.5193 C   0  0  0  0  0  0  0  0  0  0  0  0
   -0.9813   -0.3318   -1.2055 O   0  0  0  0  0  0  0  0  0  0  0  0
   -1.0235    0.8875   -1.8796 C   0  0  0  0  0  0  0  0  0  0  0  0
   -1.2452    1.9692   -1.3149 O   0  0  0  0  0  0  0  0  0  0  0  0
    3.8277    0.8835   -0.9271 H   0  0  0  0  0  0  0  0  0  0  0  0
    4.1379    1.0664    0.8549 H   0  0  0  0  0  0  0  0  0  0  0  0
    3.0451    2.2615   -0.0380 H   0  0  0  0  0  0  0  0  0  0  0  0
    0.0322   -2.0521    0.5559 H   0  0  0  0  0  0  0  0  0  0  0  0
   -0.2558   -1.0168    1.9724 H   0  0  0  0  0  0  0  0  0  0  0  0
   -1.3881    0.7003    0.5712 H   0  0  0  0  0  0  0  0  0  0  0  0
   -2.7734   -1.6640   -0.4231 H   0  0  0  0  0  0  0  0  0  0  0  0
   -3.2822   -0.5402    0.8849 H   0  0  0  0  0  0  0  0  0  0  0  0
   -2.2198   -1.9531    1.2615 H   0  0  0  0  0  0  0  0  0  0  0  0
   -0.8525    0.8663   -2.9479 H   0  0  0  0  0  0  0  0  0  0  0  0
  1  2  1  0
  2  3  3  0
  3  4  1  0
  4  5  1  0
  5  6  1  0
  5  7  1  0
  7  8  1  0
  8  9  2  0
  1 10  1  0
  1 11  1  0
  1 12  1  0
  4 13  1  0
  4 14  1  0
  5 15  1  0
  6 16  1  0
  6 17  1  0
  6 18  1  0
  8 19  1  0
M  END
