
     RDKit          3D

 21 21  0  0  0  0  0  0  0  0999 V2000
    4.1367    0.5256   -0.3988 C   0  0  0  0  0  0  0  0  0  0  0  0
    2.6739    0.5002   -0.3556 C   0  0  0  0  0  0  0  0  0  0  0  0
    1.4554    0.4716   -0.3002 C   0  0  0  0  0  0  0  0  0  0  0  0
   -0.0087    0.4545   -0.2505 C   0  0  0  0  0  0  0  0  0  0  0  0
   -0.4546   -0.8849   -0.8223 C   0  0  0  0  0  0  0  0  0  0  0  0
   -1.8402   -1.2540   -0.3431 C   0  0  0  0  0  0  0  0  0  0  0  0
   -2.5281    0.0311    0.0702 C   0  0  0  0  0  0  0  0  0  0  0  0
   -1.7618    0.5907    1.2487 C   0  0  0  0  0  0  0  0  0  0  0  0
   -0.4091    0.6148    1.0562 O   0  0  0  0  0  0  0  0  0  0  0  0
    4.5560   -0.4996   -0.5061 H   0  0  0  0  0  0  0  0  0  0  0  0
    4.4791    1.0139    0.5495 H   0  0  0  0  0  0  0  0  0  0  0  0
    4.4896    1.1793   -1.2277 H   0  0  0  0  0  0  0  0  0  0  0  0
   -0.3736    1.3046   -0.8354 H   0  0  0  0  0  0  0  0  0  0  0  0
   -0.3770   -0.8268   -1.9221 H   0  0  0  0  0  0  0  0  0  0  0  0
    0.3009   -1.6341   -0.4913 H   0  0  0  0  0  0  0  0  0  0  0  0
   -1.7568   -1.9289    0.5492 H   0  0  0  0  0  0  0  0  0  0  0  0
   -2.3668   -1.7504   -1.1826 H   0  0  0  0  0  0  0  0  0  0  0  0
   -3.5564   -0.1954    0.3475 H   0  0  0  0  0  0  0  0  0  0  0  0
   -2.4442    0.7247   -0.7883 H   0  0  0  0  0  0  0  0  0  0  0  0
   -2.0091   -0.0345    2.1365 H   0  0  0  0  0  0  0  0  0  0  0  0
   -2.2052    1.5979    1.4736 H   0  0  0  0  0  0  0  0  0  0  0  0
  1  2  1  0
  2  3  3  0
  3  4  1  0
  4  5  1  0
  5  6  1  0
  6  7  1  0
  7  8  1  0
  8  9  1  0
  9  4  1  0
  1 10  1  0
  1 11  1  0
  1 12  1  0
  4 13  1  0
  5 14  1  0
  5 15  1  0
  6 16  1  0
  6 17  1  0
  7 18  1  0
  7 19  1  0
  8 20  1  0
  8 21  1  0
M  END
