
     RDKit          3D

 19 18  0  0  0  0  0  0  0  0999 V2000
    3.2756    0.6354    0.3194 C   0  0  0  0  0  0  0  0  0  0  0  0
    1.8729    0.2195    0.4583 C   0  0  0  0  0  0  0  0  0  0  0  0
    0.7274   -0.1342    0.5867 C   0  0  0  0  0  0  0  0  0  0  0  0
   -0.6817   -0.5721    0.7253 C   0  0  0  0  0  0  0  0  0  0  0  0
   -0.9098   -1.8967    0.1323 C   0  0  0  0  0  0  0  0  0  0  0  0
   -2.0295   -2.2353   -0.1882 O   0  0  0  0  0  0  0  0  0  0  0  0
   -1.5366    0.5069    0.1554 C   0  0  0  0  0  0  0  0  0  0  0  0
   -1.2434    0.7745   -1.3069 C   0  0  0  0  0  0  0  0  0  0  0  0
   -1.4708    1.6550    0.9050 O   0  0  0  0  0  0  0  0  0  0  0  0
    3.3772    1.4659   -0.4336 H   0  0  0  0  0  0  0  0  0  0  0  0
    3.6828    0.9584    1.2806 H   0  0  0  0  0  0  0  0  0  0  0  0
    3.9142   -0.1931   -0.0565 H   0  0  0  0  0  0  0  0  0  0  0  0
   -0.8628   -0.5835    1.8338 H   0  0  0  0  0  0  0  0  0  0  0  0
   -0.0921   -2.5795   -0.0247 H   0  0  0  0  0  0  0  0  0  0  0  0
   -2.5991    0.1492    0.1944 H   0  0  0  0  0  0  0  0  0  0  0  0
   -1.9383    1.5253   -1.7246 H   0  0  0  0  0  0  0  0  0  0  0  0
   -0.1789    1.0633   -1.3755 H   0  0  0  0  0  0  0  0  0  0  0  0
   -1.3656   -0.1384   -1.9237 H   0  0  0  0  0  0  0  0  0  0  0  0
   -1.9416    2.4028    0.4423 H   0  0  0  0  0  0  0  0  0  0  0  0
  1  2  1  0
  2  3  3  0
  3  4  1  0
  4  5  1  0
  5  6  2  0
  4  7  1  0
  7  8  1  0
  7  9  1  0
  1 10  1  0
  1 11  1  0
  1 12  1  0
  4 13  1  0
  5 14  1  0
  7 15  1  0
  8 16  1  0
  8 17  1  0
  8 18  1  0
  9 19  1  0
M  END
