
     RDKit          3D

 17 17  0  0  0  0  0  0  0  0999 V2000
    4.9314   -0.4097   -1.8176 C   0  0  0  0  0  0  0  0  0  0  0  0
    3.3301   -0.1481   -1.3274 C   0  0  0  0  0  0  0  0  0  0  0  0
    2.1160    0.0654   -0.9379 C   0  0  0  0  0  0  0  0  0  0  0  0
    0.7294    0.3107   -0.5142 C   0  0  0  0  0  0  0  0  0  0  0  0
   -0.3692    0.5099   -0.1834 C   0  0  0  0  0  0  0  0  0  0  0  0
   -1.9735    0.8227    0.3226 C   0  0  0  0  0  0  0  0  0  0  0  0
   -1.6419    0.6926    1.7118 O   0  0  0  0  0  0  0  0  0  0  0  0
   -2.4074   -0.3338    0.9837 C   0  0  0  0  0  0  0  0  0  0  0  0
   -3.7723   -0.4909    1.6146 C   0  0  0  0  0  0  0  0  0  0  0  0
    5.0639    0.7194   -0.9898 H   0  0  0  0  0  0  0  0  0  0  0  0
    5.0672    0.1412   -2.5690 H   0  0  0  0  0  0  0  0  0  0  0  0
    5.1106   -0.9937   -0.8095 H   0  0  0  0  0  0  0  0  0  0  0  0
   -2.0169    1.8476    0.0691 H   0  0  0  0  0  0  0  0  0  0  0  0
   -1.8921   -1.2991    0.7421 H   0  0  0  0  0  0  0  0  0  0  0  0
   -3.8193    0.2288    2.5015 H   0  0  0  0  0  0  0  0  0  0  0  0
   -3.8936   -1.5470    1.9502 H   0  0  0  0  0  0  0  0  0  0  0  0
   -4.5624   -0.1162    0.9730 H   0  0  0  0  0  0  0  0  0  0  0  0
  1  2  1  0
  2  3  3  0
  3  4  1  0
  4  5  3  0
  5  6  1  0
  6  7  1  0
  7  8  1  0
  8  9  1  0
  8  6  1  0
  1 10  1  0
  1 11  1  0
  1 12  1  0
  6 13  1  0
  8 14  1  0
  9 15  1  0
  9 16  1  0
  9 17  1  0
M  END
