
     RDKit          3D

 23 22  0  0  0  0  0  0  0  0999 V2000
    3.2202    1.7801   -0.4200 C   0  0  0  0  0  0  0  0  0  0  0  0
    2.2645    0.7261    0.0174 C   0  0  0  0  0  0  0  0  0  0  0  0
    1.5085   -0.1225    0.3480 C   0  0  0  0  0  0  0  0  0  0  0  0
    0.5919   -1.1798    0.7730 C   0  0  0  0  0  0  0  0  0  0  0  0
    1.1733   -2.5169    0.3776 C   0  0  0  0  0  0  0  0  0  0  0  0
   -0.7271   -1.0253    0.1000 C   0  0  0  0  0  0  0  0  0  0  0  0
   -1.4196    0.2926    0.3988 C   0  0  0  0  0  0  0  0  0  0  0  0
   -2.6495    0.3559   -0.2499 O   0  0  0  0  0  0  0  0  0  0  0  0
   -3.3669    1.4977   -0.0496 C   0  0  0  0  0  0  0  0  0  0  0  0
    4.1948    1.6290    0.0714 H   0  0  0  0  0  0  0  0  0  0  0  0
    3.4094    1.6493   -1.5146 H   0  0  0  0  0  0  0  0  0  0  0  0
    2.7782    2.7797   -0.2530 H   0  0  0  0  0  0  0  0  0  0  0  0
    0.4059   -1.1467    1.8690 H   0  0  0  0  0  0  0  0  0  0  0  0
    0.8221   -2.8020   -0.6547 H   0  0  0  0  0  0  0  0  0  0  0  0
    2.2736   -2.5473    0.3976 H   0  0  0  0  0  0  0  0  0  0  0  0
    0.7023   -3.2707    1.0580 H   0  0  0  0  0  0  0  0  0  0  0  0
   -1.3999   -1.8256    0.4955 H   0  0  0  0  0  0  0  0  0  0  0  0
   -0.6819   -1.1885   -0.9986 H   0  0  0  0  0  0  0  0  0  0  0  0
   -1.5950    0.4160    1.4822 H   0  0  0  0  0  0  0  0  0  0  0  0
   -0.8007    1.1344   -0.0061 H   0  0  0  0  0  0  0  0  0  0  0  0
   -3.5964    1.6282    1.0290 H   0  0  0  0  0  0  0  0  0  0  0  0
   -2.7767    2.3562   -0.4255 H   0  0  0  0  0  0  0  0  0  0  0  0
   -4.3312    1.3802   -0.6296 H   0  0  0  0  0  0  0  0  0  0  0  0
  1  2  1  0
  2  3  3  0
  3  4  1  0
  4  5  1  0
  4  6  1  0
  6  7  1  0
  7  8  1  0
  8  9  1  0
  1 10  1  0
  1 11  1  0
  1 12  1  0
  4 13  1  0
  5 14  1  0
  5 15  1  0
  5 16  1  0
  6 17  1  0
  6 18  1  0
  7 19  1  0
  7 20  1  0
  9 21  1  0
  9 22  1  0
  9 23  1  0
M  END
