
     RDKit          3D

 18 18  0  0  0  0  0  0  0  0999 V2000
    3.5302   -0.1508    0.8094 C   0  0  0  0  0  0  0  0  0  0  0  0
    2.1933   -0.2387    0.2175 C   0  0  0  0  0  0  0  0  0  0  0  0
    1.0752   -0.3003   -0.2580 C   0  0  0  0  0  0  0  0  0  0  0  0
   -0.2806   -0.3949   -0.8175 C   0  0  0  0  0  0  0  0  0  0  0  0
   -1.3314   -0.8557    0.1540 C   0  0  0  0  0  0  0  0  0  0  0  0
   -2.2407    0.2267   -0.3945 C   0  0  0  0  0  0  0  0  0  0  0  0
   -2.9945    0.8995    0.5501 O   0  0  0  0  0  0  0  0  0  0  0  0
   -1.0028    0.9557   -0.8689 C   0  0  0  0  0  0  0  0  0  0  0  0
    4.1291    0.6782    0.3584 H   0  0  0  0  0  0  0  0  0  0  0  0
    4.0519   -1.1353    0.7208 H   0  0  0  0  0  0  0  0  0  0  0  0
    3.3794    0.1174    1.8789 H   0  0  0  0  0  0  0  0  0  0  0  0
   -0.3131   -0.9621   -1.7535 H   0  0  0  0  0  0  0  0  0  0  0  0
   -1.7790   -1.8445   -0.0529 H   0  0  0  0  0  0  0  0  0  0  0  0
   -1.0812   -0.6614    1.2200 H   0  0  0  0  0  0  0  0  0  0  0  0
   -2.8466   -0.0692   -1.2755 H   0  0  0  0  0  0  0  0  0  0  0  0
   -2.8282    0.6054    1.4802 H   0  0  0  0  0  0  0  0  0  0  0  0
   -0.5900    1.6460   -0.0920 H   0  0  0  0  0  0  0  0  0  0  0  0
   -1.0712    1.3974   -1.8767 H   0  0  0  0  0  0  0  0  0  0  0  0
  1  2  1  0
  2  3  3  0
  3  4  1  0
  4  5  1  0
  5  6  1  0
  6  7  1  0
  6  8  1  0
  8  4  1  0
  1  9  1  0
  1 10  1  0
  1 11  1  0
  4 12  1  0
  5 13  1  0
  5 14  1  0
  6 15  1  0
  7 16  1  0
  8 17  1  0
  8 18  1  0
M  END
