
     RDKit          3D

 19 18  0  0  0  0  0  0  0  0999 V2000
    2.5638   -1.9471    2.2195 C   0  0  0  0  0  0  0  0  0  0  0  0
    1.6377   -1.3440    1.2570 C   0  0  0  0  0  0  0  0  0  0  0  0
    0.8527   -0.8406    0.4572 C   0  0  0  0  0  0  0  0  0  0  0  0
   -0.1016   -0.2511   -0.4820 C   0  0  0  0  0  0  0  0  0  0  0  0
   -0.6751   -1.2893   -1.3955 C   0  0  0  0  0  0  0  0  0  0  0  0
   -1.8694   -1.5133   -1.4419 O   0  0  0  0  0  0  0  0  0  0  0  0
   -1.0648    0.3779    0.2561 O   0  0  0  0  0  0  0  0  0  0  0  0
   -1.1822    1.7367    0.0215 C   0  0  0  0  0  0  0  0  0  0  0  0
   -1.5784    1.9985   -1.3940 C   0  0  0  0  0  0  0  0  0  0  0  0
    2.7623   -3.0084    1.9930 H   0  0  0  0  0  0  0  0  0  0  0  0
    2.0694   -1.8538    3.2190 H   0  0  0  0  0  0  0  0  0  0  0  0
    3.5326   -1.3994    2.1965 H   0  0  0  0  0  0  0  0  0  0  0  0
    0.4141    0.5071   -1.1257 H   0  0  0  0  0  0  0  0  0  0  0  0
   -0.0305   -1.8659   -2.0384 H   0  0  0  0  0  0  0  0  0  0  0  0
   -1.9265    2.1994    0.7316 H   0  0  0  0  0  0  0  0  0  0  0  0
   -0.1977    2.2460    0.2429 H   0  0  0  0  0  0  0  0  0  0  0  0
   -2.7039    1.9305   -1.5205 H   0  0  0  0  0  0  0  0  0  0  0  0
   -1.1405    1.2586   -2.0693 H   0  0  0  0  0  0  0  0  0  0  0  0
   -1.3620    3.0580   -1.7062 H   0  0  0  0  0  0  0  0  0  0  0  0
  1  2  1  0
  2  3  3  0
  3  4  1  0
  4  5  1  0
  5  6  2  0
  4  7  1  0
  7  8  1  0
  8  9  1  0
  1 10  1  0
  1 11  1  0
  1 12  1  0
  4 13  1  0
  5 14  1  0
  8 15  1  0
  8 16  1  0
  9 17  1  0
  9 18  1  0
  9 19  1  0
M  END
