
     RDKit          3D

 19 18  0  0  0  0  0  0  0  0999 V2000
    2.7510   -0.0420   -3.7224 C   0  0  0  0  0  0  0  0  0  0  0  0
    1.9788    0.0673   -2.5092 C   0  0  0  0  0  0  0  0  0  0  0  0
    1.2650    0.1450   -1.3974 C   0  0  0  0  0  0  0  0  0  0  0  0
    0.5145    0.2238   -0.2684 C   0  0  0  0  0  0  0  0  0  0  0  0
    1.2138    0.8410    0.7518 O   0  0  0  0  0  0  0  0  0  0  0  0
   -0.6879   -0.1293    0.1525 O   0  0  0  0  0  0  0  0  0  0  0  0
   -1.0954    0.1719    1.4932 C   0  0  0  0  0  0  0  0  0  0  0  0
   -0.9378   -1.0832    2.3559 C   0  0  0  0  0  0  0  0  0  0  0  0
   -2.4560    0.7366    1.5704 C   0  0  0  0  0  0  0  0  0  0  0  0
    3.8259   -0.2655   -3.4478 H   0  0  0  0  0  0  0  0  0  0  0  0
    2.4460   -0.9613   -4.3126 H   0  0  0  0  0  0  0  0  0  0  0  0
    2.6697    0.8713   -4.3017 H   0  0  0  0  0  0  0  0  0  0  0  0
   -0.3241    0.8560    1.9505 H   0  0  0  0  0  0  0  0  0  0  0  0
   -1.0070   -0.7931    3.4142 H   0  0  0  0  0  0  0  0  0  0  0  0
    0.0490   -1.5599    2.1535 H   0  0  0  0  0  0  0  0  0  0  0  0
   -1.7220   -1.7818    2.0531 H   0  0  0  0  0  0  0  0  0  0  0  0
   -2.7284    1.3254    0.6452 H   0  0  0  0  0  0  0  0  0  0  0  0
   -2.5655    1.4712    2.4298 H   0  0  0  0  0  0  0  0  0  0  0  0
   -3.1897   -0.0932    1.6416 H   0  0  0  0  0  0  0  0  0  0  0  0
  1  2  1  0
  2  3  3  0
  3  4  1  0
  4  5  2  0
  4  6  1  0
  6  7  1  0
  7  8  1  0
  7  9  1  0
  1 10  1  0
  1 11  1  0
  1 12  1  0
  7 13  1  0
  8 14  1  0
  8 15  1  0
  8 16  1  0
  9 17  1  0
  9 18  1  0
  9 19  1  0
M  END
