
     RDKit          3D

 21 20  0  0  0  0  0  0  0  0999 V2000
    1.5500    0.2981    3.9703 C   0  0  0  0  0  0  0  0  0  0  0  0
    1.1947    0.4188    2.6138 C   0  0  0  0  0  0  0  0  0  0  0  0
    0.8736    0.5509    1.3780 C   0  0  0  0  0  0  0  0  0  0  0  0
    0.4933    0.7144   -0.0062 C   0  0  0  0  0  0  0  0  0  0  0  0
   -0.9132    0.2307   -0.1893 C   0  0  0  0  0  0  0  0  0  0  0  0
   -1.2981    0.3767   -1.6312 C   0  0  0  0  0  0  0  0  0  0  0  0
   -0.4569   -0.3795   -2.5980 C   0  0  0  0  0  0  0  0  0  0  0  0
   -0.4935   -1.8305   -2.3766 C   0  0  0  0  0  0  0  0  0  0  0  0
   -1.1901   -2.3150   -1.5290 O   0  0  0  0  0  0  0  0  0  0  0  0
    0.7380    0.6541    4.6835 H   0  0  0  0  0  0  0  0  0  0  0  0
    1.7738   -0.7412    4.2900 H   0  0  0  0  0  0  0  0  0  0  0  0
    2.4215    0.9550    4.2638 H   0  0  0  0  0  0  0  0  0  0  0  0
    1.2152    0.1927   -0.6885 H   0  0  0  0  0  0  0  0  0  0  0  0
    0.5159    1.8094   -0.2784 H   0  0  0  0  0  0  0  0  0  0  0  0
   -1.5796    0.9318    0.3842 H   0  0  0  0  0  0  0  0  0  0  0  0
   -1.0910   -0.7816    0.1569 H   0  0  0  0  0  0  0  0  0  0  0  0
   -1.2568    1.4587   -1.8875 H   0  0  0  0  0  0  0  0  0  0  0  0
   -2.3699    0.0851   -1.7974 H   0  0  0  0  0  0  0  0  0  0  0  0
   -0.8335   -0.1973   -3.6262 H   0  0  0  0  0  0  0  0  0  0  0  0
    0.5844    0.0236   -2.6101 H   0  0  0  0  0  0  0  0  0  0  0  0
    0.1222   -2.4548   -2.9934 H   0  0  0  0  0  0  0  0  0  0  0  0
  1  2  1  0
  2  3  3  0
  3  4  1  0
  4  5  1  0
  5  6  1  0
  6  7  1  0
  7  8  1  0
  8  9  2  0
  1 10  1  0
  1 11  1  0
  1 12  1  0
  4 13  1  0
  4 14  1  0
  5 15  1  0
  5 16  1  0
  6 17  1  0
  6 18  1  0
  7 19  1  0
  7 20  1  0
  8 21  1  0
M  END
