
     RDKit          3D

 21 22  0  0  0  0  0  0  0  0999 V2000
   -4.0402    0.6916   -0.0333 C   0  0  0  0  0  0  0  0  0  0  0  0
   -2.6739    0.1959   -0.2692 C   0  0  0  0  0  0  0  0  0  0  0  0
   -1.5633   -0.2269   -0.4529 C   0  0  0  0  0  0  0  0  0  0  0  0
   -0.2242   -0.7296   -0.6495 C   0  0  0  0  0  0  0  0  0  0  0  0
    0.7871    0.2749   -1.0788 C   0  0  0  0  0  0  0  0  0  0  0  0
    1.7740   -0.1439   -0.0323 C   0  0  0  0  0  0  0  0  0  0  0  0
    2.4592    0.9287    0.7598 C   0  0  0  0  0  0  0  0  0  0  0  0
    1.8947   -1.5241    0.4470 C   0  0  0  0  0  0  0  0  0  0  0  0
    0.5891   -0.8842    0.6417 C   0  0  0  0  0  0  0  0  0  0  0  0
   -4.6660    0.6126   -0.9476 H   0  0  0  0  0  0  0  0  0  0  0  0
   -3.9665    1.7680    0.2439 H   0  0  0  0  0  0  0  0  0  0  0  0
   -4.5476    0.1196    0.7781 H   0  0  0  0  0  0  0  0  0  0  0  0
   -0.1489   -1.6800   -1.2489 H   0  0  0  0  0  0  0  0  0  0  0  0
    0.4185    1.3163   -0.8531 H   0  0  0  0  0  0  0  0  0  0  0  0
    1.1362    0.2223   -2.1308 H   0  0  0  0  0  0  0  0  0  0  0  0
    2.7043    1.8276    0.1501 H   0  0  0  0  0  0  0  0  0  0  0  0
    3.4592    0.5123    1.0769 H   0  0  0  0  0  0  0  0  0  0  0  0
    1.9404    1.2147    1.6814 H   0  0  0  0  0  0  0  0  0  0  0  0
    1.9054   -2.4006   -0.2649 H   0  0  0  0  0  0  0  0  0  0  0  0
    2.5066   -1.7006    1.3303 H   0  0  0  0  0  0  0  0  0  0  0  0
    0.2558   -0.3947    1.5488 H   0  0  0  0  0  0  0  0  0  0  0  0
  1  2  1  0
  2  3  3  0
  3  4  1  0
  4  5  1  0
  5  6  1  0
  6  7  1  0
  6  8  1  0
  8  9  1  0
  9  4  1  0
  9  6  1  0
  1 10  1  0
  1 11  1  0
  1 12  1  0
  4 13  1  0
  5 14  1  0
  5 15  1  0
  7 16  1  0
  7 17  1  0
  7 18  1  0
  8 19  1  0
  8 20  1  0
  9 21  1  0
M  END
