
     RDKit          3D

 16 15  0  0  0  0  0  0  0  0999 V2000
   -3.7250    0.1978   -0.7814 C   0  0  0  0  0  0  0  0  0  0  0  0
   -2.2584    0.1588   -0.7189 C   0  0  0  0  0  0  0  0  0  0  0  0
   -1.0566    0.1089   -0.6568 C   0  0  0  0  0  0  0  0  0  0  0  0
    0.4298    0.0215   -0.5842 C   0  0  0  0  0  0  0  0  0  0  0  0
    0.8154   -0.6766    0.5187 O   0  0  0  0  0  0  0  0  0  0  0  0
    2.1820   -0.7801    0.6048 C   0  0  0  0  0  0  0  0  0  0  0  0
    2.9293    0.4561    0.7916 C   0  0  0  0  0  0  0  0  0  0  0  0
    2.3967    1.5236    0.9401 O   0  0  0  0  0  0  0  0  0  0  0  0
   -4.0685    1.0941   -1.3715 H   0  0  0  0  0  0  0  0  0  0  0  0
   -4.1362    0.3617    0.2434 H   0  0  0  0  0  0  0  0  0  0  0  0
   -4.1480   -0.6832   -1.2750 H   0  0  0  0  0  0  0  0  0  0  0  0
    0.8721    1.0257   -0.5807 H   0  0  0  0  0  0  0  0  0  0  0  0
    0.7498   -0.4454   -1.5450 H   0  0  0  0  0  0  0  0  0  0  0  0
    2.6260   -1.2956   -0.2951 H   0  0  0  0  0  0  0  0  0  0  0  0
    2.3783   -1.5183    1.4320 H   0  0  0  0  0  0  0  0  0  0  0  0
    4.0135    0.4509    0.8026 H   0  0  0  0  0  0  0  0  0  0  0  0
  1  2  1  0
  2  3  3  0
  3  4  1  0
  4  5  1  0
  5  6  1  0
  6  7  1  0
  7  8  2  0
  1  9  1  0
  1 10  1  0
  1 11  1  0
  4 12  1  0
  4 13  1  0
  6 14  1  0
  6 15  1  0
  7 16  1  0
M  END
