
     RDKit          3D

 18 18  0  0  0  0  0  0  0  0999 V2000
   -3.3361    0.3106    0.9234 C   0  0  0  0  0  0  0  0  0  0  0  0
   -1.9575    0.2602    0.5058 C   0  0  0  0  0  0  0  0  0  0  0  0
   -0.7963    0.2218    0.1651 C   0  0  0  0  0  0  0  0  0  0  0  0
    0.6188    0.1554   -0.2499 C   0  0  0  0  0  0  0  0  0  0  0  0
    1.5396   -0.2494    0.8699 C   0  0  0  0  0  0  0  0  0  0  0  0
    2.8605   -0.3179    0.5076 O   0  0  0  0  0  0  0  0  0  0  0  0
    1.0367    1.0332   -1.3412 C   0  0  0  0  0  0  0  0  0  0  0  0
    0.9272   -0.4318   -1.6063 C   0  0  0  0  0  0  0  0  0  0  0  0
   -4.0429   -0.0791    0.1538 H   0  0  0  0  0  0  0  0  0  0  0  0
   -3.6190    1.3795    1.1098 H   0  0  0  0  0  0  0  0  0  0  0  0
   -3.5418   -0.2804    1.8484 H   0  0  0  0  0  0  0  0  0  0  0  0
    1.4210    0.4587    1.7150 H   0  0  0  0  0  0  0  0  0  0  0  0
    1.1645   -1.2367    1.2544 H   0  0  0  0  0  0  0  0  0  0  0  0
    3.4127   -0.0801    1.2857 H   0  0  0  0  0  0  0  0  0  0  0  0
    2.0403    1.5281   -1.3525 H   0  0  0  0  0  0  0  0  0  0  0  0
    0.2697    1.6684   -1.8387 H   0  0  0  0  0  0  0  0  0  0  0  0
    1.9242   -0.9419   -1.7242 H   0  0  0  0  0  0  0  0  0  0  0  0
    0.0782   -0.7856   -2.2260 H   0  0  0  0  0  0  0  0  0  0  0  0
  1  2  1  0
  2  3  3  0
  3  4  1  0
  4  5  1  0
  5  6  1  0
  4  7  1  0
  7  8  1  0
  8  4  1  0
  1  9  1  0
  1 10  1  0
  1 11  1  0
  5 12  1  0
  5 13  1  0
  6 14  1  0
  7 15  1  0
  7 16  1  0
  8 17  1  0
  8 18  1  0
M  END
