
     RDKit          3D

 21 21  0  0  0  0  0  0  0  0999 V2000
   -4.3193   -0.8505    0.2896 C   0  0  0  0  0  0  0  0  0  0  0  0
   -2.9909   -0.4596   -0.2304 C   0  0  0  0  0  0  0  0  0  0  0  0
   -1.9043   -0.1298   -0.6369 C   0  0  0  0  0  0  0  0  0  0  0  0
   -0.5788    0.2653   -1.1060 C   0  0  0  0  0  0  0  0  0  0  0  0
    0.4337   -0.4716   -0.2656 C   0  0  0  0  0  0  0  0  0  0  0  0
    0.5002   -0.3071    1.1924 C   0  0  0  0  0  0  0  0  0  0  0  0
    1.5619    0.3848    0.3250 C   0  0  0  0  0  0  0  0  0  0  0  0
    2.8305   -0.1579    0.3933 O   0  0  0  0  0  0  0  0  0  0  0  0
    3.8310    0.7894    0.3174 C   0  0  0  0  0  0  0  0  0  0  0  0
   -5.0744   -0.8070   -0.4954 H   0  0  0  0  0  0  0  0  0  0  0  0
   -4.5388   -0.1408    1.1393 H   0  0  0  0  0  0  0  0  0  0  0  0
   -4.2764   -1.8809    0.7255 H   0  0  0  0  0  0  0  0  0  0  0  0
   -0.4087    1.3665   -1.0031 H   0  0  0  0  0  0  0  0  0  0  0  0
   -0.4206    0.0217   -2.1736 H   0  0  0  0  0  0  0  0  0  0  0  0
    0.7744   -1.4324   -0.7011 H   0  0  0  0  0  0  0  0  0  0  0  0
   -0.1727    0.3754    1.7480 H   0  0  0  0  0  0  0  0  0  0  0  0
    0.8517   -1.1576    1.8138 H   0  0  0  0  0  0  0  0  0  0  0  0
    1.4701    1.4948    0.2189 H   0  0  0  0  0  0  0  0  0  0  0  0
    3.7888    1.5450    1.1339 H   0  0  0  0  0  0  0  0  0  0  0  0
    3.8431    1.3127   -0.6524 H   0  0  0  0  0  0  0  0  0  0  0  0
    4.7995    0.2395    0.4859 H   0  0  0  0  0  0  0  0  0  0  0  0
  1  2  1  0
  2  3  3  0
  3  4  1  0
  4  5  1  0
  5  6  1  0
  6  7  1  0
  7  8  1  0
  8  9  1  0
  7  5  1  0
  1 10  1  0
  1 11  1  0
  1 12  1  0
  4 13  1  0
  4 14  1  0
  5 15  1  0
  6 16  1  0
  6 17  1  0
  7 18  1  0
  9 19  1  0
  9 20  1  0
  9 21  1  0
M  END
