
     RDKit          3D

 17 16  0  0  0  0  0  0  0  0999 V2000
   -3.3985   -1.3758   -0.0170 C   0  0  0  0  0  0  0  0  0  0  0  0
   -2.2419   -0.5037    0.2554 C   0  0  0  0  0  0  0  0  0  0  0  0
   -1.3056    0.2226    0.4645 C   0  0  0  0  0  0  0  0  0  0  0  0
   -0.1518    1.1112    0.7027 C   0  0  0  0  0  0  0  0  0  0  0  0
   -0.2114    2.1602   -0.1795 O   0  0  0  0  0  0  0  0  0  0  0  0
    1.0914    0.3158    0.5864 C   0  0  0  0  0  0  0  0  0  0  0  0
    1.2796   -0.6658    1.3251 O   0  0  0  0  0  0  0  0  0  0  0  0
    2.0299    0.6889   -0.3563 O   0  0  0  0  0  0  0  0  0  0  0  0
    3.2498   -0.0025   -0.5487 C   0  0  0  0  0  0  0  0  0  0  0  0
   -3.0969   -2.0743   -0.8366 H   0  0  0  0  0  0  0  0  0  0  0  0
   -4.2545   -0.7405   -0.3585 H   0  0  0  0  0  0  0  0  0  0  0  0
   -3.6828   -1.9352    0.8925 H   0  0  0  0  0  0  0  0  0  0  0  0
   -0.2148    1.5293    1.7430 H   0  0  0  0  0  0  0  0  0  0  0  0
    0.2522    1.8935   -1.0136 H   0  0  0  0  0  0  0  0  0  0  0  0
    3.2040   -0.6791   -1.4145 H   0  0  0  0  0  0  0  0  0  0  0  0
    3.3749   -0.6623    0.3515 H   0  0  0  0  0  0  0  0  0  0  0  0
    4.0764    0.7178   -0.5717 H   0  0  0  0  0  0  0  0  0  0  0  0
  1  2  1  0
  2  3  3  0
  3  4  1  0
  4  5  1  0
  4  6  1  0
  6  7  2  0
  6  8  1  0
  8  9  1  0
  1 10  1  0
  1 11  1  0
  1 12  1  0
  4 13  1  0
  5 14  1  0
  9 15  1  0
  9 16  1  0
  9 17  1  0
M  END
