
     RDKit          3D

 17 17  0  0  0  0  0  0  0  0999 V2000
    3.5143    0.7111    0.5244 C   0  0  0  0  0  0  0  0  0  0  0  0
    2.1495    0.6693   -0.0039 C   0  0  0  0  0  0  0  0  0  0  0  0
    1.0240    0.6192   -0.4352 C   0  0  0  0  0  0  0  0  0  0  0  0
   -0.3239    0.5349   -0.9596 C   0  0  0  0  0  0  0  0  0  0  0  0
   -0.5613    0.6945   -2.1820 O   0  0  0  0  0  0  0  0  0  0  0  0
   -1.4384    0.2556   -0.0362 C   0  0  0  0  0  0  0  0  0  0  0  0
   -1.3370   -1.0639    0.7111 C   0  0  0  0  0  0  0  0  0  0  0  0
   -2.7432   -1.1593    0.5920 O   0  0  0  0  0  0  0  0  0  0  0  0
   -2.5801   -0.5183   -0.6544 C   0  0  0  0  0  0  0  0  0  0  0  0
    3.4227    0.8611    1.6206 H   0  0  0  0  0  0  0  0  0  0  0  0
    4.1214    1.5144    0.1100 H   0  0  0  0  0  0  0  0  0  0  0  0
    4.0418   -0.2613    0.3593 H   0  0  0  0  0  0  0  0  0  0  0  0
   -1.7453    1.1085    0.6029 H   0  0  0  0  0  0  0  0  0  0  0  0
   -1.0356   -1.0039    1.7544 H   0  0  0  0  0  0  0  0  0  0  0  0
   -0.8779   -1.8401    0.0858 H   0  0  0  0  0  0  0  0  0  0  0  0
   -2.1808   -1.2137   -1.4145 H   0  0  0  0  0  0  0  0  0  0  0  0
   -3.4502    0.0919   -0.9560 H   0  0  0  0  0  0  0  0  0  0  0  0
  1  2  1  0
  2  3  3  0
  3  4  1  0
  4  5  2  0
  4  6  1  0
  6  7  1  0
  7  8  1  0
  8  9  1  0
  9  6  1  0
  1 10  1  0
  1 11  1  0
  1 12  1  0
  6 13  1  0
  7 14  1  0
  7 15  1  0
  9 16  1  0
  9 17  1  0
M  END
