
     RDKit          3D

 17 17  0  0  0  0  0  0  0  0999 V2000
    3.3181    0.7365    0.7533 C   0  0  0  0  0  0  0  0  0  0  0  0
    1.9857    0.1873    0.4278 C   0  0  0  0  0  0  0  0  0  0  0  0
    0.8955   -0.2652    0.1826 C   0  0  0  0  0  0  0  0  0  0  0  0
   -0.4211   -0.8206   -0.1282 C   0  0  0  0  0  0  0  0  0  0  0  0
   -1.0761   -0.0748   -1.2940 C   0  0  0  0  0  0  0  0  0  0  0  0
   -2.4116   -0.3278   -1.0870 O   0  0  0  0  0  0  0  0  0  0  0  0
   -2.6018   -0.0107    0.2807 C   0  0  0  0  0  0  0  0  0  0  0  0
   -1.3786   -0.5007    0.9514 C   0  0  0  0  0  0  0  0  0  0  0  0
   -1.1827   -0.6215    2.1275 O   0  0  0  0  0  0  0  0  0  0  0  0
    3.3382    1.8306    0.7366 H   0  0  0  0  0  0  0  0  0  0  0  0
    4.0761    0.3967   -0.0040 H   0  0  0  0  0  0  0  0  0  0  0  0
    3.6327    0.3064    1.7279 H   0  0  0  0  0  0  0  0  0  0  0  0
   -0.3727   -1.9109   -0.3514 H   0  0  0  0  0  0  0  0  0  0  0  0
   -0.7323   -0.4909   -2.2547 H   0  0  0  0  0  0  0  0  0  0  0  0
   -0.8169    1.0025   -1.1861 H   0  0  0  0  0  0  0  0  0  0  0  0
   -3.5190   -0.5223    0.6285 H   0  0  0  0  0  0  0  0  0  0  0  0
   -2.7335    1.0853    0.3405 H   0  0  0  0  0  0  0  0  0  0  0  0
  1  2  1  0
  2  3  3  0
  3  4  1  0
  4  5  1  0
  5  6  1  0
  6  7  1  0
  7  8  1  0
  8  9  2  0
  8  4  1  0
  1 10  1  0
  1 11  1  0
  1 12  1  0
  4 13  1  0
  5 14  1  0
  5 15  1  0
  7 16  1  0
  7 17  1  0
M  END
