
     RDKit          3D

 21 21  0  0  0  0  0  0  0  0999 V2000
    3.7585    0.6467    1.0581 C   0  0  0  0  0  0  0  0  0  0  0  0
    2.4624    0.7000    0.3618 C   0  0  0  0  0  0  0  0  0  0  0  0
    1.4006    0.7646   -0.2068 C   0  0  0  0  0  0  0  0  0  0  0  0
    0.0995    0.8214   -0.9128 C   0  0  0  0  0  0  0  0  0  0  0  0
   -0.6098   -0.4717   -0.6352 C   0  0  0  0  0  0  0  0  0  0  0  0
   -1.9578   -0.6417   -1.2521 C   0  0  0  0  0  0  0  0  0  0  0  0
   -2.3342   -1.4353    0.0082 C   0  0  0  0  0  0  0  0  0  0  0  0
   -1.2406   -0.6241    0.7076 C   0  0  0  0  0  0  0  0  0  0  0  0
   -1.8408    0.5301    1.2312 O   0  0  0  0  0  0  0  0  0  0  0  0
    4.2708   -0.3353    0.8629 H   0  0  0  0  0  0  0  0  0  0  0  0
    3.5769    0.7515    2.1527 H   0  0  0  0  0  0  0  0  0  0  0  0
    4.4062    1.4190    0.6395 H   0  0  0  0  0  0  0  0  0  0  0  0
    0.3144    0.8714   -1.9911 H   0  0  0  0  0  0  0  0  0  0  0  0
   -0.4455    1.7164   -0.6210 H   0  0  0  0  0  0  0  0  0  0  0  0
    0.0460   -1.3261   -0.8647 H   0  0  0  0  0  0  0  0  0  0  0  0
   -2.5643    0.2836   -1.2808 H   0  0  0  0  0  0  0  0  0  0  0  0
   -1.9991   -1.2555   -2.1785 H   0  0  0  0  0  0  0  0  0  0  0  0
   -2.0596   -2.4909   -0.1099 H   0  0  0  0  0  0  0  0  0  0  0  0
   -3.3553   -1.2327    0.3700 H   0  0  0  0  0  0  0  0  0  0  0  0
   -0.6615   -1.2038    1.4594 H   0  0  0  0  0  0  0  0  0  0  0  0
   -1.2668    1.3092    1.2015 H   0  0  0  0  0  0  0  0  0  0  0  0
  1  2  1  0
  2  3  3  0
  3  4  1  0
  4  5  1  0
  5  6  1  0
  6  7  1  0
  7  8  1  0
  8  9  1  0
  8  5  1  0
  1 10  1  0
  1 11  1  0
  1 12  1  0
  4 13  1  0
  4 14  1  0
  5 15  1  0
  6 16  1  0
  6 17  1  0
  7 18  1  0
  7 19  1  0
  8 20  1  0
  9 21  1  0
M  END
