
     RDKit          3D

 17 16  0  0  0  0  0  0  0  0999 V2000
    3.1572    1.0038    1.6836 C   0  0  0  0  0  0  0  0  0  0  0  0
    1.7868    0.8538    1.1952 C   0  0  0  0  0  0  0  0  0  0  0  0
    0.6470    0.7183    0.8051 C   0  0  0  0  0  0  0  0  0  0  0  0
   -0.7226    0.5668    0.3607 C   0  0  0  0  0  0  0  0  0  0  0  0
   -1.5755    1.4693    0.5133 O   0  0  0  0  0  0  0  0  0  0  0  0
   -1.1056   -0.6921   -0.2874 C   0  0  0  0  0  0  0  0  0  0  0  0
   -2.5804   -0.6437   -0.6747 C   0  0  0  0  0  0  0  0  0  0  0  0
   -0.3475   -0.9205   -1.5286 C   0  0  0  0  0  0  0  0  0  0  0  0
    0.3841   -1.8739   -1.6627 O   0  0  0  0  0  0  0  0  0  0  0  0
    3.9000    0.9676    0.8505 H   0  0  0  0  0  0  0  0  0  0  0  0
    3.3415    0.2155    2.4450 H   0  0  0  0  0  0  0  0  0  0  0  0
    3.3125    1.9872    2.1801 H   0  0  0  0  0  0  0  0  0  0  0  0
   -0.9704   -1.5767    0.3748 H   0  0  0  0  0  0  0  0  0  0  0  0
   -3.0395   -1.6549   -0.6618 H   0  0  0  0  0  0  0  0  0  0  0  0
   -3.0807    0.0561    0.0255 H   0  0  0  0  0  0  0  0  0  0  0  0
   -2.6580   -0.2605   -1.6971 H   0  0  0  0  0  0  0  0  0  0  0  0
   -0.4487   -0.2160   -2.3412 H   0  0  0  0  0  0  0  0  0  0  0  0
  1  2  1  0
  2  3  3  0
  3  4  1  0
  4  5  2  0
  4  6  1  0
  6  7  1  0
  6  8  1  0
  8  9  2  0
  1 10  1  0
  1 11  1  0
  1 12  1  0
  6 13  1  0
  7 14  1  0
  7 15  1  0
  7 16  1  0
  8 17  1  0
M  END
