
     RDKit          3D

 15 15  0  0  0  0  0  0  0  0999 V2000
    3.5751   -0.7537   -0.3954 C   0  0  0  0  0  0  0  0  0  0  0  0
    1.9939   -0.6463   -0.0374 C   0  0  0  0  0  0  0  0  0  0  0  0
    0.5807   -0.5276    0.2721 C   0  0  0  0  0  0  0  0  0  0  0  0
   -0.6822   -0.4045    0.5622 C   0  0  0  0  0  0  0  0  0  0  0  0
   -0.8412    0.6801   -0.7248 O   0  0  0  0  0  0  0  0  0  0  0  0
   -2.2771    0.6012   -0.6929 C   0  0  0  0  0  0  0  0  0  0  0  0
   -2.3867    0.9989    0.6482 C   0  0  0  0  0  0  0  0  0  0  0  0
   -3.2813    1.8050    1.2856 O   0  0  0  0  0  0  0  0  0  0  0  0
   -1.3437    0.4080    1.4177 O   0  0  0  0  0  0  0  0  0  0  0  0
    3.8954   -1.4551    0.3104 H   0  0  0  0  0  0  0  0  0  0  0  0
    3.8349    0.2925    0.0238 H   0  0  0  0  0  0  0  0  0  0  0  0
    3.4962   -0.6305   -1.4318 H   0  0  0  0  0  0  0  0  0  0  0  0
   -1.3370   -1.1205   -0.1230 H   0  0  0  0  0  0  0  0  0  0  0  0
   -2.6250    1.2389   -1.5292 H   0  0  0  0  0  0  0  0  0  0  0  0
   -2.6019   -0.4865   -0.7636 H   0  0  0  0  0  0  0  0  0  0  0  0
  1  2  1  0
  2  3  3  0
  3  4  1  0
  4  5  1  0
  5  6  1  0
  6  7  1  0
  7  8  2  0
  7  9  1  0
  9  4  1  0
  1 10  1  0
  1 11  1  0
  1 12  1  0
  4 13  1  0
  6 14  1  0
  6 15  1  0
M  END
