
     RDKit          3D

 16 16  0  0  0  0  0  0  0  0999 V2000
    1.4717    0.4792    2.7439 C   0  0  0  0  0  0  0  0  0  0  0  0
    1.1765    0.0346    1.4005 C   0  0  0  0  0  0  0  0  0  0  0  0
    0.9315   -0.3395    0.2157 C   0  0  0  0  0  0  0  0  0  0  0  0
    0.6502   -0.7868   -1.1249 C   0  0  0  0  0  0  0  0  0  0  0  0
   -0.4570   -1.7302   -1.2068 O   0  0  0  0  0  0  0  0  0  0  0  0
   -0.5441   -0.3674   -1.7730 C   0  0  0  0  0  0  0  0  0  0  0  0
   -1.5718    0.4998   -1.0737 C   0  0  0  0  0  0  0  0  0  0  0  0
   -1.2950    0.6515    0.2704 O   0  0  0  0  0  0  0  0  0  0  0  0
    0.5530    0.9092    3.1933 H   0  0  0  0  0  0  0  0  0  0  0  0
    1.8944   -0.3379    3.3720 H   0  0  0  0  0  0  0  0  0  0  0  0
    2.2732    1.2705    2.7262 H   0  0  0  0  0  0  0  0  0  0  0  0
    1.5085   -1.1995   -1.7409 H   0  0  0  0  0  0  0  0  0  0  0  0
   -0.6836   -0.4892   -2.8592 H   0  0  0  0  0  0  0  0  0  0  0  0
   -2.6006    0.0421   -1.1707 H   0  0  0  0  0  0  0  0  0  0  0  0
   -1.6431    1.4916   -1.5597 H   0  0  0  0  0  0  0  0  0  0  0  0
   -1.6638   -0.1280    0.7979 H   0  0  0  0  0  0  0  0  0  0  0  0
  1  2  1  0
  2  3  3  0
  3  4  1  0
  4  5  1  0
  5  6  1  0
  6  7  1  0
  7  8  1  0
  6  4  1  0
  1  9  1  0
  1 10  1  0
  1 11  1  0
  4 12  1  0
  6 13  1  0
  7 14  1  0
  7 15  1  0
  8 16  1  0
M  END
