
     RDKit          3D

 20 19  0  0  0  0  0  0  0  0999 V2000
    3.9910    1.2785    1.3378 C   0  0  0  0  0  0  0  0  0  0  0  0
    2.8878    0.5468    0.6831 C   0  0  0  0  0  0  0  0  0  0  0  0
    1.9969   -0.0514    0.1304 C   0  0  0  0  0  0  0  0  0  0  0  0
    0.9226   -0.7918   -0.5321 C   0  0  0  0  0  0  0  0  0  0  0  0
   -0.3344   -0.3906   -0.0516 O   0  0  0  0  0  0  0  0  0  0  0  0
   -1.3434   -1.1059   -0.6937 C   0  0  0  0  0  0  0  0  0  0  0  0
   -2.6682   -0.6272   -0.1319 C   0  0  0  0  0  0  0  0  0  0  0  0
   -2.8549    0.8672   -0.3795 C   0  0  0  0  0  0  0  0  0  0  0  0
    3.6734    1.6625    2.3459 H   0  0  0  0  0  0  0  0  0  0  0  0
    4.3457    2.1038    0.6797 H   0  0  0  0  0  0  0  0  0  0  0  0
    4.7957    0.5380    1.5286 H   0  0  0  0  0  0  0  0  0  0  0  0
    1.0639   -1.8578   -0.2646 H   0  0  0  0  0  0  0  0  0  0  0  0
    0.9539   -0.6759   -1.6339 H   0  0  0  0  0  0  0  0  0  0  0  0
   -1.3077   -1.0293   -1.7862 H   0  0  0  0  0  0  0  0  0  0  0  0
   -1.2318   -2.1669   -0.3399 H   0  0  0  0  0  0  0  0  0  0  0  0
   -2.6829   -0.8318    0.9576 H   0  0  0  0  0  0  0  0  0  0  0  0
   -3.4922   -1.2084   -0.5814 H   0  0  0  0  0  0  0  0  0  0  0  0
   -2.6793    1.4085    0.5781 H   0  0  0  0  0  0  0  0  0  0  0  0
   -2.1563    1.2197   -1.1448 H   0  0  0  0  0  0  0  0  0  0  0  0
   -3.8800    1.1120   -0.7018 H   0  0  0  0  0  0  0  0  0  0  0  0
  1  2  1  0
  2  3  3  0
  3  4  1  0
  4  5  1  0
  5  6  1  0
  6  7  1  0
  7  8  1  0
  1  9  1  0
  1 10  1  0
  1 11  1  0
  4 12  1  0
  4 13  1  0
  6 14  1  0
  6 15  1  0
  7 16  1  0
  7 17  1  0
  8 18  1  0
  8 19  1  0
  8 20  1  0
M  END
