
     RDKit          3D

 18 17  0  0  0  0  0  0  0  0999 V2000
    3.3988   -1.8121    0.5185 C   0  0  0  0  0  0  0  0  0  0  0  0
    2.0440   -1.3479    0.2180 C   0  0  0  0  0  0  0  0  0  0  0  0
    0.9039   -0.9526   -0.0141 C   0  0  0  0  0  0  0  0  0  0  0  0
   -0.4562   -0.4679   -0.2725 C   0  0  0  0  0  0  0  0  0  0  0  0
   -0.6830    0.8241    0.4632 C   0  0  0  0  0  0  0  0  0  0  0  0
   -2.0843    1.2989    0.1703 C   0  0  0  0  0  0  0  0  0  0  0  0
   -2.2501    1.5381   -1.2777 C   0  0  0  0  0  0  0  0  0  0  0  0
   -3.3119    1.8836   -1.7699 O   0  0  0  0  0  0  0  0  0  0  0  0
    3.7825   -2.2294   -0.4441 H   0  0  0  0  0  0  0  0  0  0  0  0
    4.0445   -0.9398    0.8361 H   0  0  0  0  0  0  0  0  0  0  0  0
    3.4347   -2.5347    1.3522 H   0  0  0  0  0  0  0  0  0  0  0  0
   -0.6337   -0.3444   -1.3552 H   0  0  0  0  0  0  0  0  0  0  0  0
   -1.1609   -1.2040    0.1694 H   0  0  0  0  0  0  0  0  0  0  0  0
    0.0823    1.5856    0.1926 H   0  0  0  0  0  0  0  0  0  0  0  0
   -0.6379    0.6202    1.5698 H   0  0  0  0  0  0  0  0  0  0  0  0
   -2.2909    2.2142    0.7758 H   0  0  0  0  0  0  0  0  0  0  0  0
   -2.7704    0.4616    0.4918 H   0  0  0  0  0  0  0  0  0  0  0  0
   -1.4114    1.4065   -1.9319 H   0  0  0  0  0  0  0  0  0  0  0  0
  1  2  1  0
  2  3  3  0
  3  4  1  0
  4  5  1  0
  5  6  1  0
  6  7  1  0
  7  8  2  0
  1  9  1  0
  1 10  1  0
  1 11  1  0
  4 12  1  0
  4 13  1  0
  5 14  1  0
  5 15  1  0
  6 16  1  0
  6 17  1  0
  7 18  1  0
M  END
