
     RDKit          3D

 17 16  0  0  0  0  0  0  0  0999 V2000
    2.9353   -0.0603   -0.7334 C   0  0  0  0  0  0  0  0  0  0  0  0
    1.5451    0.1704   -0.3362 C   0  0  0  0  0  0  0  0  0  0  0  0
    0.3930    0.3770    0.0092 C   0  0  0  0  0  0  0  0  0  0  0  0
   -0.9969    0.6132    0.4040 C   0  0  0  0  0  0  0  0  0  0  0  0
   -1.1178    1.8530    1.2257 C   0  0  0  0  0  0  0  0  0  0  0  0
   -1.6265    2.8624    0.7677 O   0  0  0  0  0  0  0  0  0  0  0  0
   -1.4592   -0.5960    1.1756 C   0  0  0  0  0  0  0  0  0  0  0  0
   -1.3592   -1.7863    0.3117 C   0  0  0  0  0  0  0  0  0  0  0  0
   -0.9601   -1.7394   -0.8333 O   0  0  0  0  0  0  0  0  0  0  0  0
    3.3152   -0.9005   -0.0950 H   0  0  0  0  0  0  0  0  0  0  0  0
    3.5663    0.8607   -0.5860 H   0  0  0  0  0  0  0  0  0  0  0  0
    3.0266   -0.3135   -1.8064 H   0  0  0  0  0  0  0  0  0  0  0  0
   -1.5658    0.7338   -0.5584 H   0  0  0  0  0  0  0  0  0  0  0  0
   -0.7272    1.7980    2.2474 H   0  0  0  0  0  0  0  0  0  0  0  0
   -0.7813   -0.7019    2.0456 H   0  0  0  0  0  0  0  0  0  0  0  0
   -2.5246   -0.4202    1.4970 H   0  0  0  0  0  0  0  0  0  0  0  0
   -1.6631   -2.7505    0.7378 H   0  0  0  0  0  0  0  0  0  0  0  0
  1  2  1  0
  2  3  3  0
  3  4  1  0
  4  5  1  0
  5  6  2  0
  4  7  1  0
  7  8  1  0
  8  9  2  0
  1 10  1  0
  1 11  1  0
  1 12  1  0
  4 13  1  0
  5 14  1  0
  7 15  1  0
  7 16  1  0
  8 17  1  0
M  END
