
     RDKit          3D

 17 17  0  0  0  0  0  0  0  0999 V2000
   -1.8217    0.3061   -2.9883 C   0  0  0  0  0  0  0  0  0  0  0  0
   -1.2606    0.2409   -1.6603 C   0  0  0  0  0  0  0  0  0  0  0  0
   -0.7902    0.1707   -0.5150 C   0  0  0  0  0  0  0  0  0  0  0  0
   -0.2382    0.0641    0.8600 C   0  0  0  0  0  0  0  0  0  0  0  0
   -1.1807    0.1556    1.8782 O   0  0  0  0  0  0  0  0  0  0  0  0
    0.9269   -0.8919    1.0290 C   0  0  0  0  0  0  0  0  0  0  0  0
    1.3917   -1.4866   -0.1554 O   0  0  0  0  0  0  0  0  0  0  0  0
    1.0962    0.5733    1.1364 C   0  0  0  0  0  0  0  0  0  0  0  0
    1.9011    1.1785    0.1462 O   0  0  0  0  0  0  0  0  0  0  0  0
   -1.0721   -0.0608   -3.7191 H   0  0  0  0  0  0  0  0  0  0  0  0
   -2.2146    1.3254   -3.2340 H   0  0  0  0  0  0  0  0  0  0  0  0
   -2.7401   -0.3567   -3.0220 H   0  0  0  0  0  0  0  0  0  0  0  0
   -1.0918   -0.7165    2.3814 H   0  0  0  0  0  0  0  0  0  0  0  0
    0.9535   -1.5714    1.8783 H   0  0  0  0  0  0  0  0  0  0  0  0
    1.9160   -0.8183   -0.6651 H   0  0  0  0  0  0  0  0  0  0  0  0
    1.3813    0.9711    2.1508 H   0  0  0  0  0  0  0  0  0  0  0  0
    2.8433    0.9164    0.2202 H   0  0  0  0  0  0  0  0  0  0  0  0
  1  2  1  0
  2  3  3  0
  3  4  1  0
  4  5  1  0
  4  6  1  0
  6  7  1  0
  6  8  1  0
  8  9  1  0
  8  4  1  0
  1 10  1  0
  1 11  1  0
  1 12  1  0
  5 13  1  0
  6 14  1  0
  7 15  1  0
  8 16  1  0
  9 17  1  0
M  END
