
     RDKit          3D

 19 19  0  0  0  0  0  0  0  0999 V2000
    3.8030    0.5195   -2.2619 C   0  0  0  0  0  0  0  0  0  0  0  0
    2.7880    0.4345   -1.3307 C   0  0  0  0  0  0  0  0  0  0  0  0
    1.7419    0.3525   -0.3993 C   0  0  0  0  0  0  0  0  0  0  0  0
    0.7560    0.2753    0.4479 C   0  0  0  0  0  0  0  0  0  0  0  0
    0.8100    0.8257    1.6154 O   0  0  0  0  0  0  0  0  0  0  0  0
   -0.5314   -0.4651    0.1149 C   0  0  0  0  0  0  0  0  0  0  0  0
   -1.5397   -0.2870    1.2318 C   0  0  0  0  0  0  0  0  0  0  0  0
   -2.8669   -0.9797    0.9832 C   0  0  0  0  0  0  0  0  0  0  0  0
   -2.7753    0.5085    0.9376 C   0  0  0  0  0  0  0  0  0  0  0  0
    4.8003    0.4591   -1.7066 H   0  0  0  0  0  0  0  0  0  0  0  0
    3.8453   -0.3497   -2.9844 H   0  0  0  0  0  0  0  0  0  0  0  0
    3.7612    1.4073   -2.9380 H   0  0  0  0  0  0  0  0  0  0  0  0
   -0.9435   -0.1126   -0.8231 H   0  0  0  0  0  0  0  0  0  0  0  0
   -0.2324   -1.5121   -0.0242 H   0  0  0  0  0  0  0  0  0  0  0  0
   -1.1054   -0.1943    2.2257 H   0  0  0  0  0  0  0  0  0  0  0  0
   -3.3501   -1.4402    1.8858 H   0  0  0  0  0  0  0  0  0  0  0  0
   -3.0246   -1.5278    0.0403 H   0  0  0  0  0  0  0  0  0  0  0  0
   -2.7724    0.9960   -0.0654 H   0  0  0  0  0  0  0  0  0  0  0  0
   -3.1639    1.0900    1.7783 H   0  0  0  0  0  0  0  0  0  0  0  0
  1  2  1  0
  2  3  3  0
  3  4  1  0
  4  5  2  0
  4  6  1  0
  6  7  1  0
  7  8  1  0
  8  9  1  0
  9  7  1  0
  1 10  1  0
  1 11  1  0
  1 12  1  0
  6 13  1  0
  6 14  1  0
  7 15  1  0
  8 16  1  0
  8 17  1  0
  9 18  1  0
  9 19  1  0
M  END
