
     RDKit          3D

 17 17  0  0  0  0  0  0  0  0999 V2000
    3.4543    1.2835    2.6995 C   0  0  0  0  0  0  0  0  0  0  0  0
    2.3902    0.8917    1.7513 C   0  0  0  0  0  0  0  0  0  0  0  0
    1.5048    0.5437    0.9624 C   0  0  0  0  0  0  0  0  0  0  0  0
    0.5035    0.1725    0.0923 C   0  0  0  0  0  0  0  0  0  0  0  0
   -0.3952   -0.1829   -0.7038 C   0  0  0  0  0  0  0  0  0  0  0  0
   -1.4322   -0.6168   -1.6143 C   0  0  0  0  0  0  0  0  0  0  0  0
   -2.5016    0.3889   -1.9671 C   0  0  0  0  0  0  0  0  0  0  0  0
   -1.6826   -2.0395   -1.7683 C   0  0  0  0  0  0  0  0  0  0  0  0
   -0.9372   -1.3386   -2.7496 O   0  0  0  0  0  0  0  0  0  0  0  0
    3.1283    0.9662    3.7273 H   0  0  0  0  0  0  0  0  0  0  0  0
    4.3949    0.7676    2.4123 H   0  0  0  0  0  0  0  0  0  0  0  0
    3.5315    2.3862    2.6969 H   0  0  0  0  0  0  0  0  0  0  0  0
   -2.0060    1.3176   -2.3302 H   0  0  0  0  0  0  0  0  0  0  0  0
   -3.1682    0.0416   -2.7728 H   0  0  0  0  0  0  0  0  0  0  0  0
   -3.0993    0.6451   -1.0631 H   0  0  0  0  0  0  0  0  0  0  0  0
   -1.0372   -2.7346   -1.1822 H   0  0  0  0  0  0  0  0  0  0  0  0
   -2.6482   -2.4921   -2.0681 H   0  0  0  0  0  0  0  0  0  0  0  0
  1  2  1  0
  2  3  3  0
  3  4  1  0
  4  5  3  0
  5  6  1  0
  6  7  1  0
  6  8  1  0
  8  9  1  0
  9  6  1  0
  1 10  1  0
  1 11  1  0
  1 12  1  0
  7 13  1  0
  7 14  1  0
  7 15  1  0
  8 16  1  0
  8 17  1  0
M  END
