
     RDKit          3D

 17 18  0  0  0  0  0  0  0  0999 V2000
    3.4369   -0.0114   -0.5912 C   0  0  0  0  0  0  0  0  0  0  0  0
    1.9595    0.0003   -0.3923 C   0  0  0  0  0  0  0  0  0  0  0  0
    0.7747    0.0130   -0.2361 C   0  0  0  0  0  0  0  0  0  0  0  0
   -0.5432    0.0202   -0.0576 C   0  0  0  0  0  0  0  0  0  0  0  0
   -1.3573    1.0647    0.6179 C   0  0  0  0  0  0  0  0  0  0  0  0
   -2.3481    0.0130    0.1912 C   0  0  0  0  0  0  0  0  0  0  0  0
   -1.3522   -0.9955    0.6918 C   0  0  0  0  0  0  0  0  0  0  0  0
   -1.5811   -0.0353   -1.0883 C   0  0  0  0  0  0  0  0  0  0  0  0
   -1.7571   -0.0893   -2.2822 O   0  0  0  0  0  0  0  0  0  0  0  0
    3.6468   -0.1458   -1.6718 H   0  0  0  0  0  0  0  0  0  0  0  0
    3.8549   -0.9259   -0.0843 H   0  0  0  0  0  0  0  0  0  0  0  0
    3.8456    0.9219   -0.2088 H   0  0  0  0  0  0  0  0  0  0  0  0
   -1.2140    1.1392    1.7272 H   0  0  0  0  0  0  0  0  0  0  0  0
   -1.4516    2.0379    0.1208 H   0  0  0  0  0  0  0  0  0  0  0  0
   -3.3383    0.0170    0.2993 H   0  0  0  0  0  0  0  0  0  0  0  0
   -1.4150   -1.9943    0.2489 H   0  0  0  0  0  0  0  0  0  0  0  0
   -1.1604   -1.0296    1.7595 H   0  0  0  0  0  0  0  0  0  0  0  0
  1  2  1  0
  2  3  3  0
  3  4  1  0
  4  5  1  0
  5  6  1  0
  6  7  1  0
  6  8  1  0
  8  9  2  0
  7  4  1  0
  8  4  1  0
  1 10  1  0
  1 11  1  0
  1 12  1  0
  5 13  1  0
  5 14  1  0
  6 15  1  0
  7 16  1  0
  7 17  1  0
M  END
