
     RDKit          3D

 19 18  0  0  0  0  0  0  0  0999 V2000
    3.8121    0.4466    1.1891 C   0  0  0  0  0  0  0  0  0  0  0  0
    2.4820    0.4327    0.5236 C   0  0  0  0  0  0  0  0  0  0  0  0
    1.3725    0.4102   -0.0236 C   0  0  0  0  0  0  0  0  0  0  0  0
    0.1010    0.3756   -0.6249 C   0  0  0  0  0  0  0  0  0  0  0  0
   -0.3039    1.6356   -1.0164 O   0  0  0  0  0  0  0  0  0  0  0  0
   -0.9583   -0.3726    0.0995 C   0  0  0  0  0  0  0  0  0  0  0  0
   -2.2838   -0.3651   -0.6528 C   0  0  0  0  0  0  0  0  0  0  0  0
   -3.2480   -1.1218    0.1731 C   0  0  0  0  0  0  0  0  0  0  0  0
   -4.4414   -1.2890   -0.1375 O   0  0  0  0  0  0  0  0  0  0  0  0
    3.6725    0.0123    2.2050 H   0  0  0  0  0  0  0  0  0  0  0  0
    4.2006    1.5018    1.2757 H   0  0  0  0  0  0  0  0  0  0  0  0
    4.5543   -0.1212    0.6125 H   0  0  0  0  0  0  0  0  0  0  0  0
    0.2453   -0.1474   -1.6754 H   0  0  0  0  0  0  0  0  0  0  0  0
    0.2685    1.8922   -1.8142 H   0  0  0  0  0  0  0  0  0  0  0  0
   -0.6184   -1.4415    0.1952 H   0  0  0  0  0  0  0  0  0  0  0  0
   -1.1758    0.0505    1.0842 H   0  0  0  0  0  0  0  0  0  0  0  0
   -2.0798   -0.9259   -1.6139 H   0  0  0  0  0  0  0  0  0  0  0  0
   -2.6031    0.6285   -0.9365 H   0  0  0  0  0  0  0  0  0  0  0  0
   -2.9962   -1.6014    1.1370 H   0  0  0  0  0  0  0  0  0  0  0  0
  1  2  1  0
  2  3  3  0
  3  4  1  0
  4  5  1  0
  4  6  1  0
  6  7  1  0
  7  8  1  0
  8  9  2  0
  1 10  1  0
  1 11  1  0
  1 12  1  0
  4 13  1  0
  5 14  1  0
  6 15  1  0
  6 16  1  0
  7 17  1  0
  7 18  1  0
  8 19  1  0
M  END
