
     RDKit          3D

 17 16  0  0  0  0  0  0  0  0999 V2000
    3.9512    0.6693    0.1491 C   0  0  0  0  0  0  0  0  0  0  0  0
    2.5930    0.1309    0.0248 C   0  0  0  0  0  0  0  0  0  0  0  0
    1.4707   -0.2992   -0.0910 C   0  0  0  0  0  0  0  0  0  0  0  0
    0.1278   -0.7962   -0.2174 C   0  0  0  0  0  0  0  0  0  0  0  0
   -0.1405   -1.9235   -0.7100 O   0  0  0  0  0  0  0  0  0  0  0  0
   -0.9757    0.0638    0.2555 C   0  0  0  0  0  0  0  0  0  0  0  0
   -2.3189   -0.6318    0.0387 C   0  0  0  0  0  0  0  0  0  0  0  0
   -3.4176    0.2262    0.5102 C   0  0  0  0  0  0  0  0  0  0  0  0
   -3.1741    1.3118    0.9858 O   0  0  0  0  0  0  0  0  0  0  0  0
    4.7275   -0.0829   -0.0880 H   0  0  0  0  0  0  0  0  0  0  0  0
    4.0329    1.0462    1.1997 H   0  0  0  0  0  0  0  0  0  0  0  0
    4.1075    1.5491   -0.5215 H   0  0  0  0  0  0  0  0  0  0  0  0
   -0.9793    1.0671   -0.2270 H   0  0  0  0  0  0  0  0  0  0  0  0
   -0.8235    0.2260    1.3389 H   0  0  0  0  0  0  0  0  0  0  0  0
   -2.2722   -1.6138    0.5477 H   0  0  0  0  0  0  0  0  0  0  0  0
   -2.4762   -0.8122   -1.0441 H   0  0  0  0  0  0  0  0  0  0  0  0
   -4.4325   -0.1307    0.4230 H   0  0  0  0  0  0  0  0  0  0  0  0
  1  2  1  0
  2  3  3  0
  3  4  1  0
  4  5  2  0
  4  6  1  0
  6  7  1  0
  7  8  1  0
  8  9  2  0
  1 10  1  0
  1 11  1  0
  1 12  1  0
  6 13  1  0
  6 14  1  0
  7 15  1  0
  7 16  1  0
  8 17  1  0
M  END
