
     RDKit          3D

 15 14  0  0  0  0  0  0  0  0999 V2000
    1.1453    2.0848   -1.5868 C   0  0  0  0  0  0  0  0  0  0  0  0
    0.3830    1.3851   -0.5494 C   0  0  0  0  0  0  0  0  0  0  0  0
   -0.2897    0.7943    0.3623 C   0  0  0  0  0  0  0  0  0  0  0  0
   -1.1172    0.0768    1.4402 C   0  0  0  0  0  0  0  0  0  0  0  0
   -1.9977    0.7234    1.9451 O   0  0  0  0  0  0  0  0  0  0  0  0
   -0.7222   -1.3042    1.7226 C   0  0  0  0  0  0  0  0  0  0  0  0
    0.3063   -1.7195    0.7360 O   0  0  0  0  0  0  0  0  0  0  0  0
    0.0654   -1.8207   -0.5839 C   0  0  0  0  0  0  0  0  0  0  0  0
   -1.1067   -1.5546   -1.0468 O   0  0  0  0  0  0  0  0  0  0  0  0
    0.5031    2.9184   -2.0570 H   0  0  0  0  0  0  0  0  0  0  0  0
    2.0330    2.6631   -1.0912 H   0  0  0  0  0  0  0  0  0  0  0  0
    1.5393    1.3818   -2.2870 H   0  0  0  0  0  0  0  0  0  0  0  0
   -1.4987   -2.0611    1.6030 H   0  0  0  0  0  0  0  0  0  0  0  0
   -0.0965   -1.4423    2.6957 H   0  0  0  0  0  0  0  0  0  0  0  0
    0.8532   -2.1252   -1.3028 H   0  0  0  0  0  0  0  0  0  0  0  0
  1  2  1  0
  2  3  3  0
  3  4  1  0
  4  5  2  0
  4  6  1  0
  6  7  1  0
  7  8  1  0
  8  9  2  0
  1 10  1  0
  1 11  1  0
  1 12  1  0
  6 13  1  0
  6 14  1  0
  8 15  1  0
M  END
