
     RDKit          3D

 17 18  0  0  0  0  0  0  0  0999 V2000
    3.2794    1.0398    0.7835 C   0  0  0  0  0  0  0  0  0  0  0  0
    1.8996    0.4929    0.4277 C   0  0  0  0  0  0  0  0  0  0  0  0
    0.7201    0.0043    0.1331 C   0  0  0  0  0  0  0  0  0  0  0  0
   -0.4746   -0.4665   -0.1700 C   0  0  0  0  0  0  0  0  0  0  0  0
   -0.6094   -1.7961    0.4790 O   0  0  0  0  0  0  0  0  0  0  0  0
   -1.0863   -0.4626   -1.5042 C   0  0  0  0  0  0  0  0  0  0  0  0
   -2.4736   -0.4678   -0.8835 C   0  0  0  0  0  0  0  0  0  0  0  0
   -2.7973   -0.6949    0.4138 O   0  0  0  0  0  0  0  0  0  0  0  0
   -1.7912    0.2236    0.3043 C   0  0  0  0  0  0  0  0  0  0  0  0
    3.6831    0.1792    1.4796 H   0  0  0  0  0  0  0  0  0  0  0  0
    3.9241    0.8638   -0.1307 H   0  0  0  0  0  0  0  0  0  0  0  0
    3.2849    1.9289    1.2622 H   0  0  0  0  0  0  0  0  0  0  0  0
   -0.6731   -1.6089    1.4285 H   0  0  0  0  0  0  0  0  0  0  0  0
   -0.8833   -1.1907   -2.2643 H   0  0  0  0  0  0  0  0  0  0  0  0
   -0.9134    0.6016   -1.9406 H   0  0  0  0  0  0  0  0  0  0  0  0
   -3.2238    0.0828   -1.4996 H   0  0  0  0  0  0  0  0  0  0  0  0
   -1.8650    1.2706    0.4347 H   0  0  0  0  0  0  0  0  0  0  0  0
  1  2  1  0
  2  3  3  0
  3  4  1  0
  4  5  1  0
  4  6  1  0
  6  7  1  0
  7  8  1  0
  8  9  1  0
  9  4  1  0
  9  7  1  0
  1 10  1  0
  1 11  1  0
  1 12  1  0
  5 13  1  0
  6 14  1  0
  6 15  1  0
  7 16  1  0
  9 17  1  0
M  END
