
     RDKit          3D

 19 19  0  0  0  0  0  0  0  0999 V2000
    4.9233    1.3402    0.3307 C   0  0  0  0  0  0  0  0  0  0  0  0
    3.4896    0.8373    0.2053 C   0  0  0  0  0  0  0  0  0  0  0  0
    2.2418    0.4159    0.0885 C   0  0  0  0  0  0  0  0  0  0  0  0
    1.2297    0.0836   -0.0179 C   0  0  0  0  0  0  0  0  0  0  0  0
   -0.1099   -0.3407   -0.1391 C   0  0  0  0  0  0  0  0  0  0  0  0
   -1.1996   -0.6725   -0.2265 C   0  0  0  0  0  0  0  0  0  0  0  0
   -2.1908   -1.3989    0.5629 C   0  0  0  0  0  0  0  0  0  0  0  0
   -3.3649   -0.6017   -0.2064 C   0  0  0  0  0  0  0  0  0  0  0  0
   -2.3887    0.5891    0.0202 C   0  0  0  0  0  0  0  0  0  0  0  0
    4.8198    2.0152   -0.6906 H   0  0  0  0  0  0  0  0  0  0  0  0
    5.6793    0.8467    0.5876 H   0  0  0  0  0  0  0  0  0  0  0  0
    5.0964    0.4215   -0.9644 H   0  0  0  0  0  0  0  0  0  0  0  0
   -1.5941   -0.7115   -1.4732 H   0  0  0  0  0  0  0  0  0  0  0  0
   -2.4413   -2.3847    0.5345 H   0  0  0  0  0  0  0  0  0  0  0  0
   -2.2020   -0.9389    1.6173 H   0  0  0  0  0  0  0  0  0  0  0  0
   -3.2622   -0.8783   -1.2730 H   0  0  0  0  0  0  0  0  0  0  0  0
   -4.1965   -0.7428    0.3757 H   0  0  0  0  0  0  0  0  0  0  0  0
   -2.2089    0.9076    0.9972 H   0  0  0  0  0  0  0  0  0  0  0  0
   -2.3210    1.2129   -0.8324 H   0  0  0  0  0  0  0  0  0  0  0  0
  1  2  1  0
  2  3  3  0
  3  4  1  0
  4  5  3  0
  5  6  1  0
  6  7  1  0
  7  8  1  0
  8  9  1  0
  9  6  1  0
  1 10  1  0
  1 11  1  0
  1 12  1  0
  6 13  1  0
  7 14  1  0
  7 15  1  0
  8 16  1  0
  8 17  1  0
  9 18  1  0
  9 19  1  0
M  END
