
     RDKit          3D

 21 20  0  0  0  0  0  0  0  0999 V2000
    3.7110   -0.3808   -1.3756 C   0  0  0  0  0  0  0  0  0  0  0  0
    2.4464   -0.1476   -0.6785 C   0  0  0  0  0  0  0  0  0  0  0  0
    1.3963    0.0417   -0.0765 C   0  0  0  0  0  0  0  0  0  0  0  0
    0.1653    0.2713    0.6575 C   0  0  0  0  0  0  0  0  0  0  0  0
   -0.1425    1.7444    0.7235 C   0  0  0  0  0  0  0  0  0  0  0  0
   -1.3412    1.9322    1.4413 O   0  0  0  0  0  0  0  0  0  0  0  0
   -0.9360   -0.5195    0.0163 C   0  0  0  0  0  0  0  0  0  0  0  0
   -2.1594   -0.3574    0.6596 O   0  0  0  0  0  0  0  0  0  0  0  0
   -3.0792   -1.1552   -0.0546 C   0  0  0  0  0  0  0  0  0  0  0  0
    3.8079   -1.4504   -1.7051 H   0  0  0  0  0  0  0  0  0  0  0  0
    3.7991    0.2499   -2.2644 H   0  0  0  0  0  0  0  0  0  0  0  0
    4.5164   -0.0925   -0.6732 H   0  0  0  0  0  0  0  0  0  0  0  0
    0.2793   -0.0943    1.6970 H   0  0  0  0  0  0  0  0  0  0  0  0
   -0.1668    2.2346   -0.2499 H   0  0  0  0  0  0  0  0  0  0  0  0
    0.6737    2.2197    1.3186 H   0  0  0  0  0  0  0  0  0  0  0  0
   -1.2712    1.4735    2.3073 H   0  0  0  0  0  0  0  0  0  0  0  0
   -0.6526   -1.6049    0.1274 H   0  0  0  0  0  0  0  0  0  0  0  0
   -1.0427   -0.3194   -1.0643 H   0  0  0  0  0  0  0  0  0  0  0  0
   -3.1425   -0.8228   -1.1123 H   0  0  0  0  0  0  0  0  0  0  0  0
   -4.0912   -1.0093    0.3757 H   0  0  0  0  0  0  0  0  0  0  0  0
   -2.7700   -2.2133   -0.0696 H   0  0  0  0  0  0  0  0  0  0  0  0
  1  2  1  0
  2  3  3  0
  3  4  1  0
  4  5  1  0
  5  6  1  0
  4  7  1  0
  7  8  1  0
  8  9  1  0
  1 10  1  0
  1 11  1  0
  1 12  1  0
  4 13  1  0
  5 14  1  0
  5 15  1  0
  6 16  1  0
  7 17  1  0
  7 18  1  0
  9 19  1  0
  9 20  1  0
  9 21  1  0
M  END
