
     RDKit          3D

 19 19  0  0  0  0  0  0  0  0999 V2000
    2.2928   -2.9704    0.1877 C   0  0  0  0  0  0  0  0  0  0  0  0
    1.6238   -1.6141    0.0009 C   0  0  0  0  0  0  0  0  0  0  0  0
    1.0259   -0.4531   -0.1626 C   0  0  0  0  0  0  0  0  0  0  0  0
    0.4729    0.6651   -0.3267 C   0  0  0  0  0  0  0  0  0  0  0  0
    0.1015    1.0871   -1.6329 O   0  0  0  0  0  0  0  0  0  0  0  0
   -0.7857    0.8774    0.5786 C   0  0  0  0  0  0  0  0  0  0  0  0
   -0.5713    0.4923    1.8987 O   0  0  0  0  0  0  0  0  0  0  0  0
   -1.7602    1.9212    0.2263 C   0  0  0  0  0  0  0  0  0  0  0  0
   -2.0597    0.5093   -0.0933 C   0  0  0  0  0  0  0  0  0  0  0  0
    3.3873   -2.7505    0.4264 H   0  0  0  0  0  0  0  0  0  0  0  0
    2.2243   -3.4883   -0.7334 H   0  0  0  0  0  0  0  0  0  0  0  0
    1.8819   -3.4327    1.0891 H   0  0  0  0  0  0  0  0  0  0  0  0
    1.1136    1.6323    0.0335 H   0  0  0  0  0  0  0  0  0  0  0  0
   -0.4693    1.8910   -1.6396 H   0  0  0  0  0  0  0  0  0  0  0  0
    0.4212    0.3716    2.0371 H   0  0  0  0  0  0  0  0  0  0  0  0
   -1.6874    2.6686   -0.5615 H   0  0  0  0  0  0  0  0  0  0  0  0
   -2.3634    2.3892    1.1041 H   0  0  0  0  0  0  0  0  0  0  0  0
   -2.8322    0.0057    0.4963 H   0  0  0  0  0  0  0  0  0  0  0  0
   -2.0162    0.1984   -1.1825 H   0  0  0  0  0  0  0  0  0  0  0  0
  1  2  1  0
  2  3  3  0
  3  4  1  0
  4  5  1  0
  4  6  1  0
  6  7  1  0
  6  8  1  0
  8  9  1  0
  9  6  1  0
  1 10  1  0
  1 11  1  0
  1 12  1  0
  4 13  1  0
  5 14  1  0
  7 15  1  0
  8 16  1  0
  8 17  1  0
  9 18  1  0
  9 19  1  0
M  END
