
     RDKit          3D

 21 22  0  0  0  0  0  0  0  0999 V2000
    2.6034   -0.9032   -2.6071 C   0  0  0  0  0  0  0  0  0  0  0  0
    1.9517   -0.4179   -1.3817 C   0  0  0  0  0  0  0  0  0  0  0  0
    1.3985   -0.0287   -0.3811 C   0  0  0  0  0  0  0  0  0  0  0  0
    0.7022    0.4590    0.8314 C   0  0  0  0  0  0  0  0  0  0  0  0
   -0.5532    1.2261    0.5064 C   0  0  0  0  0  0  0  0  0  0  0  0
   -1.3466    1.7636    1.6682 C   0  0  0  0  0  0  0  0  0  0  0  0
   -1.5720    0.3296    2.1000 C   0  0  0  0  0  0  0  0  0  0  0  0
   -0.5581   -0.2008    1.1477 C   0  0  0  0  0  0  0  0  0  0  0  0
   -1.0252   -1.3266    0.2540 C   0  0  0  0  0  0  0  0  0  0  0  0
    2.2729   -1.9356   -2.8538 H   0  0  0  0  0  0  0  0  0  0  0  0
    2.4002   -0.2167   -3.4710 H   0  0  0  0  0  0  0  0  0  0  0  0
    3.6865   -0.8765   -2.4194 H   0  0  0  0  0  0  0  0  0  0  0  0
    1.3992    0.8565    1.5917 H   0  0  0  0  0  0  0  0  0  0  0  0
   -0.9175    1.2965   -0.5169 H   0  0  0  0  0  0  0  0  0  0  0  0
   -2.2309    2.3098    1.3230 H   0  0  0  0  0  0  0  0  0  0  0  0
   -0.6767    2.2842    2.3762 H   0  0  0  0  0  0  0  0  0  0  0  0
   -1.4271    0.1583    3.1650 H   0  0  0  0  0  0  0  0  0  0  0  0
   -2.6253    0.0444    1.8055 H   0  0  0  0  0  0  0  0  0  0  0  0
   -1.7680   -1.9096    0.8485 H   0  0  0  0  0  0  0  0  0  0  0  0
   -0.2172   -2.0411   -0.0000 H   0  0  0  0  0  0  0  0  0  0  0  0
   -1.4969   -0.8714   -0.6343 H   0  0  0  0  0  0  0  0  0  0  0  0
  1  2  1  0
  2  3  3  0
  3  4  1  0
  4  5  1  0
  5  6  1  0
  6  7  1  0
  7  8  1  0
  8  9  1  0
  8  4  1  0
  8  5  1  0
  1 10  1  0
  1 11  1  0
  1 12  1  0
  4 13  1  0
  5 14  1  0
  6 15  1  0
  6 16  1  0
  7 17  1  0
  7 18  1  0
  9 19  1  0
  9 20  1  0
  9 21  1  0
M  END
