
     RDKit          3D

 19 20  0  0  0  0  0  0  0  0999 V2000
    3.5741    0.3174    1.2134 C   0  0  0  0  0  0  0  0  0  0  0  0
    2.2072    0.3755    0.6471 C   0  0  0  0  0  0  0  0  0  0  0  0
    1.0879    0.4140    0.1950 C   0  0  0  0  0  0  0  0  0  0  0  0
   -0.2680    0.4813   -0.3697 C   0  0  0  0  0  0  0  0  0  0  0  0
   -1.1477   -0.6798   -0.0620 C   0  0  0  0  0  0  0  0  0  0  0  0
   -2.5323   -0.7208   -0.5809 C   0  0  0  0  0  0  0  0  0  0  0  0
   -1.4649   -1.6612   -1.1467 C   0  0  0  0  0  0  0  0  0  0  0  0
   -0.8338    1.7194   -0.8353 C   0  0  0  0  0  0  0  0  0  0  0  0
   -0.2822    0.7648   -1.8279 O   0  0  0  0  0  0  0  0  0  0  0  0
    3.6664   -0.5281    1.9136 H   0  0  0  0  0  0  0  0  0  0  0  0
    3.8179    1.3025    1.6784 H   0  0  0  0  0  0  0  0  0  0  0  0
    4.2588    0.0979    0.3620 H   0  0  0  0  0  0  0  0  0  0  0  0
   -1.0144   -1.1239    0.9643 H   0  0  0  0  0  0  0  0  0  0  0  0
   -2.8706    0.0765   -1.2539 H   0  0  0  0  0  0  0  0  0  0  0  0
   -3.3511   -1.1854    0.0070 H   0  0  0  0  0  0  0  0  0  0  0  0
   -1.6243   -2.7239   -0.9181 H   0  0  0  0  0  0  0  0  0  0  0  0
   -1.0967   -1.4118   -2.1621 H   0  0  0  0  0  0  0  0  0  0  0  0
   -0.2055    2.6434   -0.9129 H   0  0  0  0  0  0  0  0  0  0  0  0
   -1.9207    1.8425   -0.8975 H   0  0  0  0  0  0  0  0  0  0  0  0
  1  2  1  0
  2  3  3  0
  3  4  1  0
  4  5  1  0
  5  6  1  0
  6  7  1  0
  4  8  1  0
  8  9  1  0
  9  4  1  0
  7  5  1  0
  1 10  1  0
  1 11  1  0
  1 12  1  0
  5 13  1  0
  6 14  1  0
  6 15  1  0
  7 16  1  0
  7 17  1  0
  8 18  1  0
  8 19  1  0
M  END
