
     RDKit          3D

 23 23  0  0  0  0  0  0  0  0999 V2000
    2.9288    1.7454   -0.1604 C   0  0  0  0  0  0  0  0  0  0  0  0
    1.8589    0.7404   -0.0057 C   0  0  0  0  0  0  0  0  0  0  0  0
    0.9957   -0.0982    0.1271 C   0  0  0  0  0  0  0  0  0  0  0  0
   -0.0527   -1.1110    0.2625 C   0  0  0  0  0  0  0  0  0  0  0  0
    0.0791   -2.1003    1.4224 C   0  0  0  0  0  0  0  0  0  0  0  0
   -0.5596   -1.6799   -1.0208 C   0  0  0  0  0  0  0  0  0  0  0  0
   -1.3827   -0.7497   -0.2351 C   0  0  0  0  0  0  0  0  0  0  0  0
   -1.6761    0.5956   -0.8366 C   0  0  0  0  0  0  0  0  0  0  0  0
   -1.3954    1.6591    0.1855 C   0  0  0  0  0  0  0  0  0  0  0  0
    3.8243    1.2862   -0.6687 H   0  0  0  0  0  0  0  0  0  0  0  0
    3.2832    2.0440    0.8466 H   0  0  0  0  0  0  0  0  0  0  0  0
    2.5367    2.6145   -0.7373 H   0  0  0  0  0  0  0  0  0  0  0  0
    0.3903   -1.5487    2.3372 H   0  0  0  0  0  0  0  0  0  0  0  0
   -0.8590   -2.6462    1.5348 H   0  0  0  0  0  0  0  0  0  0  0  0
    0.9358   -2.7538    1.1537 H   0  0  0  0  0  0  0  0  0  0  0  0
   -0.7735   -2.7524   -1.0569 H   0  0  0  0  0  0  0  0  0  0  0  0
   -0.1243   -1.2840   -1.9769 H   0  0  0  0  0  0  0  0  0  0  0  0
   -2.2454   -1.1354    0.3869 H   0  0  0  0  0  0  0  0  0  0  0  0
   -2.7477    0.6448   -1.1131 H   0  0  0  0  0  0  0  0  0  0  0  0
   -1.1085    0.7584   -1.7860 H   0  0  0  0  0  0  0  0  0  0  0  0
   -2.3138    2.2694    0.3891 H   0  0  0  0  0  0  0  0  0  0  0  0
   -0.5813    2.2954   -0.1941 H   0  0  0  0  0  0  0  0  0  0  0  0
   -1.0129    1.2064    1.1459 H   0  0  0  0  0  0  0  0  0  0  0  0
  1  2  1  0
  2  3  3  0
  3  4  1  0
  4  5  1  0
  4  6  1  0
  6  7  1  0
  7  8  1  0
  8  9  1  0
  7  4  1  0
  1 10  1  0
  1 11  1  0
  1 12  1  0
  5 13  1  0
  5 14  1  0
  5 15  1  0
  6 16  1  0
  6 17  1  0
  7 18  1  0
  8 19  1  0
  8 20  1  0
  9 21  1  0
  9 22  1  0
  9 23  1  0
M  END
