
     RDKit          3D

 17 17  0  0  0  0  0  0  0  0999 V2000
    3.3187   -0.0005   -0.1040 C   0  0  0  0  0  0  0  0  0  0  0  0
    1.8575    0.1680   -0.0482 C   0  0  0  0  0  0  0  0  0  0  0  0
    0.6581    0.2951   -0.0104 C   0  0  0  0  0  0  0  0  0  0  0  0
   -0.7868    0.4657    0.0209 C   0  0  0  0  0  0  0  0  0  0  0  0
   -1.2357    1.7355    0.3456 O   0  0  0  0  0  0  0  0  0  0  0  0
   -1.4506   -0.6306    0.8648 C   0  0  0  0  0  0  0  0  0  0  0  0
   -2.4904   -0.7140   -0.1935 C   0  0  0  0  0  0  0  0  0  0  0  0
   -3.6477   -1.0709   -0.2307 O   0  0  0  0  0  0  0  0  0  0  0  0
   -1.4913   -0.1764   -1.1529 C   0  0  0  0  0  0  0  0  0  0  0  0
    3.4831   -1.1114   -0.2132 H   0  0  0  0  0  0  0  0  0  0  0  0
    3.8208    0.4057    0.7890 H   0  0  0  0  0  0  0  0  0  0  0  0
    3.7297    0.5412   -0.9876 H   0  0  0  0  0  0  0  0  0  0  0  0
   -0.4391    2.2978    0.4819 H   0  0  0  0  0  0  0  0  0  0  0  0
   -1.7813   -0.2315    1.8337 H   0  0  0  0  0  0  0  0  0  0  0  0
   -0.8421   -1.5567    0.9019 H   0  0  0  0  0  0  0  0  0  0  0  0
   -0.8160   -0.9462   -1.6041 H   0  0  0  0  0  0  0  0  0  0  0  0
   -1.8868    0.5294   -1.9056 H   0  0  0  0  0  0  0  0  0  0  0  0
  1  2  1  0
  2  3  3  0
  3  4  1  0
  4  5  1  0
  4  6  1  0
  6  7  1  0
  7  8  2  0
  7  9  1  0
  9  4  1  0
  1 10  1  0
  1 11  1  0
  1 12  1  0
  5 13  1  0
  6 14  1  0
  6 15  1  0
  9 16  1  0
  9 17  1  0
M  END
