
     RDKit          3D

 23 23  0  0  0  0  0  0  0  0999 V2000
    2.2189    2.9666    2.1246 C   0  0  0  0  0  0  0  0  0  0  0  0
    1.3905    1.6555    1.3164 C   0  0  0  0  0  0  0  0  0  0  0  0
    0.7842    0.6734    0.6929 C   0  0  0  0  0  0  0  0  0  0  0  0
    0.1958   -0.2400    0.1068 C   0  0  0  0  0  0  0  0  0  0  0  0
    0.2590   -1.4974    1.0160 C   0  0  0  0  0  0  0  0  0  0  0  0
   -0.8615   -0.0963   -0.8452 C   0  0  0  0  0  0  0  0  0  0  0  0
   -1.3540   -1.5292   -1.3045 C   0  0  0  0  0  0  0  0  0  0  0  0
   -1.8428   -0.6636   -2.5075 C   0  0  0  0  0  0  0  0  0  0  0  0
   -0.5159    0.0229   -2.3574 C   0  0  0  0  0  0  0  0  0  0  0  0
    2.3486    2.2568    3.0971 H   0  0  0  0  0  0  0  0  0  0  0  0
    1.3962    3.5666    2.2805 H   0  0  0  0  0  0  0  0  0  0  0  0
    3.0690    2.8450    1.5984 H   0  0  0  0  0  0  0  0  0  0  0  0
    1.1728   -0.6441   -0.6839 H   0  0  0  0  0  0  0  0  0  0  0  0
    1.3392   -1.8062    0.9893 H   0  0  0  0  0  0  0  0  0  0  0  0
   -0.4081   -2.2800    0.8045 H   0  0  0  0  0  0  0  0  0  0  0  0
    0.0778   -1.1608    2.0920 H   0  0  0  0  0  0  0  0  0  0  0  0
   -1.6621    0.5652   -0.5710 H   0  0  0  0  0  0  0  0  0  0  0  0
   -0.4681   -2.0726   -1.5326 H   0  0  0  0  0  0  0  0  0  0  0  0
   -2.1461   -1.9092   -0.6906 H   0  0  0  0  0  0  0  0  0  0  0  0
   -2.1478   -1.1761   -3.3982 H   0  0  0  0  0  0  0  0  0  0  0  0
   -2.6659    0.0540   -2.0983 H   0  0  0  0  0  0  0  0  0  0  0  0
    0.3040   -0.6285   -2.6810 H   0  0  0  0  0  0  0  0  0  0  0  0
   -0.4836    1.0983   -2.6454 H   0  0  0  0  0  0  0  0  0  0  0  0
  1  2  1  0
  2  3  3  0
  3  4  1  0
  4  5  1  0
  4  6  1  0
  6  7  1  0
  7  8  1  0
  8  9  1  0
  9  6  1  0
  1 10  1  0
  1 11  1  0
  1 12  1  0
  4 13  1  0
  5 14  1  0
  5 15  1  0
  5 16  1  0
  6 17  1  0
  7 18  1  0
  7 19  1  0
  8 20  1  0
  8 21  1  0
  9 22  1  0
  9 23  1  0
M  END
