
     RDKit          3D

 16 15  0  0  0  0  0  0  0  0999 V2000
    4.0809    1.6200    1.9215 C   0  0  0  0  0  0  0  0  0  0  0  0
    2.7222    1.2480    1.3484 C   0  0  0  0  0  0  0  0  0  0  0  0
    1.6328    0.9348    0.8955 C   0  0  0  0  0  0  0  0  0  0  0  0
    0.4199    0.5640    0.3945 C   0  0  0  0  0  0  0  0  0  0  0  0
   -0.8169    0.1744   -0.0965 C   0  0  0  0  0  0  0  0  0  0  0  0
   -1.7320   -0.1166   -0.4450 C   0  0  0  0  0  0  0  0  0  0  0  0
   -1.6994   -1.6403   -0.8392 O   0  0  0  0  0  0  0  0  0  0  0  0
   -2.9101   -1.8940   -1.4152 C   0  0  0  0  0  0  0  0  0  0  0  0
    3.9269    2.0623    2.9744 H   0  0  0  0  0  0  0  0  0  0  0  0
    4.4527    2.4773    1.3291 H   0  0  0  0  0  0  0  0  0  0  0  0
    4.7220    0.7549    1.9930 H   0  0  0  0  0  0  0  0  0  0  0  0
   -2.1907    0.1187   -1.6334 H   0  0  0  0  0  0  0  0  0  0  0  0
   -2.7811   -0.1419    0.0463 H   0  0  0  0  0  0  0  0  0  0  0  0
   -2.8187   -2.9417   -1.8635 H   0  0  0  0  0  0  0  0  0  0  0  0
   -3.7777   -1.9762   -0.7260 H   0  0  0  0  0  0  0  0  0  0  0  0
   -3.2309   -1.2435   -2.2602 H   0  0  0  0  0  0  0  0  0  0  0  0
  1  2  1  0
  2  3  3  0
  3  4  1  0
  4  5  3  0
  5  6  1  0
  6  7  1  0
  7  8  1  0
  1  9  1  0
  1 10  1  0
  1 11  1  0
  6 12  1  0
  6 13  1  0
  8 14  1  0
  8 15  1  0
  8 16  1  0
M  END
