
     RDKit          3D

 23 22  0  0  0  0  0  0  0  0999 V2000
    3.2740    1.2276    0.0532 C   0  0  0  0  0  0  0  0  0  0  0  0
    1.9481    0.6288    0.2514 C   0  0  0  0  0  0  0  0  0  0  0  0
    0.8605    0.1328    0.4100 C   0  0  0  0  0  0  0  0  0  0  0  0
   -0.4756   -0.4964    0.5870 C   0  0  0  0  0  0  0  0  0  0  0  0
   -0.6805   -0.7494    2.1056 C   0  0  0  0  0  0  0  0  0  0  0  0
   -1.4907    0.5142    0.2137 C   0  0  0  0  0  0  0  0  0  0  0  0
   -1.4350    1.0539   -1.1695 C   0  0  0  0  0  0  0  0  0  0  0  0
   -0.6145   -1.6980   -0.0096 O   0  0  0  0  0  0  0  0  0  0  0  0
   -0.4613   -1.8134   -1.3531 C   0  0  0  0  0  0  0  0  0  0  0  0
    3.7101    0.7516   -0.8448 H   0  0  0  0  0  0  0  0  0  0  0  0
    3.1990    2.3379   -0.0446 H   0  0  0  0  0  0  0  0  0  0  0  0
    3.9452    1.0407    0.9170 H   0  0  0  0  0  0  0  0  0  0  0  0
    0.3328   -0.8609    2.5505 H   0  0  0  0  0  0  0  0  0  0  0  0
   -1.1407    0.1352    2.5779 H   0  0  0  0  0  0  0  0  0  0  0  0
   -1.2133   -1.6865    2.2778 H   0  0  0  0  0  0  0  0  0  0  0  0
   -1.5016    1.3375    0.9686 H   0  0  0  0  0  0  0  0  0  0  0  0
   -2.4978    0.0293    0.3399 H   0  0  0  0  0  0  0  0  0  0  0  0
   -1.4813    2.1864   -1.0899 H   0  0  0  0  0  0  0  0  0  0  0  0
   -0.4895    0.8743   -1.7106 H   0  0  0  0  0  0  0  0  0  0  0  0
   -2.3366    0.8188   -1.7918 H   0  0  0  0  0  0  0  0  0  0  0  0
   -0.6008   -2.9135   -1.5946 H   0  0  0  0  0  0  0  0  0  0  0  0
    0.4923   -1.5222   -1.7813 H   0  0  0  0  0  0  0  0  0  0  0  0
   -1.3426   -1.3288   -1.8632 H   0  0  0  0  0  0  0  0  0  0  0  0
  1  2  1  0
  2  3  3  0
  3  4  1  0
  4  5  1  0
  4  6  1  0
  6  7  1  0
  4  8  1  0
  8  9  1  0
  1 10  1  0
  1 11  1  0
  1 12  1  0
  5 13  1  0
  5 14  1  0
  5 15  1  0
  6 16  1  0
  6 17  1  0
  7 18  1  0
  7 19  1  0
  7 20  1  0
  9 21  1  0
  9 22  1  0
  9 23  1  0
M  END
