
     RDKit          3D

 23 23  0  0  0  0  0  0  0  0999 V2000
    4.0688   -0.6423    0.6522 C   0  0  0  0  0  0  0  0  0  0  0  0
    2.6163   -0.7994    0.7514 C   0  0  0  0  0  0  0  0  0  0  0  0
    1.4016   -0.9111    0.8384 C   0  0  0  0  0  0  0  0  0  0  0  0
   -0.0523   -1.0601    0.9271 C   0  0  0  0  0  0  0  0  0  0  0  0
   -0.6498    0.3228    0.7734 C   0  0  0  0  0  0  0  0  0  0  0  0
   -0.2136    0.8447   -0.5942 C   0  0  0  0  0  0  0  0  0  0  0  0
   -1.3694    0.5187   -1.5233 C   0  0  0  0  0  0  0  0  0  0  0  0
   -2.5605    0.7917   -0.6363 C   0  0  0  0  0  0  0  0  0  0  0  0
   -2.1405    0.1713    0.6775 C   0  0  0  0  0  0  0  0  0  0  0  0
    4.3345    0.4287    0.4939 H   0  0  0  0  0  0  0  0  0  0  0  0
    4.5764   -0.9382    1.6167 H   0  0  0  0  0  0  0  0  0  0  0  0
    4.4945   -1.3066   -0.1154 H   0  0  0  0  0  0  0  0  0  0  0  0
   -0.4109   -1.6430    0.0286 H   0  0  0  0  0  0  0  0  0  0  0  0
   -0.3660   -1.5439    1.8752 H   0  0  0  0  0  0  0  0  0  0  0  0
   -0.3222    1.0061    1.5726 H   0  0  0  0  0  0  0  0  0  0  0  0
    0.6968    0.3447   -0.9441 H   0  0  0  0  0  0  0  0  0  0  0  0
   -0.0484    1.9342   -0.5688 H   0  0  0  0  0  0  0  0  0  0  0  0
   -1.3144    1.2003   -2.3871 H   0  0  0  0  0  0  0  0  0  0  0  0
   -1.3870   -0.5388   -1.8101 H   0  0  0  0  0  0  0  0  0  0  0  0
   -3.4165    0.2012   -1.0251 H   0  0  0  0  0  0  0  0  0  0  0  0
   -2.7928    1.8713   -0.5469 H   0  0  0  0  0  0  0  0  0  0  0  0
   -2.4574   -0.9029    0.6931 H   0  0  0  0  0  0  0  0  0  0  0  0
   -2.6871    0.6506    1.5177 H   0  0  0  0  0  0  0  0  0  0  0  0
  1  2  1  0
  2  3  3  0
  3  4  1  0
  4  5  1  0
  5  6  1  0
  6  7  1  0
  7  8  1  0
  8  9  1  0
  9  5  1  0
  1 10  1  0
  1 11  1  0
  1 12  1  0
  4 13  1  0
  4 14  1  0
  5 15  1  0
  6 16  1  0
  6 17  1  0
  7 18  1  0
  7 19  1  0
  8 20  1  0
  8 21  1  0
  9 22  1  0
  9 23  1  0
M  END
