
     RDKit          3D

 21 21  0  0  0  0  0  0  0  0999 V2000
    3.5838    0.8288    1.6171 C   0  0  0  0  0  0  0  0  0  0  0  0
    2.3044    0.6877    0.9047 C   0  0  0  0  0  0  0  0  0  0  0  0
    1.2602    0.5537    0.3141 C   0  0  0  0  0  0  0  0  0  0  0  0
   -0.0062    0.4098   -0.3872 C   0  0  0  0  0  0  0  0  0  0  0  0
   -0.1978    0.7825   -1.6376 C   0  0  0  0  0  0  0  0  0  0  0  0
   -1.5933    0.4951   -2.0345 C   0  0  0  0  0  0  0  0  0  0  0  0
   -2.0407   -0.5314   -1.0554 C   0  0  0  0  0  0  0  0  0  0  0  0
   -1.2226   -0.1689    0.1955 C   0  0  0  0  0  0  0  0  0  0  0  0
   -0.9800   -1.4758    0.9162 C   0  0  0  0  0  0  0  0  0  0  0  0
    3.4794    0.7863    2.7031 H   0  0  0  0  0  0  0  0  0  0  0  0
    3.9935    1.8283    1.2908 H   0  0  0  0  0  0  0  0  0  0  0  0
    4.2847    0.0044    1.3046 H   0  0  0  0  0  0  0  0  0  0  0  0
    0.5912    1.2409   -2.2714 H   0  0  0  0  0  0  0  0  0  0  0  0
   -1.6207    0.1487   -3.0856 H   0  0  0  0  0  0  0  0  0  0  0  0
   -2.2627    1.3904   -1.9085 H   0  0  0  0  0  0  0  0  0  0  0  0
   -1.7832   -1.5431   -1.3998 H   0  0  0  0  0  0  0  0  0  0  0  0
   -3.1139   -0.4841   -0.8015 H   0  0  0  0  0  0  0  0  0  0  0  0
   -1.8116    0.5023    0.8152 H   0  0  0  0  0  0  0  0  0  0  0  0
   -0.5660   -1.3580    1.9171 H   0  0  0  0  0  0  0  0  0  0  0  0
   -1.9735   -2.0114    0.9111 H   0  0  0  0  0  0  0  0  0  0  0  0
   -0.3249   -2.0863    0.2380 H   0  0  0  0  0  0  0  0  0  0  0  0
  1  2  1  0
  2  3  3  0
  3  4  1  0
  4  5  2  0
  5  6  1  0
  6  7  1  0
  7  8  1  0
  8  9  1  0
  8  4  1  0
  1 10  1  0
  1 11  1  0
  1 12  1  0
  5 13  1  0
  6 14  1  0
  6 15  1  0
  7 16  1  0
  7 17  1  0
  8 18  1  0
  9 19  1  0
  9 20  1  0
  9 21  1  0
M  END
