
     RDKit          3D

 13 12  0  0  0  0  0  0  0  0999 V2000
   -2.2534    0.1306    2.0423 C   0  0  0  0  0  0  0  0  0  0  0  0
   -1.0897    0.2615    1.1579 C   0  0  0  0  0  0  0  0  0  0  0  0
   -0.1292    0.3834    0.4143 C   0  0  0  0  0  0  0  0  0  0  0  0
    1.0115    0.5266   -0.4437 C   0  0  0  0  0  0  0  0  0  0  0  0
    1.7333    1.5246   -0.3075 O   0  0  0  0  0  0  0  0  0  0  0  0
    1.3555   -0.4781   -1.4867 C   0  0  0  0  0  0  0  0  0  0  0  0
    2.5001   -0.0956   -2.1694 O   0  0  0  0  0  0  0  0  0  0  0  0
   -2.9165    1.0046    1.8280 H   0  0  0  0  0  0  0  0  0  0  0  0
   -2.8292   -0.7743    1.8478 H   0  0  0  0  0  0  0  0  0  0  0  0
   -1.9760    0.2020    3.1084 H   0  0  0  0  0  0  0  0  0  0  0  0
    0.4800   -0.5534   -2.1549 H   0  0  0  0  0  0  0  0  0  0  0  0
    1.5519   -1.4463   -0.9580 H   0  0  0  0  0  0  0  0  0  0  0  0
    2.5619   -0.6857   -2.9716 H   0  0  0  0  0  0  0  0  0  0  0  0
  1  2  1  0
  2  3  3  0
  3  4  1  0
  4  5  2  0
  4  6  1  0
  6  7  1  0
  1  8  1  0
  1  9  1  0
  1 10  1  0
  6 11  1  0
  6 12  1  0
  7 13  1  0
M  END
