
     RDKit          3D

 17 18  0  0  0  0  0  0  0  0999 V2000
    3.2351   -0.7099   -1.0490 C   0  0  0  0  0  0  0  0  0  0  0  0
    1.9017   -0.2886   -0.6142 C   0  0  0  0  0  0  0  0  0  0  0  0
    0.7945    0.0833   -0.2475 C   0  0  0  0  0  0  0  0  0  0  0  0
   -0.5205    0.5222    0.2123 C   0  0  0  0  0  0  0  0  0  0  0  0
   -0.6977    0.9329    1.6467 C   0  0  0  0  0  0  0  0  0  0  0  0
   -1.2956   -0.3271    1.1198 C   0  0  0  0  0  0  0  0  0  0  0  0
   -2.6111   -0.1882    0.6494 O   0  0  0  0  0  0  0  0  0  0  0  0
   -2.4753    0.1852   -0.6888 C   0  0  0  0  0  0  0  0  0  0  0  0
   -1.3677    1.0204   -0.7602 O   0  0  0  0  0  0  0  0  0  0  0  0
    3.1237   -1.0731   -2.0943 H   0  0  0  0  0  0  0  0  0  0  0  0
    3.6144   -1.5661   -0.4436 H   0  0  0  0  0  0  0  0  0  0  0  0
    3.9576    0.1110   -0.9643 H   0  0  0  0  0  0  0  0  0  0  0  0
   -1.3217    1.8069    1.8916 H   0  0  0  0  0  0  0  0  0  0  0  0
    0.2489    0.8916    2.2332 H   0  0  0  0  0  0  0  0  0  0  0  0
   -0.9398   -1.3105    1.4338 H   0  0  0  0  0  0  0  0  0  0  0  0
   -3.4006    0.6560   -1.0636 H   0  0  0  0  0  0  0  0  0  0  0  0
   -2.2461   -0.7461   -1.2612 H   0  0  0  0  0  0  0  0  0  0  0  0
  1  2  1  0
  2  3  3  0
  3  4  1  0
  4  5  1  0
  5  6  1  0
  6  7  1  0
  7  8  1  0
  8  9  1  0
  6  4  1  0
  9  4  1  0
  1 10  1  0
  1 11  1  0
  1 12  1  0
  5 13  1  0
  5 14  1  0
  6 15  1  0
  8 16  1  0
  8 17  1  0
M  END
