
     RDKit          3D

 19 20  0  0  0  0  0  0  0  0999 V2000
    2.0845    1.1784    2.8715 C   0  0  0  0  0  0  0  0  0  0  0  0
    1.2974    0.4746    1.8709 C   0  0  0  0  0  0  0  0  0  0  0  0
    0.5168   -0.2519    0.8814 C   0  0  0  0  0  0  0  0  0  0  0  0
   -0.1407   -0.8678    0.0747 C   0  0  0  0  0  0  0  0  0  0  0  0
    0.7412   -1.1893   -1.2524 C   0  0  0  0  0  0  0  0  0  0  0  0
    0.4928    0.1526   -1.6329 O   0  0  0  0  0  0  0  0  0  0  0  0
   -0.6964   -0.0115   -1.0658 C   0  0  0  0  0  0  0  0  0  0  0  0
   -1.8391    0.8252   -1.0214 C   0  0  0  0  0  0  0  0  0  0  0  0
   -1.9624   -0.4540   -1.7150 C   0  0  0  0  0  0  0  0  0  0  0  0
    3.1787    0.9204    2.5934 H   0  0  0  0  0  0  0  0  0  0  0  0
    1.9393    2.2743    2.6325 H   0  0  0  0  0  0  0  0  0  0  0  0
    1.8951    0.9354    3.8969 H   0  0  0  0  0  0  0  0  0  0  0  0
   -0.8064   -1.7604    0.2945 H   0  0  0  0  0  0  0  0  0  0  0  0
    0.2256   -1.9608   -1.8222 H   0  0  0  0  0  0  0  0  0  0  0  0
    1.7972   -1.2980   -0.9149 H   0  0  0  0  0  0  0  0  0  0  0  0
   -2.2824    0.9952    0.0131 H   0  0  0  0  0  0  0  0  0  0  0  0
   -1.9160    1.8048   -1.5645 H   0  0  0  0  0  0  0  0  0  0  0  0
   -2.5982   -1.2383   -1.3101 H   0  0  0  0  0  0  0  0  0  0  0  0
   -1.9271   -0.5288   -2.8297 H   0  0  0  0  0  0  0  0  0  0  0  0
  1  2  1  0
  2  3  3  0
  3  4  1  0
  4  5  1  0
  5  6  1  0
  6  7  1  0
  7  8  1  0
  8  9  1  0
  7  4  1  0
  9  7  1  0
  1 10  1  0
  1 11  1  0
  1 12  1  0
  4 13  1  0
  5 14  1  0
  5 15  1  0
  8 16  1  0
  8 17  1  0
  9 18  1  0
  9 19  1  0
M  END
