
     RDKit          3D

 15 14  0  0  0  0  0  0  0  0999 V2000
    3.0145    0.9797   -0.7318 C   0  0  0  0  0  0  0  0  0  0  0  0
    1.5755    0.7468   -0.7574 C   0  0  0  0  0  0  0  0  0  0  0  0
    0.3642    0.5395   -0.7606 C   0  0  0  0  0  0  0  0  0  0  0  0
   -1.0380    0.2746   -0.7651 C   0  0  0  0  0  0  0  0  0  0  0  0
   -1.5534    0.0789   -1.9081 O   0  0  0  0  0  0  0  0  0  0  0  0
   -1.8061    0.2359    0.5022 C   0  0  0  0  0  0  0  0  0  0  0  0
   -1.6080   -1.1027    1.1521 C   0  0  0  0  0  0  0  0  0  0  0  0
    3.2980    1.0864    0.3532 H   0  0  0  0  0  0  0  0  0  0  0  0
    3.5104    0.0782   -1.1785 H   0  0  0  0  0  0  0  0  0  0  0  0
    3.3138    1.9067   -1.2183 H   0  0  0  0  0  0  0  0  0  0  0  0
   -1.4286    1.0528    1.1447 H   0  0  0  0  0  0  0  0  0  0  0  0
   -2.8845    0.4232    0.2577 H   0  0  0  0  0  0  0  0  0  0  0  0
   -2.6175   -1.5499    1.3149 H   0  0  0  0  0  0  0  0  0  0  0  0
   -1.0837   -0.9765    2.1415 H   0  0  0  0  0  0  0  0  0  0  0  0
   -1.0566   -1.7580    0.4534 H   0  0  0  0  0  0  0  0  0  0  0  0
  1  2  1  0
  2  3  3  0
  3  4  1  0
  4  5  2  0
  4  6  1  0
  6  7  1  0
  1  8  1  0
  1  9  1  0
  1 10  1  0
  6 11  1  0
  6 12  1  0
  7 13  1  0
  7 14  1  0
  7 15  1  0
M  END
