
     RDKit          3D

 23 23  0  0  0  0  0  0  0  0999 V2000
    3.0188    0.8343   -2.8799 C   0  0  0  0  0  0  0  0  0  0  0  0
    2.0763    0.9541   -1.7550 C   0  0  0  0  0  0  0  0  0  0  0  0
    1.2853    1.0647   -0.8384 C   0  0  0  0  0  0  0  0  0  0  0  0
    0.3135    1.1925    0.2495 C   0  0  0  0  0  0  0  0  0  0  0  0
    0.5834    0.4498    1.5410 C   0  0  0  0  0  0  0  0  0  0  0  0
   -0.4819   -0.0136    0.5367 C   0  0  0  0  0  0  0  0  0  0  0  0
   -0.1769   -1.3448   -0.0929 C   0  0  0  0  0  0  0  0  0  0  0  0
   -1.9194    0.1991    0.9216 C   0  0  0  0  0  0  0  0  0  0  0  0
   -2.6575   -1.0799    1.1971 C   0  0  0  0  0  0  0  0  0  0  0  0
    3.5740   -0.1128   -2.8489 H   0  0  0  0  0  0  0  0  0  0  0  0
    2.5030    0.9653   -3.8506 H   0  0  0  0  0  0  0  0  0  0  0  0
    3.7850    1.6523   -2.8365 H   0  0  0  0  0  0  0  0  0  0  0  0
   -0.1728    2.1776    0.4094 H   0  0  0  0  0  0  0  0  0  0  0  0
    1.5410   -0.1130    1.5728 H   0  0  0  0  0  0  0  0  0  0  0  0
    0.1991    0.8709    2.4927 H   0  0  0  0  0  0  0  0  0  0  0  0
    0.9134   -1.5585   -0.1549 H   0  0  0  0  0  0  0  0  0  0  0  0
   -0.5877   -2.1298    0.5938 H   0  0  0  0  0  0  0  0  0  0  0  0
   -0.6967   -1.4798   -1.0665 H   0  0  0  0  0  0  0  0  0  0  0  0
   -1.9992    0.9025    1.7750 H   0  0  0  0  0  0  0  0  0  0  0  0
   -2.4420    0.6961    0.0585 H   0  0  0  0  0  0  0  0  0  0  0  0
   -2.3387   -1.5863    2.1149 H   0  0  0  0  0  0  0  0  0  0  0  0
   -3.7523   -0.8086    1.2426 H   0  0  0  0  0  0  0  0  0  0  0  0
   -2.5676   -1.7319    0.3008 H   0  0  0  0  0  0  0  0  0  0  0  0
  1  2  1  0
  2  3  3  0
  3  4  1  0
  4  5  1  0
  5  6  1  0
  6  7  1  0
  6  8  1  0
  8  9  1  0
  6  4  1  0
  1 10  1  0
  1 11  1  0
  1 12  1  0
  4 13  1  0
  5 14  1  0
  5 15  1  0
  7 16  1  0
  7 17  1  0
  7 18  1  0
  8 19  1  0
  8 20  1  0
  9 21  1  0
  9 22  1  0
  9 23  1  0
M  END
