
     RDKit          3D

 19 20  0  0  0  0  0  0  0  0999 V2000
    3.7247   -0.3327    0.2751 C   0  0  0  0  0  0  0  0  0  0  0  0
    2.3205   -0.5418   -0.0691 C   0  0  0  0  0  0  0  0  0  0  0  0
    1.1627   -0.7348   -0.3500 C   0  0  0  0  0  0  0  0  0  0  0  0
   -0.2604   -0.9483   -0.7055 C   0  0  0  0  0  0  0  0  0  0  0  0
   -1.0648    0.0658   -0.2202 C   0  0  0  0  0  0  0  0  0  0  0  0
   -2.5195    0.2389   -0.3476 C   0  0  0  0  0  0  0  0  0  0  0  0
   -1.9991    1.4087    0.4241 C   0  0  0  0  0  0  0  0  0  0  0  0
   -1.2007    0.4360    1.2374 C   0  0  0  0  0  0  0  0  0  0  0  0
   -0.9248    1.4190   -0.4589 O   0  0  0  0  0  0  0  0  0  0  0  0
    4.2997   -0.1545   -0.6528 H   0  0  0  0  0  0  0  0  0  0  0  0
    4.1166   -1.2600    0.7603 H   0  0  0  0  0  0  0  0  0  0  0  0
    3.8581    0.5660    0.9281 H   0  0  0  0  0  0  0  0  0  0  0  0
   -0.3232   -1.1054   -1.7809 H   0  0  0  0  0  0  0  0  0  0  0  0
   -0.5104   -1.9403   -0.2319 H   0  0  0  0  0  0  0  0  0  0  0  0
   -2.9543    0.5070   -1.3103 H   0  0  0  0  0  0  0  0  0  0  0  0
   -3.1769   -0.4577    0.2087 H   0  0  0  0  0  0  0  0  0  0  0  0
   -2.5138    2.2065    0.7576 H   0  0  0  0  0  0  0  0  0  0  0  0
   -0.2797    0.8873    1.6616 H   0  0  0  0  0  0  0  0  0  0  0  0
   -1.7547   -0.2596    1.8648 H   0  0  0  0  0  0  0  0  0  0  0  0
  1  2  1  0
  2  3  3  0
  3  4  1  0
  4  5  1  0
  5  6  1  0
  6  7  1  0
  7  8  1  0
  7  9  1  0
  8  5  1  0
  9  5  1  0
  1 10  1  0
  1 11  1  0
  1 12  1  0
  4 13  1  0
  4 14  1  0
  6 15  1  0
  6 16  1  0
  7 17  1  0
  8 18  1  0
  8 19  1  0
M  END
