
     RDKit          3D

 16 15  0  0  0  0  0  0  0  0999 V2000
    2.9426   -0.8995   -0.4426 C   0  0  0  0  0  0  0  0  0  0  0  0
    1.6020   -0.3574   -0.1540 C   0  0  0  0  0  0  0  0  0  0  0  0
    0.5185    0.0977    0.0926 C   0  0  0  0  0  0  0  0  0  0  0  0
   -0.8080    0.6322    0.4072 C   0  0  0  0  0  0  0  0  0  0  0  0
   -1.4644    1.0655   -0.8629 C   0  0  0  0  0  0  0  0  0  0  0  0
   -1.6105   -0.4288    1.1383 C   0  0  0  0  0  0  0  0  0  0  0  0
    3.0103   -1.9562   -0.1105 H   0  0  0  0  0  0  0  0  0  0  0  0
    3.0558   -0.9064   -1.5388 H   0  0  0  0  0  0  0  0  0  0  0  0
    3.7383   -0.2734   -0.0143 H   0  0  0  0  0  0  0  0  0  0  0  0
   -0.7470    1.5032    1.0934 H   0  0  0  0  0  0  0  0  0  0  0  0
   -1.3508    2.1837   -0.9696 H   0  0  0  0  0  0  0  0  0  0  0  0
   -2.5561    0.8656   -0.8761 H   0  0  0  0  0  0  0  0  0  0  0  0
   -0.9375    0.6370   -1.7321 H   0  0  0  0  0  0  0  0  0  0  0  0
   -1.4382   -0.3547    2.2385 H   0  0  0  0  0  0  0  0  0  0  0  0
   -1.2690   -1.4410    0.8384 H   0  0  0  0  0  0  0  0  0  0  0  0
   -2.6860   -0.3675    0.8927 H   0  0  0  0  0  0  0  0  0  0  0  0
  1  2  1  0
  2  3  3  0
  3  4  1  0
  4  5  1  0
  4  6  1  0
  1  7  1  0
  1  8  1  0
  1  9  1  0
  4 10  1  0
  5 11  1  0
  5 12  1  0
  5 13  1  0
  6 14  1  0
  6 15  1  0
  6 16  1  0
M  END
