
     RDKit          3D

 19 20  0  0  0  0  0  0  0  0999 V2000
    3.3643    0.2708    2.0115 C   0  0  0  0  0  0  0  0  0  0  0  0
    1.9636    0.1918    1.5976 C   0  0  0  0  0  0  0  0  0  0  0  0
    0.7921    0.1212    1.2728 C   0  0  0  0  0  0  0  0  0  0  0  0
   -0.6284    0.0568    0.8641 C   0  0  0  0  0  0  0  0  0  0  0  0
   -1.0621   -0.8430   -0.1120 C   0  0  0  0  0  0  0  0  0  0  0  0
   -2.1887   -1.0526   -0.9903 C   0  0  0  0  0  0  0  0  0  0  0  0
   -2.0296   -0.2401   -2.0262 C   0  0  0  0  0  0  0  0  0  0  0  0
   -0.7363    0.5282   -1.7859 C   0  0  0  0  0  0  0  0  0  0  0  0
   -0.9901    0.7084   -0.3124 C   0  0  0  0  0  0  0  0  0  0  0  0
    3.5546   -0.2914    2.9458 H   0  0  0  0  0  0  0  0  0  0  0  0
    3.9661   -0.2313    1.2119 H   0  0  0  0  0  0  0  0  0  0  0  0
    3.7288    1.3204    2.0506 H   0  0  0  0  0  0  0  0  0  0  0  0
   -1.2703    0.1474    1.7912 H   0  0  0  0  0  0  0  0  0  0  0  0
   -0.1929   -1.4395   -0.5606 H   0  0  0  0  0  0  0  0  0  0  0  0
   -3.0274   -1.7612   -0.8254 H   0  0  0  0  0  0  0  0  0  0  0  0
   -2.6713   -0.1349   -2.8672 H   0  0  0  0  0  0  0  0  0  0  0  0
    0.1424   -0.1097   -2.0084 H   0  0  0  0  0  0  0  0  0  0  0  0
   -0.7399    1.4874   -2.3228 H   0  0  0  0  0  0  0  0  0  0  0  0
   -1.9748    1.2713   -0.2454 H   0  0  0  0  0  0  0  0  0  0  0  0
  1  2  1  0
  2  3  3  0
  3  4  1  0
  4  5  1  0
  5  6  1  0
  6  7  2  0
  7  8  1  0
  8  9  1  0
  9  4  1  0
  9  5  1  0
  1 10  1  0
  1 11  1  0
  1 12  1  0
  4 13  1  0
  5 14  1  0
  6 15  1  0
  7 16  1  0
  8 17  1  0
  8 18  1  0
  9 19  1  0
M  END
