
     RDKit          3D

 20 19  0  0  0  0  0  0  0  0999 V2000
   -3.5136   -0.4371    2.2620 C   0  0  0  0  0  0  0  0  0  0  0  0
   -2.1703   -0.1141    1.7767 C   0  0  0  0  0  0  0  0  0  0  0  0
   -1.0661    0.1726    1.3717 C   0  0  0  0  0  0  0  0  0  0  0  0
    0.2826    0.5002    0.8930 C   0  0  0  0  0  0  0  0  0  0  0  0
    0.4526   -0.1851   -0.4470 C   0  0  0  0  0  0  0  0  0  0  0  0
    1.8482    0.1574   -0.9353 C   0  0  0  0  0  0  0  0  0  0  0  0
    2.0808   -0.4919   -2.2605 C   0  0  0  0  0  0  0  0  0  0  0  0
    1.9590    1.5472   -1.0840 O   0  0  0  0  0  0  0  0  0  0  0  0
   -4.1942   -0.4266    1.4022 H   0  0  0  0  0  0  0  0  0  0  0  0
   -3.8459    0.2852    3.0615 H   0  0  0  0  0  0  0  0  0  0  0  0
   -3.4931   -1.4398    2.7715 H   0  0  0  0  0  0  0  0  0  0  0  0
    1.0699    0.0955    1.5629 H   0  0  0  0  0  0  0  0  0  0  0  0
    0.3286    1.5943    0.8049 H   0  0  0  0  0  0  0  0  0  0  0  0
   -0.2511    0.2407   -1.2095 H   0  0  0  0  0  0  0  0  0  0  0  0
    0.3512   -1.2701   -0.3593 H   0  0  0  0  0  0  0  0  0  0  0  0
    2.6202   -0.1260   -0.1939 H   0  0  0  0  0  0  0  0  0  0  0  0
    2.1794    0.2804   -3.0567 H   0  0  0  0  0  0  0  0  0  0  0  0
    1.2571   -1.1961   -2.4818 H   0  0  0  0  0  0  0  0  0  0  0  0
    3.0116   -1.1065   -2.1824 H   0  0  0  0  0  0  0  0  0  0  0  0
    1.0931    1.9200   -1.4002 H   0  0  0  0  0  0  0  0  0  0  0  0
  1  2  1  0
  2  3  3  0
  3  4  1  0
  4  5  1  0
  5  6  1  0
  6  7  1  0
  6  8  1  0
  1  9  1  0
  1 10  1  0
  1 11  1  0
  4 12  1  0
  4 13  1  0
  5 14  1  0
  5 15  1  0
  6 16  1  0
  7 17  1  0
  7 18  1  0
  7 19  1  0
  8 20  1  0
M  END
