
     RDKit          3D

 21 22  0  0  0  0  0  0  0  0999 V2000
    3.0371    0.9291    2.4608 C   0  0  0  0  0  0  0  0  0  0  0  0
    2.0122    0.4876    1.3484 C   0  0  0  0  0  0  0  0  0  0  0  0
    1.2107    0.1190    0.4622 C   0  0  0  0  0  0  0  0  0  0  0  0
    0.3360   -0.2853   -0.4760 C   0  0  0  0  0  0  0  0  0  0  0  0
   -0.6486    0.8938   -0.9692 C   0  0  0  0  0  0  0  0  0  0  0  0
   -1.6565   -0.1597   -1.1940 C   0  0  0  0  0  0  0  0  0  0  0  0
   -2.8108   -0.1775   -0.2133 C   0  0  0  0  0  0  0  0  0  0  0  0
   -0.6012   -1.2215   -0.8170 C   0  0  0  0  0  0  0  0  0  0  0  0
    0.6396   -1.1875   -1.6295 C   0  0  0  0  0  0  0  0  0  0  0  0
    3.9588    0.3925    2.1463 H   0  0  0  0  0  0  0  0  0  0  0  0
    2.5705    0.5497    3.3693 H   0  0  0  0  0  0  0  0  0  0  0  0
    3.1113    1.9689    2.3550 H   0  0  0  0  0  0  0  0  0  0  0  0
   -0.8553    1.5475   -0.1138 H   0  0  0  0  0  0  0  0  0  0  0  0
   -0.2245    1.4272   -1.8228 H   0  0  0  0  0  0  0  0  0  0  0  0
   -1.9466   -0.2241   -2.2612 H   0  0  0  0  0  0  0  0  0  0  0  0
   -2.8294    0.8066    0.3175 H   0  0  0  0  0  0  0  0  0  0  0  0
   -2.5876   -0.9696    0.5316 H   0  0  0  0  0  0  0  0  0  0  0  0
   -3.7914   -0.2921   -0.7185 H   0  0  0  0  0  0  0  0  0  0  0  0
   -0.9526   -2.1124   -0.3064 H   0  0  0  0  0  0  0  0  0  0  0  0
    1.4830   -1.8140   -1.4791 H   0  0  0  0  0  0  0  0  0  0  0  0
    0.5450   -0.6785   -2.6450 H   0  0  0  0  0  0  0  0  0  0  0  0
  1  2  1  0
  2  3  3  0
  3  4  1  0
  4  5  1  0
  5  6  1  0
  6  7  1  0
  6  8  1  0
  8  9  1  0
  8  4  1  0
  9  4  1  0
  1 10  1  0
  1 11  1  0
  1 12  1  0
  5 13  1  0
  5 14  1  0
  6 15  1  0
  7 16  1  0
  7 17  1  0
  7 18  1  0
  8 19  1  0
  9 20  1  0
  9 21  1  0
M  END
