
     RDKit          3D

 21 21  0  0  0  0  0  0  0  0999 V2000
    3.8336    0.0455   -0.1739 C   0  0  0  0  0  0  0  0  0  0  0  0
    2.3982   -0.2153    0.0331 C   0  0  0  0  0  0  0  0  0  0  0  0
    1.2217   -0.4449    0.2147 C   0  0  0  0  0  0  0  0  0  0  0  0
   -0.2054   -0.7166    0.4290 C   0  0  0  0  0  0  0  0  0  0  0  0
   -0.4722   -2.0439    0.7781 O   0  0  0  0  0  0  0  0  0  0  0  0
   -0.9818    0.3334    1.2722 C   0  0  0  0  0  0  0  0  0  0  0  0
   -1.2277    0.1293   -0.1884 C   0  0  0  0  0  0  0  0  0  0  0  0
   -0.7710    1.1705   -1.1663 C   0  0  0  0  0  0  0  0  0  0  0  0
   -2.5987   -0.4445   -0.5011 C   0  0  0  0  0  0  0  0  0  0  0  0
    4.0548    1.1467   -0.1073 H   0  0  0  0  0  0  0  0  0  0  0  0
    4.0646   -0.2487   -1.2058 H   0  0  0  0  0  0  0  0  0  0  0  0
    4.4472   -0.4373    0.5959 H   0  0  0  0  0  0  0  0  0  0  0  0
   -0.9923   -2.0701    1.6039 H   0  0  0  0  0  0  0  0  0  0  0  0
   -0.3776    1.2491    1.5002 H   0  0  0  0  0  0  0  0  0  0  0  0
   -1.6619   -0.0639    2.0357 H   0  0  0  0  0  0  0  0  0  0  0  0
   -0.9019    2.1827   -0.7152 H   0  0  0  0  0  0  0  0  0  0  0  0
   -1.3931    1.1814   -2.0975 H   0  0  0  0  0  0  0  0  0  0  0  0
    0.2779    0.9637   -1.4536 H   0  0  0  0  0  0  0  0  0  0  0  0
   -2.4797   -1.0871   -1.3881 H   0  0  0  0  0  0  0  0  0  0  0  0
   -3.2688    0.4212   -0.6800 H   0  0  0  0  0  0  0  0  0  0  0  0
   -2.9660   -1.0512    0.3744 H   0  0  0  0  0  0  0  0  0  0  0  0
  1  2  1  0
  2  3  3  0
  3  4  1  0
  4  5  1  0
  4  6  1  0
  6  7  1  0
  7  8  1  0
  7  9  1  0
  7  4  1  0
  1 10  1  0
  1 11  1  0
  1 12  1  0
  5 13  1  0
  6 14  1  0
  6 15  1  0
  8 16  1  0
  8 17  1  0
  8 18  1  0
  9 19  1  0
  9 20  1  0
  9 21  1  0
M  END
