
     RDKit          3D

 21 21  0  0  0  0  0  0  0  0999 V2000
    4.3421   -0.1601    0.1221 C   0  0  0  0  0  0  0  0  0  0  0  0
    2.8906    0.0480    0.3485 C   0  0  0  0  0  0  0  0  0  0  0  0
    1.7081    0.2099    0.5139 C   0  0  0  0  0  0  0  0  0  0  0  0
    0.2965    0.4096    0.6886 C   0  0  0  0  0  0  0  0  0  0  0  0
   -0.4569    0.4581   -0.6486 C   0  0  0  0  0  0  0  0  0  0  0  0
   -1.8594    0.3361   -0.1319 C   0  0  0  0  0  0  0  0  0  0  0  0
   -2.8103   -0.2770   -1.1176 C   0  0  0  0  0  0  0  0  0  0  0  0
   -1.6790   -0.5361    1.0928 C   0  0  0  0  0  0  0  0  0  0  0  0
   -0.3041   -0.7099    1.2557 O   0  0  0  0  0  0  0  0  0  0  0  0
    4.9004    0.1647    1.0406 H   0  0  0  0  0  0  0  0  0  0  0  0
    4.4849   -1.2095   -0.1286 H   0  0  0  0  0  0  0  0  0  0  0  0
    4.6940    0.4599   -0.7414 H   0  0  0  0  0  0  0  0  0  0  0  0
    0.0200    1.2745    1.3147 H   0  0  0  0  0  0  0  0  0  0  0  0
   -0.2456    1.3757   -1.1968 H   0  0  0  0  0  0  0  0  0  0  0  0
   -0.1920   -0.4440   -1.2270 H   0  0  0  0  0  0  0  0  0  0  0  0
   -2.2805    1.3318    0.1624 H   0  0  0  0  0  0  0  0  0  0  0  0
   -2.7225   -1.3601   -1.2039 H   0  0  0  0  0  0  0  0  0  0  0  0
   -3.8484   -0.0304   -0.7555 H   0  0  0  0  0  0  0  0  0  0  0  0
   -2.7021    0.2542   -2.0879 H   0  0  0  0  0  0  0  0  0  0  0  0
   -2.1194   -1.5228    0.8558 H   0  0  0  0  0  0  0  0  0  0  0  0
   -2.1165   -0.0728    1.9989 H   0  0  0  0  0  0  0  0  0  0  0  0
  1  2  1  0
  2  3  3  0
  3  4  1  0
  4  5  1  0
  5  6  1  0
  6  7  1  0
  6  8  1  0
  8  9  1  0
  9  4  1  0
  1 10  1  0
  1 11  1  0
  1 12  1  0
  4 13  1  0
  5 14  1  0
  5 15  1  0
  6 16  1  0
  7 17  1  0
  7 18  1  0
  7 19  1  0
  8 20  1  0
  8 21  1  0
M  END
