
     RDKit          3D

 18 18  0  0  0  0  0  0  0  0999 V2000
    3.5345    0.1638   -0.7983 C   0  0  0  0  0  0  0  0  0  0  0  0
    2.1498   -0.0918   -0.3987 C   0  0  0  0  0  0  0  0  0  0  0  0
    0.9982   -0.2978   -0.0455 C   0  0  0  0  0  0  0  0  0  0  0  0
   -0.3598   -0.5252    0.3705 C   0  0  0  0  0  0  0  0  0  0  0  0
   -0.9184    0.7929    0.9274 C   0  0  0  0  0  0  0  0  0  0  0  0
   -2.3763    0.5312    0.7902 C   0  0  0  0  0  0  0  0  0  0  0  0
   -2.6041   -0.3376   -0.1868 C   0  0  0  0  0  0  0  0  0  0  0  0
   -1.3035   -0.7358   -0.7935 C   0  0  0  0  0  0  0  0  0  0  0  0
    3.7647   -0.4845   -1.6841 H   0  0  0  0  0  0  0  0  0  0  0  0
    3.5751    1.2328   -1.1513 H   0  0  0  0  0  0  0  0  0  0  0  0
    4.2388   -0.0153    0.0424 H   0  0  0  0  0  0  0  0  0  0  0  0
   -0.4725   -1.2824    1.1579 H   0  0  0  0  0  0  0  0  0  0  0  0
   -0.5668    1.5744    0.2099 H   0  0  0  0  0  0  0  0  0  0  0  0
   -0.5993    0.9732    1.9538 H   0  0  0  0  0  0  0  0  0  0  0  0
   -3.1421    0.9848    1.4003 H   0  0  0  0  0  0  0  0  0  0  0  0
   -3.5748   -0.7182   -0.5162 H   0  0  0  0  0  0  0  0  0  0  0  0
   -1.0405    0.0084   -1.5697 H   0  0  0  0  0  0  0  0  0  0  0  0
   -1.3031   -1.7728   -1.1633 H   0  0  0  0  0  0  0  0  0  0  0  0
  1  2  1  0
  2  3  3  0
  3  4  1  0
  4  5  1  0
  5  6  1  0
  6  7  2  0
  7  8  1  0
  8  4  1  0
  1  9  1  0
  1 10  1  0
  1 11  1  0
  4 12  1  0
  5 13  1  0
  5 14  1  0
  6 15  1  0
  7 16  1  0
  8 17  1  0
  8 18  1  0
M  END
