
     RDKit          3D

 25 24  0  0  0  0  0  0  0  0999 V2000
    5.1585    0.5302    0.2016 C   0  0  0  0  0  0  0  0  0  0  0  0
    3.7232    0.5131   -0.0873 C   0  0  0  0  0  0  0  0  0  0  0  0
    2.5378    0.5043   -0.3071 C   0  0  0  0  0  0  0  0  0  0  0  0
    1.0769    0.4711   -0.5650 C   0  0  0  0  0  0  0  0  0  0  0  0
    0.4230    0.1107    0.7322 C   0  0  0  0  0  0  0  0  0  0  0  0
   -1.0830    0.0446    0.6018 C   0  0  0  0  0  0  0  0  0  0  0  0
   -1.5266   -0.9717   -0.3967 C   0  0  0  0  0  0  0  0  0  0  0  0
   -3.0232   -1.0125   -0.5009 C   0  0  0  0  0  0  0  0  0  0  0  0
   -3.6230    0.2905   -0.9238 C   0  0  0  0  0  0  0  0  0  0  0  0
    5.3172    0.0904    1.1867 H   0  0  0  0  0  0  0  0  0  0  0  0
    5.6556   -0.0967   -0.5937 H   0  0  0  0  0  0  0  0  0  0  0  0
    5.5843    1.5701    0.1216 H   0  0  0  0  0  0  0  0  0  0  0  0
    0.7166    1.5050   -0.8388 H   0  0  0  0  0  0  0  0  0  0  0  0
    0.9029   -0.2533   -1.3614 H   0  0  0  0  0  0  0  0  0  0  0  0
    0.7778   -0.9268    0.9942 H   0  0  0  0  0  0  0  0  0  0  0  0
    0.7369    0.8073    1.5245 H   0  0  0  0  0  0  0  0  0  0  0  0
   -1.5609   -0.1573    1.5599 H   0  0  0  0  0  0  0  0  0  0  0  0
   -1.4260    1.0743    0.2935 H   0  0  0  0  0  0  0  0  0  0  0  0
   -1.0345   -0.8766   -1.3780 H   0  0  0  0  0  0  0  0  0  0  0  0
   -1.2091   -1.9786   -0.0016 H   0  0  0  0  0  0  0  0  0  0  0  0
   -3.4210   -1.2423    0.5216 H   0  0  0  0  0  0  0  0  0  0  0  0
   -3.3481   -1.8454   -1.1429 H   0  0  0  0  0  0  0  0  0  0  0  0
   -3.2355    0.6280   -1.9126 H   0  0  0  0  0  0  0  0  0  0  0  0
   -4.7151    0.1395   -1.0351 H   0  0  0  0  0  0  0  0  0  0  0  0
   -3.4049    1.0820   -0.2019 H   0  0  0  0  0  0  0  0  0  0  0  0
  1  2  1  0
  2  3  3  0
  3  4  1  0
  4  5  1  0
  5  6  1  0
  6  7  1  0
  7  8  1  0
  8  9  1  0
  1 10  1  0
  1 11  1  0
  1 12  1  0
  4 13  1  0
  4 14  1  0
  5 15  1  0
  5 16  1  0
  6 17  1  0
  6 18  1  0
  7 19  1  0
  7 20  1  0
  8 21  1  0
  8 22  1  0
  9 23  1  0
  9 24  1  0
  9 25  1  0
M  END
