
     RDKit          3D

 18 19  0  0  0  0  0  0  0  0999 V2000
    3.5048    0.2426    0.5325 C   0  0  0  0  0  0  0  0  0  0  0  0
    2.0404    0.1200    0.2776 C   0  0  0  0  0  0  0  0  0  0  0  0
    0.8647    0.0405    0.0802 C   0  0  0  0  0  0  0  0  0  0  0  0
   -0.4417   -0.0625   -0.1210 C   0  0  0  0  0  0  0  0  0  0  0  0
   -1.1424   -0.8739   -1.1591 C   0  0  0  0  0  0  0  0  0  0  0  0
   -2.2519   -0.1234   -0.4556 C   0  0  0  0  0  0  0  0  0  0  0  0
   -1.5005   -0.4579    0.8247 C   0  0  0  0  0  0  0  0  0  0  0  0
   -1.3573    1.0779   -0.5400 C   0  0  0  0  0  0  0  0  0  0  0  0
    3.9959   -0.7167    0.2417 H   0  0  0  0  0  0  0  0  0  0  0  0
    3.6937    0.3693    1.6186 H   0  0  0  0  0  0  0  0  0  0  0  0
    3.9162    1.1135   -0.0007 H   0  0  0  0  0  0  0  0  0  0  0  0
   -1.2229   -1.9553   -0.9977 H   0  0  0  0  0  0  0  0  0  0  0  0
   -0.9676   -0.6203   -2.2064 H   0  0  0  0  0  0  0  0  0  0  0  0
   -3.2305   -0.1955   -0.6079 H   0  0  0  0  0  0  0  0  0  0  0  0
   -1.6592    0.2582    1.6552 H   0  0  0  0  0  0  0  0  0  0  0  0
   -1.5661   -1.5213    1.1222 H   0  0  0  0  0  0  0  0  0  0  0  0
   -1.2013    1.4686   -1.5482 H   0  0  0  0  0  0  0  0  0  0  0  0
   -1.4743    1.8362    0.2458 H   0  0  0  0  0  0  0  0  0  0  0  0
  1  2  1  0
  2  3  3  0
  3  4  1  0
  4  5  1  0
  5  6  1  0
  6  7  1  0
  6  8  1  0
  7  4  1  0
  8  4  1  0
  1  9  1  0
  1 10  1  0
  1 11  1  0
  5 12  1  0
  5 13  1  0
  6 14  1  0
  7 15  1  0
  7 16  1  0
  8 17  1  0
  8 18  1  0
M  END
