
     RDKit          3D

 25 24  0  0  0  0  0  0  0  0999 V2000
    4.3686    1.4743   -0.3835 C   0  0  0  0  0  0  0  0  0  0  0  0
    2.9164    1.2418   -0.4845 C   0  0  0  0  0  0  0  0  0  0  0  0
    1.6461    1.0461   -0.5693 C   0  0  0  0  0  0  0  0  0  0  0  0
    0.1954    0.8057   -0.6466 C   0  0  0  0  0  0  0  0  0  0  0  0
   -0.3206   -0.0195    0.4745 C   0  0  0  0  0  0  0  0  0  0  0  0
    0.2564   -1.3764    0.6491 C   0  0  0  0  0  0  0  0  0  0  0  0
   -1.8363   -0.0328    0.3485 C   0  0  0  0  0  0  0  0  0  0  0  0
   -2.3239   -0.6199   -0.9161 C   0  0  0  0  0  0  0  0  0  0  0  0
   -2.4763   -0.7363    1.5363 C   0  0  0  0  0  0  0  0  0  0  0  0
    4.6364    1.6294    0.6414 H   0  0  0  0  0  0  0  0  0  0  0  0
    4.5774    2.3568   -1.0714 H   0  0  0  0  0  0  0  0  0  0  0  0
    4.9057    0.6017   -0.8628 H   0  0  0  0  0  0  0  0  0  0  0  0
   -0.0558    0.3432   -1.6099 H   0  0  0  0  0  0  0  0  0  0  0  0
   -0.2247    1.8661   -0.5836 H   0  0  0  0  0  0  0  0  0  0  0  0
   -0.1404    0.5442    1.4382 H   0  0  0  0  0  0  0  0  0  0  0  0
    0.1418   -1.7497    1.7095 H   0  0  0  0  0  0  0  0  0  0  0  0
   -0.1539   -2.1335   -0.0214 H   0  0  0  0  0  0  0  0  0  0  0  0
    1.3835   -1.3202    0.5189 H   0  0  0  0  0  0  0  0  0  0  0  0
   -2.1048    1.0665    0.4124 H   0  0  0  0  0  0  0  0  0  0  0  0
   -1.7131   -0.4515   -1.8110 H   0  0  0  0  0  0  0  0  0  0  0  0
   -3.3542   -0.1924   -1.1482 H   0  0  0  0  0  0  0  0  0  0  0  0
   -2.3952   -1.7457   -0.7986 H   0  0  0  0  0  0  0  0  0  0  0  0
   -2.7085    0.0745    2.2868 H   0  0  0  0  0  0  0  0  0  0  0  0
   -1.8114   -1.4452    2.0411 H   0  0  0  0  0  0  0  0  0  0  0  0
   -3.4086   -1.2272    1.1553 H   0  0  0  0  0  0  0  0  0  0  0  0
  1  2  1  0
  2  3  3  0
  3  4  1  0
  4  5  1  0
  5  6  1  0
  5  7  1  0
  7  8  1  0
  7  9  1  0
  1 10  1  0
  1 11  1  0
  1 12  1  0
  4 13  1  0
  4 14  1  0
  5 15  1  0
  6 16  1  0
  6 17  1  0
  6 18  1  0
  7 19  1  0
  8 20  1  0
  8 21  1  0
  8 22  1  0
  9 23  1  0
  9 24  1  0
  9 25  1  0
M  END
