
     RDKit          3D

 19 18  0  0  0  0  0  0  0  0999 V2000
    4.6754   -1.2300    0.4134 C   0  0  0  0  0  0  0  0  0  0  0  0
    3.2702   -0.8025    0.3400 C   0  0  0  0  0  0  0  0  0  0  0  0
    2.1119   -0.4715    0.2751 C   0  0  0  0  0  0  0  0  0  0  0  0
    0.7453   -0.0561    0.1909 C   0  0  0  0  0  0  0  0  0  0  0  0
   -0.4132    0.2743    0.1224 C   0  0  0  0  0  0  0  0  0  0  0  0
   -1.8174    0.6834    0.0563 C   0  0  0  0  0  0  0  0  0  0  0  0
   -2.6497   -0.5955   -0.0584 C   0  0  0  0  0  0  0  0  0  0  0  0
   -2.0209    1.5867   -1.1126 C   0  0  0  0  0  0  0  0  0  0  0  0
   -2.1781    1.3037    1.2717 O   0  0  0  0  0  0  0  0  0  0  0  0
    5.1802   -0.8712    1.3072 H   0  0  0  0  0  0  0  0  0  0  0  0
    4.7752   -2.3375    0.3613 H   0  0  0  0  0  0  0  0  0  0  0  0
    5.1786   -0.8404   -0.4963 H   0  0  0  0  0  0  0  0  0  0  0  0
   -2.6586   -1.1241    0.9054 H   0  0  0  0  0  0  0  0  0  0  0  0
   -2.1128   -1.2367   -0.7843 H   0  0  0  0  0  0  0  0  0  0  0  0
   -3.6322   -0.3787   -0.4720 H   0  0  0  0  0  0  0  0  0  0  0  0
   -2.2523    2.6074   -0.7416 H   0  0  0  0  0  0  0  0  0  0  0  0
   -2.8666    1.2818   -1.7586 H   0  0  0  0  0  0  0  0  0  0  0  0
   -1.1039    1.6656   -1.7485 H   0  0  0  0  0  0  0  0  0  0  0  0
   -2.2310    0.5411    1.9286 H   0  0  0  0  0  0  0  0  0  0  0  0
  1  2  1  0
  2  3  3  0
  3  4  1  0
  4  5  3  0
  5  6  1  0
  6  7  1  0
  6  8  1  0
  6  9  1  0
  1 10  1  0
  1 11  1  0
  1 12  1  0
  7 13  1  0
  7 14  1  0
  7 15  1  0
  8 16  1  0
  8 17  1  0
  8 18  1  0
  9 19  1  0
M  END
