
     RDKit          3D

 16 15  0  0  0  0  0  0  0  0999 V2000
    3.1611    1.1654    0.1674 C   0  0  0  0  0  0  0  0  0  0  0  0
    1.9773    0.3883   -0.1921 C   0  0  0  0  0  0  0  0  0  0  0  0
    0.9950   -0.2647   -0.4708 C   0  0  0  0  0  0  0  0  0  0  0  0
   -0.1784   -1.0375   -0.8278 C   0  0  0  0  0  0  0  0  0  0  0  0
   -0.1351   -2.2614   -1.1001 O   0  0  0  0  0  0  0  0  0  0  0  0
   -1.4639   -0.2550   -0.8465 C   0  0  0  0  0  0  0  0  0  0  0  0
   -1.9372   -0.2680    0.5932 C   0  0  0  0  0  0  0  0  0  0  0  0
   -3.1358    0.4056    0.7848 O   0  0  0  0  0  0  0  0  0  0  0  0
    3.0211    1.5220    1.2085 H   0  0  0  0  0  0  0  0  0  0  0  0
    4.0484    0.5058    0.0495 H   0  0  0  0  0  0  0  0  0  0  0  0
    3.2894    2.0607   -0.4680 H   0  0  0  0  0  0  0  0  0  0  0  0
   -1.2541    0.8216   -1.0908 H   0  0  0  0  0  0  0  0  0  0  0  0
   -2.1584   -0.7381   -1.5386 H   0  0  0  0  0  0  0  0  0  0  0  0
   -2.0336   -1.3186    0.8987 H   0  0  0  0  0  0  0  0  0  0  0  0
   -1.1075    0.2175    1.1884 H   0  0  0  0  0  0  0  0  0  0  0  0
   -3.0882    0.9236    1.6442 H   0  0  0  0  0  0  0  0  0  0  0  0
  1  2  1  0
  2  3  3  0
  3  4  1  0
  4  5  2  0
  4  6  1  0
  6  7  1  0
  7  8  1  0
  1  9  1  0
  1 10  1  0
  1 11  1  0
  6 12  1  0
  6 13  1  0
  7 14  1  0
  7 15  1  0
  8 16  1  0
M  END
