
     RDKit          3D

 19 19  0  0  0  0  0  0  0  0999 V2000
    3.6790   -0.3269    1.9847 C   0  0  0  0  0  0  0  0  0  0  0  0
    2.4835   -0.4186    1.0871 C   0  0  0  0  0  0  0  0  0  0  0  0
    1.4476   -0.4953    0.2839 C   0  0  0  0  0  0  0  0  0  0  0  0
    0.3807   -0.5501   -0.5426 C   0  0  0  0  0  0  0  0  0  0  0  0
   -0.7676    0.3474   -0.0846 C   0  0  0  0  0  0  0  0  0  0  0  0
   -1.9277    0.1059   -1.1352 C   0  0  0  0  0  0  0  0  0  0  0  0
   -3.1121   -0.3510   -0.6596 O   0  0  0  0  0  0  0  0  0  0  0  0
   -1.4017    1.4593   -0.7257 C   0  0  0  0  0  0  0  0  0  0  0  0
   -2.4784    2.1848   -0.1003 O   0  0  0  0  0  0  0  0  0  0  0  0
    4.3843   -1.0677    1.6587 H   0  0  0  0  0  0  0  0  0  0  0  0
    4.1206    0.7081    1.7742 H   0  0  0  0  0  0  0  0  0  0  0  0
    3.3658   -0.4002    3.0133 H   0  0  0  0  0  0  0  0  0  0  0  0
    0.6427   -0.2106   -1.6244 H   0  0  0  0  0  0  0  0  0  0  0  0
   -0.0599   -1.5894   -0.7208 H   0  0  0  0  0  0  0  0  0  0  0  0
   -1.0825    0.0827    0.9650 H   0  0  0  0  0  0  0  0  0  0  0  0
   -1.6226   -0.2369   -2.1479 H   0  0  0  0  0  0  0  0  0  0  0  0
   -3.7702   -0.5948   -1.3785 H   0  0  0  0  0  0  0  0  0  0  0  0
   -1.0016    2.0338   -1.5880 H   0  0  0  0  0  0  0  0  0  0  0  0
   -3.2799    1.6033   -0.0593 H   0  0  0  0  0  0  0  0  0  0  0  0
  1  2  1  0
  2  3  3  0
  3  4  1  0
  4  5  1  0
  5  6  1  0
  6  7  1  0
  6  8  1  0
  8  9  1  0
  8  5  1  0
  1 10  1  0
  1 11  1  0
  1 12  1  0
  4 13  1  0
  4 14  1  0
  5 15  1  0
  6 16  1  0
  7 17  1  0
  8 18  1  0
  9 19  1  0
M  END
