
     RDKit          3D

 21 20  0  0  0  0  0  0  0  0999 V2000
    3.6897    3.2724   -0.5791 C   0  0  0  0  0  0  0  0  0  0  0  0
    2.6550    2.2199   -0.7005 C   0  0  0  0  0  0  0  0  0  0  0  0
    1.8016    1.3433   -0.7806 C   0  0  0  0  0  0  0  0  0  0  0  0
    0.7969    0.3256   -0.8514 C   0  0  0  0  0  0  0  0  0  0  0  0
    0.6518   -0.3745   -1.9159 O   0  0  0  0  0  0  0  0  0  0  0  0
   -0.0771    0.0985    0.3421 C   0  0  0  0  0  0  0  0  0  0  0  0
   -1.0129   -1.0131   -0.0119 C   0  0  0  0  0  0  0  0  0  0  0  0
   -1.9815   -1.4099    1.0493 C   0  0  0  0  0  0  0  0  0  0  0  0
   -2.8197   -2.5528    0.4559 C   0  0  0  0  0  0  0  0  0  0  0  0
    4.0306    3.5810   -1.6082 H   0  0  0  0  0  0  0  0  0  0  0  0
    4.5821    2.8416   -0.0547 H   0  0  0  0  0  0  0  0  0  0  0  0
    3.2361    4.1143   -0.0485 H   0  0  0  0  0  0  0  0  0  0  0  0
    0.5017   -0.0774    1.2674 H   0  0  0  0  0  0  0  0  0  0  0  0
   -0.7108    1.0301    0.4524 H   0  0  0  0  0  0  0  0  0  0  0  0
   -0.3951   -1.8612   -0.3748 H   0  0  0  0  0  0  0  0  0  0  0  0
   -1.6255   -0.6349   -0.8830 H   0  0  0  0  0  0  0  0  0  0  0  0
   -2.6787   -0.5696    1.2472 H   0  0  0  0  0  0  0  0  0  0  0  0
   -1.5090   -1.7543    1.9853 H   0  0  0  0  0  0  0  0  0  0  0  0
   -3.8676   -2.2246    0.2824 H   0  0  0  0  0  0  0  0  0  0  0  0
   -2.3924   -2.9375   -0.4760 H   0  0  0  0  0  0  0  0  0  0  0  0
   -2.8753   -3.3637    1.2027 H   0  0  0  0  0  0  0  0  0  0  0  0
  1  2  1  0
  2  3  3  0
  3  4  1  0
  4  5  2  0
  4  6  1  0
  6  7  1  0
  7  8  1  0
  8  9  1  0
  1 10  1  0
  1 11  1  0
  1 12  1  0
  6 13  1  0
  6 14  1  0
  7 15  1  0
  7 16  1  0
  8 17  1  0
  8 18  1  0
  9 19  1  0
  9 20  1  0
  9 21  1  0
M  END
