
     RDKit          3D

 21 22  0  0  0  0  0  0  0  0999 V2000
    3.5601   -0.4424    1.1604 C   0  0  0  0  0  0  0  0  0  0  0  0
    2.1485   -0.4361    0.6830 C   0  0  0  0  0  0  0  0  0  0  0  0
    1.0185   -0.4104    0.2987 C   0  0  0  0  0  0  0  0  0  0  0  0
   -0.2327   -0.3937   -0.1476 C   0  0  0  0  0  0  0  0  0  0  0  0
   -1.2626   -1.4743    0.0426 C   0  0  0  0  0  0  0  0  0  0  0  0
   -1.9827   -0.3817   -0.7162 C   0  0  0  0  0  0  0  0  0  0  0  0
   -0.7179   -0.2854   -1.5399 C   0  0  0  0  0  0  0  0  0  0  0  0
   -1.3086    0.5703    0.2394 C   0  0  0  0  0  0  0  0  0  0  0  0
   -1.1524    1.9765   -0.2456 C   0  0  0  0  0  0  0  0  0  0  0  0
    4.1975    0.1520    0.4819 H   0  0  0  0  0  0  0  0  0  0  0  0
    3.6079    0.0172    2.1637 H   0  0  0  0  0  0  0  0  0  0  0  0
    3.9471   -1.4666    1.2068 H   0  0  0  0  0  0  0  0  0  0  0  0
   -1.5493   -1.6089    1.0905 H   0  0  0  0  0  0  0  0  0  0  0  0
   -1.1412   -2.3796   -0.5691 H   0  0  0  0  0  0  0  0  0  0  0  0
   -2.9227   -0.3767   -1.0355 H   0  0  0  0  0  0  0  0  0  0  0  0
   -0.5508   -1.1961   -2.1219 H   0  0  0  0  0  0  0  0  0  0  0  0
   -0.5779    0.6795   -2.0582 H   0  0  0  0  0  0  0  0  0  0  0  0
   -1.7053    0.4413    1.2652 H   0  0  0  0  0  0  0  0  0  0  0  0
   -1.5129    2.6855    0.5317 H   0  0  0  0  0  0  0  0  0  0  0  0
   -1.7829    2.1785   -1.1533 H   0  0  0  0  0  0  0  0  0  0  0  0
   -0.0796    2.1511   -0.4934 H   0  0  0  0  0  0  0  0  0  0  0  0
  1  2  1  0
  2  3  3  0
  3  4  1  0
  4  5  1  0
  5  6  1  0
  6  7  1  0
  6  8  1  0
  8  9  1  0
  7  4  1  0
  8  4  1  0
  1 10  1  0
  1 11  1  0
  1 12  1  0
  5 13  1  0
  5 14  1  0
  6 15  1  0
  7 16  1  0
  7 17  1  0
  8 18  1  0
  9 19  1  0
  9 20  1  0
  9 21  1  0
M  END
