
     RDKit          3D

 17 16  0  0  0  0  0  0  0  0999 V2000
    3.5129    0.0534    1.3656 C   0  0  0  0  0  0  0  0  0  0  0  0
    2.2263   -0.3787    0.9891 C   0  0  0  0  0  0  0  0  0  0  0  0
    1.0999   -0.7354    0.6606 C   0  0  0  0  0  0  0  0  0  0  0  0
   -0.3047   -1.1959    0.2555 C   0  0  0  0  0  0  0  0  0  0  0  0
   -0.9088   -0.0106   -0.3194 C   0  0  0  0  0  0  0  0  0  0  0  0
   -0.3144    1.0874   -0.3693 O   0  0  0  0  0  0  0  0  0  0  0  0
   -2.2808    0.0012   -0.8872 C   0  0  0  0  0  0  0  0  0  0  0  0
   -2.7945    1.3812   -0.9284 C   0  0  0  0  0  0  0  0  0  0  0  0
   -2.0349    2.2950   -0.5009 O   0  0  0  0  0  0  0  0  0  0  0  0
    3.6569   -0.1777    2.4482 H   0  0  0  0  0  0  0  0  0  0  0  0
    4.3535   -0.4533    0.7969 H   0  0  0  0  0  0  0  0  0  0  0  0
    3.6619    1.1566    1.2780 H   0  0  0  0  0  0  0  0  0  0  0  0
   -0.8148   -1.6106    1.0982 H   0  0  0  0  0  0  0  0  0  0  0  0
   -0.1370   -1.9844   -0.5437 H   0  0  0  0  0  0  0  0  0  0  0  0
   -2.2260   -0.4133   -1.9510 H   0  0  0  0  0  0  0  0  0  0  0  0
   -2.9865   -0.7094   -0.3923 H   0  0  0  0  0  0  0  0  0  0  0  0
   -3.7090    1.6945   -1.2762 H   0  0  0  0  0  0  0  0  0  0  0  0
  1  2  1  0
  2  3  3  0
  3  4  1  0
  4  5  1  0
  5  6  2  0
  5  7  1  0
  7  8  1  0
  8  9  2  0
  1 10  1  0
  1 11  1  0
  1 12  1  0
  4 13  1  0
  4 14  1  0
  7 15  1  0
  7 16  1  0
  8 17  1  0
M  END
