
     RDKit          3D

 19 18  0  0  0  0  0  0  0  0999 V2000
   -2.7443   -1.2312    2.7502 C   0  0  0  0  0  0  0  0  0  0  0  0
   -2.0218   -0.7949    1.5303 C   0  0  0  0  0  0  0  0  0  0  0  0
   -1.3566   -0.4056    0.3797 C   0  0  0  0  0  0  0  0  0  0  0  0
   -0.7562   -0.0738   -0.6215 C   0  0  0  0  0  0  0  0  0  0  0  0
   -0.3875   -1.1410   -1.6643 C   0  0  0  0  0  0  0  0  0  0  0  0
    0.5565    0.6944   -0.4994 C   0  0  0  0  0  0  0  0  0  0  0  0
    1.5971    1.2925   -0.4094 C   0  0  0  0  0  0  0  0  0  0  0  0
    2.8606    2.0472   -0.2926 C   0  0  0  0  0  0  0  0  0  0  0  0
    3.8075    1.5273   -1.1731 O   0  0  0  0  0  0  0  0  0  0  0  0
   -2.0240   -1.8329    3.3285 H   0  0  0  0  0  0  0  0  0  0  0  0
   -3.0693   -0.3505    3.3193 H   0  0  0  0  0  0  0  0  0  0  0  0
   -3.5812   -1.8862    2.4609 H   0  0  0  0  0  0  0  0  0  0  0  0
   -1.3623    0.6799   -1.3676 H   0  0  0  0  0  0  0  0  0  0  0  0
    0.6509   -1.4596   -1.5760 H   0  0  0  0  0  0  0  0  0  0  0  0
   -1.1133   -1.9619   -1.5369 H   0  0  0  0  0  0  0  0  0  0  0  0
   -0.5324   -0.7667   -2.6909 H   0  0  0  0  0  0  0  0  0  0  0  0
    3.2409    1.7592    0.7291 H   0  0  0  0  0  0  0  0  0  0  0  0
    2.7309    3.1377   -0.3700 H   0  0  0  0  0  0  0  0  0  0  0  0
    3.5046    0.7662   -1.6897 H   0  0  0  0  0  0  0  0  0  0  0  0
  1  2  1  0
  2  3  3  0
  3  4  1  0
  4  5  1  0
  4  6  1  0
  6  7  3  0
  7  8  1  0
  8  9  1  0
  1 10  1  0
  1 11  1  0
  1 12  1  0
  4 13  1  0
  5 14  1  0
  5 15  1  0
  5 16  1  0
  8 17  1  0
  8 18  1  0
  9 19  1  0
M  END
