
     RDKit          3D

 21 21  0  0  0  0  0  0  0  0999 V2000
    3.5317    0.0557    0.0930 C   0  0  0  0  0  0  0  0  0  0  0  0
    2.1617   -0.5105    0.1622 C   0  0  0  0  0  0  0  0  0  0  0  0
    1.0664   -0.9838    0.2211 C   0  0  0  0  0  0  0  0  0  0  0  0
   -0.2829   -1.5394    0.2887 C   0  0  0  0  0  0  0  0  0  0  0  0
   -1.2557   -0.4244    0.0635 C   0  0  0  0  0  0  0  0  0  0  0  0
   -2.5818   -0.8264    0.1039 O   0  0  0  0  0  0  0  0  0  0  0  0
   -0.9906    0.4579   -1.1252 C   0  0  0  0  0  0  0  0  0  0  0  0
   -1.5720    1.5986   -0.2756 C   0  0  0  0  0  0  0  0  0  0  0  0
   -1.0551    0.8000    0.9301 C   0  0  0  0  0  0  0  0  0  0  0  0
    3.5711    1.0005    0.6475 H   0  0  0  0  0  0  0  0  0  0  0  0
    3.8341    0.1991   -0.9655 H   0  0  0  0  0  0  0  0  0  0  0  0
    4.2601   -0.7047    0.4978 H   0  0  0  0  0  0  0  0  0  0  0  0
   -0.4653   -2.3023   -0.4947 H   0  0  0  0  0  0  0  0  0  0  0  0
   -0.4959   -1.9986    1.2661 H   0  0  0  0  0  0  0  0  0  0  0  0
   -2.6627   -1.7306   -0.2690 H   0  0  0  0  0  0  0  0  0  0  0  0
   -1.6279    0.1656   -1.9695 H   0  0  0  0  0  0  0  0  0  0  0  0
    0.0617    0.6897   -1.3348 H   0  0  0  0  0  0  0  0  0  0  0  0
   -1.0947    2.5668   -0.4186 H   0  0  0  0  0  0  0  0  0  0  0  0
   -2.6726    1.5541   -0.3462 H   0  0  0  0  0  0  0  0  0  0  0  0
   -0.0027    1.0733    1.1114 H   0  0  0  0  0  0  0  0  0  0  0  0
   -1.7270    0.8592    1.8138 H   0  0  0  0  0  0  0  0  0  0  0  0
  1  2  1  0
  2  3  3  0
  3  4  1  0
  4  5  1  0
  5  6  1  0
  5  7  1  0
  7  8  1  0
  8  9  1  0
  9  5  1  0
  1 10  1  0
  1 11  1  0
  1 12  1  0
  4 13  1  0
  4 14  1  0
  6 15  1  0
  7 16  1  0
  7 17  1  0
  8 18  1  0
  8 19  1  0
  9 20  1  0
  9 21  1  0
M  END
