
     RDKit          3D

 15 15  0  0  0  0  0  0  0  0999 V2000
    2.2436   -1.0695    1.7424 C   0  0  0  0  0  0  0  0  0  0  0  0
    1.2135   -0.6593    0.8056 C   0  0  0  0  0  0  0  0  0  0  0  0
    0.3648   -0.3035    0.0107 C   0  0  0  0  0  0  0  0  0  0  0  0
   -0.6566    0.1468   -0.9335 C   0  0  0  0  0  0  0  0  0  0  0  0
   -0.5347   -0.1883   -2.2682 O   0  0  0  0  0  0  0  0  0  0  0  0
   -1.2410    1.5322   -0.7089 C   0  0  0  0  0  0  0  0  0  0  0  0
   -2.0307    0.3411   -0.3369 C   0  0  0  0  0  0  0  0  0  0  0  0
    1.8260   -1.6857    2.5654 H   0  0  0  0  0  0  0  0  0  0  0  0
    2.9828   -1.7041    1.2087 H   0  0  0  0  0  0  0  0  0  0  0  0
    2.8131   -0.2306    2.1782 H   0  0  0  0  0  0  0  0  0  0  0  0
    0.3425   -0.5759   -2.4524 H   0  0  0  0  0  0  0  0  0  0  0  0
   -0.6981    2.1352    0.0448 H   0  0  0  0  0  0  0  0  0  0  0  0
   -1.5744    2.1235   -1.5769 H   0  0  0  0  0  0  0  0  0  0  0  0
   -2.2004    0.0926    0.7281 H   0  0  0  0  0  0  0  0  0  0  0  0
   -2.8502    0.0454   -1.0072 H   0  0  0  0  0  0  0  0  0  0  0  0
  1  2  1  0
  2  3  3  0
  3  4  1  0
  4  5  1  0
  4  6  1  0
  6  7  1  0
  7  4  1  0
  1  8  1  0
  1  9  1  0
  1 10  1  0
  5 11  1  0
  6 12  1  0
  6 13  1  0
  7 14  1  0
  7 15  1  0
M  END
