
     RDKit          3D

 19 19  0  0  0  0  0  0  0  0999 V2000
    3.2129   -0.4941    0.1687 C   0  0  0  0  0  0  0  0  0  0  0  0
    1.8707    0.0338   -0.1077 C   0  0  0  0  0  0  0  0  0  0  0  0
    0.7552    0.4502   -0.3338 C   0  0  0  0  0  0  0  0  0  0  0  0
   -0.5969    0.9475   -0.5906 C   0  0  0  0  0  0  0  0  0  0  0  0
   -1.1078    1.8799    0.5058 C   0  0  0  0  0  0  0  0  0  0  0  0
   -1.4362    0.7225    1.2334 O   0  0  0  0  0  0  0  0  0  0  0  0
   -1.6154    0.0453    0.0422 C   0  0  0  0  0  0  0  0  0  0  0  0
   -1.2349   -1.4176    0.1121 C   0  0  0  0  0  0  0  0  0  0  0  0
   -1.4762   -1.9522   -1.1709 O   0  0  0  0  0  0  0  0  0  0  0  0
    3.0906   -1.5295    0.5254 H   0  0  0  0  0  0  0  0  0  0  0  0
    3.8700   -0.4297   -0.7270 H   0  0  0  0  0  0  0  0  0  0  0  0
    3.7373    0.1153    0.9537 H   0  0  0  0  0  0  0  0  0  0  0  0
   -0.7991    1.2907   -1.6041 H   0  0  0  0  0  0  0  0  0  0  0  0
   -0.3137    2.4503    1.0072 H   0  0  0  0  0  0  0  0  0  0  0  0
   -1.9778    2.4549    0.1446 H   0  0  0  0  0  0  0  0  0  0  0  0
   -2.6075    0.2148   -0.4282 H   0  0  0  0  0  0  0  0  0  0  0  0
   -0.1786   -1.5480    0.3692 H   0  0  0  0  0  0  0  0  0  0  0  0
   -1.9082   -1.9448    0.7929 H   0  0  0  0  0  0  0  0  0  0  0  0
   -1.2845   -1.2893   -1.8735 H   0  0  0  0  0  0  0  0  0  0  0  0
  1  2  1  0
  2  3  3  0
  3  4  1  0
  4  5  1  0
  5  6  1  0
  6  7  1  0
  7  8  1  0
  8  9  1  0
  7  4  1  0
  1 10  1  0
  1 11  1  0
  1 12  1  0
  4 13  1  0
  5 14  1  0
  5 15  1  0
  7 16  1  0
  8 17  1  0
  8 18  1  0
  9 19  1  0
M  END
