
     RDKit          3D

 21 20  0  0  0  0  0  0  0  0999 V2000
    4.0421    0.0854   -1.6239 C   0  0  0  0  0  0  0  0  0  0  0  0
    2.7598   -0.4696   -1.1647 C   0  0  0  0  0  0  0  0  0  0  0  0
    1.7102   -0.9255   -0.7671 C   0  0  0  0  0  0  0  0  0  0  0  0
    0.4299   -1.4607   -0.2985 C   0  0  0  0  0  0  0  0  0  0  0  0
   -0.4457   -0.2963    0.1511 C   0  0  0  0  0  0  0  0  0  0  0  0
   -1.7509   -0.7174    0.6392 C   0  0  0  0  0  0  0  0  0  0  0  0
   -2.0370   -1.8940    0.6519 O   0  0  0  0  0  0  0  0  0  0  0  0
   -2.7292    0.2775    1.1191 C   0  0  0  0  0  0  0  0  0  0  0  0
   -2.2393    1.6853    1.0477 C   0  0  0  0  0  0  0  0  0  0  0  0
    4.6203   -0.6440   -2.2268 H   0  0  0  0  0  0  0  0  0  0  0  0
    3.9065    1.0032   -2.2276 H   0  0  0  0  0  0  0  0  0  0  0  0
    4.6140    0.3218   -0.6869 H   0  0  0  0  0  0  0  0  0  0  0  0
   -0.0540   -1.9909   -1.1600 H   0  0  0  0  0  0  0  0  0  0  0  0
    0.5836   -2.1533    0.5478 H   0  0  0  0  0  0  0  0  0  0  0  0
    0.1000    0.2040    0.9699 H   0  0  0  0  0  0  0  0  0  0  0  0
   -0.5085    0.3742   -0.7562 H   0  0  0  0  0  0  0  0  0  0  0  0
   -3.6982    0.2241    0.5440 H   0  0  0  0  0  0  0  0  0  0  0  0
   -3.0389    0.0919    2.1826 H   0  0  0  0  0  0  0  0  0  0  0  0
   -1.6456    1.9980    1.9333 H   0  0  0  0  0  0  0  0  0  0  0  0
   -3.0628    2.4283    0.9585 H   0  0  0  0  0  0  0  0  0  0  0  0
   -1.5563    1.8577    0.1666 H   0  0  0  0  0  0  0  0  0  0  0  0
  1  2  1  0
  2  3  3  0
  3  4  1  0
  4  5  1  0
  5  6  1  0
  6  7  2  0
  6  8  1  0
  8  9  1  0
  1 10  1  0
  1 11  1  0
  1 12  1  0
  4 13  1  0
  4 14  1  0
  5 15  1  0
  5 16  1  0
  8 17  1  0
  8 18  1  0
  9 19  1  0
  9 20  1  0
  9 21  1  0
M  END
