
     RDKit          3D

 17 16  0  0  0  0  0  0  0  0999 V2000
    3.3301   -0.5219    0.1744 C   0  0  0  0  0  0  0  0  0  0  0  0
    1.8909   -0.2792    0.0335 C   0  0  0  0  0  0  0  0  0  0  0  0
    0.6996   -0.0615   -0.0746 C   0  0  0  0  0  0  0  0  0  0  0  0
   -0.7341    0.2122   -0.2277 C   0  0  0  0  0  0  0  0  0  0  0  0
   -0.8520    1.6454   -0.7041 C   0  0  0  0  0  0  0  0  0  0  0  0
   -1.4177    0.0467    0.9834 O   0  0  0  0  0  0  0  0  0  0  0  0
   -2.3822   -0.9619    0.7984 C   0  0  0  0  0  0  0  0  0  0  0  0
    3.8052    0.4259    0.4488 H   0  0  0  0  0  0  0  0  0  0  0  0
    3.5323   -1.3074    0.9480 H   0  0  0  0  0  0  0  0  0  0  0  0
    3.7172   -0.9377   -0.7999 H   0  0  0  0  0  0  0  0  0  0  0  0
   -1.1212   -0.4795   -1.0023 H   0  0  0  0  0  0  0  0  0  0  0  0
    0.0887    2.2188   -0.5072 H   0  0  0  0  0  0  0  0  0  0  0  0
   -1.7232    2.0865   -0.1751 H   0  0  0  0  0  0  0  0  0  0  0  0
   -0.9703    1.6246   -1.7969 H   0  0  0  0  0  0  0  0  0  0  0  0
   -2.9507   -1.1325    1.7247 H   0  0  0  0  0  0  0  0  0  0  0  0
   -1.8806   -1.9395    0.5649 H   0  0  0  0  0  0  0  0  0  0  0  0
   -3.0318   -0.6389   -0.0350 H   0  0  0  0  0  0  0  0  0  0  0  0
  1  2  1  0
  2  3  3  0
  3  4  1  0
  4  5  1  0
  4  6  1  0
  6  7  1  0
  1  8  1  0
  1  9  1  0
  1 10  1  0
  4 11  1  0
  5 12  1  0
  5 13  1  0
  5 14  1  0
  7 15  1  0
  7 16  1  0
  7 17  1  0
M  END
