
     RDKit          3D

 21 20  0  0  0  0  0  0  0  0999 V2000
    3.6632    0.8016    0.0569 C   0  0  0  0  0  0  0  0  0  0  0  0
    2.2682    0.3568    0.1358 C   0  0  0  0  0  0  0  0  0  0  0  0
    1.1034    0.0063    0.2088 C   0  0  0  0  0  0  0  0  0  0  0  0
   -0.3077   -0.3917    0.2968 C   0  0  0  0  0  0  0  0  0  0  0  0
   -0.6464   -1.0707   -1.0136 C   0  0  0  0  0  0  0  0  0  0  0  0
   -0.4743   -1.3029    1.4455 C   0  0  0  0  0  0  0  0  0  0  0  0
   -1.1334   -2.3282    1.2494 O   0  0  0  0  0  0  0  0  0  0  0  0
   -1.1456    0.8630    0.4331 C   0  0  0  0  0  0  0  0  0  0  0  0
   -2.6021    0.5803    0.5312 C   0  0  0  0  0  0  0  0  0  0  0  0
    4.2710    0.0494    0.5946 H   0  0  0  0  0  0  0  0  0  0  0  0
    3.7978    1.7941    0.5708 H   0  0  0  0  0  0  0  0  0  0  0  0
    3.9928    0.9542   -0.9874 H   0  0  0  0  0  0  0  0  0  0  0  0
   -0.0120   -1.9865   -1.0761 H   0  0  0  0  0  0  0  0  0  0  0  0
   -1.7028   -1.3300   -1.0376 H   0  0  0  0  0  0  0  0  0  0  0  0
   -0.4021   -0.3548   -1.8222 H   0  0  0  0  0  0  0  0  0  0  0  0
   -0.0550   -1.1046    2.4042 H   0  0  0  0  0  0  0  0  0  0  0  0
   -0.9134    1.4891   -0.4733 H   0  0  0  0  0  0  0  0  0  0  0  0
   -0.7440    1.3999    1.3328 H   0  0  0  0  0  0  0  0  0  0  0  0
   -3.1276    1.0987   -0.3068 H   0  0  0  0  0  0  0  0  0  0  0  0
   -2.9840    0.9707    1.5131 H   0  0  0  0  0  0  0  0  0  0  0  0
   -2.8459   -0.4947    0.4309 H   0  0  0  0  0  0  0  0  0  0  0  0
  1  2  1  0
  2  3  3  0
  3  4  1  0
  4  5  1  0
  4  6  1  0
  6  7  2  0
  4  8  1  0
  8  9  1  0
  1 10  1  0
  1 11  1  0
  1 12  1  0
  5 13  1  0
  5 14  1  0
  5 15  1  0
  6 16  1  0
  8 17  1  0
  8 18  1  0
  9 19  1  0
  9 20  1  0
  9 21  1  0
M  END
