
     RDKit          3D

 25 24  0  0  0  0  0  0  0  0999 V2000
    3.7357    1.0162    0.3916 C   0  0  0  0  0  0  0  0  0  0  0  0
    2.3807    0.4694    0.2027 C   0  0  0  0  0  0  0  0  0  0  0  0
    1.2732    0.0091    0.0524 C   0  0  0  0  0  0  0  0  0  0  0  0
   -0.0681   -0.5437   -0.1425 C   0  0  0  0  0  0  0  0  0  0  0  0
   -0.4148   -1.5699    0.8885 C   0  0  0  0  0  0  0  0  0  0  0  0
   -0.1073   -1.2392   -1.5046 C   0  0  0  0  0  0  0  0  0  0  0  0
   -1.0776    0.5789   -0.2121 C   0  0  0  0  0  0  0  0  0  0  0  0
   -2.4766    0.0863   -0.4109 C   0  0  0  0  0  0  0  0  0  0  0  0
   -1.0615    1.4313    1.0416 C   0  0  0  0  0  0  0  0  0  0  0  0
    4.2175    0.5721    1.2994 H   0  0  0  0  0  0  0  0  0  0  0  0
    4.4018    0.7410   -0.4604 H   0  0  0  0  0  0  0  0  0  0  0  0
    3.6256    2.0957    0.5084 H   0  0  0  0  0  0  0  0  0  0  0  0
   -1.3677   -1.3633    1.4178 H   0  0  0  0  0  0  0  0  0  0  0  0
   -0.5352   -2.5988    0.4528 H   0  0  0  0  0  0  0  0  0  0  0  0
    0.3678   -1.6127    1.7007 H   0  0  0  0  0  0  0  0  0  0  0  0
   -0.1575   -0.4317   -2.2532 H   0  0  0  0  0  0  0  0  0  0  0  0
    0.8992   -1.7315   -1.6051 H   0  0  0  0  0  0  0  0  0  0  0  0
   -0.9259   -1.9602   -1.5459 H   0  0  0  0  0  0  0  0  0  0  0  0
   -0.8425    1.2649   -1.0515 H   0  0  0  0  0  0  0  0  0  0  0  0
   -3.0413   -0.0040    0.5459 H   0  0  0  0  0  0  0  0  0  0  0  0
   -2.5423   -0.8919   -0.9080 H   0  0  0  0  0  0  0  0  0  0  0  0
   -3.0495    0.8085   -1.0285 H   0  0  0  0  0  0  0  0  0  0  0  0
   -1.2694    0.8244    1.9489 H   0  0  0  0  0  0  0  0  0  0  0  0
   -0.0766    1.8896    1.1712 H   0  0  0  0  0  0  0  0  0  0  0  0
   -1.8879    2.1595    0.9482 H   0  0  0  0  0  0  0  0  0  0  0  0
  1  2  1  0
  2  3  3  0
  3  4  1  0
  4  5  1  0
  4  6  1  0
  4  7  1  0
  7  8  1  0
  7  9  1  0
  1 10  1  0
  1 11  1  0
  1 12  1  0
  5 13  1  0
  5 14  1  0
  5 15  1  0
  6 16  1  0
  6 17  1  0
  6 18  1  0
  7 19  1  0
  8 20  1  0
  8 21  1  0
  8 22  1  0
  9 23  1  0
  9 24  1  0
  9 25  1  0
M  END
