
     RDKit          3D

 23 22  0  0  0  0  0  0  0  0999 V2000
    2.7080   -2.0363   -0.5492 C   0  0  0  0  0  0  0  0  0  0  0  0
    1.6314   -1.1529   -0.2712 C   0  0  0  0  0  0  0  0  0  0  0  0
    0.6787   -0.3783   -0.0453 C   0  0  0  0  0  0  0  0  0  0  0  0
   -0.4064    0.5162    0.1909 C   0  0  0  0  0  0  0  0  0  0  0  0
   -0.3070    1.4533    1.3162 C   0  0  0  0  0  0  0  0  0  0  0  0
   -0.2008    1.0021    2.7004 C   0  0  0  0  0  0  0  0  0  0  0  0
   -1.6744    0.0728   -0.3854 C   0  0  0  0  0  0  0  0  0  0  0  0
   -1.4510    0.1417   -1.9407 C   0  0  0  0  0  0  0  0  0  0  0  0
   -0.3943   -0.6190   -2.2985 O   0  0  0  0  0  0  0  0  0  0  0  0
    3.5599   -1.4664   -1.0439 H   0  0  0  0  0  0  0  0  0  0  0  0
    3.0644   -2.5106    0.3824 H   0  0  0  0  0  0  0  0  0  0  0  0
    2.4204   -2.8288   -1.3260 H   0  0  0  0  0  0  0  0  0  0  0  0
   -0.1306    1.3784   -0.7211 H   0  0  0  0  0  0  0  0  0  0  0  0
   -1.0095    2.3514    1.1509 H   0  0  0  0  0  0  0  0  0  0  0  0
    0.7153    2.0321    1.1216 H   0  0  0  0  0  0  0  0  0  0  0  0
   -0.1039   -0.0801    2.7828 H   0  0  0  0  0  0  0  0  0  0  0  0
    0.6591    1.4842    3.2686 H   0  0  0  0  0  0  0  0  0  0  0  0
   -1.1523    1.3432    3.2258 H   0  0  0  0  0  0  0  0  0  0  0  0
   -2.5557    0.7190   -0.2103 H   0  0  0  0  0  0  0  0  0  0  0  0
   -1.9220   -1.0233   -0.2474 H   0  0  0  0  0  0  0  0  0  0  0  0
   -1.1829    1.2146   -2.1736 H   0  0  0  0  0  0  0  0  0  0  0  0
   -2.3964   -0.0651   -2.4551 H   0  0  0  0  0  0  0  0  0  0  0  0
   -0.5501   -1.5483   -2.4721 H   0  0  0  0  0  0  0  0  0  0  0  0
  1  2  1  0
  2  3  3  0
  3  4  1  0
  4  5  1  0
  5  6  1  0
  4  7  1  0
  7  8  1  0
  8  9  1  0
  1 10  1  0
  1 11  1  0
  1 12  1  0
  4 13  1  0
  5 14  1  0
  5 15  1  0
  6 16  1  0
  6 17  1  0
  6 18  1  0
  7 19  1  0
  7 20  1  0
  8 21  1  0
  8 22  1  0
  9 23  1  0
M  END
