
     RDKit          3D

 15 14  0  0  0  0  0  0  0  0999 V2000
   -2.9177   -0.1368    0.2673 C   0  0  0  0  0  0  0  0  0  0  0  0
   -1.4598   -0.0533    0.3263 C   0  0  0  0  0  0  0  0  0  0  0  0
   -0.2472    0.0261    0.3922 C   0  0  0  0  0  0  0  0  0  0  0  0
    1.2186    0.1420    0.4573 C   0  0  0  0  0  0  0  0  0  0  0  0
    1.6413   -0.6002    1.5414 O   0  0  0  0  0  0  0  0  0  0  0  0
    1.8536   -0.2880   -0.8089 C   0  0  0  0  0  0  0  0  0  0  0  0
    2.6749   -1.2353   -0.7937 O   0  0  0  0  0  0  0  0  0  0  0  0
    1.5714    0.3392   -2.0890 C   0  0  0  0  0  0  0  0  0  0  0  0
    0.7466    1.2929   -2.1154 O   0  0  0  0  0  0  0  0  0  0  0  0
   -3.1598   -0.9275   -0.4965 H   0  0  0  0  0  0  0  0  0  0  0  0
   -3.3844    0.8133   -0.0502 H   0  0  0  0  0  0  0  0  0  0  0  0
   -3.3655   -0.4185    1.2324 H   0  0  0  0  0  0  0  0  0  0  0  0
    1.5324    1.2044    0.6513 H   0  0  0  0  0  0  0  0  0  0  0  0
    1.2567   -0.1776    2.3529 H   0  0  0  0  0  0  0  0  0  0  0  0
    2.0391    0.0191   -3.0065 H   0  0  0  0  0  0  0  0  0  0  0  0
  1  2  1  0
  2  3  3  0
  3  4  1  0
  4  5  1  0
  4  6  1  0
  6  7  2  0
  6  8  1  0
  8  9  2  0
  1 10  1  0
  1 11  1  0
  1 12  1  0
  4 13  1  0
  5 14  1  0
  8 15  1  0
M  END
