
     RDKit          3D

 19 18  0  0  0  0  0  0  0  0999 V2000
    0.5585    2.7275    1.7401 C   0  0  0  0  0  0  0  0  0  0  0  0
    0.4718    1.4527    0.9081 C   0  0  0  0  0  0  0  0  0  0  0  0
    0.3917    0.5293    0.2956 C   0  0  0  0  0  0  0  0  0  0  0  0
    0.3088   -0.7309   -0.5411 C   0  0  0  0  0  0  0  0  0  0  0  0
   -0.6166   -0.4720   -1.7040 C   0  0  0  0  0  0  0  0  0  0  0  0
    1.6677   -1.0256   -1.0475 C   0  0  0  0  0  0  0  0  0  0  0  0
    2.1900   -0.2604   -1.8144 O   0  0  0  0  0  0  0  0  0  0  0  0
   -0.0843   -1.7470    0.2910 O   0  0  0  0  0  0  0  0  0  0  0  0
   -1.2918   -1.5833    0.9137 C   0  0  0  0  0  0  0  0  0  0  0  0
    0.9095    3.5394    1.0751 H   0  0  0  0  0  0  0  0  0  0  0  0
   -0.4737    2.8921    2.0899 H   0  0  0  0  0  0  0  0  0  0  0  0
    1.2612    2.5977    2.5592 H   0  0  0  0  0  0  0  0  0  0  0  0
   -0.0333   -0.4835   -2.6611 H   0  0  0  0  0  0  0  0  0  0  0  0
   -1.4061   -1.2501   -1.7013 H   0  0  0  0  0  0  0  0  0  0  0  0
   -1.1170    0.5063   -1.6892 H   0  0  0  0  0  0  0  0  0  0  0  0
    2.1732   -1.9110   -0.7305 H   0  0  0  0  0  0  0  0  0  0  0  0
   -1.4528   -2.4981    1.5474 H   0  0  0  0  0  0  0  0  0  0  0  0
   -1.3420   -0.7281    1.6248 H   0  0  0  0  0  0  0  0  0  0  0  0
   -2.1147   -1.5551    0.1717 H   0  0  0  0  0  0  0  0  0  0  0  0
  1  2  1  0
  2  3  3  0
  3  4  1  0
  4  5  1  0
  4  6  1  0
  6  7  2  0
  4  8  1  0
  8  9  1  0
  1 10  1  0
  1 11  1  0
  1 12  1  0
  5 13  1  0
  5 14  1  0
  5 15  1  0
  6 16  1  0
  9 17  1  0
  9 18  1  0
  9 19  1  0
M  END
