
     RDKit          3D

 22 21  0  0  0  0  0  0  0  0999 V2000
    3.0770    0.3318   -2.1875 C   0  0  0  0  0  0  0  0  0  0  0  0
    1.9190   -0.0616   -1.8611 C   0  0  0  0  0  0  0  0  0  0  0  0
    0.7706   -0.4545   -1.5141 C   0  0  0  0  0  0  0  0  0  0  0  0
   -0.7147   -0.9706   -1.0348 C   0  0  0  0  0  0  0  0  0  0  0  0
   -0.6902   -0.4026    0.3160 C   0  0  0  0  0  0  0  0  0  0  0  0
   -0.5791    1.1384    0.1565 C   0  0  0  0  0  0  0  0  0  0  0  0
   -1.7333   -0.7183    1.3073 C   0  0  0  0  0  0  0  0  0  0  0  0
   -1.3208    0.0396    2.6135 C   0  0  0  0  0  0  0  0  0  0  0  0
    3.5357   -0.2371   -3.1611 H   0  0  0  0  0  0  0  0  0  0  0  0
    3.9186    0.2521   -1.4233 H   0  0  0  0  0  0  0  0  0  0  0  0
    3.1574    1.4201   -2.6803 H   0  0  0  0  0  0  0  0  0  0  0  0
   -1.3101   -0.4581   -1.7924 H   0  0  0  0  0  0  0  0  0  0  0  0
   -0.6069   -2.0205   -1.1280 H   0  0  0  0  0  0  0  0  0  0  0  0
    0.3138   -0.7235    0.7923 H   0  0  0  0  0  0  0  0  0  0  0  0
   -0.1183    1.5618    1.0543 H   0  0  0  0  0  0  0  0  0  0  0  0
    0.1130    1.3472   -0.7165 H   0  0  0  0  0  0  0  0  0  0  0  0
   -1.5540    1.5728   -0.0556 H   0  0  0  0  0  0  0  0  0  0  0  0
   -1.8193   -1.8020    1.5528 H   0  0  0  0  0  0  0  0  0  0  0  0
   -2.7287   -0.3465    1.0149 H   0  0  0  0  0  0  0  0  0  0  0  0
   -1.3776   -0.6523    3.4764 H   0  0  0  0  0  0  0  0  0  0  0  0
   -1.9897    0.8599    2.7641 H   0  0  0  0  0  0  0  0  0  0  0  0
   -0.2624    0.3238    2.5064 H   0  0  0  0  0  0  0  0  0  0  0  0
  1  2  1  0
  2  3  3  0
  3  4  1  0
  4  5  1  0
  5  6  1  0
  5  7  1  0
  7  8  1  0
  1  9  1  0
  1 10  1  0
  1 11  1  0
  4 12  1  0
  4 13  1  0
  5 14  1  0
  6 15  1  0
  6 16  1  0
  6 17  1  0
  7 18  1  0
  7 19  1  0
  8 20  1  0
  8 21  1  0
  8 22  1  0
M  END
