
     RDKit          3D

 17 17  0  0  0  0  0  0  0  0999 V2000
    3.3199   -0.1258    0.3087 C   0  0  0  0  0  0  0  0  0  0  0  0
    1.8632   -0.0223    0.1869 C   0  0  0  0  0  0  0  0  0  0  0  0
    0.6454    0.0536    0.1036 C   0  0  0  0  0  0  0  0  0  0  0  0
   -0.8111    0.1444   -0.0217 C   0  0  0  0  0  0  0  0  0  0  0  0
   -1.4230    1.5023   -0.3134 C   0  0  0  0  0  0  0  0  0  0  0  0
   -1.4693   -1.0563   -0.7354 C   0  0  0  0  0  0  0  0  0  0  0  0
   -1.6461   -0.8102    0.7107 C   0  0  0  0  0  0  0  0  0  0  0  0
    3.5373   -0.6117    1.2667 H   0  0  0  0  0  0  0  0  0  0  0  0
    3.7993    0.8808    0.2050 H   0  0  0  0  0  0  0  0  0  0  0  0
    3.7528   -0.7372   -0.5263 H   0  0  0  0  0  0  0  0  0  0  0  0
   -1.7151    1.6011   -1.3787 H   0  0  0  0  0  0  0  0  0  0  0  0
   -0.6812    2.2897   -0.0498 H   0  0  0  0  0  0  0  0  0  0  0  0
   -2.2852    1.6552    0.3608 H   0  0  0  0  0  0  0  0  0  0  0  0
   -2.2307   -0.8331   -1.4803 H   0  0  0  0  0  0  0  0  0  0  0  0
   -0.7678   -1.8779   -1.0587 H   0  0  0  0  0  0  0  0  0  0  0  0
   -1.1934   -1.5243    1.4075 H   0  0  0  0  0  0  0  0  0  0  0  0
   -2.6950   -0.5283    1.0144 H   0  0  0  0  0  0  0  0  0  0  0  0
  1  2  1  0
  2  3  3  0
  3  4  1  0
  4  5  1  0
  4  6  1  0
  6  7  1  0
  7  4  1  0
  1  8  1  0
  1  9  1  0
  1 10  1  0
  5 11  1  0
  5 12  1  0
  5 13  1  0
  6 14  1  0
  6 15  1  0
  7 16  1  0
  7 17  1  0
M  END
