
     RDKit          3D

 19 19  0  0  0  0  0  0  0  0999 V2000
    3.6282   -1.1961   -0.6278 C   0  0  0  0  0  0  0  0  0  0  0  0
    2.1618   -1.1131   -0.6674 C   0  0  0  0  0  0  0  0  0  0  0  0
    0.9462   -1.0269   -0.6881 C   0  0  0  0  0  0  0  0  0  0  0  0
   -0.5223   -0.9459   -0.7241 C   0  0  0  0  0  0  0  0  0  0  0  0
   -0.9268   -0.0201    0.4031 C   0  0  0  0  0  0  0  0  0  0  0  0
   -2.4169    0.1665    0.4983 C   0  0  0  0  0  0  0  0  0  0  0  0
   -2.5759    1.4686    0.9008 O   0  0  0  0  0  0  0  0  0  0  0  0
   -1.3807    2.1293    0.7725 C   0  0  0  0  0  0  0  0  0  0  0  0
   -0.5083    1.2935    0.0880 O   0  0  0  0  0  0  0  0  0  0  0  0
    3.9947   -0.7743   -1.5974 H   0  0  0  0  0  0  0  0  0  0  0  0
    4.0450   -0.6183    0.2351 H   0  0  0  0  0  0  0  0  0  0  0  0
    3.9509   -2.2540   -0.4898 H   0  0  0  0  0  0  0  0  0  0  0  0
   -0.8793   -0.6055   -1.6960 H   0  0  0  0  0  0  0  0  0  0  0  0
   -0.9547   -1.9279   -0.5191 H   0  0  0  0  0  0  0  0  0  0  0  0
   -0.4410   -0.2735    1.3508 H   0  0  0  0  0  0  0  0  0  0  0  0
   -2.8363   -0.0461   -0.5053 H   0  0  0  0  0  0  0  0  0  0  0  0
   -2.8936   -0.4947    1.2470 H   0  0  0  0  0  0  0  0  0  0  0  0
   -0.9142    2.3142    1.7723 H   0  0  0  0  0  0  0  0  0  0  0  0
   -1.4766    3.0976    0.2472 H   0  0  0  0  0  0  0  0  0  0  0  0
  1  2  1  0
  2  3  3  0
  3  4  1  0
  4  5  1  0
  5  6  1  0
  6  7  1  0
  7  8  1  0
  8  9  1  0
  9  5  1  0
  1 10  1  0
  1 11  1  0
  1 12  1  0
  4 13  1  0
  4 14  1  0
  5 15  1  0
  6 16  1  0
  6 17  1  0
  8 18  1  0
  8 19  1  0
M  END
