
     RDKit          3D

 23 22  0  0  0  0  0  0  0  0999 V2000
    3.6441   -1.9095   -0.2441 C   0  0  0  0  0  0  0  0  0  0  0  0
    2.3452   -1.2918   -0.5177 C   0  0  0  0  0  0  0  0  0  0  0  0
    1.2682   -0.7918   -0.7253 C   0  0  0  0  0  0  0  0  0  0  0  0
   -0.0393   -0.1869   -0.9854 C   0  0  0  0  0  0  0  0  0  0  0  0
    0.1934    1.2211   -1.4909 C   0  0  0  0  0  0  0  0  0  0  0  0
    0.8880    1.9124   -0.4805 O   0  0  0  0  0  0  0  0  0  0  0  0
   -0.8063   -0.1665    0.3172 C   0  0  0  0  0  0  0  0  0  0  0  0
   -2.1791    0.4442    0.1501 C   0  0  0  0  0  0  0  0  0  0  0  0
   -2.8457    0.4067    1.5237 C   0  0  0  0  0  0  0  0  0  0  0  0
    3.6948   -2.3698    0.7526 H   0  0  0  0  0  0  0  0  0  0  0  0
    4.4442   -1.1446   -0.3957 H   0  0  0  0  0  0  0  0  0  0  0  0
    3.8684   -2.7368   -0.9786 H   0  0  0  0  0  0  0  0  0  0  0  0
   -0.6282   -0.7297   -1.7341 H   0  0  0  0  0  0  0  0  0  0  0  0
    0.8109    1.1433   -2.4084 H   0  0  0  0  0  0  0  0  0  0  0  0
   -0.7495    1.7271   -1.7668 H   0  0  0  0  0  0  0  0  0  0  0  0
    1.0729    2.8124   -0.8590 H   0  0  0  0  0  0  0  0  0  0  0  0
   -0.2356    0.4228    1.0439 H   0  0  0  0  0  0  0  0  0  0  0  0
   -0.8900   -1.2131    0.6692 H   0  0  0  0  0  0  0  0  0  0  0  0
   -2.8269   -0.1573   -0.5146 H   0  0  0  0  0  0  0  0  0  0  0  0
   -2.0951    1.4841   -0.1936 H   0  0  0  0  0  0  0  0  0  0  0  0
   -3.8352    0.8742    1.4447 H   0  0  0  0  0  0  0  0  0  0  0  0
   -2.9341   -0.6518    1.8306 H   0  0  0  0  0  0  0  0  0  0  0  0
   -2.1651    0.9012    2.2402 H   0  0  0  0  0  0  0  0  0  0  0  0
  1  2  1  0
  2  3  3  0
  3  4  1  0
  4  5  1  0
  5  6  1  0
  4  7  1  0
  7  8  1  0
  8  9  1  0
  1 10  1  0
  1 11  1  0
  1 12  1  0
  4 13  1  0
  5 14  1  0
  5 15  1  0
  6 16  1  0
  7 17  1  0
  7 18  1  0
  8 19  1  0
  8 20  1  0
  9 21  1  0
  9 22  1  0
  9 23  1  0
M  END
