
     RDKit          3D

 17 16  0  0  0  0  0  0  0  0999 V2000
    2.1404   -1.2949    3.1638 C   0  0  0  0  0  0  0  0  0  0  0  0
    1.1637   -1.0886    2.0638 C   0  0  0  0  0  0  0  0  0  0  0  0
    0.3711   -0.9414    1.1850 C   0  0  0  0  0  0  0  0  0  0  0  0
   -0.5781   -0.7611    0.0945 C   0  0  0  0  0  0  0  0  0  0  0  0
   -1.5449   -1.5461   -0.0001 O   0  0  0  0  0  0  0  0  0  0  0  0
   -0.4331    0.2982   -0.8791 C   0  0  0  0  0  0  0  0  0  0  0  0
    0.5479    1.1057   -0.7871 O   0  0  0  0  0  0  0  0  0  0  0  0
   -1.3872    0.4917   -1.9966 C   0  0  0  0  0  0  0  0  0  0  0  0
   -1.0093    1.6619   -2.8497 C   0  0  0  0  0  0  0  0  0  0  0  0
    2.9944   -1.9165    2.8297 H   0  0  0  0  0  0  0  0  0  0  0  0
    2.4981   -0.3193    3.5018 H   0  0  0  0  0  0  0  0  0  0  0  0
    1.6711   -1.8431    4.0026 H   0  0  0  0  0  0  0  0  0  0  0  0
   -1.3773   -0.4668   -2.5752 H   0  0  0  0  0  0  0  0  0  0  0  0
   -2.4019    0.6803   -1.5804 H   0  0  0  0  0  0  0  0  0  0  0  0
   -0.2922    1.3433   -3.6628 H   0  0  0  0  0  0  0  0  0  0  0  0
   -1.8874    2.1867   -3.2693 H   0  0  0  0  0  0  0  0  0  0  0  0
   -0.4756    2.4101   -2.2074 H   0  0  0  0  0  0  0  0  0  0  0  0
  1  2  1  0
  2  3  3  0
  3  4  1  0
  4  5  2  0
  4  6  1  0
  6  7  2  0
  6  8  1  0
  8  9  1  0
  1 10  1  0
  1 11  1  0
  1 12  1  0
  8 13  1  0
  8 14  1  0
  9 15  1  0
  9 16  1  0
  9 17  1  0
M  END
