
     RDKit          3D

 16 16  0  0  0  0  0  0  0  0999 V2000
    2.8346    0.9440    0.9809 C   0  0  0  0  0  0  0  0  0  0  0  0
    1.5521    0.4063    0.5214 C   0  0  0  0  0  0  0  0  0  0  0  0
    0.5076   -0.0474    0.1303 C   0  0  0  0  0  0  0  0  0  0  0  0
   -0.7468   -0.6150   -0.3582 C   0  0  0  0  0  0  0  0  0  0  0  0
   -1.7942    0.3399   -0.8974 C   0  0  0  0  0  0  0  0  0  0  0  0
   -1.9318    1.3594    0.0271 O   0  0  0  0  0  0  0  0  0  0  0  0
   -1.1128   -1.9283    0.0293 C   0  0  0  0  0  0  0  0  0  0  0  0
   -0.4972   -1.7642   -1.2579 O   0  0  0  0  0  0  0  0  0  0  0  0
    3.6386    0.7852    0.2290 H   0  0  0  0  0  0  0  0  0  0  0  0
    3.0970    0.5288    1.9737 H   0  0  0  0  0  0  0  0  0  0  0  0
    2.6941    2.0615    1.0409 H   0  0  0  0  0  0  0  0  0  0  0  0
   -1.3851    0.7551   -1.8373 H   0  0  0  0  0  0  0  0  0  0  0  0
   -2.7775   -0.1472   -1.0145 H   0  0  0  0  0  0  0  0  0  0  0  0
   -1.4626    2.1611   -0.2713 H   0  0  0  0  0  0  0  0  0  0  0  0
   -0.4953   -2.4857    0.7799 H   0  0  0  0  0  0  0  0  0  0  0  0
   -2.1208   -2.3535   -0.0758 H   0  0  0  0  0  0  0  0  0  0  0  0
  1  2  1  0
  2  3  3  0
  3  4  1  0
  4  5  1  0
  5  6  1  0
  4  7  1  0
  7  8  1  0
  8  4  1  0
  1  9  1  0
  1 10  1  0
  1 11  1  0
  5 12  1  0
  5 13  1  0
  6 14  1  0
  7 15  1  0
  7 16  1  0
M  END
