
     RDKit          3D

 18 18  0  0  0  0  0  0  0  0999 V2000
    3.1316    0.6366   -1.0445 C   0  0  0  0  0  0  0  0  0  0  0  0
    1.9311   -0.1528   -0.8279 C   0  0  0  0  0  0  0  0  0  0  0  0
    0.9310   -0.8217   -0.6271 C   0  0  0  0  0  0  0  0  0  0  0  0
   -0.2727   -1.6233   -0.3682 C   0  0  0  0  0  0  0  0  0  0  0  0
   -1.2505   -0.8876    0.5094 C   0  0  0  0  0  0  0  0  0  0  0  0
   -0.5700   -0.5919    1.7988 O   0  0  0  0  0  0  0  0  0  0  0  0
   -1.0807    0.4578    0.9633 C   0  0  0  0  0  0  0  0  0  0  0  0
   -2.2670    1.1540    1.5927 C   0  0  0  0  0  0  0  0  0  0  0  0
    3.1556    1.5495   -0.4039 H   0  0  0  0  0  0  0  0  0  0  0  0
    4.0601    0.0880   -0.8406 H   0  0  0  0  0  0  0  0  0  0  0  0
    3.1181    0.9688   -2.1012 H   0  0  0  0  0  0  0  0  0  0  0  0
   -0.7159   -1.8732   -1.3541 H   0  0  0  0  0  0  0  0  0  0  0  0
    0.0708   -2.5847    0.0656 H   0  0  0  0  0  0  0  0  0  0  0  0
   -2.2174   -1.3983    0.6405 H   0  0  0  0  0  0  0  0  0  0  0  0
   -0.2658    1.1202    0.6172 H   0  0  0  0  0  0  0  0  0  0  0  0
   -2.7030    0.5510    2.4151 H   0  0  0  0  0  0  0  0  0  0  0  0
   -1.9585    2.1263    2.0212 H   0  0  0  0  0  0  0  0  0  0  0  0
   -3.0970    1.2813    0.8502 H   0  0  0  0  0  0  0  0  0  0  0  0
  1  2  1  0
  2  3  3  0
  3  4  1  0
  4  5  1  0
  5  6  1  0
  6  7  1  0
  7  8  1  0
  7  5  1  0
  1  9  1  0
  1 10  1  0
  1 11  1  0
  4 12  1  0
  4 13  1  0
  5 14  1  0
  7 15  1  0
  8 16  1  0
  8 17  1  0
  8 18  1  0
M  END
