
     RDKit          3D

 21 22  0  0  0  0  0  0  0  0999 V2000
    4.0894    0.1099   -0.6525 C   0  0  0  0  0  0  0  0  0  0  0  0
    2.7372   -0.3303   -0.3028 C   0  0  0  0  0  0  0  0  0  0  0  0
    1.6176   -0.6840   -0.0080 C   0  0  0  0  0  0  0  0  0  0  0  0
    0.2389   -1.0928    0.3574 C   0  0  0  0  0  0  0  0  0  0  0  0
   -0.5711   -0.1345    0.9793 C   0  0  0  0  0  0  0  0  0  0  0  0
   -1.0752    1.2047    0.6096 C   0  0  0  0  0  0  0  0  0  0  0  0
   -2.4802    0.7847    0.1194 C   0  0  0  0  0  0  0  0  0  0  0  0
   -2.3098   -0.6884   -0.3100 C   0  0  0  0  0  0  0  0  0  0  0  0
   -0.8408   -0.7339   -0.4624 C   0  0  0  0  0  0  0  0  0  0  0  0
    4.8271   -0.6673   -0.4284 H   0  0  0  0  0  0  0  0  0  0  0  0
    4.3945    1.0250   -0.0992 H   0  0  0  0  0  0  0  0  0  0  0  0
    4.1543    0.2989   -1.7584 H   0  0  0  0  0  0  0  0  0  0  0  0
    0.2695   -2.1489    0.7534 H   0  0  0  0  0  0  0  0  0  0  0  0
   -1.2453   -0.5397    1.7995 H   0  0  0  0  0  0  0  0  0  0  0  0
   -0.5531    1.6760   -0.2593 H   0  0  0  0  0  0  0  0  0  0  0  0
   -1.1338    1.8604    1.4785 H   0  0  0  0  0  0  0  0  0  0  0  0
   -2.7916    1.4099   -0.7215 H   0  0  0  0  0  0  0  0  0  0  0  0
   -3.2185    0.8692    0.9413 H   0  0  0  0  0  0  0  0  0  0  0  0
   -2.8596   -0.8835   -1.2485 H   0  0  0  0  0  0  0  0  0  0  0  0
   -2.6877   -1.2847    0.5384 H   0  0  0  0  0  0  0  0  0  0  0  0
   -0.5619   -0.0506   -1.3256 H   0  0  0  0  0  0  0  0  0  0  0  0
  1  2  1  0
  2  3  3  0
  3  4  1  0
  4  5  1  0
  5  6  1  0
  6  7  1  0
  7  8  1  0
  8  9  1  0
  9  4  1  0
  9  5  1  0
  1 10  1  0
  1 11  1  0
  1 12  1  0
  4 13  1  0
  5 14  1  0
  6 15  1  0
  6 16  1  0
  7 17  1  0
  7 18  1  0
  8 19  1  0
  8 20  1  0
  9 21  1  0
M  END
