
     RDKit          3D

 16 15  0  0  0  0  0  0  0  0999 V2000
    3.4267   -0.4715    1.1122 C   0  0  0  0  0  0  0  0  0  0  0  0
    2.3176   -0.5814    0.1627 C   0  0  0  0  0  0  0  0  0  0  0  0
    1.3934   -0.6636   -0.6031 C   0  0  0  0  0  0  0  0  0  0  0  0
    0.2893   -0.7596   -1.5380 C   0  0  0  0  0  0  0  0  0  0  0  0
   -0.8392   -0.0052   -0.9901 C   0  0  0  0  0  0  0  0  0  0  0  0
   -1.7845    0.6081   -0.5489 C   0  0  0  0  0  0  0  0  0  0  0  0
   -2.9268    1.3591    0.0125 C   0  0  0  0  0  0  0  0  0  0  0  0
   -3.8934    0.4498    0.4714 O   0  0  0  0  0  0  0  0  0  0  0  0
    4.1742   -1.2629    0.9527 H   0  0  0  0  0  0  0  0  0  0  0  0
    3.8527    0.5508    1.0239 H   0  0  0  0  0  0  0  0  0  0  0  0
    2.9735   -0.5480    2.1265 H   0  0  0  0  0  0  0  0  0  0  0  0
   -0.0145   -1.8283   -1.6807 H   0  0  0  0  0  0  0  0  0  0  0  0
    0.5611   -0.4059   -2.5687 H   0  0  0  0  0  0  0  0  0  0  0  0
   -3.4280    1.9787   -0.7652 H   0  0  0  0  0  0  0  0  0  0  0  0
   -2.6001    2.0288    0.8123 H   0  0  0  0  0  0  0  0  0  0  0  0
   -3.5021   -0.4488    0.4697 H   0  0  0  0  0  0  0  0  0  0  0  0
  1  2  1  0
  2  3  3  0
  3  4  1  0
  4  5  1  0
  5  6  3  0
  6  7  1  0
  7  8  1  0
  1  9  1  0
  1 10  1  0
  1 11  1  0
  4 12  1  0
  4 13  1  0
  7 14  1  0
  7 15  1  0
  8 16  1  0
M  END
