
     RDKit          3D

 23 23  0  0  0  0  0  0  0  0999 V2000
    3.6944    0.6717    0.2170 C   0  0  0  0  0  0  0  0  0  0  0  0
    2.3022    0.2229    0.1438 C   0  0  0  0  0  0  0  0  0  0  0  0
    1.1370   -0.1304    0.0835 C   0  0  0  0  0  0  0  0  0  0  0  0
   -0.2557   -0.5730    0.0131 C   0  0  0  0  0  0  0  0  0  0  0  0
   -0.3228   -2.0769   -0.0545 C   0  0  0  0  0  0  0  0  0  0  0  0
   -0.9315   -0.0315   -1.2291 C   0  0  0  0  0  0  0  0  0  0  0  0
   -1.5905    1.2381   -0.7733 C   0  0  0  0  0  0  0  0  0  0  0  0
   -2.1526    0.8306    0.5786 C   0  0  0  0  0  0  0  0  0  0  0  0
   -0.9971    0.0109    1.1628 C   0  0  0  0  0  0  0  0  0  0  0  0
    4.1527    0.4171    1.1848 H   0  0  0  0  0  0  0  0  0  0  0  0
    3.7148    1.7683    0.0316 H   0  0  0  0  0  0  0  0  0  0  0  0
    4.3266    0.1844   -0.5680 H   0  0  0  0  0  0  0  0  0  0  0  0
   -1.3136   -2.4779    0.1566 H   0  0  0  0  0  0  0  0  0  0  0  0
    0.4209   -2.4807    0.6817 H   0  0  0  0  0  0  0  0  0  0  0  0
    0.0311   -2.3872   -1.0674 H   0  0  0  0  0  0  0  0  0  0  0  0
   -1.6480   -0.7636   -1.6431 H   0  0  0  0  0  0  0  0  0  0  0  0
   -0.1110    0.1871   -1.9575 H   0  0  0  0  0  0  0  0  0  0  0  0
   -2.3807    1.5842   -1.4687 H   0  0  0  0  0  0  0  0  0  0  0  0
   -0.7972    2.0165   -0.6612 H   0  0  0  0  0  0  0  0  0  0  0  0
   -2.3853    1.6995    1.1943 H   0  0  0  0  0  0  0  0  0  0  0  0
   -3.0315    0.1795    0.3570 H   0  0  0  0  0  0  0  0  0  0  0  0
   -0.3981    0.6668    1.8182 H   0  0  0  0  0  0  0  0  0  0  0  0
   -1.4641   -0.7566    1.7997 H   0  0  0  0  0  0  0  0  0  0  0  0
  1  2  1  0
  2  3  3  0
  3  4  1  0
  4  5  1  0
  4  6  1  0
  6  7  1  0
  7  8  1  0
  8  9  1  0
  9  4  1  0
  1 10  1  0
  1 11  1  0
  1 12  1  0
  5 13  1  0
  5 14  1  0
  5 15  1  0
  6 16  1  0
  6 17  1  0
  7 18  1  0
  7 19  1  0
  8 20  1  0
  8 21  1  0
  9 22  1  0
  9 23  1  0
M  END
