
     RDKit          3D

 20 19  0  0  0  0  0  0  0  0999 V2000
    3.9459   -1.9268    0.8415 C   0  0  0  0  0  0  0  0  0  0  0  0
    2.7694   -1.1073    0.7476 C   0  0  0  0  0  0  0  0  0  0  0  0
    1.7435   -0.3723    0.6503 C   0  0  0  0  0  0  0  0  0  0  0  0
    0.5859    0.4527    0.5168 C   0  0  0  0  0  0  0  0  0  0  0  0
   -0.5172   -0.2095   -0.0106 O   0  0  0  0  0  0  0  0  0  0  0  0
   -1.5595    0.7120   -0.1372 C   0  0  0  0  0  0  0  0  0  0  0  0
   -1.9061    0.8408   -1.6165 C   0  0  0  0  0  0  0  0  0  0  0  0
   -2.7819    0.4281    0.6736 C   0  0  0  0  0  0  0  0  0  0  0  0
    4.8538   -1.2450    1.0648 H   0  0  0  0  0  0  0  0  0  0  0  0
    4.1563   -2.4472   -0.1037 H   0  0  0  0  0  0  0  0  0  0  0  0
    3.9652   -2.6492    1.6937 H   0  0  0  0  0  0  0  0  0  0  0  0
    0.2057    0.7796    1.5621 H   0  0  0  0  0  0  0  0  0  0  0  0
    0.7381    1.3757   -0.0660 H   0  0  0  0  0  0  0  0  0  0  0  0
   -1.2197    1.7265    0.2012 H   0  0  0  0  0  0  0  0  0  0  0  0
   -2.1824    1.8769   -1.8806 H   0  0  0  0  0  0  0  0  0  0  0  0
   -1.0032    0.5871   -2.2446 H   0  0  0  0  0  0  0  0  0  0  0  0
   -2.6809    0.1242   -1.8851 H   0  0  0  0  0  0  0  0  0  0  0  0
   -3.2987    1.3709    0.9792 H   0  0  0  0  0  0  0  0  0  0  0  0
   -2.3937    0.0316    1.6633 H   0  0  0  0  0  0  0  0  0  0  0  0
   -3.4204   -0.3488    0.2586 H   0  0  0  0  0  0  0  0  0  0  0  0
  1  2  1  0
  2  3  3  0
  3  4  1  0
  4  5  1  0
  5  6  1  0
  6  7  1  0
  6  8  1  0
  1  9  1  0
  1 10  1  0
  1 11  1  0
  4 12  1  0
  4 13  1  0
  6 14  1  0
  7 15  1  0
  7 16  1  0
  7 17  1  0
  8 18  1  0
  8 19  1  0
  8 20  1  0
M  END
