
     RDKit          3D

 21 22  0  0  0  0  0  0  0  0999 V2000
    2.7251    2.1113    0.7538 C   0  0  0  0  0  0  0  0  0  0  0  0
    1.7638    1.1166    0.2764 C   0  0  0  0  0  0  0  0  0  0  0  0
    0.9866    0.2921   -0.1306 C   0  0  0  0  0  0  0  0  0  0  0  0
    0.0419   -0.6819   -0.6013 C   0  0  0  0  0  0  0  0  0  0  0  0
    0.3910   -2.0892   -0.8617 C   0  0  0  0  0  0  0  0  0  0  0  0
   -0.2271   -1.8229    0.4382 C   0  0  0  0  0  0  0  0  0  0  0  0
   -1.5717   -1.2015    0.6133 C   0  0  0  0  0  0  0  0  0  0  0  0
   -1.4026   -0.3337   -0.5901 C   0  0  0  0  0  0  0  0  0  0  0  0
   -1.7918    1.0911   -0.4814 C   0  0  0  0  0  0  0  0  0  0  0  0
    2.4178    2.5461    1.7270 H   0  0  0  0  0  0  0  0  0  0  0  0
    3.7301    1.6725    0.9249 H   0  0  0  0  0  0  0  0  0  0  0  0
    2.8634    2.8732   -0.0428 H   0  0  0  0  0  0  0  0  0  0  0  0
    1.4525   -2.3255   -0.8974 H   0  0  0  0  0  0  0  0  0  0  0  0
   -0.2534   -2.6111   -1.6176 H   0  0  0  0  0  0  0  0  0  0  0  0
    0.4261   -1.8634    1.3178 H   0  0  0  0  0  0  0  0  0  0  0  0
   -2.4121   -1.9146    0.5938 H   0  0  0  0  0  0  0  0  0  0  0  0
   -1.5926   -0.5578    1.5382 H   0  0  0  0  0  0  0  0  0  0  0  0
   -1.9147   -0.8253   -1.4696 H   0  0  0  0  0  0  0  0  0  0  0  0
   -2.7265    1.2823    0.0756 H   0  0  0  0  0  0  0  0  0  0  0  0
   -1.9371    1.5143   -1.5184 H   0  0  0  0  0  0  0  0  0  0  0  0
   -0.9687    1.7274   -0.0477 H   0  0  0  0  0  0  0  0  0  0  0  0
  1  2  1  0
  2  3  3  0
  3  4  1  0
  4  5  1  0
  5  6  1  0
  6  7  1  0
  7  8  1  0
  8  9  1  0
  6  4  1  0
  8  4  1  0
  1 10  1  0
  1 11  1  0
  1 12  1  0
  5 13  1  0
  5 14  1  0
  6 15  1  0
  7 16  1  0
  7 17  1  0
  8 18  1  0
  9 19  1  0
  9 20  1  0
  9 21  1  0
M  END
