
     RDKit          3D

 17 16  0  0  0  0  0  0  0  0999 V2000
    3.4871   -1.1072   -1.3522 C   0  0  0  0  0  0  0  0  0  0  0  0
    2.1021   -1.1563   -1.1435 C   0  0  0  0  0  0  0  0  0  0  0  0
    0.8297   -1.2088   -0.9471 C   0  0  0  0  0  0  0  0  0  0  0  0
   -0.8422   -1.2617   -0.7142 C   0  0  0  0  0  0  0  0  0  0  0  0
   -1.0440   -0.5014    0.1176 C   0  0  0  0  0  0  0  0  0  0  0  0
   -1.2594    0.2981    1.0232 C   0  0  0  0  0  0  0  0  0  0  0  0
   -1.5260    1.3127    2.2103 C   0  0  0  0  0  0  0  0  0  0  0  0
   -2.6746    2.0378    1.8101 C   0  0  0  0  0  0  0  0  0  0  0  0
   -3.1076    3.1049    2.4719 O   0  0  0  0  0  0  0  0  0  0  0  0
    3.9978   -1.3947   -0.3781 H   0  0  0  0  0  0  0  0  0  0  0  0
    3.7376    0.0264   -1.5058 H   0  0  0  0  0  0  0  0  0  0  0  0
    3.8849   -1.7059   -2.1600 H   0  0  0  0  0  0  0  0  0  0  0  0
   -1.0365   -2.1964   -1.1925 H   0  0  0  0  0  0  0  0  0  0  0  0
   -0.9146   -0.6091   -1.9199 H   0  0  0  0  0  0  0  0  0  0  0  0
   -1.7034    0.6644    3.1166 H   0  0  0  0  0  0  0  0  0  0  0  0
   -0.6077    1.8614    2.3503 H   0  0  0  0  0  0  0  0  0  0  0  0
   -3.3232    1.8358    0.9843 H   0  0  0  0  0  0  0  0  0  0  0  0
  1  2  1  0
  2  3  3  0
  3  4  1  0
  4  5  1  0
  5  6  3  0
  6  7  1  0
  7  8  1  0
  8  9  2  0
  1 10  1  0
  1 11  1  0
  1 12  1  0
  4 13  1  0
  4 14  1  0
  7 15  1  0
  7 16  1  0
  8 17  1  0
M  END
