
     RDKit          3D

 15 14  0  0  0  0  0  0  0  0999 V2000
    3.0858   -2.1789   -0.1901 C   0  0  0  0  0  0  0  0  0  0  0  0
    2.0576   -1.2010   -0.5356 C   0  0  0  0  0  0  0  0  0  0  0  0
    1.2020   -0.4151   -0.8231 C   0  0  0  0  0  0  0  0  0  0  0  0
    0.1845    0.5529   -1.1655 C   0  0  0  0  0  0  0  0  0  0  0  0
    0.2685    1.2394   -2.2035 O   0  0  0  0  0  0  0  0  0  0  0  0
   -0.9308    0.6864   -0.2493 C   0  0  0  0  0  0  0  0  0  0  0  0
   -1.0335   -0.0130    0.8051 O   0  0  0  0  0  0  0  0  0  0  0  0
   -1.9871    1.5898   -0.4391 O   0  0  0  0  0  0  0  0  0  0  0  0
   -3.0575    1.6877    0.4811 C   0  0  0  0  0  0  0  0  0  0  0  0
    2.7501   -3.2110   -0.3886 H   0  0  0  0  0  0  0  0  0  0  0  0
    4.0508   -1.9515   -0.7343 H   0  0  0  0  0  0  0  0  0  0  0  0
    3.3465   -2.0557    0.8999 H   0  0  0  0  0  0  0  0  0  0  0  0
   -2.9453    2.6947    0.9764 H   0  0  0  0  0  0  0  0  0  0  0  0
   -4.0312    1.6267   -0.0173 H   0  0  0  0  0  0  0  0  0  0  0  0
   -2.9606    0.9486    1.3037 H   0  0  0  0  0  0  0  0  0  0  0  0
  1  2  1  0
  2  3  3  0
  3  4  1  0
  4  5  2  0
  4  6  1  0
  6  7  2  0
  6  8  1  0
  8  9  1  0
  1 10  1  0
  1 11  1  0
  1 12  1  0
  9 13  1  0
  9 14  1  0
  9 15  1  0
M  END
