
     RDKit          3D

 21 21  0  0  0  0  0  0  0  0999 V2000
    3.3914   -0.5958    1.4610 C   0  0  0  0  0  0  0  0  0  0  0  0
    2.2712   -0.2470    0.5829 C   0  0  0  0  0  0  0  0  0  0  0  0
    1.3447    0.0317   -0.1651 C   0  0  0  0  0  0  0  0  0  0  0  0
    0.2235    0.3713   -1.0441 C   0  0  0  0  0  0  0  0  0  0  0  0
   -0.7265   -0.7263   -1.3129 C   0  0  0  0  0  0  0  0  0  0  0  0
   -0.5939   -1.9667   -0.7119 O   0  0  0  0  0  0  0  0  0  0  0  0
   -1.1190    0.4620   -0.4677 C   0  0  0  0  0  0  0  0  0  0  0  0
   -2.0544    1.5006   -1.0367 C   0  0  0  0  0  0  0  0  0  0  0  0
   -1.3960    0.1101    0.9770 C   0  0  0  0  0  0  0  0  0  0  0  0
    3.6273    0.2356    2.1679 H   0  0  0  0  0  0  0  0  0  0  0  0
    4.3383   -0.7446    0.8727 H   0  0  0  0  0  0  0  0  0  0  0  0
    3.1005   -1.5016    2.0173 H   0  0  0  0  0  0  0  0  0  0  0  0
    0.4378    1.0291   -1.9300 H   0  0  0  0  0  0  0  0  0  0  0  0
   -1.2516   -0.7652   -2.2901 H   0  0  0  0  0  0  0  0  0  0  0  0
   -0.2018   -2.5970   -1.3413 H   0  0  0  0  0  0  0  0  0  0  0  0
   -1.4878    2.1710   -1.7290 H   0  0  0  0  0  0  0  0  0  0  0  0
   -2.8465    1.0353   -1.6647 H   0  0  0  0  0  0  0  0  0  0  0  0
   -2.4457    2.1233   -0.2209 H   0  0  0  0  0  0  0  0  0  0  0  0
   -0.8599   -0.7774    1.3235 H   0  0  0  0  0  0  0  0  0  0  0  0
   -1.2598    0.9973    1.6275 H   0  0  0  0  0  0  0  0  0  0  0  0
   -2.4918   -0.1455    1.0320 H   0  0  0  0  0  0  0  0  0  0  0  0
  1  2  1  0
  2  3  3  0
  3  4  1  0
  4  5  1  0
  5  6  1  0
  5  7  1  0
  7  8  1  0
  7  9  1  0
  7  4  1  0
  1 10  1  0
  1 11  1  0
  1 12  1  0
  4 13  1  0
  5 14  1  0
  6 15  1  0
  8 16  1  0
  8 17  1  0
  8 18  1  0
  9 19  1  0
  9 20  1  0
  9 21  1  0
M  END
