
     RDKit          3D

 19 19  0  0  0  0  0  0  0  0999 V2000
    2.6857   -0.3702    2.5692 C   0  0  0  0  0  0  0  0  0  0  0  0
    1.9164    0.0697    1.4048 C   0  0  0  0  0  0  0  0  0  0  0  0
    1.2901    0.4407    0.4183 C   0  0  0  0  0  0  0  0  0  0  0  0
    0.5233    0.8912   -0.7444 C   0  0  0  0  0  0  0  0  0  0  0  0
   -0.9160    0.5571   -0.4973 C   0  0  0  0  0  0  0  0  0  0  0  0
   -1.1900   -0.9201   -0.3001 C   0  0  0  0  0  0  0  0  0  0  0  0
   -2.1950   -0.8764   -1.3922 C   0  0  0  0  0  0  0  0  0  0  0  0
   -3.0151   -1.6252   -1.8882 O   0  0  0  0  0  0  0  0  0  0  0  0
   -1.8155    0.5280   -1.6954 C   0  0  0  0  0  0  0  0  0  0  0  0
    2.2597   -1.3416    2.9007 H   0  0  0  0  0  0  0  0  0  0  0  0
    2.5569    0.3579    3.3937 H   0  0  0  0  0  0  0  0  0  0  0  0
    3.7676   -0.4717    2.3479 H   0  0  0  0  0  0  0  0  0  0  0  0
    0.5874    2.0146   -0.7910 H   0  0  0  0  0  0  0  0  0  0  0  0
    0.9014    0.4559   -1.6793 H   0  0  0  0  0  0  0  0  0  0  0  0
   -1.2951    1.1328    0.3760 H   0  0  0  0  0  0  0  0  0  0  0  0
   -0.3279   -1.5900   -0.4713 H   0  0  0  0  0  0  0  0  0  0  0  0
   -1.6998   -1.1659    0.6559 H   0  0  0  0  0  0  0  0  0  0  0  0
   -2.6744    1.2342   -1.5329 H   0  0  0  0  0  0  0  0  0  0  0  0
   -1.3598    0.6790   -2.6733 H   0  0  0  0  0  0  0  0  0  0  0  0
  1  2  1  0
  2  3  3  0
  3  4  1  0
  4  5  1  0
  5  6  1  0
  6  7  1  0
  7  8  2  0
  7  9  1  0
  9  5  1  0
  1 10  1  0
  1 11  1  0
  1 12  1  0
  4 13  1  0
  4 14  1  0
  5 15  1  0
  6 16  1  0
  6 17  1  0
  9 18  1  0
  9 19  1  0
M  END
