
     RDKit          3D

 21 22  0  0  0  0  0  0  0  0999 V2000
    2.5755    1.2338   -2.4262 C   0  0  0  0  0  0  0  0  0  0  0  0
    1.4156    0.6365   -1.7596 C   0  0  0  0  0  0  0  0  0  0  0  0
    0.4367    0.1526   -1.2141 C   0  0  0  0  0  0  0  0  0  0  0  0
   -0.7291   -0.4392   -0.5480 C   0  0  0  0  0  0  0  0  0  0  0  0
   -0.4843   -1.8918   -0.1103 C   0  0  0  0  0  0  0  0  0  0  0  0
   -0.0336   -1.3029    1.2329 C   0  0  0  0  0  0  0  0  0  0  0  0
   -0.8491   -0.1184    0.9021 C   0  0  0  0  0  0  0  0  0  0  0  0
   -2.0400    0.3289    1.5721 C   0  0  0  0  0  0  0  0  0  0  0  0
   -0.7578    1.1886    1.4962 C   0  0  0  0  0  0  0  0  0  0  0  0
    3.5387    0.8719   -1.9659 H   0  0  0  0  0  0  0  0  0  0  0  0
    2.6372    0.9616   -3.4961 H   0  0  0  0  0  0  0  0  0  0  0  0
    2.5321    2.3247   -2.2475 H   0  0  0  0  0  0  0  0  0  0  0  0
   -1.6535   -0.2956   -1.1289 H   0  0  0  0  0  0  0  0  0  0  0  0
    0.3260   -2.3554   -0.6830 H   0  0  0  0  0  0  0  0  0  0  0  0
   -1.4021   -2.4833   -0.0128 H   0  0  0  0  0  0  0  0  0  0  0  0
    1.0656   -1.0612    1.1333 H   0  0  0  0  0  0  0  0  0  0  0  0
   -0.3090   -1.9038    2.0999 H   0  0  0  0  0  0  0  0  0  0  0  0
   -2.3139   -0.0602    2.5791 H   0  0  0  0  0  0  0  0  0  0  0  0
   -2.9101    0.7712    1.0471 H   0  0  0  0  0  0  0  0  0  0  0  0
   -0.8313    2.1297    0.8971 H   0  0  0  0  0  0  0  0  0  0  0  0
   -0.2139    1.3122    2.4556 H   0  0  0  0  0  0  0  0  0  0  0  0
  1  2  1  0
  2  3  3  0
  3  4  1  0
  4  5  1  0
  5  6  1  0
  6  7  1  0
  7  8  1  0
  8  9  1  0
  7  4  1  0
  9  7  1  0
  1 10  1  0
  1 11  1  0
  1 12  1  0
  4 13  1  0
  5 14  1  0
  5 15  1  0
  6 16  1  0
  6 17  1  0
  8 18  1  0
  8 19  1  0
  9 20  1  0
  9 21  1  0
M  END
