
     RDKit          3D

 19 19  0  0  0  0  0  0  0  0999 V2000
    3.6449    0.9508    0.3355 C   0  0  0  0  0  0  0  0  0  0  0  0
    2.3768    0.5683   -0.2978 C   0  0  0  0  0  0  0  0  0  0  0  0
    1.3414    0.2426   -0.8320 C   0  0  0  0  0  0  0  0  0  0  0  0
    0.0727   -0.1571   -1.4582 C   0  0  0  0  0  0  0  0  0  0  0  0
   -0.9709   -0.2778   -0.4237 C   0  0  0  0  0  0  0  0  0  0  0  0
   -0.8853   -0.0809    0.8847 C   0  0  0  0  0  0  0  0  0  0  0  0
   -2.2200   -0.3308    1.4981 C   0  0  0  0  0  0  0  0  0  0  0  0
   -3.0832   -0.1010    0.4483 O   0  0  0  0  0  0  0  0  0  0  0  0
   -2.3936   -0.6593   -0.6476 C   0  0  0  0  0  0  0  0  0  0  0  0
    4.3425    0.0812    0.4144 H   0  0  0  0  0  0  0  0  0  0  0  0
    4.1484    1.6964   -0.3395 H   0  0  0  0  0  0  0  0  0  0  0  0
    3.4825    1.3736    1.3537 H   0  0  0  0  0  0  0  0  0  0  0  0
   -0.2341    0.5950   -2.2389 H   0  0  0  0  0  0  0  0  0  0  0  0
    0.2060   -1.1147   -2.0421 H   0  0  0  0  0  0  0  0  0  0  0  0
    0.0237    0.2142    1.3979 H   0  0  0  0  0  0  0  0  0  0  0  0
   -2.3409    0.3510    2.3446 H   0  0  0  0  0  0  0  0  0  0  0  0
   -2.2949   -1.4052    1.8014 H   0  0  0  0  0  0  0  0  0  0  0  0
   -2.4241   -1.7790   -0.5912 H   0  0  0  0  0  0  0  0  0  0  0  0
   -2.7920   -0.3472   -1.6076 H   0  0  0  0  0  0  0  0  0  0  0  0
  1  2  1  0
  2  3  3  0
  3  4  1  0
  4  5  1  0
  5  6  2  0
  6  7  1  0
  7  8  1  0
  8  9  1  0
  9  5  1  0
  1 10  1  0
  1 11  1  0
  1 12  1  0
  4 13  1  0
  4 14  1  0
  6 15  1  0
  7 16  1  0
  7 17  1  0
  9 18  1  0
  9 19  1  0
M  END
