
     RDKit          3D

 17 17  0  0  0  0  0  0  0  0999 V2000
    3.8175    0.1364   -0.6209 C   0  0  0  0  0  0  0  0  0  0  0  0
    2.3529    0.0567   -0.4505 C   0  0  0  0  0  0  0  0  0  0  0  0
    1.1640   -0.0165   -0.3206 C   0  0  0  0  0  0  0  0  0  0  0  0
   -0.2741   -0.1238   -0.1479 C   0  0  0  0  0  0  0  0  0  0  0  0
   -0.6729   -1.0046    0.8838 O   0  0  0  0  0  0  0  0  0  0  0  0
   -1.6992   -0.1152    1.1677 C   0  0  0  0  0  0  0  0  0  0  0  0
   -2.9353   -0.4611    0.3860 C   0  0  0  0  0  0  0  0  0  0  0  0
   -0.8659    0.9672    0.6203 C   0  0  0  0  0  0  0  0  0  0  0  0
   -0.7801    2.1646    0.7853 O   0  0  0  0  0  0  0  0  0  0  0  0
    4.0542   -0.0642   -1.6781 H   0  0  0  0  0  0  0  0  0  0  0  0
    4.1353    1.1711   -0.4097 H   0  0  0  0  0  0  0  0  0  0  0  0
    4.2517   -0.6121    0.0437 H   0  0  0  0  0  0  0  0  0  0  0  0
   -0.7758   -0.3026   -1.1144 H   0  0  0  0  0  0  0  0  0  0  0  0
   -1.9567   -0.0204    2.2505 H   0  0  0  0  0  0  0  0  0  0  0  0
   -3.3352   -1.4110    0.8232 H   0  0  0  0  0  0  0  0  0  0  0  0
   -2.7457   -0.6612   -0.6741 H   0  0  0  0  0  0  0  0  0  0  0  0
   -3.7348    0.2967    0.4792 H   0  0  0  0  0  0  0  0  0  0  0  0
  1  2  1  0
  2  3  3  0
  3  4  1  0
  4  5  1  0
  5  6  1  0
  6  7  1  0
  6  8  1  0
  8  9  2  0
  8  4  1  0
  1 10  1  0
  1 11  1  0
  1 12  1  0
  4 13  1  0
  6 14  1  0
  7 15  1  0
  7 16  1  0
  7 17  1  0
M  END
