
     RDKit          3D

 18 17  0  0  0  0  0  0  0  0999 V2000
    4.0215    0.0692    0.0062 C   0  0  0  0  0  0  0  0  0  0  0  0
    2.6432   -0.3482    0.2647 C   0  0  0  0  0  0  0  0  0  0  0  0
    1.4888   -0.6863    0.4993 C   0  0  0  0  0  0  0  0  0  0  0  0
    0.1113   -1.0999    0.7581 C   0  0  0  0  0  0  0  0  0  0  0  0
   -0.8265   -0.0055    0.4156 C   0  0  0  0  0  0  0  0  0  0  0  0
   -0.3796    1.0386   -0.0114 O   0  0  0  0  0  0  0  0  0  0  0  0
   -2.3126   -0.1553    0.5831 C   0  0  0  0  0  0  0  0  0  0  0  0
   -2.9997    1.1139    0.1560 C   0  0  0  0  0  0  0  0  0  0  0  0
    4.2240    1.0827    0.4194 H   0  0  0  0  0  0  0  0  0  0  0  0
    4.2219    0.1548   -1.0939 H   0  0  0  0  0  0  0  0  0  0  0  0
    4.7198   -0.6891    0.4337 H   0  0  0  0  0  0  0  0  0  0  0  0
   -0.1880   -1.9795    0.1308 H   0  0  0  0  0  0  0  0  0  0  0  0
    0.0469   -1.4053    1.8207 H   0  0  0  0  0  0  0  0  0  0  0  0
   -2.5407   -0.3504    1.6385 H   0  0  0  0  0  0  0  0  0  0  0  0
   -2.6580   -1.0276   -0.0064 H   0  0  0  0  0  0  0  0  0  0  0  0
   -2.7795    1.4012   -0.8781 H   0  0  0  0  0  0  0  0  0  0  0  0
   -2.6962    1.9073    0.8939 H   0  0  0  0  0  0  0  0  0  0  0  0
   -4.0966    0.9795    0.3306 H   0  0  0  0  0  0  0  0  0  0  0  0
  1  2  1  0
  2  3  3  0
  3  4  1  0
  4  5  1  0
  5  6  2  0
  5  7  1  0
  7  8  1  0
  1  9  1  0
  1 10  1  0
  1 11  1  0
  4 12  1  0
  4 13  1  0
  7 14  1  0
  7 15  1  0
  8 16  1  0
  8 17  1  0
  8 18  1  0
M  END
