
     RDKit          3D

 20 20  0  0  0  0  0  0  0  0999 V2000
    2.6832    1.0178    2.6990 C   0  0  0  0  0  0  0  0  0  0  0  0
    1.8405    0.3050    1.7243 C   0  0  0  0  0  0  0  0  0  0  0  0
    1.1598   -0.2875    0.9047 C   0  0  0  0  0  0  0  0  0  0  0  0
    0.3398   -0.9973   -0.0465 C   0  0  0  0  0  0  0  0  0  0  0  0
   -0.2047   -0.0123   -1.0453 C   0  0  0  0  0  0  0  0  0  0  0  0
   -1.0788   -0.6786   -2.0853 C   0  0  0  0  0  0  0  0  0  0  0  0
   -2.2656   -0.3993   -1.1658 C   0  0  0  0  0  0  0  0  0  0  0  0
   -1.4238    0.7502   -0.5923 C   0  0  0  0  0  0  0  0  0  0  0  0
    2.3162    0.7412    3.7095 H   0  0  0  0  0  0  0  0  0  0  0  0
    2.5693    2.1093    2.5437 H   0  0  0  0  0  0  0  0  0  0  0  0
    3.7549    0.7653    2.5623 H   0  0  0  0  0  0  0  0  0  0  0  0
   -0.4492   -1.5849    0.4481 H   0  0  0  0  0  0  0  0  0  0  0  0
    0.9682   -1.7181   -0.6171 H   0  0  0  0  0  0  0  0  0  0  0  0
    0.5464    0.6885   -1.4612 H   0  0  0  0  0  0  0  0  0  0  0  0
   -1.1214   -0.1347   -3.0465 H   0  0  0  0  0  0  0  0  0  0  0  0
   -0.8625   -1.7635   -2.1581 H   0  0  0  0  0  0  0  0  0  0  0  0
   -3.1223   -0.0713   -1.7739 H   0  0  0  0  0  0  0  0  0  0  0  0
   -2.4710   -1.2083   -0.4469 H   0  0  0  0  0  0  0  0  0  0  0  0
   -1.6047    1.7059   -1.1103 H   0  0  0  0  0  0  0  0  0  0  0  0
   -1.5744    0.7725    0.5175 H   0  0  0  0  0  0  0  0  0  0  0  0
  1  2  1  0
  2  3  3  0
  3  4  1  0
  4  5  1  0
  5  6  1  0
  6  7  1  0
  7  8  1  0
  8  5  1  0
  1  9  1  0
  1 10  1  0
  1 11  1  0
  4 12  1  0
  4 13  1  0
  5 14  1  0
  6 15  1  0
  6 16  1  0
  7 17  1  0
  7 18  1  0
  8 19  1  0
  8 20  1  0
M  END
