
     RDKit          3D

 19 20  0  0  0  0  0  0  0  0999 V2000
    3.5053    0.8319   -0.0091 C   0  0  0  0  0  0  0  0  0  0  0  0
    2.2074    0.2509    0.4071 C   0  0  0  0  0  0  0  0  0  0  0  0
    1.1442   -0.2022    0.7479 C   0  0  0  0  0  0  0  0  0  0  0  0
   -0.1590   -0.7418    1.1422 C   0  0  0  0  0  0  0  0  0  0  0  0
   -0.8909   -1.3897   -0.0259 C   0  0  0  0  0  0  0  0  0  0  0  0
   -1.8298   -0.2422   -0.1470 C   0  0  0  0  0  0  0  0  0  0  0  0
   -3.1803   -0.5544   -0.0848 O   0  0  0  0  0  0  0  0  0  0  0  0
   -1.3978    1.1569   -0.0743 C   0  0  0  0  0  0  0  0  0  0  0  0
   -1.1918    0.3346    1.1358 C   0  0  0  0  0  0  0  0  0  0  0  0
    3.9845    1.2115    0.9127 H   0  0  0  0  0  0  0  0  0  0  0  0
    3.3100    1.6635   -0.6918 H   0  0  0  0  0  0  0  0  0  0  0  0
    4.1455    0.0578   -0.4864 H   0  0  0  0  0  0  0  0  0  0  0  0
   -0.1508   -1.3404    2.0714 H   0  0  0  0  0  0  0  0  0  0  0  0
   -0.2171   -1.4759   -0.9194 H   0  0  0  0  0  0  0  0  0  0  0  0
   -1.3002   -2.3493    0.2921 H   0  0  0  0  0  0  0  0  0  0  0  0
   -3.4049   -1.0296   -0.9146 H   0  0  0  0  0  0  0  0  0  0  0  0
   -2.2067    1.9158   -0.0149 H   0  0  0  0  0  0  0  0  0  0  0  0
   -0.4879    1.5392   -0.5673 H   0  0  0  0  0  0  0  0  0  0  0  0
   -1.8797    0.3634    2.0017 H   0  0  0  0  0  0  0  0  0  0  0  0
  1  2  1  0
  2  3  3  0
  3  4  1  0
  4  5  1  0
  5  6  1  0
  6  7  1  0
  6  8  1  0
  8  9  1  0
  9  4  1  0
  9  6  1  0
  1 10  1  0
  1 11  1  0
  1 12  1  0
  4 13  1  0
  5 14  1  0
  5 15  1  0
  7 16  1  0
  8 17  1  0
  8 18  1  0
  9 19  1  0
M  END
