
     RDKit          3D

 23 23  0  0  0  0  0  0  0  0999 V2000
    3.0279   -1.2613   -1.0092 C   0  0  0  0  0  0  0  0  0  0  0  0
    1.8047   -0.9142   -0.2808 C   0  0  0  0  0  0  0  0  0  0  0  0
    0.7720   -0.6302    0.3103 C   0  0  0  0  0  0  0  0  0  0  0  0
   -0.4766   -0.2953    0.9962 C   0  0  0  0  0  0  0  0  0  0  0  0
   -1.6144   -1.1522    0.5442 C   0  0  0  0  0  0  0  0  0  0  0  0
   -1.9262   -1.0553   -0.9100 C   0  0  0  0  0  0  0  0  0  0  0  0
   -0.7924    1.1760    0.7865 C   0  0  0  0  0  0  0  0  0  0  0  0
    0.2372    2.1863    1.2933 C   0  0  0  0  0  0  0  0  0  0  0  0
    0.0202    1.9510   -0.1781 C   0  0  0  0  0  0  0  0  0  0  0  0
    2.8595   -1.0416   -2.0664 H   0  0  0  0  0  0  0  0  0  0  0  0
    3.8930   -0.6426   -0.6749 H   0  0  0  0  0  0  0  0  0  0  0  0
    3.3169   -2.3226   -0.8398 H   0  0  0  0  0  0  0  0  0  0  0  0
   -0.3833   -0.4296    2.1019 H   0  0  0  0  0  0  0  0  0  0  0  0
   -2.5252   -0.7936    1.1091 H   0  0  0  0  0  0  0  0  0  0  0  0
   -1.4788   -2.2025    0.8725 H   0  0  0  0  0  0  0  0  0  0  0  0
   -2.5860   -1.9098   -1.1792 H   0  0  0  0  0  0  0  0  0  0  0  0
   -1.0500   -1.0875   -1.5692 H   0  0  0  0  0  0  0  0  0  0  0  0
   -2.5299   -0.1391   -1.1492 H   0  0  0  0  0  0  0  0  0  0  0  0
   -1.8541    1.4156    0.8852 H   0  0  0  0  0  0  0  0  0  0  0  0
   -0.1732    3.1318    1.7342 H   0  0  0  0  0  0  0  0  0  0  0  0
    1.1477    1.8062    1.7640 H   0  0  0  0  0  0  0  0  0  0  0  0
    0.7980    1.4208   -0.7603 H   0  0  0  0  0  0  0  0  0  0  0  0
   -0.4872    2.7898   -0.7167 H   0  0  0  0  0  0  0  0  0  0  0  0
  1  2  1  0
  2  3  3  0
  3  4  1  0
  4  5  1  0
  5  6  1  0
  4  7  1  0
  7  8  1  0
  8  9  1  0
  9  7  1  0
  1 10  1  0
  1 11  1  0
  1 12  1  0
  4 13  1  0
  5 14  1  0
  5 15  1  0
  6 16  1  0
  6 17  1  0
  6 18  1  0
  7 19  1  0
  8 20  1  0
  8 21  1  0
  9 22  1  0
  9 23  1  0
M  END
