
     RDKit          3D

 11 10  0  0  0  0  0  0  0  0999 V2000
    2.2011    0.4316    0.4650 C   0  0  0  0  0  0  0  0  0  0  0  0
    0.8145    0.0088    0.2630 C   0  0  0  0  0  0  0  0  0  0  0  0
   -0.3426   -0.3243    0.0900 C   0  0  0  0  0  0  0  0  0  0  0  0
   -1.7337   -0.7001   -0.1260 C   0  0  0  0  0  0  0  0  0  0  0  0
   -2.5404    0.4253   -0.1703 O   0  0  0  0  0  0  0  0  0  0  0  0
    2.2382    1.1438    1.3089 H   0  0  0  0  0  0  0  0  0  0  0  0
    2.5673    0.8919   -0.4962 H   0  0  0  0  0  0  0  0  0  0  0  0
    2.8130   -0.4490    0.7572 H   0  0  0  0  0  0  0  0  0  0  0  0
   -2.0772   -1.3199    0.7305 H   0  0  0  0  0  0  0  0  0  0  0  0
   -1.8458   -1.3459   -1.0372 H   0  0  0  0  0  0  0  0  0  0  0  0
   -2.0944    1.2378   -0.4706 H   0  0  0  0  0  0  0  0  0  0  0  0
  1  2  1  0
  2  3  3  0
  3  4  1  0
  4  5  1  0
  1  6  1  0
  1  7  1  0
  1  8  1  0
  4  9  1  0
  4 10  1  0
  5 11  1  0
M  END
