
     RDKit          3D

 19 20  0  0  0  0  0  0  0  0999 V2000
    3.5889    0.2518    0.3372 C   0  0  0  0  0  0  0  0  0  0  0  0
    2.1732   -0.1329    0.3022 C   0  0  0  0  0  0  0  0  0  0  0  0
    1.0106   -0.4602    0.2906 C   0  0  0  0  0  0  0  0  0  0  0  0
   -0.4062   -0.8448    0.2599 C   0  0  0  0  0  0  0  0  0  0  0  0
   -0.7089   -1.3241   -1.0711 C   0  0  0  0  0  0  0  0  0  0  0  0
   -1.7752   -0.7332   -1.5487 C   0  0  0  0  0  0  0  0  0  0  0  0
   -2.3149    0.2304   -0.5654 C   0  0  0  0  0  0  0  0  0  0  0  0
   -1.4716    1.4577   -0.4001 C   0  0  0  0  0  0  0  0  0  0  0  0
   -1.2867    0.3178    0.5226 C   0  0  0  0  0  0  0  0  0  0  0  0
    4.1602   -0.3924    1.0611 H   0  0  0  0  0  0  0  0  0  0  0  0
    3.7198    1.3274    0.6034 H   0  0  0  0  0  0  0  0  0  0  0  0
    3.9750    0.1502   -0.6961 H   0  0  0  0  0  0  0  0  0  0  0  0
   -0.6206   -1.6368    1.0178 H   0  0  0  0  0  0  0  0  0  0  0  0
   -0.1621   -2.0895   -1.6814 H   0  0  0  0  0  0  0  0  0  0  0  0
   -2.2479   -0.8903   -2.5328 H   0  0  0  0  0  0  0  0  0  0  0  0
   -3.3882    0.2378   -0.3140 H   0  0  0  0  0  0  0  0  0  0  0  0
   -0.7217    1.6958   -1.1930 H   0  0  0  0  0  0  0  0  0  0  0  0
   -1.9074    2.3770    0.0369 H   0  0  0  0  0  0  0  0  0  0  0  0
   -1.6162    0.4581    1.5771 H   0  0  0  0  0  0  0  0  0  0  0  0
  1  2  1  0
  2  3  3  0
  3  4  1  0
  4  5  1  0
  5  6  2  0
  6  7  1  0
  7  8  1  0
  8  9  1  0
  9  4  1  0
  9  7  1  0
  1 10  1  0
  1 11  1  0
  1 12  1  0
  4 13  1  0
  5 14  1  0
  6 15  1  0
  7 16  1  0
  8 17  1  0
  8 18  1  0
  9 19  1  0
M  END
