
     RDKit          3D

 21 22  0  0  0  0  0  0  0  0999 V2000
    3.9943    1.3838    0.0522 C   0  0  0  0  0  0  0  0  0  0  0  0
    2.7602    0.5995   -0.0116 C   0  0  0  0  0  0  0  0  0  0  0  0
    1.7361   -0.0659   -0.0478 C   0  0  0  0  0  0  0  0  0  0  0  0
    0.5217   -0.8476   -0.1087 C   0  0  0  0  0  0  0  0  0  0  0  0
   -0.3879   -0.4953   -1.3123 C   0  0  0  0  0  0  0  0  0  0  0  0
   -1.3877   -1.1704   -0.3756 C   0  0  0  0  0  0  0  0  0  0  0  0
   -1.9757   -0.6463    0.7974 C   0  0  0  0  0  0  0  0  0  0  0  0
   -3.2055    0.2579    0.5860 C   0  0  0  0  0  0  0  0  0  0  0  0
   -0.6476   -0.1801    0.6240 C   0  0  0  0  0  0  0  0  0  0  0  0
    3.7686    2.3092    0.6308 H   0  0  0  0  0  0  0  0  0  0  0  0
    4.3300    1.7132   -0.9538 H   0  0  0  0  0  0  0  0  0  0  0  0
    4.8174    0.7897    0.4889 H   0  0  0  0  0  0  0  0  0  0  0  0
    0.6254   -1.9139    0.0651 H   0  0  0  0  0  0  0  0  0  0  0  0
   -0.1853   -1.0744   -2.2099 H   0  0  0  0  0  0  0  0  0  0  0  0
   -0.5081    0.5863   -1.3933 H   0  0  0  0  0  0  0  0  0  0  0  0
   -1.0310   -2.2479   -0.2792 H   0  0  0  0  0  0  0  0  0  0  0  0
   -2.1677   -1.3063    1.6963 H   0  0  0  0  0  0  0  0  0  0  0  0
   -2.9501    0.9790   -0.2275 H   0  0  0  0  0  0  0  0  0  0  0  0
   -3.4459    0.8060    1.5010 H   0  0  0  0  0  0  0  0  0  0  0  0
   -4.0337   -0.3767    0.2148 H   0  0  0  0  0  0  0  0  0  0  0  0
   -0.6275    0.9000    0.2630 H   0  0  0  0  0  0  0  0  0  0  0  0
  1  2  1  0
  2  3  3  0
  3  4  1  0
  4  5  1  0
  5  6  1  0
  6  7  1  0
  7  8  1  0
  7  9  1  0
  9  4  1  0
  9  6  1  0
  1 10  1  0
  1 11  1  0
  1 12  1  0
  4 13  1  0
  5 14  1  0
  5 15  1  0
  6 16  1  0
  7 17  1  0
  8 18  1  0
  8 19  1  0
  8 20  1  0
  9 21  1  0
M  END
