
     RDKit          3D

 18 17  0  0  0  0  0  0  0  0999 V2000
    4.5102    0.4228    0.6494 C   0  0  0  0  0  0  0  0  0  0  0  0
    3.1762    0.2276    0.3199 C   0  0  0  0  0  0  0  0  0  0  0  0
    1.9364    0.0566   -0.0065 C   0  0  0  0  0  0  0  0  0  0  0  0
    0.6868   -0.1244   -0.3327 C   0  0  0  0  0  0  0  0  0  0  0  0
   -0.5349   -0.3178   -0.6670 C   0  0  0  0  0  0  0  0  0  0  0  0
   -2.0595   -0.5534   -1.0563 C   0  0  0  0  0  0  0  0  0  0  0  0
   -2.5192   -1.2496    0.2714 C   0  0  0  0  0  0  0  0  0  0  0  0
   -2.4664    0.9766   -0.7410 C   0  0  0  0  0  0  0  0  0  0  0  0
    4.7661    0.7215    1.6298 H   0  0  0  0  0  0  0  0  0  0  0  0
    4.6730    1.4249   -0.0926 H   0  0  0  0  0  0  0  0  0  0  0  0
    5.1557   -0.3555    0.1234 H   0  0  0  0  0  0  0  0  0  0  0  0
   -2.2074   -0.9664   -1.8632 H   0  0  0  0  0  0  0  0  0  0  0  0
   -2.2284   -2.3323    0.3082 H   0  0  0  0  0  0  0  0  0  0  0  0
   -3.6059   -1.1993    0.2776 H   0  0  0  0  0  0  0  0  0  0  0  0
   -1.9933   -0.6994    1.1255 H   0  0  0  0  0  0  0  0  0  0  0  0
   -3.4654    1.2193   -0.8622 H   0  0  0  0  0  0  0  0  0  0  0  0
   -2.0799    1.1752    0.3522 H   0  0  0  0  0  0  0  0  0  0  0  0
   -1.7442    1.5739   -1.3136 H   0  0  0  0  0  0  0  0  0  0  0  0
  1  2  1  0
  2  3  3  0
  3  4  1  0
  4  5  3  0
  5  6  1  0
  6  7  1  0
  6  8  1  0
  1  9  1  0
  1 10  1  0
  1 11  1  0
  6 12  1  0
  7 13  1  0
  7 14  1  0
  7 15  1  0
  8 16  1  0
  8 17  1  0
  8 18  1  0
M  END
