
     RDKit          3D

 10  9  0  0  0  0  0  0  0  0999 V2000
    1.7231   -0.4332    1.4411 C   0  0  0  0  0  0  0  0  0  0  0  0
    0.4941   -0.1170    0.6820 C   0  0  0  0  0  0  0  0  0  0  0  0
   -0.5142    0.1207    0.0631 C   0  0  0  0  0  0  0  0  0  0  0  0
   -1.7346    0.4285   -0.7082 C   0  0  0  0  0  0  0  0  0  0  0  0
    1.8791    0.3037    2.2725 H   0  0  0  0  0  0  0  0  0  0  0  0
    1.6601   -1.4659    1.8689 H   0  0  0  0  0  0  0  0  0  0  0  0
    2.5706   -0.3454    0.7325 H   0  0  0  0  0  0  0  0  0  0  0  0
   -2.5733    0.6993   -0.0527 H   0  0  0  0  0  0  0  0  0  0  0  0
   -1.5468    1.2964   -1.3983 H   0  0  0  0  0  0  0  0  0  0  0  0
   -1.9582   -0.4869   -1.3027 H   0  0  0  0  0  0  0  0  0  0  0  0
  1  2  1  0
  2  3  3  0
  3  4  1  0
  1  5  1  0
  1  6  1  0
  1  7  1  0
  4  8  1  0
  4  9  1  0
  4 10  1  0
M  END
