
     RDKit          3D

 18 17  0  0  0  0  0  0  0  0999 V2000
    4.0244    0.5466    1.3341 C   0  0  0  0  0  0  0  0  0  0  0  0
    3.1512    0.0290    0.7903 C   0  0  0  0  0  0  0  0  0  0  0  0
    1.9544   -0.6979    0.0375 C   0  0  0  0  0  0  0  0  0  0  0  0
    1.0768   -1.2513   -0.5127 C   0  0  0  0  0  0  0  0  0  0  0  0
   -0.1922   -0.5183   -0.6289 C   0  0  0  0  0  0  0  0  0  0  0  0
   -1.4237    0.1762   -0.7592 C   0  0  0  0  0  0  0  0  0  0  0  0
   -2.5484    0.8302   -0.8789 C   0  0  0  0  0  0  0  0  0  0  0  0
   -3.7837    0.0012   -0.9836 C   0  0  0  0  0  0  0  0  0  0  0  0
    4.7874    1.1997    0.6880 H   0  0  0  0  0  0  0  0  0  0  0  0
    4.6774    0.0532    2.1584 H   0  0  0  0  0  0  0  0  0  0  0  0
    3.6488    1.4053    2.1271 H   0  0  0  0  0  0  0  0  0  0  0  0
    0.7386   -2.3065   -0.0089 H   0  0  0  0  0  0  0  0  0  0  0  0
    1.2251   -1.7475   -1.5885 H   0  0  0  0  0  0  0  0  0  0  0  0
   -2.7476    1.8084   -0.2313 H   0  0  0  0  0  0  0  0  0  0  0  0
   -2.5476    1.4125   -1.9453 H   0  0  0  0  0  0  0  0  0  0  0  0
   -3.9463   -0.5224    0.0161 H   0  0  0  0  0  0  0  0  0  0  0  0
   -3.4188   -0.8656   -1.7174 H   0  0  0  0  0  0  0  0  0  0  0  0
   -4.6759    0.4472   -1.3755 H   0  0  0  0  0  0  0  0  0  0  0  0
  1  2  1  0
  2  3  3  0
  3  4  1  0
  4  5  1  0
  5  6  3  0
  6  7  1  0
  7  8  1  0
  1  9  1  0
  1 10  1  0
  1 11  1  0
  4 12  1  0
  4 13  1  0
  7 14  1  0
  7 15  1  0
  8 16  1  0
  8 17  1  0
  8 18  1  0
M  END
