
     RDKit          3D

 15 15  0  0  0  0  0  0  0  0999 V2000
    2.9792    0.1218   -1.3440 C   0  0  0  0  0  0  0  0  0  0  0  0
    1.5581    0.0698   -0.9623 C   0  0  0  0  0  0  0  0  0  0  0  0
    0.3928    0.0109   -0.6405 C   0  0  0  0  0  0  0  0  0  0  0  0
   -1.0223   -0.0374   -0.2589 C   0  0  0  0  0  0  0  0  0  0  0  0
   -1.3293   -1.1845    0.4619 O   0  0  0  0  0  0  0  0  0  0  0  0
   -2.0078   -0.8098    1.6012 C   0  0  0  0  0  0  0  0  0  0  0  0
   -1.8561    0.5848    1.7714 O   0  0  0  0  0  0  0  0  0  0  0  0
   -1.2936    1.1084    0.6182 C   0  0  0  0  0  0  0  0  0  0  0  0
   -1.0403    2.2994    0.3182 O   0  0  0  0  0  0  0  0  0  0  0  0
    3.3792    1.0547   -0.9412 H   0  0  0  0  0  0  0  0  0  0  0  0
    3.0509    0.0998   -2.4683 H   0  0  0  0  0  0  0  0  0  0  0  0
    3.5263   -0.7829   -1.0049 H   0  0  0  0  0  0  0  0  0  0  0  0
   -1.6766   -0.0561   -1.1686 H   0  0  0  0  0  0  0  0  0  0  0  0
   -1.5679   -1.3709    2.4530 H   0  0  0  0  0  0  0  0  0  0  0  0
   -3.0926   -1.1078    1.5646 H   0  0  0  0  0  0  0  0  0  0  0  0
  1  2  1  0
  2  3  3  0
  3  4  1  0
  4  5  1  0
  5  6  1  0
  6  7  1  0
  7  8  1  0
  8  9  2  0
  8  4  1  0
  1 10  1  0
  1 11  1  0
  1 12  1  0
  4 13  1  0
  6 14  1  0
  6 15  1  0
M  END
