
     RDKit          3D

 21 22  0  0  0  0  0  0  0  0999 V2000
    3.2109    1.4392    0.8257 C   0  0  0  0  0  0  0  0  0  0  0  0
    1.9934    0.7433    0.4044 C   0  0  0  0  0  0  0  0  0  0  0  0
    0.9930    0.1624    0.0471 C   0  0  0  0  0  0  0  0  0  0  0  0
   -0.2068   -0.5275   -0.3752 C   0  0  0  0  0  0  0  0  0  0  0  0
   -0.0301   -1.9774   -0.7378 C   0  0  0  0  0  0  0  0  0  0  0  0
   -1.3592   -0.2063    0.5217 C   0  0  0  0  0  0  0  0  0  0  0  0
   -2.2315   -0.5779   -0.6473 C   0  0  0  0  0  0  0  0  0  0  0  0
   -1.1418    0.2581   -1.2586 C   0  0  0  0  0  0  0  0  0  0  0  0
   -1.3196    1.1755   -0.0844 C   0  0  0  0  0  0  0  0  0  0  0  0
    3.9884    1.4172    0.0170 H   0  0  0  0  0  0  0  0  0  0  0  0
    3.6916    0.9001    1.6928 H   0  0  0  0  0  0  0  0  0  0  0  0
    2.9486    2.4722    1.0612 H   0  0  0  0  0  0  0  0  0  0  0  0
    1.0855   -2.1590   -0.7525 H   0  0  0  0  0  0  0  0  0  0  0  0
   -0.4894   -2.6670   -0.0004 H   0  0  0  0  0  0  0  0  0  0  0  0
   -0.4050   -2.1847   -1.7527 H   0  0  0  0  0  0  0  0  0  0  0  0
   -1.4911   -0.4422    1.4812 H   0  0  0  0  0  0  0  0  0  0  0  0
   -2.1940   -1.6406   -0.9372 H   0  0  0  0  0  0  0  0  0  0  0  0
   -3.2386   -0.1477   -0.6303 H   0  0  0  0  0  0  0  0  0  0  0  0
   -1.0153    0.4964   -2.2172 H   0  0  0  0  0  0  0  0  0  0  0  0
   -2.3263    1.6646   -0.0258 H   0  0  0  0  0  0  0  0  0  0  0  0
   -0.4626    1.8013    0.1756 H   0  0  0  0  0  0  0  0  0  0  0  0
  1  2  1  0
  2  3  3  0
  3  4  1  0
  4  5  1  0
  4  6  1  0
  6  7  1  0
  7  8  1  0
  8  9  1  0
  8  4  1  0
  9  6  1  0
  1 10  1  0
  1 11  1  0
  1 12  1  0
  5 13  1  0
  5 14  1  0
  5 15  1  0
  6 16  1  0
  7 17  1  0
  7 18  1  0
  8 19  1  0
  9 20  1  0
  9 21  1  0
M  END
