
     RDKit          3D

 19 19  0  0  0  0  0  0  0  0999 V2000
    3.5660   -0.0312   -0.3613 C   0  0  0  0  0  0  0  0  0  0  0  0
    2.2311   -0.0325    0.2452 C   0  0  0  0  0  0  0  0  0  0  0  0
    1.1402   -0.0226    0.7550 C   0  0  0  0  0  0  0  0  0  0  0  0
   -0.1568    0.0055    1.3822 C   0  0  0  0  0  0  0  0  0  0  0  0
   -0.6927   -1.2404    1.7293 O   0  0  0  0  0  0  0  0  0  0  0  0
   -1.9506   -0.6792    1.5026 C   0  0  0  0  0  0  0  0  0  0  0  0
   -1.2848    0.1602    0.4121 C   0  0  0  0  0  0  0  0  0  0  0  0
   -1.1817   -0.5129   -0.7840 O   0  0  0  0  0  0  0  0  0  0  0  0
   -1.5708    0.3625   -1.8159 C   0  0  0  0  0  0  0  0  0  0  0  0
    4.1370    0.8881   -0.0920 H   0  0  0  0  0  0  0  0  0  0  0  0
    4.1815   -0.8876   -0.0153 H   0  0  0  0  0  0  0  0  0  0  0  0
    3.4523   -0.1425   -1.4576 H   0  0  0  0  0  0  0  0  0  0  0  0
   -0.2838    0.6987    2.2332 H   0  0  0  0  0  0  0  0  0  0  0  0
   -2.2464   -0.0774    2.3674 H   0  0  0  0  0  0  0  0  0  0  0  0
   -2.7136   -1.3881    1.1278 H   0  0  0  0  0  0  0  0  0  0  0  0
   -1.6312    1.2016    0.3663 H   0  0  0  0  0  0  0  0  0  0  0  0
   -0.9272    1.2580   -1.8472 H   0  0  0  0  0  0  0  0  0  0  0  0
   -1.4297   -0.1626   -2.7835 H   0  0  0  0  0  0  0  0  0  0  0  0
   -2.6389    0.6023   -1.6108 H   0  0  0  0  0  0  0  0  0  0  0  0
  1  2  1  0
  2  3  3  0
  3  4  1  0
  4  5  1  0
  5  6  1  0
  6  7  1  0
  7  8  1  0
  8  9  1  0
  7  4  1  0
  1 10  1  0
  1 11  1  0
  1 12  1  0
  4 13  1  0
  6 14  1  0
  6 15  1  0
  7 16  1  0
  9 17  1  0
  9 18  1  0
  9 19  1  0
M  END
