
     RDKit          3D

 18 17  0  0  0  0  0  0  0  0999 V2000
    3.5554    0.0077   -0.6160 C   0  0  0  0  0  0  0  0  0  0  0  0
    2.1202   -0.2988   -0.5752 C   0  0  0  0  0  0  0  0  0  0  0  0
    0.9450   -0.5651   -0.5280 C   0  0  0  0  0  0  0  0  0  0  0  0
   -0.5015   -0.8888   -0.4952 C   0  0  0  0  0  0  0  0  0  0  0  0
   -1.1159    0.0488    0.5173 C   0  0  0  0  0  0  0  0  0  0  0  0
   -2.6039   -0.2615    0.5722 C   0  0  0  0  0  0  0  0  0  0  0  0
   -1.0025    1.4682    0.0803 C   0  0  0  0  0  0  0  0  0  0  0  0
   -1.8210    1.9050   -0.7066 O   0  0  0  0  0  0  0  0  0  0  0  0
    3.8579    0.2883   -1.6391 H   0  0  0  0  0  0  0  0  0  0  0  0
    4.1688   -0.8998   -0.3538 H   0  0  0  0  0  0  0  0  0  0  0  0
    3.7609    0.8073    0.1302 H   0  0  0  0  0  0  0  0  0  0  0  0
   -0.9550   -0.6643   -1.4765 H   0  0  0  0  0  0  0  0  0  0  0  0
   -0.6735   -1.9188   -0.1438 H   0  0  0  0  0  0  0  0  0  0  0  0
   -0.6469   -0.0924    1.5165 H   0  0  0  0  0  0  0  0  0  0  0  0
   -2.7044   -1.3414    0.7861 H   0  0  0  0  0  0  0  0  0  0  0  0
   -3.1241    0.3821    1.3073 H   0  0  0  0  0  0  0  0  0  0  0  0
   -3.0293   -0.0807   -0.4287 H   0  0  0  0  0  0  0  0  0  0  0  0
   -0.2302    2.1042    0.4361 H   0  0  0  0  0  0  0  0  0  0  0  0
  1  2  1  0
  2  3  3  0
  3  4  1  0
  4  5  1  0
  5  6  1  0
  5  7  1  0
  7  8  2  0
  1  9  1  0
  1 10  1  0
  1 11  1  0
  4 12  1  0
  4 13  1  0
  5 14  1  0
  6 15  1  0
  6 16  1  0
  6 17  1  0
  7 18  1  0
M  END
