
     RDKit          3D

 19 19  0  0  0  0  0  0  0  0999 V2000
    0.9984   -3.1423   -1.7276 C   0  0  0  0  0  0  0  0  0  0  0  0
    0.3878   -2.0554   -0.9719 C   0  0  0  0  0  0  0  0  0  0  0  0
   -0.1007   -1.1760   -0.3826 C   0  0  0  0  0  0  0  0  0  0  0  0
   -0.7003   -0.0471    0.3560 C   0  0  0  0  0  0  0  0  0  0  0  0
   -0.3772   -0.2350    1.8024 C   0  0  0  0  0  0  0  0  0  0  0  0
   -0.7844    0.3782    2.7140 O   0  0  0  0  0  0  0  0  0  0  0  0
   -0.2869    1.2623   -0.1877 C   0  0  0  0  0  0  0  0  0  0  0  0
   -0.9133    2.4564    0.5215 C   0  0  0  0  0  0  0  0  0  0  0  0
    0.5807    2.2533    0.4776 C   0  0  0  0  0  0  0  0  0  0  0  0
    0.2004   -3.8170   -2.1617 H   0  0  0  0  0  0  0  0  0  0  0  0
    1.6790   -3.7655   -1.1544 H   0  0  0  0  0  0  0  0  0  0  0  0
    1.5397   -2.6730   -2.6033 H   0  0  0  0  0  0  0  0  0  0  0  0
   -1.7888   -0.1445    0.2683 H   0  0  0  0  0  0  0  0  0  0  0  0
    0.3552   -1.0710    2.0732 H   0  0  0  0  0  0  0  0  0  0  0  0
   -0.2223    1.2833   -1.3117 H   0  0  0  0  0  0  0  0  0  0  0  0
   -1.4160    3.1358   -0.2063 H   0  0  0  0  0  0  0  0  0  0  0  0
   -1.3738    2.2586    1.4905 H   0  0  0  0  0  0  0  0  0  0  0  0
    1.1331    2.0826    1.4083 H   0  0  0  0  0  0  0  0  0  0  0  0
    1.0895    3.0163   -0.1729 H   0  0  0  0  0  0  0  0  0  0  0  0
  1  2  1  0
  2  3  3  0
  3  4  1  0
  4  5  1  0
  5  6  2  0
  4  7  1  0
  7  8  1  0
  8  9  1  0
  9  7  1  0
  1 10  1  0
  1 11  1  0
  1 12  1  0
  4 13  1  0
  5 14  1  0
  7 15  1  0
  8 16  1  0
  8 17  1  0
  9 18  1  0
  9 19  1  0
M  END
