
     RDKit          3D

 19 20  0  0  0  0  0  0  0  0999 V2000
    3.3801    1.3351    0.4610 C   0  0  0  0  0  0  0  0  0  0  0  0
    2.1708    0.5489    0.1848 C   0  0  0  0  0  0  0  0  0  0  0  0
    1.1712   -0.0825   -0.0339 C   0  0  0  0  0  0  0  0  0  0  0  0
   -0.0248   -0.8480   -0.2731 C   0  0  0  0  0  0  0  0  0  0  0  0
   -1.1000   -0.6961    0.8129 C   0  0  0  0  0  0  0  0  0  0  0  0
   -2.2264   -1.4018    0.1966 C   0  0  0  0  0  0  0  0  0  0  0  0
   -2.1871   -0.9974   -1.0838 C   0  0  0  0  0  0  0  0  0  0  0  0
   -1.0314   -0.0630   -1.0832 C   0  0  0  0  0  0  0  0  0  0  0  0
   -1.2636    0.7088    0.2223 C   0  0  0  0  0  0  0  0  0  0  0  0
    4.0374    0.7975    1.2024 H   0  0  0  0  0  0  0  0  0  0  0  0
    3.0715    2.3147    0.8767 H   0  0  0  0  0  0  0  0  0  0  0  0
    4.0007    1.4804   -0.4424 H   0  0  0  0  0  0  0  0  0  0  0  0
    0.0906   -1.9083   -0.5430 H   0  0  0  0  0  0  0  0  0  0  0  0
   -0.8293   -0.8027    1.8143 H   0  0  0  0  0  0  0  0  0  0  0  0
   -2.8984   -2.0784    0.7048 H   0  0  0  0  0  0  0  0  0  0  0  0
   -2.8546   -1.3054   -1.8807 H   0  0  0  0  0  0  0  0  0  0  0  0
   -0.7465    0.4599   -1.9426 H   0  0  0  0  0  0  0  0  0  0  0  0
   -2.2813    1.1232    0.3193 H   0  0  0  0  0  0  0  0  0  0  0  0
   -0.4790    1.4153    0.4876 H   0  0  0  0  0  0  0  0  0  0  0  0
  1  2  1  0
  2  3  3  0
  3  4  1  0
  4  5  1  0
  5  6  1  0
  6  7  2  0
  7  8  1  0
  8  9  1  0
  8  4  1  0
  9  5  1  0
  1 10  1  0
  1 11  1  0
  1 12  1  0
  4 13  1  0
  5 14  1  0
  6 15  1  0
  7 16  1  0
  8 17  1  0
  9 18  1  0
  9 19  1  0
M  END
