
     RDKit          3D

 19 20  0  0  0  0  0  0  0  0999 V2000
    3.3533   -1.5950   -0.6898 C   0  0  0  0  0  0  0  0  0  0  0  0
    2.0857   -0.8911   -0.4830 C   0  0  0  0  0  0  0  0  0  0  0  0
    1.0393   -0.2880   -0.3013 C   0  0  0  0  0  0  0  0  0  0  0  0
   -0.2083    0.4512   -0.1018 C   0  0  0  0  0  0  0  0  0  0  0  0
   -0.5177    1.0141    1.2473 C   0  0  0  0  0  0  0  0  0  0  0  0
   -1.8761    0.3244    1.1653 C   0  0  0  0  0  0  0  0  0  0  0  0
   -2.9305    1.2357    1.0958 O   0  0  0  0  0  0  0  0  0  0  0  0
   -1.4625   -0.2806   -0.1555 C   0  0  0  0  0  0  0  0  0  0  0  0
   -1.1367    0.6703   -1.2441 C   0  0  0  0  0  0  0  0  0  0  0  0
    3.4050   -1.9490   -1.7288 H   0  0  0  0  0  0  0  0  0  0  0  0
    4.1554   -0.8686   -0.4471 H   0  0  0  0  0  0  0  0  0  0  0  0
    3.4283   -2.4102    0.0571 H   0  0  0  0  0  0  0  0  0  0  0  0
   -0.5759    2.1219    1.1941 H   0  0  0  0  0  0  0  0  0  0  0  0
    0.1495    0.6080    2.0218 H   0  0  0  0  0  0  0  0  0  0  0  0
   -2.0152   -0.4812    1.9072 H   0  0  0  0  0  0  0  0  0  0  0  0
   -2.9444    1.7469    0.2742 H   0  0  0  0  0  0  0  0  0  0  0  0
   -1.5541   -1.3629   -0.3135 H   0  0  0  0  0  0  0  0  0  0  0  0
   -0.7674    0.3099   -2.2191 H   0  0  0  0  0  0  0  0  0  0  0  0
   -1.6275    1.6441   -1.2789 H   0  0  0  0  0  0  0  0  0  0  0  0
  1  2  1  0
  2  3  3  0
  3  4  1  0
  4  5  1  0
  5  6  1  0
  6  7  1  0
  6  8  1  0
  8  9  1  0
  8  4  1  0
  9  4  1  0
  1 10  1  0
  1 11  1  0
  1 12  1  0
  5 13  1  0
  5 14  1  0
  6 15  1  0
  7 16  1  0
  8 17  1  0
  9 18  1  0
  9 19  1  0
M  END
