
     RDKit          3D

 23 22  0  0  0  0  0  0  0  0999 V2000
    4.8992    0.6901    0.8352 C   0  0  0  0  0  0  0  0  0  0  0  0
    3.5061    0.3275    0.5763 C   0  0  0  0  0  0  0  0  0  0  0  0
    2.3568    0.0473    0.3588 C   0  0  0  0  0  0  0  0  0  0  0  0
    0.9215   -0.3246    0.1005 C   0  0  0  0  0  0  0  0  0  0  0  0
    0.3910    0.5679   -0.7597 O   0  0  0  0  0  0  0  0  0  0  0  0
   -0.8693    0.3315   -1.1537 C   0  0  0  0  0  0  0  0  0  0  0  0
   -1.9874    0.2706   -0.1907 C   0  0  0  0  0  0  0  0  0  0  0  0
   -1.9636   -0.7683    0.8632 C   0  0  0  0  0  0  0  0  0  0  0  0
   -3.2713    0.0983   -1.0139 C   0  0  0  0  0  0  0  0  0  0  0  0
    5.0645    1.6970    0.4291 H   0  0  0  0  0  0  0  0  0  0  0  0
    5.0981    0.7763    1.9432 H   0  0  0  0  0  0  0  0  0  0  0  0
    5.6170   -0.0604    0.4443 H   0  0  0  0  0  0  0  0  0  0  0  0
    0.8548   -1.3908   -0.1540 H   0  0  0  0  0  0  0  0  0  0  0  0
    0.3803   -0.1972    1.0870 H   0  0  0  0  0  0  0  0  0  0  0  0
   -0.9026   -0.5677   -1.8502 H   0  0  0  0  0  0  0  0  0  0  0  0
   -1.1429    1.1864   -1.8719 H   0  0  0  0  0  0  0  0  0  0  0  0
   -2.0403    1.2670    0.3469 H   0  0  0  0  0  0  0  0  0  0  0  0
   -1.7925   -0.3487    1.8962 H   0  0  0  0  0  0  0  0  0  0  0  0
   -3.0282   -1.1754    0.9607 H   0  0  0  0  0  0  0  0  0  0  0  0
   -1.3771   -1.6768    0.6523 H   0  0  0  0  0  0  0  0  0  0  0  0
   -3.1220   -0.7926   -1.6542 H   0  0  0  0  0  0  0  0  0  0  0  0
   -3.5229    1.0010   -1.5738 H   0  0  0  0  0  0  0  0  0  0  0  0
   -4.0693   -0.1022   -0.2717 H   0  0  0  0  0  0  0  0  0  0  0  0
  1  2  1  0
  2  3  3  0
  3  4  1  0
  4  5  1  0
  5  6  1  0
  6  7  1  0
  7  8  1  0
  7  9  1  0
  1 10  1  0
  1 11  1  0
  1 12  1  0
  4 13  1  0
  4 14  1  0
  6 15  1  0
  6 16  1  0
  7 17  1  0
  8 18  1  0
  8 19  1  0
  8 20  1  0
  9 21  1  0
  9 22  1  0
  9 23  1  0
M  END
