
     RDKit          3D

 17 17  0  0  0  0  0  0  0  0999 V2000
    3.4321   -0.4109    0.8270 C   0  0  0  0  0  0  0  0  0  0  0  0
    2.1048   -0.3646    0.2137 C   0  0  0  0  0  0  0  0  0  0  0  0
    1.0032   -0.3087   -0.3087 C   0  0  0  0  0  0  0  0  0  0  0  0
   -0.3286   -0.2493   -0.9191 C   0  0  0  0  0  0  0  0  0  0  0  0
   -1.1829    0.9049   -0.4573 C   0  0  0  0  0  0  0  0  0  0  0  0
   -0.7217    1.7268    0.5560 O   0  0  0  0  0  0  0  0  0  0  0  0
   -1.4661   -0.5450   -0.0158 C   0  0  0  0  0  0  0  0  0  0  0  0
   -2.7445   -1.0589   -0.5389 C   0  0  0  0  0  0  0  0  0  0  0  0
   -3.4881   -1.6847    0.1724 O   0  0  0  0  0  0  0  0  0  0  0  0
    3.9482   -1.3917    0.6243 H   0  0  0  0  0  0  0  0  0  0  0  0
    4.0905    0.4195    0.4600 H   0  0  0  0  0  0  0  0  0  0  0  0
    3.3294   -0.2856    1.9171 H   0  0  0  0  0  0  0  0  0  0  0  0
   -0.4085   -0.5443   -1.9941 H   0  0  0  0  0  0  0  0  0  0  0  0
   -1.8256    1.3513   -1.2315 H   0  0  0  0  0  0  0  0  0  0  0  0
   -1.4563    1.8731    1.2033 H   0  0  0  0  0  0  0  0  0  0  0  0
   -1.2721   -0.7850    1.0521 H   0  0  0  0  0  0  0  0  0  0  0  0
   -3.0137   -0.8738   -1.5605 H   0  0  0  0  0  0  0  0  0  0  0  0
  1  2  1  0
  2  3  3  0
  3  4  1  0
  4  5  1  0
  5  6  1  0
  5  7  1  0
  7  8  1  0
  8  9  2  0
  7  4  1  0
  1 10  1  0
  1 11  1  0
  1 12  1  0
  4 13  1  0
  5 14  1  0
  6 15  1  0
  7 16  1  0
  8 17  1  0
M  END
