
     RDKit          3D

 21 20  0  0  0  0  0  0  0  0999 V2000
    2.5561   -0.9210   -2.4814 C   0  0  0  0  0  0  0  0  0  0  0  0
    1.5500   -0.8497   -1.5227 C   0  0  0  0  0  0  0  0  0  0  0  0
    0.6389   -0.8032   -0.6429 C   0  0  0  0  0  0  0  0  0  0  0  0
   -0.4618   -0.7491    0.3837 C   0  0  0  0  0  0  0  0  0  0  0  0
   -0.0796   -1.5227    1.5682 C   0  0  0  0  0  0  0  0  0  0  0  0
    0.7353   -1.0810    2.3451 O   0  0  0  0  0  0  0  0  0  0  0  0
   -0.5914    0.7293    0.6774 C   0  0  0  0  0  0  0  0  0  0  0  0
   -1.6626    0.9896    1.7041 C   0  0  0  0  0  0  0  0  0  0  0  0
   -0.9569    1.4612   -0.5911 C   0  0  0  0  0  0  0  0  0  0  0  0
    3.2383   -1.8309   -2.4010 H   0  0  0  0  0  0  0  0  0  0  0  0
    3.2993   -0.0810   -2.4148 H   0  0  0  0  0  0  0  0  0  0  0  0
    2.1220   -1.0402   -3.4960 H   0  0  0  0  0  0  0  0  0  0  0  0
   -1.3446   -1.1118   -0.1348 H   0  0  0  0  0  0  0  0  0  0  0  0
   -0.5177   -2.4934    1.7735 H   0  0  0  0  0  0  0  0  0  0  0  0
    0.3841    1.1605    1.0238 H   0  0  0  0  0  0  0  0  0  0  0  0
   -1.4756    0.3848    2.6401 H   0  0  0  0  0  0  0  0  0  0  0  0
   -2.6370    0.5939    1.3352 H   0  0  0  0  0  0  0  0  0  0  0  0
   -1.7322    2.0513    2.0076 H   0  0  0  0  0  0  0  0  0  0  0  0
   -0.1902    1.2924   -1.3792 H   0  0  0  0  0  0  0  0  0  0  0  0
   -1.9845    1.2563   -0.9315 H   0  0  0  0  0  0  0  0  0  0  0  0
   -0.8898    2.5647   -0.3565 H   0  0  0  0  0  0  0  0  0  0  0  0
  1  2  1  0
  2  3  3  0
  3  4  1  0
  4  5  1  0
  5  6  2  0
  4  7  1  0
  7  8  1  0
  7  9  1  0
  1 10  1  0
  1 11  1  0
  1 12  1  0
  4 13  1  0
  5 14  1  0
  7 15  1  0
  8 16  1  0
  8 17  1  0
  8 18  1  0
  9 19  1  0
  9 20  1  0
  9 21  1  0
M  END
