
     RDKit          3D

 19 19  0  0  0  0  0  0  0  0999 V2000
    2.9674   -0.9092   -1.7091 C   0  0  0  0  0  0  0  0  0  0  0  0
    1.6177   -0.9484   -1.1364 C   0  0  0  0  0  0  0  0  0  0  0  0
    0.5036   -0.9663   -0.6802 C   0  0  0  0  0  0  0  0  0  0  0  0
   -0.8665   -1.0096   -0.1332 C   0  0  0  0  0  0  0  0  0  0  0  0
   -1.8585   -0.0274   -0.5715 C   0  0  0  0  0  0  0  0  0  0  0  0
   -1.1965    0.0768    0.8013 C   0  0  0  0  0  0  0  0  0  0  0  0
   -1.9556   -0.2713    1.9227 O   0  0  0  0  0  0  0  0  0  0  0  0
   -0.3410    1.2785    0.9958 C   0  0  0  0  0  0  0  0  0  0  0  0
   -1.1831    2.3543    1.3043 O   0  0  0  0  0  0  0  0  0  0  0  0
    3.4094   -1.9092   -1.6186 H   0  0  0  0  0  0  0  0  0  0  0  0
    2.9608   -0.5370   -2.7539 H   0  0  0  0  0  0  0  0  0  0  0  0
    3.6159   -0.2094   -1.1424 H   0  0  0  0  0  0  0  0  0  0  0  0
   -1.2650   -2.0310    0.1071 H   0  0  0  0  0  0  0  0  0  0  0  0
   -1.5919    0.7389   -1.3386 H   0  0  0  0  0  0  0  0  0  0  0  0
   -2.9433   -0.2788   -0.5550 H   0  0  0  0  0  0  0  0  0  0  0  0
   -1.8007   -1.2162    2.2059 H   0  0  0  0  0  0  0  0  0  0  0  0
    0.4081    1.1201    1.7969 H   0  0  0  0  0  0  0  0  0  0  0  0
    0.2214    1.5378    0.0620 H   0  0  0  0  0  0  0  0  0  0  0  0
   -0.7021    3.2074    1.2828 H   0  0  0  0  0  0  0  0  0  0  0  0
  1  2  1  0
  2  3  3  0
  3  4  1  0
  4  5  1  0
  5  6  1  0
  6  7  1  0
  6  8  1  0
  8  9  1  0
  6  4  1  0
  1 10  1  0
  1 11  1  0
  1 12  1  0
  4 13  1  0
  5 14  1  0
  5 15  1  0
  7 16  1  0
  8 17  1  0
  8 18  1  0
  9 19  1  0
M  END
