
     RDKit          3D

 21 21  0  0  0  0  0  0  0  0999 V2000
    3.5097    1.2000    0.6695 C   0  0  0  0  0  0  0  0  0  0  0  0
    1.9765    1.2791    0.0894 C   0  0  0  0  0  0  0  0  0  0  0  0
    0.9149    1.3332   -0.3232 C   0  0  0  0  0  0  0  0  0  0  0  0
   -0.4800    1.3910   -0.8780 C   0  0  0  0  0  0  0  0  0  0  0  0
   -1.3883    0.5359   -0.1119 C   0  0  0  0  0  0  0  0  0  0  0  0
   -1.0686   -0.8968    0.1123 C   0  0  0  0  0  0  0  0  0  0  0  0
   -2.1407   -1.5949    0.9433 C   0  0  0  0  0  0  0  0  0  0  0  0
   -0.2633   -1.7067   -0.7788 C   0  0  0  0  0  0  0  0  0  0  0  0
    0.2578   -1.2175    0.5182 O   0  0  0  0  0  0  0  0  0  0  0  0
    3.9905    0.4273    0.0596 H   0  0  0  0  0  0  0  0  0  0  0  0
    3.8942    2.1669    0.3245 H   0  0  0  0  0  0  0  0  0  0  0  0
    3.4386    0.9990    1.7057 H   0  0  0  0  0  0  0  0  0  0  0  0
   -0.4933    1.3339   -1.9536 H   0  0  0  0  0  0  0  0  0  0  0  0
   -0.7250    2.5090   -0.6290 H   0  0  0  0  0  0  0  0  0  0  0  0
   -1.5920    0.9798    0.9050 H   0  0  0  0  0  0  0  0  0  0  0  0
   -2.3870    0.5342   -0.6871 H   0  0  0  0  0  0  0  0  0  0  0  0
   -2.8633   -0.8374    1.3987 H   0  0  0  0  0  0  0  0  0  0  0  0
   -1.7990   -2.2046    1.7689 H   0  0  0  0  0  0  0  0  0  0  0  0
   -2.8141   -2.2270    0.2803 H   0  0  0  0  0  0  0  0  0  0  0  0
    0.3148   -1.1883   -1.5530 H   0  0  0  0  0  0  0  0  0  0  0  0
   -0.2823   -2.8159   -0.7973 H   0  0  0  0  0  0  0  0  0  0  0  0
  1  2  1  0
  2  3  3  0
  3  4  1  0
  4  5  1  0
  5  6  1  0
  6  7  1  0
  6  8  1  0
  8  9  1  0
  9  6  1  0
  1 10  1  0
  1 11  1  0
  1 12  1  0
  4 13  1  0
  4 14  1  0
  5 15  1  0
  5 16  1  0
  7 17  1  0
  7 18  1  0
  7 19  1  0
  8 20  1  0
  8 21  1  0
M  END
