
     RDKit          3D

 17 18  0  0  0  0  0  0  0  0999 V2000
    3.9418   -0.0562    0.2960 C   0  0  0  0  0  0  0  0  0  0  0  0
    2.4764   -0.2281    0.1654 C   0  0  0  0  0  0  0  0  0  0  0  0
    1.3030   -0.3455    0.0560 C   0  0  0  0  0  0  0  0  0  0  0  0
   -0.1286   -0.5001   -0.0552 C   0  0  0  0  0  0  0  0  0  0  0  0
   -0.6480    0.1960   -1.1627 O   0  0  0  0  0  0  0  0  0  0  0  0
   -2.0214   -0.0070   -0.9634 C   0  0  0  0  0  0  0  0  0  0  0  0
   -2.8184    1.0287   -0.2432 C   0  0  0  0  0  0  0  0  0  0  0  0
   -2.1367   -0.0279    0.5745 C   0  0  0  0  0  0  0  0  0  0  0  0
   -0.8293    0.1267    0.9851 O   0  0  0  0  0  0  0  0  0  0  0  0
    4.4741   -0.4995   -0.5649 H   0  0  0  0  0  0  0  0  0  0  0  0
    4.1367    1.0288    0.3011 H   0  0  0  0  0  0  0  0  0  0  0  0
    4.2944   -0.4718    1.2757 H   0  0  0  0  0  0  0  0  0  0  0  0
   -0.4438   -1.5580   -0.1904 H   0  0  0  0  0  0  0  0  0  0  0  0
   -2.4837   -0.8201   -1.5210 H   0  0  0  0  0  0  0  0  0  0  0  0
   -3.9184    0.8961   -0.3282 H   0  0  0  0  0  0  0  0  0  0  0  0
   -2.4704    2.0815   -0.2081 H   0  0  0  0  0  0  0  0  0  0  0  0
   -2.7275   -0.8437    1.0235 H   0  0  0  0  0  0  0  0  0  0  0  0
  1  2  1  0
  2  3  3  0
  3  4  1  0
  4  5  1  0
  5  6  1  0
  6  7  1  0
  7  8  1  0
  8  9  1  0
  9  4  1  0
  8  6  1  0
  1 10  1  0
  1 11  1  0
  1 12  1  0
  4 13  1  0
  6 14  1  0
  7 15  1  0
  7 16  1  0
  8 17  1  0
M  END
