
     RDKit          3D

 17 17  0  0  0  0  0  0  0  0999 V2000
    2.6341    1.6856    2.0289 C   0  0  0  0  0  0  0  0  0  0  0  0
    1.7203    0.7911    1.2957 C   0  0  0  0  0  0  0  0  0  0  0  0
    0.9931    0.0630    0.6859 C   0  0  0  0  0  0  0  0  0  0  0  0
    0.0971   -0.8008   -0.0527 C   0  0  0  0  0  0  0  0  0  0  0  0
   -0.4076   -1.8797    0.6781 O   0  0  0  0  0  0  0  0  0  0  0  0
   -1.5836   -1.7402   -0.0818 C   0  0  0  0  0  0  0  0  0  0  0  0
   -1.2981   -0.2533   -0.1294 C   0  0  0  0  0  0  0  0  0  0  0  0
   -1.6859    0.2967   -1.4554 C   0  0  0  0  0  0  0  0  0  0  0  0
   -2.6900    0.9793   -1.5171 O   0  0  0  0  0  0  0  0  0  0  0  0
    2.0719    2.0318    2.9238 H   0  0  0  0  0  0  0  0  0  0  0  0
    2.8774    2.5895    1.4346 H   0  0  0  0  0  0  0  0  0  0  0  0
    3.5804    1.1761    2.2784 H   0  0  0  0  0  0  0  0  0  0  0  0
    0.4322   -1.1014   -1.0722 H   0  0  0  0  0  0  0  0  0  0  0  0
   -2.5028   -2.0400    0.4296 H   0  0  0  0  0  0  0  0  0  0  0  0
   -1.4025   -2.1759   -1.0850 H   0  0  0  0  0  0  0  0  0  0  0  0
   -1.6959    0.2471    0.7415 H   0  0  0  0  0  0  0  0  0  0  0  0
   -1.1401    0.1311   -2.3563 H   0  0  0  0  0  0  0  0  0  0  0  0
  1  2  1  0
  2  3  3  0
  3  4  1  0
  4  5  1  0
  5  6  1  0
  6  7  1  0
  7  8  1  0
  8  9  2  0
  7  4  1  0
  1 10  1  0
  1 11  1  0
  1 12  1  0
  4 13  1  0
  6 14  1  0
  6 15  1  0
  7 16  1  0
  8 17  1  0
M  END
