
     RDKit          3D

 21 21  0  0  0  0  0  0  0  0999 V2000
    4.3259    0.1270    0.7948 C   0  0  0  0  0  0  0  0  0  0  0  0
    2.9935    0.2245    0.1895 C   0  0  0  0  0  0  0  0  0  0  0  0
    1.8974    0.3112   -0.3308 C   0  0  0  0  0  0  0  0  0  0  0  0
    0.5618    0.4108   -0.9411 C   0  0  0  0  0  0  0  0  0  0  0  0
   -0.3168   -0.6855   -0.3952 C   0  0  0  0  0  0  0  0  0  0  0  0
   -1.7056   -0.5893   -1.0239 C   0  0  0  0  0  0  0  0  0  0  0  0
   -1.9411    0.3091    0.1493 C   0  0  0  0  0  0  0  0  0  0  0  0
   -3.2652    0.1042    0.8619 C   0  0  0  0  0  0  0  0  0  0  0  0
   -0.9267   -0.3365    0.8226 O   0  0  0  0  0  0  0  0  0  0  0  0
    4.7588    1.1288    1.0170 H   0  0  0  0  0  0  0  0  0  0  0  0
    5.0493   -0.3796    0.1098 H   0  0  0  0  0  0  0  0  0  0  0  0
    4.2453   -0.5109    1.6882 H   0  0  0  0  0  0  0  0  0  0  0  0
    0.6038    0.2734   -2.0475 H   0  0  0  0  0  0  0  0  0  0  0  0
    0.1411    1.3933   -0.7057 H   0  0  0  0  0  0  0  0  0  0  0  0
    0.1141   -1.6858   -0.3761 H   0  0  0  0  0  0  0  0  0  0  0  0
   -1.6901   -0.0790   -2.0125 H   0  0  0  0  0  0  0  0  0  0  0  0
   -2.2643   -1.5394   -1.0002 H   0  0  0  0  0  0  0  0  0  0  0  0
   -1.7963    1.3876   -0.0457 H   0  0  0  0  0  0  0  0  0  0  0  0
   -3.1098    0.0119    1.9568 H   0  0  0  0  0  0  0  0  0  0  0  0
   -3.9592    0.9404    0.6077 H   0  0  0  0  0  0  0  0  0  0  0  0
   -3.7157   -0.8163    0.4558 H   0  0  0  0  0  0  0  0  0  0  0  0
  1  2  1  0
  2  3  3  0
  3  4  1  0
  4  5  1  0
  5  6  1  0
  6  7  1  0
  7  8  1  0
  7  9  1  0
  9  5  1  0
  1 10  1  0
  1 11  1  0
  1 12  1  0
  4 13  1  0
  4 14  1  0
  5 15  1  0
  6 16  1  0
  6 17  1  0
  7 18  1  0
  8 19  1  0
  8 20  1  0
  8 21  1  0
M  END
