
     RDKit          3D

 19 19  0  0  0  0  0  0  0  0999 V2000
    1.5700   -0.0498   -3.1553 C   0  0  0  0  0  0  0  0  0  0  0  0
    1.0436   -0.3124   -1.9944 C   0  0  0  0  0  0  0  0  0  0  0  0
    0.4833   -0.6175   -0.7544 C   0  0  0  0  0  0  0  0  0  0  0  0
   -0.0876   -0.9030    0.5001 C   0  0  0  0  0  0  0  0  0  0  0  0
   -0.0887   -2.2726    0.8472 O   0  0  0  0  0  0  0  0  0  0  0  0
    0.2811   -0.0745    1.6815 C   0  0  0  0  0  0  0  0  0  0  0  0
   -1.1369    0.4609    1.7580 C   0  0  0  0  0  0  0  0  0  0  0  0
   -1.2188    1.8222    1.6168 O   0  0  0  0  0  0  0  0  0  0  0  0
   -1.5100   -0.3402    0.5241 C   0  0  0  0  0  0  0  0  0  0  0  0
    1.4792   -0.8714   -3.9782 H   0  0  0  0  0  0  0  0  0  0  0  0
    1.1169    0.8387   -3.7321 H   0  0  0  0  0  0  0  0  0  0  0  0
    2.6655    0.2144   -3.1338 H   0  0  0  0  0  0  0  0  0  0  0  0
    0.4148   -2.7671    0.1815 H   0  0  0  0  0  0  0  0  0  0  0  0
    0.4527   -0.7231    2.6036 H   0  0  0  0  0  0  0  0  0  0  0  0
    1.0493    0.6942    1.5553 H   0  0  0  0  0  0  0  0  0  0  0  0
   -1.7351    0.1510    2.6568 H   0  0  0  0  0  0  0  0  0  0  0  0
   -0.7720    2.2602    2.4079 H   0  0  0  0  0  0  0  0  0  0  0  0
   -1.7668    0.3256   -0.3243 H   0  0  0  0  0  0  0  0  0  0  0  0
   -2.2405   -1.1198    0.7397 H   0  0  0  0  0  0  0  0  0  0  0  0
  1  2  1  0
  2  3  3  0
  3  4  1  0
  4  5  1  0
  4  6  1  0
  6  7  1  0
  7  8  1  0
  7  9  1  0
  9  4  1  0
  1 10  1  0
  1 11  1  0
  1 12  1  0
  5 13  1  0
  6 14  1  0
  6 15  1  0
  7 16  1  0
  8 17  1  0
  9 18  1  0
  9 19  1  0
M  END
