
     RDKit          3D

 21 20  0  0  0  0  0  0  0  0999 V2000
    2.3285    2.8789   -0.6072 C   0  0  0  0  0  0  0  0  0  0  0  0
    1.7100    1.5799   -0.4521 C   0  0  0  0  0  0  0  0  0  0  0  0
    1.1407    0.4345   -0.3183 C   0  0  0  0  0  0  0  0  0  0  0  0
    0.5182   -0.8239   -0.1711 C   0  0  0  0  0  0  0  0  0  0  0  0
    0.8916   -1.4720    1.0185 O   0  0  0  0  0  0  0  0  0  0  0  0
   -0.9941   -0.6134   -0.0742 C   0  0  0  0  0  0  0  0  0  0  0  0
   -1.3281    0.2335    1.1282 C   0  0  0  0  0  0  0  0  0  0  0  0
   -1.5928   -1.9837    0.1053 C   0  0  0  0  0  0  0  0  0  0  0  0
   -1.4418   -0.0112   -1.2416 O   0  0  0  0  0  0  0  0  0  0  0  0
    1.8051    3.4885   -1.3937 H   0  0  0  0  0  0  0  0  0  0  0  0
    2.1693    3.4595    0.3478 H   0  0  0  0  0  0  0  0  0  0  0  0
    3.3984    2.7947   -0.8754 H   0  0  0  0  0  0  0  0  0  0  0  0
    0.6705   -1.5341   -1.0051 H   0  0  0  0  0  0  0  0  0  0  0  0
    1.4821   -2.2594    0.8093 H   0  0  0  0  0  0  0  0  0  0  0  0
   -0.4528    0.5607    1.7012 H   0  0  0  0  0  0  0  0  0  0  0  0
   -1.8137    1.1762    0.7462 H   0  0  0  0  0  0  0  0  0  0  0  0
   -2.0862   -0.2733    1.7662 H   0  0  0  0  0  0  0  0  0  0  0  0
   -2.6684   -2.0152   -0.1943 H   0  0  0  0  0  0  0  0  0  0  0  0
   -0.9600   -2.6987   -0.4640 H   0  0  0  0  0  0  0  0  0  0  0  0
   -1.4814   -2.2641    1.1816 H   0  0  0  0  0  0  0  0  0  0  0  0
   -1.2950   -0.6574   -2.0073 H   0  0  0  0  0  0  0  0  0  0  0  0
  1  2  1  0
  2  3  3  0
  3  4  1  0
  4  5  1  0
  4  6  1  0
  6  7  1  0
  6  8  1  0
  6  9  1  0
  1 10  1  0
  1 11  1  0
  1 12  1  0
  4 13  1  0
  5 14  1  0
  7 15  1  0
  7 16  1  0
  7 17  1  0
  8 18  1  0
  8 19  1  0
  8 20  1  0
  9 21  1  0
M  END
