
     RDKit          3D

 21 21  0  0  0  0  0  0  0  0999 V2000
    4.0071   -1.7157   -1.1573 C   0  0  0  0  0  0  0  0  0  0  0  0
    2.5791   -1.6077   -0.8111 C   0  0  0  0  0  0  0  0  0  0  0  0
    1.4038   -1.5198   -0.5143 C   0  0  0  0  0  0  0  0  0  0  0  0
   -0.0050   -1.4155   -0.1322 C   0  0  0  0  0  0  0  0  0  0  0  0
   -0.2513    0.0243    0.2510 C   0  0  0  0  0  0  0  0  0  0  0  0
    0.0018    0.9311   -0.7808 O   0  0  0  0  0  0  0  0  0  0  0  0
   -1.3989    0.7419   -0.4022 C   0  0  0  0  0  0  0  0  0  0  0  0
   -1.9725    1.9699    0.2382 C   0  0  0  0  0  0  0  0  0  0  0  0
   -2.5173    1.7094    1.6276 C   0  0  0  0  0  0  0  0  0  0  0  0
    4.1574   -2.4109   -2.0331 H   0  0  0  0  0  0  0  0  0  0  0  0
    4.3704   -0.7369   -1.4922 H   0  0  0  0  0  0  0  0  0  0  0  0
    4.6141   -2.0384   -0.3005 H   0  0  0  0  0  0  0  0  0  0  0  0
   -0.6637   -1.6465   -0.9916 H   0  0  0  0  0  0  0  0  0  0  0  0
   -0.2616   -2.1100    0.6929 H   0  0  0  0  0  0  0  0  0  0  0  0
   -0.0548    0.2921    1.2888 H   0  0  0  0  0  0  0  0  0  0  0  0
   -1.9997    0.2156   -1.1726 H   0  0  0  0  0  0  0  0  0  0  0  0
   -2.7896    2.3354   -0.4474 H   0  0  0  0  0  0  0  0  0  0  0  0
   -1.2501    2.8064    0.3119 H   0  0  0  0  0  0  0  0  0  0  0  0
   -3.3195    2.4360    1.8950 H   0  0  0  0  0  0  0  0  0  0  0  0
   -2.9759    0.7016    1.6072 H   0  0  0  0  0  0  0  0  0  0  0  0
   -1.6739    1.7372    2.3228 H   0  0  0  0  0  0  0  0  0  0  0  0
  1  2  1  0
  2  3  3  0
  3  4  1  0
  4  5  1  0
  5  6  1  0
  6  7  1  0
  7  8  1  0
  8  9  1  0
  7  5  1  0
  1 10  1  0
  1 11  1  0
  1 12  1  0
  4 13  1  0
  4 14  1  0
  5 15  1  0
  7 16  1  0
  8 17  1  0
  8 18  1  0
  9 19  1  0
  9 20  1  0
  9 21  1  0
M  END
