
     RDKit          3D

 21 20  0  0  0  0  0  0  0  0999 V2000
    3.8491   -0.4268    0.0156 C   0  0  0  0  0  0  0  0  0  0  0  0
    2.4072   -0.1696    0.0854 C   0  0  0  0  0  0  0  0  0  0  0  0
    1.2078    0.0435    0.1422 C   0  0  0  0  0  0  0  0  0  0  0  0
   -0.2371    0.2747    0.2132 C   0  0  0  0  0  0  0  0  0  0  0  0
   -0.4857    1.0875    1.2867 O   0  0  0  0  0  0  0  0  0  0  0  0
   -0.9704   -1.0460    0.2808 C   0  0  0  0  0  0  0  0  0  0  0  0
   -2.4487   -0.8982    0.3554 C   0  0  0  0  0  0  0  0  0  0  0  0
   -0.6209    0.9979   -1.0773 C   0  0  0  0  0  0  0  0  0  0  0  0
   -1.9704    1.3163   -1.0409 O   0  0  0  0  0  0  0  0  0  0  0  0
    4.4263    0.4976   -0.1753 H   0  0  0  0  0  0  0  0  0  0  0  0
    4.1274   -0.8705    1.0118 H   0  0  0  0  0  0  0  0  0  0  0  0
    4.1030   -1.1318   -0.8068 H   0  0  0  0  0  0  0  0  0  0  0  0
   -1.2093    1.7271    1.0102 H   0  0  0  0  0  0  0  0  0  0  0  0
   -0.6486   -1.7038   -0.5355 H   0  0  0  0  0  0  0  0  0  0  0  0
   -0.6253   -1.5398    1.2295 H   0  0  0  0  0  0  0  0  0  0  0  0
   -2.9552   -0.9627   -0.6294 H   0  0  0  0  0  0  0  0  0  0  0  0
   -2.8549   -1.7342    0.9626 H   0  0  0  0  0  0  0  0  0  0  0  0
   -2.6945    0.0344    0.8964 H   0  0  0  0  0  0  0  0  0  0  0  0
   -0.3669    0.3122   -1.9112 H   0  0  0  0  0  0  0  0  0  0  0  0
    0.0043    1.9059   -1.1878 H   0  0  0  0  0  0  0  0  0  0  0  0
   -2.0373    2.2861   -0.7824 H   0  0  0  0  0  0  0  0  0  0  0  0
  1  2  1  0
  2  3  3  0
  3  4  1  0
  4  5  1  0
  4  6  1  0
  6  7  1  0
  4  8  1  0
  8  9  1  0
  1 10  1  0
  1 11  1  0
  1 12  1  0
  5 13  1  0
  6 14  1  0
  6 15  1  0
  7 16  1  0
  7 17  1  0
  7 18  1  0
  8 19  1  0
  8 20  1  0
  9 21  1  0
M  END
