
     RDKit          3D

 17 18  0  0  0  0  0  0  0  0999 V2000
    3.1228   -0.1845   -0.9978 C   0  0  0  0  0  0  0  0  0  0  0  0
    1.5672   -0.4675   -0.6355 C   0  0  0  0  0  0  0  0  0  0  0  0
    0.4620   -0.6655   -0.3893 C   0  0  0  0  0  0  0  0  0  0  0  0
   -1.0284   -0.9448   -0.0638 C   0  0  0  0  0  0  0  0  0  0  0  0
   -2.0246   -0.1282   -0.7499 C   0  0  0  0  0  0  0  0  0  0  0  0
   -1.4442    0.4999    0.3984 C   0  0  0  0  0  0  0  0  0  0  0  0
   -0.5377    1.5836    0.0981 O   0  0  0  0  0  0  0  0  0  0  0  0
   -1.2874   -0.0323    1.7652 C   0  0  0  0  0  0  0  0  0  0  0  0
   -1.1183   -1.2897    1.2925 O   0  0  0  0  0  0  0  0  0  0  0  0
    3.7357   -0.7072   -0.3687 H   0  0  0  0  0  0  0  0  0  0  0  0
    3.1497   -0.9506   -1.9880 H   0  0  0  0  0  0  0  0  0  0  0  0
    3.1994    0.7413   -1.4100 H   0  0  0  0  0  0  0  0  0  0  0  0
   -1.7078    0.3420   -1.7503 H   0  0  0  0  0  0  0  0  0  0  0  0
   -3.0898   -0.4041   -0.7866 H   0  0  0  0  0  0  0  0  0  0  0  0
   -0.3798    2.0696    0.9659 H   0  0  0  0  0  0  0  0  0  0  0  0
   -2.2334    0.1536    2.3514 H   0  0  0  0  0  0  0  0  0  0  0  0
   -0.3852    0.3842    2.3044 H   0  0  0  0  0  0  0  0  0  0  0  0
  1  2  1  0
  2  3  3  0
  3  4  1  0
  4  5  1  0
  5  6  1  0
  6  7  1  0
  6  8  1  0
  8  9  1  0
  6  4  1  0
  9  4  1  0
  1 10  1  0
  1 11  1  0
  1 12  1  0
  5 13  1  0
  5 14  1  0
  7 15  1  0
  8 16  1  0
  8 17  1  0
M  END
