
     RDKit          3D

 23 22  0  0  0  0  0  0  0  0999 V2000
   -3.4675    1.2941    0.5870 C   0  0  0  0  0  0  0  0  0  0  0  0
   -2.2027    0.6217    0.2559 C   0  0  0  0  0  0  0  0  0  0  0  0
   -1.1743    0.0521   -0.0188 C   0  0  0  0  0  0  0  0  0  0  0  0
    0.0782   -0.6679   -0.3458 C   0  0  0  0  0  0  0  0  0  0  0  0
    0.1948   -1.9226    0.4915 C   0  0  0  0  0  0  0  0  0  0  0  0
    0.0775   -1.0694   -1.6785 O   0  0  0  0  0  0  0  0  0  0  0  0
    1.2129    0.2639   -0.0231 C   0  0  0  0  0  0  0  0  0  0  0  0
    1.1726    1.5410   -0.7980 C   0  0  0  0  0  0  0  0  0  0  0  0
    2.5078   -0.4692   -0.3531 C   0  0  0  0  0  0  0  0  0  0  0  0
   -4.1938    1.2359   -0.2567 H   0  0  0  0  0  0  0  0  0  0  0  0
   -3.2229    2.3373    0.8645 H   0  0  0  0  0  0  0  0  0  0  0  0
   -3.9846    0.7726    1.4410 H   0  0  0  0  0  0  0  0  0  0  0  0
   -0.8373   -2.2349    0.7454 H   0  0  0  0  0  0  0  0  0  0  0  0
    0.8236   -1.7719    1.3933 H   0  0  0  0  0  0  0  0  0  0  0  0
    0.6286   -2.7756   -0.0905 H   0  0  0  0  0  0  0  0  0  0  0  0
   -0.8158   -1.4311   -1.9096 H   0  0  0  0  0  0  0  0  0  0  0  0
    1.2130    0.4720    1.0494 H   0  0  0  0  0  0  0  0  0  0  0  0
    2.2328    1.9079   -0.8775 H   0  0  0  0  0  0  0  0  0  0  0  0
    0.7659    1.4376   -1.8188 H   0  0  0  0  0  0  0  0  0  0  0  0
    0.5743    2.3442   -0.2971 H   0  0  0  0  0  0  0  0  0  0  0  0
    2.6373   -0.4926   -1.4530 H   0  0  0  0  0  0  0  0  0  0  0  0
    3.3601    0.0723    0.1091 H   0  0  0  0  0  0  0  0  0  0  0  0
    2.4195   -1.5172   -0.0173 H   0  0  0  0  0  0  0  0  0  0  0  0
  1  2  1  0
  2  3  3  0
  3  4  1  0
  4  5  1  0
  4  6  1  0
  4  7  1  0
  7  8  1  0
  7  9  1  0
  1 10  1  0
  1 11  1  0
  1 12  1  0
  5 13  1  0
  5 14  1  0
  5 15  1  0
  6 16  1  0
  7 17  1  0
  8 18  1  0
  8 19  1  0
  8 20  1  0
  9 21  1  0
  9 22  1  0
  9 23  1  0
M  END
