
     RDKit          3D

 20 20  0  0  0  0  0  0  0  0999 V2000
    3.7595   -0.2135   -0.2103 C   0  0  0  0  0  0  0  0  0  0  0  0
    2.3176   -0.3460    0.0699 C   0  0  0  0  0  0  0  0  0  0  0  0
    1.1357   -0.4528    0.2783 C   0  0  0  0  0  0  0  0  0  0  0  0
   -0.2991   -0.5710    0.5542 C   0  0  0  0  0  0  0  0  0  0  0  0
   -0.8661    0.7452    1.0802 C   0  0  0  0  0  0  0  0  0  0  0  0
   -1.8350    1.2099   -0.0057 C   0  0  0  0  0  0  0  0  0  0  0  0
   -2.3390   -0.1313   -0.5184 C   0  0  0  0  0  0  0  0  0  0  0  0
   -1.0001   -0.8493   -0.7438 C   0  0  0  0  0  0  0  0  0  0  0  0
    4.1603   -1.1829   -0.5363 H   0  0  0  0  0  0  0  0  0  0  0  0
    4.3130    0.0775    0.7103 H   0  0  0  0  0  0  0  0  0  0  0  0
    3.9495    0.6083   -0.9510 H   0  0  0  0  0  0  0  0  0  0  0  0
   -0.4839   -1.4094    1.2366 H   0  0  0  0  0  0  0  0  0  0  0  0
   -1.3888    0.5665    2.0448 H   0  0  0  0  0  0  0  0  0  0  0  0
   -0.0370    1.4684    1.1636 H   0  0  0  0  0  0  0  0  0  0  0  0
   -2.6315    1.8427    0.3968 H   0  0  0  0  0  0  0  0  0  0  0  0
   -1.2379    1.6915   -0.7999 H   0  0  0  0  0  0  0  0  0  0  0  0
   -2.9287   -0.0548   -1.4283 H   0  0  0  0  0  0  0  0  0  0  0  0
   -2.8380   -0.6461    0.3245 H   0  0  0  0  0  0  0  0  0  0  0  0
   -0.4827   -0.4299   -1.6262 H   0  0  0  0  0  0  0  0  0  0  0  0
   -1.2678   -1.9229   -0.8722 H   0  0  0  0  0  0  0  0  0  0  0  0
  1  2  1  0
  2  3  3  0
  3  4  1  0
  4  5  1  0
  5  6  1  0
  6  7  1  0
  7  8  1  0
  8  4  1  0
  1  9  1  0
  1 10  1  0
  1 11  1  0
  4 12  1  0
  5 13  1  0
  5 14  1  0
  6 15  1  0
  6 16  1  0
  7 17  1  0
  7 18  1  0
  8 19  1  0
  8 20  1  0
M  END
