
     RDKit          3D

 19 19  0  0  0  0  0  0  0  0999 V2000
    3.2601   -0.9878   -0.3128 C   0  0  0  0  0  0  0  0  0  0  0  0
    1.9327   -0.4623   -0.1743 C   0  0  0  0  0  0  0  0  0  0  0  0
    0.8438   -0.0405   -0.0433 C   0  0  0  0  0  0  0  0  0  0  0  0
   -0.4791    0.4927    0.1007 C   0  0  0  0  0  0  0  0  0  0  0  0
   -1.6664   -0.3233   -0.3100 C   0  0  0  0  0  0  0  0  0  0  0  0
   -2.0146   -1.5493    0.4282 C   0  0  0  0  0  0  0  0  0  0  0  0
   -2.3279    0.0565   -1.2509 O   0  0  0  0  0  0  0  0  0  0  0  0
   -0.4375    1.9336   -0.6267 C   0  0  0  0  0  0  0  0  0  0  0  0
   -0.8650    1.7330    0.8055 C   0  0  0  0  0  0  0  0  0  0  0  0
    3.7094   -1.0794   -1.2856 H   0  0  0  0  0  0  0  0  0  0  0  0
    3.2342   -2.1098    0.0293 H   0  0  0  0  0  0  0  0  0  0  0  0
    3.9761   -0.5410    0.4092 H   0  0  0  0  0  0  0  0  0  0  0  0
   -1.5789   -2.4101   -0.0482 H   0  0  0  0  0  0  0  0  0  0  0  0
   -1.7267   -1.4252    1.5176 H   0  0  0  0  0  0  0  0  0  0  0  0
   -3.1537   -1.6949    0.4283 H   0  0  0  0  0  0  0  0  0  0  0  0
    0.6191    2.2864   -0.7613 H   0  0  0  0  0  0  0  0  0  0  0  0
   -1.1550    1.9282   -1.4257 H   0  0  0  0  0  0  0  0  0  0  0  0
   -0.2509    2.1328    1.6017 H   0  0  0  0  0  0  0  0  0  0  0  0
   -1.9195    2.0602    0.9182 H   0  0  0  0  0  0  0  0  0  0  0  0
  1  2  1  0
  2  3  3  0
  3  4  1  0
  4  5  1  0
  5  6  1  0
  5  7  2  0
  4  8  1  0
  8  9  1  0
  9  4  1  0
  1 10  1  0
  1 11  1  0
  1 12  1  0
  6 13  1  0
  6 14  1  0
  6 15  1  0
  8 16  1  0
  8 17  1  0
  9 18  1  0
  9 19  1  0
M  END
