
     RDKit          3D

 19 19  0  0  0  0  0  0  0  0999 V2000
    3.7724    0.7763   -1.1514 C   0  0  0  0  0  0  0  0  0  0  0  0
    2.6507    0.0720   -0.5698 C   0  0  0  0  0  0  0  0  0  0  0  0
    1.7073   -0.5048   -0.0662 C   0  0  0  0  0  0  0  0  0  0  0  0
    0.5686   -1.2140    0.5334 C   0  0  0  0  0  0  0  0  0  0  0  0
   -0.4954   -0.2327    0.9959 C   0  0  0  0  0  0  0  0  0  0  0  0
   -0.9782    0.5404   -0.1133 O   0  0  0  0  0  0  0  0  0  0  0  0
   -1.8494   -0.4757    0.5690 C   0  0  0  0  0  0  0  0  0  0  0  0
   -3.0480    0.2221    1.1149 C   0  0  0  0  0  0  0  0  0  0  0  0
   -3.7226    0.8150    0.0406 O   0  0  0  0  0  0  0  0  0  0  0  0
    3.4615    1.4159   -2.0209 H   0  0  0  0  0  0  0  0  0  0  0  0
    4.5405    0.0765   -1.5732 H   0  0  0  0  0  0  0  0  0  0  0  0
    4.2760    1.3767   -0.3873 H   0  0  0  0  0  0  0  0  0  0  0  0
    0.1448   -1.8663   -0.2552 H   0  0  0  0  0  0  0  0  0  0  0  0
    0.9198   -1.8515    1.3661 H   0  0  0  0  0  0  0  0  0  0  0  0
   -0.2933    0.3533    1.9075 H   0  0  0  0  0  0  0  0  0  0  0  0
   -2.0333   -1.2681   -0.1815 H   0  0  0  0  0  0  0  0  0  0  0  0
   -2.7769    0.9457    1.8892 H   0  0  0  0  0  0  0  0  0  0  0  0
   -3.7322   -0.5514    1.5292 H   0  0  0  0  0  0  0  0  0  0  0  0
   -3.1121    1.3708   -0.5197 H   0  0  0  0  0  0  0  0  0  0  0  0
  1  2  1  0
  2  3  3  0
  3  4  1  0
  4  5  1  0
  5  6  1  0
  6  7  1  0
  7  8  1  0
  8  9  1  0
  7  5  1  0
  1 10  1  0
  1 11  1  0
  1 12  1  0
  4 13  1  0
  4 14  1  0
  5 15  1  0
  7 16  1  0
  8 17  1  0
  8 18  1  0
  9 19  1  0
M  END
