
     RDKit          3D

 21 20  0  0  0  0  0  0  0  0999 V2000
    4.5859    0.2806   -0.0050 C   0  0  0  0  0  0  0  0  0  0  0  0
    3.1496    0.1071   -0.2786 C   0  0  0  0  0  0  0  0  0  0  0  0
    1.9745   -0.0246   -0.5150 C   0  0  0  0  0  0  0  0  0  0  0  0
    0.5606   -0.1643   -0.8056 C   0  0  0  0  0  0  0  0  0  0  0  0
    0.2472   -0.8317   -1.8259 O   0  0  0  0  0  0  0  0  0  0  0  0
   -0.4613    0.4652    0.0812 C   0  0  0  0  0  0  0  0  0  0  0  0
   -1.8259    0.1403   -0.4845 C   0  0  0  0  0  0  0  0  0  0  0  0
   -2.9392    0.7261    0.3316 C   0  0  0  0  0  0  0  0  0  0  0  0
   -1.9549   -1.3436   -0.6717 C   0  0  0  0  0  0  0  0  0  0  0  0
    4.8607    1.3323    0.1646 H   0  0  0  0  0  0  0  0  0  0  0  0
    5.1265   -0.0499   -0.9190 H   0  0  0  0  0  0  0  0  0  0  0  0
    4.8239   -0.3175    0.8736 H   0  0  0  0  0  0  0  0  0  0  0  0
   -0.3287   -0.0107    1.0811 H   0  0  0  0  0  0  0  0  0  0  0  0
   -0.2962    1.5504    0.1758 H   0  0  0  0  0  0  0  0  0  0  0  0
   -1.8727    0.6149   -1.4915 H   0  0  0  0  0  0  0  0  0  0  0  0
   -2.7910    1.8425    0.3175 H   0  0  0  0  0  0  0  0  0  0  0  0
   -2.9962    0.3396    1.3523 H   0  0  0  0  0  0  0  0  0  0  0  0
   -3.8845    0.5538   -0.2298 H   0  0  0  0  0  0  0  0  0  0  0  0
   -2.9012   -1.6783   -0.1788 H   0  0  0  0  0  0  0  0  0  0  0  0
   -1.9438   -1.6434   -1.7535 H   0  0  0  0  0  0  0  0  0  0  0  0
   -1.1335   -1.8886   -0.1969 H   0  0  0  0  0  0  0  0  0  0  0  0
  1  2  1  0
  2  3  3  0
  3  4  1  0
  4  5  2  0
  4  6  1  0
  6  7  1  0
  7  8  1  0
  7  9  1  0
  1 10  1  0
  1 11  1  0
  1 12  1  0
  6 13  1  0
  6 14  1  0
  7 15  1  0
  8 16  1  0
  8 17  1  0
  8 18  1  0
  9 19  1  0
  9 20  1  0
  9 21  1  0
M  END
