
     RDKit          3D

 19 19  0  0  0  0  0  0  0  0999 V2000
    3.5445   -0.1073   -0.0565 C   0  0  0  0  0  0  0  0  0  0  0  0
    2.1513    0.3146   -0.0847 C   0  0  0  0  0  0  0  0  0  0  0  0
    0.9805    0.6626   -0.0881 C   0  0  0  0  0  0  0  0  0  0  0  0
   -0.4298    1.0556   -0.0871 C   0  0  0  0  0  0  0  0  0  0  0  0
   -0.8127    1.2490    1.2243 O   0  0  0  0  0  0  0  0  0  0  0  0
   -1.2070   -0.0492   -0.7402 C   0  0  0  0  0  0  0  0  0  0  0  0
   -1.0244   -1.3398    0.0312 C   0  0  0  0  0  0  0  0  0  0  0  0
   -2.0728   -0.9142    0.8606 O   0  0  0  0  0  0  0  0  0  0  0  0
   -2.6006   -0.2573   -0.2526 C   0  0  0  0  0  0  0  0  0  0  0  0
    3.9513    0.1013    0.9534 H   0  0  0  0  0  0  0  0  0  0  0  0
    3.6391   -1.2030   -0.2531 H   0  0  0  0  0  0  0  0  0  0  0  0
    4.1559    0.3955   -0.8310 H   0  0  0  0  0  0  0  0  0  0  0  0
   -0.5966    2.0016   -0.6351 H   0  0  0  0  0  0  0  0  0  0  0  0
   -0.9938    2.1994    1.4333 H   0  0  0  0  0  0  0  0  0  0  0  0
   -1.0341   -0.1231   -1.8239 H   0  0  0  0  0  0  0  0  0  0  0  0
   -1.2998   -2.2329   -0.5841 H   0  0  0  0  0  0  0  0  0  0  0  0
   -0.0387   -1.4028    0.5324 H   0  0  0  0  0  0  0  0  0  0  0  0
   -3.1882    0.6532   -0.0261 H   0  0  0  0  0  0  0  0  0  0  0  0
   -3.1240   -1.0032   -0.8944 H   0  0  0  0  0  0  0  0  0  0  0  0
  1  2  1  0
  2  3  3  0
  3  4  1  0
  4  5  1  0
  4  6  1  0
  6  7  1  0
  7  8  1  0
  8  9  1  0
  9  6  1  0
  1 10  1  0
  1 11  1  0
  1 12  1  0
  4 13  1  0
  5 14  1  0
  6 15  1  0
  7 16  1  0
  7 17  1  0
  9 18  1  0
  9 19  1  0
M  END
