
     RDKit          3D

 23 23  0  0  0  0  0  0  0  0999 V2000
    3.1780   -1.5999    0.6931 C   0  0  0  0  0  0  0  0  0  0  0  0
    1.9458   -0.9778    0.1995 C   0  0  0  0  0  0  0  0  0  0  0  0
    0.9380   -0.4454   -0.2069 C   0  0  0  0  0  0  0  0  0  0  0  0
   -0.2806    0.2239   -0.7066 C   0  0  0  0  0  0  0  0  0  0  0  0
   -0.6114   -0.1417   -2.1443 C   0  0  0  0  0  0  0  0  0  0  0  0
   -0.3235    1.7097   -0.4151 C   0  0  0  0  0  0  0  0  0  0  0  0
   -1.7040    1.5330    0.1876 C   0  0  0  0  0  0  0  0  0  0  0  0
   -1.3937    0.0374    0.2725 C   0  0  0  0  0  0  0  0  0  0  0  0
   -1.0130   -0.4029    1.6534 C   0  0  0  0  0  0  0  0  0  0  0  0
    3.7783   -2.0310   -0.1580 H   0  0  0  0  0  0  0  0  0  0  0  0
    3.8531   -0.8173    1.1391 H   0  0  0  0  0  0  0  0  0  0  0  0
    2.9460   -2.4116    1.3805 H   0  0  0  0  0  0  0  0  0  0  0  0
   -1.2302    0.6623   -2.5554 H   0  0  0  0  0  0  0  0  0  0  0  0
    0.3664   -0.2078   -2.6846 H   0  0  0  0  0  0  0  0  0  0  0  0
   -1.1211   -1.1468   -2.1799 H   0  0  0  0  0  0  0  0  0  0  0  0
   -0.2698    2.2772   -1.3422 H   0  0  0  0  0  0  0  0  0  0  0  0
    0.4381    1.9809    0.3619 H   0  0  0  0  0  0  0  0  0  0  0  0
   -2.4655    1.8020   -0.5596 H   0  0  0  0  0  0  0  0  0  0  0  0
   -1.8440    2.0276    1.1582 H   0  0  0  0  0  0  0  0  0  0  0  0
   -2.2401   -0.5207   -0.1753 H   0  0  0  0  0  0  0  0  0  0  0  0
   -0.3941   -1.3117    1.6714 H   0  0  0  0  0  0  0  0  0  0  0  0
   -1.9687   -0.6774    2.1825 H   0  0  0  0  0  0  0  0  0  0  0  0
   -0.5839    0.4378    2.2285 H   0  0  0  0  0  0  0  0  0  0  0  0
  1  2  1  0
  2  3  3  0
  3  4  1  0
  4  5  1  0
  4  6  1  0
  6  7  1  0
  7  8  1  0
  8  9  1  0
  8  4  1  0
  1 10  1  0
  1 11  1  0
  1 12  1  0
  5 13  1  0
  5 14  1  0
  5 15  1  0
  6 16  1  0
  6 17  1  0
  7 18  1  0
  7 19  1  0
  8 20  1  0
  9 21  1  0
  9 22  1  0
  9 23  1  0
M  END
