
     RDKit          3D

 19 20  0  0  0  0  0  0  0  0999 V2000
    3.9883    0.8144   -0.0338 C   0  0  0  0  0  0  0  0  0  0  0  0
    2.5559    0.4715    0.0822 C   0  0  0  0  0  0  0  0  0  0  0  0
    1.3838    0.1829    0.1794 C   0  0  0  0  0  0  0  0  0  0  0  0
   -0.0060   -0.1596    0.2846 C   0  0  0  0  0  0  0  0  0  0  0  0
   -0.5284   -1.3332    0.6910 C   0  0  0  0  0  0  0  0  0  0  0  0
   -1.9646   -1.1033    0.6245 C   0  0  0  0  0  0  0  0  0  0  0  0
   -2.0949   -0.3800   -0.7248 C   0  0  0  0  0  0  0  0  0  0  0  0
   -1.2072    0.6397   -0.0092 C   0  0  0  0  0  0  0  0  0  0  0  0
   -2.0727    0.3098    1.2153 C   0  0  0  0  0  0  0  0  0  0  0  0
    4.4407    0.0169   -0.6601 H   0  0  0  0  0  0  0  0  0  0  0  0
    4.1283    1.8012   -0.5334 H   0  0  0  0  0  0  0  0  0  0  0  0
    4.4509    0.8864    0.9521 H   0  0  0  0  0  0  0  0  0  0  0  0
   -0.0329   -2.2397    0.9973 H   0  0  0  0  0  0  0  0  0  0  0  0
   -2.6820   -1.8166    0.8852 H   0  0  0  0  0  0  0  0  0  0  0  0
   -1.5102   -0.8562   -1.5403 H   0  0  0  0  0  0  0  0  0  0  0  0
   -3.1007   -0.0368   -0.9657 H   0  0  0  0  0  0  0  0  0  0  0  0
   -1.1636    1.6234   -0.3543 H   0  0  0  0  0  0  0  0  0  0  0  0
   -1.5107    0.4380    2.1457 H   0  0  0  0  0  0  0  0  0  0  0  0
   -3.0741    0.7413    1.1659 H   0  0  0  0  0  0  0  0  0  0  0  0
  1  2  1  0
  2  3  3  0
  3  4  1  0
  4  5  2  0
  5  6  1  0
  6  7  1  0
  7  8  1  0
  8  9  1  0
  8  4  1  0
  9  6  1  0
  1 10  1  0
  1 11  1  0
  1 12  1  0
  5 13  1  0
  6 14  1  0
  7 15  1  0
  7 16  1  0
  8 17  1  0
  9 18  1  0
  9 19  1  0
M  END
