
     RDKit          3D

 18 18  0  0  0  0  0  0  0  0999 V2000
    3.3154    0.4348   -0.4357 C   0  0  0  0  0  0  0  0  0  0  0  0
    1.8708    0.2267   -0.2166 C   0  0  0  0  0  0  0  0  0  0  0  0
    0.6886    0.0359   -0.0428 C   0  0  0  0  0  0  0  0  0  0  0  0
   -0.7143   -0.1756    0.1429 C   0  0  0  0  0  0  0  0  0  0  0  0
   -1.1334   -0.7744    1.4642 C   0  0  0  0  0  0  0  0  0  0  0  0
   -1.4821   -0.6875   -1.0521 C   0  0  0  0  0  0  0  0  0  0  0  0
   -1.5396    0.6325   -1.4998 O   0  0  0  0  0  0  0  0  0  0  0  0
   -1.5899    1.0221   -0.1616 C   0  0  0  0  0  0  0  0  0  0  0  0
    3.5262    1.4365   -0.8607 H   0  0  0  0  0  0  0  0  0  0  0  0
    3.7342   -0.3229   -1.1205 H   0  0  0  0  0  0  0  0  0  0  0  0
    3.8559    0.3750    0.5486 H   0  0  0  0  0  0  0  0  0  0  0  0
   -1.8641   -1.5980    1.3472 H   0  0  0  0  0  0  0  0  0  0  0  0
   -1.5529    0.0258    2.1350 H   0  0  0  0  0  0  0  0  0  0  0  0
   -0.2158   -1.1363    2.0143 H   0  0  0  0  0  0  0  0  0  0  0  0
   -0.8080   -1.2615   -1.7127 H   0  0  0  0  0  0  0  0  0  0  0  0
   -2.4404   -1.1679   -0.8273 H   0  0  0  0  0  0  0  0  0  0  0  0
   -1.0392    1.9622    0.0560 H   0  0  0  0  0  0  0  0  0  0  0  0
   -2.6114    0.9724    0.2218 H   0  0  0  0  0  0  0  0  0  0  0  0
  1  2  1  0
  2  3  3  0
  3  4  1  0
  4  5  1  0
  4  6  1  0
  6  7  1  0
  7  8  1  0
  8  4  1  0
  1  9  1  0
  1 10  1  0
  1 11  1  0
  5 12  1  0
  5 13  1  0
  5 14  1  0
  6 15  1  0
  6 16  1  0
  8 17  1  0
  8 18  1  0
M  END
