
     RDKit          3D

 17 17  0  0  0  0  0  0  0  0999 V2000
    3.1154    0.1635   -1.7531 C   0  0  0  0  0  0  0  0  0  0  0  0
    1.7813    0.0806   -0.9094 C   0  0  0  0  0  0  0  0  0  0  0  0
    0.8656    0.0319   -0.3110 C   0  0  0  0  0  0  0  0  0  0  0  0
   -0.4143   -0.0192    0.5425 C   0  0  0  0  0  0  0  0  0  0  0  0
   -0.8333   -1.2483    1.0661 C   0  0  0  0  0  0  0  0  0  0  0  0
   -2.1551   -0.9153    1.6031 O   0  0  0  0  0  0  0  0  0  0  0  0
   -2.6596    0.1764    0.7961 C   0  0  0  0  0  0  0  0  0  0  0  0
   -3.8898    0.4364    0.7093 O   0  0  0  0  0  0  0  0  0  0  0  0
   -1.5254    0.8552    0.1652 C   0  0  0  0  0  0  0  0  0  0  0  0
    2.7646   -0.0060   -2.7529 H   0  0  0  0  0  0  0  0  0  0  0  0
    3.4750    1.1632   -1.5073 H   0  0  0  0  0  0  0  0  0  0  0  0
    3.7387   -0.6328   -1.3739 H   0  0  0  0  0  0  0  0  0  0  0  0
    0.0362    0.5623    1.5373 H   0  0  0  0  0  0  0  0  0  0  0  0
   -0.9704   -2.1078    0.4181 H   0  0  0  0  0  0  0  0  0  0  0  0
   -0.2309   -1.5026    2.0376 H   0  0  0  0  0  0  0  0  0  0  0  0
   -1.4070    1.9340    0.6285 H   0  0  0  0  0  0  0  0  0  0  0  0
   -1.6909    1.0285   -0.8962 H   0  0  0  0  0  0  0  0  0  0  0  0
  1  2  1  0
  2  3  3  0
  3  4  1  0
  4  5  1  0
  5  6  1  0
  6  7  1  0
  7  8  2  0
  7  9  1  0
  9  4  1  0
  1 10  1  0
  1 11  1  0
  1 12  1  0
  4 13  1  0
  5 14  1  0
  5 15  1  0
  9 16  1  0
  9 17  1  0
M  END
