
     RDKit          3D

 16 16  0  0  0  0  0  0  0  0999 V2000
    3.2952   -0.1535    0.3374 C   0  0  0  0  0  0  0  0  0  0  0  0
    1.7008   -0.0837    0.2255 C   0  0  0  0  0  0  0  0  0  0  0  0
    0.5909   -0.0444    0.1531 C   0  0  0  0  0  0  0  0  0  0  0  0
   -0.9227    0.0113    0.0285 C   0  0  0  0  0  0  0  0  0  0  0  0
   -1.4747   -0.9662   -0.9093 C   0  0  0  0  0  0  0  0  0  0  0  0
   -2.6818   -0.9088   -1.1804 O   0  0  0  0  0  0  0  0  0  0  0  0
   -1.6079    0.0707    1.4405 C   0  0  0  0  0  0  0  0  0  0  0  0
   -1.6549    1.1945    0.4667 C   0  0  0  0  0  0  0  0  0  0  0  0
    3.5115   -0.3404    1.3891 H   0  0  0  0  0  0  0  0  0  0  0  0
    3.5550   -0.9489   -0.3406 H   0  0  0  0  0  0  0  0  0  0  0  0
    3.6292    0.8163   -0.0073 H   0  0  0  0  0  0  0  0  0  0  0  0
   -0.8753   -1.7161   -1.3586 H   0  0  0  0  0  0  0  0  0  0  0  0
   -0.8742    0.2422    2.3002 H   0  0  0  0  0  0  0  0  0  0  0  0
   -2.4176   -0.6387    1.5974 H   0  0  0  0  0  0  0  0  0  0  0  0
   -2.6659    1.3355    0.0405 H   0  0  0  0  0  0  0  0  0  0  0  0
   -1.1077    2.1302    0.7318 H   0  0  0  0  0  0  0  0  0  0  0  0
  1  2  1  0
  2  3  3  0
  3  4  1  0
  4  5  1  0
  5  6  2  0
  4  7  1  0
  7  8  1  0
  8  4  1  0
  1  9  1  0
  1 10  1  0
  1 11  1  0
  5 12  1  0
  7 13  1  0
  7 14  1  0
  8 15  1  0
  8 16  1  0
M  END
