
     RDKit          3D

 17 18  0  0  0  0  0  0  0  0999 V2000
   -2.7196   -2.5617    0.2472 C   0  0  0  0  0  0  0  0  0  0  0  0
   -1.8033   -1.4228    0.1375 C   0  0  0  0  0  0  0  0  0  0  0  0
   -1.0556   -0.4986    0.0277 C   0  0  0  0  0  0  0  0  0  0  0  0
   -0.1400    0.6087   -0.1250 C   0  0  0  0  0  0  0  0  0  0  0  0
    1.0748    0.3579   -1.0189 C   0  0  0  0  0  0  0  0  0  0  0  0
    1.8170    1.3479   -0.1118 C   0  0  0  0  0  0  0  0  0  0  0  0
    2.9482    0.8218    0.4610 O   0  0  0  0  0  0  0  0  0  0  0  0
    0.5672    1.3298    0.7649 C   0  0  0  0  0  0  0  0  0  0  0  0
   -0.5311    1.9058    0.1300 O   0  0  0  0  0  0  0  0  0  0  0  0
   -2.2373   -3.4599   -0.1932 H   0  0  0  0  0  0  0  0  0  0  0  0
   -2.9576   -2.7794    1.3272 H   0  0  0  0  0  0  0  0  0  0  0  0
   -3.6816   -2.3209   -0.2483 H   0  0  0  0  0  0  0  0  0  0  0  0
    1.4471   -0.6588   -0.8969 H   0  0  0  0  0  0  0  0  0  0  0  0
    0.9546    0.7238   -2.0469 H   0  0  0  0  0  0  0  0  0  0  0  0
    1.9103    2.3623   -0.5505 H   0  0  0  0  0  0  0  0  0  0  0  0
    3.7662    1.3423    0.2644 H   0  0  0  0  0  0  0  0  0  0  0  0
    0.6406    1.4756    1.8315 H   0  0  0  0  0  0  0  0  0  0  0  0
  1  2  1  0
  2  3  3  0
  3  4  1  0
  4  5  1  0
  5  6  1  0
  6  7  1  0
  6  8  1  0
  8  9  1  0
  8  4  1  0
  9  4  1  0
  1 10  1  0
  1 11  1  0
  1 12  1  0
  5 13  1  0
  5 14  1  0
  6 15  1  0
  7 16  1  0
  8 17  1  0
M  END
