
     RDKit          3D

 19 18  0  0  0  0  0  0  0  0999 V2000
    2.5215    1.0778   -1.9039 C   0  0  0  0  0  0  0  0  0  0  0  0
    1.5626    0.4295   -1.0085 C   0  0  0  0  0  0  0  0  0  0  0  0
    0.7837   -0.1105   -0.2574 C   0  0  0  0  0  0  0  0  0  0  0  0
   -0.1616   -0.7917    0.6508 C   0  0  0  0  0  0  0  0  0  0  0  0
    0.2091   -2.2203    0.6651 C   0  0  0  0  0  0  0  0  0  0  0  0
    1.1183   -2.5982    1.3632 O   0  0  0  0  0  0  0  0  0  0  0  0
   -1.5440   -0.6065    0.0454 C   0  0  0  0  0  0  0  0  0  0  0  0
   -1.8413    0.8836   -0.0481 C   0  0  0  0  0  0  0  0  0  0  0  0
   -1.8135    1.4821    1.2042 O   0  0  0  0  0  0  0  0  0  0  0  0
    1.9557    1.3405   -2.8280 H   0  0  0  0  0  0  0  0  0  0  0  0
    3.3231    0.3740   -2.2404 H   0  0  0  0  0  0  0  0  0  0  0  0
    2.9665    1.9848   -1.4305 H   0  0  0  0  0  0  0  0  0  0  0  0
   -0.1117   -0.3318    1.6560 H   0  0  0  0  0  0  0  0  0  0  0  0
   -0.3279   -2.9188    0.0572 H   0  0  0  0  0  0  0  0  0  0  0  0
   -2.2637   -1.0746    0.7459 H   0  0  0  0  0  0  0  0  0  0  0  0
   -1.5887   -1.0233   -0.9796 H   0  0  0  0  0  0  0  0  0  0  0  0
   -2.8154    0.9995   -0.5582 H   0  0  0  0  0  0  0  0  0  0  0  0
   -1.0881    1.3905   -0.6696 H   0  0  0  0  0  0  0  0  0  0  0  0
   -0.8846    1.7133    1.4580 H   0  0  0  0  0  0  0  0  0  0  0  0
  1  2  1  0
  2  3  3  0
  3  4  1  0
  4  5  1  0
  5  6  2  0
  4  7  1  0
  7  8  1  0
  8  9  1  0
  1 10  1  0
  1 11  1  0
  1 12  1  0
  4 13  1  0
  5 14  1  0
  7 15  1  0
  7 16  1  0
  8 17  1  0
  8 18  1  0
  9 19  1  0
M  END
