
     RDKit          3D

 17 17  0  0  0  0  0  0  0  0999 V2000
    3.8458    0.7653   -0.0287 C   0  0  0  0  0  0  0  0  0  0  0  0
    2.3967    0.5634    0.0535 C   0  0  0  0  0  0  0  0  0  0  0  0
    1.1873    0.4141    0.1218 C   0  0  0  0  0  0  0  0  0  0  0  0
   -0.2646    0.2598    0.2062 C   0  0  0  0  0  0  0  0  0  0  0  0
   -0.7516   -0.5603   -0.9181 C   0  0  0  0  0  0  0  0  0  0  0  0
    0.0466   -0.9872   -1.7320 O   0  0  0  0  0  0  0  0  0  0  0  0
   -2.1906   -0.8680   -1.0668 C   0  0  0  0  0  0  0  0  0  0  0  0
   -3.1733   -0.5775   -0.0214 C   0  0  0  0  0  0  0  0  0  0  0  0
   -3.0119    0.3796   -1.0115 O   0  0  0  0  0  0  0  0  0  0  0  0
    4.1077    1.8540    0.0373 H   0  0  0  0  0  0  0  0  0  0  0  0
    4.1801    0.4270   -1.0263 H   0  0  0  0  0  0  0  0  0  0  0  0
    4.3770    0.2626    0.8023 H   0  0  0  0  0  0  0  0  0  0  0  0
   -0.4809   -0.2072    1.1974 H   0  0  0  0  0  0  0  0  0  0  0  0
   -0.7807    1.2525    0.2188 H   0  0  0  0  0  0  0  0  0  0  0  0
   -2.4850   -1.4840   -1.9268 H   0  0  0  0  0  0  0  0  0  0  0  0
   -4.1015   -1.2181   -0.0450 H   0  0  0  0  0  0  0  0  0  0  0  0
   -2.9010   -0.2761    0.9925 H   0  0  0  0  0  0  0  0  0  0  0  0
  1  2  1  0
  2  3  3  0
  3  4  1  0
  4  5  1  0
  5  6  2  0
  5  7  1  0
  7  8  1  0
  8  9  1  0
  9  7  1  0
  1 10  1  0
  1 11  1  0
  1 12  1  0
  4 13  1  0
  4 14  1  0
  7 15  1  0
  8 16  1  0
  8 17  1  0
M  END
