
     RDKit          3D

 21 21  0  0  0  0  0  0  0  0999 V2000
    2.0856    2.1823   -1.5999 C   0  0  0  0  0  0  0  0  0  0  0  0
    1.4464    1.0718   -0.8907 C   0  0  0  0  0  0  0  0  0  0  0  0
    0.9325    0.1372   -0.2954 C   0  0  0  0  0  0  0  0  0  0  0  0
    0.2957   -0.9702    0.4258 C   0  0  0  0  0  0  0  0  0  0  0  0
   -1.1197   -0.7290    0.8225 C   0  0  0  0  0  0  0  0  0  0  0  0
   -2.0193   -0.4682   -0.3916 C   0  0  0  0  0  0  0  0  0  0  0  0
   -1.2428    0.4474    1.7300 C   0  0  0  0  0  0  0  0  0  0  0  0
    1.1482   -1.9207    1.1828 C   0  0  0  0  0  0  0  0  0  0  0  0
    0.5677   -2.2838   -0.0949 O   0  0  0  0  0  0  0  0  0  0  0  0
    3.0151    2.5150   -1.0631 H   0  0  0  0  0  0  0  0  0  0  0  0
    1.3486    2.9874   -1.6702 H   0  0  0  0  0  0  0  0  0  0  0  0
    2.4560    1.8412   -2.6099 H   0  0  0  0  0  0  0  0  0  0  0  0
   -1.5498   -1.6519    1.2985 H   0  0  0  0  0  0  0  0  0  0  0  0
   -2.0153    0.6376   -0.5871 H   0  0  0  0  0  0  0  0  0  0  0  0
   -3.0452   -0.7290   -0.1205 H   0  0  0  0  0  0  0  0  0  0  0  0
   -1.6604   -1.0305   -1.2787 H   0  0  0  0  0  0  0  0  0  0  0  0
   -0.8011    1.3291    1.1901 H   0  0  0  0  0  0  0  0  0  0  0  0
   -0.5848    0.2707    2.6272 H   0  0  0  0  0  0  0  0  0  0  0  0
   -2.2544    0.6230    2.0949 H   0  0  0  0  0  0  0  0  0  0  0  0
    2.2466   -1.8017    1.0493 H   0  0  0  0  0  0  0  0  0  0  0  0
    0.7504   -2.4576    2.0574 H   0  0  0  0  0  0  0  0  0  0  0  0
  1  2  1  0
  2  3  3  0
  3  4  1  0
  4  5  1  0
  5  6  1  0
  5  7  1  0
  4  8  1  0
  8  9  1  0
  9  4  1  0
  1 10  1  0
  1 11  1  0
  1 12  1  0
  5 13  1  0
  6 14  1  0
  6 15  1  0
  6 16  1  0
  7 17  1  0
  7 18  1  0
  7 19  1  0
  8 20  1  0
  8 21  1  0
M  END
