
     RDKit          3D

 17 16  0  0  0  0  0  0  0  0999 V2000
    4.8713   -0.4928    2.8245 C   0  0  0  0  0  0  0  0  0  0  0  0
    3.6923   -0.3051    2.0539 C   0  0  0  0  0  0  0  0  0  0  0  0
    2.6816   -0.1630    1.3869 C   0  0  0  0  0  0  0  0  0  0  0  0
    1.5098   -0.0034    0.6419 C   0  0  0  0  0  0  0  0  0  0  0  0
    0.4117    0.1289   -0.0711 C   0  0  0  0  0  0  0  0  0  0  0  0
   -0.6902    0.2768   -0.7675 C   0  0  0  0  0  0  0  0  0  0  0  0
   -1.7101    0.3967   -1.4261 C   0  0  0  0  0  0  0  0  0  0  0  0
   -2.9671    0.5256   -2.2513 C   0  0  0  0  0  0  0  0  0  0  0  0
   -4.1123   -0.2062   -1.5950 C   0  0  0  0  0  0  0  0  0  0  0  0
    5.6709    0.1814    2.3776 H   0  0  0  0  0  0  0  0  0  0  0  0
    4.6647   -0.1187    3.8660 H   0  0  0  0  0  0  0  0  0  0  0  0
    5.2425   -1.5025    2.7624 H   0  0  0  0  0  0  0  0  0  0  0  0
   -3.1677    1.5950   -2.3178 H   0  0  0  0  0  0  0  0  0  0  0  0
   -2.8022    0.0791   -3.2488 H   0  0  0  0  0  0  0  0  0  0  0  0
   -3.7414   -0.8131   -0.7560 H   0  0  0  0  0  0  0  0  0  0  0  0
   -4.6866   -0.8452   -2.2983 H   0  0  0  0  0  0  0  0  0  0  0  0
   -4.8672    0.5102   -1.1813 H   0  0  0  0  0  0  0  0  0  0  0  0
  1  2  1  0
  2  3  3  0
  3  4  1  0
  4  5  3  0
  5  6  1  0
  6  7  3  0
  7  8  1  0
  8  9  1  0
  1 10  1  0
  1 11  1  0
  1 12  1  0
  8 13  1  0
  8 14  1  0
  9 15  1  0
  9 16  1  0
  9 17  1  0
M  END
