
     RDKit          3D

 19 18  0  0  0  0  0  0  0  0999 V2000
    4.7689    1.2599   -0.2175 C   0  0  0  0  0  0  0  0  0  0  0  0
    3.3619    0.8344   -0.1444 C   0  0  0  0  0  0  0  0  0  0  0  0
    2.1574    0.4914   -0.0750 C   0  0  0  0  0  0  0  0  0  0  0  0
    0.8094    0.1133    0.0267 C   0  0  0  0  0  0  0  0  0  0  0  0
   -0.4724   -0.2363    0.1225 C   0  0  0  0  0  0  0  0  0  0  0  0
   -1.6711   -0.5629    0.2111 C   0  0  0  0  0  0  0  0  0  0  0  0
   -2.0709   -2.0390    0.4793 C   0  0  0  0  0  0  0  0  0  0  0  0
   -2.7280    0.1669   -0.5478 C   0  0  0  0  0  0  0  0  0  0  0  0
   -2.6995    1.5325   -0.1262 O   0  0  0  0  0  0  0  0  0  0  0  0
    5.1874    1.5006    0.7987 H   0  0  0  0  0  0  0  0  0  0  0  0
    4.7977    2.2232   -0.7595 H   0  0  0  0  0  0  0  0  0  0  0  0
    5.3568    0.4550   -0.6521 H   0  0  0  0  0  0  0  0  0  0  0  0
   -2.0045   -0.1763    1.3907 H   0  0  0  0  0  0  0  0  0  0  0  0
   -2.7644   -2.3722   -0.2582 H   0  0  0  0  0  0  0  0  0  0  0  0
   -2.4107   -2.1198    1.5279 H   0  0  0  0  0  0  0  0  0  0  0  0
   -1.0758   -2.5844    0.5027 H   0  0  0  0  0  0  0  0  0  0  0  0
   -3.7359   -0.2054   -0.2053 H   0  0  0  0  0  0  0  0  0  0  0  0
   -2.6933    0.1207   -1.6098 H   0  0  0  0  0  0  0  0  0  0  0  0
   -2.1130    1.5984    0.6853 H   0  0  0  0  0  0  0  0  0  0  0  0
  1  2  1  0
  2  3  3  0
  3  4  1  0
  4  5  3  0
  5  6  1  0
  6  7  1  0
  6  8  1  0
  8  9  1  0
  1 10  1  0
  1 11  1  0
  1 12  1  0
  6 13  1  0
  7 14  1  0
  7 15  1  0
  7 16  1  0
  8 17  1  0
  8 18  1  0
  9 19  1  0
M  END
