
     RDKit          3D

 23 22  0  0  0  0  0  0  0  0999 V2000
    3.7133   -0.3759    0.0260 C   0  0  0  0  0  0  0  0  0  0  0  0
    2.3107    0.0775   -0.1180 C   0  0  0  0  0  0  0  0  0  0  0  0
    1.1635    0.4338   -0.2199 C   0  0  0  0  0  0  0  0  0  0  0  0
   -0.2368    0.8652   -0.3229 C   0  0  0  0  0  0  0  0  0  0  0  0
   -1.0860   -0.0375    0.5261 C   0  0  0  0  0  0  0  0  0  0  0  0
   -0.9523   -1.4570    0.0386 C   0  0  0  0  0  0  0  0  0  0  0  0
   -1.7968   -2.3962    0.8739 C   0  0  0  0  0  0  0  0  0  0  0  0
   -0.3586    2.1966    0.0228 O   0  0  0  0  0  0  0  0  0  0  0  0
   -0.8952    2.9404   -1.0365 C   0  0  0  0  0  0  0  0  0  0  0  0
    3.7824   -1.2002    0.7467 H   0  0  0  0  0  0  0  0  0  0  0  0
    4.1414   -0.6351   -0.9685 H   0  0  0  0  0  0  0  0  0  0  0  0
    4.3528    0.4535    0.4159 H   0  0  0  0  0  0  0  0  0  0  0  0
   -0.6093    0.7391   -1.3819 H   0  0  0  0  0  0  0  0  0  0  0  0
   -0.9149    0.0678    1.5961 H   0  0  0  0  0  0  0  0  0  0  0  0
   -2.1583    0.2580    0.3404 H   0  0  0  0  0  0  0  0  0  0  0  0
   -1.2519   -1.5439   -1.0115 H   0  0  0  0  0  0  0  0  0  0  0  0
    0.0976   -1.8086    0.1340 H   0  0  0  0  0  0  0  0  0  0  0  0
   -2.2227   -3.2281    0.2728 H   0  0  0  0  0  0  0  0  0  0  0  0
   -2.6648   -1.8396    1.2972 H   0  0  0  0  0  0  0  0  0  0  0  0
   -1.2284   -2.7780    1.7426 H   0  0  0  0  0  0  0  0  0  0  0  0
   -0.2402    2.8713   -1.9288 H   0  0  0  0  0  0  0  0  0  0  0  0
   -1.8694    2.4271   -1.2858 H   0  0  0  0  0  0  0  0  0  0  0  0
   -1.0759    3.9699   -0.7020 H   0  0  0  0  0  0  0  0  0  0  0  0
  1  2  1  0
  2  3  3  0
  3  4  1  0
  4  5  1  0
  5  6  1  0
  6  7  1  0
  4  8  1  0
  8  9  1  0
  1 10  1  0
  1 11  1  0
  1 12  1  0
  4 13  1  0
  5 14  1  0
  5 15  1  0
  6 16  1  0
  6 17  1  0
  7 18  1  0
  7 19  1  0
  7 20  1  0
  9 21  1  0
  9 22  1  0
  9 23  1  0
M  END
