
     RDKit          3D

 21 21  0  0  0  0  0  0  0  0999 V2000
    3.7353    0.9443    0.1889 C   0  0  0  0  0  0  0  0  0  0  0  0
    2.3505    0.4726    0.2542 C   0  0  0  0  0  0  0  0  0  0  0  0
    1.1987    0.0667    0.3093 C   0  0  0  0  0  0  0  0  0  0  0  0
   -0.1759   -0.4322    0.3756 C   0  0  0  0  0  0  0  0  0  0  0  0
   -0.2554   -1.7621   -0.3501 C   0  0  0  0  0  0  0  0  0  0  0  0
   -0.6387   -0.4393    1.6718 O   0  0  0  0  0  0  0  0  0  0  0  0
   -1.4727    0.6414    1.4381 C   0  0  0  0  0  0  0  0  0  0  0  0
   -1.2092    0.5690   -0.0299 C   0  0  0  0  0  0  0  0  0  0  0  0
   -2.4110   -0.0012   -0.7569 C   0  0  0  0  0  0  0  0  0  0  0  0
    3.7460    1.9604    0.6103 H   0  0  0  0  0  0  0  0  0  0  0  0
    4.4162    0.2693    0.7840 H   0  0  0  0  0  0  0  0  0  0  0  0
    4.1211    0.9473   -0.8560 H   0  0  0  0  0  0  0  0  0  0  0  0
   -1.1821   -2.3066   -0.1656 H   0  0  0  0  0  0  0  0  0  0  0  0
    0.6283   -2.3583    0.0200 H   0  0  0  0  0  0  0  0  0  0  0  0
   -0.0515   -1.5706   -1.4160 H   0  0  0  0  0  0  0  0  0  0  0  0
   -2.5241    0.4098    1.7466 H   0  0  0  0  0  0  0  0  0  0  0  0
   -1.1795    1.6043    1.8524 H   0  0  0  0  0  0  0  0  0  0  0  0
   -0.8444    1.4712   -0.5249 H   0  0  0  0  0  0  0  0  0  0  0  0
   -3.2409   -0.2538   -0.0573 H   0  0  0  0  0  0  0  0  0  0  0  0
   -2.8328    0.7016   -1.5015 H   0  0  0  0  0  0  0  0  0  0  0  0
   -2.1779   -0.9336   -1.3022 H   0  0  0  0  0  0  0  0  0  0  0  0
  1  2  1  0
  2  3  3  0
  3  4  1  0
  4  5  1  0
  4  6  1  0
  6  7  1  0
  7  8  1  0
  8  9  1  0
  8  4  1  0
  1 10  1  0
  1 11  1  0
  1 12  1  0
  5 13  1  0
  5 14  1  0
  5 15  1  0
  7 16  1  0
  7 17  1  0
  8 18  1  0
  9 19  1  0
  9 20  1  0
  9 21  1  0
M  END
