
     RDKit          3D

 19 20  0  0  0  0  0  0  0  0999 V2000
    3.5374   -0.8822   -0.3570 C   0  0  0  0  0  0  0  0  0  0  0  0
    2.2663   -0.1675   -0.3563 C   0  0  0  0  0  0  0  0  0  0  0  0
    1.2171    0.4376   -0.3597 C   0  0  0  0  0  0  0  0  0  0  0  0
   -0.0139    1.1762   -0.3666 C   0  0  0  0  0  0  0  0  0  0  0  0
   -0.7162    1.2064   -1.5739 O   0  0  0  0  0  0  0  0  0  0  0  0
   -1.9236    0.7386   -1.1025 C   0  0  0  0  0  0  0  0  0  0  0  0
   -2.4639    1.0984    0.2181 C   0  0  0  0  0  0  0  0  0  0  0  0
   -1.1600    0.3923    0.1948 C   0  0  0  0  0  0  0  0  0  0  0  0
   -1.0420   -1.0739    0.4442 C   0  0  0  0  0  0  0  0  0  0  0  0
    4.0115   -0.9070   -1.3585 H   0  0  0  0  0  0  0  0  0  0  0  0
    3.3452   -1.9513   -0.0528 H   0  0  0  0  0  0  0  0  0  0  0  0
    4.2207   -0.4612    0.4048 H   0  0  0  0  0  0  0  0  0  0  0  0
    0.0645    2.2170    0.0203 H   0  0  0  0  0  0  0  0  0  0  0  0
   -2.3904   -0.0814   -1.6595 H   0  0  0  0  0  0  0  0  0  0  0  0
   -2.4193    2.1260    0.6258 H   0  0  0  0  0  0  0  0  0  0  0  0
   -3.3150    0.4992    0.5779 H   0  0  0  0  0  0  0  0  0  0  0  0
   -0.3281   -1.3560    1.2098 H   0  0  0  0  0  0  0  0  0  0  0  0
   -0.8411   -1.5623   -0.5506 H   0  0  0  0  0  0  0  0  0  0  0  0
   -2.0490   -1.4487    0.7492 H   0  0  0  0  0  0  0  0  0  0  0  0
  1  2  1  0
  2  3  3  0
  3  4  1  0
  4  5  1  0
  5  6  1  0
  6  7  1  0
  7  8  1  0
  8  9  1  0
  8  4  1  0
  8  6  1  0
  1 10  1  0
  1 11  1  0
  1 12  1  0
  4 13  1  0
  6 14  1  0
  7 15  1  0
  7 16  1  0
  9 17  1  0
  9 18  1  0
  9 19  1  0
M  END
