
     RDKit          3D

 15 16  0  0  0  0  0  0  0  0999 V2000
    3.1963    0.2110   -0.7078 C   0  0  0  0  0  0  0  0  0  0  0  0
    1.8019   -0.0247   -0.3224 C   0  0  0  0  0  0  0  0  0  0  0  0
    0.6604   -0.2289    0.0121 C   0  0  0  0  0  0  0  0  0  0  0  0
   -0.6977   -0.4480    0.4181 C   0  0  0  0  0  0  0  0  0  0  0  0
   -1.5198    0.7203    0.9741 C   0  0  0  0  0  0  0  0  0  0  0  0
   -2.6394    0.1866    0.1592 C   0  0  0  0  0  0  0  0  0  0  0  0
   -3.7857    0.5026   -0.0264 O   0  0  0  0  0  0  0  0  0  0  0  0
   -1.7461   -0.8741   -0.3089 C   0  0  0  0  0  0  0  0  0  0  0  0
   -1.1639   -1.6974    0.7524 O   0  0  0  0  0  0  0  0  0  0  0  0
    3.1965    0.6877   -1.7125 H   0  0  0  0  0  0  0  0  0  0  0  0
    3.7094    0.8304    0.0344 H   0  0  0  0  0  0  0  0  0  0  0  0
    3.7673   -0.7319   -0.8071 H   0  0  0  0  0  0  0  0  0  0  0  0
   -1.1384    1.7103    0.6487 H   0  0  0  0  0  0  0  0  0  0  0  0
   -1.6930    0.6426    2.0604 H   0  0  0  0  0  0  0  0  0  0  0  0
   -1.9478   -1.4864   -1.1743 H   0  0  0  0  0  0  0  0  0  0  0  0
  1  2  1  0
  2  3  3  0
  3  4  1  0
  4  5  1  0
  5  6  1  0
  6  7  2  0
  6  8  1  0
  8  9  1  0
  8  4  1  0
  9  4  1  0
  1 10  1  0
  1 11  1  0
  1 12  1  0
  5 13  1  0
  5 14  1  0
  8 15  1  0
M  END
