
     RDKit          3D

 19 19  0  0  0  0  0  0  0  0999 V2000
    2.5970    2.2477    0.8096 C   0  0  0  0  0  0  0  0  0  0  0  0
    1.6925    1.1481    0.4988 C   0  0  0  0  0  0  0  0  0  0  0  0
    0.9297    0.2179    0.2580 C   0  0  0  0  0  0  0  0  0  0  0  0
    0.0011   -0.8774   -0.0195 C   0  0  0  0  0  0  0  0  0  0  0  0
    0.5266   -2.1075    0.3366 O   0  0  0  0  0  0  0  0  0  0  0  0
   -1.4111   -0.6101    0.4894 C   0  0  0  0  0  0  0  0  0  0  0  0
   -1.6779    0.0743   -0.8482 C   0  0  0  0  0  0  0  0  0  0  0  0
   -0.5436   -0.7819   -1.4278 C   0  0  0  0  0  0  0  0  0  0  0  0
   -1.1053   -1.9768   -1.9045 O   0  0  0  0  0  0  0  0  0  0  0  0
    3.6486    1.8432    0.8123 H   0  0  0  0  0  0  0  0  0  0  0  0
    2.3517    2.7376    1.7962 H   0  0  0  0  0  0  0  0  0  0  0  0
    2.4944    3.0892    0.0621 H   0  0  0  0  0  0  0  0  0  0  0  0
    0.0411   -2.5073    1.1005 H   0  0  0  0  0  0  0  0  0  0  0  0
   -1.4738    0.0836    1.3314 H   0  0  0  0  0  0  0  0  0  0  0  0
   -1.9767   -1.5325    0.6412 H   0  0  0  0  0  0  0  0  0  0  0  0
   -2.6639   -0.1030   -1.2771 H   0  0  0  0  0  0  0  0  0  0  0  0
   -1.4459    1.1613   -0.8079 H   0  0  0  0  0  0  0  0  0  0  0  0
    0.0759   -0.2308   -2.1419 H   0  0  0  0  0  0  0  0  0  0  0  0
   -2.0603   -1.8755   -2.0780 H   0  0  0  0  0  0  0  0  0  0  0  0
  1  2  1  0
  2  3  3  0
  3  4  1  0
  4  5  1  0
  4  6  1  0
  6  7  1  0
  7  8  1  0
  8  9  1  0
  8  4  1  0
  1 10  1  0
  1 11  1  0
  1 12  1  0
  5 13  1  0
  6 14  1  0
  6 15  1  0
  7 16  1  0
  7 17  1  0
  8 18  1  0
  9 19  1  0
M  END
