
     RDKit          3D

 17 18  0  0  0  0  0  0  0  0999 V2000
    2.6812    1.6509    0.4360 C   0  0  0  0  0  0  0  0  0  0  0  0
    1.4137    1.1092   -0.0582 C   0  0  0  0  0  0  0  0  0  0  0  0
    0.3620    0.6432   -0.4548 C   0  0  0  0  0  0  0  0  0  0  0  0
   -0.8756    0.0854   -0.9476 C   0  0  0  0  0  0  0  0  0  0  0  0
   -1.9143   -0.0507    0.1236 C   0  0  0  0  0  0  0  0  0  0  0  0
   -1.1923   -0.7156    1.2539 C   0  0  0  0  0  0  0  0  0  0  0  0
   -0.5242   -1.6766    0.5781 C   0  0  0  0  0  0  0  0  0  0  0  0
   -0.9878   -1.4011   -0.8193 C   0  0  0  0  0  0  0  0  0  0  0  0
   -2.3666   -1.1920   -0.5820 O   0  0  0  0  0  0  0  0  0  0  0  0
    2.7830    1.3847    1.5278 H   0  0  0  0  0  0  0  0  0  0  0  0
    3.5237    1.1672   -0.0851 H   0  0  0  0  0  0  0  0  0  0  0  0
    2.6962    2.7738    0.3140 H   0  0  0  0  0  0  0  0  0  0  0  0
   -1.2478    0.4708   -1.9007 H   0  0  0  0  0  0  0  0  0  0  0  0
   -2.6025    0.7211    0.3256 H   0  0  0  0  0  0  0  0  0  0  0  0
   -1.2013   -0.4919    2.3116 H   0  0  0  0  0  0  0  0  0  0  0  0
    0.1553   -2.4305    0.9573 H   0  0  0  0  0  0  0  0  0  0  0  0
   -0.7025   -2.0481   -1.5998 H   0  0  0  0  0  0  0  0  0  0  0  0
  1  2  1  0
  2  3  3  0
  3  4  1  0
  4  5  1  0
  5  6  1  0
  6  7  2  0
  7  8  1  0
  8  9  1  0
  8  4  1  0
  9  5  1  0
  1 10  1  0
  1 11  1  0
  1 12  1  0
  4 13  1  0
  5 14  1  0
  6 15  1  0
  7 16  1  0
  8 17  1  0
M  END
