
     RDKit          3D

 23 22  0  0  0  0  0  0  0  0999 V2000
    4.3039    0.3645   -0.8593 C   0  0  0  0  0  0  0  0  0  0  0  0
    2.8884    0.2070   -0.5233 C   0  0  0  0  0  0  0  0  0  0  0  0
    1.7007    0.0777   -0.2495 C   0  0  0  0  0  0  0  0  0  0  0  0
    0.2787   -0.0523    0.0706 C   0  0  0  0  0  0  0  0  0  0  0  0
    0.0784   -1.1423    1.0723 C   0  0  0  0  0  0  0  0  0  0  0  0
   -0.5397   -0.2342   -1.1826 C   0  0  0  0  0  0  0  0  0  0  0  0
   -1.9994   -0.3728   -0.9270 C   0  0  0  0  0  0  0  0  0  0  0  0
   -2.6011    0.8286   -0.2308 C   0  0  0  0  0  0  0  0  0  0  0  0
   -3.9676    0.5747   -0.0496 O   0  0  0  0  0  0  0  0  0  0  0  0
    4.9588    0.0881   -0.0134 H   0  0  0  0  0  0  0  0  0  0  0  0
    4.4718    1.4278   -1.0975 H   0  0  0  0  0  0  0  0  0  0  0  0
    4.5636   -0.2086   -1.7925 H   0  0  0  0  0  0  0  0  0  0  0  0
   -0.0526    0.9061    0.5366 H   0  0  0  0  0  0  0  0  0  0  0  0
   -0.8436   -1.0633    1.6544 H   0  0  0  0  0  0  0  0  0  0  0  0
    0.1331   -2.1100    0.5318 H   0  0  0  0  0  0  0  0  0  0  0  0
    0.9601   -1.1356    1.7582 H   0  0  0  0  0  0  0  0  0  0  0  0
   -0.1890   -1.1724   -1.6600 H   0  0  0  0  0  0  0  0  0  0  0  0
   -0.3405    0.5776   -1.8924 H   0  0  0  0  0  0  0  0  0  0  0  0
   -2.5103   -0.4551   -1.9088 H   0  0  0  0  0  0  0  0  0  0  0  0
   -2.2515   -1.2828   -0.3629 H   0  0  0  0  0  0  0  0  0  0  0  0
   -2.5495    1.7364   -0.8746 H   0  0  0  0  0  0  0  0  0  0  0  0
   -2.1076    1.0718    0.7168 H   0  0  0  0  0  0  0  0  0  0  0  0
   -4.3851    1.3690    0.3588 H   0  0  0  0  0  0  0  0  0  0  0  0
  1  2  1  0
  2  3  3  0
  3  4  1  0
  4  5  1  0
  4  6  1  0
  6  7  1  0
  7  8  1  0
  8  9  1  0
  1 10  1  0
  1 11  1  0
  1 12  1  0
  4 13  1  0
  5 14  1  0
  5 15  1  0
  5 16  1  0
  6 17  1  0
  6 18  1  0
  7 19  1  0
  7 20  1  0
  8 21  1  0
  8 22  1  0
  9 23  1  0
M  END
