
     RDKit          3D

 18 17  0  0  0  0  0  0  0  0999 V2000
    3.7188   -0.1139   -0.2415 C   0  0  0  0  0  0  0  0  0  0  0  0
    2.3104   -0.1801    0.1744 C   0  0  0  0  0  0  0  0  0  0  0  0
    1.1596   -0.2439    0.5339 C   0  0  0  0  0  0  0  0  0  0  0  0
   -0.2285   -0.3307    0.9896 C   0  0  0  0  0  0  0  0  0  0  0  0
   -1.1481    0.1288   -0.1151 C   0  0  0  0  0  0  0  0  0  0  0  0
   -0.9847   -0.6662   -1.2228 O   0  0  0  0  0  0  0  0  0  0  0  0
   -2.5786    0.2497    0.3405 C   0  0  0  0  0  0  0  0  0  0  0  0
   -2.5903    1.0847    1.4720 O   0  0  0  0  0  0  0  0  0  0  0  0
    3.8788   -0.6179   -1.2194 H   0  0  0  0  0  0  0  0  0  0  0  0
    4.3206   -0.5409    0.5710 H   0  0  0  0  0  0  0  0  0  0  0  0
    4.0546    0.9396   -0.3807 H   0  0  0  0  0  0  0  0  0  0  0  0
   -0.3652    0.2465    1.9220 H   0  0  0  0  0  0  0  0  0  0  0  0
   -0.4029   -1.3949    1.2559 H   0  0  0  0  0  0  0  0  0  0  0  0
   -0.8017    1.1588   -0.3973 H   0  0  0  0  0  0  0  0  0  0  0  0
   -1.1416   -1.6070   -0.9587 H   0  0  0  0  0  0  0  0  0  0  0  0
   -2.9539   -0.7555    0.5579 H   0  0  0  0  0  0  0  0  0  0  0  0
   -3.1773    0.7222   -0.4634 H   0  0  0  0  0  0  0  0  0  0  0  0
   -3.0701    1.9207    1.2550 H   0  0  0  0  0  0  0  0  0  0  0  0
  1  2  1  0
  2  3  3  0
  3  4  1  0
  4  5  1  0
  5  6  1  0
  5  7  1  0
  7  8  1  0
  1  9  1  0
  1 10  1  0
  1 11  1  0
  4 12  1  0
  4 13  1  0
  5 14  1  0
  6 15  1  0
  7 16  1  0
  7 17  1  0
  8 18  1  0
M  END
