
     RDKit          3D

 21 21  0  0  0  0  0  0  0  0999 V2000
    3.6936    0.6254   -0.6906 C   0  0  0  0  0  0  0  0  0  0  0  0
    2.3469    0.0460   -0.6758 C   0  0  0  0  0  0  0  0  0  0  0  0
    1.2304   -0.4323   -0.6677 C   0  0  0  0  0  0  0  0  0  0  0  0
   -0.1236   -1.0131   -0.6561 C   0  0  0  0  0  0  0  0  0  0  0  0
   -1.0376   -0.3538   -1.4604 O   0  0  0  0  0  0  0  0  0  0  0  0
   -1.6528    0.3127   -0.4007 C   0  0  0  0  0  0  0  0  0  0  0  0
   -1.3310    1.7952   -0.3348 C   0  0  0  0  0  0  0  0  0  0  0  0
   -0.8462   -0.5348    0.5835 C   0  0  0  0  0  0  0  0  0  0  0  0
   -1.7081   -1.6197    1.1852 C   0  0  0  0  0  0  0  0  0  0  0  0
    4.3903   -0.0198   -1.2472 H   0  0  0  0  0  0  0  0  0  0  0  0
    3.7007    1.6360   -1.1581 H   0  0  0  0  0  0  0  0  0  0  0  0
    4.0059    0.7770    0.3619 H   0  0  0  0  0  0  0  0  0  0  0  0
   -0.1478   -2.1178   -0.7465 H   0  0  0  0  0  0  0  0  0  0  0  0
   -2.7438    0.1142   -0.3311 H   0  0  0  0  0  0  0  0  0  0  0  0
   -0.2982    1.9556   -0.0251 H   0  0  0  0  0  0  0  0  0  0  0  0
   -1.4923    2.1840   -1.3747 H   0  0  0  0  0  0  0  0  0  0  0  0
   -2.0776    2.2373    0.3817 H   0  0  0  0  0  0  0  0  0  0  0  0
   -0.2418    0.0451    1.2995 H   0  0  0  0  0  0  0  0  0  0  0  0
   -2.7695   -1.4280    0.9633 H   0  0  0  0  0  0  0  0  0  0  0  0
   -1.3581   -2.5978    0.8097 H   0  0  0  0  0  0  0  0  0  0  0  0
   -1.5395   -1.6115    2.2752 H   0  0  0  0  0  0  0  0  0  0  0  0
  1  2  1  0
  2  3  3  0
  3  4  1  0
  4  5  1  0
  5  6  1  0
  6  7  1  0
  6  8  1  0
  8  9  1  0
  8  4  1  0
  1 10  1  0
  1 11  1  0
  1 12  1  0
  4 13  1  0
  6 14  1  0
  7 15  1  0
  7 16  1  0
  7 17  1  0
  8 18  1  0
  9 19  1  0
  9 20  1  0
  9 21  1  0
M  END
