
     RDKit          3D

 23 23  0  0  0  0  0  0  0  0999 V2000
    3.7995    0.2879   -0.6744 C   0  0  0  0  0  0  0  0  0  0  0  0
    2.3814    0.3281   -0.2703 C   0  0  0  0  0  0  0  0  0  0  0  0
    1.2161    0.3650    0.0402 C   0  0  0  0  0  0  0  0  0  0  0  0
   -0.2168    0.4195    0.3992 C   0  0  0  0  0  0  0  0  0  0  0  0
   -1.0745   -0.4551   -0.4582 C   0  0  0  0  0  0  0  0  0  0  0  0
   -0.5772   -1.8915   -0.2811 C   0  0  0  0  0  0  0  0  0  0  0  0
   -2.5216   -0.4182   -0.1263 C   0  0  0  0  0  0  0  0  0  0  0  0
   -0.7766    1.8036    0.6374 C   0  0  0  0  0  0  0  0  0  0  0  0
   -0.5732    0.8220    1.7598 C   0  0  0  0  0  0  0  0  0  0  0  0
    3.8232   -0.2404   -1.6583 H   0  0  0  0  0  0  0  0  0  0  0  0
    4.2564    1.2854   -0.7102 H   0  0  0  0  0  0  0  0  0  0  0  0
    4.3879   -0.2929    0.0862 H   0  0  0  0  0  0  0  0  0  0  0  0
   -0.9301   -0.1717   -1.5229 H   0  0  0  0  0  0  0  0  0  0  0  0
   -1.2997   -2.5887   -0.7551 H   0  0  0  0  0  0  0  0  0  0  0  0
    0.3928   -2.0444   -0.8123 H   0  0  0  0  0  0  0  0  0  0  0  0
   -0.4769   -2.0407    0.8103 H   0  0  0  0  0  0  0  0  0  0  0  0
   -2.9582   -1.4160   -0.3714 H   0  0  0  0  0  0  0  0  0  0  0  0
   -2.7569   -0.2318    0.9324 H   0  0  0  0  0  0  0  0  0  0  0  0
   -3.0308    0.3127   -0.8133 H   0  0  0  0  0  0  0  0  0  0  0  0
   -0.0788    2.6611    0.5443 H   0  0  0  0  0  0  0  0  0  0  0  0
   -1.8546    1.9766    0.3889 H   0  0  0  0  0  0  0  0  0  0  0  0
    0.2965    1.0847    2.4323 H   0  0  0  0  0  0  0  0  0  0  0  0
   -1.4277    0.4449    2.3249 H   0  0  0  0  0  0  0  0  0  0  0  0
  1  2  1  0
  2  3  3  0
  3  4  1  0
  4  5  1  0
  5  6  1  0
  5  7  1  0
  4  8  1  0
  8  9  1  0
  9  4  1  0
  1 10  1  0
  1 11  1  0
  1 12  1  0
  5 13  1  0
  6 14  1  0
  6 15  1  0
  6 16  1  0
  7 17  1  0
  7 18  1  0
  7 19  1  0
  8 20  1  0
  8 21  1  0
  9 22  1  0
  9 23  1  0
M  END
