
     RDKit          3D

 21 21  0  0  0  0  0  0  0  0999 V2000
    3.9219    1.5004    1.4600 C   0  0  0  0  0  0  0  0  0  0  0  0
    2.7126    0.9336    1.1898 C   0  0  0  0  0  0  0  0  0  0  0  0
    1.5522    0.4141    0.9364 C   0  0  0  0  0  0  0  0  0  0  0  0
    0.2154   -0.1591    0.6490 C   0  0  0  0  0  0  0  0  0  0  0  0
   -0.8440    1.0173    0.5290 C   0  0  0  0  0  0  0  0  0  0  0  0
   -0.6596   -0.0720   -0.4552 C   0  0  0  0  0  0  0  0  0  0  0  0
   -1.6686   -1.2380   -0.4450 C   0  0  0  0  0  0  0  0  0  0  0  0
   -2.6526   -1.0494   -1.5494 C   0  0  0  0  0  0  0  0  0  0  0  0
   -1.9265   -1.1090   -2.7656 O   0  0  0  0  0  0  0  0  0  0  0  0
    3.8132    2.4418    2.0658 H   0  0  0  0  0  0  0  0  0  0  0  0
    4.6967    0.7942    1.7269 H   0  0  0  0  0  0  0  0  0  0  0  0
    4.4233    2.0043    0.4874 H   0  0  0  0  0  0  0  0  0  0  0  0
   -0.0738   -0.9111    1.4911 H   0  0  0  0  0  0  0  0  0  0  0  0
   -0.4214    1.9951    0.2943 H   0  0  0  0  0  0  0  0  0  0  0  0
   -1.6231    0.9927    1.3086 H   0  0  0  0  0  0  0  0  0  0  0  0
   -0.3528    0.2108   -1.4854 H   0  0  0  0  0  0  0  0  0  0  0  0
   -2.0665   -1.3324    0.5409 H   0  0  0  0  0  0  0  0  0  0  0  0
   -1.1012   -2.2239   -0.6325 H   0  0  0  0  0  0  0  0  0  0  0  0
   -3.3391   -0.2310   -1.4238 H   0  0  0  0  0  0  0  0  0  0  0  0
   -3.3007   -2.0179   -1.5842 H   0  0  0  0  0  0  0  0  0  0  0  0
   -1.3055   -1.9605   -2.6530 H   0  0  0  0  0  0  0  0  0  0  0  0
  1  2  1  0
  2  3  3  0
  3  4  1  0
  4  5  1  0
  5  6  1  0
  6  7  1  0
  7  8  1  0
  8  9  1  0
  6  4  1  0
  1 10  1  0
  1 11  1  0
  1 12  1  0
  4 13  1  0
  5 14  1  0
  5 15  1  0
  6 16  1  0
  7 17  1  0
  7 18  1  0
  8 19  1  0
  8 20  1  0
  9 21  1  0
M  END
