
     RDKit          3D

 19 19  0  0  0  0  0  0  0  0999 V2000
    5.4293   -0.9869   -0.3911 C   0  0  0  0  0  0  0  0  0  0  0  0
    3.8238   -0.5779   -0.2051 C   0  0  0  0  0  0  0  0  0  0  0  0
    2.5669   -0.2731   -0.0773 C   0  0  0  0  0  0  0  0  0  0  0  0
    1.4072    0.0063    0.0607 C   0  0  0  0  0  0  0  0  0  0  0  0
   -0.1446    0.3889    0.2433 C   0  0  0  0  0  0  0  0  0  0  0  0
   -1.1159    0.6419    0.3585 C   0  0  0  0  0  0  0  0  0  0  0  0
   -2.2748   -0.0424   -0.0301 C   0  0  0  0  0  0  0  0  0  0  0  0
   -3.6172   -0.4313   -0.2350 C   0  0  0  0  0  0  0  0  0  0  0  0
   -3.3983    0.9667   -0.6491 C   0  0  0  0  0  0  0  0  0  0  0  0
    5.8573   -0.3944    0.4427 H   0  0  0  0  0  0  0  0  0  0  0  0
    5.5282   -0.8730   -1.3640 H   0  0  0  0  0  0  0  0  0  0  0  0
    5.2643   -2.0300    0.0544 H   0  0  0  0  0  0  0  0  0  0  0  0
   -1.1217    1.1097    1.5549 H   0  0  0  0  0  0  0  0  0  0  0  0
   -1.2163    1.9934    0.1308 H   0  0  0  0  0  0  0  0  0  0  0  0
   -1.7286   -0.6069   -1.1424 H   0  0  0  0  0  0  0  0  0  0  0  0
   -3.8415   -1.2608   -0.9975 H   0  0  0  0  0  0  0  0  0  0  0  0
   -4.4291   -0.5444    0.5070 H   0  0  0  0  0  0  0  0  0  0  0  0
   -3.3181    1.1771   -1.6754 H   0  0  0  0  0  0  0  0  0  0  0  0
   -3.6706    1.7372    0.2077 H   0  0  0  0  0  0  0  0  0  0  0  0
  1  2  1  0
  2  3  3  0
  3  4  1  0
  4  5  3  0
  5  6  1  0
  6  7  1  0
  7  8  1  0
  8  9  1  0
  9  7  1  0
  1 10  1  0
  1 11  1  0
  1 12  1  0
  6 13  1  0
  6 14  1  0
  7 15  1  0
  8 16  1  0
  8 17  1  0
  9 18  1  0
  9 19  1  0
M  END
