
     RDKit          3D

 21 20  0  0  0  0  0  0  0  0999 V2000
    2.8077   -2.0057    2.4154 C   0  0  0  0  0  0  0  0  0  0  0  0
    2.1465   -1.0930    1.4079 C   0  0  0  0  0  0  0  0  0  0  0  0
    1.6486   -0.4324    0.6833 C   0  0  0  0  0  0  0  0  0  0  0  0
    0.9112    0.5043   -0.3666 C   0  0  0  0  0  0  0  0  0  0  0  0
   -0.5083    0.0958   -0.1873 C   0  0  0  0  0  0  0  0  0  0  0  0
   -1.0297    0.4183    1.0684 O   0  0  0  0  0  0  0  0  0  0  0  0
   -1.4319    0.2250   -1.3355 C   0  0  0  0  0  0  0  0  0  0  0  0
   -2.2826    1.4855   -1.3405 C   0  0  0  0  0  0  0  0  0  0  0  0
   -0.8394    0.0174   -2.5683 O   0  0  0  0  0  0  0  0  0  0  0  0
    2.5725   -3.0514    2.0336 H   0  0  0  0  0  0  0  0  0  0  0  0
    3.9013   -1.9426    2.3524 H   0  0  0  0  0  0  0  0  0  0  0  0
    2.3956   -1.8904    3.4039 H   0  0  0  0  0  0  0  0  0  0  0  0
    1.2999    0.3134   -1.3313 H   0  0  0  0  0  0  0  0  0  0  0  0
    1.0979    1.5226   -0.0139 H   0  0  0  0  0  0  0  0  0  0  0  0
   -0.4313   -1.1027   -0.0186 H   0  0  0  0  0  0  0  0  0  0  0  0
   -1.4493    1.3457    1.0303 H   0  0  0  0  0  0  0  0  0  0  0  0
   -2.2153   -0.6321   -1.2399 H   0  0  0  0  0  0  0  0  0  0  0  0
   -1.7298    2.3703   -0.9867 H   0  0  0  0  0  0  0  0  0  0  0  0
   -2.7018    1.6848   -2.3321 H   0  0  0  0  0  0  0  0  0  0  0  0
   -3.1843    1.3133   -0.6555 H   0  0  0  0  0  0  0  0  0  0  0  0
   -0.9773    0.8538   -3.1114 H   0  0  0  0  0  0  0  0  0  0  0  0
  1  2  1  0
  2  3  3  0
  3  4  1  0
  4  5  1  0
  5  6  1  0
  5  7  1  0
  7  8  1  0
  7  9  1  0
  1 10  1  0
  1 11  1  0
  1 12  1  0
  4 13  1  0
  4 14  1  0
  5 15  1  0
  6 16  1  0
  7 17  1  0
  8 18  1  0
  8 19  1  0
  8 20  1  0
  9 21  1  0
M  END
