
     RDKit          3D

 17 17  0  0  0  0  0  0  0  0999 V2000
    0.4905    1.1360    3.3068 C   0  0  0  0  0  0  0  0  0  0  0  0
    0.6107    0.5084    2.0068 C   0  0  0  0  0  0  0  0  0  0  0  0
    0.7118   -0.0473    0.9041 C   0  0  0  0  0  0  0  0  0  0  0  0
    0.8218   -0.6862   -0.4097 C   0  0  0  0  0  0  0  0  0  0  0  0
   -0.2429   -0.0750   -1.3040 C   0  0  0  0  0  0  0  0  0  0  0  0
   -0.2703   -0.6241   -2.7106 C   0  0  0  0  0  0  0  0  0  0  0  0
   -1.7235   -0.4681   -2.5117 C   0  0  0  0  0  0  0  0  0  0  0  0
   -2.7206   -0.2390   -3.2192 O   0  0  0  0  0  0  0  0  0  0  0  0
   -1.5338   -0.6875   -1.1634 O   0  0  0  0  0  0  0  0  0  0  0  0
   -0.5109    0.9508    3.7706 H   0  0  0  0  0  0  0  0  0  0  0  0
    0.5442    2.2510    3.1946 H   0  0  0  0  0  0  0  0  0  0  0  0
    1.3068    0.8067    4.0056 H   0  0  0  0  0  0  0  0  0  0  0  0
    1.8035   -0.4379   -0.8620 H   0  0  0  0  0  0  0  0  0  0  0  0
    0.6904   -1.7906   -0.3201 H   0  0  0  0  0  0  0  0  0  0  0  0
   -0.2708    1.0178   -1.2789 H   0  0  0  0  0  0  0  0  0  0  0  0
    0.1901    0.0541   -3.4556 H   0  0  0  0  0  0  0  0  0  0  0  0
    0.1032   -1.6690   -2.7476 H   0  0  0  0  0  0  0  0  0  0  0  0
  1  2  1  0
  2  3  3  0
  3  4  1  0
  4  5  1  0
  5  6  1  0
  6  7  1  0
  7  8  2  0
  7  9  1  0
  9  5  1  0
  1 10  1  0
  1 11  1  0
  1 12  1  0
  4 13  1  0
  4 14  1  0
  5 15  1  0
  6 16  1  0
  6 17  1  0
M  END
