
     RDKit          3D

 19 18  0  0  0  0  0  0  0  0999 V2000
    3.8505    0.7950   -1.4742 C   0  0  0  0  0  0  0  0  0  0  0  0
    2.4419    0.6198   -1.1598 C   0  0  0  0  0  0  0  0  0  0  0  0
    1.2527    0.4738   -0.9152 C   0  0  0  0  0  0  0  0  0  0  0  0
   -0.1666    0.2823   -0.6036 C   0  0  0  0  0  0  0  0  0  0  0  0
   -0.9212    1.2435   -0.8881 O   0  0  0  0  0  0  0  0  0  0  0  0
   -0.5548   -0.9998    0.0029 C   0  0  0  0  0  0  0  0  0  0  0  0
   -2.0138   -1.0140    0.3316 C   0  0  0  0  0  0  0  0  0  0  0  0
   -2.3531    0.0544    1.3353 C   0  0  0  0  0  0  0  0  0  0  0  0
   -1.6342   -0.1096    2.5141 O   0  0  0  0  0  0  0  0  0  0  0  0
    4.5380    0.4070   -0.7119 H   0  0  0  0  0  0  0  0  0  0  0  0
    4.0689    0.3745   -2.5018 H   0  0  0  0  0  0  0  0  0  0  0  0
    4.0170    1.9167   -1.5034 H   0  0  0  0  0  0  0  0  0  0  0  0
    0.0802   -1.1898    0.9155 H   0  0  0  0  0  0  0  0  0  0  0  0
   -0.3919   -1.8539   -0.7258 H   0  0  0  0  0  0  0  0  0  0  0  0
   -2.3619   -2.0085    0.6946 H   0  0  0  0  0  0  0  0  0  0  0  0
   -2.5454   -0.8026   -0.6518 H   0  0  0  0  0  0  0  0  0  0  0  0
   -3.4435   -0.0305    1.5910 H   0  0  0  0  0  0  0  0  0  0  0  0
   -2.1505    1.0756    0.9798 H   0  0  0  0  0  0  0  0  0  0  0  0
   -1.7122    0.7661    2.9967 H   0  0  0  0  0  0  0  0  0  0  0  0
  1  2  1  0
  2  3  3  0
  3  4  1  0
  4  5  2  0
  4  6  1  0
  6  7  1  0
  7  8  1  0
  8  9  1  0
  1 10  1  0
  1 11  1  0
  1 12  1  0
  6 13  1  0
  6 14  1  0
  7 15  1  0
  7 16  1  0
  8 17  1  0
  8 18  1  0
  9 19  1  0
M  END
