
     RDKit          3D

 21 21  0  0  0  0  0  0  0  0999 V2000
    3.5996    1.5201   -1.0537 C   0  0  0  0  0  0  0  0  0  0  0  0
    2.1839    1.1262   -1.0561 C   0  0  0  0  0  0  0  0  0  0  0  0
    1.0168    0.8119   -1.0395 C   0  0  0  0  0  0  0  0  0  0  0  0
   -0.4147    0.4385   -1.0020 C   0  0  0  0  0  0  0  0  0  0  0  0
   -0.5804   -0.6291    0.0504 C   0  0  0  0  0  0  0  0  0  0  0  0
   -1.9214   -1.2197    0.3315 C   0  0  0  0  0  0  0  0  0  0  0  0
   -2.9412   -0.2303    0.7827 C   0  0  0  0  0  0  0  0  0  0  0  0
    0.5268   -0.9140    0.9333 C   0  0  0  0  0  0  0  0  0  0  0  0
    0.3807   -1.7274   -0.2029 O   0  0  0  0  0  0  0  0  0  0  0  0
    3.7941    2.0313   -0.0850 H   0  0  0  0  0  0  0  0  0  0  0  0
    4.2702    0.6727   -1.2357 H   0  0  0  0  0  0  0  0  0  0  0  0
    3.8015    2.2771   -1.8485 H   0  0  0  0  0  0  0  0  0  0  0  0
   -0.9636    1.3543   -0.7840 H   0  0  0  0  0  0  0  0  0  0  0  0
   -0.7097    0.0991   -2.0171 H   0  0  0  0  0  0  0  0  0  0  0  0
   -1.7997   -1.9749    1.1353 H   0  0  0  0  0  0  0  0  0  0  0  0
   -2.3159   -1.8059   -0.5503 H   0  0  0  0  0  0  0  0  0  0  0  0
   -3.4766   -0.5821    1.7129 H   0  0  0  0  0  0  0  0  0  0  0  0
   -2.5220    0.7577    1.0553 H   0  0  0  0  0  0  0  0  0  0  0  0
   -3.7369   -0.1489    0.0110 H   0  0  0  0  0  0  0  0  0  0  0  0
    0.3402   -1.5011    1.8771 H   0  0  0  0  0  0  0  0  0  0  0  0
    1.4683   -0.3554    0.9728 H   0  0  0  0  0  0  0  0  0  0  0  0
  1  2  1  0
  2  3  3  0
  3  4  1  0
  4  5  1  0
  5  6  1  0
  6  7  1  0
  5  8  1  0
  8  9  1  0
  9  5  1  0
  1 10  1  0
  1 11  1  0
  1 12  1  0
  4 13  1  0
  4 14  1  0
  6 15  1  0
  6 16  1  0
  7 17  1  0
  7 18  1  0
  7 19  1  0
  8 20  1  0
  8 21  1  0
M  END
