
     RDKit          3D

 21 21  0  0  0  0  0  0  0  0999 V2000
    3.1551    2.6310    0.1994 C   0  0  0  0  0  0  0  0  0  0  0  0
    2.0024    1.7487    0.3354 C   0  0  0  0  0  0  0  0  0  0  0  0
    1.0354    0.9912    0.4338 C   0  0  0  0  0  0  0  0  0  0  0  0
   -0.1127    0.0937    0.5250 C   0  0  0  0  0  0  0  0  0  0  0  0
    0.3035   -1.3292    0.8614 C   0  0  0  0  0  0  0  0  0  0  0  0
   -0.7525   -2.1238    0.4286 O   0  0  0  0  0  0  0  0  0  0  0  0
   -1.3426   -1.5214   -0.6438 C   0  0  0  0  0  0  0  0  0  0  0  0
   -2.8057   -1.2445   -0.3775 C   0  0  0  0  0  0  0  0  0  0  0  0
   -0.6915   -0.1771   -0.8710 C   0  0  0  0  0  0  0  0  0  0  0  0
    3.6587    2.5005   -0.7900 H   0  0  0  0  0  0  0  0  0  0  0  0
    3.9166    2.4524    0.9833 H   0  0  0  0  0  0  0  0  0  0  0  0
    2.7728    3.6652    0.3173 H   0  0  0  0  0  0  0  0  0  0  0  0
   -0.8493    0.5198    1.1954 H   0  0  0  0  0  0  0  0  0  0  0  0
    0.5099   -1.4816    1.9399 H   0  0  0  0  0  0  0  0  0  0  0  0
    1.2388   -1.5379    0.3025 H   0  0  0  0  0  0  0  0  0  0  0  0
   -1.2538   -2.0922   -1.5803 H   0  0  0  0  0  0  0  0  0  0  0  0
   -3.4031   -2.1835   -0.4041 H   0  0  0  0  0  0  0  0  0  0  0  0
   -3.2175   -0.5486   -1.1595 H   0  0  0  0  0  0  0  0  0  0  0  0
   -2.9684   -0.7254    0.5858 H   0  0  0  0  0  0  0  0  0  0  0  0
   -1.3888    0.6163   -1.1207 H   0  0  0  0  0  0  0  0  0  0  0  0
    0.1927   -0.2538   -1.5531 H   0  0  0  0  0  0  0  0  0  0  0  0
  1  2  1  0
  2  3  3  0
  3  4  1  0
  4  5  1  0
  5  6  1  0
  6  7  1  0
  7  8  1  0
  7  9  1  0
  9  4  1  0
  1 10  1  0
  1 11  1  0
  1 12  1  0
  4 13  1  0
  5 14  1  0
  5 15  1  0
  7 16  1  0
  8 17  1  0
  8 18  1  0
  8 19  1  0
  9 20  1  0
  9 21  1  0
M  END
