
     RDKit          3D

 23 22  0  0  0  0  0  0  0  0999 V2000
    4.5758   -0.6617   -0.2500 C   0  0  0  0  0  0  0  0  0  0  0  0
    3.2301   -0.0844   -0.3575 C   0  0  0  0  0  0  0  0  0  0  0  0
    2.1187    0.3732   -0.4481 C   0  0  0  0  0  0  0  0  0  0  0  0
    0.7400    0.9145   -0.5595 C   0  0  0  0  0  0  0  0  0  0  0  0
    0.1408    1.1129    0.7988 C   0  0  0  0  0  0  0  0  0  0  0  0
   -1.1395    1.6216    0.6420 O   0  0  0  0  0  0  0  0  0  0  0  0
   -1.9868    0.8237   -0.0719 C   0  0  0  0  0  0  0  0  0  0  0  0
   -2.1876   -0.5270    0.5380 C   0  0  0  0  0  0  0  0  0  0  0  0
   -3.1542   -1.3530   -0.3205 C   0  0  0  0  0  0  0  0  0  0  0  0
    5.3409   -0.0258   -0.7555 H   0  0  0  0  0  0  0  0  0  0  0  0
    4.6260   -1.6713   -0.6511 H   0  0  0  0  0  0  0  0  0  0  0  0
    4.8350   -0.7174    0.8363 H   0  0  0  0  0  0  0  0  0  0  0  0
    0.7339    1.8982   -1.0722 H   0  0  0  0  0  0  0  0  0  0  0  0
    0.1619    0.2143   -1.1961 H   0  0  0  0  0  0  0  0  0  0  0  0
    0.0811    0.1906    1.4056 H   0  0  0  0  0  0  0  0  0  0  0  0
    0.7356    1.8992    1.3195 H   0  0  0  0  0  0  0  0  0  0  0  0
   -3.0014    1.3274   -0.0239 H   0  0  0  0  0  0  0  0  0  0  0  0
   -1.7801    0.7839   -1.1712 H   0  0  0  0  0  0  0  0  0  0  0  0
   -1.2260   -1.0956    0.5604 H   0  0  0  0  0  0  0  0  0  0  0  0
   -2.6420   -0.4015    1.5342 H   0  0  0  0  0  0  0  0  0  0  0  0
   -2.9168   -1.1833   -1.3993 H   0  0  0  0  0  0  0  0  0  0  0  0
   -4.2051   -1.0162   -0.1591 H   0  0  0  0  0  0  0  0  0  0  0  0
   -3.0805   -2.4225   -0.1130 H   0  0  0  0  0  0  0  0  0  0  0  0
  1  2  1  0
  2  3  3  0
  3  4  1  0
  4  5  1  0
  5  6  1  0
  6  7  1  0
  7  8  1  0
  8  9  1  0
  1 10  1  0
  1 11  1  0
  1 12  1  0
  4 13  1  0
  4 14  1  0
  5 15  1  0
  5 16  1  0
  7 17  1  0
  7 18  1  0
  8 19  1  0
  8 20  1  0
  9 21  1  0
  9 22  1  0
  9 23  1  0
M  END
