
     RDKit          3D

 17 16  0  0  0  0  0  0  0  0999 V2000
    4.4357    1.4207   -0.9535 C   0  0  0  0  0  0  0  0  0  0  0  0
    2.7548    0.8644   -0.8073 C   0  0  0  0  0  0  0  0  0  0  0  0
    2.3252    0.7286   -0.7646 C   0  0  0  0  0  0  0  0  0  0  0  0
    1.7669    0.5627   -0.7078 C   0  0  0  0  0  0  0  0  0  0  0  0
   -0.6503   -0.1933   -0.4682 C   0  0  0  0  0  0  0  0  0  0  0  0
   -2.1979   -0.6978   -0.2932 C   0  0  0  0  0  0  0  0  0  0  0  0
   -2.4570    0.1043    0.9255 C   0  0  0  0  0  0  0  0  0  0  0  0
   -3.4531   -0.8296    1.6837 C   0  0  0  0  0  0  0  0  0  0  0  0
   -4.5850   -0.3038    1.6899 O   0  0  0  0  0  0  0  0  0  0  0  0
    4.8326    0.4452   -2.0168 H   0  0  0  0  0  0  0  0  0  0  0  0
    5.0515    0.7425   -0.2039 H   0  0  0  0  0  0  0  0  0  0  0  0
    4.3949   -0.6079   -0.8612 H   0  0  0  0  0  0  0  0  0  0  0  0
   -1.8916   -1.7079   -0.0174 H   0  0  0  0  0  0  0  0  0  0  0  0
   -2.4969   -0.0586   -1.3261 H   0  0  0  0  0  0  0  0  0  0  0  0
   -2.9003    1.1386    0.9358 H   0  0  0  0  0  0  0  0  0  0  0  0
   -1.7785    0.1218    1.9122 H   0  0  0  0  0  0  0  0  0  0  0  0
   -3.1511   -1.7300    2.0952 H   0  0  0  0  0  0  0  0  0  0  0  0
  1  2  1  0
  2  3  3  0
  3  4  1  0
  4  5  3  0
  5  6  1  0
  6  7  1  0
  7  8  1  0
  8  9  2  0
  1 10  1  0
  1 11  1  0
  1 12  1  0
  6 13  1  0
  6 14  1  0
  7 15  1  0
  7 16  1  0
  8 17  1  0
M  END
