
     RDKit          3D

 21 20  0  0  0  0  0  0  0  0999 V2000
    4.3426   -0.7509   -0.7280 C   0  0  0  0  0  0  0  0  0  0  0  0
    3.0418   -0.3507   -0.1458 C   0  0  0  0  0  0  0  0  0  0  0  0
    1.9811   -0.0202    0.3284 C   0  0  0  0  0  0  0  0  0  0  0  0
    0.6890    0.3819    0.8812 C   0  0  0  0  0  0  0  0  0  0  0  0
   -0.4023   -0.1846    0.0821 C   0  0  0  0  0  0  0  0  0  0  0  0
   -0.1366   -0.8776   -0.8844 O   0  0  0  0  0  0  0  0  0  0  0  0
   -1.8440    0.0281    0.3695 C   0  0  0  0  0  0  0  0  0  0  0  0
   -2.2455    1.4751    0.3317 C   0  0  0  0  0  0  0  0  0  0  0  0
   -2.7387   -0.8057   -0.4876 C   0  0  0  0  0  0  0  0  0  0  0  0
    4.5226   -0.2745   -1.7009 H   0  0  0  0  0  0  0  0  0  0  0  0
    5.1636   -0.5315    0.0127 H   0  0  0  0  0  0  0  0  0  0  0  0
    4.2947   -1.8530   -0.8436 H   0  0  0  0  0  0  0  0  0  0  0  0
    0.6159    0.1344    1.9608 H   0  0  0  0  0  0  0  0  0  0  0  0
    0.6836    1.5098    0.8388 H   0  0  0  0  0  0  0  0  0  0  0  0
   -1.9945   -0.3245    1.4318 H   0  0  0  0  0  0  0  0  0  0  0  0
   -3.3241    1.5264    0.0600 H   0  0  0  0  0  0  0  0  0  0  0  0
   -1.7034    2.0545   -0.4393 H   0  0  0  0  0  0  0  0  0  0  0  0
   -2.1254    2.0012    1.2823 H   0  0  0  0  0  0  0  0  0  0  0  0
   -3.7103   -1.0342    0.0115 H   0  0  0  0  0  0  0  0  0  0  0  0
   -2.2359   -1.7819   -0.6811 H   0  0  0  0  0  0  0  0  0  0  0  0
   -2.8739   -0.3220   -1.4789 H   0  0  0  0  0  0  0  0  0  0  0  0
  1  2  1  0
  2  3  3  0
  3  4  1  0
  4  5  1  0
  5  6  2  0
  5  7  1  0
  7  8  1  0
  7  9  1  0
  1 10  1  0
  1 11  1  0
  1 12  1  0
  4 13  1  0
  4 14  1  0
  7 15  1  0
  8 16  1  0
  8 17  1  0
  8 18  1  0
  9 19  1  0
  9 20  1  0
  9 21  1  0
M  END
