
     RDKit          3D

 19 19  0  0  0  0  0  0  0  0999 V2000
    4.0416   -1.3399   -0.8054 C   0  0  0  0  0  0  0  0  0  0  0  0
    2.8767   -0.6474   -0.3873 C   0  0  0  0  0  0  0  0  0  0  0  0
    1.8486   -0.0105   -0.0129 C   0  0  0  0  0  0  0  0  0  0  0  0
    0.6725    0.7021    0.3921 C   0  0  0  0  0  0  0  0  0  0  0  0
    0.7412    1.8384    0.9423 O   0  0  0  0  0  0  0  0  0  0  0  0
   -0.6917    0.1196    0.1732 C   0  0  0  0  0  0  0  0  0  0  0  0
   -1.6240    1.1432   -0.4743 C   0  0  0  0  0  0  0  0  0  0  0  0
   -1.8235    0.6774    0.9342 C   0  0  0  0  0  0  0  0  0  0  0  0
   -3.0572   -0.1776    1.1914 C   0  0  0  0  0  0  0  0  0  0  0  0
    4.9289   -0.9222   -0.2703 H   0  0  0  0  0  0  0  0  0  0  0  0
    4.1888   -1.2920   -1.9062 H   0  0  0  0  0  0  0  0  0  0  0  0
    3.9570   -2.4401   -0.5676 H   0  0  0  0  0  0  0  0  0  0  0  0
   -0.7265   -0.8951   -0.2794 H   0  0  0  0  0  0  0  0  0  0  0  0
   -2.2686    0.7295   -1.2822 H   0  0  0  0  0  0  0  0  0  0  0  0
   -1.2619    2.1452   -0.7108 H   0  0  0  0  0  0  0  0  0  0  0  0
   -1.6462    1.4774    1.6880 H   0  0  0  0  0  0  0  0  0  0  0  0
   -3.6088   -0.3182    0.2326 H   0  0  0  0  0  0  0  0  0  0  0  0
   -3.7426    0.3550    1.8717 H   0  0  0  0  0  0  0  0  0  0  0  0
   -2.8043   -1.1446    1.6467 H   0  0  0  0  0  0  0  0  0  0  0  0
  1  2  1  0
  2  3  3  0
  3  4  1  0
  4  5  2  0
  4  6  1  0
  6  7  1  0
  7  8  1  0
  8  9  1  0
  8  6  1  0
  1 10  1  0
  1 11  1  0
  1 12  1  0
  6 13  1  0
  7 14  1  0
  7 15  1  0
  8 16  1  0
  9 17  1  0
  9 18  1  0
  9 19  1  0
M  END
