
     RDKit          3D

 21 22  0  0  0  0  0  0  0  0999 V2000
   -4.0507   -0.7437   -0.4339 C   0  0  0  0  0  0  0  0  0  0  0  0
   -2.5992   -0.4320   -0.2871 C   0  0  0  0  0  0  0  0  0  0  0  0
   -1.4404   -0.1627   -0.1643 C   0  0  0  0  0  0  0  0  0  0  0  0
   -0.1509    0.1367   -0.0255 C   0  0  0  0  0  0  0  0  0  0  0  0
    0.4716    1.4684    0.1238 C   0  0  0  0  0  0  0  0  0  0  0  0
    1.6514    0.4888    0.1880 C   0  0  0  0  0  0  0  0  0  0  0  0
    2.9641    0.7943    0.3121 C   0  0  0  0  0  0  0  0  0  0  0  0
    0.7578   -0.3374    1.0747 C   0  0  0  0  0  0  0  0  0  0  0  0
    0.9535   -0.2128   -0.9736 C   0  0  0  0  0  0  0  0  0  0  0  0
   -4.3660   -1.3870    0.3866 H   0  0  0  0  0  0  0  0  0  0  0  0
   -4.6403    0.2072   -0.4007 H   0  0  0  0  0  0  0  0  0  0  0  0
   -4.2476   -1.2021   -1.4206 H   0  0  0  0  0  0  0  0  0  0  0  0
    0.4904    2.1355   -0.7426 H   0  0  0  0  0  0  0  0  0  0  0  0
    0.2563    1.9535    1.1079 H   0  0  0  0  0  0  0  0  0  0  0  0
    3.5936    0.6459   -0.6169 H   0  0  0  0  0  0  0  0  0  0  0  0
    3.1940    1.8667    0.5956 H   0  0  0  0  0  0  0  0  0  0  0  0
    3.5346    0.2058    1.0933 H   0  0  0  0  0  0  0  0  0  0  0  0
    0.5554    0.1464    2.0278 H   0  0  0  0  0  0  0  0  0  0  0  0
    0.9429   -1.4113    1.0793 H   0  0  0  0  0  0  0  0  0  0  0  0
    1.1725   -1.2812   -1.0153 H   0  0  0  0  0  0  0  0  0  0  0  0
    0.9569    0.3465   -1.9088 H   0  0  0  0  0  0  0  0  0  0  0  0
  1  2  1  0
  2  3  3  0
  3  4  1  0
  4  5  1  0
  5  6  1  0
  6  7  1  0
  6  8  1  0
  6  9  1  0
  8  4  1  0
  9  4  1  0
  1 10  1  0
  1 11  1  0
  1 12  1  0
  5 13  1  0
  5 14  1  0
  7 15  1  0
  7 16  1  0
  7 17  1  0
  8 18  1  0
  8 19  1  0
  9 20  1  0
  9 21  1  0
M  END
