
     RDKit          3D

 19 19  0  0  0  0  0  0  0  0999 V2000
    3.3954    0.7425    0.0386 C   0  0  0  0  0  0  0  0  0  0  0  0
    2.2278   -0.1471   -0.0021 C   0  0  0  0  0  0  0  0  0  0  0  0
    1.2672   -0.8782   -0.0206 C   0  0  0  0  0  0  0  0  0  0  0  0
    0.0989   -1.7816   -0.0244 C   0  0  0  0  0  0  0  0  0  0  0  0
   -0.5211   -1.8655   -1.3161 O   0  0  0  0  0  0  0  0  0  0  0  0
   -1.2042   -1.2507   -0.1514 C   0  0  0  0  0  0  0  0  0  0  0  0
   -1.5434    0.1769   -0.4892 C   0  0  0  0  0  0  0  0  0  0  0  0
   -2.3048    0.8690    0.6013 C   0  0  0  0  0  0  0  0  0  0  0  0
   -0.4115    0.9326   -0.7860 O   0  0  0  0  0  0  0  0  0  0  0  0
    4.1140    0.5094   -0.7753 H   0  0  0  0  0  0  0  0  0  0  0  0
    3.0230    1.7598   -0.1543 H   0  0  0  0  0  0  0  0  0  0  0  0
    3.9340    0.6610    1.0071 H   0  0  0  0  0  0  0  0  0  0  0  0
    0.2588   -2.7338    0.5135 H   0  0  0  0  0  0  0  0  0  0  0  0
   -2.0934   -1.8784    0.0656 H   0  0  0  0  0  0  0  0  0  0  0  0
   -2.1823    0.1888   -1.4199 H   0  0  0  0  0  0  0  0  0  0  0  0
   -2.8542    1.7239    0.1242 H   0  0  0  0  0  0  0  0  0  0  0  0
   -3.0029    0.1368    1.0657 H   0  0  0  0  0  0  0  0  0  0  0  0
   -1.6415    1.3276    1.3710 H   0  0  0  0  0  0  0  0  0  0  0  0
   -0.5599    1.5069   -1.5957 H   0  0  0  0  0  0  0  0  0  0  0  0
  1  2  1  0
  2  3  3  0
  3  4  1  0
  4  5  1  0
  5  6  1  0
  6  7  1  0
  7  8  1  0
  7  9  1  0
  6  4  1  0
  1 10  1  0
  1 11  1  0
  1 12  1  0
  4 13  1  0
  6 14  1  0
  7 15  1  0
  8 16  1  0
  8 17  1  0
  8 18  1  0
  9 19  1  0
M  END
