
     RDKit          3D

 19 18  0  0  0  0  0  0  0  0999 V2000
    3.9199    0.2147    0.2471 C   0  0  0  0  0  0  0  0  0  0  0  0
    2.5724   -0.2222   -0.0247 C   0  0  0  0  0  0  0  0  0  0  0  0
    1.4396   -0.5737   -0.2672 C   0  0  0  0  0  0  0  0  0  0  0  0
    0.0783   -1.0027   -0.5410 C   0  0  0  0  0  0  0  0  0  0  0  0
   -0.2211   -2.0523    0.2917 O   0  0  0  0  0  0  0  0  0  0  0  0
   -0.8831    0.1325   -0.4079 C   0  0  0  0  0  0  0  0  0  0  0  0
   -0.6903    1.1092   -1.1140 O   0  0  0  0  0  0  0  0  0  0  0  0
   -2.0081    0.0416    0.5484 C   0  0  0  0  0  0  0  0  0  0  0  0
   -2.8249    1.3158    0.4868 C   0  0  0  0  0  0  0  0  0  0  0  0
    3.9477    0.5870    1.3004 H   0  0  0  0  0  0  0  0  0  0  0  0
    4.6727   -0.5641    0.0830 H   0  0  0  0  0  0  0  0  0  0  0  0
    4.1602    1.0928   -0.4210 H   0  0  0  0  0  0  0  0  0  0  0  0
   -0.0102   -1.3712   -1.6000 H   0  0  0  0  0  0  0  0  0  0  0  0
   -0.8814   -2.6844   -0.0354 H   0  0  0  0  0  0  0  0  0  0  0  0
   -1.6529   -0.1003    1.5977 H   0  0  0  0  0  0  0  0  0  0  0  0
   -2.6776   -0.8195    0.2638 H   0  0  0  0  0  0  0  0  0  0  0  0
   -2.3942    2.0012    1.2561 H   0  0  0  0  0  0  0  0  0  0  0  0
   -2.6415    1.7733   -0.5287 H   0  0  0  0  0  0  0  0  0  0  0  0
   -3.9053    1.1225    0.6485 H   0  0  0  0  0  0  0  0  0  0  0  0
  1  2  1  0
  2  3  3  0
  3  4  1  0
  4  5  1  0
  4  6  1  0
  6  7  2  0
  6  8  1  0
  8  9  1  0
  1 10  1  0
  1 11  1  0
  1 12  1  0
  4 13  1  0
  5 14  1  0
  8 15  1  0
  8 16  1  0
  9 17  1  0
  9 18  1  0
  9 19  1  0
M  END
