
     RDKit          3D

 21 21  0  0  0  0  0  0  0  0999 V2000
    3.5556    0.2767   -0.3877 C   0  0  0  0  0  0  0  0  0  0  0  0
    2.0988    0.1207   -0.3586 C   0  0  0  0  0  0  0  0  0  0  0  0
    0.8968    0.0077   -0.3366 C   0  0  0  0  0  0  0  0  0  0  0  0
   -0.5588   -0.1480   -0.2926 C   0  0  0  0  0  0  0  0  0  0  0  0
   -1.1005    0.5539    0.9283 C   0  0  0  0  0  0  0  0  0  0  0  0
   -0.5096   -0.0291    2.2066 C   0  0  0  0  0  0  0  0  0  0  0  0
   -1.2821    0.2509   -1.5536 C   0  0  0  0  0  0  0  0  0  0  0  0
   -2.0683   -0.9947   -1.2212 C   0  0  0  0  0  0  0  0  0  0  0  0
   -1.0002   -1.4458   -0.4716 O   0  0  0  0  0  0  0  0  0  0  0  0
    3.9935    0.2602    0.6297 H   0  0  0  0  0  0  0  0  0  0  0  0
    4.0379   -0.5919   -0.9233 H   0  0  0  0  0  0  0  0  0  0  0  0
    3.7682    1.2015   -0.9392 H   0  0  0  0  0  0  0  0  0  0  0  0
   -0.9100    1.6350    0.8775 H   0  0  0  0  0  0  0  0  0  0  0  0
   -2.1946    0.3863    0.9550 H   0  0  0  0  0  0  0  0  0  0  0  0
    0.5386    0.3053    2.2812 H   0  0  0  0  0  0  0  0  0  0  0  0
   -0.5987   -1.1260    2.2214 H   0  0  0  0  0  0  0  0  0  0  0  0
   -1.0550    0.3446    3.0962 H   0  0  0  0  0  0  0  0  0  0  0  0
   -0.5804    0.1200   -2.4274 H   0  0  0  0  0  0  0  0  0  0  0  0
   -1.8271    1.1943   -1.5377 H   0  0  0  0  0  0  0  0  0  0  0  0
   -2.2704   -1.5776   -2.1424 H   0  0  0  0  0  0  0  0  0  0  0  0
   -2.9336   -0.7438   -0.6040 H   0  0  0  0  0  0  0  0  0  0  0  0
  1  2  1  0
  2  3  3  0
  3  4  1  0
  4  5  1  0
  5  6  1  0
  4  7  1  0
  7  8  1  0
  8  9  1  0
  9  4  1  0
  1 10  1  0
  1 11  1  0
  1 12  1  0
  5 13  1  0
  5 14  1  0
  6 15  1  0
  6 16  1  0
  6 17  1  0
  7 18  1  0
  7 19  1  0
  8 20  1  0
  8 21  1  0
M  END
