
     RDKit          3D

 17 17  0  0  0  0  0  0  0  0999 V2000
    3.5306   -0.1814   -1.3427 C   0  0  0  0  0  0  0  0  0  0  0  0
    2.1622   -0.2843   -0.8322 C   0  0  0  0  0  0  0  0  0  0  0  0
    1.0172   -0.3494   -0.4076 C   0  0  0  0  0  0  0  0  0  0  0  0
   -0.3487   -0.4467    0.1169 C   0  0  0  0  0  0  0  0  0  0  0  0
   -0.8218    0.8938    0.5950 C   0  0  0  0  0  0  0  0  0  0  0  0
   -2.0730    0.4205   -0.1124 C   0  0  0  0  0  0  0  0  0  0  0  0
   -2.9391   -0.3569    0.7937 C   0  0  0  0  0  0  0  0  0  0  0  0
   -2.8731   -1.5735    0.7488 O   0  0  0  0  0  0  0  0  0  0  0  0
   -1.2590   -0.3532   -0.9331 O   0  0  0  0  0  0  0  0  0  0  0  0
    3.4798    0.3811   -2.3029 H   0  0  0  0  0  0  0  0  0  0  0  0
    4.2212    0.2871   -0.6190 H   0  0  0  0  0  0  0  0  0  0  0  0
    3.8919   -1.2148   -1.6015 H   0  0  0  0  0  0  0  0  0  0  0  0
   -0.5529   -1.3031    0.7531 H   0  0  0  0  0  0  0  0  0  0  0  0
   -0.3299    1.7692    0.1743 H   0  0  0  0  0  0  0  0  0  0  0  0
   -0.9286    0.8917    1.7102 H   0  0  0  0  0  0  0  0  0  0  0  0
   -2.5637    1.2777   -0.6159 H   0  0  0  0  0  0  0  0  0  0  0  0
   -3.6129    0.1421    1.4776 H   0  0  0  0  0  0  0  0  0  0  0  0
  1  2  1  0
  2  3  3  0
  3  4  1  0
  4  5  1  0
  5  6  1  0
  6  7  1  0
  7  8  2  0
  6  9  1  0
  9  4  1  0
  1 10  1  0
  1 11  1  0
  1 12  1  0
  4 13  1  0
  5 14  1  0
  5 15  1  0
  6 16  1  0
  7 17  1  0
M  END
