
     RDKit          3D

 19 18  0  0  0  0  0  0  0  0999 V2000
   -3.4269    0.9522   -1.8638 C   0  0  0  0  0  0  0  0  0  0  0  0
   -2.0713    0.5015   -1.5502 C   0  0  0  0  0  0  0  0  0  0  0  0
   -0.9580    0.1439   -1.3107 C   0  0  0  0  0  0  0  0  0  0  0  0
    0.3695   -0.2903   -1.0262 C   0  0  0  0  0  0  0  0  0  0  0  0
    1.2387   -0.2998   -1.9235 O   0  0  0  0  0  0  0  0  0  0  0  0
    0.7404   -0.7360    0.3325 C   0  0  0  0  0  0  0  0  0  0  0  0
   -0.3666   -0.6463    1.1635 O   0  0  0  0  0  0  0  0  0  0  0  0
    1.8754    0.1409    0.8028 C   0  0  0  0  0  0  0  0  0  0  0  0
    2.3340   -0.2371    2.1979 C   0  0  0  0  0  0  0  0  0  0  0  0
   -3.9384    0.2651   -2.5892 H   0  0  0  0  0  0  0  0  0  0  0  0
   -4.0151    0.9527   -0.9018 H   0  0  0  0  0  0  0  0  0  0  0  0
   -3.4305    1.9953   -2.2585 H   0  0  0  0  0  0  0  0  0  0  0  0
    1.1416   -1.7766    0.2770 H   0  0  0  0  0  0  0  0  0  0  0  0
   -1.0395   -1.2951    0.7806 H   0  0  0  0  0  0  0  0  0  0  0  0
    2.7215   -0.0029    0.0993 H   0  0  0  0  0  0  0  0  0  0  0  0
    1.5843    1.2173    0.8181 H   0  0  0  0  0  0  0  0  0  0  0  0
    1.4475   -0.1358    2.8845 H   0  0  0  0  0  0  0  0  0  0  0  0
    2.7341   -1.2708    2.2191 H   0  0  0  0  0  0  0  0  0  0  0  0
    3.0595    0.5218    2.5550 H   0  0  0  0  0  0  0  0  0  0  0  0
  1  2  1  0
  2  3  3  0
  3  4  1  0
  4  5  2  0
  4  6  1  0
  6  7  1  0
  6  8  1  0
  8  9  1  0
  1 10  1  0
  1 11  1  0
  1 12  1  0
  6 13  1  0
  7 14  1  0
  8 15  1  0
  8 16  1  0
  9 17  1  0
  9 18  1  0
  9 19  1  0
M  END
