
     RDKit          3D

 18 18  0  0  0  0  0  0  0  0999 V2000
    3.2239    0.0827    0.1868 C   0  0  0  0  0  0  0  0  0  0  0  0
    1.8029    0.3978    0.4015 C   0  0  0  0  0  0  0  0  0  0  0  0
    0.6440    0.6597    0.5635 C   0  0  0  0  0  0  0  0  0  0  0  0
   -0.7844    0.9600    0.7492 C   0  0  0  0  0  0  0  0  0  0  0  0
   -1.5548    0.0609   -0.1941 C   0  0  0  0  0  0  0  0  0  0  0  0
   -2.9388    0.2522   -0.1122 O   0  0  0  0  0  0  0  0  0  0  0  0
   -1.0605   -0.0036   -1.6277 C   0  0  0  0  0  0  0  0  0  0  0  0
   -1.0048   -1.2259   -0.6559 C   0  0  0  0  0  0  0  0  0  0  0  0
    3.3494   -0.5847   -0.6940 H   0  0  0  0  0  0  0  0  0  0  0  0
    3.6484   -0.4671    1.0522 H   0  0  0  0  0  0  0  0  0  0  0  0
    3.7752    1.0105    0.0075 H   0  0  0  0  0  0  0  0  0  0  0  0
   -0.9901    2.0146    0.5039 H   0  0  0  0  0  0  0  0  0  0  0  0
   -1.0569    0.6737    1.7793 H   0  0  0  0  0  0  0  0  0  0  0  0
   -3.4273   -0.5917    0.0514 H   0  0  0  0  0  0  0  0  0  0  0  0
   -1.8022   -0.1017   -2.4503 H   0  0  0  0  0  0  0  0  0  0  0  0
   -0.0966    0.4359   -1.8892 H   0  0  0  0  0  0  0  0  0  0  0  0
   -1.7255   -2.0346   -0.8600 H   0  0  0  0  0  0  0  0  0  0  0  0
   -0.0018   -1.5386   -0.3344 H   0  0  0  0  0  0  0  0  0  0  0  0
  1  2  1  0
  2  3  3  0
  3  4  1  0
  4  5  1  0
  5  6  1  0
  5  7  1  0
  7  8  1  0
  8  5  1  0
  1  9  1  0
  1 10  1  0
  1 11  1  0
  4 12  1  0
  4 13  1  0
  6 14  1  0
  7 15  1  0
  7 16  1  0
  8 17  1  0
  8 18  1  0
M  END
