
     RDKit          3D

 17 18  0  0  0  0  0  0  0  0999 V2000
    3.7404    0.1663   -0.0334 C   0  0  0  0  0  0  0  0  0  0  0  0
    2.2872   -0.0235    0.0085 C   0  0  0  0  0  0  0  0  0  0  0  0
    1.0810   -0.1676    0.0596 C   0  0  0  0  0  0  0  0  0  0  0  0
   -0.3776   -0.3517    0.1339 C   0  0  0  0  0  0  0  0  0  0  0  0
   -1.0976   -0.8016   -1.0801 C   0  0  0  0  0  0  0  0  0  0  0  0
   -2.3440   -0.3504   -1.0400 C   0  0  0  0  0  0  0  0  0  0  0  0
   -2.5766    0.4457    0.2073 C   0  0  0  0  0  0  0  0  0  0  0  0
   -1.1848    0.4737    0.8559 C   0  0  0  0  0  0  0  0  0  0  0  0
   -0.8534   -0.7898    1.3874 O   0  0  0  0  0  0  0  0  0  0  0  0
    4.2062   -0.4969    0.7457 H   0  0  0  0  0  0  0  0  0  0  0  0
    4.1031   -0.1274   -1.0578 H   0  0  0  0  0  0  0  0  0  0  0  0
    3.9314    1.2336    0.1453 H   0  0  0  0  0  0  0  0  0  0  0  0
   -0.6967   -1.4022   -1.8864 H   0  0  0  0  0  0  0  0  0  0  0  0
   -3.1540   -0.4923   -1.7715 H   0  0  0  0  0  0  0  0  0  0  0  0
   -2.9362    1.4544   -0.0142 H   0  0  0  0  0  0  0  0  0  0  0  0
   -3.2412   -0.1480    0.8495 H   0  0  0  0  0  0  0  0  0  0  0  0
   -0.8872    1.3777    1.4116 H   0  0  0  0  0  0  0  0  0  0  0  0
  1  2  1  0
  2  3  3  0
  3  4  1  0
  4  5  1  0
  5  6  2  0
  6  7  1  0
  7  8  1  0
  8  9  1  0
  8  4  1  0
  9  4  1  0
  1 10  1  0
  1 11  1  0
  1 12  1  0
  5 13  1  0
  6 14  1  0
  7 15  1  0
  7 16  1  0
  8 17  1  0
M  END
