
     RDKit          3D

 21 21  0  0  0  0  0  0  0  0999 V2000
    2.9373   -1.4052   -1.1732 C   0  0  0  0  0  0  0  0  0  0  0  0
    1.7199   -0.7018   -0.7399 C   0  0  0  0  0  0  0  0  0  0  0  0
    0.7113   -0.1290   -0.4027 C   0  0  0  0  0  0  0  0  0  0  0  0
   -0.5087    0.5932    0.0057 C   0  0  0  0  0  0  0  0  0  0  0  0
   -0.4440    2.0937   -0.0508 C   0  0  0  0  0  0  0  0  0  0  0  0
   -0.1824    2.5241   -1.3317 O   0  0  0  0  0  0  0  0  0  0  0  0
   -1.8396   -0.0794   -0.4032 C   0  0  0  0  0  0  0  0  0  0  0  0
   -1.3915   -0.0271    0.9979 C   0  0  0  0  0  0  0  0  0  0  0  0
   -1.0351   -1.3125    1.7040 C   0  0  0  0  0  0  0  0  0  0  0  0
    2.7913   -1.8973   -2.1506 H   0  0  0  0  0  0  0  0  0  0  0  0
    3.2288   -2.1984   -0.4601 H   0  0  0  0  0  0  0  0  0  0  0  0
    3.7565   -0.6781   -1.2250 H   0  0  0  0  0  0  0  0  0  0  0  0
   -1.3873    2.5078    0.3697 H   0  0  0  0  0  0  0  0  0  0  0  0
    0.3741    2.4057    0.6599 H   0  0  0  0  0  0  0  0  0  0  0  0
    0.6211    3.1056   -1.3688 H   0  0  0  0  0  0  0  0  0  0  0  0
   -2.6338    0.5840   -0.7983 H   0  0  0  0  0  0  0  0  0  0  0  0
   -1.7568   -1.0706   -0.8992 H   0  0  0  0  0  0  0  0  0  0  0  0
   -1.9667    0.6744    1.6518 H   0  0  0  0  0  0  0  0  0  0  0  0
   -0.1515   -1.8065    1.2543 H   0  0  0  0  0  0  0  0  0  0  0  0
   -0.9426   -1.1793    2.8018 H   0  0  0  0  0  0  0  0  0  0  0  0
   -1.9003   -2.0032    1.5584 H   0  0  0  0  0  0  0  0  0  0  0  0
  1  2  1  0
  2  3  3  0
  3  4  1  0
  4  5  1  0
  5  6  1  0
  4  7  1  0
  7  8  1  0
  8  9  1  0
  8  4  1  0
  1 10  1  0
  1 11  1  0
  1 12  1  0
  5 13  1  0
  5 14  1  0
  6 15  1  0
  7 16  1  0
  7 17  1  0
  8 18  1  0
  9 19  1  0
  9 20  1  0
  9 21  1  0
M  END
