
     RDKit          3D

 23 22  0  0  0  0  0  0  0  0999 V2000
    3.9235    0.9776   -1.3016 C   0  0  0  0  0  0  0  0  0  0  0  0
    2.6118    0.3479   -1.1452 C   0  0  0  0  0  0  0  0  0  0  0  0
    1.5227   -0.1953   -1.0033 C   0  0  0  0  0  0  0  0  0  0  0  0
    0.2138   -0.8302   -0.8534 C   0  0  0  0  0  0  0  0  0  0  0  0
   -0.6116    0.0317    0.0819 C   0  0  0  0  0  0  0  0  0  0  0  0
    0.0852    0.1183    1.3978 C   0  0  0  0  0  0  0  0  0  0  0  0
   -1.9886   -0.6021    0.2139 C   0  0  0  0  0  0  0  0  0  0  0  0
   -2.8103    0.2691    1.1542 C   0  0  0  0  0  0  0  0  0  0  0  0
   -2.6187   -0.5933   -1.0297 O   0  0  0  0  0  0  0  0  0  0  0  0
    4.4041    0.5985   -2.2075 H   0  0  0  0  0  0  0  0  0  0  0  0
    3.7573    2.0713   -1.4127 H   0  0  0  0  0  0  0  0  0  0  0  0
    4.6017    0.7540   -0.4429 H   0  0  0  0  0  0  0  0  0  0  0  0
   -0.2482   -0.9009   -1.8451 H   0  0  0  0  0  0  0  0  0  0  0  0
    0.3064   -1.8633   -0.4346 H   0  0  0  0  0  0  0  0  0  0  0  0
   -0.6753    1.0316   -0.3920 H   0  0  0  0  0  0  0  0  0  0  0  0
   -0.4632   -0.4877    2.1416 H   0  0  0  0  0  0  0  0  0  0  0  0
    0.1125    1.1692    1.7201 H   0  0  0  0  0  0  0  0  0  0  0  0
    1.1600   -0.2147    1.3431 H   0  0  0  0  0  0  0  0  0  0  0  0
   -1.8863   -1.6374    0.5946 H   0  0  0  0  0  0  0  0  0  0  0  0
   -3.8812    0.1500    0.9373 H   0  0  0  0  0  0  0  0  0  0  0  0
   -2.5335   -0.0505    2.1851 H   0  0  0  0  0  0  0  0  0  0  0  0
   -2.4671    1.3204    0.9560 H   0  0  0  0  0  0  0  0  0  0  0  0
   -2.5149   -1.4643   -1.5031 H   0  0  0  0  0  0  0  0  0  0  0  0
  1  2  1  0
  2  3  3  0
  3  4  1  0
  4  5  1  0
  5  6  1  0
  5  7  1  0
  7  8  1  0
  7  9  1  0
  1 10  1  0
  1 11  1  0
  1 12  1  0
  4 13  1  0
  4 14  1  0
  5 15  1  0
  6 16  1  0
  6 17  1  0
  6 18  1  0
  7 19  1  0
  8 20  1  0
  8 21  1  0
  8 22  1  0
  9 23  1  0
M  END
