
     RDKit          3D

 23 22  0  0  0  0  0  0  0  0999 V2000
    3.3113    0.9524    1.3767 C   0  0  0  0  0  0  0  0  0  0  0  0
    2.0057    0.9575    0.7132 C   0  0  0  0  0  0  0  0  0  0  0  0
    0.9109    0.9714    0.1662 C   0  0  0  0  0  0  0  0  0  0  0  0
   -0.3953    1.0116   -0.4939 C   0  0  0  0  0  0  0  0  0  0  0  0
   -0.2590    1.2060   -1.8778 O   0  0  0  0  0  0  0  0  0  0  0  0
   -1.0270   -0.3598   -0.3244 C   0  0  0  0  0  0  0  0  0  0  0  0
   -0.1386   -1.3941   -0.9623 C   0  0  0  0  0  0  0  0  0  0  0  0
   -1.1368   -0.6768    1.1450 C   0  0  0  0  0  0  0  0  0  0  0  0
   -2.4243   -0.3767   -0.9416 C   0  0  0  0  0  0  0  0  0  0  0  0
    3.1302    0.5711    2.4126 H   0  0  0  0  0  0  0  0  0  0  0  0
    4.0345    0.2764    0.8558 H   0  0  0  0  0  0  0  0  0  0  0  0
    3.7311    1.9741    1.4874 H   0  0  0  0  0  0  0  0  0  0  0  0
   -0.9890    1.8021   -0.0231 H   0  0  0  0  0  0  0  0  0  0  0  0
    0.7082    1.4005   -2.0769 H   0  0  0  0  0  0  0  0  0  0  0  0
   -0.7791   -2.2685   -1.2041 H   0  0  0  0  0  0  0  0  0  0  0  0
    0.6358   -1.6779   -0.2166 H   0  0  0  0  0  0  0  0  0  0  0  0
    0.3810   -1.0207   -1.8700 H   0  0  0  0  0  0  0  0  0  0  0  0
   -0.1123   -0.8485    1.5525 H   0  0  0  0  0  0  0  0  0  0  0  0
   -1.7125   -1.5956    1.2806 H   0  0  0  0  0  0  0  0  0  0  0  0
   -1.5541    0.1941    1.7205 H   0  0  0  0  0  0  0  0  0  0  0  0
   -3.1110   -1.0269   -0.3846 H   0  0  0  0  0  0  0  0  0  0  0  0
   -2.8308    0.6685   -0.9786 H   0  0  0  0  0  0  0  0  0  0  0  0
   -2.3790   -0.7404   -1.9830 H   0  0  0  0  0  0  0  0  0  0  0  0
  1  2  1  0
  2  3  3  0
  3  4  1  0
  4  5  1  0
  4  6  1  0
  6  7  1  0
  6  8  1  0
  6  9  1  0
  1 10  1  0
  1 11  1  0
  1 12  1  0
  4 13  1  0
  5 14  1  0
  7 15  1  0
  7 16  1  0
  7 17  1  0
  8 18  1  0
  8 19  1  0
  8 20  1  0
  9 21  1  0
  9 22  1  0
  9 23  1  0
M  END
