
     RDKit          3D

 16 15  0  0  0  0  0  0  0  0999 V2000
   -3.4892   -0.0594    0.7362 C   0  0  0  0  0  0  0  0  0  0  0  0
   -2.0364    0.1298    0.5848 C   0  0  0  0  0  0  0  0  0  0  0  0
   -0.8402    0.3060    0.4602 C   0  0  0  0  0  0  0  0  0  0  0  0
    0.6096    0.5130    0.3343 C   0  0  0  0  0  0  0  0  0  0  0  0
    1.2152   -0.7849   -0.1452 C   0  0  0  0  0  0  0  0  0  0  0  0
    2.5923   -0.6766   -0.2908 O   0  0  0  0  0  0  0  0  0  0  0  0
    3.2238    0.2101   -1.1391 C   0  0  0  0  0  0  0  0  0  0  0  0
    2.5339    0.9842   -1.8402 O   0  0  0  0  0  0  0  0  0  0  0  0
   -3.9559   -0.3126   -0.2596 H   0  0  0  0  0  0  0  0  0  0  0  0
   -3.7264   -0.8638    1.4604 H   0  0  0  0  0  0  0  0  0  0  0  0
   -3.9468    0.8618    1.1372 H   0  0  0  0  0  0  0  0  0  0  0  0
    0.7389    1.3337   -0.3979 H   0  0  0  0  0  0  0  0  0  0  0  0
    1.0549    0.7694    1.3247 H   0  0  0  0  0  0  0  0  0  0  0  0
    0.9896   -1.5961    0.5515 H   0  0  0  0  0  0  0  0  0  0  0  0
    0.7366   -1.0169   -1.1353 H   0  0  0  0  0  0  0  0  0  0  0  0
    4.3001    0.2022   -1.1658 H   0  0  0  0  0  0  0  0  0  0  0  0
  1  2  1  0
  2  3  3  0
  3  4  1  0
  4  5  1  0
  5  6  1  0
  6  7  1  0
  7  8  2  0
  1  9  1  0
  1 10  1  0
  1 11  1  0
  4 12  1  0
  4 13  1  0
  5 14  1  0
  5 15  1  0
  7 16  1  0
M  END
