
     RDKit          3D

 16 15  0  0  0  0  0  0  0  0999 V2000
   -3.1921    0.0921   -0.3379 C   0  0  0  0  0  0  0  0  0  0  0  0
   -1.8952   -0.5419   -0.1417 C   0  0  0  0  0  0  0  0  0  0  0  0
   -0.8103   -1.0698    0.0437 C   0  0  0  0  0  0  0  0  0  0  0  0
    0.4937   -1.7099    0.2423 C   0  0  0  0  0  0  0  0  0  0  0  0
    1.4734   -0.7819   -0.1644 O   0  0  0  0  0  0  0  0  0  0  0  0
    1.5532    0.4410    0.4692 C   0  0  0  0  0  0  0  0  0  0  0  0
    2.5385    1.4778    0.1204 C   0  0  0  0  0  0  0  0  0  0  0  0
    0.7358    0.6821    1.3987 O   0  0  0  0  0  0  0  0  0  0  0  0
   -3.0549    1.0633   -0.8515 H   0  0  0  0  0  0  0  0  0  0  0  0
   -3.6585    0.2049    0.6593 H   0  0  0  0  0  0  0  0  0  0  0  0
   -3.8549   -0.5412   -0.9886 H   0  0  0  0  0  0  0  0  0  0  0  0
    0.6502   -1.8864    1.3272 H   0  0  0  0  0  0  0  0  0  0  0  0
    0.5700   -2.6737   -0.2647 H   0  0  0  0  0  0  0  0  0  0  0  0
    2.7396    2.1013    1.0130 H   0  0  0  0  0  0  0  0  0  0  0  0
    3.5009    1.0069   -0.1603 H   0  0  0  0  0  0  0  0  0  0  0  0
    2.2108    2.1355   -0.6986 H   0  0  0  0  0  0  0  0  0  0  0  0
  1  2  1  0
  2  3  3  0
  3  4  1  0
  4  5  1  0
  5  6  1  0
  6  7  1  0
  6  8  2  0
  1  9  1  0
  1 10  1  0
  1 11  1  0
  4 12  1  0
  4 13  1  0
  7 14  1  0
  7 15  1  0
  7 16  1  0
M  END
