
     RDKit          3D

 19 19  0  0  0  0  0  0  0  0999 V2000
   -3.5199   -0.1623    0.3414 C   0  0  0  0  0  0  0  0  0  0  0  0
   -2.1616    0.3020   -0.0346 C   0  0  0  0  0  0  0  0  0  0  0  0
   -1.0546    0.6802   -0.3192 C   0  0  0  0  0  0  0  0  0  0  0  0
    0.2943    1.1452   -0.6885 C   0  0  0  0  0  0  0  0  0  0  0  0
    0.4772    1.6795   -1.9491 O   0  0  0  0  0  0  0  0  0  0  0  0
    1.1383    1.6251    0.4576 C   0  0  0  0  0  0  0  0  0  0  0  0
    1.3965    0.3036   -0.1671 C   0  0  0  0  0  0  0  0  0  0  0  0
    1.1284   -0.8307    0.5867 O   0  0  0  0  0  0  0  0  0  0  0  0
    2.1411   -1.7850    0.5008 C   0  0  0  0  0  0  0  0  0  0  0  0
   -3.8316   -0.9689   -0.3367 H   0  0  0  0  0  0  0  0  0  0  0  0
   -4.2658    0.6705    0.2119 H   0  0  0  0  0  0  0  0  0  0  0  0
   -3.5726   -0.4385    1.4096 H   0  0  0  0  0  0  0  0  0  0  0  0
   -0.3381    1.6496   -2.5051 H   0  0  0  0  0  0  0  0  0  0  0  0
    1.7692    2.5076    0.2084 H   0  0  0  0  0  0  0  0  0  0  0  0
    0.7641    1.6339    1.4810 H   0  0  0  0  0  0  0  0  0  0  0  0
    2.3809    0.2403   -0.7065 H   0  0  0  0  0  0  0  0  0  0  0  0
    2.3113   -2.1388   -0.5275 H   0  0  0  0  0  0  0  0  0  0  0  0
    3.1049   -1.3170    0.8564 H   0  0  0  0  0  0  0  0  0  0  0  0
    1.8382   -2.6157    1.1805 H   0  0  0  0  0  0  0  0  0  0  0  0
  1  2  1  0
  2  3  3  0
  3  4  1  0
  4  5  1  0
  4  6  1  0
  6  7  1  0
  7  8  1  0
  8  9  1  0
  7  4  1  0
  1 10  1  0
  1 11  1  0
  1 12  1  0
  5 13  1  0
  6 14  1  0
  6 15  1  0
  7 16  1  0
  9 17  1  0
  9 18  1  0
  9 19  1  0
M  END
