
     RDKit          3D

 16 17  0  0  0  0  0  0  0  0999 V2000
    3.2758   -0.2252   -0.7267 C   0  0  0  0  0  0  0  0  0  0  0  0
    1.7201   -0.1414   -0.5916 C   0  0  0  0  0  0  0  0  0  0  0  0
    0.5554   -0.0869   -0.5043 C   0  0  0  0  0  0  0  0  0  0  0  0
   -0.9686   -0.0314   -0.3685 C   0  0  0  0  0  0  0  0  0  0  0  0
   -1.3430   -0.7548    0.8366 C   0  0  0  0  0  0  0  0  0  0  0  0
   -2.3943    0.2095    1.1648 C   0  0  0  0  0  0  0  0  0  0  0  0
   -1.2807    1.0076    0.6987 C   0  0  0  0  0  0  0  0  0  0  0  0
   -0.4642    0.1485    1.5021 O   0  0  0  0  0  0  0  0  0  0  0  0
    3.5620   -0.5012    0.4464 H   0  0  0  0  0  0  0  0  0  0  0  0
    3.5120   -1.1591   -1.1589 H   0  0  0  0  0  0  0  0  0  0  0  0
    3.7467    0.7171   -0.7625 H   0  0  0  0  0  0  0  0  0  0  0  0
   -1.5057    0.0437   -1.2642 H   0  0  0  0  0  0  0  0  0  0  0  0
   -1.3311   -1.7627    1.0447 H   0  0  0  0  0  0  0  0  0  0  0  0
   -3.3653    0.1925    0.6399 H   0  0  0  0  0  0  0  0  0  0  0  0
   -2.5953    0.3351    2.2704 H   0  0  0  0  0  0  0  0  0  0  0  0
   -1.1240    2.0085    0.6029 H   0  0  0  0  0  0  0  0  0  0  0  0
  1  2  1  0
  2  3  3  0
  3  4  1  0
  4  5  1  0
  5  6  1  0
  6  7  1  0
  7  8  1  0
  7  4  1  0
  8  5  1  0
  1  9  1  0
  1 10  1  0
  1 11  1  0
  4 12  1  0
  5 13  1  0
  6 14  1  0
  6 15  1  0
  7 16  1  0
M  END
