
     RDKit          3D

 17 16  0  0  0  0  0  0  0  0999 V2000
    3.0983   -0.0824    1.2871 C   0  0  0  0  0  0  0  0  0  0  0  0
    1.7564   -0.0498    0.6919 C   0  0  0  0  0  0  0  0  0  0  0  0
    0.6601   -0.0058    0.1925 C   0  0  0  0  0  0  0  0  0  0  0  0
   -0.6549    0.0715   -0.4130 C   0  0  0  0  0  0  0  0  0  0  0  0
   -1.2265   -1.3010   -0.7409 C   0  0  0  0  0  0  0  0  0  0  0  0
   -1.5246   -2.0224    0.3931 O   0  0  0  0  0  0  0  0  0  0  0  0
   -1.5712    0.8411    0.3439 O   0  0  0  0  0  0  0  0  0  0  0  0
   -2.1385    1.9995   -0.1583 C   0  0  0  0  0  0  0  0  0  0  0  0
   -1.7962    2.3389   -1.3337 O   0  0  0  0  0  0  0  0  0  0  0  0
    3.5903    0.9016    1.2261 H   0  0  0  0  0  0  0  0  0  0  0  0
    3.6685   -0.8606    0.7013 H   0  0  0  0  0  0  0  0  0  0  0  0
    3.0605   -0.3682    2.3694 H   0  0  0  0  0  0  0  0  0  0  0  0
   -0.5222    0.5809   -1.4064 H   0  0  0  0  0  0  0  0  0  0  0  0
   -2.1181   -1.1312   -1.3715 H   0  0  0  0  0  0  0  0  0  0  0  0
   -0.4221   -1.8439   -1.2957 H   0  0  0  0  0  0  0  0  0  0  0  0
   -1.0170   -1.6844    1.1792 H   0  0  0  0  0  0  0  0  0  0  0  0
   -2.8429    2.6162    0.3880 H   0  0  0  0  0  0  0  0  0  0  0  0
  1  2  1  0
  2  3  3  0
  3  4  1  0
  4  5  1  0
  5  6  1  0
  4  7  1  0
  7  8  1  0
  8  9  2  0
  1 10  1  0
  1 11  1  0
  1 12  1  0
  4 13  1  0
  5 14  1  0
  5 15  1  0
  6 16  1  0
  8 17  1  0
M  END
