
     RDKit          3D

 19 20  0  0  0  0  0  0  0  0999 V2000
    3.0997    0.9498    1.8964 C   0  0  0  0  0  0  0  0  0  0  0  0
    1.9254    0.4897    1.1736 C   0  0  0  0  0  0  0  0  0  0  0  0
    0.9465    0.0929    0.5766 C   0  0  0  0  0  0  0  0  0  0  0  0
   -0.2580   -0.3715   -0.1381 C   0  0  0  0  0  0  0  0  0  0  0  0
    0.0918   -1.2305   -1.2689 C   0  0  0  0  0  0  0  0  0  0  0  0
   -1.1951   -0.8450    0.8145 O   0  0  0  0  0  0  0  0  0  0  0  0
   -2.1164   -0.6465   -0.1928 C   0  0  0  0  0  0  0  0  0  0  0  0
   -2.6647    0.5475   -0.7425 C   0  0  0  0  0  0  0  0  0  0  0  0
   -1.3016    0.7019   -0.3013 C   0  0  0  0  0  0  0  0  0  0  0  0
    3.0514    1.9977    2.1990 H   0  0  0  0  0  0  0  0  0  0  0  0
    3.2563    0.3567    2.8346 H   0  0  0  0  0  0  0  0  0  0  0  0
    3.9734    0.8455    1.2087 H   0  0  0  0  0  0  0  0  0  0  0  0
   -0.3726   -0.9416   -2.2583 H   0  0  0  0  0  0  0  0  0  0  0  0
   -0.0755   -2.3272   -1.0598 H   0  0  0  0  0  0  0  0  0  0  0  0
    1.2005   -1.1859   -1.4953 H   0  0  0  0  0  0  0  0  0  0  0  0
   -1.8928   -1.4149   -0.9930 H   0  0  0  0  0  0  0  0  0  0  0  0
   -3.5683    0.9772   -0.2119 H   0  0  0  0  0  0  0  0  0  0  0  0
   -2.8136    0.7023   -1.8541 H   0  0  0  0  0  0  0  0  0  0  0  0
   -1.2863    1.3021    0.6677 H   0  0  0  0  0  0  0  0  0  0  0  0
  1  2  1  0
  2  3  3  0
  3  4  1  0
  4  5  1  0
  4  6  1  0
  6  7  1  0
  7  8  1  0
  8  9  1  0
  9  4  1  0
  9  7  1  0
  1 10  1  0
  1 11  1  0
  1 12  1  0
  5 13  1  0
  5 14  1  0
  5 15  1  0
  7 16  1  0
  8 17  1  0
  8 18  1  0
  9 19  1  0
M  END
