
     RDKit          3D

 19 20  0  0  0  0  0  0  0  0999 V2000
    3.2814   -1.5610   -0.7589 C   0  0  0  0  0  0  0  0  0  0  0  0
    2.2092   -0.6189   -0.6486 C   0  0  0  0  0  0  0  0  0  0  0  0
    1.1969    0.2394   -0.5445 C   0  0  0  0  0  0  0  0  0  0  0  0
   -0.0684    1.2789   -0.4295 C   0  0  0  0  0  0  0  0  0  0  0  0
   -1.3782    1.3035   -0.4799 C   0  0  0  0  0  0  0  0  0  0  0  0
   -1.9217    2.2757    0.4770 O   0  0  0  0  0  0  0  0  0  0  0  0
   -1.9465    1.1949    1.3860 C   0  0  0  0  0  0  0  0  0  0  0  0
   -0.8675    0.4400    0.6127 C   0  0  0  0  0  0  0  0  0  0  0  0
   -1.2194   -1.0482    0.2714 C   0  0  0  0  0  0  0  0  0  0  0  0
    3.6138   -1.9587    0.1306 H   0  0  0  0  0  0  0  0  0  0  0  0
    3.1011   -2.1349   -1.6459 H   0  0  0  0  0  0  0  0  0  0  0  0
    4.1338   -0.7139   -1.1484 H   0  0  0  0  0  0  0  0  0  0  0  0
    0.5149    2.1492   -0.0956 H   0  0  0  0  0  0  0  0  0  0  0  0
   -2.0234    0.9298   -1.3159 H   0  0  0  0  0  0  0  0  0  0  0  0
   -1.6587    1.4603    2.3717 H   0  0  0  0  0  0  0  0  0  0  0  0
   -3.0004    0.7839    1.2730 H   0  0  0  0  0  0  0  0  0  0  0  0
   -2.0982   -0.9982   -0.4336 H   0  0  0  0  0  0  0  0  0  0  0  0
   -1.4766   -1.5076    1.2204 H   0  0  0  0  0  0  0  0  0  0  0  0
   -0.3920   -1.5141   -0.2419 H   0  0  0  0  0  0  0  0  0  0  0  0
  1  2  1  0
  2  3  3  0
  3  4  1  0
  4  5  1  0
  5  6  1  0
  6  7  1  0
  7  8  1  0
  8  9  1  0
  8  4  1  0
  8  5  1  0
  1 10  1  0
  1 11  1  0
  1 12  1  0
  4 13  1  0
  5 14  1  0
  7 15  1  0
  7 16  1  0
  9 17  1  0
  9 18  1  0
  9 19  1  0
M  END
