
     RDKit          3D

 21 21  0  0  0  0  0  0  0  0999 V2000
    3.9283    1.2757   -0.0926 C   0  0  0  0  0  0  0  0  0  0  0  0
    2.5772    0.7076   -0.0371 C   0  0  0  0  0  0  0  0  0  0  0  0
    1.4655    0.2307    0.0269 C   0  0  0  0  0  0  0  0  0  0  0  0
    0.1207   -0.3737    0.1000 C   0  0  0  0  0  0  0  0  0  0  0  0
   -0.8918    0.5348    0.2709 O   0  0  0  0  0  0  0  0  0  0  0  0
   -2.1495    0.0163    0.3430 C   0  0  0  0  0  0  0  0  0  0  0  0
   -3.1126    1.2012    0.5327 C   0  0  0  0  0  0  0  0  0  0  0  0
    0.0523   -1.7066    0.7259 C   0  0  0  0  0  0  0  0  0  0  0  0
   -0.0461   -1.5834   -0.7473 C   0  0  0  0  0  0  0  0  0  0  0  0
    4.0703    2.0651    0.6926 H   0  0  0  0  0  0  0  0  0  0  0  0
    4.6317    0.4766    0.1455 H   0  0  0  0  0  0  0  0  0  0  0  0
    4.1329    1.7767   -1.0634 H   0  0  0  0  0  0  0  0  0  0  0  0
   -2.5101   -0.4800   -0.5775 H   0  0  0  0  0  0  0  0  0  0  0  0
   -2.2496   -0.5904    1.2527 H   0  0  0  0  0  0  0  0  0  0  0  0
   -2.8187    1.9292   -0.2628 H   0  0  0  0  0  0  0  0  0  0  0  0
   -2.9250    1.5785    1.5447 H   0  0  0  0  0  0  0  0  0  0  0  0
   -4.1695    0.8661    0.4224 H   0  0  0  0  0  0  0  0  0  0  0  0
    0.9717   -2.2142    1.0944 H   0  0  0  0  0  0  0  0  0  0  0  0
   -0.8594   -2.0826    1.2349 H   0  0  0  0  0  0  0  0  0  0  0  0
   -1.0178   -1.6795   -1.2815 H   0  0  0  0  0  0  0  0  0  0  0  0
    0.7995   -1.9481   -1.3716 H   0  0  0  0  0  0  0  0  0  0  0  0
  1  2  1  0
  2  3  3  0
  3  4  1  0
  4  5  1  0
  5  6  1  0
  6  7  1  0
  4  8  1  0
  8  9  1  0
  9  4  1  0
  1 10  1  0
  1 11  1  0
  1 12  1  0
  6 13  1  0
  6 14  1  0
  7 15  1  0
  7 16  1  0
  7 17  1  0
  8 18  1  0
  8 19  1  0
  9 20  1  0
  9 21  1  0
M  END
