
     RDKit          3D

 21 20  0  0  0  0  0  0  0  0999 V2000
   -2.8885   -1.5008    1.6885 C   0  0  0  0  0  0  0  0  0  0  0  0
   -1.9451   -0.7228    0.8921 C   0  0  0  0  0  0  0  0  0  0  0  0
   -1.1466   -0.0674    0.2445 C   0  0  0  0  0  0  0  0  0  0  0  0
   -0.1696    0.7238   -0.5149 C   0  0  0  0  0  0  0  0  0  0  0  0
   -0.6496    0.7679   -1.9399 C   0  0  0  0  0  0  0  0  0  0  0  0
    0.0135    2.0796    0.0876 C   0  0  0  0  0  0  0  0  0  0  0  0
    1.1492    0.0552   -0.5056 C   0  0  0  0  0  0  0  0  0  0  0  0
    2.2183   -0.5025   -0.4831 C   0  0  0  0  0  0  0  0  0  0  0  0
    3.5058   -1.1946   -0.4475 C   0  0  0  0  0  0  0  0  0  0  0  0
   -3.7569   -1.7377    1.0161 H   0  0  0  0  0  0  0  0  0  0  0  0
   -2.4518   -2.4070    2.1258 H   0  0  0  0  0  0  0  0  0  0  0  0
   -3.2738   -0.8728    2.5147 H   0  0  0  0  0  0  0  0  0  0  0  0
   -1.3177    1.6236   -2.1382 H   0  0  0  0  0  0  0  0  0  0  0  0
   -1.1521   -0.2004   -2.1478 H   0  0  0  0  0  0  0  0  0  0  0  0
    0.2545    0.8126   -2.6112 H   0  0  0  0  0  0  0  0  0  0  0  0
   -0.6326    2.1522    0.9865 H   0  0  0  0  0  0  0  0  0  0  0  0
    1.0424    2.2936    0.4216 H   0  0  0  0  0  0  0  0  0  0  0  0
   -0.3310    2.9010   -0.6013 H   0  0  0  0  0  0  0  0  0  0  0  0
    4.2934   -0.6415   -1.0313 H   0  0  0  0  0  0  0  0  0  0  0  0
    3.8028   -1.3371    0.6081 H   0  0  0  0  0  0  0  0  0  0  0  0
    3.4357   -2.2248   -0.8811 H   0  0  0  0  0  0  0  0  0  0  0  0
  1  2  1  0
  2  3  3  0
  3  4  1  0
  4  5  1  0
  4  6  1  0
  4  7  1  0
  7  8  3  0
  8  9  1  0
  1 10  1  0
  1 11  1  0
  1 12  1  0
  5 13  1  0
  5 14  1  0
  5 15  1  0
  6 16  1  0
  6 17  1  0
  6 18  1  0
  9 19  1  0
  9 20  1  0
  9 21  1  0
M  END
