
     RDKit          3D

 19 19  0  0  0  0  0  0  0  0999 V2000
    3.2574    0.9667    0.5278 C   0  0  0  0  0  0  0  0  0  0  0  0
    2.1555    0.1392    0.0667 C   0  0  0  0  0  0  0  0  0  0  0  0
    1.2440   -0.5639   -0.3320 C   0  0  0  0  0  0  0  0  0  0  0  0
    0.1685   -1.4180   -0.8013 C   0  0  0  0  0  0  0  0  0  0  0  0
   -1.1918   -0.8708   -0.4619 C   0  0  0  0  0  0  0  0  0  0  0  0
   -1.4259   -0.7002    1.0311 C   0  0  0  0  0  0  0  0  0  0  0  0
   -1.2949    0.4933    0.1049 C   0  0  0  0  0  0  0  0  0  0  0  0
   -2.5341    1.2806   -0.0272 C   0  0  0  0  0  0  0  0  0  0  0  0
   -3.6007    0.7248   -0.0828 O   0  0  0  0  0  0  0  0  0  0  0  0
    3.4832    1.7839   -0.2145 H   0  0  0  0  0  0  0  0  0  0  0  0
    4.2057    0.3800    0.5977 H   0  0  0  0  0  0  0  0  0  0  0  0
    2.9910    1.4188    1.5103 H   0  0  0  0  0  0  0  0  0  0  0  0
    0.2239   -1.5631   -1.9022 H   0  0  0  0  0  0  0  0  0  0  0  0
    0.2259   -2.4377   -0.3314 H   0  0  0  0  0  0  0  0  0  0  0  0
   -2.0546   -1.1854   -1.0890 H   0  0  0  0  0  0  0  0  0  0  0  0
   -2.4349   -0.9904    1.3941 H   0  0  0  0  0  0  0  0  0  0  0  0
   -0.5976   -0.8581    1.7273 H   0  0  0  0  0  0  0  0  0  0  0  0
   -0.3329    1.0537    0.1523 H   0  0  0  0  0  0  0  0  0  0  0  0
   -2.4878    2.3467   -0.0740 H   0  0  0  0  0  0  0  0  0  0  0  0
  1  2  1  0
  2  3  3  0
  3  4  1  0
  4  5  1  0
  5  6  1  0
  6  7  1  0
  7  8  1  0
  8  9  2  0
  7  5  1  0
  1 10  1  0
  1 11  1  0
  1 12  1  0
  4 13  1  0
  4 14  1  0
  5 15  1  0
  6 16  1  0
  6 17  1  0
  7 18  1  0
  8 19  1  0
M  END
