
     RDKit          3D

 21 21  0  0  0  0  0  0  0  0999 V2000
    2.1431    1.5718   -2.3780 C   0  0  0  0  0  0  0  0  0  0  0  0
    1.3891    0.7194   -1.5637 C   0  0  0  0  0  0  0  0  0  0  0  0
    0.6829   -0.0867   -0.7692 C   0  0  0  0  0  0  0  0  0  0  0  0
   -0.0573   -0.9520    0.0495 C   0  0  0  0  0  0  0  0  0  0  0  0
   -1.3592   -0.3253    0.5830 C   0  0  0  0  0  0  0  0  0  0  0  0
   -0.9521    0.7692    1.2964 O   0  0  0  0  0  0  0  0  0  0  0  0
   -1.8787    1.5314    1.9256 C   0  0  0  0  0  0  0  0  0  0  0  0
    0.1665   -2.3992    0.0400 C   0  0  0  0  0  0  0  0  0  0  0  0
    0.6613   -1.6432    1.2366 C   0  0  0  0  0  0  0  0  0  0  0  0
    2.3646    1.0956   -3.3606 H   0  0  0  0  0  0  0  0  0  0  0  0
    3.1264    1.8963   -1.9018 H   0  0  0  0  0  0  0  0  0  0  0  0
    1.5913    2.5366   -2.5525 H   0  0  0  0  0  0  0  0  0  0  0  0
   -1.9481   -1.0589    1.1696 H   0  0  0  0  0  0  0  0  0  0  0  0
   -1.9838   -0.0220   -0.2862 H   0  0  0  0  0  0  0  0  0  0  0  0
   -1.2946    2.3521    2.4700 H   0  0  0  0  0  0  0  0  0  0  0  0
   -2.4476    2.1150    1.1720 H   0  0  0  0  0  0  0  0  0  0  0  0
   -2.4610    1.0413    2.7029 H   0  0  0  0  0  0  0  0  0  0  0  0
    0.9942   -2.7790   -0.6106 H   0  0  0  0  0  0  0  0  0  0  0  0
   -0.6151   -3.1448    0.2053 H   0  0  0  0  0  0  0  0  0  0  0  0
    0.1288   -1.7836    2.1737 H   0  0  0  0  0  0  0  0  0  0  0  0
    1.7495   -1.4339    1.3263 H   0  0  0  0  0  0  0  0  0  0  0  0
  1  2  1  0
  2  3  3  0
  3  4  1  0
  4  5  1  0
  5  6  1  0
  6  7  1  0
  4  8  1  0
  8  9  1  0
  9  4  1  0
  1 10  1  0
  1 11  1  0
  1 12  1  0
  5 13  1  0
  5 14  1  0
  7 15  1  0
  7 16  1  0
  7 17  1  0
  8 18  1  0
  8 19  1  0
  9 20  1  0
  9 21  1  0
M  END
