
     RDKit          3D

 19 18  0  0  0  0  0  0  0  0999 V2000
   -3.4199    0.3552    1.1492 C   0  0  0  0  0  0  0  0  0  0  0  0
   -1.9805    0.6394    0.8227 C   0  0  0  0  0  0  0  0  0  0  0  0
   -0.8140    0.8756    0.5746 C   0  0  0  0  0  0  0  0  0  0  0  0
    0.5651    1.1758    0.2750 C   0  0  0  0  0  0  0  0  0  0  0  0
    0.6882    1.3999   -1.1088 O   0  0  0  0  0  0  0  0  0  0  0  0
    1.4087   -0.0405    0.5804 C   0  0  0  0  0  0  0  0  0  0  0  0
    2.6920    0.3069    0.1371 O   0  0  0  0  0  0  0  0  0  0  0  0
    0.9744   -1.2752   -0.1550 C   0  0  0  0  0  0  0  0  0  0  0  0
    1.9242   -2.2825    0.1388 O   0  0  0  0  0  0  0  0  0  0  0  0
   -3.9379    1.2624    0.8114 H   0  0  0  0  0  0  0  0  0  0  0  0
   -3.5161    0.2575    2.2589 H   0  0  0  0  0  0  0  0  0  0  0  0
   -3.7552   -0.5830    0.6888 H   0  0  0  0  0  0  0  0  0  0  0  0
    1.0076    2.0361    0.7912 H   0  0  0  0  0  0  0  0  0  0  0  0
    0.0999    0.7335   -1.5801 H   0  0  0  0  0  0  0  0  0  0  0  0
    1.5145   -0.2113    1.6687 H   0  0  0  0  0  0  0  0  0  0  0  0
    2.7440    0.0118   -0.8258 H   0  0  0  0  0  0  0  0  0  0  0  0
    0.9465   -1.1720   -1.2375 H   0  0  0  0  0  0  0  0  0  0  0  0
    0.0238   -1.6179    0.3164 H   0  0  0  0  0  0  0  0  0  0  0  0
    2.8347   -1.8718    0.1625 H   0  0  0  0  0  0  0  0  0  0  0  0
  1  2  1  0
  2  3  3  0
  3  4  1  0
  4  5  1  0
  4  6  1  0
  6  7  1  0
  6  8  1  0
  8  9  1  0
  1 10  1  0
  1 11  1  0
  1 12  1  0
  4 13  1  0
  5 14  1  0
  6 15  1  0
  7 16  1  0
  8 17  1  0
  8 18  1  0
  9 19  1  0
M  END
