
     RDKit          3D

 21 21  0  0  0  0  0  0  0  0999 V2000
    4.1436    1.5242   -1.1154 C   0  0  0  0  0  0  0  0  0  0  0  0
    2.8655    0.8463   -0.8548 C   0  0  0  0  0  0  0  0  0  0  0  0
    1.8110    0.2842   -0.6364 C   0  0  0  0  0  0  0  0  0  0  0  0
    0.5382   -0.3948   -0.3987 C   0  0  0  0  0  0  0  0  0  0  0  0
   -0.6152    0.5441   -0.6842 C   0  0  0  0  0  0  0  0  0  0  0  0
   -1.8981   -0.2360   -0.4136 C   0  0  0  0  0  0  0  0  0  0  0  0
   -1.8952   -0.6703    1.0167 C   0  0  0  0  0  0  0  0  0  0  0  0
   -3.0872   -1.4587    1.4769 C   0  0  0  0  0  0  0  0  0  0  0  0
   -1.8279   -2.0216    1.3452 O   0  0  0  0  0  0  0  0  0  0  0  0
    4.0851    2.1720   -2.0127 H   0  0  0  0  0  0  0  0  0  0  0  0
    4.5231    2.0455   -0.2176 H   0  0  0  0  0  0  0  0  0  0  0  0
    4.8760    0.6974   -1.3280 H   0  0  0  0  0  0  0  0  0  0  0  0
    0.5094   -0.6238    0.6946 H   0  0  0  0  0  0  0  0  0  0  0  0
    0.4540   -1.3393   -0.9676 H   0  0  0  0  0  0  0  0  0  0  0  0
   -0.5453    1.4156   -0.0026 H   0  0  0  0  0  0  0  0  0  0  0  0
   -0.5910    0.9393   -1.7160 H   0  0  0  0  0  0  0  0  0  0  0  0
   -2.7961    0.4067   -0.6045 H   0  0  0  0  0  0  0  0  0  0  0  0
   -1.8974   -1.1398   -1.0478 H   0  0  0  0  0  0  0  0  0  0  0  0
   -1.3621   -0.0199    1.7451 H   0  0  0  0  0  0  0  0  0  0  0  0
   -3.8059   -1.7691    0.6993 H   0  0  0  0  0  0  0  0  0  0  0  0
   -3.4844   -1.2020    2.4747 H   0  0  0  0  0  0  0  0  0  0  0  0
  1  2  1  0
  2  3  3  0
  3  4  1  0
  4  5  1  0
  5  6  1  0
  6  7  1  0
  7  8  1  0
  8  9  1  0
  9  7  1  0
  1 10  1  0
  1 11  1  0
  1 12  1  0
  4 13  1  0
  4 14  1  0
  5 15  1  0
  5 16  1  0
  6 17  1  0
  6 18  1  0
  7 19  1  0
  8 20  1  0
  8 21  1  0
M  END
