
     RDKit          3D

 25 24  0  0  0  0  0  0  0  0999 V2000
    4.6971   -0.7237    1.0877 C   0  0  0  0  0  0  0  0  0  0  0  0
    3.3886   -0.2165    0.6196 C   0  0  0  0  0  0  0  0  0  0  0  0
    2.3313    0.2024    0.2199 C   0  0  0  0  0  0  0  0  0  0  0  0
    1.0357    0.7012   -0.2461 C   0  0  0  0  0  0  0  0  0  0  0  0
    0.3108   -0.4025   -0.9975 C   0  0  0  0  0  0  0  0  0  0  0  0
   -1.0253    0.0390   -1.5046 C   0  0  0  0  0  0  0  0  0  0  0  0
   -1.9170    0.4660   -0.3634 C   0  0  0  0  0  0  0  0  0  0  0  0
   -2.1239   -0.6926    0.5963 C   0  0  0  0  0  0  0  0  0  0  0  0
   -3.2747    0.9166   -0.8436 C   0  0  0  0  0  0  0  0  0  0  0  0
    4.8365   -1.7905    0.8529 H   0  0  0  0  0  0  0  0  0  0  0  0
    5.5179   -0.1501    0.5750 H   0  0  0  0  0  0  0  0  0  0  0  0
    4.7334   -0.5829    2.1749 H   0  0  0  0  0  0  0  0  0  0  0  0
    1.1592    1.6077   -0.8833 H   0  0  0  0  0  0  0  0  0  0  0  0
    0.4756    1.0114    0.6714 H   0  0  0  0  0  0  0  0  0  0  0  0
    0.3023   -1.2904   -0.3653 H   0  0  0  0  0  0  0  0  0  0  0  0
    0.9696   -0.6442   -1.8743 H   0  0  0  0  0  0  0  0  0  0  0  0
   -1.5111   -0.8152   -2.0161 H   0  0  0  0  0  0  0  0  0  0  0  0
   -0.8742    0.8798   -2.1963 H   0  0  0  0  0  0  0  0  0  0  0  0
   -1.4801    1.3191    0.1933 H   0  0  0  0  0  0  0  0  0  0  0  0
   -1.7777   -0.4092    1.6105 H   0  0  0  0  0  0  0  0  0  0  0  0
   -1.6347   -1.5911    0.1940 H   0  0  0  0  0  0  0  0  0  0  0  0
   -3.2055   -0.9421    0.7034 H   0  0  0  0  0  0  0  0  0  0  0  0
   -3.3202    2.0171   -1.0233 H   0  0  0  0  0  0  0  0  0  0  0  0
   -3.6098    0.3995   -1.7543 H   0  0  0  0  0  0  0  0  0  0  0  0
   -4.0037    0.6915   -0.0474 H   0  0  0  0  0  0  0  0  0  0  0  0
  1  2  1  0
  2  3  3  0
  3  4  1  0
  4  5  1  0
  5  6  1  0
  6  7  1  0
  7  8  1  0
  7  9  1  0
  1 10  1  0
  1 11  1  0
  1 12  1  0
  4 13  1  0
  4 14  1  0
  5 15  1  0
  5 16  1  0
  6 17  1  0
  6 18  1  0
  7 19  1  0
  8 20  1  0
  8 21  1  0
  8 22  1  0
  9 23  1  0
  9 24  1  0
  9 25  1  0
M  END
