
     RDKit          3D

 23 23  0  0  0  0  0  0  0  0999 V2000
    4.1046    0.6802   -1.1023 C   0  0  0  0  0  0  0  0  0  0  0  0
    2.6526    0.7233   -0.9145 C   0  0  0  0  0  0  0  0  0  0  0  0
    1.4484    0.7435   -0.7726 C   0  0  0  0  0  0  0  0  0  0  0  0
   -0.0198    0.7536   -0.6211 C   0  0  0  0  0  0  0  0  0  0  0  0
   -0.3773   -0.4175    0.2604 C   0  0  0  0  0  0  0  0  0  0  0  0
    0.1004   -1.6706   -0.4278 C   0  0  0  0  0  0  0  0  0  0  0  0
   -1.8499   -0.5446    0.4968 C   0  0  0  0  0  0  0  0  0  0  0  0
   -2.6291    0.5451    1.1480 C   0  0  0  0  0  0  0  0  0  0  0  0
   -2.8481    0.2019   -0.2770 C   0  0  0  0  0  0  0  0  0  0  0  0
    4.5022    1.6328   -0.7106 H   0  0  0  0  0  0  0  0  0  0  0  0
    4.3333    0.6262   -2.1731 H   0  0  0  0  0  0  0  0  0  0  0  0
    4.5699   -0.2083   -0.6280 H   0  0  0  0  0  0  0  0  0  0  0  0
   -0.4364    0.6667   -1.6388 H   0  0  0  0  0  0  0  0  0  0  0  0
   -0.3343    1.7266   -0.1629 H   0  0  0  0  0  0  0  0  0  0  0  0
    0.1949   -0.2617    1.2225 H   0  0  0  0  0  0  0  0  0  0  0  0
    1.0788   -1.5161   -0.9121 H   0  0  0  0  0  0  0  0  0  0  0  0
   -0.6763   -1.9566   -1.1856 H   0  0  0  0  0  0  0  0  0  0  0  0
    0.1666   -2.5359    0.2857 H   0  0  0  0  0  0  0  0  0  0  0  0
   -2.1461   -1.5755    0.8507 H   0  0  0  0  0  0  0  0  0  0  0  0
   -2.1298    1.5144    1.3709 H   0  0  0  0  0  0  0  0  0  0  0  0
   -3.4523    0.2868    1.8574 H   0  0  0  0  0  0  0  0  0  0  0  0
   -3.7543   -0.3600   -0.6053 H   0  0  0  0  0  0  0  0  0  0  0  0
   -2.4981    0.9460   -1.0331 H   0  0  0  0  0  0  0  0  0  0  0  0
  1  2  1  0
  2  3  3  0
  3  4  1  0
  4  5  1  0
  5  6  1  0
  5  7  1  0
  7  8  1  0
  8  9  1  0
  9  7  1  0
  1 10  1  0
  1 11  1  0
  1 12  1  0
  4 13  1  0
  4 14  1  0
  5 15  1  0
  6 16  1  0
  6 17  1  0
  6 18  1  0
  7 19  1  0
  8 20  1  0
  8 21  1  0
  9 22  1  0
  9 23  1  0
M  END
