
     RDKit          3D

 19 19  0  0  0  0  0  0  0  0999 V2000
    4.1816    0.3657   -0.2939 C   0  0  0  0  0  0  0  0  0  0  0  0
    2.7532    0.0813   -0.1430 C   0  0  0  0  0  0  0  0  0  0  0  0
    1.5558   -0.1385   -0.0165 C   0  0  0  0  0  0  0  0  0  0  0  0
    0.1521   -0.4057    0.1332 C   0  0  0  0  0  0  0  0  0  0  0  0
   -0.7964    0.0239   -0.6651 C   0  0  0  0  0  0  0  0  0  0  0  0
   -2.0760   -0.4791   -0.1461 C   0  0  0  0  0  0  0  0  0  0  0  0
   -3.1887    0.5286   -0.2617 C   0  0  0  0  0  0  0  0  0  0  0  0
   -1.8206   -0.8556    1.1685 O   0  0  0  0  0  0  0  0  0  0  0  0
   -0.4723   -1.2048    1.2027 C   0  0  0  0  0  0  0  0  0  0  0  0
    4.5318    1.0691    0.5146 H   0  0  0  0  0  0  0  0  0  0  0  0
    4.3748    0.9425   -1.2458 H   0  0  0  0  0  0  0  0  0  0  0  0
    4.7248   -0.5816   -0.2553 H   0  0  0  0  0  0  0  0  0  0  0  0
   -0.7037    0.6448   -1.5643 H   0  0  0  0  0  0  0  0  0  0  0  0
   -2.3526   -1.3684   -0.7629 H   0  0  0  0  0  0  0  0  0  0  0  0
   -3.9004    0.2401   -1.0820 H   0  0  0  0  0  0  0  0  0  0  0  0
   -3.7185    0.5836    0.7146 H   0  0  0  0  0  0  0  0  0  0  0  0
   -2.7802    1.5401   -0.5043 H   0  0  0  0  0  0  0  0  0  0  0  0
   -0.0740   -0.9554    2.2147 H   0  0  0  0  0  0  0  0  0  0  0  0
   -0.3905   -2.2970    0.9925 H   0  0  0  0  0  0  0  0  0  0  0  0
  1  2  1  0
  2  3  3  0
  3  4  1  0
  4  5  2  0
  5  6  1  0
  6  7  1  0
  6  8  1  0
  8  9  1  0
  9  4  1  0
  1 10  1  0
  1 11  1  0
  1 12  1  0
  5 13  1  0
  6 14  1  0
  7 15  1  0
  7 16  1  0
  7 17  1  0
  9 18  1  0
  9 19  1  0
M  END
