
     RDKit          3D

 21 21  0  0  0  0  0  0  0  0999 V2000
    3.3340   -0.4576   -1.5129 C   0  0  0  0  0  0  0  0  0  0  0  0
    1.9647   -0.0908   -1.0941 C   0  0  0  0  0  0  0  0  0  0  0  0
    0.8404    0.1905   -0.7440 C   0  0  0  0  0  0  0  0  0  0  0  0
   -0.5145    0.5558   -0.3230 C   0  0  0  0  0  0  0  0  0  0  0  0
   -1.0536    1.5297   -1.1614 O   0  0  0  0  0  0  0  0  0  0  0  0
   -0.4937    1.1117    1.0677 C   0  0  0  0  0  0  0  0  0  0  0  0
   -0.9107   -0.0605    1.9282 C   0  0  0  0  0  0  0  0  0  0  0  0
   -2.0069   -0.6809    1.0618 C   0  0  0  0  0  0  0  0  0  0  0  0
   -1.3378   -0.7019   -0.3055 C   0  0  0  0  0  0  0  0  0  0  0  0
    3.5706   -0.0559   -2.5203 H   0  0  0  0  0  0  0  0  0  0  0  0
    3.4474   -1.5630   -1.5789 H   0  0  0  0  0  0  0  0  0  0  0  0
    4.0391   -0.0132   -0.7791 H   0  0  0  0  0  0  0  0  0  0  0  0
   -0.9011    1.2091   -2.0874 H   0  0  0  0  0  0  0  0  0  0  0  0
    0.5460    1.4414    1.2787 H   0  0  0  0  0  0  0  0  0  0  0  0
   -1.2415    1.9168    1.2192 H   0  0  0  0  0  0  0  0  0  0  0  0
   -0.0282   -0.7417    1.9849 H   0  0  0  0  0  0  0  0  0  0  0  0
   -1.2857    0.2555    2.9087 H   0  0  0  0  0  0  0  0  0  0  0  0
   -2.8222    0.0503    1.0158 H   0  0  0  0  0  0  0  0  0  0  0  0
   -2.2919   -1.6825    1.3990 H   0  0  0  0  0  0  0  0  0  0  0  0
   -2.1071   -0.5936   -1.1110 H   0  0  0  0  0  0  0  0  0  0  0  0
   -0.7474   -1.6190   -0.4440 H   0  0  0  0  0  0  0  0  0  0  0  0
  1  2  1  0
  2  3  3  0
  3  4  1  0
  4  5  1  0
  4  6  1  0
  6  7  1  0
  7  8  1  0
  8  9  1  0
  9  4  1  0
  1 10  1  0
  1 11  1  0
  1 12  1  0
  5 13  1  0
  6 14  1  0
  6 15  1  0
  7 16  1  0
  7 17  1  0
  8 18  1  0
  8 19  1  0
  9 20  1  0
  9 21  1  0
M  END
