
     RDKit          3D

 21 22  0  0  0  0  0  0  0  0999 V2000
    3.9288    0.3131   -0.3450 C   0  0  0  0  0  0  0  0  0  0  0  0
    2.4917    0.4764   -0.1090 C   0  0  0  0  0  0  0  0  0  0  0  0
    1.2971    0.6033    0.1067 C   0  0  0  0  0  0  0  0  0  0  0  0
   -0.1242    0.7460    0.3877 C   0  0  0  0  0  0  0  0  0  0  0  0
   -1.0271    0.5723   -0.7983 C   0  0  0  0  0  0  0  0  0  0  0  0
   -2.3961    0.6201   -0.1733 C   0  0  0  0  0  0  0  0  0  0  0  0
   -2.1302   -0.2675    1.0591 C   0  0  0  0  0  0  0  0  0  0  0  0
   -0.6938   -0.5963    0.8137 C   0  0  0  0  0  0  0  0  0  0  0  0
   -0.7081   -0.9240   -0.6861 C   0  0  0  0  0  0  0  0  0  0  0  0
    4.3968    1.2433   -0.7234 H   0  0  0  0  0  0  0  0  0  0  0  0
    4.1028   -0.5012   -1.0888 H   0  0  0  0  0  0  0  0  0  0  0  0
    4.3832    0.0613    0.6281 H   0  0  0  0  0  0  0  0  0  0  0  0
   -0.4134    1.6026    1.0102 H   0  0  0  0  0  0  0  0  0  0  0  0
   -0.8296    1.0589   -1.7126 H   0  0  0  0  0  0  0  0  0  0  0  0
   -3.1303    0.1645   -0.8410 H   0  0  0  0  0  0  0  0  0  0  0  0
   -2.6183    1.6401    0.1332 H   0  0  0  0  0  0  0  0  0  0  0  0
   -2.2680    0.3155    1.9892 H   0  0  0  0  0  0  0  0  0  0  0  0
   -2.8088   -1.1180    0.9853 H   0  0  0  0  0  0  0  0  0  0  0  0
   -0.1421   -1.2187    1.4569 H   0  0  0  0  0  0  0  0  0  0  0  0
   -1.5720   -1.5217   -0.9986 H   0  0  0  0  0  0  0  0  0  0  0  0
    0.2616   -1.2081   -1.0941 H   0  0  0  0  0  0  0  0  0  0  0  0
  1  2  1  0
  2  3  3  0
  3  4  1  0
  4  5  1  0
  5  6  1  0
  6  7  1  0
  7  8  1  0
  8  9  1  0
  8  4  1  0
  9  5  1  0
  1 10  1  0
  1 11  1  0
  1 12  1  0
  4 13  1  0
  5 14  1  0
  6 15  1  0
  6 16  1  0
  7 17  1  0
  7 18  1  0
  8 19  1  0
  9 20  1  0
  9 21  1  0
M  END
