
     RDKit          3D

 21 21  0  0  0  0  0  0  0  0999 V2000
    2.5695   -2.6538   -1.2595 C   0  0  0  0  0  0  0  0  0  0  0  0
    1.7497   -1.7228   -0.4833 C   0  0  0  0  0  0  0  0  0  0  0  0
    1.0529   -0.9594    0.1680 C   0  0  0  0  0  0  0  0  0  0  0  0
    0.2371   -0.0289    0.9541 C   0  0  0  0  0  0  0  0  0  0  0  0
    0.1657    1.4003    0.5405 C   0  0  0  0  0  0  0  0  0  0  0  0
    0.8984    1.8604   -0.6993 C   0  0  0  0  0  0  0  0  0  0  0  0
   -1.0087    0.4339    0.3241 C   0  0  0  0  0  0  0  0  0  0  0  0
   -2.1003    0.6384    1.1725 O   0  0  0  0  0  0  0  0  0  0  0  0
   -3.2989    0.4721    0.5084 C   0  0  0  0  0  0  0  0  0  0  0  0
    2.3845   -3.7180   -0.9299 H   0  0  0  0  0  0  0  0  0  0  0  0
    3.6452   -2.4710   -1.0788 H   0  0  0  0  0  0  0  0  0  0  0  0
    2.3235   -2.6122   -2.3403 H   0  0  0  0  0  0  0  0  0  0  0  0
    0.2208   -0.1974    2.0662 H   0  0  0  0  0  0  0  0  0  0  0  0
    0.0589    2.1719    1.3267 H   0  0  0  0  0  0  0  0  0  0  0  0
    1.9689    1.5366   -0.5819 H   0  0  0  0  0  0  0  0  0  0  0  0
    0.4876    1.3881   -1.6165 H   0  0  0  0  0  0  0  0  0  0  0  0
    0.8022    2.9451   -0.7896 H   0  0  0  0  0  0  0  0  0  0  0  0
   -1.2642    0.1751   -0.7296 H   0  0  0  0  0  0  0  0  0  0  0  0
   -4.1082    0.6551    1.2662 H   0  0  0  0  0  0  0  0  0  0  0  0
   -3.4398   -0.5551    0.1341 H   0  0  0  0  0  0  0  0  0  0  0  0
   -3.3449    1.2415   -0.2903 H   0  0  0  0  0  0  0  0  0  0  0  0
  1  2  1  0
  2  3  3  0
  3  4  1  0
  4  5  1  0
  5  6  1  0
  5  7  1  0
  7  8  1  0
  8  9  1  0
  7  4  1  0
  1 10  1  0
  1 11  1  0
  1 12  1  0
  4 13  1  0
  5 14  1  0
  6 15  1  0
  6 16  1  0
  6 17  1  0
  7 18  1  0
  9 19  1  0
  9 20  1  0
  9 21  1  0
M  END
