
     RDKit          3D

 21 20  0  0  0  0  0  0  0  0999 V2000
    3.2039    0.7928   -0.9231 C   0  0  0  0  0  0  0  0  0  0  0  0
    1.8108    0.4206   -0.6538 C   0  0  0  0  0  0  0  0  0  0  0  0
    0.6602    0.1311   -0.4279 C   0  0  0  0  0  0  0  0  0  0  0  0
   -0.7388   -0.2068   -0.1516 C   0  0  0  0  0  0  0  0  0  0  0  0
   -0.9294   -1.6959    0.0360 C   0  0  0  0  0  0  0  0  0  0  0  0
   -1.6315    0.2796   -1.3046 C   0  0  0  0  0  0  0  0  0  0  0  0
   -1.1196    0.5482    1.1035 C   0  0  0  0  0  0  0  0  0  0  0  0
   -0.3090    0.2022    2.2783 C   0  0  0  0  0  0  0  0  0  0  0  0
   -0.1468   -0.9541    2.5782 O   0  0  0  0  0  0  0  0  0  0  0  0
    3.8699   -0.1164   -1.0096 H   0  0  0  0  0  0  0  0  0  0  0  0
    3.5446    1.4136   -0.0788 H   0  0  0  0  0  0  0  0  0  0  0  0
    3.2837    1.3136   -1.9176 H   0  0  0  0  0  0  0  0  0  0  0  0
   -0.0532   -2.1557    0.5495 H   0  0  0  0  0  0  0  0  0  0  0  0
   -1.8720   -1.9173    0.5894 H   0  0  0  0  0  0  0  0  0  0  0  0
   -1.0074   -2.2115   -0.9550 H   0  0  0  0  0  0  0  0  0  0  0  0
   -1.8904   -0.6233   -1.8645 H   0  0  0  0  0  0  0  0  0  0  0  0
   -1.0150    0.9618   -1.9215 H   0  0  0  0  0  0  0  0  0  0  0  0
   -2.4981    0.8441   -0.9095 H   0  0  0  0  0  0  0  0  0  0  0  0
   -1.0691    1.6414    0.8776 H   0  0  0  0  0  0  0  0  0  0  0  0
   -2.2281    0.3536    1.2417 H   0  0  0  0  0  0  0  0  0  0  0  0
    0.1354    0.9786    2.8635 H   0  0  0  0  0  0  0  0  0  0  0  0
  1  2  1  0
  2  3  3  0
  3  4  1  0
  4  5  1  0
  4  6  1  0
  4  7  1  0
  7  8  1  0
  8  9  2  0
  1 10  1  0
  1 11  1  0
  1 12  1  0
  5 13  1  0
  5 14  1  0
  5 15  1  0
  6 16  1  0
  6 17  1  0
  6 18  1  0
  7 19  1  0
  7 20  1  0
  8 21  1  0
M  END
