
     RDKit          3D

 12 11  0  0  0  0  0  0  0  0999 V2000
   -2.4870    0.5374   -0.1599 C   0  0  0  0  0  0  0  0  0  0  0  0
   -1.1285    0.0701    0.1073 C   0  0  0  0  0  0  0  0  0  0  0  0
   -0.0087   -0.3231    0.3462 C   0  0  0  0  0  0  0  0  0  0  0  0
    1.3461   -0.7986    0.6206 C   0  0  0  0  0  0  0  0  0  0  0  0
    2.3297    0.2441    0.2173 C   0  0  0  0  0  0  0  0  0  0  0  0
    3.5310    0.0616    0.3569 O   0  0  0  0  0  0  0  0  0  0  0  0
   -2.6759    0.3191   -1.2488 H   0  0  0  0  0  0  0  0  0  0  0  0
   -2.6287    1.5978    0.0862 H   0  0  0  0  0  0  0  0  0  0  0  0
   -3.2110   -0.1003    0.3942 H   0  0  0  0  0  0  0  0  0  0  0  0
    1.4745   -1.7341    0.0377 H   0  0  0  0  0  0  0  0  0  0  0  0
    1.4921   -1.0271    1.7038 H   0  0  0  0  0  0  0  0  0  0  0  0
    1.9664    1.1530   -0.1956 H   0  0  0  0  0  0  0  0  0  0  0  0
  1  2  1  0
  2  3  3  0
  3  4  1  0
  4  5  1  0
  5  6  2  0
  1  7  1  0
  1  8  1  0
  1  9  1  0
  4 10  1  0
  4 11  1  0
  5 12  1  0
M  END
