
     RDKit          3D

 17 17  0  0  0  0  0  0  0  0999 V2000
    2.8399    1.2870   -0.8857 C   0  0  0  0  0  0  0  0  0  0  0  0
    1.5827    0.7030   -0.3924 C   0  0  0  0  0  0  0  0  0  0  0  0
    0.5466    0.2200   -0.0074 C   0  0  0  0  0  0  0  0  0  0  0  0
   -0.7230   -0.3667    0.4847 C   0  0  0  0  0  0  0  0  0  0  0  0
   -1.8096    0.5117    0.7135 O   0  0  0  0  0  0  0  0  0  0  0  0
   -2.2744    1.2424   -0.3724 C   0  0  0  0  0  0  0  0  0  0  0  0
   -1.7551    1.1294   -1.5047 O   0  0  0  0  0  0  0  0  0  0  0  0
   -0.9972   -1.7310    0.0491 C   0  0  0  0  0  0  0  0  0  0  0  0
   -0.5604   -1.4677    1.4616 C   0  0  0  0  0  0  0  0  0  0  0  0
    3.6007    0.5108   -1.0903 H   0  0  0  0  0  0  0  0  0  0  0  0
    2.5876    1.8974   -1.7842 H   0  0  0  0  0  0  0  0  0  0  0  0
    3.2973    1.9605   -0.1090 H   0  0  0  0  0  0  0  0  0  0  0  0
   -3.1073    1.9427   -0.2870 H   0  0  0  0  0  0  0  0  0  0  0  0
   -0.3304   -2.3221   -0.6092 H   0  0  0  0  0  0  0  0  0  0  0  0
   -2.0622   -2.0775   -0.0294 H   0  0  0  0  0  0  0  0  0  0  0  0
   -1.2867   -1.5970    2.2991 H   0  0  0  0  0  0  0  0  0  0  0  0
    0.4516   -1.8430    1.7074 H   0  0  0  0  0  0  0  0  0  0  0  0
  1  2  1  0
  2  3  3  0
  3  4  1  0
  4  5  1  0
  5  6  1  0
  6  7  2  0
  4  8  1  0
  8  9  1  0
  9  4  1  0
  1 10  1  0
  1 11  1  0
  1 12  1  0
  6 13  1  0
  8 14  1  0
  8 15  1  0
  9 16  1  0
  9 17  1  0
M  END
