
     RDKit          3D

 21 22  0  0  0  0  0  0  0  0999 V2000
    3.5392   -0.9743   -1.2231 C   0  0  0  0  0  0  0  0  0  0  0  0
    2.2412   -0.4227   -0.8346 C   0  0  0  0  0  0  0  0  0  0  0  0
    1.1794    0.0448   -0.5011 C   0  0  0  0  0  0  0  0  0  0  0  0
   -0.1366    0.5996   -0.0771 C   0  0  0  0  0  0  0  0  0  0  0  0
   -0.1988    2.1006   -0.4251 C   0  0  0  0  0  0  0  0  0  0  0  0
   -1.3276   -0.1299   -0.2984 C   0  0  0  0  0  0  0  0  0  0  0  0
   -2.5439   -0.2619    0.6329 C   0  0  0  0  0  0  0  0  0  0  0  0
   -1.5137   -1.1749    1.3425 C   0  0  0  0  0  0  0  0  0  0  0  0
   -0.6715    0.0944    1.1328 C   0  0  0  0  0  0  0  0  0  0  0  0
    4.2731   -0.9283   -0.3808 H   0  0  0  0  0  0  0  0  0  0  0  0
    3.3834   -2.0578   -1.4469 H   0  0  0  0  0  0  0  0  0  0  0  0
    3.9640   -0.4307   -2.0918 H   0  0  0  0  0  0  0  0  0  0  0  0
   -0.8941    2.5317    0.3500 H   0  0  0  0  0  0  0  0  0  0  0  0
    0.7808    2.5701   -0.3076 H   0  0  0  0  0  0  0  0  0  0  0  0
   -0.6334    2.2653   -1.4159 H   0  0  0  0  0  0  0  0  0  0  0  0
   -1.1580   -1.1773   -0.7102 H   0  0  0  0  0  0  0  0  0  0  0  0
   -2.7647    0.6336    1.2124 H   0  0  0  0  0  0  0  0  0  0  0  0
   -3.3707   -0.7904    0.1739 H   0  0  0  0  0  0  0  0  0  0  0  0
   -1.2119   -2.0297    0.7325 H   0  0  0  0  0  0  0  0  0  0  0  0
   -1.7416   -1.3596    2.3884 H   0  0  0  0  0  0  0  0  0  0  0  0
   -1.1948    0.8974    1.7474 H   0  0  0  0  0  0  0  0  0  0  0  0
  1  2  1  0
  2  3  3  0
  3  4  1  0
  4  5  1  0
  4  6  1  0
  6  7  1  0
  7  8  1  0
  8  9  1  0
  9  4  1  0
  9  6  1  0
  1 10  1  0
  1 11  1  0
  1 12  1  0
  5 13  1  0
  5 14  1  0
  5 15  1  0
  6 16  1  0
  7 17  1  0
  7 18  1  0
  8 19  1  0
  8 20  1  0
  9 21  1  0
M  END
