
     RDKit          3D

 18 18  0  0  0  0  0  0  0  0999 V2000
    3.2473    0.8514   -0.4310 C   0  0  0  0  0  0  0  0  0  0  0  0
    1.8687    0.4177   -0.2194 C   0  0  0  0  0  0  0  0  0  0  0  0
    0.7240    0.0793   -0.0415 C   0  0  0  0  0  0  0  0  0  0  0  0
   -0.6636   -0.3407    0.1616 C   0  0  0  0  0  0  0  0  0  0  0  0
   -0.7186   -1.8458    0.2876 C   0  0  0  0  0  0  0  0  0  0  0  0
   -1.6115    0.1191   -0.9203 C   0  0  0  0  0  0  0  0  0  0  0  0
   -2.0518    1.0856    0.1381 C   0  0  0  0  0  0  0  0  0  0  0  0
   -1.3414    0.3693    1.1273 O   0  0  0  0  0  0  0  0  0  0  0  0
    3.4887    1.7339    0.2014 H   0  0  0  0  0  0  0  0  0  0  0  0
    3.9335    0.0272   -0.1743 H   0  0  0  0  0  0  0  0  0  0  0  0
    3.4488    1.1084   -1.5039 H   0  0  0  0  0  0  0  0  0  0  0  0
   -1.7313   -2.2176    0.4765 H   0  0  0  0  0  0  0  0  0  0  0  0
   -0.3319   -2.2757   -0.6735 H   0  0  0  0  0  0  0  0  0  0  0  0
    0.0123   -2.2128    1.0638 H   0  0  0  0  0  0  0  0  0  0  0  0
   -1.0614    0.5558   -1.7756 H   0  0  0  0  0  0  0  0  0  0  0  0
   -2.3894   -0.6086   -1.2128 H   0  0  0  0  0  0  0  0  0  0  0  0
   -1.6771    2.1246    0.0144 H   0  0  0  0  0  0  0  0  0  0  0  0
   -3.1452    1.0290    0.2912 H   0  0  0  0  0  0  0  0  0  0  0  0
  1  2  1  0
  2  3  3  0
  3  4  1  0
  4  5  1  0
  4  6  1  0
  6  7  1  0
  7  8  1  0
  8  4  1  0
  1  9  1  0
  1 10  1  0
  1 11  1  0
  5 12  1  0
  5 13  1  0
  5 14  1  0
  6 15  1  0
  6 16  1  0
  7 17  1  0
  7 18  1  0
M  END
