
     RDKit          3D

 17 17  0  0  0  0  0  0  0  0999 V2000
    2.8697   -0.6529   -1.8502 C   0  0  0  0  0  0  0  0  0  0  0  0
    2.0730   -0.1368   -1.2056 C   0  0  0  0  0  0  0  0  0  0  0  0
    1.2071    0.4374   -0.4923 C   0  0  0  0  0  0  0  0  0  0  0  0
    0.1538    1.1518    0.4104 C   0  0  0  0  0  0  0  0  0  0  0  0
   -0.8913    0.0623    0.9132 C   0  0  0  0  0  0  0  0  0  0  0  0
   -1.7706   -0.8333    1.3148 C   0  0  0  0  0  0  0  0  0  0  0  0
   -2.7307   -1.8233    1.7348 C   0  0  0  0  0  0  0  0  0  0  0  0
   -0.2754    2.4535    0.3969 C   0  0  0  0  0  0  0  0  0  0  0  0
   -0.7695    1.6485   -0.6600 O   0  0  0  0  0  0  0  0  0  0  0  0
    3.8112    0.1300   -2.0992 H   0  0  0  0  0  0  0  0  0  0  0  0
    2.6337   -0.6985   -3.0975 H   0  0  0  0  0  0  0  0  0  0  0  0
    3.4241   -1.6236   -1.7686 H   0  0  0  0  0  0  0  0  0  0  0  0
   -2.2482   -2.8293    1.5150 H   0  0  0  0  0  0  0  0  0  0  0  0
   -3.0279   -1.7327    2.7736 H   0  0  0  0  0  0  0  0  0  0  0  0
   -3.5993   -1.7268    0.9749 H   0  0  0  0  0  0  0  0  0  0  0  0
   -1.1482    2.8435    1.0704 H   0  0  0  0  0  0  0  0  0  0  0  0
    0.2886    3.3302    0.0695 H   0  0  0  0  0  0  0  0  0  0  0  0
  1  2  1  0
  2  3  3  0
  3  4  1  0
  4  5  1  0
  5  6  3  0
  6  7  1  0
  4  8  1  0
  8  9  1  0
  9  4  1  0
  1 10  1  0
  1 11  1  0
  1 12  1  0
  7 13  1  0
  7 14  1  0
  7 15  1  0
  8 16  1  0
  8 17  1  0
M  END
