
     RDKit          3D

 17 16  0  0  0  0  0  0  0  0999 V2000
    3.0945    0.7363   -0.6790 C   0  0  0  0  0  0  0  0  0  0  0  0
    1.7141    0.2653   -0.5428 C   0  0  0  0  0  0  0  0  0  0  0  0
    0.5785   -0.1298   -0.4498 C   0  0  0  0  0  0  0  0  0  0  0  0
   -0.8266   -0.5926   -0.3361 C   0  0  0  0  0  0  0  0  0  0  0  0
   -1.1922   -1.0893   -1.5604 O   0  0  0  0  0  0  0  0  0  0  0  0
   -0.9791   -1.5935    0.7439 C   0  0  0  0  0  0  0  0  0  0  0  0
   -0.7141   -1.3675    1.8987 O   0  0  0  0  0  0  0  0  0  0  0  0
   -1.6459    0.6327   -0.0194 C   0  0  0  0  0  0  0  0  0  0  0  0
   -1.3466    1.2010    1.1943 O   0  0  0  0  0  0  0  0  0  0  0  0
    3.3873    0.9016   -1.7355 H   0  0  0  0  0  0  0  0  0  0  0  0
    3.8298   -0.0041   -0.2746 H   0  0  0  0  0  0  0  0  0  0  0  0
    3.1890    1.6325   -0.0472 H   0  0  0  0  0  0  0  0  0  0  0  0
   -1.8155   -1.8527   -1.5069 H   0  0  0  0  0  0  0  0  0  0  0  0
   -1.3453   -2.5671    0.4728 H   0  0  0  0  0  0  0  0  0  0  0  0
   -1.5707    1.3749   -0.8356 H   0  0  0  0  0  0  0  0  0  0  0  0
   -2.7073    0.3030    0.0048 H   0  0  0  0  0  0  0  0  0  0  0  0
   -1.6499    2.1493    1.1710 H   0  0  0  0  0  0  0  0  0  0  0  0
  1  2  1  0
  2  3  3  0
  3  4  1  0
  4  5  1  0
  4  6  1  0
  6  7  2  0
  4  8  1  0
  8  9  1  0
  1 10  1  0
  1 11  1  0
  1 12  1  0
  5 13  1  0
  6 14  1  0
  8 15  1  0
  8 16  1  0
  9 17  1  0
M  END
