
     RDKit          3D

 19 18  0  0  0  0  0  0  0  0999 V2000
    4.0735    0.2513    0.5804 C   0  0  0  0  0  0  0  0  0  0  0  0
    2.3277   -0.0930    0.1400 C   0  0  0  0  0  0  0  0  0  0  0  0
    0.3733   -0.4985   -0.3237 C   0  0  0  0  0  0  0  0  0  0  0  0
   -0.4113   -0.6736   -0.5023 C   0  0  0  0  0  0  0  0  0  0  0  0
   -1.0390   -0.6203    1.1063 C   0  0  0  0  0  0  0  0  0  0  0  0
   -1.1779   -1.5647   -1.1235 O   0  0  0  0  0  0  0  0  0  0  0  0
   -0.7242    0.9394   -1.0395 C   0  0  0  0  0  0  0  0  0  0  0  0
   -2.3057    0.9253   -0.6927 C   0  0  0  0  0  0  0  0  0  0  0  0
   -0.0496    1.5570   -1.4114 O   0  0  0  0  0  0  0  0  0  0  0  0
    3.5613    1.3817    0.4922 H   0  0  0  0  0  0  0  0  0  0  0  0
    3.5743   -0.0145    1.5978 H   0  0  0  0  0  0  0  0  0  0  0  0
    4.2980   -0.3288   -0.1199 H   0  0  0  0  0  0  0  0  0  0  0  0
   -0.2303   -0.1574    1.7710 H   0  0  0  0  0  0  0  0  0  0  0  0
   -1.8096    0.0286    1.0397 H   0  0  0  0  0  0  0  0  0  0  0  0
   -1.1914   -1.6501    1.3522 H   0  0  0  0  0  0  0  0  0  0  0  0
   -1.4474   -2.3563   -0.6145 H   0  0  0  0  0  0  0  0  0  0  0  0
   -2.6542    1.5068   -1.6286 H   0  0  0  0  0  0  0  0  0  0  0  0
   -2.4867    1.4470    0.2229 H   0  0  0  0  0  0  0  0  0  0  0  0
   -2.6809   -0.0797   -0.8465 H   0  0  0  0  0  0  0  0  0  0  0  0
  1  2  1  0
  2  3  3  0
  3  4  1  0
  4  5  1  0
  4  6  1  0
  4  7  1  0
  7  8  1  0
  7  9  2  0
  1 10  1  0
  1 11  1  0
  1 12  1  0
  5 13  1  0
  5 14  1  0
  5 15  1  0
  6 16  1  0
  8 17  1  0
  8 18  1  0
  8 19  1  0
M  END
