
     RDKit          3D

 21 22  0  0  0  0  0  0  0  0999 V2000
    3.6310    0.4661    1.4188 C   0  0  0  0  0  0  0  0  0  0  0  0
    2.4030   -0.1136    0.8275 C   0  0  0  0  0  0  0  0  0  0  0  0
    1.4092   -0.5820    0.3263 C   0  0  0  0  0  0  0  0  0  0  0  0
    0.2190   -1.1399   -0.3011 C   0  0  0  0  0  0  0  0  0  0  0  0
   -1.0064   -0.9149    0.5221 C   0  0  0  0  0  0  0  0  0  0  0  0
   -1.7519   -1.0544   -0.7867 C   0  0  0  0  0  0  0  0  0  0  0  0
   -0.5915   -0.1664   -1.1226 C   0  0  0  0  0  0  0  0  0  0  0  0
   -0.8824    0.5396    0.1684 C   0  0  0  0  0  0  0  0  0  0  0  0
   -2.1723    1.3028    0.1049 C   0  0  0  0  0  0  0  0  0  0  0  0
    3.7738    0.1361    2.4531 H   0  0  0  0  0  0  0  0  0  0  0  0
    3.5475    1.5590    1.2958 H   0  0  0  0  0  0  0  0  0  0  0  0
    4.5391    0.1356    0.8389 H   0  0  0  0  0  0  0  0  0  0  0  0
    0.3262   -2.1054   -0.7992 H   0  0  0  0  0  0  0  0  0  0  0  0
   -1.2583   -1.3167    1.3987 H   0  0  0  0  0  0  0  0  0  0  0  0
   -1.6120   -2.0557   -1.2370 H   0  0  0  0  0  0  0  0  0  0  0  0
   -2.7480   -0.6204   -0.8121 H   0  0  0  0  0  0  0  0  0  0  0  0
   -0.3478    0.2284   -2.0045 H   0  0  0  0  0  0  0  0  0  0  0  0
   -0.0134    1.0695    0.5901 H   0  0  0  0  0  0  0  0  0  0  0  0
   -1.9516    2.3517    0.4418 H   0  0  0  0  0  0  0  0  0  0  0  0
   -2.5591    1.4113   -0.9337 H   0  0  0  0  0  0  0  0  0  0  0  0
   -2.9540    0.8693    0.7730 H   0  0  0  0  0  0  0  0  0  0  0  0
  1  2  1  0
  2  3  3  0
  3  4  1  0
  4  5  1  0
  5  6  1  0
  6  7  1  0
  7  8  1  0
  8  9  1  0
  7  4  1  0
  8  5  1  0
  1 10  1  0
  1 11  1  0
  1 12  1  0
  4 13  1  0
  5 14  1  0
  6 15  1  0
  6 16  1  0
  7 17  1  0
  8 18  1  0
  9 19  1  0
  9 20  1  0
  9 21  1  0
M  END
