
     RDKit          3D

 14 13  0  0  0  0  0  0  0  0999 V2000
    3.3700   -0.7133   -0.4544 C   0  0  0  0  0  0  0  0  0  0  0  0
    1.9593   -0.4771   -0.1166 C   0  0  0  0  0  0  0  0  0  0  0  0
    0.7946   -0.2616    0.1575 C   0  0  0  0  0  0  0  0  0  0  0  0
   -0.5765   -0.0148    0.5025 C   0  0  0  0  0  0  0  0  0  0  0  0
   -0.8747   -0.2204    1.7255 O   0  0  0  0  0  0  0  0  0  0  0  0
   -1.5663    0.4376   -0.4626 C   0  0  0  0  0  0  0  0  0  0  0  0
   -2.9637    0.6882   -0.1066 C   0  0  0  0  0  0  0  0  0  0  0  0
   -1.2005    0.6185   -1.6477 O   0  0  0  0  0  0  0  0  0  0  0  0
    3.9904   -0.6990    0.4663 H   0  0  0  0  0  0  0  0  0  0  0  0
    3.4294   -1.7068   -0.9540 H   0  0  0  0  0  0  0  0  0  0  0  0
    3.6800    0.0670   -1.1902 H   0  0  0  0  0  0  0  0  0  0  0  0
   -3.2279    0.4356    0.9199 H   0  0  0  0  0  0  0  0  0  0  0  0
   -3.6215    0.0918   -0.7985 H   0  0  0  0  0  0  0  0  0  0  0  0
   -3.1926    1.7544   -0.3475 H   0  0  0  0  0  0  0  0  0  0  0  0
  1  2  1  0
  2  3  3  0
  3  4  1  0
  4  5  2  0
  4  6  1  0
  6  7  1  0
  6  8  2  0
  1  9  1  0
  1 10  1  0
  1 11  1  0
  7 12  1  0
  7 13  1  0
  7 14  1  0
M  END
