
     RDKit          3D

 18 18  0  0  0  0  0  0  0  0999 V2000
    3.9167   -0.3880   -0.4715 C   0  0  0  0  0  0  0  0  0  0  0  0
    2.4601   -0.1984   -0.3660 C   0  0  0  0  0  0  0  0  0  0  0  0
    1.2632   -0.0256   -0.2663 C   0  0  0  0  0  0  0  0  0  0  0  0
   -0.1544    0.1897   -0.1520 C   0  0  0  0  0  0  0  0  0  0  0  0
   -0.9272    1.0863   -0.7200 C   0  0  0  0  0  0  0  0  0  0  0  0
   -2.3475    0.9392   -0.3118 C   0  0  0  0  0  0  0  0  0  0  0  0
   -2.4262   -0.4621    0.2147 C   0  0  0  0  0  0  0  0  0  0  0  0
   -1.0174   -0.6776    0.7231 C   0  0  0  0  0  0  0  0  0  0  0  0
    4.1357   -0.6713   -1.5147 H   0  0  0  0  0  0  0  0  0  0  0  0
    4.1702   -1.2148    0.2474 H   0  0  0  0  0  0  0  0  0  0  0  0
    4.4561    0.5474   -0.2284 H   0  0  0  0  0  0  0  0  0  0  0  0
   -0.5657    1.8412   -1.4043 H   0  0  0  0  0  0  0  0  0  0  0  0
   -3.0383    1.1268   -1.1564 H   0  0  0  0  0  0  0  0  0  0  0  0
   -2.5310    1.6683    0.5120 H   0  0  0  0  0  0  0  0  0  0  0  0
   -2.6209   -1.1938   -0.6085 H   0  0  0  0  0  0  0  0  0  0  0  0
   -3.1349   -0.5819    1.0516 H   0  0  0  0  0  0  0  0  0  0  0  0
   -0.7013   -1.7341    0.6916 H   0  0  0  0  0  0  0  0  0  0  0  0
   -0.9372   -0.2511    1.7432 H   0  0  0  0  0  0  0  0  0  0  0  0
  1  2  1  0
  2  3  3  0
  3  4  1  0
  4  5  2  0
  5  6  1  0
  6  7  1  0
  7  8  1  0
  8  4  1  0
  1  9  1  0
  1 10  1  0
  1 11  1  0
  5 12  1  0
  6 13  1  0
  6 14  1  0
  7 15  1  0
  7 16  1  0
  8 17  1  0
  8 18  1  0
M  END
