
     RDKit          3D

 20 19  0  0  0  0  0  0  0  0999 V2000
    2.7072    2.3921    1.3748 C   0  0  0  0  0  0  0  0  0  0  0  0
    1.7989    1.3125    1.0663 C   0  0  0  0  0  0  0  0  0  0  0  0
    1.0212    0.3617    0.7873 C   0  0  0  0  0  0  0  0  0  0  0  0
    0.1204   -0.7204    0.4901 C   0  0  0  0  0  0  0  0  0  0  0  0
    0.8157   -2.0343    0.5138 C   0  0  0  0  0  0  0  0  0  0  0  0
   -0.5700   -0.4560   -0.6544 O   0  0  0  0  0  0  0  0  0  0  0  0
   -1.9327   -0.3828   -0.5554 C   0  0  0  0  0  0  0  0  0  0  0  0
   -2.4725   -0.0015   -1.9123 C   0  0  0  0  0  0  0  0  0  0  0  0
    3.7434    2.1122    1.0740 H   0  0  0  0  0  0  0  0  0  0  0  0
    2.3498    3.2828    0.7830 H   0  0  0  0  0  0  0  0  0  0  0  0
    2.6550    2.7172    2.4347 H   0  0  0  0  0  0  0  0  0  0  0  0
   -0.6382   -0.7719    1.3311 H   0  0  0  0  0  0  0  0  0  0  0  0
    0.2703   -2.8273   -0.0514 H   0  0  0  0  0  0  0  0  0  0  0  0
    1.8791   -1.9825    0.1772 H   0  0  0  0  0  0  0  0  0  0  0  0
    0.8599   -2.3930    1.5690 H   0  0  0  0  0  0  0  0  0  0  0  0
   -2.3382    0.3280    0.1878 H   0  0  0  0  0  0  0  0  0  0  0  0
   -2.4103   -1.3578   -0.3114 H   0  0  0  0  0  0  0  0  0  0  0  0
   -3.5318   -0.3146   -1.9545 H   0  0  0  0  0  0  0  0  0  0  0  0
   -2.4860    1.1292   -1.9413 H   0  0  0  0  0  0  0  0  0  0  0  0
   -1.8415   -0.3937   -2.7393 H   0  0  0  0  0  0  0  0  0  0  0  0
  1  2  1  0
  2  3  3  0
  3  4  1  0
  4  5  1  0
  4  6  1  0
  6  7  1  0
  7  8  1  0
  1  9  1  0
  1 10  1  0
  1 11  1  0
  4 12  1  0
  5 13  1  0
  5 14  1  0
  5 15  1  0
  7 16  1  0
  7 17  1  0
  8 18  1  0
  8 19  1  0
  8 20  1  0
M  END
