
     RDKit          3D

 19 20  0  0  0  0  0  0  0  0999 V2000
    1.4824    1.4698   -2.4964 C   0  0  0  0  0  0  0  0  0  0  0  0
    1.1400    1.0521   -1.2184 C   0  0  0  0  0  0  0  0  0  0  0  0
    0.7977    0.6242    0.0202 C   0  0  0  0  0  0  0  0  0  0  0  0
    0.3949    0.1606    1.3832 C   0  0  0  0  0  0  0  0  0  0  0  0
   -0.9079    0.8080    1.7985 C   0  0  0  0  0  0  0  0  0  0  0  0
   -1.7255   -0.0747    0.9275 C   0  0  0  0  0  0  0  0  0  0  0  0
   -1.4309   -0.2552   -0.3793 O   0  0  0  0  0  0  0  0  0  0  0  0
   -0.7516   -1.0090    0.6592 C   0  0  0  0  0  0  0  0  0  0  0  0
   -0.0592   -2.1407    0.1737 C   0  0  0  0  0  0  0  0  0  0  0  0
    0.7399    2.4498   -2.6493 H   0  0  0  0  0  0  0  0  0  0  0  0
    1.1501    0.8519   -3.3105 H   0  0  0  0  0  0  0  0  0  0  0  0
    2.4456    1.9708   -2.5100 H   0  0  0  0  0  0  0  0  0  0  0  0
    0.9342   -0.4956    1.9088 H   0  0  0  0  0  0  0  0  0  0  0  0
   -0.9828    1.8871    1.6107 H   0  0  0  0  0  0  0  0  0  0  0  0
   -1.0050    0.5486    2.9142 H   0  0  0  0  0  0  0  0  0  0  0  0
   -2.7635   -0.3969    1.2890 H   0  0  0  0  0  0  0  0  0  0  0  0
   -0.2199   -3.1087    0.7213 H   0  0  0  0  0  0  0  0  0  0  0  0
   -0.3062   -2.3668   -0.9264 H   0  0  0  0  0  0  0  0  0  0  0  0
    1.0678   -1.9753    0.0841 H   0  0  0  0  0  0  0  0  0  0  0  0
  1  2  1  0
  2  3  3  0
  3  4  1  0
  4  5  1  0
  5  6  1  0
  6  7  1  0
  7  8  1  0
  8  9  1  0
  8  4  1  0
  8  6  1  0
  1 10  1  0
  1 11  1  0
  1 12  1  0
  4 13  1  0
  5 14  1  0
  5 15  1  0
  6 16  1  0
  9 17  1  0
  9 18  1  0
  9 19  1  0
M  END
