
     RDKit          3D

 19 18  0  0  0  0  0  0  0  0999 V2000
   -2.8007   -0.9327   -2.4789 C   0  0  0  0  0  0  0  0  0  0  0  0
   -1.9863   -1.3509   -1.3701 C   0  0  0  0  0  0  0  0  0  0  0  0
   -1.2046   -1.7708   -0.3025 C   0  0  0  0  0  0  0  0  0  0  0  0
   -0.4538   -2.1801    0.7472 C   0  0  0  0  0  0  0  0  0  0  0  0
   -0.1042   -1.1079    1.6470 O   0  0  0  0  0  0  0  0  0  0  0  0
    0.2817    0.0416    0.8964 C   0  0  0  0  0  0  0  0  0  0  0  0
    1.1188    0.8859    1.1862 C   0  0  0  0  0  0  0  0  0  0  0  0
    2.0289    1.8342    1.4953 C   0  0  0  0  0  0  0  0  0  0  0  0
    3.0533    2.8694    1.8419 C   0  0  0  0  0  0  0  0  0  0  0  0
   -3.8465   -0.9483   -2.1254 H   0  0  0  0  0  0  0  0  0  0  0  0
   -2.6885   -1.7646   -3.3219 H   0  0  0  0  0  0  0  0  0  0  0  0
   -2.4341   -0.0175   -2.9493 H   0  0  0  0  0  0  0  0  0  0  0  0
   -0.6860   -3.1019    1.2203 H   0  0  0  0  0  0  0  0  0  0  0  0
    0.6798   -2.3366    0.3392 H   0  0  0  0  0  0  0  0  0  0  0  0
   -0.3769    0.1047   -0.0549 H   0  0  0  0  0  0  0  0  0  0  0  0
   -0.8102    0.7145    1.5389 H   0  0  0  0  0  0  0  0  0  0  0  0
    3.4957    2.7390    2.8066 H   0  0  0  0  0  0  0  0  0  0  0  0
    2.7823    3.8164    1.4678 H   0  0  0  0  0  0  0  0  0  0  0  0
    3.9513    2.5055    1.1142 H   0  0  0  0  0  0  0  0  0  0  0  0
  1  2  1  0
  2  3  3  0
  3  4  1  0
  4  5  1  0
  5  6  1  0
  6  7  1  0
  7  8  3  0
  8  9  1  0
  1 10  1  0
  1 11  1  0
  1 12  1  0
  4 13  1  0
  4 14  1  0
  6 15  1  0
  6 16  1  0
  9 17  1  0
  9 18  1  0
  9 19  1  0
M  END
