
     RDKit          3D

 19 18  0  0  0  0  0  0  0  0999 V2000
   -3.5272    3.0906    1.3609 C   0  0  0  0  0  0  0  0  0  0  0  0
   -2.5668    2.0944    0.8943 C   0  0  0  0  0  0  0  0  0  0  0  0
   -1.7736    1.2625    0.5252 C   0  0  0  0  0  0  0  0  0  0  0  0
   -0.8372    0.2462    0.0733 C   0  0  0  0  0  0  0  0  0  0  0  0
   -0.8169   -0.1136   -1.1146 O   0  0  0  0  0  0  0  0  0  0  0  0
    0.0605   -0.3572    0.9331 O   0  0  0  0  0  0  0  0  0  0  0  0
    0.9625   -1.3279    0.5250 C   0  0  0  0  0  0  0  0  0  0  0  0
    1.9300   -0.8964   -0.5323 C   0  0  0  0  0  0  0  0  0  0  0  0
    2.8212   -2.1140   -0.8264 C   0  0  0  0  0  0  0  0  0  0  0  0
   -3.1919    3.5361    2.3292 H   0  0  0  0  0  0  0  0  0  0  0  0
   -3.5783    3.8705    0.5515 H   0  0  0  0  0  0  0  0  0  0  0  0
   -4.5595    2.6621    1.4598 H   0  0  0  0  0  0  0  0  0  0  0  0
    0.3710   -2.1824    0.0830 H   0  0  0  0  0  0  0  0  0  0  0  0
    1.5050   -1.7746    1.3814 H   0  0  0  0  0  0  0  0  0  0  0  0
    2.6274   -0.1075   -0.1940 H   0  0  0  0  0  0  0  0  0  0  0  0
    1.4326   -0.6296   -1.4711 H   0  0  0  0  0  0  0  0  0  0  0  0
    2.9392   -2.6822    0.1359 H   0  0  0  0  0  0  0  0  0  0  0  0
    3.8453   -1.7887   -1.1051 H   0  0  0  0  0  0  0  0  0  0  0  0
    2.3568   -2.7882   -1.5587 H   0  0  0  0  0  0  0  0  0  0  0  0
  1  2  1  0
  2  3  3  0
  3  4  1  0
  4  5  2  0
  4  6  1  0
  6  7  1  0
  7  8  1  0
  8  9  1  0
  1 10  1  0
  1 11  1  0
  1 12  1  0
  7 13  1  0
  7 14  1  0
  8 15  1  0
  8 16  1  0
  9 17  1  0
  9 18  1  0
  9 19  1  0
M  END
