
     RDKit          3D

 18 19  0  0  0  0  0  0  0  0999 V2000
    3.3895   -0.5270    1.8156 C   0  0  0  0  0  0  0  0  0  0  0  0
    2.2093   -0.4497    0.9340 C   0  0  0  0  0  0  0  0  0  0  0  0
    1.2391   -0.3768    0.2106 C   0  0  0  0  0  0  0  0  0  0  0  0
    0.0638   -0.2640   -0.6617 C   0  0  0  0  0  0  0  0  0  0  0  0
   -0.6185    1.0438   -0.6300 C   0  0  0  0  0  0  0  0  0  0  0  0
   -1.9228    1.2910   -1.3153 C   0  0  0  0  0  0  0  0  0  0  0  0
   -2.4514   -0.0505   -0.8427 C   0  0  0  0  0  0  0  0  0  0  0  0
   -1.2297   -0.1546    0.0425 C   0  0  0  0  0  0  0  0  0  0  0  0
    3.5281   -1.6034    2.0394 H   0  0  0  0  0  0  0  0  0  0  0  0
    3.2407    0.0098    2.7603 H   0  0  0  0  0  0  0  0  0  0  0  0
    4.2962   -0.1284    1.3374 H   0  0  0  0  0  0  0  0  0  0  0  0
    0.0418   -0.8285   -1.6151 H   0  0  0  0  0  0  0  0  0  0  0  0
   -0.2681    1.8688    0.0305 H   0  0  0  0  0  0  0  0  0  0  0  0
   -1.8097    1.4057   -2.3989 H   0  0  0  0  0  0  0  0  0  0  0  0
   -2.5158    2.1086   -0.8543 H   0  0  0  0  0  0  0  0  0  0  0  0
   -3.4188   -0.0108   -0.3077 H   0  0  0  0  0  0  0  0  0  0  0  0
   -2.4469   -0.7757   -1.6761 H   0  0  0  0  0  0  0  0  0  0  0  0
   -1.3270   -0.1108    1.1316 H   0  0  0  0  0  0  0  0  0  0  0  0
  1  2  1  0
  2  3  3  0
  3  4  1  0
  4  5  1  0
  5  6  1  0
  6  7  1  0
  7  8  1  0
  8  4  1  0
  8  5  1  0
  1  9  1  0
  1 10  1  0
  1 11  1  0
  4 12  1  0
  5 13  1  0
  6 14  1  0
  6 15  1  0
  7 16  1  0
  7 17  1  0
  8 18  1  0
M  END
