
     RDKit          3D

 23 23  0  0  0  0  0  0  0  0999 V2000
    3.6616   -0.9039    0.0382 C   0  0  0  0  0  0  0  0  0  0  0  0
    2.3515   -0.2545   -0.0788 C   0  0  0  0  0  0  0  0  0  0  0  0
    1.2791    0.2889   -0.1931 C   0  0  0  0  0  0  0  0  0  0  0  0
   -0.0324    0.9281   -0.3203 C   0  0  0  0  0  0  0  0  0  0  0  0
   -0.2742    1.9839    0.7124 C   0  0  0  0  0  0  0  0  0  0  0  0
   -1.0643   -0.1751   -0.2773 C   0  0  0  0  0  0  0  0  0  0  0  0
   -0.9961   -1.2367   -1.3360 C   0  0  0  0  0  0  0  0  0  0  0  0
   -2.4367    0.2894    0.2114 C   0  0  0  0  0  0  0  0  0  0  0  0
   -1.5913   -0.6415    1.0502 C   0  0  0  0  0  0  0  0  0  0  0  0
    3.4929   -1.9706    0.1928 H   0  0  0  0  0  0  0  0  0  0  0  0
    4.3042   -0.6778   -0.8534 H   0  0  0  0  0  0  0  0  0  0  0  0
    4.2316   -0.5084    0.9186 H   0  0  0  0  0  0  0  0  0  0  0  0
   -0.1177    1.3983   -1.3272 H   0  0  0  0  0  0  0  0  0  0  0  0
   -0.4291    1.5989    1.7208 H   0  0  0  0  0  0  0  0  0  0  0  0
   -1.0723    2.6631    0.3489 H   0  0  0  0  0  0  0  0  0  0  0  0
    0.6584    2.6207    0.7417 H   0  0  0  0  0  0  0  0  0  0  0  0
   -0.2474   -1.9935   -0.9938 H   0  0  0  0  0  0  0  0  0  0  0  0
   -0.7281   -0.8544   -2.3368 H   0  0  0  0  0  0  0  0  0  0  0  0
   -1.9541   -1.7751   -1.4292 H   0  0  0  0  0  0  0  0  0  0  0  0
   -3.3241   -0.1183   -0.3177 H   0  0  0  0  0  0  0  0  0  0  0  0
   -2.5513    1.2877    0.6316 H   0  0  0  0  0  0  0  0  0  0  0  0
   -1.1548   -0.2865    1.9938 H   0  0  0  0  0  0  0  0  0  0  0  0
   -2.0055   -1.6627    1.1174 H   0  0  0  0  0  0  0  0  0  0  0  0
  1  2  1  0
  2  3  3  0
  3  4  1  0
  4  5  1  0
  4  6  1  0
  6  7  1  0
  6  8  1  0
  8  9  1  0
  9  6  1  0
  1 10  1  0
  1 11  1  0
  1 12  1  0
  4 13  1  0
  5 14  1  0
  5 15  1  0
  5 16  1  0
  7 17  1  0
  7 18  1  0
  7 19  1  0
  8 20  1  0
  8 21  1  0
  9 22  1  0
  9 23  1  0
M  END
