
     RDKit          3D

 21 21  0  0  0  0  0  0  0  0999 V2000
    3.1776    1.2938   -0.1999 C   0  0  0  0  0  0  0  0  0  0  0  0
    1.9205    0.5517   -0.1039 C   0  0  0  0  0  0  0  0  0  0  0  0
    0.8820   -0.0734   -0.0390 C   0  0  0  0  0  0  0  0  0  0  0  0
   -0.3691   -0.8066    0.0572 C   0  0  0  0  0  0  0  0  0  0  0  0
   -1.5641   -0.0788   -0.4770 C   0  0  0  0  0  0  0  0  0  0  0  0
   -1.8344    1.2248    0.2283 C   0  0  0  0  0  0  0  0  0  0  0  0
   -0.7286    2.0540    0.0783 O   0  0  0  0  0  0  0  0  0  0  0  0
   -0.3562   -2.3001   -0.2998 C   0  0  0  0  0  0  0  0  0  0  0  0
   -0.4766   -1.8384    1.1039 C   0  0  0  0  0  0  0  0  0  0  0  0
    3.8530    0.7142   -0.8653 H   0  0  0  0  0  0  0  0  0  0  0  0
    2.9655    2.2516   -0.7183 H   0  0  0  0  0  0  0  0  0  0  0  0
    3.5963    1.4299    0.8128 H   0  0  0  0  0  0  0  0  0  0  0  0
   -1.3156    0.1911   -1.5446 H   0  0  0  0  0  0  0  0  0  0  0  0
   -2.4532   -0.7311   -0.5151 H   0  0  0  0  0  0  0  0  0  0  0  0
   -2.6856    1.7063   -0.3020 H   0  0  0  0  0  0  0  0  0  0  0  0
   -2.0524    1.0625    1.3114 H   0  0  0  0  0  0  0  0  0  0  0  0
   -0.9346    2.8797   -0.4103 H   0  0  0  0  0  0  0  0  0  0  0  0
   -1.2442   -2.7313   -0.7836 H   0  0  0  0  0  0  0  0  0  0  0  0
    0.5960   -2.6937   -0.6824 H   0  0  0  0  0  0  0  0  0  0  0  0
   -1.4071   -2.0940    1.6186 H   0  0  0  0  0  0  0  0  0  0  0  0
    0.4307   -2.0123    1.7306 H   0  0  0  0  0  0  0  0  0  0  0  0
  1  2  1  0
  2  3  3  0
  3  4  1  0
  4  5  1  0
  5  6  1  0
  6  7  1  0
  4  8  1  0
  8  9  1  0
  9  4  1  0
  1 10  1  0
  1 11  1  0
  1 12  1  0
  5 13  1  0
  5 14  1  0
  6 15  1  0
  6 16  1  0
  7 17  1  0
  8 18  1  0
  8 19  1  0
  9 20  1  0
  9 21  1  0
M  END
