
     RDKit          3D

 19 18  0  0  0  0  0  0  0  0999 V2000
    3.5669    1.5300    1.4921 C   0  0  0  0  0  0  0  0  0  0  0  0
    2.4014    0.6307    1.2142 C   0  0  0  0  0  0  0  0  0  0  0  0
    1.4762   -0.1021    1.0062 C   0  0  0  0  0  0  0  0  0  0  0  0
    0.3234   -0.9985    0.7460 C   0  0  0  0  0  0  0  0  0  0  0  0
   -0.5353   -0.7166   -0.1272 O   0  0  0  0  0  0  0  0  0  0  0  0
   -1.3259   -0.4414   -0.9982 C   0  0  0  0  0  0  0  0  0  0  0  0
   -2.2697    0.7755   -0.7999 C   0  0  0  0  0  0  0  0  0  0  0  0
   -2.2869   -1.5943   -1.4198 C   0  0  0  0  0  0  0  0  0  0  0  0
   -3.0469   -1.3607   -2.2866 O   0  0  0  0  0  0  0  0  0  0  0  0
    3.3832    2.0457    2.4402 H   0  0  0  0  0  0  0  0  0  0  0  0
    3.7060    2.2055    0.6126 H   0  0  0  0  0  0  0  0  0  0  0  0
    4.4911    0.9023    1.5624 H   0  0  0  0  0  0  0  0  0  0  0  0
    0.7758   -2.0459    0.5346 H   0  0  0  0  0  0  0  0  0  0  0  0
   -0.0805   -1.1675    1.8149 H   0  0  0  0  0  0  0  0  0  0  0  0
   -0.8610   -0.2231   -2.0319 H   0  0  0  0  0  0  0  0  0  0  0  0
   -1.7163    1.6299   -0.3920 H   0  0  0  0  0  0  0  0  0  0  0  0
   -2.8822    0.9640   -1.6822 H   0  0  0  0  0  0  0  0  0  0  0  0
   -2.9626    0.4650    0.0260 H   0  0  0  0  0  0  0  0  0  0  0  0
   -2.1566   -2.4986   -0.8680 H   0  0  0  0  0  0  0  0  0  0  0  0
  1  2  1  0
  2  3  3  0
  3  4  1  0
  4  5  1  0
  5  6  1  0
  6  7  1  0
  6  8  1  0
  8  9  2  0
  1 10  1  0
  1 11  1  0
  1 12  1  0
  4 13  1  0
  4 14  1  0
  6 15  1  0
  7 16  1  0
  7 17  1  0
  7 18  1  0
  8 19  1  0
M  END
