
     RDKit          3D

 17 18  0  0  0  0  0  0  0  0999 V2000
    3.4373   -0.8693    1.3263 C   0  0  0  0  0  0  0  0  0  0  0  0
    2.0980   -0.5125    0.8612 C   0  0  0  0  0  0  0  0  0  0  0  0
    0.9825   -0.1945    0.4792 C   0  0  0  0  0  0  0  0  0  0  0  0
   -0.3249    0.2029    0.0379 C   0  0  0  0  0  0  0  0  0  0  0  0
   -1.3040    0.7155    0.7510 C   0  0  0  0  0  0  0  0  0  0  0  0
   -2.4947    0.9876   -0.0860 C   0  0  0  0  0  0  0  0  0  0  0  0
   -3.1111   -0.1449   -0.6039 O   0  0  0  0  0  0  0  0  0  0  0  0
   -2.1990    0.5085   -1.4307 C   0  0  0  0  0  0  0  0  0  0  0  0
   -0.7580    0.0738   -1.3755 C   0  0  0  0  0  0  0  0  0  0  0  0
    4.0587   -1.0224    0.4084 H   0  0  0  0  0  0  0  0  0  0  0  0
    3.4243   -1.7748    1.9765 H   0  0  0  0  0  0  0  0  0  0  0  0
    3.8600   -0.0366    1.9613 H   0  0  0  0  0  0  0  0  0  0  0  0
   -1.2679    0.9179    1.7987 H   0  0  0  0  0  0  0  0  0  0  0  0
   -3.0471    1.9303    0.0237 H   0  0  0  0  0  0  0  0  0  0  0  0
   -2.5349    0.9724   -2.3604 H   0  0  0  0  0  0  0  0  0  0  0  0
   -0.6698   -0.9452   -1.7603 H   0  0  0  0  0  0  0  0  0  0  0  0
   -0.1494    0.7502   -2.0074 H   0  0  0  0  0  0  0  0  0  0  0  0
  1  2  1  0
  2  3  3  0
  3  4  1  0
  4  5  2  0
  5  6  1  0
  6  7  1  0
  7  8  1  0
  8  9  1  0
  9  4  1  0
  8  6  1  0
  1 10  1  0
  1 11  1  0
  1 12  1  0
  5 13  1  0
  6 14  1  0
  8 15  1  0
  9 16  1  0
  9 17  1  0
M  END
