
     RDKit          3D

 19 20  0  0  0  0  0  0  0  0999 V2000
   -3.7110   -0.8849    0.4885 C   0  0  0  0  0  0  0  0  0  0  0  0
   -2.2336   -0.6646    0.3367 C   0  0  0  0  0  0  0  0  0  0  0  0
   -1.0439   -0.4742    0.1974 C   0  0  0  0  0  0  0  0  0  0  0  0
    0.3728   -0.2338    0.0098 C   0  0  0  0  0  0  0  0  0  0  0  0
    0.8610    0.0644   -1.3642 C   0  0  0  0  0  0  0  0  0  0  0  0
    1.7872    0.9789   -1.3085 C   0  0  0  0  0  0  0  0  0  0  0  0
    2.0389    1.4097    0.1067 C   0  0  0  0  0  0  0  0  0  0  0  0
    1.1013    0.6019    0.9704 C   0  0  0  0  0  0  0  0  0  0  0  0
    1.3729   -0.8642    1.0011 C   0  0  0  0  0  0  0  0  0  0  0  0
   -4.0609   -0.2412    1.2945 H   0  0  0  0  0  0  0  0  0  0  0  0
   -4.1287   -0.5375   -0.4981 H   0  0  0  0  0  0  0  0  0  0  0  0
   -3.9626   -1.9338    0.5541 H   0  0  0  0  0  0  0  0  0  0  0  0
    0.4629   -0.4362   -2.2282 H   0  0  0  0  0  0  0  0  0  0  0  0
    2.3187    1.3878   -2.1529 H   0  0  0  0  0  0  0  0  0  0  0  0
    1.9389    2.4839    0.2381 H   0  0  0  0  0  0  0  0  0  0  0  0
    3.0891    1.0476    0.3309 H   0  0  0  0  0  0  0  0  0  0  0  0
    0.6338    1.0588    1.8544 H   0  0  0  0  0  0  0  0  0  0  0  0
    2.2582   -1.3002    0.4890 H   0  0  0  0  0  0  0  0  0  0  0  0
    0.9048   -1.4624    1.8220 H   0  0  0  0  0  0  0  0  0  0  0  0
  1  2  1  0
  2  3  3  0
  3  4  1  0
  4  5  1  0
  5  6  2  0
  6  7  1  0
  7  8  1  0
  8  9  1  0
  8  4  1  0
  9  4  1  0
  1 10  1  0
  1 11  1  0
  1 12  1  0
  5 13  1  0
  6 14  1  0
  7 15  1  0
  7 16  1  0
  8 17  1  0
  9 18  1  0
  9 19  1  0
M  END
