
     RDKit          3D

 17 17  0  0  0  0  0  0  0  0999 V2000
    3.4555   -0.2621   -0.1164 C   0  0  0  0  0  0  0  0  0  0  0  0
    1.9951   -0.2285   -0.0039 C   0  0  0  0  0  0  0  0  0  0  0  0
    0.7916   -0.2170    0.0758 C   0  0  0  0  0  0  0  0  0  0  0  0
   -0.6860   -0.1977    0.1932 C   0  0  0  0  0  0  0  0  0  0  0  0
   -1.1830   -0.3081    1.5689 C   0  0  0  0  0  0  0  0  0  0  0  0
   -0.7662    0.3654    2.4925 O   0  0  0  0  0  0  0  0  0  0  0  0
   -1.2876    0.9534   -0.5530 C   0  0  0  0  0  0  0  0  0  0  0  0
   -2.2830   -0.1174   -0.9001 C   0  0  0  0  0  0  0  0  0  0  0  0
   -1.3149   -1.0716   -0.6903 O   0  0  0  0  0  0  0  0  0  0  0  0
    3.8143    0.7604    0.0959 H   0  0  0  0  0  0  0  0  0  0  0  0
    3.9131   -0.9331    0.6419 H   0  0  0  0  0  0  0  0  0  0  0  0
    3.7834   -0.5468   -1.1395 H   0  0  0  0  0  0  0  0  0  0  0  0
   -1.9645   -1.0258    1.7869 H   0  0  0  0  0  0  0  0  0  0  0  0
   -0.7143    1.3930   -1.3647 H   0  0  0  0  0  0  0  0  0  0  0  0
   -1.7866    1.7266    0.0814 H   0  0  0  0  0  0  0  0  0  0  0  0
   -3.1584   -0.1569   -0.2080 H   0  0  0  0  0  0  0  0  0  0  0  0
   -2.6086   -0.1336   -1.9605 H   0  0  0  0  0  0  0  0  0  0  0  0
  1  2  1  0
  2  3  3  0
  3  4  1  0
  4  5  1  0
  5  6  2  0
  4  7  1  0
  7  8  1  0
  8  9  1  0
  9  4  1  0
  1 10  1  0
  1 11  1  0
  1 12  1  0
  5 13  1  0
  7 14  1  0
  7 15  1  0
  8 16  1  0
  8 17  1  0
M  END
