
     RDKit          3D

 23 23  0  0  0  0  0  0  0  0999 V2000
    3.6034    1.2840    0.1940 C   0  0  0  0  0  0  0  0  0  0  0  0
    2.1929    0.9226   -0.0029 C   0  0  0  0  0  0  0  0  0  0  0  0
    1.0271    0.6091   -0.1600 C   0  0  0  0  0  0  0  0  0  0  0  0
   -0.3823    0.2564   -0.3527 C   0  0  0  0  0  0  0  0  0  0  0  0
   -1.0488    0.9291   -1.5246 C   0  0  0  0  0  0  0  0  0  0  0  0
   -0.7364   -1.2145   -0.0781 C   0  0  0  0  0  0  0  0  0  0  0  0
   -1.5578   -1.9244   -1.0889 C   0  0  0  0  0  0  0  0  0  0  0  0
   -1.2269   -0.1204    0.7702 C   0  0  0  0  0  0  0  0  0  0  0  0
   -0.7442   -0.0090    2.2141 C   0  0  0  0  0  0  0  0  0  0  0  0
    4.2729    0.4070    0.0448 H   0  0  0  0  0  0  0  0  0  0  0  0
    3.7168    1.6583    1.2170 H   0  0  0  0  0  0  0  0  0  0  0  0
    3.9397    2.0382   -0.5722 H   0  0  0  0  0  0  0  0  0  0  0  0
   -2.1212    0.7574   -1.5429 H   0  0  0  0  0  0  0  0  0  0  0  0
   -0.8421    2.0203   -1.4245 H   0  0  0  0  0  0  0  0  0  0  0  0
   -0.5484    0.5471   -2.4500 H   0  0  0  0  0  0  0  0  0  0  0  0
    0.0860   -1.8425    0.3638 H   0  0  0  0  0  0  0  0  0  0  0  0
   -2.2860   -2.6319   -0.5988 H   0  0  0  0  0  0  0  0  0  0  0  0
   -0.8721   -2.5860   -1.6733 H   0  0  0  0  0  0  0  0  0  0  0  0
   -2.1593   -1.2727   -1.7407 H   0  0  0  0  0  0  0  0  0  0  0  0
   -2.3327    0.0753    0.7057 H   0  0  0  0  0  0  0  0  0  0  0  0
   -1.1406    0.9372    2.6565 H   0  0  0  0  0  0  0  0  0  0  0  0
   -1.1840   -0.8354    2.8370 H   0  0  0  0  0  0  0  0  0  0  0  0
    0.3439   -0.0053    2.2063 H   0  0  0  0  0  0  0  0  0  0  0  0
  1  2  1  0
  2  3  3  0
  3  4  1  0
  4  5  1  0
  4  6  1  0
  6  7  1  0
  6  8  1  0
  8  9  1  0
  8  4  1  0
  1 10  1  0
  1 11  1  0
  1 12  1  0
  5 13  1  0
  5 14  1  0
  5 15  1  0
  6 16  1  0
  7 17  1  0
  7 18  1  0
  7 19  1  0
  8 20  1  0
  9 21  1  0
  9 22  1  0
  9 23  1  0
M  END
