
     RDKit          3D

 18 17  0  0  0  0  0  0  0  0999 V2000
    2.4853    1.7060   -2.1655 C   0  0  0  0  0  0  0  0  0  0  0  0
    1.2545    1.1080   -1.4130 C   0  0  0  0  0  0  0  0  0  0  0  0
    0.1453    0.5860   -0.7168 C   0  0  0  0  0  0  0  0  0  0  0  0
   -0.8957    0.1042   -0.0416 C   0  0  0  0  0  0  0  0  0  0  0  0
   -0.6776    0.4605    1.5087 C   0  0  0  0  0  0  0  0  0  0  0  0
   -0.5986   -1.4917    0.1586 C   0  0  0  0  0  0  0  0  0  0  0  0
   -1.8267   -1.8979    1.0100 C   0  0  0  0  0  0  0  0  0  0  0  0
   -2.8806   -1.9490    0.5828 O   0  0  0  0  0  0  0  0  0  0  0  0
    3.0456    2.0935   -1.1444 H   0  0  0  0  0  0  0  0  0  0  0  0
    2.1737    2.5180   -2.6867 H   0  0  0  0  0  0  0  0  0  0  0  0
    3.0663    0.8327   -2.3190 H   0  0  0  0  0  0  0  0  0  0  0  0
   -1.8822    0.3020   -0.3297 H   0  0  0  0  0  0  0  0  0  0  0  0
   -1.0381    1.3765    1.8129 H   0  0  0  0  0  0  0  0  0  0  0  0
   -1.0587   -0.4331    2.0903 H   0  0  0  0  0  0  0  0  0  0  0  0
    0.4662    0.3396    1.5820 H   0  0  0  0  0  0  0  0  0  0  0  0
   -0.5593   -1.9488   -0.7912 H   0  0  0  0  0  0  0  0  0  0  0  0
    0.2909   -1.5918    0.7799 H   0  0  0  0  0  0  0  0  0  0  0  0
   -1.5104   -2.1149    2.0827 H   0  0  0  0  0  0  0  0  0  0  0  0
  1  2  1  0
  2  3  3  0
  3  4  1  0
  4  5  1  0
  4  6  1  0
  6  7  1  0
  7  8  2  0
  1  9  1  0
  1 10  1  0
  1 11  1  0
  4 12  1  0
  5 13  1  0
  5 14  1  0
  5 15  1  0
  6 16  1  0
  6 17  1  0
  7 18  1  0
M  END
