
     RDKit          3D

 21 21  0  0  0  0  0  0  0  0999 V2000
    3.5725    1.2025   -0.1532 C   0  0  0  0  0  0  0  0  0  0  0  0
    2.2160    0.6759   -0.3429 C   0  0  0  0  0  0  0  0  0  0  0  0
    1.0930    0.2304   -0.5199 C   0  0  0  0  0  0  0  0  0  0  0  0
   -0.2659   -0.2827   -0.7245 C   0  0  0  0  0  0  0  0  0  0  0  0
   -0.5061   -0.6685   -2.0410 O   0  0  0  0  0  0  0  0  0  0  0  0
   -1.3619    0.3278    0.0582 C   0  0  0  0  0  0  0  0  0  0  0  0
   -1.1011    1.2658    1.1945 C   0  0  0  0  0  0  0  0  0  0  0  0
   -0.8856   -1.0970    0.3212 C   0  0  0  0  0  0  0  0  0  0  0  0
   -1.9427   -2.1280    0.0366 C   0  0  0  0  0  0  0  0  0  0  0  0
    3.6591    2.2454   -0.5333 H   0  0  0  0  0  0  0  0  0  0  0  0
    3.7958    1.1519    0.9233 H   0  0  0  0  0  0  0  0  0  0  0  0
    4.3213    0.6099   -0.7163 H   0  0  0  0  0  0  0  0  0  0  0  0
    0.0270   -0.1827   -2.7012 H   0  0  0  0  0  0  0  0  0  0  0  0
   -2.3087    0.4839   -0.4858 H   0  0  0  0  0  0  0  0  0  0  0  0
   -0.6097    0.7674    2.0676 H   0  0  0  0  0  0  0  0  0  0  0  0
   -0.5582    2.1567    0.8533 H   0  0  0  0  0  0  0  0  0  0  0  0
   -2.0917    1.6185    1.5850 H   0  0  0  0  0  0  0  0  0  0  0  0
   -0.2912   -1.2987    1.2211 H   0  0  0  0  0  0  0  0  0  0  0  0
   -1.7584   -3.0569    0.5975 H   0  0  0  0  0  0  0  0  0  0  0  0
   -2.0912   -2.3019   -1.0537 H   0  0  0  0  0  0  0  0  0  0  0  0
   -2.9123   -1.7197    0.4134 H   0  0  0  0  0  0  0  0  0  0  0  0
  1  2  1  0
  2  3  3  0
  3  4  1  0
  4  5  1  0
  4  6  1  0
  6  7  1  0
  6  8  1  0
  8  9  1  0
  8  4  1  0
  1 10  1  0
  1 11  1  0
  1 12  1  0
  5 13  1  0
  6 14  1  0
  7 15  1  0
  7 16  1  0
  7 17  1  0
  8 18  1  0
  9 19  1  0
  9 20  1  0
  9 21  1  0
M  END
