
     RDKit          3D

 14 13  0  0  0  0  0  0  0  0999 V2000
    2.7336   -0.2904    0.3513 C   0  0  0  0  0  0  0  0  0  0  0  0
    1.3632    0.0890   -0.0246 C   0  0  0  0  0  0  0  0  0  0  0  0
    0.2427    0.4198   -0.3392 C   0  0  0  0  0  0  0  0  0  0  0  0
   -1.1199    0.8267   -0.7248 C   0  0  0  0  0  0  0  0  0  0  0  0
   -2.0615    0.0574    0.1846 C   0  0  0  0  0  0  0  0  0  0  0  0
   -1.9122   -1.3147    0.0346 O   0  0  0  0  0  0  0  0  0  0  0  0
    2.6844   -1.2986    0.8223 H   0  0  0  0  0  0  0  0  0  0  0  0
    3.4074   -0.3359   -0.5397 H   0  0  0  0  0  0  0  0  0  0  0  0
    3.1554    0.4075    1.1211 H   0  0  0  0  0  0  0  0  0  0  0  0
   -1.2646    1.9068   -0.6228 H   0  0  0  0  0  0  0  0  0  0  0  0
   -1.2486    0.5232   -1.7710 H   0  0  0  0  0  0  0  0  0  0  0  0
   -1.8870    0.2878    1.2474 H   0  0  0  0  0  0  0  0  0  0  0  0
   -3.0987    0.3044   -0.0887 H   0  0  0  0  0  0  0  0  0  0  0  0
   -0.9942   -1.5831    0.3496 H   0  0  0  0  0  0  0  0  0  0  0  0
  1  2  1  0
  2  3  3  0
  3  4  1  0
  4  5  1  0
  5  6  1  0
  1  7  1  0
  1  8  1  0
  1  9  1  0
  4 10  1  0
  4 11  1  0
  5 12  1  0
  5 13  1  0
  6 14  1  0
M  END
