
     RDKit          3D

 21 21  0  0  0  0  0  0  0  0999 V2000
    4.1856   -0.1722   -0.1687 C   0  0  0  0  0  0  0  0  0  0  0  0
    2.7423   -0.3112    0.0764 C   0  0  0  0  0  0  0  0  0  0  0  0
    1.5476   -0.4366    0.2613 C   0  0  0  0  0  0  0  0  0  0  0  0
    0.1244   -0.5770    0.4576 C   0  0  0  0  0  0  0  0  0  0  0  0
   -0.5402   -1.3432   -0.6667 C   0  0  0  0  0  0  0  0  0  0  0  0
   -1.9220   -0.7910   -0.6132 C   0  0  0  0  0  0  0  0  0  0  0  0
   -1.9228    0.4157   -0.0551 C   0  0  0  0  0  0  0  0  0  0  0  0
   -3.0873    1.3013    0.1845 C   0  0  0  0  0  0  0  0  0  0  0  0
   -0.5101    0.7847    0.3220 C   0  0  0  0  0  0  0  0  0  0  0  0
    4.6247    0.1757    0.7910 H   0  0  0  0  0  0  0  0  0  0  0  0
    4.2946    0.5756   -0.9766 H   0  0  0  0  0  0  0  0  0  0  0  0
    4.6323   -1.1608   -0.4284 H   0  0  0  0  0  0  0  0  0  0  0  0
   -0.1512   -0.9729    1.4540 H   0  0  0  0  0  0  0  0  0  0  0  0
   -0.5111   -2.4381   -0.5015 H   0  0  0  0  0  0  0  0  0  0  0  0
   -0.0734   -1.0160   -1.6029 H   0  0  0  0  0  0  0  0  0  0  0  0
   -2.8246   -1.2748   -0.9688 H   0  0  0  0  0  0  0  0  0  0  0  0
   -2.9071    1.9039    1.1109 H   0  0  0  0  0  0  0  0  0  0  0  0
   -3.2119    2.0144   -0.6584 H   0  0  0  0  0  0  0  0  0  0  0  0
   -4.0122    0.6873    0.2820 H   0  0  0  0  0  0  0  0  0  0  0  0
   -0.4821    1.3154    1.2889 H   0  0  0  0  0  0  0  0  0  0  0  0
    0.0044    1.3195   -0.4875 H   0  0  0  0  0  0  0  0  0  0  0  0
  1  2  1  0
  2  3  3  0
  3  4  1  0
  4  5  1  0
  5  6  1  0
  6  7  2  0
  7  8  1  0
  7  9  1  0
  9  4  1  0
  1 10  1  0
  1 11  1  0
  1 12  1  0
  4 13  1  0
  5 14  1  0
  5 15  1  0
  6 16  1  0
  8 17  1  0
  8 18  1  0
  8 19  1  0
  9 20  1  0
  9 21  1  0
M  END
