
     RDKit          3D

 25 24  0  0  0  0  0  0  0  0999 V2000
    3.7482    0.5961    0.0703 C   0  0  0  0  0  0  0  0  0  0  0  0
    2.4054    0.0288   -0.0575 C   0  0  0  0  0  0  0  0  0  0  0  0
    1.2905   -0.4213   -0.1606 C   0  0  0  0  0  0  0  0  0  0  0  0
   -0.0854   -0.9584   -0.2700 C   0  0  0  0  0  0  0  0  0  0  0  0
   -0.3356   -1.9981    0.7674 C   0  0  0  0  0  0  0  0  0  0  0  0
   -1.0156    0.2069   -0.2292 C   0  0  0  0  0  0  0  0  0  0  0  0
   -0.6608    1.1071   -1.4182 C   0  0  0  0  0  0  0  0  0  0  0  0
   -2.4260   -0.2874   -0.4925 C   0  0  0  0  0  0  0  0  0  0  0  0
   -0.9511    1.0427    0.9890 C   0  0  0  0  0  0  0  0  0  0  0  0
    4.1088    0.5971    1.1162 H   0  0  0  0  0  0  0  0  0  0  0  0
    4.5011   -0.0051   -0.5106 H   0  0  0  0  0  0  0  0  0  0  0  0
    3.7164    1.6197   -0.3535 H   0  0  0  0  0  0  0  0  0  0  0  0
   -0.2090   -1.4429   -1.2648 H   0  0  0  0  0  0  0  0  0  0  0  0
   -0.0371   -3.0189    0.4549 H   0  0  0  0  0  0  0  0  0  0  0  0
    0.3185   -1.7462    1.6508 H   0  0  0  0  0  0  0  0  0  0  0  0
   -1.3526   -2.0544    1.1471 H   0  0  0  0  0  0  0  0  0  0  0  0
   -0.8961    0.6337   -2.3782 H   0  0  0  0  0  0  0  0  0  0  0  0
    0.3843    1.4595   -1.3344 H   0  0  0  0  0  0  0  0  0  0  0  0
   -1.3103    2.0103   -1.3140 H   0  0  0  0  0  0  0  0  0  0  0  0
   -2.3522   -1.0198   -1.3349 H   0  0  0  0  0  0  0  0  0  0  0  0
   -2.7843   -0.8142    0.3900 H   0  0  0  0  0  0  0  0  0  0  0  0
   -3.0849    0.5709   -0.7845 H   0  0  0  0  0  0  0  0  0  0  0  0
   -0.6720    0.5063    1.9146 H   0  0  0  0  0  0  0  0  0  0  0  0
   -1.9887    1.4433    1.1847 H   0  0  0  0  0  0  0  0  0  0  0  0
   -0.3115    1.9442    0.9059 H   0  0  0  0  0  0  0  0  0  0  0  0
  1  2  1  0
  2  3  3  0
  3  4  1  0
  4  5  1  0
  4  6  1  0
  6  7  1  0
  6  8  1  0
  6  9  1  0
  1 10  1  0
  1 11  1  0
  1 12  1  0
  4 13  1  0
  5 14  1  0
  5 15  1  0
  5 16  1  0
  7 17  1  0
  7 18  1  0
  7 19  1  0
  8 20  1  0
  8 21  1  0
  8 22  1  0
  9 23  1  0
  9 24  1  0
  9 25  1  0
M  END
