
     RDKit          3D

 21 21  0  0  0  0  0  0  0  0999 V2000
    3.5362   -0.1418    1.8859 C   0  0  0  0  0  0  0  0  0  0  0  0
    2.2227   -0.0921    1.2044 C   0  0  0  0  0  0  0  0  0  0  0  0
    1.0477   -0.0555    0.5699 C   0  0  0  0  0  0  0  0  0  0  0  0
   -0.1151   -0.0334   -0.0540 C   0  0  0  0  0  0  0  0  0  0  0  0
   -0.8700    1.3218    0.3729 C   0  0  0  0  0  0  0  0  0  0  0  0
   -1.0789   -1.1294   -0.0252 C   0  0  0  0  0  0  0  0  0  0  0  0
   -2.0890   -0.5785   -1.0802 C   0  0  0  0  0  0  0  0  0  0  0  0
   -1.1693    0.1320   -2.0118 C   0  0  0  0  0  0  0  0  0  0  0  0
    0.0966    0.1406   -1.4734 O   0  0  0  0  0  0  0  0  0  0  0  0
    4.2210    0.5756    1.4661 H   0  0  0  0  0  0  0  0  0  0  0  0
    3.9182   -1.1787    1.6103 H   0  0  0  0  0  0  0  0  0  0  0  0
    3.4258   -0.0567    2.9547 H   0  0  0  0  0  0  0  0  0  0  0  0
   -1.7349    1.0515    0.9642 H   0  0  0  0  0  0  0  0  0  0  0  0
   -1.0015    1.9960   -0.4587 H   0  0  0  0  0  0  0  0  0  0  0  0
   -0.1013    1.8499    1.0930 H   0  0  0  0  0  0  0  0  0  0  0  0
   -1.6781   -1.2859    0.8931 H   0  0  0  0  0  0  0  0  0  0  0  0
   -0.6466   -2.0923   -0.4301 H   0  0  0  0  0  0  0  0  0  0  0  0
   -2.8049    0.1408   -0.5939 H   0  0  0  0  0  0  0  0  0  0  0  0
   -2.5906   -1.3767   -1.5756 H   0  0  0  0  0  0  0  0  0  0  0  0
   -1.1367   -0.3829   -3.0280 H   0  0  0  0  0  0  0  0  0  0  0  0
   -1.4513    1.1956   -2.1894 H   0  0  0  0  0  0  0  0  0  0  0  0
  1  2  1  0
  2  3  3  0
  3  4  1  0
  4  5  1  0
  4  6  1  0
  6  7  1  0
  7  8  1  0
  8  9  1  0
  9  4  1  0
  1 10  1  0
  1 11  1  0
  1 12  1  0
  5 13  1  0
  5 14  1  0
  5 15  1  0
  6 16  1  0
  6 17  1  0
  7 18  1  0
  7 19  1  0
  8 20  1  0
  8 21  1  0
M  END
