
     RDKit          3D

 19 18  0  0  0  0  0  0  0  0999 V2000
   -4.4153   -0.5326    0.9872 C   0  0  0  0  0  0  0  0  0  0  0  0
   -3.3240    0.1379    0.2431 C   0  0  0  0  0  0  0  0  0  0  0  0
   -2.4285    0.6922   -0.3447 C   0  0  0  0  0  0  0  0  0  0  0  0
   -1.3596    1.3785   -1.0699 C   0  0  0  0  0  0  0  0  0  0  0  0
   -0.0880    0.7012   -0.7365 C   0  0  0  0  0  0  0  0  0  0  0  0
    0.9564    0.1542   -0.4835 C   0  0  0  0  0  0  0  0  0  0  0  0
    2.2287   -0.4932   -0.1633 C   0  0  0  0  0  0  0  0  0  0  0  0
    2.9450    0.2437    0.7891 O   0  0  0  0  0  0  0  0  0  0  0  0
    4.1460   -0.3437    1.1080 C   0  0  0  0  0  0  0  0  0  0  0  0
   -3.9967   -1.4725    1.3804 H   0  0  0  0  0  0  0  0  0  0  0  0
   -5.2444   -0.7647    0.2853 H   0  0  0  0  0  0  0  0  0  0  0  0
   -4.8229    0.1206    1.7713 H   0  0  0  0  0  0  0  0  0  0  0  0
   -1.5693    1.2552   -2.1513 H   0  0  0  0  0  0  0  0  0  0  0  0
   -1.3165    2.4630   -0.8475 H   0  0  0  0  0  0  0  0  0  0  0  0
    2.7982   -0.5367   -1.1341 H   0  0  0  0  0  0  0  0  0  0  0  0
    2.0918   -1.5095    0.2573 H   0  0  0  0  0  0  0  0  0  0  0  0
    4.8360   -0.4649    0.2510 H   0  0  0  0  0  0  0  0  0  0  0  0
    3.9219   -1.3282    1.5851 H   0  0  0  0  0  0  0  0  0  0  0  0
    4.6413    0.2995    1.8649 H   0  0  0  0  0  0  0  0  0  0  0  0
  1  2  1  0
  2  3  3  0
  3  4  1  0
  4  5  1  0
  5  6  3  0
  6  7  1  0
  7  8  1  0
  8  9  1  0
  1 10  1  0
  1 11  1  0
  1 12  1  0
  4 13  1  0
  4 14  1  0
  7 15  1  0
  7 16  1  0
  9 17  1  0
  9 18  1  0
  9 19  1  0
M  END
