
     RDKit          3D

 19 19  0  0  0  0  0  0  0  0999 V2000
   -3.2656   -1.6675    0.1701 C   0  0  0  0  0  0  0  0  0  0  0  0
   -2.1445   -0.7508   -0.0474 C   0  0  0  0  0  0  0  0  0  0  0  0
   -1.2119    0.0245   -0.2133 C   0  0  0  0  0  0  0  0  0  0  0  0
   -0.0940    0.9401   -0.4341 C   0  0  0  0  0  0  0  0  0  0  0  0
    1.3151    0.4001   -0.3568 C   0  0  0  0  0  0  0  0  0  0  0  0
    1.4925   -0.4922    0.6700 O   0  0  0  0  0  0  0  0  0  0  0  0
    2.8122   -0.9283    0.6564 C   0  0  0  0  0  0  0  0  0  0  0  0
   -0.3003    2.3903   -0.1296 C   0  0  0  0  0  0  0  0  0  0  0  0
   -0.2702    1.8799   -1.5203 O   0  0  0  0  0  0  0  0  0  0  0  0
   -4.1091   -1.4489   -0.5428 H   0  0  0  0  0  0  0  0  0  0  0  0
   -3.6927   -1.4927    1.1808 H   0  0  0  0  0  0  0  0  0  0  0  0
   -2.9689   -2.7048   -0.0057 H   0  0  0  0  0  0  0  0  0  0  0  0
    2.0075    1.2669   -0.1685 H   0  0  0  0  0  0  0  0  0  0  0  0
    1.6467   -0.0483   -1.3257 H   0  0  0  0  0  0  0  0  0  0  0  0
    3.0327   -1.6523    1.4576 H   0  0  0  0  0  0  0  0  0  0  0  0
    2.9839   -1.4141   -0.3229 H   0  0  0  0  0  0  0  0  0  0  0  0
    3.4982   -0.0564    0.7003 H   0  0  0  0  0  0  0  0  0  0  0  0
    0.5779    3.0306    0.0778 H   0  0  0  0  0  0  0  0  0  0  0  0
   -1.3095    2.7239    0.1541 H   0  0  0  0  0  0  0  0  0  0  0  0
  1  2  1  0
  2  3  3  0
  3  4  1  0
  4  5  1  0
  5  6  1  0
  6  7  1  0
  4  8  1  0
  8  9  1  0
  9  4  1  0
  1 10  1  0
  1 11  1  0
  1 12  1  0
  5 13  1  0
  5 14  1  0
  7 15  1  0
  7 16  1  0
  7 17  1  0
  8 18  1  0
  8 19  1  0
M  END
