
     RDKit          3D

 19 19  0  0  0  0  0  0  0  0999 V2000
    2.5476   -0.4404    3.2341 C   0  0  0  0  0  0  0  0  0  0  0  0
    1.4822   -0.2473    2.1790 C   0  0  0  0  0  0  0  0  0  0  0  0
    0.6499   -0.1079    1.3803 C   0  0  0  0  0  0  0  0  0  0  0  0
   -0.4045    0.0745    0.3325 C   0  0  0  0  0  0  0  0  0  0  0  0
   -0.4385   -1.0961   -0.5642 C   0  0  0  0  0  0  0  0  0  0  0  0
   -1.0733   -0.9772   -1.7289 C   0  0  0  0  0  0  0  0  0  0  0  0
   -1.6869    0.3548   -1.9884 C   0  0  0  0  0  0  0  0  0  0  0  0
   -0.7865    1.4546   -1.5013 C   0  0  0  0  0  0  0  0  0  0  0  0
   -0.0600    1.1908   -0.3815 O   0  0  0  0  0  0  0  0  0  0  0  0
    2.6673   -1.5341    3.4073 H   0  0  0  0  0  0  0  0  0  0  0  0
    2.2167   -0.0016    4.1894 H   0  0  0  0  0  0  0  0  0  0  0  0
    3.4298    0.0557    2.8544 H   0  0  0  0  0  0  0  0  0  0  0  0
   -1.3644    0.2319    0.8752 H   0  0  0  0  0  0  0  0  0  0  0  0
    0.0295   -2.0221   -0.3096 H   0  0  0  0  0  0  0  0  0  0  0  0
   -1.1305   -1.8015   -2.4301 H   0  0  0  0  0  0  0  0  0  0  0  0
   -2.6981    0.3949   -1.5435 H   0  0  0  0  0  0  0  0  0  0  0  0
   -1.8268    0.3978   -3.1006 H   0  0  0  0  0  0  0  0  0  0  0  0
   -1.4284    2.3637   -1.3799 H   0  0  0  0  0  0  0  0  0  0  0  0
   -0.1252    1.7097   -2.3774 H   0  0  0  0  0  0  0  0  0  0  0  0
  1  2  1  0
  2  3  3  0
  3  4  1  0
  4  5  1  0
  5  6  2  0
  6  7  1  0
  7  8  1  0
  8  9  1  0
  9  4  1  0
  1 10  1  0
  1 11  1  0
  1 12  1  0
  4 13  1  0
  5 14  1  0
  6 15  1  0
  7 16  1  0
  7 17  1  0
  8 18  1  0
  8 19  1  0
M  END
