
     RDKit          3D

 21 21  0  0  0  0  0  0  0  0999 V2000
    4.1178    0.2799    0.8583 C   0  0  0  0  0  0  0  0  0  0  0  0
    2.6412    0.2880    0.8280 C   0  0  0  0  0  0  0  0  0  0  0  0
    1.4340    0.2921    0.8083 C   0  0  0  0  0  0  0  0  0  0  0  0
   -0.0426    0.3194    0.7785 C   0  0  0  0  0  0  0  0  0  0  0  0
   -0.6049   -1.0506    0.4809 O   0  0  0  0  0  0  0  0  0  0  0  0
   -0.7234    0.0946   -0.4185 C   0  0  0  0  0  0  0  0  0  0  0  0
   -0.0548   -0.1837   -1.7400 C   0  0  0  0  0  0  0  0  0  0  0  0
   -2.1626    0.5326   -0.5378 C   0  0  0  0  0  0  0  0  0  0  0  0
   -3.0396   -0.1511    0.4960 C   0  0  0  0  0  0  0  0  0  0  0  0
    4.4656   -0.6094    1.4426 H   0  0  0  0  0  0  0  0  0  0  0  0
    4.5371    0.2489   -0.1678 H   0  0  0  0  0  0  0  0  0  0  0  0
    4.4024    1.2122    1.4042 H   0  0  0  0  0  0  0  0  0  0  0  0
   -0.5723    0.6642    1.6809 H   0  0  0  0  0  0  0  0  0  0  0  0
   -0.3701   -1.2218   -2.0318 H   0  0  0  0  0  0  0  0  0  0  0  0
    1.0218   -0.0452   -1.7394 H   0  0  0  0  0  0  0  0  0  0  0  0
   -0.4780    0.5574   -2.4752 H   0  0  0  0  0  0  0  0  0  0  0  0
   -2.2230    1.6214   -0.3092 H   0  0  0  0  0  0  0  0  0  0  0  0
   -2.5202    0.3077   -1.5596 H   0  0  0  0  0  0  0  0  0  0  0  0
   -3.2445    0.5037    1.3600 H   0  0  0  0  0  0  0  0  0  0  0  0
   -4.0038   -0.4173    0.0148 H   0  0  0  0  0  0  0  0  0  0  0  0
   -2.5799   -1.1200    0.8268 H   0  0  0  0  0  0  0  0  0  0  0  0
  1  2  1  0
  2  3  3  0
  3  4  1  0
  4  5  1  0
  5  6  1  0
  6  7  1  0
  6  8  1  0
  8  9  1  0
  6  4  1  0
  1 10  1  0
  1 11  1  0
  1 12  1  0
  4 13  1  0
  7 14  1  0
  7 15  1  0
  7 16  1  0
  8 17  1  0
  8 18  1  0
  9 19  1  0
  9 20  1  0
  9 21  1  0
M  END
