
     RDKit          3D

 17 17  0  0  0  0  0  0  0  0999 V2000
    1.2000   -2.9658   -1.6034 C   0  0  0  0  0  0  0  0  0  0  0  0
    0.5381   -1.7684   -1.1509 C   0  0  0  0  0  0  0  0  0  0  0  0
   -0.0212   -0.7300   -0.7423 C   0  0  0  0  0  0  0  0  0  0  0  0
   -0.6520    0.4901   -0.2582 C   0  0  0  0  0  0  0  0  0  0  0  0
    0.3310    1.5360    0.1549 C   0  0  0  0  0  0  0  0  0  0  0  0
   -0.4579    2.3387    1.1655 C   0  0  0  0  0  0  0  0  0  0  0  0
   -1.2185    1.3316    1.8077 O   0  0  0  0  0  0  0  0  0  0  0  0
   -1.4304    0.2669    0.9648 C   0  0  0  0  0  0  0  0  0  0  0  0
   -2.1576   -0.7361    1.1753 O   0  0  0  0  0  0  0  0  0  0  0  0
    0.5306   -3.5997   -2.2576 H   0  0  0  0  0  0  0  0  0  0  0  0
    2.1117   -2.6727   -2.1335 H   0  0  0  0  0  0  0  0  0  0  0  0
    1.5064   -3.5721   -0.7240 H   0  0  0  0  0  0  0  0  0  0  0  0
   -1.2576    0.8961   -1.0870 H   0  0  0  0  0  0  0  0  0  0  0  0
    0.6230    2.2101   -0.6808 H   0  0  0  0  0  0  0  0  0  0  0  0
    1.2286    1.0822    0.6367 H   0  0  0  0  0  0  0  0  0  0  0  0
    0.2233    2.8528    1.8735 H   0  0  0  0  0  0  0  0  0  0  0  0
   -1.0976    3.0403    0.5898 H   0  0  0  0  0  0  0  0  0  0  0  0
  1  2  1  0
  2  3  3  0
  3  4  1  0
  4  5  1  0
  5  6  1  0
  6  7  1  0
  7  8  1  0
  8  9  2  0
  8  4  1  0
  1 10  1  0
  1 11  1  0
  1 12  1  0
  4 13  1  0
  5 14  1  0
  5 15  1  0
  6 16  1  0
  6 17  1  0
M  END
