
     RDKit          3D

 25 24  0  0  0  0  0  0  0  0999 V2000
    0.5500    3.4727   -1.2983 C   0  0  0  0  0  0  0  0  0  0  0  0
    0.0660    2.1738   -0.8279 C   0  0  0  0  0  0  0  0  0  0  0  0
   -0.3180    1.0841   -0.4407 C   0  0  0  0  0  0  0  0  0  0  0  0
   -0.7564   -0.2333    0.0169 C   0  0  0  0  0  0  0  0  0  0  0  0
   -0.8282   -1.1475   -1.1644 C   0  0  0  0  0  0  0  0  0  0  0  0
   -1.2731   -2.5411   -0.8018 C   0  0  0  0  0  0  0  0  0  0  0  0
    0.1877   -0.6877    1.0841 C   0  0  0  0  0  0  0  0  0  0  0  0
    0.1093    0.3575    2.2063 C   0  0  0  0  0  0  0  0  0  0  0  0
    1.6123   -0.7988    0.6011 C   0  0  0  0  0  0  0  0  0  0  0  0
    1.6462    3.5799   -1.0529 H   0  0  0  0  0  0  0  0  0  0  0  0
    0.0268    4.3148   -0.8547 H   0  0  0  0  0  0  0  0  0  0  0  0
    0.4213    3.4664   -2.4053 H   0  0  0  0  0  0  0  0  0  0  0  0
   -1.7567   -0.1040    0.4639 H   0  0  0  0  0  0  0  0  0  0  0  0
    0.0991   -1.1960   -1.7281 H   0  0  0  0  0  0  0  0  0  0  0  0
   -1.6234   -0.7344   -1.8428 H   0  0  0  0  0  0  0  0  0  0  0  0
   -1.5028   -3.0708   -1.7610 H   0  0  0  0  0  0  0  0  0  0  0  0
   -0.4776   -3.1415   -0.3179 H   0  0  0  0  0  0  0  0  0  0  0  0
   -2.2206   -2.5416   -0.2264 H   0  0  0  0  0  0  0  0  0  0  0  0
   -0.1189   -1.6464    1.5645 H   0  0  0  0  0  0  0  0  0  0  0  0
    0.9254    0.2585    2.9208 H   0  0  0  0  0  0  0  0  0  0  0  0
   -0.9052    0.1856    2.6700 H   0  0  0  0  0  0  0  0  0  0  0  0
    0.0788    1.3782    1.7823 H   0  0  0  0  0  0  0  0  0  0  0  0
    2.1514   -1.6630    1.0317 H   0  0  0  0  0  0  0  0  0  0  0  0
    1.6944   -0.8758   -0.4985 H   0  0  0  0  0  0  0  0  0  0  0  0
    2.2123    0.1103    0.8791 H   0  0  0  0  0  0  0  0  0  0  0  0
  1  2  1  0
  2  3  3  0
  3  4  1  0
  4  5  1  0
  5  6  1  0
  4  7  1  0
  7  8  1  0
  7  9  1  0
  1 10  1  0
  1 11  1  0
  1 12  1  0
  4 13  1  0
  5 14  1  0
  5 15  1  0
  6 16  1  0
  6 17  1  0
  6 18  1  0
  7 19  1  0
  8 20  1  0
  8 21  1  0
  8 22  1  0
  9 23  1  0
  9 24  1  0
  9 25  1  0
M  END
