
     RDKit          3D

 19 20  0  0  0  0  0  0  0  0999 V2000
    3.2365    0.5926    1.7601 C   0  0  0  0  0  0  0  0  0  0  0  0
    1.8521    0.7031    1.2391 C   0  0  0  0  0  0  0  0  0  0  0  0
    0.6894    0.7742    0.8031 C   0  0  0  0  0  0  0  0  0  0  0  0
   -0.6672    0.8549    0.2945 C   0  0  0  0  0  0  0  0  0  0  0  0
   -1.3920   -0.4952    0.3928 C   0  0  0  0  0  0  0  0  0  0  0  0
   -1.1389   -0.6476   -1.0751 C   0  0  0  0  0  0  0  0  0  0  0  0
   -1.7880   -1.5002   -1.9204 C   0  0  0  0  0  0  0  0  0  0  0  0
   -0.4326   -1.7070   -1.5769 O   0  0  0  0  0  0  0  0  0  0  0  0
   -0.7143    0.7661   -1.1946 C   0  0  0  0  0  0  0  0  0  0  0  0
    3.8777    0.9226    0.8979 H   0  0  0  0  0  0  0  0  0  0  0  0
    3.4066    1.3298    2.5687 H   0  0  0  0  0  0  0  0  0  0  0  0
    3.4209   -0.4468    2.0034 H   0  0  0  0  0  0  0  0  0  0  0  0
   -1.2647    1.6963    0.7532 H   0  0  0  0  0  0  0  0  0  0  0  0
   -2.4369   -0.3941    0.7438 H   0  0  0  0  0  0  0  0  0  0  0  0
   -0.8491   -1.2424    0.9560 H   0  0  0  0  0  0  0  0  0  0  0  0
   -2.5531   -2.2234   -1.5041 H   0  0  0  0  0  0  0  0  0  0  0  0
   -2.0098   -1.2947   -2.9976 H   0  0  0  0  0  0  0  0  0  0  0  0
   -1.4667    1.4480   -1.6826 H   0  0  0  0  0  0  0  0  0  0  0  0
    0.2300    0.8638   -1.7551 H   0  0  0  0  0  0  0  0  0  0  0  0
  1  2  1  0
  2  3  3  0
  3  4  1  0
  4  5  1  0
  5  6  1  0
  6  7  1  0
  7  8  1  0
  6  9  1  0
  9  4  1  0
  8  6  1  0
  1 10  1  0
  1 11  1  0
  1 12  1  0
  4 13  1  0
  5 14  1  0
  5 15  1  0
  7 16  1  0
  7 17  1  0
  9 18  1  0
  9 19  1  0
M  END
