
     RDKit          3D

 17 18  0  0  0  0  0  0  0  0999 V2000
    3.2287   -0.3209   -0.9405 C   0  0  0  0  0  0  0  0  0  0  0  0
    1.7726   -0.1674   -0.7101 C   0  0  0  0  0  0  0  0  0  0  0  0
    0.5943   -0.0441   -0.5179 C   0  0  0  0  0  0  0  0  0  0  0  0
   -0.8255    0.0907   -0.2650 C   0  0  0  0  0  0  0  0  0  0  0  0
   -1.6006    0.9663   -0.9824 O   0  0  0  0  0  0  0  0  0  0  0  0
   -2.1663    1.4737    0.1903 C   0  0  0  0  0  0  0  0  0  0  0  0
   -1.3632    0.4707    1.0181 C   0  0  0  0  0  0  0  0  0  0  0  0
   -1.5080   -0.9436    0.6382 C   0  0  0  0  0  0  0  0  0  0  0  0
   -0.6579   -1.8805    1.1991 O   0  0  0  0  0  0  0  0  0  0  0  0
    3.6482   -1.1520   -0.3462 H   0  0  0  0  0  0  0  0  0  0  0  0
    3.3820   -0.4325   -2.0218 H   0  0  0  0  0  0  0  0  0  0  0  0
    3.7344    0.6324   -0.6108 H   0  0  0  0  0  0  0  0  0  0  0  0
   -3.2544    1.3052    0.2192 H   0  0  0  0  0  0  0  0  0  0  0  0
   -1.8617    2.5011    0.4463 H   0  0  0  0  0  0  0  0  0  0  0  0
   -0.8278    0.8153    1.8922 H   0  0  0  0  0  0  0  0  0  0  0  0
   -2.4257   -1.3439    0.1812 H   0  0  0  0  0  0  0  0  0  0  0  0
    0.1309   -1.9705    0.6099 H   0  0  0  0  0  0  0  0  0  0  0  0
  1  2  1  0
  2  3  3  0
  3  4  1  0
  4  5  1  0
  5  6  1  0
  6  7  1  0
  7  8  1  0
  8  9  1  0
  7  4  1  0
  8  4  1  0
  1 10  1  0
  1 11  1  0
  1 12  1  0
  6 13  1  0
  6 14  1  0
  7 15  1  0
  8 16  1  0
  9 17  1  0
M  END
