
     RDKit          3D

 21 21  0  0  0  0  0  0  0  0999 V2000
    3.8827    0.8335    0.0518 C   0  0  0  0  0  0  0  0  0  0  0  0
    2.4860    0.4161   -0.0789 C   0  0  0  0  0  0  0  0  0  0  0  0
    1.3144    0.0707   -0.1708 C   0  0  0  0  0  0  0  0  0  0  0  0
   -0.0901   -0.3192   -0.2909 C   0  0  0  0  0  0  0  0  0  0  0  0
   -0.5291   -0.7951   -1.6657 C   0  0  0  0  0  0  0  0  0  0  0  0
   -0.6250   -1.1513    0.8897 C   0  0  0  0  0  0  0  0  0  0  0  0
   -1.0927    0.2325    0.6635 C   0  0  0  0  0  0  0  0  0  0  0  0
   -2.5066    0.5018    0.1946 C   0  0  0  0  0  0  0  0  0  0  0  0
   -3.2141    1.0079    1.2845 O   0  0  0  0  0  0  0  0  0  0  0  0
    3.9903    1.6379    0.8333 H   0  0  0  0  0  0  0  0  0  0  0  0
    4.4691   -0.0589    0.3012 H   0  0  0  0  0  0  0  0  0  0  0  0
    4.1729    1.3162   -0.9032 H   0  0  0  0  0  0  0  0  0  0  0  0
    0.1150   -0.2340   -2.3997 H   0  0  0  0  0  0  0  0  0  0  0  0
   -0.2789   -1.8686   -1.8040 H   0  0  0  0  0  0  0  0  0  0  0  0
   -1.5896   -0.5621   -1.8637 H   0  0  0  0  0  0  0  0  0  0  0  0
    0.0841   -1.3638    1.7091 H   0  0  0  0  0  0  0  0  0  0  0  0
   -1.2746   -2.0141    0.6173 H   0  0  0  0  0  0  0  0  0  0  0  0
   -0.6992    1.0313    1.3348 H   0  0  0  0  0  0  0  0  0  0  0  0
   -2.9792   -0.4178   -0.2135 H   0  0  0  0  0  0  0  0  0  0  0  0
   -2.4888    1.3031   -0.5762 H   0  0  0  0  0  0  0  0  0  0  0  0
   -3.1464    0.4338    2.0868 H   0  0  0  0  0  0  0  0  0  0  0  0
  1  2  1  0
  2  3  3  0
  3  4  1  0
  4  5  1  0
  4  6  1  0
  6  7  1  0
  7  8  1  0
  8  9  1  0
  7  4  1  0
  1 10  1  0
  1 11  1  0
  1 12  1  0
  5 13  1  0
  5 14  1  0
  5 15  1  0
  6 16  1  0
  6 17  1  0
  7 18  1  0
  8 19  1  0
  8 20  1  0
  9 21  1  0
M  END
