
     RDKit          3D

 19 20  0  0  0  0  0  0  0  0999 V2000
    0.8895    1.7098    3.1596 C   0  0  0  0  0  0  0  0  0  0  0  0
    0.3307    0.6934    1.9438 C   0  0  0  0  0  0  0  0  0  0  0  0
   -0.1294   -0.1606    0.9593 C   0  0  0  0  0  0  0  0  0  0  0  0
   -0.6235   -1.1089   -0.0942 C   0  0  0  0  0  0  0  0  0  0  0  0
    0.6285   -1.9937   -0.4413 C   0  0  0  0  0  0  0  0  0  0  0  0
    0.3725   -1.7330   -1.7291 O   0  0  0  0  0  0  0  0  0  0  0  0
   -0.3394   -0.5567   -1.4653 C   0  0  0  0  0  0  0  0  0  0  0  0
    0.0783    0.7972   -1.7604 C   0  0  0  0  0  0  0  0  0  0  0  0
   -1.7244   -0.7483   -0.8737 C   0  0  0  0  0  0  0  0  0  0  0  0
   -0.0081    2.2692    3.1994 H   0  0  0  0  0  0  0  0  0  0  0  0
    1.7680    1.9439    2.6284 H   0  0  0  0  0  0  0  0  0  0  0  0
    0.9244    0.8659    3.9066 H   0  0  0  0  0  0  0  0  0  0  0  0
    1.5759   -1.4661   -0.0647 H   0  0  0  0  0  0  0  0  0  0  0  0
    0.3941   -2.8864    0.1418 H   0  0  0  0  0  0  0  0  0  0  0  0
   -0.5998    1.5604   -1.2556 H   0  0  0  0  0  0  0  0  0  0  0  0
    1.1027    1.1299   -1.6060 H   0  0  0  0  0  0  0  0  0  0  0  0
   -0.0485    0.9329   -2.9050 H   0  0  0  0  0  0  0  0  0  0  0  0
   -2.2821    0.2238   -0.7147 H   0  0  0  0  0  0  0  0  0  0  0  0
   -2.3092   -1.4729   -1.4408 H   0  0  0  0  0  0  0  0  0  0  0  0
  1  2  1  0
  2  3  3  0
  3  4  1  0
  4  5  1  0
  5  6  1  0
  6  7  1  0
  7  8  1  0
  7  9  1  0
  7  4  1  0
  9  4  1  0
  1 10  1  0
  1 11  1  0
  1 12  1  0
  5 13  1  0
  5 14  1  0
  8 15  1  0
  8 16  1  0
  8 17  1  0
  9 18  1  0
  9 19  1  0
M  END
