
     RDKit          3D

 19 19  0  0  0  0  0  0  0  0999 V2000
    2.2186    2.9388    0.2373 C   0  0  0  0  0  0  0  0  0  0  0  0
    1.5574    1.6314    0.2668 C   0  0  0  0  0  0  0  0  0  0  0  0
    1.0216    0.5266    0.2975 C   0  0  0  0  0  0  0  0  0  0  0  0
    0.3677   -0.7845    0.3170 C   0  0  0  0  0  0  0  0  0  0  0  0
   -1.0878   -0.8055    0.4522 C   0  0  0  0  0  0  0  0  0  0  0  0
   -1.7315   -1.9771    1.1610 C   0  0  0  0  0  0  0  0  0  0  0  0
   -0.3825   -1.1451   -0.8986 C   0  0  0  0  0  0  0  0  0  0  0  0
   -0.6624   -0.2154   -1.9839 C   0  0  0  0  0  0  0  0  0  0  0  0
   -0.6460    0.9859   -1.7945 O   0  0  0  0  0  0  0  0  0  0  0  0
    2.8052    3.1304    1.1648 H   0  0  0  0  0  0  0  0  0  0  0  0
    1.3904    3.7027    0.2466 H   0  0  0  0  0  0  0  0  0  0  0  0
    2.8428    3.0772   -0.6526 H   0  0  0  0  0  0  0  0  0  0  0  0
    0.9116   -1.6323    0.8204 H   0  0  0  0  0  0  0  0  0  0  0  0
   -1.6874    0.1249    0.4589 H   0  0  0  0  0  0  0  0  0  0  0  0
   -2.3089   -2.6192    0.4652 H   0  0  0  0  0  0  0  0  0  0  0  0
   -0.9240   -2.5792    1.6265 H   0  0  0  0  0  0  0  0  0  0  0  0
   -2.3688   -1.5668    1.9683 H   0  0  0  0  0  0  0  0  0  0  0  0
   -0.4261   -2.2270   -1.1756 H   0  0  0  0  0  0  0  0  0  0  0  0
   -0.8900   -0.5657   -2.9774 H   0  0  0  0  0  0  0  0  0  0  0  0
  1  2  1  0
  2  3  3  0
  3  4  1  0
  4  5  1  0
  5  6  1  0
  5  7  1  0
  7  8  1  0
  8  9  2  0
  7  4  1  0
  1 10  1  0
  1 11  1  0
  1 12  1  0
  4 13  1  0
  5 14  1  0
  6 15  1  0
  6 16  1  0
  6 17  1  0
  7 18  1  0
  8 19  1  0
M  END
