
     RDKit          3D

 15 14  0  0  0  0  0  0  0  0999 V2000
   -3.8638   -1.8763    0.2362 C   0  0  0  0  0  0  0  0  0  0  0  0
   -2.6461   -1.1888   -0.0039 C   0  0  0  0  0  0  0  0  0  0  0  0
   -1.5224   -0.5329   -0.2321 C   0  0  0  0  0  0  0  0  0  0  0  0
   -0.5483    0.0391   -0.4131 C   0  0  0  0  0  0  0  0  0  0  0  0
    0.7658    0.7862   -0.6718 C   0  0  0  0  0  0  0  0  0  0  0  0
    1.7416    1.3612   -0.8567 C   0  0  0  0  0  0  0  0  0  0  0  0
    2.2756    2.3203   -1.5446 O   0  0  0  0  0  0  0  0  0  0  0  0
    2.9464    0.7599    0.1084 C   0  0  0  0  0  0  0  0  0  0  0  0
    4.0045    1.5967    0.1386 O   0  0  0  0  0  0  0  0  0  0  0  0
   -4.4885   -1.1093    0.8329 H   0  0  0  0  0  0  0  0  0  0  0  0
   -4.4429   -2.1694   -0.6335 H   0  0  0  0  0  0  0  0  0  0  0  0
   -3.7315   -2.6659    1.0206 H   0  0  0  0  0  0  0  0  0  0  0  0
    2.4944    0.5671    1.0744 H   0  0  0  0  0  0  0  0  0  0  0  0
    3.1386   -0.2143   -0.4087 H   0  0  0  0  0  0  0  0  0  0  0  0
    3.8766    2.3263    0.8389 H   0  0  0  0  0  0  0  0  0  0  0  0
  1  2  1  0
  2  3  3  0
  3  4  1  0
  4  5  3  0
  5  6  1  0
  6  7  2  0
  6  8  1  0
  8  9  1  0
  1 10  1  0
  1 11  1  0
  1 12  1  0
  8 13  1  0
  8 14  1  0
  9 15  1  0
M  END
