
     RDKit          3D

 19 20  0  0  0  0  0  0  0  0999 V2000
    3.9163   -0.1817   -0.3245 C   0  0  0  0  0  0  0  0  0  0  0  0
    2.4753   -0.0404   -0.0254 C   0  0  0  0  0  0  0  0  0  0  0  0
    1.2995    0.0902    0.2223 C   0  0  0  0  0  0  0  0  0  0  0  0
   -0.1210    0.2672    0.5299 C   0  0  0  0  0  0  0  0  0  0  0  0
   -0.9570   -0.9717    0.6181 C   0  0  0  0  0  0  0  0  0  0  0  0
   -2.2976   -0.6717    0.0347 C   0  0  0  0  0  0  0  0  0  0  0  0
   -2.3551    0.7926   -0.2554 C   0  0  0  0  0  0  0  0  0  0  0  0
   -0.9359    1.2694   -0.1449 C   0  0  0  0  0  0  0  0  0  0  0  0
   -0.5077    1.4249    1.1796 O   0  0  0  0  0  0  0  0  0  0  0  0
    4.5110   -0.2113    0.6153 H   0  0  0  0  0  0  0  0  0  0  0  0
    4.0586   -1.1659   -0.8161 H   0  0  0  0  0  0  0  0  0  0  0  0
    4.2684    0.6147   -1.0103 H   0  0  0  0  0  0  0  0  0  0  0  0
   -0.4635   -1.7400   -0.0418 H   0  0  0  0  0  0  0  0  0  0  0  0
   -1.0148   -1.4189    1.6145 H   0  0  0  0  0  0  0  0  0  0  0  0
   -2.4731   -1.2074   -0.9402 H   0  0  0  0  0  0  0  0  0  0  0  0
   -3.0965   -1.0185    0.7361 H   0  0  0  0  0  0  0  0  0  0  0  0
   -2.8415    1.0525   -1.2103 H   0  0  0  0  0  0  0  0  0  0  0  0
   -2.9958    1.2582    0.5488 H   0  0  0  0  0  0  0  0  0  0  0  0
   -0.4696    1.8576   -0.9435 H   0  0  0  0  0  0  0  0  0  0  0  0
  1  2  1  0
  2  3  3  0
  3  4  1  0
  4  5  1  0
  5  6  1  0
  6  7  1  0
  7  8  1  0
  8  9  1  0
  8  4  1  0
  9  4  1  0
  1 10  1  0
  1 11  1  0
  1 12  1  0
  5 13  1  0
  5 14  1  0
  6 15  1  0
  6 16  1  0
  7 17  1  0
  7 18  1  0
  8 19  1  0
M  END
