
     RDKit          3D

 19 20  0  0  0  0  0  0  0  0999 V2000
    3.4866   -0.2349   -1.0718 C   0  0  0  0  0  0  0  0  0  0  0  0
    2.0911   -0.4343   -0.6092 C   0  0  0  0  0  0  0  0  0  0  0  0
    0.9647   -0.5969   -0.2196 C   0  0  0  0  0  0  0  0  0  0  0  0
   -0.3793   -0.8088    0.2649 C   0  0  0  0  0  0  0  0  0  0  0  0
   -1.4214   -0.8295   -0.8077 C   0  0  0  0  0  0  0  0  0  0  0  0
   -2.4033   -0.3968    0.2447 C   0  0  0  0  0  0  0  0  0  0  0  0
   -1.1961    0.4452    0.3955 C   0  0  0  0  0  0  0  0  0  0  0  0
   -0.9603    1.5055    1.2359 C   0  0  0  0  0  0  0  0  0  0  0  0
   -1.1496    0.5052   -1.0183 O   0  0  0  0  0  0  0  0  0  0  0  0
    3.9912    0.5654   -0.4830 H   0  0  0  0  0  0  0  0  0  0  0  0
    4.0695   -1.1708   -0.9304 H   0  0  0  0  0  0  0  0  0  0  0  0
    3.4715   -0.0076   -2.1535 H   0  0  0  0  0  0  0  0  0  0  0  0
   -0.5041   -1.5628    1.0526 H   0  0  0  0  0  0  0  0  0  0  0  0
   -1.5672   -1.5466   -1.5025 H   0  0  0  0  0  0  0  0  0  0  0  0
   -2.5159   -1.1157    1.1069 H   0  0  0  0  0  0  0  0  0  0  0  0
   -3.3325    0.0534   -0.0834 H   0  0  0  0  0  0  0  0  0  0  0  0
   -1.0515    2.5243    0.7525 H   0  0  0  0  0  0  0  0  0  0  0  0
    0.0651    1.5291    1.7055 H   0  0  0  0  0  0  0  0  0  0  0  0
   -1.6585    1.5766    2.1209 H   0  0  0  0  0  0  0  0  0  0  0  0
  1  2  1  0
  2  3  3  0
  3  4  1  0
  4  5  1  0
  5  6  1  0
  6  7  1  0
  7  8  1  0
  7  9  1  0
  7  4  1  0
  9  5  1  0
  1 10  1  0
  1 11  1  0
  1 12  1  0
  4 13  1  0
  5 14  1  0
  6 15  1  0
  6 16  1  0
  8 17  1  0
  8 18  1  0
  8 19  1  0
M  END
