
     RDKit          3D

 19 20  0  0  0  0  0  0  0  0999 V2000
    3.0855    1.3045   -0.8789 C   0  0  0  0  0  0  0  0  0  0  0  0
    1.8305    0.6691   -0.4409 C   0  0  0  0  0  0  0  0  0  0  0  0
    0.8104    0.1322   -0.0928 C   0  0  0  0  0  0  0  0  0  0  0  0
   -0.4318   -0.5391    0.3552 C   0  0  0  0  0  0  0  0  0  0  0  0
   -1.5276    0.3860    0.7284 C   0  0  0  0  0  0  0  0  0  0  0  0
   -2.1487    1.3522   -0.1274 C   0  0  0  0  0  0  0  0  0  0  0  0
   -2.7764    0.1107   -0.0087 O   0  0  0  0  0  0  0  0  0  0  0  0
   -0.2469   -1.7722    1.2630 C   0  0  0  0  0  0  0  0  0  0  0  0
   -0.6586   -1.9117   -0.1427 C   0  0  0  0  0  0  0  0  0  0  0  0
    3.5243    1.9401   -0.0873 H   0  0  0  0  0  0  0  0  0  0  0  0
    3.7461    0.4908   -1.2083 H   0  0  0  0  0  0  0  0  0  0  0  0
    2.9015    1.9341   -1.7980 H   0  0  0  0  0  0  0  0  0  0  0  0
   -1.6992    0.4744    1.8336 H   0  0  0  0  0  0  0  0  0  0  0  0
   -2.7262    2.1788    0.3362 H   0  0  0  0  0  0  0  0  0  0  0  0
   -1.7462    1.6472   -1.1300 H   0  0  0  0  0  0  0  0  0  0  0  0
   -1.0380   -1.9407    2.0394 H   0  0  0  0  0  0  0  0  0  0  0  0
    0.7809   -1.9646    1.6098 H   0  0  0  0  0  0  0  0  0  0  0  0
    0.0403   -2.2805   -0.9335 H   0  0  0  0  0  0  0  0  0  0  0  0
   -1.7201   -2.2113   -0.3482 H   0  0  0  0  0  0  0  0  0  0  0  0
  1  2  1  0
  2  3  3  0
  3  4  1  0
  4  5  1  0
  5  6  1  0
  6  7  1  0
  4  8  1  0
  8  9  1  0
  9  4  1  0
  7  5  1  0
  1 10  1  0
  1 11  1  0
  1 12  1  0
  5 13  1  0
  6 14  1  0
  6 15  1  0
  8 16  1  0
  8 17  1  0
  9 18  1  0
  9 19  1  0
M  END
