
     RDKit          3D

 21 21  0  0  0  0  0  0  0  0999 V2000
    3.6977   -0.5892   -0.0066 C   0  0  0  0  0  0  0  0  0  0  0  0
    2.4101    0.1226   -0.0554 C   0  0  0  0  0  0  0  0  0  0  0  0
    1.3543    0.6936   -0.0786 C   0  0  0  0  0  0  0  0  0  0  0  0
    0.0492    1.3878   -0.0919 C   0  0  0  0  0  0  0  0  0  0  0  0
   -0.7680    0.7893   -1.1791 C   0  0  0  0  0  0  0  0  0  0  0  0
   -2.0307    1.4236   -1.2310 O   0  0  0  0  0  0  0  0  0  0  0  0
   -2.7018    0.3941   -0.5395 C   0  0  0  0  0  0  0  0  0  0  0  0
   -1.4932   -0.4877   -0.8746 C   0  0  0  0  0  0  0  0  0  0  0  0
   -1.0675   -1.2432    0.3315 C   0  0  0  0  0  0  0  0  0  0  0  0
    3.4675   -1.6642   -0.1383 H   0  0  0  0  0  0  0  0  0  0  0  0
    4.2314   -0.3899    0.9622 H   0  0  0  0  0  0  0  0  0  0  0  0
    4.3784   -0.2643   -0.8283 H   0  0  0  0  0  0  0  0  0  0  0  0
   -0.4212    1.3955    0.8988 H   0  0  0  0  0  0  0  0  0  0  0  0
    0.2220    2.4680   -0.3582 H   0  0  0  0  0  0  0  0  0  0  0  0
   -0.2818    0.8706   -2.1488 H   0  0  0  0  0  0  0  0  0  0  0  0
   -2.7825    0.6359    0.5385 H   0  0  0  0  0  0  0  0  0  0  0  0
   -3.5979    0.0107   -1.0220 H   0  0  0  0  0  0  0  0  0  0  0  0
   -1.6264   -1.1002   -1.7726 H   0  0  0  0  0  0  0  0  0  0  0  0
   -1.9558   -1.8440    0.6855 H   0  0  0  0  0  0  0  0  0  0  0  0
   -0.7917   -0.5956    1.1660 H   0  0  0  0  0  0  0  0  0  0  0  0
   -0.2922   -2.0134    0.0999 H   0  0  0  0  0  0  0  0  0  0  0  0
  1  2  1  0
  2  3  3  0
  3  4  1  0
  4  5  1  0
  5  6  1  0
  6  7  1  0
  7  8  1  0
  8  9  1  0
  8  5  1  0
  1 10  1  0
  1 11  1  0
  1 12  1  0
  4 13  1  0
  4 14  1  0
  5 15  1  0
  7 16  1  0
  7 17  1  0
  8 18  1  0
  9 19  1  0
  9 20  1  0
  9 21  1  0
M  END
