
     RDKit          3D

 19 18  0  0  0  0  0  0  0  0999 V2000
   -3.8790    0.7062   -2.0396 C   0  0  0  0  0  0  0  0  0  0  0  0
   -2.7758    0.2870   -1.5782 C   0  0  0  0  0  0  0  0  0  0  0  0
   -1.7186   -0.1082   -1.1584 C   0  0  0  0  0  0  0  0  0  0  0  0
   -0.3115   -0.6472   -0.5708 C   0  0  0  0  0  0  0  0  0  0  0  0
    0.1248    0.2825    0.5435 C   0  0  0  0  0  0  0  0  0  0  0  0
    1.4477    0.1031    0.8509 O   0  0  0  0  0  0  0  0  0  0  0  0
    2.6122   -0.0479    1.0628 C   0  0  0  0  0  0  0  0  0  0  0  0
    3.5421   -0.2474    2.2021 C   0  0  0  0  0  0  0  0  0  0  0  0
    3.3242   -0.0282   -0.1580 O   0  0  0  0  0  0  0  0  0  0  0  0
   -4.8456    0.7126   -1.5488 H   0  0  0  0  0  0  0  0  0  0  0  0
   -3.8239    1.5329   -2.8956 H   0  0  0  0  0  0  0  0  0  0  0  0
   -4.1497   -0.1974   -2.9293 H   0  0  0  0  0  0  0  0  0  0  0  0
   -0.6467   -1.6382   -0.1106 H   0  0  0  0  0  0  0  0  0  0  0  0
    0.3681   -0.8165   -1.2919 H   0  0  0  0  0  0  0  0  0  0  0  0
   -0.3786   -0.1683    1.5834 H   0  0  0  0  0  0  0  0  0  0  0  0
   -0.3510    1.2417    0.5591 H   0  0  0  0  0  0  0  0  0  0  0  0
    3.4957   -1.3320    2.5139 H   0  0  0  0  0  0  0  0  0  0  0  0
    3.3627    0.3518    3.0977 H   0  0  0  0  0  0  0  0  0  0  0  0
    4.6029    0.0135    1.8678 H   0  0  0  0  0  0  0  0  0  0  0  0
  1  2  1  0
  2  3  3  0
  3  4  1  0
  4  5  1  0
  5  6  1  0
  6  7  1  0
  7  8  1  0
  7  9  2  0
  1 10  1  0
  1 11  1  0
  1 12  1  0
  4 13  1  0
  4 14  1  0
  5 15  1  0
  5 16  1  0
  8 17  1  0
  8 18  1  0
  8 19  1  0
M  END
