
     RDKit          3D

 16 16  0  0  0  0  0  0  0  0999 V2000
    3.5157    0.2495   -0.8527 C   0  0  0  0  0  0  0  0  0  0  0  0
    2.0843    0.1471   -0.5336 C   0  0  0  0  0  0  0  0  0  0  0  0
    0.9001    0.0696   -0.2866 C   0  0  0  0  0  0  0  0  0  0  0  0
   -0.5079   -0.0248   -0.0150 C   0  0  0  0  0  0  0  0  0  0  0  0
   -1.4672   -0.2987   -0.8752 C   0  0  0  0  0  0  0  0  0  0  0  0
   -2.7503   -0.2826   -0.1178 C   0  0  0  0  0  0  0  0  0  0  0  0
   -2.4699    0.5690    0.9623 O   0  0  0  0  0  0  0  0  0  0  0  0
   -1.1855    0.1698    1.3142 C   0  0  0  0  0  0  0  0  0  0  0  0
    3.9213   -0.7667   -1.1296 H   0  0  0  0  0  0  0  0  0  0  0  0
    4.0894    0.7167   -0.0363 H   0  0  0  0  0  0  0  0  0  0  0  0
    3.5949    0.8874   -1.7506 H   0  0  0  0  0  0  0  0  0  0  0  0
   -1.2773   -0.4876   -1.9178 H   0  0  0  0  0  0  0  0  0  0  0  0
   -3.5753    0.1469   -0.7056 H   0  0  0  0  0  0  0  0  0  0  0  0
   -3.0407   -1.2614    0.2688 H   0  0  0  0  0  0  0  0  0  0  0  0
   -0.6320    0.9596    1.8661 H   0  0  0  0  0  0  0  0  0  0  0  0
   -1.1999   -0.7938    1.8877 H   0  0  0  0  0  0  0  0  0  0  0  0
  1  2  1  0
  2  3  3  0
  3  4  1  0
  4  5  2  0
  5  6  1  0
  6  7  1  0
  7  8  1  0
  8  4  1  0
  1  9  1  0
  1 10  1  0
  1 11  1  0
  5 12  1  0
  6 13  1  0
  6 14  1  0
  8 15  1  0
  8 16  1  0
M  END
