
     RDKit          3D

 23 23  0  0  0  0  0  0  0  0999 V2000
    3.7574    0.2292   -0.0932 C   0  0  0  0  0  0  0  0  0  0  0  0
    2.3407    0.1308   -0.5178 C   0  0  0  0  0  0  0  0  0  0  0  0
    1.1899    0.0300   -0.8655 C   0  0  0  0  0  0  0  0  0  0  0  0
   -0.2063   -0.0915   -1.3141 C   0  0  0  0  0  0  0  0  0  0  0  0
   -0.8645   -1.3908   -0.8265 C   0  0  0  0  0  0  0  0  0  0  0  0
   -1.0520   -0.6732    0.5124 C   0  0  0  0  0  0  0  0  0  0  0  0
   -2.3136   -0.9959    1.2324 C   0  0  0  0  0  0  0  0  0  0  0  0
   -1.0886    0.6230   -0.3067 C   0  0  0  0  0  0  0  0  0  0  0  0
   -0.4926    1.8104    0.3610 C   0  0  0  0  0  0  0  0  0  0  0  0
    4.2481    1.0683   -0.6304 H   0  0  0  0  0  0  0  0  0  0  0  0
    3.8196    0.3158    1.0052 H   0  0  0  0  0  0  0  0  0  0  0  0
    4.3152   -0.6917   -0.3702 H   0  0  0  0  0  0  0  0  0  0  0  0
   -0.3934    0.1371   -2.3617 H   0  0  0  0  0  0  0  0  0  0  0  0
   -0.1999   -2.2496   -0.7660 H   0  0  0  0  0  0  0  0  0  0  0  0
   -1.8134   -1.5353   -1.3424 H   0  0  0  0  0  0  0  0  0  0  0  0
   -0.1408   -0.7728    1.1110 H   0  0  0  0  0  0  0  0  0  0  0  0
   -2.0515   -1.5366    2.1655 H   0  0  0  0  0  0  0  0  0  0  0  0
   -2.8001   -0.0228    1.5302 H   0  0  0  0  0  0  0  0  0  0  0  0
   -3.0157   -1.6004    0.6537 H   0  0  0  0  0  0  0  0  0  0  0  0
   -2.1012    0.7546   -0.7575 H   0  0  0  0  0  0  0  0  0  0  0  0
    0.5216    2.0829   -0.0026 H   0  0  0  0  0  0  0  0  0  0  0  0
   -1.1422    2.6995    0.1088 H   0  0  0  0  0  0  0  0  0  0  0  0
   -0.5166    1.6789    1.4743 H   0  0  0  0  0  0  0  0  0  0  0  0
  1  2  1  0
  2  3  3  0
  3  4  1  0
  4  5  1  0
  5  6  1  0
  6  7  1  0
  6  8  1  0
  8  9  1  0
  8  4  1  0
  1 10  1  0
  1 11  1  0
  1 12  1  0
  4 13  1  0
  5 14  1  0
  5 15  1  0
  6 16  1  0
  7 17  1  0
  7 18  1  0
  7 19  1  0
  8 20  1  0
  9 21  1  0
  9 22  1  0
  9 23  1  0
M  END
