
     RDKit          3D

 21 20  0  0  0  0  0  0  0  0999 V2000
    2.6440   -1.9616   -0.8853 C   0  0  0  0  0  0  0  0  0  0  0  0
    1.4362   -1.1841   -0.6031 C   0  0  0  0  0  0  0  0  0  0  0  0
    0.4285   -0.5464   -0.3662 C   0  0  0  0  0  0  0  0  0  0  0  0
   -0.7965    0.2210   -0.1042 C   0  0  0  0  0  0  0  0  0  0  0  0
   -0.8192    1.4705   -0.9752 C   0  0  0  0  0  0  0  0  0  0  0  0
   -1.9741   -0.6881   -0.4503 C   0  0  0  0  0  0  0  0  0  0  0  0
   -0.8554    0.5240    1.3304 C   0  0  0  0  0  0  0  0  0  0  0  0
    0.2534    1.3233    1.9320 C   0  0  0  0  0  0  0  0  0  0  0  0
   -1.7574    0.1626    2.0670 O   0  0  0  0  0  0  0  0  0  0  0  0
    2.6399   -2.9400   -0.3717 H   0  0  0  0  0  0  0  0  0  0  0  0
    2.6867   -2.1193   -1.9962 H   0  0  0  0  0  0  0  0  0  0  0  0
    3.5023   -1.3219   -0.5972 H   0  0  0  0  0  0  0  0  0  0  0  0
   -1.5156    2.2244   -0.5533 H   0  0  0  0  0  0  0  0  0  0  0  0
    0.1947    1.9060   -1.0799 H   0  0  0  0  0  0  0  0  0  0  0  0
   -1.1336    1.1680   -1.9962 H   0  0  0  0  0  0  0  0  0  0  0  0
   -2.8823   -0.1262   -0.6517 H   0  0  0  0  0  0  0  0  0  0  0  0
   -2.0856   -1.3668    0.4387 H   0  0  0  0  0  0  0  0  0  0  0  0
   -1.6476   -1.3091   -1.3122 H   0  0  0  0  0  0  0  0  0  0  0  0
    1.1969    1.1542    1.3480 H   0  0  0  0  0  0  0  0  0  0  0  0
    0.0041    2.3962    1.8530 H   0  0  0  0  0  0  0  0  0  0  0  0
    0.4803    1.0132    2.9735 H   0  0  0  0  0  0  0  0  0  0  0  0
  1  2  1  0
  2  3  3  0
  3  4  1  0
  4  5  1  0
  4  6  1  0
  4  7  1  0
  7  8  1  0
  7  9  2  0
  1 10  1  0
  1 11  1  0
  1 12  1  0
  5 13  1  0
  5 14  1  0
  5 15  1  0
  6 16  1  0
  6 17  1  0
  6 18  1  0
  8 19  1  0
  8 20  1  0
  8 21  1  0
M  END
