
     RDKit          3D

 15 15  0  0  0  0  0  0  0  0999 V2000
   -2.9305   -1.4181   -0.0001 C   0  0  0  0  0  0  0  0  0  0  0  0
   -1.6294   -0.8011   -0.2698 C   0  0  0  0  0  0  0  0  0  0  0  0
   -0.5523   -0.2667   -0.4959 C   0  0  0  0  0  0  0  0  0  0  0  0
    0.7282    0.3866   -0.7463 C   0  0  0  0  0  0  0  0  0  0  0  0
    1.1875    0.9957    0.5533 C   0  0  0  0  0  0  0  0  0  0  0  0
    2.5175    1.7155    0.4464 C   0  0  0  0  0  0  0  0  0  0  0  0
    1.2582    2.3981    0.6417 O   0  0  0  0  0  0  0  0  0  0  0  0
   -3.7268   -0.6641    0.1425 H   0  0  0  0  0  0  0  0  0  0  0  0
   -2.8069   -2.0804    0.9007 H   0  0  0  0  0  0  0  0  0  0  0  0
   -3.2658   -2.0564   -0.8585 H   0  0  0  0  0  0  0  0  0  0  0  0
    1.4858   -0.3135   -1.1420 H   0  0  0  0  0  0  0  0  0  0  0  0
    0.6469    1.2135   -1.4799 H   0  0  0  0  0  0  0  0  0  0  0  0
    0.9624    0.5151    1.5057 H   0  0  0  0  0  0  0  0  0  0  0  0
    3.1560    1.7729    1.3551 H   0  0  0  0  0  0  0  0  0  0  0  0
    2.9692    1.8749   -0.5528 H   0  0  0  0  0  0  0  0  0  0  0  0
  1  2  1  0
  2  3  3  0
  3  4  1  0
  4  5  1  0
  5  6  1  0
  6  7  1  0
  7  5  1  0
  1  8  1  0
  1  9  1  0
  1 10  1  0
  4 11  1  0
  4 12  1  0
  5 13  1  0
  6 14  1  0
  6 15  1  0
M  END
