
     RDKit          3D

 17 17  0  0  0  0  0  0  0  0999 V2000
    3.4193    0.5935    0.3482 C   0  0  0  0  0  0  0  0  0  0  0  0
    2.0520    0.0907    0.2010 C   0  0  0  0  0  0  0  0  0  0  0  0
    0.9156   -0.3175    0.0894 C   0  0  0  0  0  0  0  0  0  0  0  0
   -0.4679   -0.8032   -0.0283 C   0  0  0  0  0  0  0  0  0  0  0  0
   -1.3261   -0.3337    1.0741 C   0  0  0  0  0  0  0  0  0  0  0  0
   -2.4432    0.1904    0.6052 C   0  0  0  0  0  0  0  0  0  0  0  0
   -2.4867    0.1454   -0.8432 C   0  0  0  0  0  0  0  0  0  0  0  0
   -3.4422    0.3304   -1.6362 O   0  0  0  0  0  0  0  0  0  0  0  0
   -1.1012   -0.1827   -1.2805 C   0  0  0  0  0  0  0  0  0  0  0  0
    3.4836    1.6803    0.0838 H   0  0  0  0  0  0  0  0  0  0  0  0
    3.7360    0.4064    1.3796 H   0  0  0  0  0  0  0  0  0  0  0  0
    4.1236    0.0408   -0.3406 H   0  0  0  0  0  0  0  0  0  0  0  0
   -0.4772   -1.9047   -0.1483 H   0  0  0  0  0  0  0  0  0  0  0  0
   -1.0471   -0.4218    2.1291 H   0  0  0  0  0  0  0  0  0  0  0  0
   -3.2761    0.6235    1.1806 H   0  0  0  0  0  0  0  0  0  0  0  0
   -0.5426    0.7535   -1.5438 H   0  0  0  0  0  0  0  0  0  0  0  0
   -1.1198   -0.8911   -2.1211 H   0  0  0  0  0  0  0  0  0  0  0  0
  1  2  1  0
  2  3  3  0
  3  4  1  0
  4  5  1  0
  5  6  2  0
  6  7  1  0
  7  8  2  0
  7  9  1  0
  9  4  1  0
  1 10  1  0
  1 11  1  0
  1 12  1  0
  4 13  1  0
  5 14  1  0
  6 15  1  0
  9 16  1  0
  9 17  1  0
M  END
