
     RDKit          3D

 21 21  0  0  0  0  0  0  0  0999 V2000
    3.8439   -0.2792   -0.1111 C   0  0  0  0  0  0  0  0  0  0  0  0
    2.4901    0.2564   -0.2773 C   0  0  0  0  0  0  0  0  0  0  0  0
    1.3671    0.7204   -0.4058 C   0  0  0  0  0  0  0  0  0  0  0  0
    0.0191    1.2707   -0.5657 C   0  0  0  0  0  0  0  0  0  0  0  0
   -0.9133    1.2555    0.6172 C   0  0  0  0  0  0  0  0  0  0  0  0
   -1.8016    2.3059    0.8050 O   0  0  0  0  0  0  0  0  0  0  0  0
   -1.1326    0.3600   -0.6094 C   0  0  0  0  0  0  0  0  0  0  0  0
   -1.0147   -1.1017   -0.3286 C   0  0  0  0  0  0  0  0  0  0  0  0
   -2.4071   -1.7090   -0.4692 C   0  0  0  0  0  0  0  0  0  0  0  0
    4.5501    0.5096    0.2569 H   0  0  0  0  0  0  0  0  0  0  0  0
    4.2157   -0.7452   -1.0491 H   0  0  0  0  0  0  0  0  0  0  0  0
    3.8415   -1.0662    0.6539 H   0  0  0  0  0  0  0  0  0  0  0  0
   -0.0293    2.2085   -1.1546 H   0  0  0  0  0  0  0  0  0  0  0  0
   -0.4808    0.7944    1.5195 H   0  0  0  0  0  0  0  0  0  0  0  0
   -1.2881    3.0386    1.2363 H   0  0  0  0  0  0  0  0  0  0  0  0
   -1.9682    0.6570   -1.2885 H   0  0  0  0  0  0  0  0  0  0  0  0
   -0.6785   -1.3214    0.7157 H   0  0  0  0  0  0  0  0  0  0  0  0
   -0.3179   -1.6291   -1.0186 H   0  0  0  0  0  0  0  0  0  0  0  0
   -3.0579   -1.0353   -1.0870 H   0  0  0  0  0  0  0  0  0  0  0  0
   -2.8824   -1.7714    0.5309 H   0  0  0  0  0  0  0  0  0  0  0  0
   -2.3553   -2.7184   -0.9135 H   0  0  0  0  0  0  0  0  0  0  0  0
  1  2  1  0
  2  3  3  0
  3  4  1  0
  4  5  1  0
  5  6  1  0
  5  7  1  0
  7  8  1  0
  8  9  1  0
  7  4  1  0
  1 10  1  0
  1 11  1  0
  1 12  1  0
  4 13  1  0
  5 14  1  0
  6 15  1  0
  7 16  1  0
  8 17  1  0
  8 18  1  0
  9 19  1  0
  9 20  1  0
  9 21  1  0
M  END
