
     RDKit          3D

 17 17  0  0  0  0  0  0  0  0999 V2000
    1.8285    1.8377    1.8314 C   0  0  0  0  0  0  0  0  0  0  0  0
    1.1275    0.7346    1.1346 C   0  0  0  0  0  0  0  0  0  0  0  0
    0.5506   -0.1710    0.5388 C   0  0  0  0  0  0  0  0  0  0  0  0
   -0.1447   -1.2168   -0.1642 C   0  0  0  0  0  0  0  0  0  0  0  0
    0.2241   -1.4266   -1.6001 C   0  0  0  0  0  0  0  0  0  0  0  0
   -0.8048   -0.6240   -2.0589 O   0  0  0  0  0  0  0  0  0  0  0  0
   -1.3999   -0.7408   -0.8056 C   0  0  0  0  0  0  0  0  0  0  0  0
   -1.9656    0.5204   -0.3339 C   0  0  0  0  0  0  0  0  0  0  0  0
   -1.8888    1.5157   -1.0226 O   0  0  0  0  0  0  0  0  0  0  0  0
    2.0151    2.6356    1.1141 H   0  0  0  0  0  0  0  0  0  0  0  0
    1.2410    2.1556    2.7328 H   0  0  0  0  0  0  0  0  0  0  0  0
    2.8028    1.4576    2.2405 H   0  0  0  0  0  0  0  0  0  0  0  0
   -0.2756   -2.1567    0.4237 H   0  0  0  0  0  0  0  0  0  0  0  0
    1.1923   -1.0505   -1.9500 H   0  0  0  0  0  0  0  0  0  0  0  0
    0.1184   -2.5053   -1.8853 H   0  0  0  0  0  0  0  0  0  0  0  0
   -2.1626   -1.5635   -0.8185 H   0  0  0  0  0  0  0  0  0  0  0  0
   -2.4581    0.5982    0.6233 H   0  0  0  0  0  0  0  0  0  0  0  0
  1  2  1  0
  2  3  3  0
  3  4  1  0
  4  5  1  0
  5  6  1  0
  6  7  1  0
  7  8  1  0
  8  9  2  0
  7  4  1  0
  1 10  1  0
  1 11  1  0
  1 12  1  0
  4 13  1  0
  5 14  1  0
  5 15  1  0
  7 16  1  0
  8 17  1  0
M  END
