
     RDKit          3D

 15 16  0  0  0  0  0  0  0  0999 V2000
    3.0805    1.0209   -0.3365 C   0  0  0  0  0  0  0  0  0  0  0  0
    1.6305    0.6775   -0.1767 C   0  0  0  0  0  0  0  0  0  0  0  0
    0.4009    0.4084   -0.0465 C   0  0  0  0  0  0  0  0  0  0  0  0
   -0.9398    0.1290    0.0753 C   0  0  0  0  0  0  0  0  0  0  0  0
   -1.4615   -1.2294   -0.3502 C   0  0  0  0  0  0  0  0  0  0  0  0
   -0.9964   -2.0435   -1.0634 O   0  0  0  0  0  0  0  0  0  0  0  0
   -2.5610   -0.8006    0.5134 C   0  0  0  0  0  0  0  0  0  0  0  0
   -2.6051   -0.6833    1.8283 O   0  0  0  0  0  0  0  0  0  0  0  0
   -1.3629   -0.4071    1.4267 C   0  0  0  0  0  0  0  0  0  0  0  0
    3.6817    0.2673    0.2152 H   0  0  0  0  0  0  0  0  0  0  0  0
    3.2545    2.0122    0.1038 H   0  0  0  0  0  0  0  0  0  0  0  0
    3.3011    0.9211   -1.4048 H   0  0  0  0  0  0  0  0  0  0  0  0
   -1.6630    0.9337   -0.2961 H   0  0  0  0  0  0  0  0  0  0  0  0
   -3.0967    0.0597    0.0109 H   0  0  0  0  0  0  0  0  0  0  0  0
   -0.6626   -1.2660    1.6814 H   0  0  0  0  0  0  0  0  0  0  0  0
  1  2  1  0
  2  3  3  0
  3  4  1  0
  4  5  1  0
  5  6  2  0
  5  7  1  0
  7  8  1  0
  8  9  1  0
  9  4  1  0
  9  7  1  0
  1 10  1  0
  1 11  1  0
  1 12  1  0
  4 13  1  0
  7 14  1  0
  9 15  1  0
M  END
