
     RDKit          3D

 13 12  0  0  0  0  0  0  0  0999 V2000
    3.6044    0.3525    0.3622 C   0  0  0  0  0  0  0  0  0  0  0  0
    2.1601    0.1443    0.2080 C   0  0  0  0  0  0  0  0  0  0  0  0
    0.9616   -0.0396    0.0620 C   0  0  0  0  0  0  0  0  0  0  0  0
   -0.4249   -0.2585   -0.1034 C   0  0  0  0  0  0  0  0  0  0  0  0
   -1.6240   -0.4315   -0.2322 C   0  0  0  0  0  0  0  0  0  0  0  0
   -3.0556   -0.6153   -0.3743 C   0  0  0  0  0  0  0  0  0  0  0  0
   -3.5704    0.5654   -0.9349 O   0  0  0  0  0  0  0  0  0  0  0  0
    3.9626    1.1623   -0.3238 H   0  0  0  0  0  0  0  0  0  0  0  0
    3.7928    0.6051    1.4191 H   0  0  0  0  0  0  0  0  0  0  0  0
    4.1352   -0.5737    0.0330 H   0  0  0  0  0  0  0  0  0  0  0  0
   -3.5713   -0.7060    0.6233 H   0  0  0  0  0  0  0  0  0  0  0  0
   -3.3202   -1.5104   -0.9685 H   0  0  0  0  0  0  0  0  0  0  0  0
   -3.0504    1.3054   -0.5172 H   0  0  0  0  0  0  0  0  0  0  0  0
  1  2  1  0
  2  3  3  0
  3  4  1  0
  4  5  3  0
  5  6  1  0
  6  7  1  0
  1  8  1  0
  1  9  1  0
  1 10  1  0
  6 11  1  0
  6 12  1  0
  7 13  1  0
M  END
