
     RDKit          3D

 17 19  0  0  0  0  0  0  0  0999 V2000
    3.3278    0.4456   -1.5312 C   0  0  0  0  0  0  0  0  0  0  0  0
    2.0525    0.4360   -0.8118 C   0  0  0  0  0  0  0  0  0  0  0  0
    1.0039    0.4105   -0.2068 C   0  0  0  0  0  0  0  0  0  0  0  0
   -0.2655    0.3764    0.4968 C   0  0  0  0  0  0  0  0  0  0  0  0
   -0.4111    1.0181    1.7060 O   0  0  0  0  0  0  0  0  0  0  0  0
   -0.5317   -0.3455    1.6142 C   0  0  0  0  0  0  0  0  0  0  0  0
   -1.8825   -0.8216    1.1005 C   0  0  0  0  0  0  0  0  0  0  0  0
   -2.7785    0.1324    0.4236 C   0  0  0  0  0  0  0  0  0  0  0  0
   -1.4834   -0.1178   -0.2397 C   0  0  0  0  0  0  0  0  0  0  0  0
    3.4649   -0.5760   -1.9487 H   0  0  0  0  0  0  0  0  0  0  0  0
    4.1694    0.6893   -0.8485 H   0  0  0  0  0  0  0  0  0  0  0  0
    3.3290    1.2119   -2.3448 H   0  0  0  0  0  0  0  0  0  0  0  0
    0.0331   -1.0277    2.2588 H   0  0  0  0  0  0  0  0  0  0  0  0
   -2.1016   -1.8899    1.0457 H   0  0  0  0  0  0  0  0  0  0  0  0
   -3.6660   -0.2948   -0.0681 H   0  0  0  0  0  0  0  0  0  0  0  0
   -2.9195    1.1645    0.8307 H   0  0  0  0  0  0  0  0  0  0  0  0
   -1.3408   -0.8116   -1.0619 H   0  0  0  0  0  0  0  0  0  0  0  0
  1  2  1  0
  2  3  3  0
  3  4  1  0
  4  5  1  0
  5  6  1  0
  6  7  1  0
  7  8  1  0
  8  9  1  0
  6  4  1  0
  9  7  1  0
  9  4  1  0
  1 10  1  0
  1 11  1  0
  1 12  1  0
  6 13  1  0
  7 14  1  0
  8 15  1  0
  8 16  1  0
  9 17  1  0
M  END
