
     RDKit          3D

 19 19  0  0  0  0  0  0  0  0999 V2000
    4.0956    0.2265   -0.8169 C   0  0  0  0  0  0  0  0  0  0  0  0
    2.6657    0.1340   -0.5210 C   0  0  0  0  0  0  0  0  0  0  0  0
    1.4793    0.0363   -0.2724 C   0  0  0  0  0  0  0  0  0  0  0  0
    0.0776   -0.0582    0.0345 C   0  0  0  0  0  0  0  0  0  0  0  0
   -0.6102    0.4409    1.0407 C   0  0  0  0  0  0  0  0  0  0  0  0
   -2.0506    0.0997    0.9739 C   0  0  0  0  0  0  0  0  0  0  0  0
   -2.8409    1.1423    1.4303 O   0  0  0  0  0  0  0  0  0  0  0  0
   -2.2522   -0.2271   -0.4694 C   0  0  0  0  0  0  0  0  0  0  0  0
   -0.8936   -0.8105   -0.8382 C   0  0  0  0  0  0  0  0  0  0  0  0
    4.7009    0.0810    0.0952 H   0  0  0  0  0  0  0  0  0  0  0  0
    4.4271   -0.5505   -1.5404 H   0  0  0  0  0  0  0  0  0  0  0  0
    4.2823    1.2060   -1.3039 H   0  0  0  0  0  0  0  0  0  0  0  0
   -0.1261    1.0315    1.8091 H   0  0  0  0  0  0  0  0  0  0  0  0
   -2.1779   -0.8252    1.6106 H   0  0  0  0  0  0  0  0  0  0  0  0
   -3.7372    0.8481    1.6937 H   0  0  0  0  0  0  0  0  0  0  0  0
   -3.0590   -0.9590   -0.5935 H   0  0  0  0  0  0  0  0  0  0  0  0
   -2.4519    0.7077   -1.0164 H   0  0  0  0  0  0  0  0  0  0  0  0
   -0.8431   -1.8616   -0.4995 H   0  0  0  0  0  0  0  0  0  0  0  0
   -0.6858   -0.6618   -1.9000 H   0  0  0  0  0  0  0  0  0  0  0  0
  1  2  1  0
  2  3  3  0
  3  4  1  0
  4  5  2  0
  5  6  1  0
  6  7  1  0
  6  8  1  0
  8  9  1  0
  9  4  1  0
  1 10  1  0
  1 11  1  0
  1 12  1  0
  5 13  1  0
  6 14  1  0
  7 15  1  0
  8 16  1  0
  8 17  1  0
  9 18  1  0
  9 19  1  0
M  END
