
     RDKit          3D

 19 19  0  0  0  0  0  0  0  0999 V2000
    1.0650    1.1609    3.1411 C   0  0  0  0  0  0  0  0  0  0  0  0
    0.6255    0.8558    1.9293 C   0  0  0  0  0  0  0  0  0  0  0  0
    0.1420    0.5049    0.5194 C   0  0  0  0  0  0  0  0  0  0  0  0
   -0.2183    0.2574   -0.5396 C   0  0  0  0  0  0  0  0  0  0  0  0
   -1.2435    1.3477   -0.9527 O   0  0  0  0  0  0  0  0  0  0  0  0
   -1.1223   -1.0324   -0.6770 C   0  0  0  0  0  0  0  0  0  0  0  0
   -0.3114   -1.8597   -1.6032 C   0  0  0  0  0  0  0  0  0  0  0  0
    0.4991   -1.0222   -2.3494 O   0  0  0  0  0  0  0  0  0  0  0  0
    0.5929    0.2136   -1.8150 C   0  0  0  0  0  0  0  0  0  0  0  0
    1.0834    0.1863    3.8253 H   0  0  0  0  0  0  0  0  0  0  0  0
    2.1994    1.4702    3.1336 H   0  0  0  0  0  0  0  0  0  0  0  0
    0.4766    1.9405    3.7339 H   0  0  0  0  0  0  0  0  0  0  0  0
   -1.4909    1.8063   -0.0940 H   0  0  0  0  0  0  0  0  0  0  0  0
   -1.2932   -1.4864    0.3383 H   0  0  0  0  0  0  0  0  0  0  0  0
   -2.0411   -0.7084   -1.1283 H   0  0  0  0  0  0  0  0  0  0  0  0
    0.2739   -2.6210   -0.9708 H   0  0  0  0  0  0  0  0  0  0  0  0
   -0.9847   -2.4505   -2.3220 H   0  0  0  0  0  0  0  0  0  0  0  0
    1.6345    0.4761   -1.6023 H   0  0  0  0  0  0  0  0  0  0  0  0
    0.1129    0.9611   -2.5666 H   0  0  0  0  0  0  0  0  0  0  0  0
  1  2  1  0
  2  3  3  0
  3  4  1  0
  4  5  1  0
  4  6  1  0
  6  7  1  0
  7  8  1  0
  8  9  1  0
  9  4  1  0
  1 10  1  0
  1 11  1  0
  1 12  1  0
  5 13  1  0
  6 14  1  0
  6 15  1  0
  7 16  1  0
  7 17  1  0
  9 18  1  0
  9 19  1  0
M  END
