
     RDKit          3D

 19 18  0  0  0  0  0  0  0  0999 V2000
    1.5518    1.3505    2.7682 C   0  0  0  0  0  0  0  0  0  0  0  0
    0.7679    0.8576    1.6707 C   0  0  0  0  0  0  0  0  0  0  0  0
    0.0810    0.4022    0.6783 C   0  0  0  0  0  0  0  0  0  0  0  0
   -0.6944   -0.0980   -0.3985 C   0  0  0  0  0  0  0  0  0  0  0  0
    0.1618   -0.5129   -1.5889 C   0  0  0  0  0  0  0  0  0  0  0  0
    1.1396   -1.5967   -1.1766 C   0  0  0  0  0  0  0  0  0  0  0  0
   -1.6067    0.9097   -0.8461 O   0  0  0  0  0  0  0  0  0  0  0  0
   -2.9698    0.6079   -0.9025 C   0  0  0  0  0  0  0  0  0  0  0  0
   -3.3063   -0.5435   -0.5504 O   0  0  0  0  0  0  0  0  0  0  0  0
    0.9576    2.0429    3.4326 H   0  0  0  0  0  0  0  0  0  0  0  0
    1.9172    0.5333    3.4440 H   0  0  0  0  0  0  0  0  0  0  0  0
    2.4635    1.8587    2.3870 H   0  0  0  0  0  0  0  0  0  0  0  0
   -1.2648   -1.0398   -0.1438 H   0  0  0  0  0  0  0  0  0  0  0  0
    0.7188    0.3028   -2.0399 H   0  0  0  0  0  0  0  0  0  0  0  0
   -0.5109   -0.9662   -2.3394 H   0  0  0  0  0  0  0  0  0  0  0  0
    2.1370   -1.4018   -1.6609 H   0  0  0  0  0  0  0  0  0  0  0  0
    0.8237   -2.6113   -1.4185 H   0  0  0  0  0  0  0  0  0  0  0  0
    1.3348   -1.4304   -0.0800 H   0  0  0  0  0  0  0  0  0  0  0  0
   -3.7018    1.3350   -1.2352 H   0  0  0  0  0  0  0  0  0  0  0  0
  1  2  1  0
  2  3  3  0
  3  4  1  0
  4  5  1  0
  5  6  1  0
  4  7  1  0
  7  8  1  0
  8  9  2  0
  1 10  1  0
  1 11  1  0
  1 12  1  0
  4 13  1  0
  5 14  1  0
  5 15  1  0
  6 16  1  0
  6 17  1  0
  6 18  1  0
  8 19  1  0
M  END
