
     RDKit          3D

 21 21  0  0  0  0  0  0  0  0999 V2000
    0.7103   -0.5819   -4.1786 C   0  0  0  0  0  0  0  0  0  0  0  0
    0.8839   -0.4462   -2.7458 C   0  0  0  0  0  0  0  0  0  0  0  0
    1.0468   -0.3148   -1.5256 C   0  0  0  0  0  0  0  0  0  0  0  0
    1.2294   -0.1743   -0.0856 C   0  0  0  0  0  0  0  0  0  0  0  0
   -0.0282   -0.5621    0.6499 C   0  0  0  0  0  0  0  0  0  0  0  0
   -1.2016    0.2451    0.2986 O   0  0  0  0  0  0  0  0  0  0  0  0
   -0.6215    0.2173    1.6666 C   0  0  0  0  0  0  0  0  0  0  0  0
   -1.5943   -0.4437    2.6078 C   0  0  0  0  0  0  0  0  0  0  0  0
   -0.1802    1.5922    2.0388 C   0  0  0  0  0  0  0  0  0  0  0  0
   -0.2728   -0.1112   -4.4356 H   0  0  0  0  0  0  0  0  0  0  0  0
    0.6989   -1.6372   -4.5082 H   0  0  0  0  0  0  0  0  0  0  0  0
    1.4824   -0.0280   -4.7579 H   0  0  0  0  0  0  0  0  0  0  0  0
    1.5550    0.8683    0.1775 H   0  0  0  0  0  0  0  0  0  0  0  0
    2.0863   -0.8195    0.1954 H   0  0  0  0  0  0  0  0  0  0  0  0
   -0.3041   -1.6289    0.5370 H   0  0  0  0  0  0  0  0  0  0  0  0
   -1.1423   -1.4507    2.8481 H   0  0  0  0  0  0  0  0  0  0  0  0
   -2.5749   -0.5957    2.1700 H   0  0  0  0  0  0  0  0  0  0  0  0
   -1.6476    0.1177    3.5711 H   0  0  0  0  0  0  0  0  0  0  0  0
   -0.2009    2.3291    1.2147 H   0  0  0  0  0  0  0  0  0  0  0  0
    0.8649    1.4873    2.4560 H   0  0  0  0  0  0  0  0  0  0  0  0
   -0.7896    1.9371    2.8974 H   0  0  0  0  0  0  0  0  0  0  0  0
  1  2  1  0
  2  3  3  0
  3  4  1  0
  4  5  1  0
  5  6  1  0
  6  7  1  0
  7  8  1  0
  7  9  1  0
  7  5  1  0
  1 10  1  0
  1 11  1  0
  1 12  1  0
  4 13  1  0
  4 14  1  0
  5 15  1  0
  8 16  1  0
  8 17  1  0
  8 18  1  0
  9 19  1  0
  9 20  1  0
  9 21  1  0
M  END
