
     RDKit          3D

 17 18  0  0  0  0  0  0  0  0999 V2000
    3.5470    0.2905    0.3558 C   0  0  0  0  0  0  0  0  0  0  0  0
    2.1027    0.3500    0.3932 C   0  0  0  0  0  0  0  0  0  0  0  0
    0.8787    0.4059    0.4042 C   0  0  0  0  0  0  0  0  0  0  0  0
   -0.5769    0.4575    0.4378 C   0  0  0  0  0  0  0  0  0  0  0  0
   -1.2392   -0.7720    0.9183 C   0  0  0  0  0  0  0  0  0  0  0  0
   -1.3074   -1.4535    1.9279 O   0  0  0  0  0  0  0  0  0  0  0  0
   -1.8822   -0.9258   -0.4147 C   0  0  0  0  0  0  0  0  0  0  0  0
   -2.6166    0.2072   -1.0354 C   0  0  0  0  0  0  0  0  0  0  0  0
   -1.1534    0.2494   -0.9466 C   0  0  0  0  0  0  0  0  0  0  0  0
    4.0091    1.1727   -0.1392 H   0  0  0  0  0  0  0  0  0  0  0  0
    3.9605    0.1796    1.3813 H   0  0  0  0  0  0  0  0  0  0  0  0
    3.8531   -0.6363   -0.2064 H   0  0  0  0  0  0  0  0  0  0  0  0
   -1.0036    1.3885    0.8717 H   0  0  0  0  0  0  0  0  0  0  0  0
   -1.7665   -1.8825   -0.9438 H   0  0  0  0  0  0  0  0  0  0  0  0
   -3.1711    0.9163   -0.3615 H   0  0  0  0  0  0  0  0  0  0  0  0
   -3.1617   -0.0196   -1.9509 H   0  0  0  0  0  0  0  0  0  0  0  0
   -0.4725    0.0720   -1.7777 H   0  0  0  0  0  0  0  0  0  0  0  0
  1  2  1  0
  2  3  3  0
  3  4  1  0
  4  5  1  0
  5  6  2  0
  5  7  1  0
  7  8  1  0
  8  9  1  0
  9  4  1  0
  9  7  1  0
  1 10  1  0
  1 11  1  0
  1 12  1  0
  4 13  1  0
  7 14  1  0
  8 15  1  0
  8 16  1  0
  9 17  1  0
M  END
