
     RDKit          3D

 17 17  0  0  0  0  0  0  0  0999 V2000
    4.4140   -0.5565   -1.7030 C   0  0  0  0  0  0  0  0  0  0  0  0
    3.0020   -0.3798   -1.3036 C   0  0  0  0  0  0  0  0  0  0  0  0
    1.8498   -0.2356   -0.9774 C   0  0  0  0  0  0  0  0  0  0  0  0
    0.5032   -0.0426   -0.5930 C   0  0  0  0  0  0  0  0  0  0  0  0
   -0.6561    0.1323   -0.2414 C   0  0  0  0  0  0  0  0  0  0  0  0
   -2.0286    0.3303    0.1529 C   0  0  0  0  0  0  0  0  0  0  0  0
   -2.3920   -0.4335    1.4070 C   0  0  0  0  0  0  0  0  0  0  0  0
   -2.8893    0.9238    1.8583 C   0  0  0  0  0  0  0  0  0  0  0  0
   -2.1436    1.5612    0.8393 O   0  0  0  0  0  0  0  0  0  0  0  0
    5.0782   -0.2826   -0.8692 H   0  0  0  0  0  0  0  0  0  0  0  0
    4.6347   -1.5925   -1.9770 H   0  0  0  0  0  0  0  0  0  0  0  0
    4.5466    0.0682   -2.6083 H   0  0  0  0  0  0  0  0  0  0  0  0
   -2.7444    0.2837   -0.6713 H   0  0  0  0  0  0  0  0  0  0  0  0
   -3.1708   -1.2000    1.2588 H   0  0  0  0  0  0  0  0  0  0  0  0
   -1.5133   -0.8228    1.9727 H   0  0  0  0  0  0  0  0  0  0  0  0
   -2.5104    1.2698    2.8337 H   0  0  0  0  0  0  0  0  0  0  0  0
   -3.9799    0.9764    1.7242 H   0  0  0  0  0  0  0  0  0  0  0  0
  1  2  1  0
  2  3  3  0
  3  4  1  0
  4  5  3  0
  5  6  1  0
  6  7  1  0
  7  8  1  0
  8  9  1  0
  9  6  1  0
  1 10  1  0
  1 11  1  0
  1 12  1  0
  6 13  1  0
  7 14  1  0
  7 15  1  0
  8 16  1  0
  8 17  1  0
M  END
