
     RDKit          3D

 19 20  0  0  0  0  0  0  0  0999 V2000
    3.0739   -1.0163    1.8450 C   0  0  0  0  0  0  0  0  0  0  0  0
    1.8248   -0.6030    1.1622 C   0  0  0  0  0  0  0  0  0  0  0  0
    0.8170   -0.2603    0.5992 C   0  0  0  0  0  0  0  0  0  0  0  0
   -0.3284    0.1434   -0.0657 C   0  0  0  0  0  0  0  0  0  0  0  0
   -1.4194    0.8403    0.6234 C   0  0  0  0  0  0  0  0  0  0  0  0
   -2.3148    1.0354   -0.3800 C   0  0  0  0  0  0  0  0  0  0  0  0
   -1.6417    0.4222   -1.5425 C   0  0  0  0  0  0  0  0  0  0  0  0
   -0.2096    0.9484   -1.3599 C   0  0  0  0  0  0  0  0  0  0  0  0
   -1.0910   -0.8634   -0.9258 C   0  0  0  0  0  0  0  0  0  0  0  0
    3.7603   -1.4851    1.1283 H   0  0  0  0  0  0  0  0  0  0  0  0
    2.8485   -1.7692    2.6518 H   0  0  0  0  0  0  0  0  0  0  0  0
    3.5481   -0.1668    2.3578 H   0  0  0  0  0  0  0  0  0  0  0  0
   -1.5420    1.1482    1.6564 H   0  0  0  0  0  0  0  0  0  0  0  0
   -3.2861    1.5308   -0.3022 H   0  0  0  0  0  0  0  0  0  0  0  0
   -2.0619    0.4042   -2.4973 H   0  0  0  0  0  0  0  0  0  0  0  0
   -0.1448    2.0336   -1.2233 H   0  0  0  0  0  0  0  0  0  0  0  0
    0.4589    0.5045   -2.1072 H   0  0  0  0  0  0  0  0  0  0  0  0
   -1.8204   -1.4554   -0.3596 H   0  0  0  0  0  0  0  0  0  0  0  0
   -0.4715   -1.3915   -1.6667 H   0  0  0  0  0  0  0  0  0  0  0  0
  1  2  1  0
  2  3  3  0
  3  4  1  0
  4  5  1  0
  5  6  2  0
  6  7  1  0
  7  8  1  0
  7  9  1  0
  8  4  1  0
  9  4  1  0
  1 10  1  0
  1 11  1  0
  1 12  1  0
  5 13  1  0
  6 14  1  0
  7 15  1  0
  8 16  1  0
  8 17  1  0
  9 18  1  0
  9 19  1  0
M  END
