
     RDKit          3D

 19 19  0  0  0  0  0  0  0  0999 V2000
    4.3087   -0.6884   -0.1282 C   0  0  0  0  0  0  0  0  0  0  0  0
    2.9495   -0.1417   -0.1423 C   0  0  0  0  0  0  0  0  0  0  0  0
    1.8204    0.3283   -0.1693 C   0  0  0  0  0  0  0  0  0  0  0  0
    0.4755    0.9035   -0.2230 C   0  0  0  0  0  0  0  0  0  0  0  0
   -0.4653    0.0054    0.3158 O   0  0  0  0  0  0  0  0  0  0  0  0
   -1.7190    0.5644    0.2558 C   0  0  0  0  0  0  0  0  0  0  0  0
   -2.6494    0.3609    1.4757 C   0  0  0  0  0  0  0  0  0  0  0  0
   -2.8664   -0.3730    0.2008 C   0  0  0  0  0  0  0  0  0  0  0  0
   -2.6134   -1.7413    0.1966 O   0  0  0  0  0  0  0  0  0  0  0  0
    4.9924    0.1387   -0.3473 H   0  0  0  0  0  0  0  0  0  0  0  0
    4.5281   -1.1949    0.8349 H   0  0  0  0  0  0  0  0  0  0  0  0
    4.4547   -1.4510   -0.9252 H   0  0  0  0  0  0  0  0  0  0  0  0
    0.2110    1.1221   -1.2734 H   0  0  0  0  0  0  0  0  0  0  0  0
    0.4236    1.8590    0.3755 H   0  0  0  0  0  0  0  0  0  0  0  0
   -1.7910    1.5834   -0.1851 H   0  0  0  0  0  0  0  0  0  0  0  0
   -3.2870    1.2147    1.7666 H   0  0  0  0  0  0  0  0  0  0  0  0
   -2.1761   -0.2219    2.2921 H   0  0  0  0  0  0  0  0  0  0  0  0
   -3.6934   -0.0866   -0.4843 H   0  0  0  0  0  0  0  0  0  0  0  0
   -2.9028   -2.1818    1.0321 H   0  0  0  0  0  0  0  0  0  0  0  0
  1  2  1  0
  2  3  3  0
  3  4  1  0
  4  5  1  0
  5  6  1  0
  6  7  1  0
  7  8  1  0
  8  9  1  0
  8  6  1  0
  1 10  1  0
  1 11  1  0
  1 12  1  0
  4 13  1  0
  4 14  1  0
  6 15  1  0
  7 16  1  0
  7 17  1  0
  8 18  1  0
  9 19  1  0
M  END
