
     RDKit          3D

 19 18  0  0  0  0  0  0  0  0999 V2000
    3.9284    0.3821   -0.1392 C   0  0  0  0  0  0  0  0  0  0  0  0
    2.8830   -0.4129    0.4587 C   0  0  0  0  0  0  0  0  0  0  0  0
    1.9191   -1.1507    1.0336 C   0  0  0  0  0  0  0  0  0  0  0  0
    0.9631   -1.8963    1.5926 C   0  0  0  0  0  0  0  0  0  0  0  0
   -0.3177   -0.9517    1.0755 C   0  0  0  0  0  0  0  0  0  0  0  0
   -1.2115   -0.2751    0.7272 C   0  0  0  0  0  0  0  0  0  0  0  0
   -2.3470    0.5892    0.3109 C   0  0  0  0  0  0  0  0  0  0  0  0
   -2.6636    0.4500   -1.1266 C   0  0  0  0  0  0  0  0  0  0  0  0
   -3.7506    1.3419   -1.3402 O   0  0  0  0  0  0  0  0  0  0  0  0
    3.4033    1.2894   -0.6365 H   0  0  0  0  0  0  0  0  0  0  0  0
    4.5599   -0.1297   -0.8841 H   0  0  0  0  0  0  0  0  0  0  0  0
    4.6213    0.7709    0.6047 H   0  0  0  0  0  0  0  0  0  0  0  0
    0.8117   -2.0849    2.6028 H   0  0  0  0  0  0  0  0  0  0  0  0
    0.5904   -2.7901    0.9598 H   0  0  0  0  0  0  0  0  0  0  0  0
   -1.9827    1.6609    0.5049 H   0  0  0  0  0  0  0  0  0  0  0  0
   -3.2366    0.4858    0.9784 H   0  0  0  0  0  0  0  0  0  0  0  0
   -1.8266    0.9689   -1.7006 H   0  0  0  0  0  0  0  0  0  0  0  0
   -2.8265   -0.5182   -1.5177 H   0  0  0  0  0  0  0  0  0  0  0  0
   -3.5175    2.2705   -0.9744 H   0  0  0  0  0  0  0  0  0  0  0  0
  1  2  1  0
  2  3  3  0
  3  4  1  0
  4  5  1  0
  5  6  3  0
  6  7  1  0
  7  8  1  0
  8  9  1  0
  1 10  1  0
  1 11  1  0
  1 12  1  0
  4 13  1  0
  4 14  1  0
  7 15  1  0
  7 16  1  0
  8 17  1  0
  8 18  1  0
  9 19  1  0
M  END
