
     RDKit          3D

 17 17  0  0  0  0  0  0  0  0999 V2000
    3.6754    0.3962    0.7039 C   0  0  0  0  0  0  0  0  0  0  0  0
    2.1425    0.0544    0.1134 C   0  0  0  0  0  0  0  0  0  0  0  0
    1.0117   -0.2060   -0.3109 C   0  0  0  0  0  0  0  0  0  0  0  0
   -0.0070   -0.4375   -0.6810 C   0  0  0  0  0  0  0  0  0  0  0  0
   -0.7347   -0.9348    0.9180 O   0  0  0  0  0  0  0  0  0  0  0  0
   -1.3361   -0.1852   -0.0920 C   0  0  0  0  0  0  0  0  0  0  0  0
   -2.7073   -0.7715   -0.3976 C   0  0  0  0  0  0  0  0  0  0  0  0
   -1.4832    1.2928    0.0187 C   0  0  0  0  0  0  0  0  0  0  0  0
   -0.7472    1.9576   -0.7146 O   0  0  0  0  0  0  0  0  0  0  0  0
    3.5254    0.5855    1.6693 H   0  0  0  0  0  0  0  0  0  0  0  0
    3.9720    1.3658    0.1178 H   0  0  0  0  0  0  0  0  0  0  0  0
    4.2368   -0.4075    0.2897 H   0  0  0  0  0  0  0  0  0  0  0  0
   -0.1429   -1.7817   -0.9434 H   0  0  0  0  0  0  0  0  0  0  0  0
   -3.0946   -0.5166   -1.4192 H   0  0  0  0  0  0  0  0  0  0  0  0
   -3.4406   -0.3220    0.3385 H   0  0  0  0  0  0  0  0  0  0  0  0
   -2.7409   -1.8758   -0.2966 H   0  0  0  0  0  0  0  0  0  0  0  0
   -2.1292    1.7862    0.6858 H   0  0  0  0  0  0  0  0  0  0  0  0
  1  2  1  0
  2  3  3  0
  3  4  1  0
  4  5  1  0
  5  6  1  0
  6  7  1  0
  6  8  1  0
  8  9  2  0
  6  4  1  0
  1 10  1  0
  1 11  1  0
  1 12  1  0
  4 13  1  0
  7 14  1  0
  7 15  1  0
  7 16  1  0
  8 17  1  0
M  END
