
     RDKit          3D

 16 16  0  0  0  0  0  0  0  0999 V2000
    3.0907    1.0392   -0.1287 C   0  0  0  0  0  0  0  0  0  0  0  0
    1.8186    0.2874   -0.0321 C   0  0  0  0  0  0  0  0  0  0  0  0
    0.7736   -0.3099    0.0576 C   0  0  0  0  0  0  0  0  0  0  0  0
   -0.4903   -1.0476    0.1447 C   0  0  0  0  0  0  0  0  0  0  0  0
   -1.4965   -0.3802   -0.7427 C   0  0  0  0  0  0  0  0  0  0  0  0
   -2.6524   -0.4379    0.0361 O   0  0  0  0  0  0  0  0  0  0  0  0
   -2.1440   -0.1287    1.3003 C   0  0  0  0  0  0  0  0  0  0  0  0
   -0.9889   -0.9299    1.4335 O   0  0  0  0  0  0  0  0  0  0  0  0
    3.7556    0.5674   -0.8530 H   0  0  0  0  0  0  0  0  0  0  0  0
    2.8894    2.1189   -0.3733 H   0  0  0  0  0  0  0  0  0  0  0  0
    3.5026    1.0506    0.9147 H   0  0  0  0  0  0  0  0  0  0  0  0
   -0.3907   -2.0983   -0.1890 H   0  0  0  0  0  0  0  0  0  0  0  0
   -1.2807    0.6820   -0.9341 H   0  0  0  0  0  0  0  0  0  0  0  0
   -1.6943   -0.9533   -1.6765 H   0  0  0  0  0  0  0  0  0  0  0  0
   -1.8409    0.9268    1.2913 H   0  0  0  0  0  0  0  0  0  0  0  0
   -2.8517   -0.3867    2.1127 H   0  0  0  0  0  0  0  0  0  0  0  0
  1  2  1  0
  2  3  3  0
  3  4  1  0
  4  5  1  0
  5  6  1  0
  6  7  1  0
  7  8  1  0
  8  4  1  0
  1  9  1  0
  1 10  1  0
  1 11  1  0
  4 12  1  0
  5 13  1  0
  5 14  1  0
  7 15  1  0
  7 16  1  0
M  END
