
     RDKit          3D

 17 17  0  0  0  0  0  0  0  0999 V2000
    3.0273    0.7686   -0.1402 C   0  0  0  0  0  0  0  0  0  0  0  0
    1.8146    0.3195    0.1589 C   0  0  0  0  0  0  0  0  0  0  0  0
    0.7712   -0.0875    0.4171 C   0  0  0  0  0  0  0  0  0  0  0  0
   -0.5088   -0.5901    0.7116 C   0  0  0  0  0  0  0  0  0  0  0  0
   -0.3143   -1.8380    1.6699 C   0  0  0  0  0  0  0  0  0  0  0  0
   -0.5153   -1.6518    2.8208 O   0  0  0  0  0  0  0  0  0  0  0  0
   -1.1879   -1.1107   -0.3536 O   0  0  0  0  0  0  0  0  0  0  0  0
   -1.7442   -0.1295    0.5414 C   0  0  0  0  0  0  0  0  0  0  0  0
   -2.2433    1.0617   -0.1972 C   0  0  0  0  0  0  0  0  0  0  0  0
    3.4101    1.3475    0.7767 H   0  0  0  0  0  0  0  0  0  0  0  0
    3.8038   -0.0854    0.0757 H   0  0  0  0  0  0  0  0  0  0  0  0
    3.4585    1.1852   -0.9833 H   0  0  0  0  0  0  0  0  0  0  0  0
    0.0298   -2.7613    1.2257 H   0  0  0  0  0  0  0  0  0  0  0  0
   -2.6418   -0.6470    1.1099 H   0  0  0  0  0  0  0  0  0  0  0  0
   -3.1220    1.5302    0.3132 H   0  0  0  0  0  0  0  0  0  0  0  0
   -1.4458    1.8312   -0.3079 H   0  0  0  0  0  0  0  0  0  0  0  0
   -2.5918    0.8575   -1.2372 H   0  0  0  0  0  0  0  0  0  0  0  0
  1  2  1  0
  2  3  3  0
  3  4  1  0
  4  5  1  0
  5  6  2  0
  4  7  1  0
  7  8  1  0
  8  9  1  0
  8  4  1  0
  1 10  1  0
  1 11  1  0
  1 12  1  0
  5 13  1  0
  8 14  1  0
  9 15  1  0
  9 16  1  0
  9 17  1  0
M  END
