
     RDKit          3D

 21 21  0  0  0  0  0  0  0  0999 V2000
    3.7696   -0.0497   -0.5587 C   0  0  0  0  0  0  0  0  0  0  0  0
    2.3224   -0.0818   -0.3473 C   0  0  0  0  0  0  0  0  0  0  0  0
    1.1287   -0.0924   -0.1723 C   0  0  0  0  0  0  0  0  0  0  0  0
   -0.3307   -0.0968    0.0339 C   0  0  0  0  0  0  0  0  0  0  0  0
   -0.7850   -0.0603    1.4818 C   0  0  0  0  0  0  0  0  0  0  0  0
   -2.2631   -0.0626    1.6536 C   0  0  0  0  0  0  0  0  0  0  0  0
   -1.0611   -0.9345   -0.9663 C   0  0  0  0  0  0  0  0  0  0  0  0
   -1.2125    0.5249   -0.9956 C   0  0  0  0  0  0  0  0  0  0  0  0
   -0.5806    1.2430   -2.0343 O   0  0  0  0  0  0  0  0  0  0  0  0
    4.2458   -0.6966    0.2103 H   0  0  0  0  0  0  0  0  0  0  0  0
    4.0489   -0.5077   -1.5462 H   0  0  0  0  0  0  0  0  0  0  0  0
    4.0907    1.0024   -0.4890 H   0  0  0  0  0  0  0  0  0  0  0  0
   -0.3688   -0.9720    1.9472 H   0  0  0  0  0  0  0  0  0  0  0  0
   -0.3097    0.8370    1.9619 H   0  0  0  0  0  0  0  0  0  0  0  0
   -2.7650   -0.3297    0.7029 H   0  0  0  0  0  0  0  0  0  0  0  0
   -2.6482    0.9075    2.0465 H   0  0  0  0  0  0  0  0  0  0  0  0
   -2.5446   -0.8419    2.3775 H   0  0  0  0  0  0  0  0  0  0  0  0
   -0.4969   -1.3709   -1.8282 H   0  0  0  0  0  0  0  0  0  0  0  0
   -1.8236   -1.6108   -0.5499 H   0  0  0  0  0  0  0  0  0  0  0  0
   -2.1302    1.0519   -0.6496 H   0  0  0  0  0  0  0  0  0  0  0  0
   -0.2864    2.1410   -1.7003 H   0  0  0  0  0  0  0  0  0  0  0  0
  1  2  1  0
  2  3  3  0
  3  4  1  0
  4  5  1  0
  5  6  1  0
  4  7  1  0
  7  8  1  0
  8  9  1  0
  8  4  1  0
  1 10  1  0
  1 11  1  0
  1 12  1  0
  5 13  1  0
  5 14  1  0
  6 15  1  0
  6 16  1  0
  6 17  1  0
  7 18  1  0
  7 19  1  0
  8 20  1  0
  9 21  1  0
M  END
