
     RDKit          3D

 19 20  0  0  0  0  0  0  0  0999 V2000
    2.1919    1.5482   -2.6214 C   0  0  0  0  0  0  0  0  0  0  0  0
    1.6296    1.0090   -1.3601 C   0  0  0  0  0  0  0  0  0  0  0  0
    1.1665    0.5894   -0.3283 C   0  0  0  0  0  0  0  0  0  0  0  0
    0.6222    0.0859    0.9428 C   0  0  0  0  0  0  0  0  0  0  0  0
    0.5850   -1.4488    1.1134 C   0  0  0  0  0  0  0  0  0  0  0  0
   -0.6260   -0.6721    0.9289 C   0  0  0  0  0  0  0  0  0  0  0  0
   -1.6834   -0.4622    1.9443 C   0  0  0  0  0  0  0  0  0  0  0  0
   -2.5525   -0.3872    0.7196 C   0  0  0  0  0  0  0  0  0  0  0  0
   -1.4834   -0.7571   -0.1235 O   0  0  0  0  0  0  0  0  0  0  0  0
    2.9861    2.2744   -2.3776 H   0  0  0  0  0  0  0  0  0  0  0  0
    1.3713    1.9886   -3.2326 H   0  0  0  0  0  0  0  0  0  0  0  0
    2.6364    0.7362   -3.2299 H   0  0  0  0  0  0  0  0  0  0  0  0
    0.8739    0.6848    1.8410 H   0  0  0  0  0  0  0  0  0  0  0  0
    0.9787   -2.0073    0.2267 H   0  0  0  0  0  0  0  0  0  0  0  0
    0.9186   -1.8400    2.0922 H   0  0  0  0  0  0  0  0  0  0  0  0
   -1.8286   -1.3453    2.5905 H   0  0  0  0  0  0  0  0  0  0  0  0
   -1.5623    0.5024    2.4678 H   0  0  0  0  0  0  0  0  0  0  0  0
   -3.3772   -1.1405    0.7516 H   0  0  0  0  0  0  0  0  0  0  0  0
   -2.8467    0.6417    0.4847 H   0  0  0  0  0  0  0  0  0  0  0  0
  1  2  1  0
  2  3  3  0
  3  4  1  0
  4  5  1  0
  5  6  1  0
  6  7  1  0
  7  8  1  0
  8  9  1  0
  6  4  1  0
  9  6  1  0
  1 10  1  0
  1 11  1  0
  1 12  1  0
  4 13  1  0
  5 14  1  0
  5 15  1  0
  7 16  1  0
  7 17  1  0
  8 18  1  0
  8 19  1  0
M  END
