
     RDKit          3D

 21 22  0  0  0  0  0  0  0  0999 V2000
    3.7558    1.0190   -0.6170 C   0  0  0  0  0  0  0  0  0  0  0  0
    2.5631    0.3618   -0.6521 C   0  0  0  0  0  0  0  0  0  0  0  0
    1.2755   -0.3710   -0.6750 C   0  0  0  0  0  0  0  0  0  0  0  0
    0.2724   -0.9434   -0.7003 C   0  0  0  0  0  0  0  0  0  0  0  0
   -0.5336   -0.8533    0.6303 C   0  0  0  0  0  0  0  0  0  0  0  0
   -0.7423    0.6620    0.8646 C   0  0  0  0  0  0  0  0  0  0  0  0
   -2.1672    0.6126    0.5179 C   0  0  0  0  0  0  0  0  0  0  0  0
   -2.6498   -0.1689   -0.6783 C   0  0  0  0  0  0  0  0  0  0  0  0
   -2.0243   -0.9592    0.4184 C   0  0  0  0  0  0  0  0  0  0  0  0
    3.9289    1.7080   -1.5386 H   0  0  0  0  0  0  0  0  0  0  0  0
    3.8108    1.7825    0.2037 H   0  0  0  0  0  0  0  0  0  0  0  0
    4.6500    0.3534   -0.5773 H   0  0  0  0  0  0  0  0  0  0  0  0
    0.4105   -2.2253   -0.7628 H   0  0  0  0  0  0  0  0  0  0  0  0
   -0.5277   -1.0174   -1.5410 H   0  0  0  0  0  0  0  0  0  0  0  0
   -0.0193   -1.3239    1.4404 H   0  0  0  0  0  0  0  0  0  0  0  0
   -0.0977    1.2621    0.1561 H   0  0  0  0  0  0  0  0  0  0  0  0
   -0.5498    0.8584    1.9098 H   0  0  0  0  0  0  0  0  0  0  0  0
   -2.8837    0.9796    1.1947 H   0  0  0  0  0  0  0  0  0  0  0  0
   -3.7102   -0.3014   -0.8276 H   0  0  0  0  0  0  0  0  0  0  0  0
   -2.1078    0.0143   -1.6356 H   0  0  0  0  0  0  0  0  0  0  0  0
   -2.6538   -1.4499    1.2232 H   0  0  0  0  0  0  0  0  0  0  0  0
  1  2  1  0
  2  3  3  0
  3  4  1  0
  4  5  1  0
  5  6  1  0
  6  7  1  0
  7  8  1  0
  8  9  1  0
  9  5  1  0
  9  7  1  0
  1 10  1  0
  1 11  1  0
  1 12  1  0
  4 13  1  0
  4 14  1  0
  5 15  1  0
  6 16  1  0
  6 17  1  0
  7 18  1  0
  8 19  1  0
  8 20  1  0
  9 21  1  0
M  END
