
     RDKit          3D

 23 22  0  0  0  0  0  0  0  0999 V2000
    3.8751    1.5022    1.3305 C   0  0  0  0  0  0  0  0  0  0  0  0
    2.4574    1.5919    0.8145 C   0  0  0  0  0  0  0  0  0  0  0  0
    1.3669    1.6646    0.4020 C   0  0  0  0  0  0  0  0  0  0  0  0
   -0.0171    1.7412   -0.1424 C   0  0  0  0  0  0  0  0  0  0  0  0
   -0.3146    0.6695   -0.9365 O   0  0  0  0  0  0  0  0  0  0  0  0
   -0.6618   -0.5539   -0.2018 C   0  0  0  0  0  0  0  0  0  0  0  0
    0.1667   -1.6343   -0.7845 C   0  0  0  0  0  0  0  0  0  0  0  0
   -2.1433   -0.5561   -0.7381 C   0  0  0  0  0  0  0  0  0  0  0  0
   -2.9114   -1.7202   -0.2869 C   0  0  0  0  0  0  0  0  0  0  0  0
    4.2530    0.5658    1.4494 H   0  0  0  0  0  0  0  0  0  0  0  0
    3.7478    2.0550    2.4176 H   0  0  0  0  0  0  0  0  0  0  0  0
    4.4469    2.2954    0.7701 H   0  0  0  0  0  0  0  0  0  0  0  0
   -0.7357    1.8121    0.6634 H   0  0  0  0  0  0  0  0  0  0  0  0
   -0.0606    2.6546   -0.8091 H   0  0  0  0  0  0  0  0  0  0  0  0
   -0.6064   -0.3420    0.8078 H   0  0  0  0  0  0  0  0  0  0  0  0
    1.2254   -1.4320   -0.4136 H   0  0  0  0  0  0  0  0  0  0  0  0
    0.2110   -1.6134   -1.9454 H   0  0  0  0  0  0  0  0  0  0  0  0
   -0.1001   -2.6228   -0.4434 H   0  0  0  0  0  0  0  0  0  0  0  0
   -2.6017    0.3451   -0.3047 H   0  0  0  0  0  0  0  0  0  0  0  0
   -2.0528   -0.4603   -1.8650 H   0  0  0  0  0  0  0  0  0  0  0  0
   -4.0598   -1.6173   -0.4720 H   0  0  0  0  0  0  0  0  0  0  0  0
   -2.8617   -1.6780    0.9039 H   0  0  0  0  0  0  0  0  0  0  0  0
   -2.6231   -2.6667   -0.6951 H   0  0  0  0  0  0  0  0  0  0  0  0
  1  2  1  0
  2  3  3  0
  3  4  1  0
  4  5  1  0
  5  6  1  0
  6  7  1  0
  6  8  1  0
  8  9  1  0
  1 10  1  0
  1 11  1  0
  1 12  1  0
  4 13  1  0
  4 14  1  0
  6 15  1  0
  7 16  1  0
  7 17  1  0
  7 18  1  0
  8 19  1  0
  8 20  1  0
  9 21  1  0
  9 22  1  0
  9 23  1  0
M  END
