
     RDKit          3D

 17 16  0  0  0  0  0  0  0  0999 V2000
   -3.6496    0.0765    3.2238 C   0  0  0  0  0  0  0  0  0  0  0  0
   -2.7654    0.2711    2.0708 C   0  0  0  0  0  0  0  0  0  0  0  0
   -2.0293    0.4131    1.1186 C   0  0  0  0  0  0  0  0  0  0  0  0
   -1.1621    0.5588    0.0098 C   0  0  0  0  0  0  0  0  0  0  0  0
   -0.4153    0.6630   -0.9387 C   0  0  0  0  0  0  0  0  0  0  0  0
    0.5112    0.7861   -2.0746 C   0  0  0  0  0  0  0  0  0  0  0  0
    1.6610   -0.1157   -1.8243 C   0  0  0  0  0  0  0  0  0  0  0  0
    2.6092   -0.8357   -1.6302 C   0  0  0  0  0  0  0  0  0  0  0  0
    3.7739   -1.7087   -1.4082 C   0  0  0  0  0  0  0  0  0  0  0  0
   -3.6627   -1.0175    3.4882 H   0  0  0  0  0  0  0  0  0  0  0  0
   -3.2560    0.6604    4.0595 H   0  0  0  0  0  0  0  0  0  0  0  0
   -4.6800    0.4308    3.0068 H   0  0  0  0  0  0  0  0  0  0  0  0
    0.9137    1.8046   -2.0903 H   0  0  0  0  0  0  0  0  0  0  0  0
   -0.0033    0.4936   -2.9983 H   0  0  0  0  0  0  0  0  0  0  0  0
    3.4220   -2.5144   -0.7042 H   0  0  0  0  0  0  0  0  0  0  0  0
    4.1305   -2.1577   -2.3494 H   0  0  0  0  0  0  0  0  0  0  0  0
    4.6022   -1.1307   -0.9593 H   0  0  0  0  0  0  0  0  0  0  0  0
  1  2  1  0
  2  3  3  0
  3  4  1  0
  4  5  3  0
  5  6  1  0
  6  7  1  0
  7  8  3  0
  8  9  1  0
  1 10  1  0
  1 11  1  0
  1 12  1  0
  6 13  1  0
  6 14  1  0
  9 15  1  0
  9 16  1  0
  9 17  1  0
M  END
