
     RDKit          3D

 16 15  0  0  0  0  0  0  0  0999 V2000
    3.8131    1.6851   -1.5240 C   0  0  0  0  0  0  0  0  0  0  0  0
    2.5761    1.0678   -1.0214 C   0  0  0  0  0  0  0  0  0  0  0  0
    1.4470    0.4863   -0.5591 C   0  0  0  0  0  0  0  0  0  0  0  0
    0.4665   -0.0355   -0.1679 C   0  0  0  0  0  0  0  0  0  0  0  0
   -0.6505   -0.6563    0.2765 C   0  0  0  0  0  0  0  0  0  0  0  0
   -1.7818   -1.2669    0.7141 C   0  0  0  0  0  0  0  0  0  0  0  0
   -2.8580   -0.2295    1.1278 C   0  0  0  0  0  0  0  0  0  0  0  0
   -1.4898   -2.0923    1.8373 O   0  0  0  0  0  0  0  0  0  0  0  0
    4.3835    0.8774   -2.0197 H   0  0  0  0  0  0  0  0  0  0  0  0
    4.4068    2.0980   -0.6517 H   0  0  0  0  0  0  0  0  0  0  0  0
    3.5865    2.5100   -2.2005 H   0  0  0  0  0  0  0  0  0  0  0  0
   -2.3377   -1.8776   -0.0670 H   0  0  0  0  0  0  0  0  0  0  0  0
   -2.9977    0.4239    0.2520 H   0  0  0  0  0  0  0  0  0  0  0  0
   -3.8142   -0.7580    1.3155 H   0  0  0  0  0  0  0  0  0  0  0  0
   -2.4533    0.3703    1.9554 H   0  0  0  0  0  0  0  0  0  0  0  0
   -2.2965   -2.6025    2.1280 H   0  0  0  0  0  0  0  0  0  0  0  0
  1  2  1  0
  2  3  3  0
  3  4  1  0
  4  5  3  0
  5  6  1  0
  6  7  1  0
  6  8  1  0
  1  9  1  0
  1 10  1  0
  1 11  1  0
  6 12  1  0
  7 13  1  0
  7 14  1  0
  7 15  1  0
  8 16  1  0
M  END
