
     RDKit          3D

 19 18  0  0  0  0  0  0  0  0999 V2000
    4.7561    0.7770    0.4731 C   0  0  0  0  0  0  0  0  0  0  0  0
    3.3661    0.4003    0.1930 C   0  0  0  0  0  0  0  0  0  0  0  0
    2.2131    0.0909   -0.0604 C   0  0  0  0  0  0  0  0  0  0  0  0
    0.8772   -0.2683   -0.3573 C   0  0  0  0  0  0  0  0  0  0  0  0
   -0.2615   -0.5954   -0.6175 C   0  0  0  0  0  0  0  0  0  0  0  0
   -1.6399   -0.9959   -0.9071 C   0  0  0  0  0  0  0  0  0  0  0  0
   -1.9886   -2.0474   -0.0613 O   0  0  0  0  0  0  0  0  0  0  0  0
   -2.5371    0.1756   -0.5714 C   0  0  0  0  0  0  0  0  0  0  0  0
   -2.4407    0.5771    0.8643 C   0  0  0  0  0  0  0  0  0  0  0  0
    5.4075    0.1298   -0.1253 H   0  0  0  0  0  0  0  0  0  0  0  0
    5.0036    0.6371    1.5552 H   0  0  0  0  0  0  0  0  0  0  0  0
    4.9613    1.8346    0.2451 H   0  0  0  0  0  0  0  0  0  0  0  0
   -1.7732   -1.2809   -1.9656 H   0  0  0  0  0  0  0  0  0  0  0  0
   -2.8174   -2.4917   -0.3855 H   0  0  0  0  0  0  0  0  0  0  0  0
   -2.2647    1.0243   -1.2366 H   0  0  0  0  0  0  0  0  0  0  0  0
   -3.6053   -0.0509   -0.8037 H   0  0  0  0  0  0  0  0  0  0  0  0
   -2.7979    1.6292    0.9886 H   0  0  0  0  0  0  0  0  0  0  0  0
   -1.4082    0.5601    1.2596 H   0  0  0  0  0  0  0  0  0  0  0  0
   -3.0502   -0.1056    1.5129 H   0  0  0  0  0  0  0  0  0  0  0  0
  1  2  1  0
  2  3  3  0
  3  4  1  0
  4  5  3  0
  5  6  1  0
  6  7  1  0
  6  8  1  0
  8  9  1  0
  1 10  1  0
  1 11  1  0
  1 12  1  0
  6 13  1  0
  7 14  1  0
  8 15  1  0
  8 16  1  0
  9 17  1  0
  9 18  1  0
  9 19  1  0
M  END
