
     RDKit          3D

 19 19  0  0  0  0  0  0  0  0999 V2000
    3.2350   -0.5639    1.7332 C   0  0  0  0  0  0  0  0  0  0  0  0
    2.0513   -0.1230    1.0025 C   0  0  0  0  0  0  0  0  0  0  0  0
    1.0548    0.2675    0.3746 C   0  0  0  0  0  0  0  0  0  0  0  0
   -0.0987    0.6943   -0.3558 C   0  0  0  0  0  0  0  0  0  0  0  0
    0.0424    0.5085   -1.8270 C   0  0  0  0  0  0  0  0  0  0  0  0
    0.9229    0.6255   -2.6200 O   0  0  0  0  0  0  0  0  0  0  0  0
   -1.3779    0.1232   -1.8345 C   0  0  0  0  0  0  0  0  0  0  0  0
   -1.1995   -0.3506   -0.3893 C   0  0  0  0  0  0  0  0  0  0  0  0
   -2.3200   -0.0094    0.5167 C   0  0  0  0  0  0  0  0  0  0  0  0
    3.1384   -0.3017    2.8191 H   0  0  0  0  0  0  0  0  0  0  0  0
    4.1557   -0.0593    1.3975 H   0  0  0  0  0  0  0  0  0  0  0  0
    3.3443   -1.6599    1.6108 H   0  0  0  0  0  0  0  0  0  0  0  0
   -0.4788    1.7235   -0.1097 H   0  0  0  0  0  0  0  0  0  0  0  0
   -1.6865   -0.6751   -2.5232 H   0  0  0  0  0  0  0  0  0  0  0  0
   -2.0250    1.0300   -1.8311 H   0  0  0  0  0  0  0  0  0  0  0  0
   -0.8274   -1.3826   -0.3245 H   0  0  0  0  0  0  0  0  0  0  0  0
   -2.3647   -0.8000    1.3244 H   0  0  0  0  0  0  0  0  0  0  0  0
   -2.2519    0.9497    1.0524 H   0  0  0  0  0  0  0  0  0  0  0  0
   -3.3145    0.0033   -0.0162 H   0  0  0  0  0  0  0  0  0  0  0  0
  1  2  1  0
  2  3  3  0
  3  4  1  0
  4  5  1  0
  5  6  2  0
  5  7  1  0
  7  8  1  0
  8  9  1  0
  8  4  1  0
  1 10  1  0
  1 11  1  0
  1 12  1  0
  4 13  1  0
  7 14  1  0
  7 15  1  0
  8 16  1  0
  9 17  1  0
  9 18  1  0
  9 19  1  0
M  END
