
     RDKit          3D

 19 20  0  0  0  0  0  0  0  0999 V2000
    3.6550    0.1548   -0.7152 C   0  0  0  0  0  0  0  0  0  0  0  0
    2.1898    0.0368   -0.6786 C   0  0  0  0  0  0  0  0  0  0  0  0
    0.9748   -0.0427   -0.6378 C   0  0  0  0  0  0  0  0  0  0  0  0
   -0.4911   -0.1347   -0.5827 C   0  0  0  0  0  0  0  0  0  0  0  0
   -1.2787    1.0984   -0.8316 C   0  0  0  0  0  0  0  0  0  0  0  0
   -2.4873    0.9788   -0.1808 O   0  0  0  0  0  0  0  0  0  0  0  0
   -2.2565    0.3270    1.0136 C   0  0  0  0  0  0  0  0  0  0  0  0
   -1.0302   -0.5402    0.8113 C   0  0  0  0  0  0  0  0  0  0  0  0
   -1.1049   -1.4546   -0.3315 C   0  0  0  0  0  0  0  0  0  0  0  0
    4.0512   -0.6868   -0.0911 H   0  0  0  0  0  0  0  0  0  0  0  0
    4.0358   -0.0699   -1.7523 H   0  0  0  0  0  0  0  0  0  0  0  0
    4.0121    1.1189   -0.3386 H   0  0  0  0  0  0  0  0  0  0  0  0
   -1.4785    1.3044   -1.9027 H   0  0  0  0  0  0  0  0  0  0  0  0
   -0.7435    1.9650   -0.3524 H   0  0  0  0  0  0  0  0  0  0  0  0
   -2.1393    1.0140    1.8740 H   0  0  0  0  0  0  0  0  0  0  0  0
   -3.1095   -0.3961    1.1796 H   0  0  0  0  0  0  0  0  0  0  0  0
   -0.2924   -0.6330    1.6260 H   0  0  0  0  0  0  0  0  0  0  0  0
   -0.4041   -2.3124   -0.3234 H   0  0  0  0  0  0  0  0  0  0  0  0
   -2.1026   -1.7280   -0.7515 H   0  0  0  0  0  0  0  0  0  0  0  0
  1  2  1  0
  2  3  3  0
  3  4  1  0
  4  5  1  0
  5  6  1  0
  6  7  1  0
  7  8  1  0
  8  9  1  0
  8  4  1  0
  9  4  1  0
  1 10  1  0
  1 11  1  0
  1 12  1  0
  5 13  1  0
  5 14  1  0
  7 15  1  0
  7 16  1  0
  8 17  1  0
  9 18  1  0
  9 19  1  0
M  END
