
     RDKit          3D

 23 22  0  0  0  0  0  0  0  0999 V2000
   -3.7220    0.1241    0.3100 C   0  0  0  0  0  0  0  0  0  0  0  0
   -2.4048   -0.0883   -0.1441 C   0  0  0  0  0  0  0  0  0  0  0  0
   -1.2556   -0.2635   -0.5536 C   0  0  0  0  0  0  0  0  0  0  0  0
    0.1741   -0.5010   -1.0783 C   0  0  0  0  0  0  0  0  0  0  0  0
    0.1506   -1.9867   -1.4416 C   0  0  0  0  0  0  0  0  0  0  0  0
    1.1772   -0.1203   -0.1284 C   0  0  0  0  0  0  0  0  0  0  0  0
    1.1490   -0.7206    1.1315 O   0  0  0  0  0  0  0  0  0  0  0  0
    1.3091    1.4073    0.0243 C   0  0  0  0  0  0  0  0  0  0  0  0
    2.4703    1.6800    0.9934 C   0  0  0  0  0  0  0  0  0  0  0  0
   -3.8328    0.1660    1.4304 H   0  0  0  0  0  0  0  0  0  0  0  0
   -4.4313   -0.6735   -0.0901 H   0  0  0  0  0  0  0  0  0  0  0  0
   -4.1078    1.0735   -0.1286 H   0  0  0  0  0  0  0  0  0  0  0  0
    0.2739    0.0828   -2.0524 H   0  0  0  0  0  0  0  0  0  0  0  0
    0.6913   -2.2145   -2.3714 H   0  0  0  0  0  0  0  0  0  0  0  0
   -0.9304   -2.2706   -1.6424 H   0  0  0  0  0  0  0  0  0  0  0  0
    0.4667   -2.6492   -0.6329 H   0  0  0  0  0  0  0  0  0  0  0  0
    2.1916   -0.3810   -0.5811 H   0  0  0  0  0  0  0  0  0  0  0  0
    0.5298   -1.5224    1.1425 H   0  0  0  0  0  0  0  0  0  0  0  0
    1.4437    1.8834   -0.9057 H   0  0  0  0  0  0  0  0  0  0  0  0
    0.4103    1.7668    0.6072 H   0  0  0  0  0  0  0  0  0  0  0  0
    3.0291    0.7207    1.1608 H   0  0  0  0  0  0  0  0  0  0  0  0
    2.0832    2.0873    1.9549 H   0  0  0  0  0  0  0  0  0  0  0  0
    3.1347    2.3997    0.5042 H   0  0  0  0  0  0  0  0  0  0  0  0
  1  2  1  0
  2  3  3  0
  3  4  1  0
  4  5  1  0
  4  6  1  0
  6  7  1  0
  6  8  1  0
  8  9  1  0
  1 10  1  0
  1 11  1  0
  1 12  1  0
  4 13  1  0
  5 14  1  0
  5 15  1  0
  5 16  1  0
  6 17  1  0
  7 18  1  0
  8 19  1  0
  8 20  1  0
  9 21  1  0
  9 22  1  0
  9 23  1  0
M  END
