
     RDKit          3D

 20 19  0  0  0  0  0  0  0  0999 V2000
    2.8995    0.5083    2.1426 C   0  0  0  0  0  0  0  0  0  0  0  0
    1.9641   -0.0458    1.2038 C   0  0  0  0  0  0  0  0  0  0  0  0
    1.1432   -0.5110    0.3729 C   0  0  0  0  0  0  0  0  0  0  0  0
    0.1728   -1.0505   -0.5740 C   0  0  0  0  0  0  0  0  0  0  0  0
   -0.8557    0.0321   -0.8083 C   0  0  0  0  0  0  0  0  0  0  0  0
   -1.8826   -0.5434   -1.7920 C   0  0  0  0  0  0  0  0  0  0  0  0
   -1.5618    0.4775    0.4250 C   0  0  0  0  0  0  0  0  0  0  0  0
   -0.2937    1.1159   -1.4980 O   0  0  0  0  0  0  0  0  0  0  0  0
    3.9332    0.6217    1.6934 H   0  0  0  0  0  0  0  0  0  0  0  0
    2.5601    1.5168    2.5147 H   0  0  0  0  0  0  0  0  0  0  0  0
    2.9977   -0.1159    3.0725 H   0  0  0  0  0  0  0  0  0  0  0  0
   -0.3083   -1.9827   -0.1823 H   0  0  0  0  0  0  0  0  0  0  0  0
    0.6366   -1.3121   -1.5439 H   0  0  0  0  0  0  0  0  0  0  0  0
   -2.6753    0.2175   -1.9929 H   0  0  0  0  0  0  0  0  0  0  0  0
   -2.3820   -1.3831   -1.2719 H   0  0  0  0  0  0  0  0  0  0  0  0
   -1.3568   -0.8982   -2.6796 H   0  0  0  0  0  0  0  0  0  0  0  0
   -2.6211    0.1241    0.3927 H   0  0  0  0  0  0  0  0  0  0  0  0
   -1.1464   -0.0080    1.3508 H   0  0  0  0  0  0  0  0  0  0  0  0
   -1.5106    1.5661    0.5989 H   0  0  0  0  0  0  0  0  0  0  0  0
    0.2871    1.6705   -0.8882 H   0  0  0  0  0  0  0  0  0  0  0  0
  1  2  1  0
  2  3  3  0
  3  4  1  0
  4  5  1  0
  5  6  1  0
  5  7  1  0
  5  8  1  0
  1  9  1  0
  1 10  1  0
  1 11  1  0
  4 12  1  0
  4 13  1  0
  6 14  1  0
  6 15  1  0
  6 16  1  0
  7 17  1  0
  7 18  1  0
  7 19  1  0
  8 20  1  0
M  END
