
     RDKit          3D

 17 16  0  0  0  0  0  0  0  0999 V2000
    4.2798    0.5851    0.4740 C   0  0  0  0  0  0  0  0  0  0  0  0
    2.8408    0.2366    0.4040 C   0  0  0  0  0  0  0  0  0  0  0  0
    1.6666   -0.0306    0.3442 C   0  0  0  0  0  0  0  0  0  0  0  0
    0.2635   -0.3499    0.2978 C   0  0  0  0  0  0  0  0  0  0  0  0
   -0.3090   -0.7674    1.3359 O   0  0  0  0  0  0  0  0  0  0  0  0
   -0.5033   -0.2191   -0.8504 O   0  0  0  0  0  0  0  0  0  0  0  0
   -1.8622   -0.5240   -0.9086 C   0  0  0  0  0  0  0  0  0  0  0  0
   -2.7131    0.2938    0.0344 C   0  0  0  0  0  0  0  0  0  0  0  0
   -4.0486   -0.0724   -0.0877 O   0  0  0  0  0  0  0  0  0  0  0  0
    4.7114    0.7161   -0.5381 H   0  0  0  0  0  0  0  0  0  0  0  0
    4.3717    1.5334    1.0569 H   0  0  0  0  0  0  0  0  0  0  0  0
    4.7725   -0.2666    1.0100 H   0  0  0  0  0  0  0  0  0  0  0  0
   -2.0042   -1.5868   -0.6275 H   0  0  0  0  0  0  0  0  0  0  0  0
   -2.2098   -0.4252   -1.9500 H   0  0  0  0  0  0  0  0  0  0  0  0
   -2.4288    0.1619    1.0739 H   0  0  0  0  0  0  0  0  0  0  0  0
   -2.6349    1.3484   -0.3011 H   0  0  0  0  0  0  0  0  0  0  0  0
   -4.1923   -0.7598   -0.7678 H   0  0  0  0  0  0  0  0  0  0  0  0
  1  2  1  0
  2  3  3  0
  3  4  1  0
  4  5  2  0
  4  6  1  0
  6  7  1  0
  7  8  1  0
  8  9  1  0
  1 10  1  0
  1 11  1  0
  1 12  1  0
  7 13  1  0
  7 14  1  0
  8 15  1  0
  8 16  1  0
  9 17  1  0
M  END
