
     RDKit          3D

 19 20  0  0  0  0  0  0  0  0999 V2000
    3.2723    1.6098    0.6658 C   0  0  0  0  0  0  0  0  0  0  0  0
    1.9358    1.1443    0.2731 C   0  0  0  0  0  0  0  0  0  0  0  0
    0.8285    0.7788   -0.0596 C   0  0  0  0  0  0  0  0  0  0  0  0
   -0.5001    0.3631   -0.4576 C   0  0  0  0  0  0  0  0  0  0  0  0
   -0.5471   -1.0563   -1.0636 C   0  0  0  0  0  0  0  0  0  0  0  0
   -1.9874   -0.8905   -0.6466 C   0  0  0  0  0  0  0  0  0  0  0  0
   -2.5605   -0.8837    0.6524 C   0  0  0  0  0  0  0  0  0  0  0  0
   -1.2354   -0.3530    0.6455 C   0  0  0  0  0  0  0  0  0  0  0  0
   -0.3146   -1.2744    1.2184 O   0  0  0  0  0  0  0  0  0  0  0  0
    3.7136    0.8591    1.3639 H   0  0  0  0  0  0  0  0  0  0  0  0
    3.1778    2.5479    1.2848 H   0  0  0  0  0  0  0  0  0  0  0  0
    3.8841    1.8113   -0.2152 H   0  0  0  0  0  0  0  0  0  0  0  0
   -1.0815    1.0418   -1.0809 H   0  0  0  0  0  0  0  0  0  0  0  0
   -0.4058   -1.0857   -2.1483 H   0  0  0  0  0  0  0  0  0  0  0  0
    0.0552   -1.8069   -0.5752 H   0  0  0  0  0  0  0  0  0  0  0  0
   -2.4049   -0.0551   -1.3013 H   0  0  0  0  0  0  0  0  0  0  0  0
   -3.3726   -0.1566    0.9627 H   0  0  0  0  0  0  0  0  0  0  0  0
   -2.8363   -1.8968    1.0773 H   0  0  0  0  0  0  0  0  0  0  0  0
    0.3791   -0.6971    1.6412 H   0  0  0  0  0  0  0  0  0  0  0  0
  1  2  1  0
  2  3  3  0
  3  4  1  0
  4  5  1  0
  5  6  1  0
  6  7  1  0
  7  8  1  0
  8  9  1  0
  8  4  1  0
  8  6  1  0
  1 10  1  0
  1 11  1  0
  1 12  1  0
  4 13  1  0
  5 14  1  0
  5 15  1  0
  6 16  1  0
  7 17  1  0
  7 18  1  0
  9 19  1  0
M  END
