
     RDKit          3D

 19 20  0  0  0  0  0  0  0  0999 V2000
    2.1599   -2.1940    2.4440 C   0  0  0  0  0  0  0  0  0  0  0  0
    1.5130   -1.3200    1.4631 C   0  0  0  0  0  0  0  0  0  0  0  0
    0.9950   -0.5864    0.6442 C   0  0  0  0  0  0  0  0  0  0  0  0
    0.3881    0.3094   -0.3558 C   0  0  0  0  0  0  0  0  0  0  0  0
    1.1919    1.1831   -1.0534 O   0  0  0  0  0  0  0  0  0  0  0  0
   -0.8544   -0.1622   -0.9650 C   0  0  0  0  0  0  0  0  0  0  0  0
   -1.5726    0.7907   -1.8928 C   0  0  0  0  0  0  0  0  0  0  0  0
   -1.6836    1.8245   -0.8024 C   0  0  0  0  0  0  0  0  0  0  0  0
   -0.9225    0.9187    0.1146 C   0  0  0  0  0  0  0  0  0  0  0  0
    1.4113   -2.8693    2.9104 H   0  0  0  0  0  0  0  0  0  0  0  0
    2.9245   -2.8509    1.9688 H   0  0  0  0  0  0  0  0  0  0  0  0
    2.6845   -1.5938    3.2042 H   0  0  0  0  0  0  0  0  0  0  0  0
    1.8058    0.7544   -1.6958 H   0  0  0  0  0  0  0  0  0  0  0  0
   -1.3392   -1.1136   -0.6841 H   0  0  0  0  0  0  0  0  0  0  0  0
   -0.9261    1.1828   -2.7128 H   0  0  0  0  0  0  0  0  0  0  0  0
   -2.5603    0.4144   -2.2562 H   0  0  0  0  0  0  0  0  0  0  0  0
   -2.7311    1.9186   -0.4657 H   0  0  0  0  0  0  0  0  0  0  0  0
   -1.1524    2.7676   -0.9590 H   0  0  0  0  0  0  0  0  0  0  0  0
   -1.3319    0.6259    1.0937 H   0  0  0  0  0  0  0  0  0  0  0  0
  1  2  1  0
  2  3  3  0
  3  4  1  0
  4  5  1  0
  4  6  1  0
  6  7  1  0
  7  8  1  0
  8  9  1  0
  9  4  1  0
  9  6  1  0
  1 10  1  0
  1 11  1  0
  1 12  1  0
  5 13  1  0
  6 14  1  0
  7 15  1  0
  7 16  1  0
  8 17  1  0
  8 18  1  0
  9 19  1  0
M  END
