
     RDKit          3D

 23 23  0  0  0  0  0  0  0  0999 V2000
    3.0475    0.0237    3.0477 C   0  0  0  0  0  0  0  0  0  0  0  0
    1.8368    0.1792    2.2018 C   0  0  0  0  0  0  0  0  0  0  0  0
    0.8660    0.3003    1.4986 C   0  0  0  0  0  0  0  0  0  0  0  0
   -0.3074    0.4504    0.6771 C   0  0  0  0  0  0  0  0  0  0  0  0
    0.0074    1.3731   -0.4765 C   0  0  0  0  0  0  0  0  0  0  0  0
   -0.5387    0.7181   -1.7292 C   0  0  0  0  0  0  0  0  0  0  0  0
   -1.5148   -0.2710   -1.1820 C   0  0  0  0  0  0  0  0  0  0  0  0
   -1.8644   -1.3823   -2.1170 C   0  0  0  0  0  0  0  0  0  0  0  0
   -0.7064   -0.8580   -0.0166 C   0  0  0  0  0  0  0  0  0  0  0  0
    3.1375    0.9024    3.7529 H   0  0  0  0  0  0  0  0  0  0  0  0
    3.9482   -0.0666    2.4327 H   0  0  0  0  0  0  0  0  0  0  0  0
    2.8590   -0.8636    3.6963 H   0  0  0  0  0  0  0  0  0  0  0  0
   -1.2076    0.7742    1.2303 H   0  0  0  0  0  0  0  0  0  0  0  0
   -0.5050    2.3385   -0.3398 H   0  0  0  0  0  0  0  0  0  0  0  0
    1.1102    1.5528   -0.5703 H   0  0  0  0  0  0  0  0  0  0  0  0
   -0.9881    1.4520   -2.4251 H   0  0  0  0  0  0  0  0  0  0  0  0
    0.3291    0.2142   -2.2157 H   0  0  0  0  0  0  0  0  0  0  0  0
   -2.3830    0.2604   -0.7741 H   0  0  0  0  0  0  0  0  0  0  0  0
   -2.5188   -1.0760   -2.9304 H   0  0  0  0  0  0  0  0  0  0  0  0
   -0.9470   -1.8936   -2.4344 H   0  0  0  0  0  0  0  0  0  0  0  0
   -2.4433   -2.1397   -1.5131 H   0  0  0  0  0  0  0  0  0  0  0  0
   -1.3786   -1.4535    0.6044 H   0  0  0  0  0  0  0  0  0  0  0  0
    0.1616   -1.3942   -0.4175 H   0  0  0  0  0  0  0  0  0  0  0  0
  1  2  1  0
  2  3  3  0
  3  4  1  0
  4  5  1  0
  5  6  1  0
  6  7  1  0
  7  8  1  0
  7  9  1  0
  9  4  1  0
  1 10  1  0
  1 11  1  0
  1 12  1  0
  4 13  1  0
  5 14  1  0
  5 15  1  0
  6 16  1  0
  6 17  1  0
  7 18  1  0
  8 19  1  0
  8 20  1  0
  8 21  1  0
  9 22  1  0
  9 23  1  0
M  END
