
     RDKit          3D

 14 14  0  0  0  0  0  0  0  0999 V2000
   -3.3055    0.3732    0.3756 C   0  0  0  0  0  0  0  0  0  0  0  0
   -1.9082   -0.0654    0.2628 C   0  0  0  0  0  0  0  0  0  0  0  0
   -0.7565   -0.4282    0.1548 C   0  0  0  0  0  0  0  0  0  0  0  0
    0.6165   -0.8352    0.0211 C   0  0  0  0  0  0  0  0  0  0  0  0
    0.9611   -1.9671   -0.3979 O   0  0  0  0  0  0  0  0  0  0  0  0
    1.6850    0.1203    0.3932 C   0  0  0  0  0  0  0  0  0  0  0  0
    2.9330    0.1114   -0.4595 C   0  0  0  0  0  0  0  0  0  0  0  0
    2.9328   -0.4142    0.8078 O   0  0  0  0  0  0  0  0  0  0  0  0
   -3.6929    0.2400    1.4163 H   0  0  0  0  0  0  0  0  0  0  0  0
   -3.3428    1.4470    0.1070 H   0  0  0  0  0  0  0  0  0  0  0  0
   -3.9692   -0.1724   -0.3253 H   0  0  0  0  0  0  0  0  0  0  0  0
    1.4074    1.1263    0.7658 H   0  0  0  0  0  0  0  0  0  0  0  0
    2.9645   -0.5899   -1.3014 H   0  0  0  0  0  0  0  0  0  0  0  0
    3.4748    1.0543   -0.6169 H   0  0  0  0  0  0  0  0  0  0  0  0
  1  2  1  0
  2  3  3  0
  3  4  1  0
  4  5  2  0
  4  6  1  0
  6  7  1  0
  7  8  1  0
  8  6  1  0
  1  9  1  0
  1 10  1  0
  1 11  1  0
  6 12  1  0
  7 13  1  0
  7 14  1  0
M  END
