
     RDKit          3D

 21 21  0  0  0  0  0  0  0  0999 V2000
    3.7764   -0.0988    0.6534 C   0  0  0  0  0  0  0  0  0  0  0  0
    2.3617   -0.1075    0.2342 C   0  0  0  0  0  0  0  0  0  0  0  0
    1.2119   -0.1243   -0.1190 C   0  0  0  0  0  0  0  0  0  0  0  0
   -0.1713   -0.1263   -0.5363 C   0  0  0  0  0  0  0  0  0  0  0  0
   -0.5717   -1.2126   -1.3062 O   0  0  0  0  0  0  0  0  0  0  0  0
   -0.6055    1.1723   -1.2343 C   0  0  0  0  0  0  0  0  0  0  0  0
   -1.9875    0.8607   -0.6430 C   0  0  0  0  0  0  0  0  0  0  0  0
   -1.1877    0.2239    0.5037 C   0  0  0  0  0  0  0  0  0  0  0  0
   -1.9702   -0.9123    1.0945 C   0  0  0  0  0  0  0  0  0  0  0  0
    4.1852   -1.1279    0.6754 H   0  0  0  0  0  0  0  0  0  0  0  0
    4.3992    0.5028   -0.0710 H   0  0  0  0  0  0  0  0  0  0  0  0
    3.8483    0.4180    1.6191 H   0  0  0  0  0  0  0  0  0  0  0  0
    0.0724   -1.9607   -1.2846 H   0  0  0  0  0  0  0  0  0  0  0  0
   -0.5507    1.1519   -2.3189 H   0  0  0  0  0  0  0  0  0  0  0  0
   -0.2162    2.0713   -0.7164 H   0  0  0  0  0  0  0  0  0  0  0  0
   -2.4663    0.0628   -1.2359 H   0  0  0  0  0  0  0  0  0  0  0  0
   -2.5767    1.7241   -0.3639 H   0  0  0  0  0  0  0  0  0  0  0  0
   -0.8999    0.9975    1.2130 H   0  0  0  0  0  0  0  0  0  0  0  0
   -2.6342   -1.4032    0.3430 H   0  0  0  0  0  0  0  0  0  0  0  0
   -2.6613   -0.4667    1.8508 H   0  0  0  0  0  0  0  0  0  0  0  0
   -1.3558   -1.6452    1.6425 H   0  0  0  0  0  0  0  0  0  0  0  0
  1  2  1  0
  2  3  3  0
  3  4  1  0
  4  5  1  0
  4  6  1  0
  6  7  1  0
  7  8  1  0
  8  9  1  0
  8  4  1  0
  1 10  1  0
  1 11  1  0
  1 12  1  0
  5 13  1  0
  6 14  1  0
  6 15  1  0
  7 16  1  0
  7 17  1  0
  8 18  1  0
  9 19  1  0
  9 20  1  0
  9 21  1  0
M  END
