
     RDKit          3D

 21 20  0  0  0  0  0  0  0  0999 V2000
    3.1830    2.5444    1.0255 C   0  0  0  0  0  0  0  0  0  0  0  0
    1.9678    1.7354    0.7647 C   0  0  0  0  0  0  0  0  0  0  0  0
    0.9467    1.0563    0.5465 C   0  0  0  0  0  0  0  0  0  0  0  0
   -0.2519    0.2756    0.3135 C   0  0  0  0  0  0  0  0  0  0  0  0
   -0.6248   -0.5408    1.5407 C   0  0  0  0  0  0  0  0  0  0  0  0
    0.0373   -0.6736   -0.7725 C   0  0  0  0  0  0  0  0  0  0  0  0
    1.1620   -0.7711   -1.2137 O   0  0  0  0  0  0  0  0  0  0  0  0
   -1.0169   -1.5151   -1.3387 C   0  0  0  0  0  0  0  0  0  0  0  0
   -2.4101   -1.2476   -0.9148 C   0  0  0  0  0  0  0  0  0  0  0  0
    3.4664    3.0012    0.0799 H   0  0  0  0  0  0  0  0  0  0  0  0
    4.0120    1.8558    1.3649 H   0  0  0  0  0  0  0  0  0  0  0  0
    3.0111    3.2500    1.8601 H   0  0  0  0  0  0  0  0  0  0  0  0
   -1.1261    0.9246    0.0628 H   0  0  0  0  0  0  0  0  0  0  0  0
   -0.3291   -1.6093    1.4216 H   0  0  0  0  0  0  0  0  0  0  0  0
   -0.0527   -0.0593    2.3895 H   0  0  0  0  0  0  0  0  0  0  0  0
   -1.7113   -0.4377    1.7048 H   0  0  0  0  0  0  0  0  0  0  0  0
   -0.9336   -1.4597   -2.4780 H   0  0  0  0  0  0  0  0  0  0  0  0
   -0.8197   -2.6158   -1.1475 H   0  0  0  0  0  0  0  0  0  0  0  0
   -2.6281   -0.2903   -0.4543 H   0  0  0  0  0  0  0  0  0  0  0  0
   -3.0690   -1.3729   -1.8301 H   0  0  0  0  0  0  0  0  0  0  0  0
   -2.8130   -2.0502   -0.2251 H   0  0  0  0  0  0  0  0  0  0  0  0
  1  2  1  0
  2  3  3  0
  3  4  1  0
  4  5  1  0
  4  6  1  0
  6  7  2  0
  6  8  1  0
  8  9  1  0
  1 10  1  0
  1 11  1  0
  1 12  1  0
  4 13  1  0
  5 14  1  0
  5 15  1  0
  5 16  1  0
  8 17  1  0
  8 18  1  0
  9 19  1  0
  9 20  1  0
  9 21  1  0
M  END
