
     RDKit          3D

 23 22  0  0  0  0  0  0  0  0999 V2000
    3.5842   -1.0202    1.0624 C   0  0  0  0  0  0  0  0  0  0  0  0
    2.2261   -0.5376    0.7845 C   0  0  0  0  0  0  0  0  0  0  0  0
    1.1117   -0.1433    0.5351 C   0  0  0  0  0  0  0  0  0  0  0  0
   -0.2476    0.3582    0.2292 C   0  0  0  0  0  0  0  0  0  0  0  0
   -0.2579    1.7330    0.2110 O   0  0  0  0  0  0  0  0  0  0  0  0
   -1.1021    2.2393    1.1664 C   0  0  0  0  0  0  0  0  0  0  0  0
   -0.6694   -0.2271   -1.1270 C   0  0  0  0  0  0  0  0  0  0  0  0
   -0.6442   -1.7259   -0.9503 C   0  0  0  0  0  0  0  0  0  0  0  0
   -2.0270    0.3020   -1.4655 C   0  0  0  0  0  0  0  0  0  0  0  0
    4.0440   -0.3002    1.7603 H   0  0  0  0  0  0  0  0  0  0  0  0
    3.5327   -2.0490    1.4774 H   0  0  0  0  0  0  0  0  0  0  0  0
    4.1977   -1.0709    0.1236 H   0  0  0  0  0  0  0  0  0  0  0  0
   -0.9369    0.0160    1.0257 H   0  0  0  0  0  0  0  0  0  0  0  0
   -1.0581    3.3538    1.0917 H   0  0  0  0  0  0  0  0  0  0  0  0
   -0.8305    1.8909    2.1864 H   0  0  0  0  0  0  0  0  0  0  0  0
   -2.1518    1.9623    0.9511 H   0  0  0  0  0  0  0  0  0  0  0  0
    0.1184    0.0486   -1.8550 H   0  0  0  0  0  0  0  0  0  0  0  0
   -1.2609   -1.9402   -0.0341 H   0  0  0  0  0  0  0  0  0  0  0  0
    0.4280   -1.9824   -0.7144 H   0  0  0  0  0  0  0  0  0  0  0  0
   -1.0310   -2.2773   -1.8164 H   0  0  0  0  0  0  0  0  0  0  0  0
   -2.4417   -0.1889   -2.3619 H   0  0  0  0  0  0  0  0  0  0  0  0
   -1.9151    1.3778   -1.7083 H   0  0  0  0  0  0  0  0  0  0  0  0
   -2.6688    0.1810   -0.5718 H   0  0  0  0  0  0  0  0  0  0  0  0
  1  2  1  0
  2  3  3  0
  3  4  1  0
  4  5  1  0
  5  6  1  0
  4  7  1  0
  7  8  1  0
  7  9  1  0
  1 10  1  0
  1 11  1  0
  1 12  1  0
  4 13  1  0
  6 14  1  0
  6 15  1  0
  6 16  1  0
  7 17  1  0
  8 18  1  0
  8 19  1  0
  8 20  1  0
  9 21  1  0
  9 22  1  0
  9 23  1  0
M  END
