
     RDKit          3D

 21 21  0  0  0  0  0  0  0  0999 V2000
    3.8926    1.4332   -0.4424 C   0  0  0  0  0  0  0  0  0  0  0  0
    2.5270    0.9346   -0.6184 C   0  0  0  0  0  0  0  0  0  0  0  0
    1.4074    0.5042   -0.7583 C   0  0  0  0  0  0  0  0  0  0  0  0
    0.0636   -0.0385   -0.9331 C   0  0  0  0  0  0  0  0  0  0  0  0
   -0.0295   -1.4621   -0.6222 C   0  0  0  0  0  0  0  0  0  0  0  0
   -1.1758   -1.7140   -0.0077 C   0  0  0  0  0  0  0  0  0  0  0  0
   -1.9572   -0.4318    0.1414 C   0  0  0  0  0  0  0  0  0  0  0  0
   -2.6960   -0.4047    1.4371 C   0  0  0  0  0  0  0  0  0  0  0  0
   -0.8369    0.6102    0.0936 C   0  0  0  0  0  0  0  0  0  0  0  0
    4.2637    1.1140    0.5646 H   0  0  0  0  0  0  0  0  0  0  0  0
    3.9314    2.5496   -0.4844 H   0  0  0  0  0  0  0  0  0  0  0  0
    4.5473    1.0738   -1.2611 H   0  0  0  0  0  0  0  0  0  0  0  0
   -0.3261    0.1225   -1.9597 H   0  0  0  0  0  0  0  0  0  0  0  0
    0.6981   -2.2565   -0.8348 H   0  0  0  0  0  0  0  0  0  0  0  0
   -1.5676   -2.6542    0.3607 H   0  0  0  0  0  0  0  0  0  0  0  0
   -2.6235   -0.2807   -0.7334 H   0  0  0  0  0  0  0  0  0  0  0  0
   -2.2965   -1.2479    2.0735 H   0  0  0  0  0  0  0  0  0  0  0  0
   -3.7544   -0.6510    1.2394 H   0  0  0  0  0  0  0  0  0  0  0  0
   -2.5603    0.5374    2.0076 H   0  0  0  0  0  0  0  0  0  0  0  0
   -0.3158    0.6909    1.0526 H   0  0  0  0  0  0  0  0  0  0  0  0
   -1.1915    1.5710   -0.3221 H   0  0  0  0  0  0  0  0  0  0  0  0
  1  2  1  0
  2  3  3  0
  3  4  1  0
  4  5  1  0
  5  6  2  0
  6  7  1  0
  7  8  1  0
  7  9  1  0
  9  4  1  0
  1 10  1  0
  1 11  1  0
  1 12  1  0
  4 13  1  0
  5 14  1  0
  6 15  1  0
  7 16  1  0
  8 17  1  0
  8 18  1  0
  8 19  1  0
  9 20  1  0
  9 21  1  0
M  END
