
     RDKit          3D

 15 15  0  0  0  0  0  0  0  0999 V2000
    2.9299    0.1501   -0.8104 C   0  0  0  0  0  0  0  0  0  0  0  0
    1.5017    0.1973   -0.4421 C   0  0  0  0  0  0  0  0  0  0  0  0
    0.3374    0.2346   -0.1632 C   0  0  0  0  0  0  0  0  0  0  0  0
   -1.0718    0.2634    0.1942 C   0  0  0  0  0  0  0  0  0  0  0  0
   -1.4901    1.4792    0.7180 O   0  0  0  0  0  0  0  0  0  0  0  0
   -1.5376   -0.8952    1.0324 C   0  0  0  0  0  0  0  0  0  0  0  0
   -1.7009   -1.5828   -0.1938 O   0  0  0  0  0  0  0  0  0  0  0  0
   -1.9930   -0.3644   -0.7672 C   0  0  0  0  0  0  0  0  0  0  0  0
   -2.7307   -0.0136   -1.6986 O   0  0  0  0  0  0  0  0  0  0  0  0
    3.1787   -0.8438   -1.2655 H   0  0  0  0  0  0  0  0  0  0  0  0
    3.5441    0.3115    0.1200 H   0  0  0  0  0  0  0  0  0  0  0  0
    3.1550    0.9237   -1.5708 H   0  0  0  0  0  0  0  0  0  0  0  0
   -0.7657    2.1320    0.7081 H   0  0  0  0  0  0  0  0  0  0  0  0
   -0.8102   -1.3265    1.7297 H   0  0  0  0  0  0  0  0  0  0  0  0
   -2.5468   -0.6655    1.4470 H   0  0  0  0  0  0  0  0  0  0  0  0
  1  2  1  0
  2  3  3  0
  3  4  1  0
  4  5  1  0
  4  6  1  0
  6  7  1  0
  7  8  1  0
  8  9  2  0
  8  4  1  0
  1 10  1  0
  1 11  1  0
  1 12  1  0
  5 13  1  0
  6 14  1  0
  6 15  1  0
M  END
