
     RDKit          3D

 18 17  0  0  0  0  0  0  0  0999 V2000
    3.2199    0.6764   -0.2153 C   0  0  0  0  0  0  0  0  0  0  0  0
    1.9110    0.0177    0.0042 C   0  0  0  0  0  0  0  0  0  0  0  0
    0.8363   -0.5062    0.1684 C   0  0  0  0  0  0  0  0  0  0  0  0
   -0.4598   -1.1530    0.3795 C   0  0  0  0  0  0  0  0  0  0  0  0
   -0.4017   -2.4178   -0.1730 O   0  0  0  0  0  0  0  0  0  0  0  0
   -1.5769   -0.3819   -0.3306 C   0  0  0  0  0  0  0  0  0  0  0  0
   -1.6190    1.0355    0.2395 C   0  0  0  0  0  0  0  0  0  0  0  0
   -2.6266    1.7624   -0.3874 O   0  0  0  0  0  0  0  0  0  0  0  0
    3.9914    0.2624    0.4775 H   0  0  0  0  0  0  0  0  0  0  0  0
    3.1458    1.7745    0.0208 H   0  0  0  0  0  0  0  0  0  0  0  0
    3.4826    0.4975   -1.2774 H   0  0  0  0  0  0  0  0  0  0  0  0
   -0.7037   -1.2648    1.4565 H   0  0  0  0  0  0  0  0  0  0  0  0
    0.4707   -2.8479   -0.1310 H   0  0  0  0  0  0  0  0  0  0  0  0
   -2.5307   -0.9016   -0.1265 H   0  0  0  0  0  0  0  0  0  0  0  0
   -1.3448   -0.3306   -1.3967 H   0  0  0  0  0  0  0  0  0  0  0  0
   -1.6946    1.0338    1.3353 H   0  0  0  0  0  0  0  0  0  0  0  0
   -0.6550    1.5327   -0.0102 H   0  0  0  0  0  0  0  0  0  0  0  0
   -3.4450    1.2109   -0.4775 H   0  0  0  0  0  0  0  0  0  0  0  0
  1  2  1  0
  2  3  3  0
  3  4  1  0
  4  5  1  0
  4  6  1  0
  6  7  1  0
  7  8  1  0
  1  9  1  0
  1 10  1  0
  1 11  1  0
  4 12  1  0
  5 13  1  0
  6 14  1  0
  6 15  1  0
  7 16  1  0
  7 17  1  0
  8 18  1  0
M  END
