
     RDKit          3D

 20 19  0  0  0  0  0  0  0  0999 V2000
    3.4443   -1.3978   -0.8789 C   0  0  0  0  0  0  0  0  0  0  0  0
    2.1691   -0.7289   -0.5250 C   0  0  0  0  0  0  0  0  0  0  0  0
    1.1423   -0.1674   -0.2368 C   0  0  0  0  0  0  0  0  0  0  0  0
   -0.1111    0.5108    0.0916 C   0  0  0  0  0  0  0  0  0  0  0  0
   -0.5866    1.2164   -1.1470 C   0  0  0  0  0  0  0  0  0  0  0  0
   -1.1313   -0.4823    0.5984 C   0  0  0  0  0  0  0  0  0  0  0  0
   -2.4193    0.2284    0.9337 C   0  0  0  0  0  0  0  0  0  0  0  0
   -2.1590    1.1741    1.9157 O   0  0  0  0  0  0  0  0  0  0  0  0
    3.3627   -1.8306   -1.8760 H   0  0  0  0  0  0  0  0  0  0  0  0
    3.6295   -2.2587   -0.1773 H   0  0  0  0  0  0  0  0  0  0  0  0
    4.2661   -0.6547   -0.7938 H   0  0  0  0  0  0  0  0  0  0  0  0
    0.0267    1.2634    0.8979 H   0  0  0  0  0  0  0  0  0  0  0  0
    0.2617    1.6415   -1.7206 H   0  0  0  0  0  0  0  0  0  0  0  0
   -1.1920    2.0931   -0.8080 H   0  0  0  0  0  0  0  0  0  0  0  0
   -1.2071    0.5817   -1.8082 H   0  0  0  0  0  0  0  0  0  0  0  0
   -1.2561   -1.3570   -0.0421 H   0  0  0  0  0  0  0  0  0  0  0  0
   -0.7234   -0.8660    1.5758 H   0  0  0  0  0  0  0  0  0  0  0  0
   -2.7700    0.7404    0.0385 H   0  0  0  0  0  0  0  0  0  0  0  0
   -3.1493   -0.4850    1.3599 H   0  0  0  0  0  0  0  0  0  0  0  0
   -1.5972    0.7788    2.6022 H   0  0  0  0  0  0  0  0  0  0  0  0
  1  2  1  0
  2  3  3  0
  3  4  1  0
  4  5  1  0
  4  6  1  0
  6  7  1  0
  7  8  1  0
  1  9  1  0
  1 10  1  0
  1 11  1  0
  4 12  1  0
  5 13  1  0
  5 14  1  0
  5 15  1  0
  6 16  1  0
  6 17  1  0
  7 18  1  0
  7 19  1  0
  8 20  1  0
M  END
