
     RDKit          3D

 17 20  0  0  0  0  0  0  0  0999 V2000
    3.6195   -0.4598   -0.0619 C   0  0  0  0  0  0  0  0  0  0  0  0
    2.1487   -0.2557   -0.0557 C   0  0  0  0  0  0  0  0  0  0  0  0
    0.9706   -0.0942   -0.0431 C   0  0  0  0  0  0  0  0  0  0  0  0
   -0.4076    0.0964   -0.0042 C   0  0  0  0  0  0  0  0  0  0  0  0
   -1.4615   -0.7683   -0.5659 C   0  0  0  0  0  0  0  0  0  0  0  0
   -2.3105    0.4038   -0.7386 C   0  0  0  0  0  0  0  0  0  0  0  0
   -2.3685   -0.3186    0.4862 C   0  0  0  0  0  0  0  0  0  0  0  0
   -1.2722    0.5109    1.0462 C   0  0  0  0  0  0  0  0  0  0  0  0
   -1.2024    1.2474   -0.2195 C   0  0  0  0  0  0  0  0  0  0  0  0
    4.0275   -0.2748    0.9359 H   0  0  0  0  0  0  0  0  0  0  0  0
    4.0742    0.1776   -0.8389 H   0  0  0  0  0  0  0  0  0  0  0  0
    3.8706   -1.5080   -0.3270 H   0  0  0  0  0  0  0  0  0  0  0  0
   -1.4000   -1.6679   -1.0896 H   0  0  0  0  0  0  0  0  0  0  0  0
   -3.0035    0.6377   -1.4900 H   0  0  0  0  0  0  0  0  0  0  0  0
   -3.1185   -0.8373    1.0017 H   0  0  0  0  0  0  0  0  0  0  0  0
   -1.1422    0.8467    2.0269 H   0  0  0  0  0  0  0  0  0  0  0  0
   -1.0243    2.2641   -0.3937 H   0  0  0  0  0  0  0  0  0  0  0  0
  1  2  1  0
  2  3  3  0
  3  4  1  0
  4  5  1  0
  5  6  1  0
  6  7  1  0
  7  8  1  0
  8  9  1  0
  8  4  1  0
  9  4  1  0
  7  5  1  0
  9  6  1  0
  1 10  1  0
  1 11  1  0
  1 12  1  0
  5 13  1  0
  6 14  1  0
  7 15  1  0
  8 16  1  0
  9 17  1  0
M  END
