
     RDKit          3D

 21 20  0  0  0  0  0  0  0  0999 V2000
    3.5608   -1.5855    0.4039 C   0  0  0  0  0  0  0  0  0  0  0  0
    2.4238   -0.7641   -0.0429 C   0  0  0  0  0  0  0  0  0  0  0  0
    1.4817   -0.1001   -0.3946 C   0  0  0  0  0  0  0  0  0  0  0  0
    0.3315    0.6841   -0.8277 C   0  0  0  0  0  0  0  0  0  0  0  0
    0.4922    1.5120   -1.7443 O   0  0  0  0  0  0  0  0  0  0  0  0
   -0.9905    0.5182   -0.2131 C   0  0  0  0  0  0  0  0  0  0  0  0
   -0.9839    0.8125    1.2715 C   0  0  0  0  0  0  0  0  0  0  0  0
   -1.9605    1.4625   -0.8606 C   0  0  0  0  0  0  0  0  0  0  0  0
   -1.4158   -0.9323   -0.3749 C   0  0  0  0  0  0  0  0  0  0  0  0
    4.3852   -1.5573   -0.3378 H   0  0  0  0  0  0  0  0  0  0  0  0
    3.1897   -2.6438    0.5193 H   0  0  0  0  0  0  0  0  0  0  0  0
    3.8897   -1.2506    1.3862 H   0  0  0  0  0  0  0  0  0  0  0  0
    0.0096    0.5874    1.7329 H   0  0  0  0  0  0  0  0  0  0  0  0
   -1.7600    0.1533    1.7600 H   0  0  0  0  0  0  0  0  0  0  0  0
   -1.2764    1.8559    1.5049 H   0  0  0  0  0  0  0  0  0  0  0  0
   -1.8091    1.5284   -1.9643 H   0  0  0  0  0  0  0  0  0  0  0  0
   -2.9804    1.0765   -0.6650 H   0  0  0  0  0  0  0  0  0  0  0  0
   -1.8872    2.4922   -0.4694 H   0  0  0  0  0  0  0  0  0  0  0  0
   -0.7679   -1.4732   -1.1109 H   0  0  0  0  0  0  0  0  0  0  0  0
   -1.4877   -1.4621    0.5956 H   0  0  0  0  0  0  0  0  0  0  0  0
   -2.4449   -0.9140   -0.8104 H   0  0  0  0  0  0  0  0  0  0  0  0
  1  2  1  0
  2  3  3  0
  3  4  1  0
  4  5  2  0
  4  6  1  0
  6  7  1  0
  6  8  1  0
  6  9  1  0
  1 10  1  0
  1 11  1  0
  1 12  1  0
  7 13  1  0
  7 14  1  0
  7 15  1  0
  8 16  1  0
  8 17  1  0
  8 18  1  0
  9 19  1  0
  9 20  1  0
  9 21  1  0
M  END
