
     RDKit          3D

 19 19  0  0  0  0  0  0  0  0999 V2000
    3.3821    0.4381   -0.6822 C   0  0  0  0  0  0  0  0  0  0  0  0
    2.0564    0.0992   -0.1378 C   0  0  0  0  0  0  0  0  0  0  0  0
    0.9723   -0.1977    0.3188 C   0  0  0  0  0  0  0  0  0  0  0  0
   -0.3548   -0.5622    0.8501 C   0  0  0  0  0  0  0  0  0  0  0  0
   -0.9963   -1.4333   -0.1383 C   0  0  0  0  0  0  0  0  0  0  0  0
   -1.7922   -0.8885   -1.0472 C   0  0  0  0  0  0  0  0  0  0  0  0
   -1.9431    0.5849   -0.9526 C   0  0  0  0  0  0  0  0  0  0  0  0
   -2.0703    1.0707    0.3237 O   0  0  0  0  0  0  0  0  0  0  0  0
   -1.1390    0.6459    1.2273 C   0  0  0  0  0  0  0  0  0  0  0  0
    4.1836    0.3044    0.0774 H   0  0  0  0  0  0  0  0  0  0  0  0
    3.4165    1.5038   -0.9876 H   0  0  0  0  0  0  0  0  0  0  0  0
    3.6326   -0.2473   -1.5137 H   0  0  0  0  0  0  0  0  0  0  0  0
   -0.1667   -1.1696    1.7603 H   0  0  0  0  0  0  0  0  0  0  0  0
   -0.8104   -2.4948   -0.1097 H   0  0  0  0  0  0  0  0  0  0  0  0
   -2.3011   -1.4831   -1.8121 H   0  0  0  0  0  0  0  0  0  0  0  0
   -2.8912    0.8441   -1.4982 H   0  0  0  0  0  0  0  0  0  0  0  0
   -1.0975    1.0318   -1.5187 H   0  0  0  0  0  0  0  0  0  0  0  0
   -0.4245    1.4759    1.4051 H   0  0  0  0  0  0  0  0  0  0  0  0
   -1.6565    0.4778    2.1947 H   0  0  0  0  0  0  0  0  0  0  0  0
  1  2  1  0
  2  3  3  0
  3  4  1  0
  4  5  1  0
  5  6  2  0
  6  7  1  0
  7  8  1  0
  8  9  1  0
  9  4  1  0
  1 10  1  0
  1 11  1  0
  1 12  1  0
  4 13  1  0
  5 14  1  0
  6 15  1  0
  7 16  1  0
  7 17  1  0
  9 18  1  0
  9 19  1  0
M  END
