
     RDKit          3D

 18 17  0  0  0  0  0  0  0  0999 V2000
    3.6038    0.0840    0.1690 C   0  0  0  0  0  0  0  0  0  0  0  0
    2.1405    0.0815    0.0848 C   0  0  0  0  0  0  0  0  0  0  0  0
    0.9208    0.0948    0.0129 C   0  0  0  0  0  0  0  0  0  0  0  0
   -0.5378    0.1192   -0.0972 C   0  0  0  0  0  0  0  0  0  0  0  0
   -0.9319   -1.0382   -0.9862 C   0  0  0  0  0  0  0  0  0  0  0  0
   -2.3109   -1.0599   -1.1376 O   0  0  0  0  0  0  0  0  0  0  0  0
   -1.1477   -0.0478    1.1441 O   0  0  0  0  0  0  0  0  0  0  0  0
   -2.0154    0.9954    1.3916 C   0  0  0  0  0  0  0  0  0  0  0  0
    4.0581   -0.6131   -0.5803 H   0  0  0  0  0  0  0  0  0  0  0  0
    3.9491   -0.2356    1.1868 H   0  0  0  0  0  0  0  0  0  0  0  0
    3.9430    1.1117    0.0295 H   0  0  0  0  0  0  0  0  0  0  0  0
   -0.9111    1.0529   -0.5654 H   0  0  0  0  0  0  0  0  0  0  0  0
   -0.4986   -0.9136   -2.0050 H   0  0  0  0  0  0  0  0  0  0  0  0
   -0.6339   -2.0126   -0.5644 H   0  0  0  0  0  0  0  0  0  0  0  0
   -2.7996   -1.3704   -0.3484 H   0  0  0  0  0  0  0  0  0  0  0  0
   -1.5517    1.9859    1.4080 H   0  0  0  0  0  0  0  0  0  0  0  0
   -2.8075    0.9466    0.5966 H   0  0  0  0  0  0  0  0  0  0  0  0
   -2.4693    0.8192    2.4002 H   0  0  0  0  0  0  0  0  0  0  0  0
  1  2  1  0
  2  3  3  0
  3  4  1  0
  4  5  1  0
  5  6  1  0
  4  7  1  0
  7  8  1  0
  1  9  1  0
  1 10  1  0
  1 11  1  0
  4 12  1  0
  5 13  1  0
  5 14  1  0
  6 15  1  0
  8 16  1  0
  8 17  1  0
  8 18  1  0
M  END
