
     RDKit          3D

 19 20  0  0  0  0  0  0  0  0999 V2000
    4.0692    0.1595   -0.0757 C   0  0  0  0  0  0  0  0  0  0  0  0
    2.5794    0.1531   -0.0912 C   0  0  0  0  0  0  0  0  0  0  0  0
    1.3839    0.1564   -0.1224 C   0  0  0  0  0  0  0  0  0  0  0  0
    0.0398    0.1616   -0.1797 C   0  0  0  0  0  0  0  0  0  0  0  0
   -0.8052   -0.4719   -1.2097 C   0  0  0  0  0  0  0  0  0  0  0  0
   -1.7163    0.1906   -0.2222 C   0  0  0  0  0  0  0  0  0  0  0  0
   -3.0778    0.3136   -0.2552 C   0  0  0  0  0  0  0  0  0  0  0  0
   -0.8638   -0.4118    0.8669 C   0  0  0  0  0  0  0  0  0  0  0  0
   -0.7775    1.2530   -0.2191 O   0  0  0  0  0  0  0  0  0  0  0  0
    4.4127   -0.8364    0.3050 H   0  0  0  0  0  0  0  0  0  0  0  0
    4.4519    0.9186    0.6070 H   0  0  0  0  0  0  0  0  0  0  0  0
    4.3926    0.2482   -1.1187 H   0  0  0  0  0  0  0  0  0  0  0  0
   -0.8168   -1.5670   -1.2494 H   0  0  0  0  0  0  0  0  0  0  0  0
   -0.8372    0.0372   -2.2169 H   0  0  0  0  0  0  0  0  0  0  0  0
   -3.6325   -0.2455    0.5560 H   0  0  0  0  0  0  0  0  0  0  0  0
   -3.4695    1.3692   -0.1522 H   0  0  0  0  0  0  0  0  0  0  0  0
   -3.5724   -0.0523   -1.2032 H   0  0  0  0  0  0  0  0  0  0  0  0
   -0.9475    0.1280    1.8150 H   0  0  0  0  0  0  0  0  0  0  0  0
   -0.8130   -1.5040    0.8925 H   0  0  0  0  0  0  0  0  0  0  0  0
  1  2  1  0
  2  3  3  0
  3  4  1  0
  4  5  1  0
  5  6  1  0
  6  7  1  0
  6  8  1  0
  6  9  1  0
  8  4  1  0
  9  4  1  0
  1 10  1  0
  1 11  1  0
  1 12  1  0
  5 13  1  0
  5 14  1  0
  7 15  1  0
  7 16  1  0
  7 17  1  0
  8 18  1  0
  8 19  1  0
M  END
