
     RDKit          3D

 21 20  0  0  0  0  0  0  0  0999 V2000
   -3.5240   -1.4985   -1.3413 C   0  0  0  0  0  0  0  0  0  0  0  0
   -2.3029   -0.8946   -0.8028 C   0  0  0  0  0  0  0  0  0  0  0  0
   -1.3038   -0.4036   -0.3404 C   0  0  0  0  0  0  0  0  0  0  0  0
   -0.0766    0.2274    0.2252 C   0  0  0  0  0  0  0  0  0  0  0  0
   -0.3812    1.6450    0.5981 C   0  0  0  0  0  0  0  0  0  0  0  0
    0.6749    2.2851    1.1857 O   0  0  0  0  0  0  0  0  0  0  0  0
    0.9474    0.1268   -0.6516 O   0  0  0  0  0  0  0  0  0  0  0  0
    2.0341   -0.6181   -0.3198 C   0  0  0  0  0  0  0  0  0  0  0  0
    2.6923   -0.0456    0.9081 C   0  0  0  0  0  0  0  0  0  0  0  0
   -4.3967   -1.3399   -0.6560 H   0  0  0  0  0  0  0  0  0  0  0  0
   -3.3521   -2.5941   -1.3693 H   0  0  0  0  0  0  0  0  0  0  0  0
   -3.7559   -1.1711   -2.3641 H   0  0  0  0  0  0  0  0  0  0  0  0
    0.1617   -0.3475    1.1520 H   0  0  0  0  0  0  0  0  0  0  0  0
   -0.6222    2.1861   -0.3561 H   0  0  0  0  0  0  0  0  0  0  0  0
   -1.2925    1.6212    1.2498 H   0  0  0  0  0  0  0  0  0  0  0  0
    1.2185    2.7495    0.4764 H   0  0  0  0  0  0  0  0  0  0  0  0
    1.8062   -1.6787   -0.0828 H   0  0  0  0  0  0  0  0  0  0  0  0
    2.8281   -0.6052   -1.1234 H   0  0  0  0  0  0  0  0  0  0  0  0
    3.6001   -0.6297    1.2002 H   0  0  0  0  0  0  0  0  0  0  0  0
    3.0147    0.9984    0.6226 H   0  0  0  0  0  0  0  0  0  0  0  0
    2.0300   -0.0130    1.7897 H   0  0  0  0  0  0  0  0  0  0  0  0
  1  2  1  0
  2  3  3  0
  3  4  1  0
  4  5  1  0
  5  6  1  0
  4  7  1  0
  7  8  1  0
  8  9  1  0
  1 10  1  0
  1 11  1  0
  1 12  1  0
  4 13  1  0
  5 14  1  0
  5 15  1  0
  6 16  1  0
  8 17  1  0
  8 18  1  0
  9 19  1  0
  9 20  1  0
  9 21  1  0
M  END
