
     RDKit          3D

 19 19  0  0  0  0  0  0  0  0999 V2000
    1.9219    1.8085   -1.8102 C   0  0  0  0  0  0  0  0  0  0  0  0
    0.9282    0.9416   -1.1471 C   0  0  0  0  0  0  0  0  0  0  0  0
    0.1344    0.2255   -0.6163 C   0  0  0  0  0  0  0  0  0  0  0  0
   -0.8620   -0.6849    0.0427 C   0  0  0  0  0  0  0  0  0  0  0  0
   -0.4754   -2.0796   -0.3627 C   0  0  0  0  0  0  0  0  0  0  0  0
   -2.1029   -0.4241   -0.5962 O   0  0  0  0  0  0  0  0  0  0  0  0
   -0.9349   -0.4568    1.4968 C   0  0  0  0  0  0  0  0  0  0  0  0
   -0.1620    0.5998    2.0911 C   0  0  0  0  0  0  0  0  0  0  0  0
    0.2999   -0.7410    2.2176 O   0  0  0  0  0  0  0  0  0  0  0  0
    1.3564    2.5737   -2.3874 H   0  0  0  0  0  0  0  0  0  0  0  0
    2.4720    2.3355   -0.9974 H   0  0  0  0  0  0  0  0  0  0  0  0
    2.6082    1.2577   -2.4528 H   0  0  0  0  0  0  0  0  0  0  0  0
   -0.1220   -2.1077   -1.4276 H   0  0  0  0  0  0  0  0  0  0  0  0
   -1.3595   -2.7359   -0.2787 H   0  0  0  0  0  0  0  0  0  0  0  0
    0.3146   -2.4497    0.3152 H   0  0  0  0  0  0  0  0  0  0  0  0
   -2.2881    0.5529   -0.6395 H   0  0  0  0  0  0  0  0  0  0  0  0
   -1.7795   -0.8773    2.0503 H   0  0  0  0  0  0  0  0  0  0  0  0
    0.5660    1.2038    1.4873 H   0  0  0  0  0  0  0  0  0  0  0  0
   -0.5153    1.0580    3.0150 H   0  0  0  0  0  0  0  0  0  0  0  0
  1  2  1  0
  2  3  3  0
  3  4  1  0
  4  5  1  0
  4  6  1  0
  4  7  1  0
  7  8  1  0
  8  9  1  0
  9  7  1  0
  1 10  1  0
  1 11  1  0
  1 12  1  0
  5 13  1  0
  5 14  1  0
  5 15  1  0
  6 16  1  0
  7 17  1  0
  8 18  1  0
  8 19  1  0
M  END
