
     RDKit          3D

 19 18  0  0  0  0  0  0  0  0999 V2000
    3.1750   -0.0999   -2.5988 C   0  0  0  0  0  0  0  0  0  0  0  0
    2.0254    0.2705   -1.7710 C   0  0  0  0  0  0  0  0  0  0  0  0
    1.0685    0.6008   -1.0816 C   0  0  0  0  0  0  0  0  0  0  0  0
   -0.0870    1.0062   -0.2764 C   0  0  0  0  0  0  0  0  0  0  0  0
   -0.8577   -0.2472    0.0903 C   0  0  0  0  0  0  0  0  0  0  0  0
   -0.0325   -1.1098    0.8251 O   0  0  0  0  0  0  0  0  0  0  0  0
   -2.0069    0.1843    0.9180 C   0  0  0  0  0  0  0  0  0  0  0  0
   -2.1478   -0.2929    2.3102 C   0  0  0  0  0  0  0  0  0  0  0  0
   -2.8473    0.9305    0.4754 O   0  0  0  0  0  0  0  0  0  0  0  0
    2.8541   -0.5124   -3.5906 H   0  0  0  0  0  0  0  0  0  0  0  0
    3.8204    0.7688   -2.8447 H   0  0  0  0  0  0  0  0  0  0  0  0
    3.7525   -0.8473   -2.0176 H   0  0  0  0  0  0  0  0  0  0  0  0
   -0.7656    1.6822   -0.7893 H   0  0  0  0  0  0  0  0  0  0  0  0
    0.2201    1.4731    0.6833 H   0  0  0  0  0  0  0  0  0  0  0  0
   -1.1641   -0.7349   -0.8464 H   0  0  0  0  0  0  0  0  0  0  0  0
   -0.5469   -1.8334    1.2431 H   0  0  0  0  0  0  0  0  0  0  0  0
   -2.4690   -1.3593    2.2717 H   0  0  0  0  0  0  0  0  0  0  0  0
   -1.1226   -0.2081    2.7746 H   0  0  0  0  0  0  0  0  0  0  0  0
   -2.8687    0.3290    2.8909 H   0  0  0  0  0  0  0  0  0  0  0  0
  1  2  1  0
  2  3  3  0
  3  4  1  0
  4  5  1  0
  5  6  1  0
  5  7  1  0
  7  8  1  0
  7  9  2  0
  1 10  1  0
  1 11  1  0
  1 12  1  0
  4 13  1  0
  4 14  1  0
  5 15  1  0
  6 16  1  0
  8 17  1  0
  8 18  1  0
  8 19  1  0
M  END
