
     RDKit          3D

 17 18  0  0  0  0  0  0  0  0999 V2000
    3.4990    0.6004   -0.7421 C   0  0  0  0  0  0  0  0  0  0  0  0
    2.1673    0.0844   -0.3953 C   0  0  0  0  0  0  0  0  0  0  0  0
    1.0770   -0.3470   -0.1061 C   0  0  0  0  0  0  0  0  0  0  0  0
   -0.2496   -0.8735    0.2457 C   0  0  0  0  0  0  0  0  0  0  0  0
   -1.2114    0.1148    0.7564 C   0  0  0  0  0  0  0  0  0  0  0  0
   -1.1933    1.3582    0.0919 O   0  0  0  0  0  0  0  0  0  0  0  0
   -1.9607    0.7511   -0.8807 C   0  0  0  0  0  0  0  0  0  0  0  0
   -1.4199   -0.6123   -0.5907 C   0  0  0  0  0  0  0  0  0  0  0  0
   -2.3916   -1.6191   -0.6166 O   0  0  0  0  0  0  0  0  0  0  0  0
    3.6505    0.6415   -1.8472 H   0  0  0  0  0  0  0  0  0  0  0  0
    3.5788    1.6368   -0.3425 H   0  0  0  0  0  0  0  0  0  0  0  0
    4.3028   -0.0442   -0.3209 H   0  0  0  0  0  0  0  0  0  0  0  0
   -0.2028   -1.8333    0.8163 H   0  0  0  0  0  0  0  0  0  0  0  0
   -1.9937   -0.0937    1.4805 H   0  0  0  0  0  0  0  0  0  0  0  0
   -1.8347    1.1187   -1.9142 H   0  0  0  0  0  0  0  0  0  0  0  0
   -3.0495    0.8535   -0.6018 H   0  0  0  0  0  0  0  0  0  0  0  0
   -2.7681   -1.7363    0.3048 H   0  0  0  0  0  0  0  0  0  0  0  0
  1  2  1  0
  2  3  3  0
  3  4  1  0
  4  5  1  0
  5  6  1  0
  6  7  1  0
  7  8  1  0
  8  9  1  0
  8  4  1  0
  8  5  1  0
  1 10  1  0
  1 11  1  0
  1 12  1  0
  4 13  1  0
  5 14  1  0
  7 15  1  0
  7 16  1  0
  9 17  1  0
M  END
