
     RDKit          3D

 21 21  0  0  0  0  0  0  0  0999 V2000
    2.7710    2.0876    1.3412 C   0  0  0  0  0  0  0  0  0  0  0  0
    1.8943    1.2605    0.5085 C   0  0  0  0  0  0  0  0  0  0  0  0
    1.1765    0.5786   -0.1970 C   0  0  0  0  0  0  0  0  0  0  0  0
    0.2957   -0.2233   -1.0501 C   0  0  0  0  0  0  0  0  0  0  0  0
   -0.1277    0.4817   -2.1733 O   0  0  0  0  0  0  0  0  0  0  0  0
   -0.8508   -0.6840   -0.1950 C   0  0  0  0  0  0  0  0  0  0  0  0
   -0.4395   -1.5288    0.9928 C   0  0  0  0  0  0  0  0  0  0  0  0
   -2.1585   -0.0391   -0.1863 C   0  0  0  0  0  0  0  0  0  0  0  0
   -2.0199   -1.2551   -1.0254 C   0  0  0  0  0  0  0  0  0  0  0  0
    2.2472    2.3381    2.2864 H   0  0  0  0  0  0  0  0  0  0  0  0
    3.7369    1.5971    1.5603 H   0  0  0  0  0  0  0  0  0  0  0  0
    2.9880    3.0718    0.8407 H   0  0  0  0  0  0  0  0  0  0  0  0
    0.8198   -1.1348   -1.4236 H   0  0  0  0  0  0  0  0  0  0  0  0
    0.4064    1.2977   -2.2383 H   0  0  0  0  0  0  0  0  0  0  0  0
   -1.3396   -2.1077    1.3017 H   0  0  0  0  0  0  0  0  0  0  0  0
   -0.1671   -0.9074    1.8754 H   0  0  0  0  0  0  0  0  0  0  0  0
    0.3391   -2.2676    0.7326 H   0  0  0  0  0  0  0  0  0  0  0  0
   -2.3517    0.9422   -0.6905 H   0  0  0  0  0  0  0  0  0  0  0  0
   -2.7868   -0.1662    0.7215 H   0  0  0  0  0  0  0  0  0  0  0  0
   -2.0133   -1.1109   -2.1032 H   0  0  0  0  0  0  0  0  0  0  0  0
   -2.4198   -2.2304   -0.6959 H   0  0  0  0  0  0  0  0  0  0  0  0
  1  2  1  0
  2  3  3  0
  3  4  1  0
  4  5  1  0
  4  6  1  0
  6  7  1  0
  6  8  1  0
  8  9  1  0
  9  6  1  0
  1 10  1  0
  1 11  1  0
  1 12  1  0
  4 13  1  0
  5 14  1  0
  7 15  1  0
  7 16  1  0
  7 17  1  0
  8 18  1  0
  8 19  1  0
  9 20  1  0
  9 21  1  0
M  END
