
     RDKit          3D

 15 14  0  0  0  0  0  0  0  0999 V2000
    3.3941    0.1316    0.2567 C   0  0  0  0  0  0  0  0  0  0  0  0
    1.9382    0.3501    0.0817 C   0  0  0  0  0  0  0  0  0  0  0  0
    0.7555    0.5219   -0.0805 C   0  0  0  0  0  0  0  0  0  0  0  0
   -0.6809    0.7357   -0.2523 C   0  0  0  0  0  0  0  0  0  0  0  0
   -1.3883   -0.5457   -0.1540 C   0  0  0  0  0  0  0  0  0  0  0  0
   -2.8714   -0.6390   -0.2901 C   0  0  0  0  0  0  0  0  0  0  0  0
   -0.7746   -1.5641    0.0419 O   0  0  0  0  0  0  0  0  0  0  0  0
    3.9085    1.1265    0.4030 H   0  0  0  0  0  0  0  0  0  0  0  0
    3.7622   -0.2607   -0.7061 H   0  0  0  0  0  0  0  0  0  0  0  0
    3.5595   -0.5344    1.1061 H   0  0  0  0  0  0  0  0  0  0  0  0
   -0.8292    1.2532   -1.2266 H   0  0  0  0  0  0  0  0  0  0  0  0
   -1.0573    1.4687    0.5183 H   0  0  0  0  0  0  0  0  0  0  0  0
   -3.2799   -1.1982    0.5753 H   0  0  0  0  0  0  0  0  0  0  0  0
   -3.3409    0.3618   -0.3781 H   0  0  0  0  0  0  0  0  0  0  0  0
   -3.0955   -1.2075   -1.1918 H   0  0  0  0  0  0  0  0  0  0  0  0
  1  2  1  0
  2  3  3  0
  3  4  1  0
  4  5  1  0
  5  6  1  0
  5  7  2  0
  1  8  1  0
  1  9  1  0
  1 10  1  0
  4 11  1  0
  4 12  1  0
  6 13  1  0
  6 14  1  0
  6 15  1  0
M  END
