
     RDKit          3D

 21 21  0  0  0  0  0  0  0  0999 V2000
    4.1937    0.6779   -0.1289 C   0  0  0  0  0  0  0  0  0  0  0  0
    2.7944    0.3829   -0.0690 C   0  0  0  0  0  0  0  0  0  0  0  0
    1.5571    0.1445   -0.0171 C   0  0  0  0  0  0  0  0  0  0  0  0
    0.2811   -0.0793    0.0338 C   0  0  0  0  0  0  0  0  0  0  0  0
   -0.4705    1.4246   -0.3207 C   0  0  0  0  0  0  0  0  0  0  0  0
   -0.4548   -0.6711    1.0905 O   0  0  0  0  0  0  0  0  0  0  0  0
   -0.6931   -1.0088   -0.4008 C   0  0  0  0  0  0  0  0  0  0  0  0
   -2.2160   -0.9046   -0.4618 C   0  0  0  0  0  0  0  0  0  0  0  0
   -2.7929   -0.8460    0.9192 C   0  0  0  0  0  0  0  0  0  0  0  0
    4.4580    1.5831   -0.6295 H   0  0  0  0  0  0  0  0  0  0  0  0
    4.7058   -0.1540   -0.7333 H   0  0  0  0  0  0  0  0  0  0  0  0
    4.6719    0.5918    0.9102 H   0  0  0  0  0  0  0  0  0  0  0  0
   -1.3227    1.3666    0.2810 H   0  0  0  0  0  0  0  0  0  0  0  0
    0.2178    2.1578    0.0280 H   0  0  0  0  0  0  0  0  0  0  0  0
   -0.6406    1.2863   -1.3796 H   0  0  0  0  0  0  0  0  0  0  0  0
   -0.4193   -2.1131   -0.5094 H   0  0  0  0  0  0  0  0  0  0  0  0
   -2.7129   -1.4947   -1.1849 H   0  0  0  0  0  0  0  0  0  0  0  0
   -2.3918    0.1924   -0.8718 H   0  0  0  0  0  0  0  0  0  0  0  0
   -2.3367   -1.7046    1.4871 H   0  0  0  0  0  0  0  0  0  0  0  0
   -2.5081    0.0437    1.5049 H   0  0  0  0  0  0  0  0  0  0  0  0
   -3.9206   -0.8755    0.9443 H   0  0  0  0  0  0  0  0  0  0  0  0
  1  2  1  0
  2  3  3  0
  3  4  1  0
  4  5  1  0
  4  6  1  0
  6  7  1  0
  7  8  1  0
  8  9  1  0
  7  4  1  0
  1 10  1  0
  1 11  1  0
  1 12  1  0
  5 13  1  0
  5 14  1  0
  5 15  1  0
  7 16  1  0
  8 17  1  0
  8 18  1  0
  9 19  1  0
  9 20  1  0
  9 21  1  0
M  END
