
     RDKit          3D

 17 18  0  0  0  0  0  0  0  0999 V2000
    2.1741    2.6158   -0.4046 C   0  0  0  0  0  0  0  0  0  0  0  0
    1.1681    1.6112   -0.1981 C   0  0  0  0  0  0  0  0  0  0  0  0
    0.2952    0.7362   -0.0160 C   0  0  0  0  0  0  0  0  0  0  0  0
   -0.7315   -0.2587    0.1883 C   0  0  0  0  0  0  0  0  0  0  0  0
   -2.0316   -0.2147   -0.4884 C   0  0  0  0  0  0  0  0  0  0  0  0
   -1.0602   -1.1614   -1.0494 C   0  0  0  0  0  0  0  0  0  0  0  0
   -0.3974   -2.2414   -0.2504 C   0  0  0  0  0  0  0  0  0  0  0  0
   -0.4549   -1.4596    1.0026 C   0  0  0  0  0  0  0  0  0  0  0  0
   -0.3368   -1.6571    2.1857 O   0  0  0  0  0  0  0  0  0  0  0  0
    1.8871    3.6229   -0.0370 H   0  0  0  0  0  0  0  0  0  0  0  0
    2.4207    2.7422   -1.5041 H   0  0  0  0  0  0  0  0  0  0  0  0
    3.1217    2.2534    0.0802 H   0  0  0  0  0  0  0  0  0  0  0  0
   -2.3828    0.5827   -1.1491 H   0  0  0  0  0  0  0  0  0  0  0  0
   -2.8878   -0.6997    0.0725 H   0  0  0  0  0  0  0  0  0  0  0  0
   -0.5078   -0.8635   -1.9888 H   0  0  0  0  0  0  0  0  0  0  0  0
   -0.9564   -3.2114   -0.2286 H   0  0  0  0  0  0  0  0  0  0  0  0
    0.6805   -2.3967   -0.5365 H   0  0  0  0  0  0  0  0  0  0  0  0
  1  2  1  0
  2  3  3  0
  3  4  1  0
  4  5  1  0
  5  6  1  0
  6  7  1  0
  7  8  1  0
  8  9  2  0
  6  4  1  0
  8  4  1  0
  1 10  1  0
  1 11  1  0
  1 12  1  0
  5 13  1  0
  5 14  1  0
  6 15  1  0
  7 16  1  0
  7 17  1  0
M  END
