
     RDKit          3D

 17 17  0  0  0  0  0  0  0  0999 V2000
   -3.6171   -0.0467   -1.6668 C   0  0  0  0  0  0  0  0  0  0  0  0
   -2.3892    0.3973   -1.4952 C   0  0  0  0  0  0  0  0  0  0  0  0
   -1.1211    0.8796   -1.3156 C   0  0  0  0  0  0  0  0  0  0  0  0
    0.2555    1.4095   -1.1306 C   0  0  0  0  0  0  0  0  0  0  0  0
    0.9029    0.9275   -0.2076 C   0  0  0  0  0  0  0  0  0  0  0  0
    1.6800    0.3490    0.9422 C   0  0  0  0  0  0  0  0  0  0  0  0
    2.3645   -0.1500    1.9227 C   0  0  0  0  0  0  0  0  0  0  0  0
    2.5823   -1.6971    2.0027 C   0  0  0  0  0  0  0  0  0  0  0  0
    3.5907   -0.8237    1.7528 O   0  0  0  0  0  0  0  0  0  0  0  0
   -4.1594   -0.3531   -0.6796 H   0  0  0  0  0  0  0  0  0  0  0  0
   -3.6278   -1.1050   -2.1574 H   0  0  0  0  0  0  0  0  0  0  0  0
   -4.3211    0.5161   -2.2872 H   0  0  0  0  0  0  0  0  0  0  0  0
    0.7549    1.2256   -2.2212 H   0  0  0  0  0  0  0  0  0  0  0  0
    0.1830    2.5528   -1.2904 H   0  0  0  0  0  0  0  0  0  0  0  0
    2.2639    0.3031    2.9991 H   0  0  0  0  0  0  0  0  0  0  0  0
    2.1347   -2.2198    1.1212 H   0  0  0  0  0  0  0  0  0  0  0  0
    2.5232   -2.1650    2.9747 H   0  0  0  0  0  0  0  0  0  0  0  0
  1  2  1  0
  2  3  3  0
  3  4  1  0
  4  5  1  0
  5  6  3  0
  6  7  1  0
  7  8  1  0
  8  9  1  0
  9  7  1  0
  1 10  1  0
  1 11  1  0
  1 12  1  0
  4 13  1  0
  4 14  1  0
  7 15  1  0
  8 16  1  0
  8 17  1  0
M  END
