
     RDKit          3D

 19 20  0  0  0  0  0  0  0  0999 V2000
    1.5494   -2.5589   -2.1019 C   0  0  0  0  0  0  0  0  0  0  0  0
    0.7117   -1.5191   -1.4883 C   0  0  0  0  0  0  0  0  0  0  0  0
    0.0054   -0.6563   -0.9955 C   0  0  0  0  0  0  0  0  0  0  0  0
   -0.8487    0.3663   -0.4196 C   0  0  0  0  0  0  0  0  0  0  0  0
   -1.2124    0.1972    1.0617 C   0  0  0  0  0  0  0  0  0  0  0  0
   -2.0186    1.2720    1.7049 C   0  0  0  0  0  0  0  0  0  0  0  0
   -1.2533    2.2328    1.0818 O   0  0  0  0  0  0  0  0  0  0  0  0
   -0.3186    1.3521    0.5175 C   0  0  0  0  0  0  0  0  0  0  0  0
    1.0961    1.3621    1.0035 C   0  0  0  0  0  0  0  0  0  0  0  0
    0.9172   -3.4124   -2.4441 H   0  0  0  0  0  0  0  0  0  0  0  0
    2.0496   -2.1698   -3.0297 H   0  0  0  0  0  0  0  0  0  0  0  0
    2.2736   -2.9775   -1.3781 H   0  0  0  0  0  0  0  0  0  0  0  0
   -1.6969    0.6554   -1.0527 H   0  0  0  0  0  0  0  0  0  0  0  0
   -0.6817   -0.5604    1.6429 H   0  0  0  0  0  0  0  0  0  0  0  0
   -3.0817    1.3074    1.3710 H   0  0  0  0  0  0  0  0  0  0  0  0
   -1.8996    1.2129    2.8237 H   0  0  0  0  0  0  0  0  0  0  0  0
    1.2190    1.8852    1.9677 H   0  0  0  0  0  0  0  0  0  0  0  0
    1.3742    0.2889    1.2084 H   0  0  0  0  0  0  0  0  0  0  0  0
    1.8152    1.7220    0.2362 H   0  0  0  0  0  0  0  0  0  0  0  0
  1  2  1  0
  2  3  3  0
  3  4  1  0
  4  5  1  0
  5  6  1  0
  6  7  1  0
  7  8  1  0
  8  9  1  0
  8  4  1  0
  8  5  1  0
  1 10  1  0
  1 11  1  0
  1 12  1  0
  4 13  1  0
  5 14  1  0
  6 15  1  0
  6 16  1  0
  9 17  1  0
  9 18  1  0
  9 19  1  0
M  END
