
     RDKit          3D

 21 21  0  0  0  0  0  0  0  0999 V2000
    3.2928   -0.7302   -0.9523 C   0  0  0  0  0  0  0  0  0  0  0  0
    1.9203   -0.2371   -0.6784 C   0  0  0  0  0  0  0  0  0  0  0  0
    0.8065    0.1724   -0.4650 C   0  0  0  0  0  0  0  0  0  0  0  0
   -0.5563    0.6552   -0.2060 C   0  0  0  0  0  0  0  0  0  0  0  0
   -1.0981    1.7368   -1.1371 C   0  0  0  0  0  0  0  0  0  0  0  0
   -1.5019   -0.2622    0.4099 C   0  0  0  0  0  0  0  0  0  0  0  0
   -1.1692   -1.6416    0.8699 C   0  0  0  0  0  0  0  0  0  0  0  0
   -0.9565    0.8524    1.2678 C   0  0  0  0  0  0  0  0  0  0  0  0
    0.0097    0.4884    2.2318 O   0  0  0  0  0  0  0  0  0  0  0  0
    4.0365    0.0707   -0.7623 H   0  0  0  0  0  0  0  0  0  0  0  0
    3.5435   -1.5543   -0.2345 H   0  0  0  0  0  0  0  0  0  0  0  0
    3.3523   -1.0469   -1.9998 H   0  0  0  0  0  0  0  0  0  0  0  0
   -2.0212    1.3670   -1.6634 H   0  0  0  0  0  0  0  0  0  0  0  0
   -0.3370    1.9256   -1.9222 H   0  0  0  0  0  0  0  0  0  0  0  0
   -1.2678    2.6885   -0.6187 H   0  0  0  0  0  0  0  0  0  0  0  0
   -2.5778   -0.1333    0.1255 H   0  0  0  0  0  0  0  0  0  0  0  0
   -0.1497   -1.7668    1.2382 H   0  0  0  0  0  0  0  0  0  0  0  0
   -1.8438   -1.8687    1.7456 H   0  0  0  0  0  0  0  0  0  0  0  0
   -1.3796   -2.4205    0.1070 H   0  0  0  0  0  0  0  0  0  0  0  0
   -1.5936    1.7220    1.5155 H   0  0  0  0  0  0  0  0  0  0  0  0
   -0.5093   -0.0176    2.9325 H   0  0  0  0  0  0  0  0  0  0  0  0
  1  2  1  0
  2  3  3  0
  3  4  1  0
  4  5  1  0
  4  6  1  0
  6  7  1  0
  6  8  1  0
  8  9  1  0
  8  4  1  0
  1 10  1  0
  1 11  1  0
  1 12  1  0
  5 13  1  0
  5 14  1  0
  5 15  1  0
  6 16  1  0
  7 17  1  0
  7 18  1  0
  7 19  1  0
  8 20  1  0
  9 21  1  0
M  END
