
     RDKit          3D

 19 19  0  0  0  0  0  0  0  0999 V2000
    3.5390    0.2963    0.4361 C   0  0  0  0  0  0  0  0  0  0  0  0
    2.0747    0.2471    0.4164 C   0  0  0  0  0  0  0  0  0  0  0  0
    0.8536    0.2270    0.3968 C   0  0  0  0  0  0  0  0  0  0  0  0
   -0.5951    0.2033    0.3989 C   0  0  0  0  0  0  0  0  0  0  0  0
   -1.1136   -1.1600    0.7342 C   0  0  0  0  0  0  0  0  0  0  0  0
   -1.8041   -1.6441   -0.3537 O   0  0  0  0  0  0  0  0  0  0  0  0
   -2.3064   -0.5247   -1.0160 C   0  0  0  0  0  0  0  0  0  0  0  0
   -1.0927    0.3830   -1.0321 C   0  0  0  0  0  0  0  0  0  0  0  0
   -1.4181    1.7059   -1.1973 O   0  0  0  0  0  0  0  0  0  0  0  0
    3.9382    0.3493    1.4704 H   0  0  0  0  0  0  0  0  0  0  0  0
    3.9034   -0.6269   -0.0913 H   0  0  0  0  0  0  0  0  0  0  0  0
    3.9110    1.1932   -0.0913 H   0  0  0  0  0  0  0  0  0  0  0  0
   -1.0431    0.9633    1.0710 H   0  0  0  0  0  0  0  0  0  0  0  0
   -0.3177   -1.8619    1.0561 H   0  0  0  0  0  0  0  0  0  0  0  0
   -1.8470   -1.1088    1.5841 H   0  0  0  0  0  0  0  0  0  0  0  0
   -2.6597   -0.7701   -2.0267 H   0  0  0  0  0  0  0  0  0  0  0  0
   -3.0916   -0.0749   -0.4062 H   0  0  0  0  0  0  0  0  0  0  0  0
   -0.3494    0.0037   -1.7538 H   0  0  0  0  0  0  0  0  0  0  0  0
   -0.5813    2.1995   -1.3936 H   0  0  0  0  0  0  0  0  0  0  0  0
  1  2  1  0
  2  3  3  0
  3  4  1  0
  4  5  1  0
  5  6  1  0
  6  7  1  0
  7  8  1  0
  8  9  1  0
  8  4  1  0
  1 10  1  0
  1 11  1  0
  1 12  1  0
  4 13  1  0
  5 14  1  0
  5 15  1  0
  7 16  1  0
  7 17  1  0
  8 18  1  0
  9 19  1  0
M  END
