
     RDKit          3D

 23 22  0  0  0  0  0  0  0  0999 V2000
    3.5031    1.0065    0.7846 C   0  0  0  0  0  0  0  0  0  0  0  0
    2.2653    0.3096    0.4332 C   0  0  0  0  0  0  0  0  0  0  0  0
    1.2451   -0.2857    0.1312 C   0  0  0  0  0  0  0  0  0  0  0  0
    0.0268   -0.9927   -0.2551 C   0  0  0  0  0  0  0  0  0  0  0  0
   -0.2287   -0.8434   -1.7321 C   0  0  0  0  0  0  0  0  0  0  0  0
   -1.1038   -0.4374    0.5786 C   0  0  0  0  0  0  0  0  0  0  0  0
   -2.4227   -1.0942    0.2673 C   0  0  0  0  0  0  0  0  0  0  0  0
   -1.2598    1.0621    0.3666 C   0  0  0  0  0  0  0  0  0  0  0  0
   -0.1300    1.7688    0.7069 O   0  0  0  0  0  0  0  0  0  0  0  0
    3.9684    1.3204   -0.1769 H   0  0  0  0  0  0  0  0  0  0  0  0
    4.1702    0.2209    1.2435 H   0  0  0  0  0  0  0  0  0  0  0  0
    3.3333    1.8539    1.4681 H   0  0  0  0  0  0  0  0  0  0  0  0
    0.1119   -2.0684   -0.0043 H   0  0  0  0  0  0  0  0  0  0  0  0
    0.6134   -1.3526   -2.2561 H   0  0  0  0  0  0  0  0  0  0  0  0
   -1.2154   -1.2426   -1.9887 H   0  0  0  0  0  0  0  0  0  0  0  0
   -0.1369    0.2521   -1.9709 H   0  0  0  0  0  0  0  0  0  0  0  0
   -0.8911   -0.5935    1.6422 H   0  0  0  0  0  0  0  0  0  0  0  0
   -3.0812   -1.2023    1.1481 H   0  0  0  0  0  0  0  0  0  0  0  0
   -3.0136   -0.5137   -0.4840 H   0  0  0  0  0  0  0  0  0  0  0  0
   -2.2939   -2.1057   -0.1750 H   0  0  0  0  0  0  0  0  0  0  0  0
   -2.0791    1.3844    1.0418 H   0  0  0  0  0  0  0  0  0  0  0  0
   -1.5734    1.2864   -0.6752 H   0  0  0  0  0  0  0  0  0  0  0  0
    0.1922    2.2673   -0.0938 H   0  0  0  0  0  0  0  0  0  0  0  0
  1  2  1  0
  2  3  3  0
  3  4  1  0
  4  5  1  0
  4  6  1  0
  6  7  1  0
  6  8  1  0
  8  9  1  0
  1 10  1  0
  1 11  1  0
  1 12  1  0
  4 13  1  0
  5 14  1  0
  5 15  1  0
  5 16  1  0
  6 17  1  0
  7 18  1  0
  7 19  1  0
  7 20  1  0
  8 21  1  0
  8 22  1  0
  9 23  1  0
M  END
