
     RDKit          3D

 19 20  0  0  0  0  0  0  0  0999 V2000
    3.6506    0.2253    0.7703 C   0  0  0  0  0  0  0  0  0  0  0  0
    2.2806   -0.0953    0.3494 C   0  0  0  0  0  0  0  0  0  0  0  0
    1.1559   -0.3384   -0.0016 C   0  0  0  0  0  0  0  0  0  0  0  0
   -0.2091   -0.6497   -0.4217 C   0  0  0  0  0  0  0  0  0  0  0  0
   -1.1055   -0.4296    0.7754 C   0  0  0  0  0  0  0  0  0  0  0  0
   -2.4657   -0.2774    0.0843 C   0  0  0  0  0  0  0  0  0  0  0  0
   -2.1163    0.5521   -1.1020 C   0  0  0  0  0  0  0  0  0  0  0  0
   -1.1617    1.5972   -0.7314 O   0  0  0  0  0  0  0  0  0  0  0  0
   -0.7520    0.3929   -1.3925 C   0  0  0  0  0  0  0  0  0  0  0  0
    3.8437    1.3332    0.7105 H   0  0  0  0  0  0  0  0  0  0  0  0
    4.4008   -0.2554    0.1128 H   0  0  0  0  0  0  0  0  0  0  0  0
    3.7525   -0.0454    1.8350 H   0  0  0  0  0  0  0  0  0  0  0  0
   -0.2977   -1.6688   -0.8239 H   0  0  0  0  0  0  0  0  0  0  0  0
   -0.8504    0.5448    1.2362 H   0  0  0  0  0  0  0  0  0  0  0  0
   -1.0911   -1.2478    1.4932 H   0  0  0  0  0  0  0  0  0  0  0  0
   -3.2267    0.1343    0.7449 H   0  0  0  0  0  0  0  0  0  0  0  0
   -2.7223   -1.3079   -0.2886 H   0  0  0  0  0  0  0  0  0  0  0  0
   -2.8856    0.9279   -1.7992 H   0  0  0  0  0  0  0  0  0  0  0  0
   -0.1997    0.6078   -2.3171 H   0  0  0  0  0  0  0  0  0  0  0  0
  1  2  1  0
  2  3  3  0
  3  4  1  0
  4  5  1  0
  5  6  1  0
  6  7  1  0
  7  8  1  0
  8  9  1  0
  9  4  1  0
  9  7  1  0
  1 10  1  0
  1 11  1  0
  1 12  1  0
  4 13  1  0
  5 14  1  0
  5 15  1  0
  6 16  1  0
  6 17  1  0
  7 18  1  0
  9 19  1  0
M  END
