
     RDKit          3D

 19 20  0  0  0  0  0  0  0  0999 V2000
    2.8087   -1.4491   -1.2967 C   0  0  0  0  0  0  0  0  0  0  0  0
    1.6729   -0.6784   -0.7845 C   0  0  0  0  0  0  0  0  0  0  0  0
    0.7404   -0.0379   -0.3651 C   0  0  0  0  0  0  0  0  0  0  0  0
   -0.4047    0.7640    0.1337 C   0  0  0  0  0  0  0  0  0  0  0  0
   -0.1631    2.2367    0.2186 C   0  0  0  0  0  0  0  0  0  0  0  0
   -1.2533    0.1501    1.1979 C   0  0  0  0  0  0  0  0  0  0  0  0
   -1.5307   -1.3122    1.0947 C   0  0  0  0  0  0  0  0  0  0  0  0
   -2.0036   -1.0786   -0.2157 O   0  0  0  0  0  0  0  0  0  0  0  0
   -1.7463    0.2754   -0.2614 C   0  0  0  0  0  0  0  0  0  0  0  0
    3.4448   -1.8525   -0.4706 H   0  0  0  0  0  0  0  0  0  0  0  0
    3.4679   -0.7060   -1.8312 H   0  0  0  0  0  0  0  0  0  0  0  0
    2.4324   -2.2286   -1.9724 H   0  0  0  0  0  0  0  0  0  0  0  0
   -0.4451    2.5850    1.2230 H   0  0  0  0  0  0  0  0  0  0  0  0
    0.9275    2.4481    0.1123 H   0  0  0  0  0  0  0  0  0  0  0  0
   -0.6708    2.7901   -0.5959 H   0  0  0  0  0  0  0  0  0  0  0  0
   -1.7520    0.7797    1.9549 H   0  0  0  0  0  0  0  0  0  0  0  0
   -0.6508   -1.9853    1.1389 H   0  0  0  0  0  0  0  0  0  0  0  0
   -2.3182   -1.7111    1.7574 H   0  0  0  0  0  0  0  0  0  0  0  0
   -2.5561    1.0106   -0.3916 H   0  0  0  0  0  0  0  0  0  0  0  0
  1  2  1  0
  2  3  3  0
  3  4  1  0
  4  5  1  0
  4  6  1  0
  6  7  1  0
  7  8  1  0
  8  9  1  0
  9  4  1  0
  9  6  1  0
  1 10  1  0
  1 11  1  0
  1 12  1  0
  5 13  1  0
  5 14  1  0
  5 15  1  0
  6 16  1  0
  7 17  1  0
  7 18  1  0
  9 19  1  0
M  END
