
     RDKit          3D

 18 18  0  0  0  0  0  0  0  0999 V2000
    3.6143   -1.2288    0.3649 C   0  0  0  0  0  0  0  0  0  0  0  0
    2.3856   -0.4207    0.2579 C   0  0  0  0  0  0  0  0  0  0  0  0
    1.3833    0.2462    0.1605 C   0  0  0  0  0  0  0  0  0  0  0  0
    0.1668    1.0731    0.0276 C   0  0  0  0  0  0  0  0  0  0  0  0
   -0.9742    0.1217   -0.3447 C   0  0  0  0  0  0  0  0  0  0  0  0
   -2.3035    0.7678   -0.5268 C   0  0  0  0  0  0  0  0  0  0  0  0
   -2.6782   -0.1219    0.6445 C   0  0  0  0  0  0  0  0  0  0  0  0
   -1.3817   -0.5629    0.8084 O   0  0  0  0  0  0  0  0  0  0  0  0
    3.7767   -1.7372   -0.6205 H   0  0  0  0  0  0  0  0  0  0  0  0
    3.4733   -2.0683    1.0986 H   0  0  0  0  0  0  0  0  0  0  0  0
    4.4629   -0.6324    0.6969 H   0  0  0  0  0  0  0  0  0  0  0  0
    0.3685    1.8057   -0.7601 H   0  0  0  0  0  0  0  0  0  0  0  0
   -0.0917    1.5879    0.9658 H   0  0  0  0  0  0  0  0  0  0  0  0
   -0.6717   -0.6271   -1.1140 H   0  0  0  0  0  0  0  0  0  0  0  0
   -2.3692    1.8381   -0.2505 H   0  0  0  0  0  0  0  0  0  0  0  0
   -2.7605    0.4883   -1.4949 H   0  0  0  0  0  0  0  0  0  0  0  0
   -3.0650    0.4422    1.5155 H   0  0  0  0  0  0  0  0  0  0  0  0
   -3.3357   -0.9717    0.3646 H   0  0  0  0  0  0  0  0  0  0  0  0
  1  2  1  0
  2  3  3  0
  3  4  1  0
  4  5  1  0
  5  6  1  0
  6  7  1  0
  7  8  1  0
  8  5  1  0
  1  9  1  0
  1 10  1  0
  1 11  1  0
  4 12  1  0
  4 13  1  0
  5 14  1  0
  6 15  1  0
  6 16  1  0
  7 17  1  0
  7 18  1  0
M  END
