
     RDKit          3D

 21 21  0  0  0  0  0  0  0  0999 V2000
    4.3827   -1.0055   -0.3495 C   0  0  0  0  0  0  0  0  0  0  0  0
    3.0208   -0.5222   -0.6067 C   0  0  0  0  0  0  0  0  0  0  0  0
    1.8870   -0.1408   -0.8263 C   0  0  0  0  0  0  0  0  0  0  0  0
    0.5298    0.3369   -1.1066 C   0  0  0  0  0  0  0  0  0  0  0  0
   -0.2294    0.1207    0.0359 O   0  0  0  0  0  0  0  0  0  0  0  0
   -1.5440    0.5351   -0.1059 C   0  0  0  0  0  0  0  0  0  0  0  0
   -2.4480   -0.5947    0.3647 C   0  0  0  0  0  0  0  0  0  0  0  0
   -2.2163   -0.0407    1.7585 C   0  0  0  0  0  0  0  0  0  0  0  0
   -2.1013    1.3099    1.0788 C   0  0  0  0  0  0  0  0  0  0  0  0
    4.5783   -1.9193   -0.9284 H   0  0  0  0  0  0  0  0  0  0  0  0
    4.4779   -1.2409    0.7515 H   0  0  0  0  0  0  0  0  0  0  0  0
    5.1352   -0.2344   -0.6181 H   0  0  0  0  0  0  0  0  0  0  0  0
    0.0822   -0.1875   -1.9623 H   0  0  0  0  0  0  0  0  0  0  0  0
    0.6327    1.4195   -1.3322 H   0  0  0  0  0  0  0  0  0  0  0  0
   -1.8014    0.9692   -1.0825 H   0  0  0  0  0  0  0  0  0  0  0  0
   -3.5001   -0.4420    0.0108 H   0  0  0  0  0  0  0  0  0  0  0  0
   -2.0374   -1.6058    0.1998 H   0  0  0  0  0  0  0  0  0  0  0  0
   -1.2390   -0.3501    2.1359 H   0  0  0  0  0  0  0  0  0  0  0  0
   -3.0712   -0.1291    2.4496 H   0  0  0  0  0  0  0  0  0  0  0  0
   -3.1058    1.6922    0.8456 H   0  0  0  0  0  0  0  0  0  0  0  0
   -1.4327    2.0297    1.5445 H   0  0  0  0  0  0  0  0  0  0  0  0
  1  2  1  0
  2  3  3  0
  3  4  1  0
  4  5  1  0
  5  6  1  0
  6  7  1  0
  7  8  1  0
  8  9  1  0
  9  6  1  0
  1 10  1  0
  1 11  1  0
  1 12  1  0
  4 13  1  0
  4 14  1  0
  6 15  1  0
  7 16  1  0
  7 17  1  0
  8 18  1  0
  8 19  1  0
  9 20  1  0
  9 21  1  0
M  END
