
     RDKit          3D

 19 19  0  0  0  0  0  0  0  0999 V2000
    3.7051    0.4738   -0.5887 C   0  0  0  0  0  0  0  0  0  0  0  0
    2.2698    0.1439   -0.5932 C   0  0  0  0  0  0  0  0  0  0  0  0
    1.0824   -0.1108   -0.6032 C   0  0  0  0  0  0  0  0  0  0  0  0
   -0.3177   -0.4329   -0.6282 C   0  0  0  0  0  0  0  0  0  0  0  0
   -0.5557   -1.8172   -0.4668 O   0  0  0  0  0  0  0  0  0  0  0  0
   -1.9300   -1.7821   -0.1725 C   0  0  0  0  0  0  0  0  0  0  0  0
   -2.0008   -0.8531    0.8618 O   0  0  0  0  0  0  0  0  0  0  0  0
   -1.0437    0.1090    0.5940 C   0  0  0  0  0  0  0  0  0  0  0  0
   -1.7404    1.4068    0.2739 C   0  0  0  0  0  0  0  0  0  0  0  0
    4.0678    0.7389    0.4234 H   0  0  0  0  0  0  0  0  0  0  0  0
    3.8546    1.3591   -1.2326 H   0  0  0  0  0  0  0  0  0  0  0  0
    4.2957   -0.3848   -0.9539 H   0  0  0  0  0  0  0  0  0  0  0  0
   -0.8500   -0.0771   -1.5418 H   0  0  0  0  0  0  0  0  0  0  0  0
   -2.3145   -2.7693    0.1195 H   0  0  0  0  0  0  0  0  0  0  0  0
   -2.4269   -1.3846   -1.0973 H   0  0  0  0  0  0  0  0  0  0  0  0
   -0.3379    0.2279    1.4432 H   0  0  0  0  0  0  0  0  0  0  0  0
   -1.1676    2.0052   -0.4727 H   0  0  0  0  0  0  0  0  0  0  0  0
   -1.8719    1.9492    1.2326 H   0  0  0  0  0  0  0  0  0  0  0  0
   -2.7182    1.1979   -0.1691 H   0  0  0  0  0  0  0  0  0  0  0  0
  1  2  1  0
  2  3  3  0
  3  4  1  0
  4  5  1  0
  5  6  1  0
  6  7  1  0
  7  8  1  0
  8  9  1  0
  8  4  1  0
  1 10  1  0
  1 11  1  0
  1 12  1  0
  4 13  1  0
  6 14  1  0
  6 15  1  0
  8 16  1  0
  9 17  1  0
  9 18  1  0
  9 19  1  0
M  END
