
     RDKit          3D

 14 14  0  0  0  0  0  0  0  0999 V2000
    2.7178    0.6567   -0.1126 C   0  0  0  0  0  0  0  0  0  0  0  0
    1.2952    0.6225   -0.2439 C   0  0  0  0  0  0  0  0  0  0  0  0
   -0.1130    0.5802   -0.3507 C   0  0  0  0  0  0  0  0  0  0  0  0
   -1.4194    0.5214   -0.4453 C   0  0  0  0  0  0  0  0  0  0  0  0
   -1.9321   -0.6339   -1.1888 O   0  0  0  0  0  0  0  0  0  0  0  0
   -1.3424   -1.2985   -0.1155 C   0  0  0  0  0  0  0  0  0  0  0  0
   -1.9513   -0.5160    0.8154 C   0  0  0  0  0  0  0  0  0  0  0  0
   -2.5063    0.3334    1.6260 O   0  0  0  0  0  0  0  0  0  0  0  0
    2.9761   -0.1915    0.6003 H   0  0  0  0  0  0  0  0  0  0  0  0
    3.2640    0.6710   -1.0341 H   0  0  0  0  0  0  0  0  0  0  0  0
    2.9851    1.6497    0.4892 H   0  0  0  0  0  0  0  0  0  0  0  0
   -2.1191    1.3112   -0.5419 H   0  0  0  0  0  0  0  0  0  0  0  0
   -1.6623   -2.4034   -0.0710 H   0  0  0  0  0  0  0  0  0  0  0  0
   -0.1921   -1.3028   -0.1609 H   0  0  0  0  0  0  0  0  0  0  0  0
  1  2  1  0
  2  3  3  0
  3  4  1  0
  4  5  1  0
  5  6  1  0
  6  7  1  0
  7  8  2  0
  7  4  1  0
  1  9  1  0
  1 10  1  0
  1 11  1  0
  4 12  1  0
  6 13  1  0
  6 14  1  0
M  END
