
     RDKit          3D

 16 15  0  0  0  0  0  0  0  0999 V2000
    3.0056    0.6004   -0.6083 C   0  0  0  0  0  0  0  0  0  0  0  0
    1.6927   -0.0664   -0.4918 C   0  0  0  0  0  0  0  0  0  0  0  0
    0.6266   -0.6123   -0.3763 C   0  0  0  0  0  0  0  0  0  0  0  0
   -0.6784   -1.2816   -0.2090 C   0  0  0  0  0  0  0  0  0  0  0  0
   -1.8185   -0.2905   -0.2611 C   0  0  0  0  0  0  0  0  0  0  0  0
   -1.7163    0.7367    0.8286 C   0  0  0  0  0  0  0  0  0  0  0  0
    2.8680    1.5610   -1.1336 H   0  0  0  0  0  0  0  0  0  0  0  0
    3.6890   -0.0365   -1.2408 H   0  0  0  0  0  0  0  0  0  0  0  0
    3.4222    0.6961    0.3920 H   0  0  0  0  0  0  0  0  0  0  0  0
   -0.8663   -2.0349   -0.9722 H   0  0  0  0  0  0  0  0  0  0  0  0
   -0.6527   -1.7629    0.7948 H   0  0  0  0  0  0  0  0  0  0  0  0
   -1.6760    0.2713   -1.2311 H   0  0  0  0  0  0  0  0  0  0  0  0
   -2.7954   -0.7633   -0.3333 H   0  0  0  0  0  0  0  0  0  0  0  0
   -1.8849    0.2791    1.8320 H   0  0  0  0  0  0  0  0  0  0  0  0
   -2.5025    1.5008    0.6154 H   0  0  0  0  0  0  0  0  0  0  0  0
   -0.7131    1.2032    0.8093 H   0  0  0  0  0  0  0  0  0  0  0  0
  1  2  1  0
  2  3  3  0
  3  4  1  0
  4  5  1  0
  5  6  1  0
  1  7  1  0
  1  8  1  0
  1  9  1  0
  4 10  1  0
  4 11  1  0
  5 12  1  0
  5 13  1  0
  6 14  1  0
  6 15  1  0
  6 16  1  0
M  END
