
     RDKit          3D

 21 21  0  0  0  0  0  0  0  0999 V2000
    3.5035    1.1973    0.6976 C   0  0  0  0  0  0  0  0  0  0  0  0
    2.0302    0.7422    0.5962 C   0  0  0  0  0  0  0  0  0  0  0  0
    0.8059    0.3836    0.5238 C   0  0  0  0  0  0  0  0  0  0  0  0
   -0.5051    0.0191    0.4594 C   0  0  0  0  0  0  0  0  0  0  0  0
   -0.8855   -0.8156   -0.8085 C   0  0  0  0  0  0  0  0  0  0  0  0
   -0.5624   -0.1723   -2.0822 C   0  0  0  0  0  0  0  0  0  0  0  0
   -2.3376   -0.8932   -0.8198 O   0  0  0  0  0  0  0  0  0  0  0  0
   -1.6427    0.5176    1.2075 C   0  0  0  0  0  0  0  0  0  0  0  0
   -1.1183   -0.7354    1.7497 C   0  0  0  0  0  0  0  0  0  0  0  0
    4.0098    0.5947   -0.0507 H   0  0  0  0  0  0  0  0  0  0  0  0
    3.7972    0.9631    1.7714 H   0  0  0  0  0  0  0  0  0  0  0  0
    3.5659    2.2712    0.6132 H   0  0  0  0  0  0  0  0  0  0  0  0
   -0.4980   -1.8225   -0.7365 H   0  0  0  0  0  0  0  0  0  0  0  0
   -0.0772   -0.9765   -2.7495 H   0  0  0  0  0  0  0  0  0  0  0  0
   -1.4950    0.0447   -2.7046 H   0  0  0  0  0  0  0  0  0  0  0  0
    0.1606    0.6466   -2.0938 H   0  0  0  0  0  0  0  0  0  0  0  0
   -2.5287   -1.1344   -1.7962 H   0  0  0  0  0  0  0  0  0  0  0  0
   -1.6701    1.4444    1.7459 H   0  0  0  0  0  0  0  0  0  0  0  0
   -2.6401    0.3495    0.6302 H   0  0  0  0  0  0  0  0  0  0  0  0
   -0.3109   -0.9008    2.4661 H   0  0  0  0  0  0  0  0  0  0  0  0
   -1.6015   -1.7232    1.3807 H   0  0  0  0  0  0  0  0  0  0  0  0
  1  2  1  0
  2  3  3  0
  3  4  1  0
  4  5  1  0
  5  6  1  0
  5  7  1  0
  4  8  1  0
  8  9  1  0
  9  4  1  0
  1 10  1  0
  1 11  1  0
  1 12  1  0
  5 13  1  0
  6 14  1  0
  6 15  1  0
  6 16  1  0
  7 17  1  0
  8 18  1  0
  8 19  1  0
  9 20  1  0
  9 21  1  0
M  END
