
     RDKit          3D

 19 19  0  0  0  0  0  0  0  0999 V2000
    3.5486   -0.9079   -1.2191 C   0  0  0  0  0  0  0  0  0  0  0  0
    2.2349   -0.3046   -1.0413 C   0  0  0  0  0  0  0  0  0  0  0  0
    1.1082    0.2286   -0.8993 C   0  0  0  0  0  0  0  0  0  0  0  0
   -0.1884    0.8211   -0.7527 C   0  0  0  0  0  0  0  0  0  0  0  0
   -0.6341    1.6747   -1.5529 O   0  0  0  0  0  0  0  0  0  0  0  0
   -1.1011    0.4453    0.3684 C   0  0  0  0  0  0  0  0  0  0  0  0
   -1.4630    1.5546    1.2986 C   0  0  0  0  0  0  0  0  0  0  0  0
   -2.1715   -0.5203   -0.0499 C   0  0  0  0  0  0  0  0  0  0  0  0
   -1.0442   -0.8921    0.9762 C   0  0  0  0  0  0  0  0  0  0  0  0
    4.1412   -0.5052   -2.0600 H   0  0  0  0  0  0  0  0  0  0  0  0
    3.3396   -1.9714   -1.4805 H   0  0  0  0  0  0  0  0  0  0  0  0
    4.1389   -0.8629   -0.2620 H   0  0  0  0  0  0  0  0  0  0  0  0
   -1.2412    1.2333    2.3473 H   0  0  0  0  0  0  0  0  0  0  0  0
   -0.9198    2.5041    1.1587 H   0  0  0  0  0  0  0  0  0  0  0  0
   -2.5995    1.7023    1.2801 H   0  0  0  0  0  0  0  0  0  0  0  0
   -2.1084   -1.0862   -0.9937 H   0  0  0  0  0  0  0  0  0  0  0  0
   -3.1774   -0.3311    0.3812 H   0  0  0  0  0  0  0  0  0  0  0  0
   -0.3359   -1.6794    0.7077 H   0  0  0  0  0  0  0  0  0  0  0  0
   -1.5269   -1.1030    1.9905 H   0  0  0  0  0  0  0  0  0  0  0  0
  1  2  1  0
  2  3  3  0
  3  4  1  0
  4  5  2  0
  4  6  1  0
  6  7  1  0
  6  8  1  0
  8  9  1  0
  9  6  1  0
  1 10  1  0
  1 11  1  0
  1 12  1  0
  7 13  1  0
  7 14  1  0
  7 15  1  0
  8 16  1  0
  8 17  1  0
  9 18  1  0
  9 19  1  0
M  END
