
     RDKit          3D

 20 19  0  0  0  0  0  0  0  0999 V2000
    1.7762   -2.9259   -0.2243 C   0  0  0  0  0  0  0  0  0  0  0  0
    1.0649   -1.6462   -0.1499 C   0  0  0  0  0  0  0  0  0  0  0  0
    0.4808   -0.5751   -0.0690 C   0  0  0  0  0  0  0  0  0  0  0  0
   -0.2210    0.7097    0.0024 C   0  0  0  0  0  0  0  0  0  0  0  0
    0.7811    1.8695    0.0592 C   0  0  0  0  0  0  0  0  0  0  0  0
   -1.0407    0.8780   -1.2283 C   0  0  0  0  0  0  0  0  0  0  0  0
   -1.0861    0.7015    1.2474 C   0  0  0  0  0  0  0  0  0  0  0  0
   -1.9777   -0.3590    1.1119 O   0  0  0  0  0  0  0  0  0  0  0  0
    2.8518   -2.8225    0.0703 H   0  0  0  0  0  0  0  0  0  0  0  0
    1.3585   -3.6585    0.5286 H   0  0  0  0  0  0  0  0  0  0  0  0
    1.6501   -3.3069   -1.2397 H   0  0  0  0  0  0  0  0  0  0  0  0
    0.4793    2.6341    0.7761 H   0  0  0  0  0  0  0  0  0  0  0  0
    0.9260    2.2682   -0.9753 H   0  0  0  0  0  0  0  0  0  0  0  0
    1.7475    1.4133    0.3606 H   0  0  0  0  0  0  0  0  0  0  0  0
   -2.1288    0.9992   -1.0445 H   0  0  0  0  0  0  0  0  0  0  0  0
   -0.7112    1.7597   -1.8428 H   0  0  0  0  0  0  0  0  0  0  0  0
   -0.9393    0.0037   -1.9098 H   0  0  0  0  0  0  0  0  0  0  0  0
   -0.4363    0.4743    2.1177 H   0  0  0  0  0  0  0  0  0  0  0  0
   -1.6503    1.6366    1.3710 H   0  0  0  0  0  0  0  0  0  0  0  0
   -2.9247   -0.0536    1.0383 H   0  0  0  0  0  0  0  0  0  0  0  0
  1  2  1  0
  2  3  3  0
  3  4  1  0
  4  5  1  0
  4  6  1  0
  4  7  1  0
  7  8  1  0
  1  9  1  0
  1 10  1  0
  1 11  1  0
  5 12  1  0
  5 13  1  0
  5 14  1  0
  6 15  1  0
  6 16  1  0
  6 17  1  0
  7 18  1  0
  7 19  1  0
  8 20  1  0
M  END
