
     RDKit          3D

 21 20  0  0  0  0  0  0  0  0999 V2000
    3.2906   -0.1186   -1.0471 C   0  0  0  0  0  0  0  0  0  0  0  0
    1.8888    0.0819   -0.6956 C   0  0  0  0  0  0  0  0  0  0  0  0
    0.7044    0.2392   -0.4171 C   0  0  0  0  0  0  0  0  0  0  0  0
   -0.7072    0.4366   -0.0993 C   0  0  0  0  0  0  0  0  0  0  0  0
   -0.8419    1.7099    0.7056 C   0  0  0  0  0  0  0  0  0  0  0  0
   -0.3557    2.7680   -0.0768 O   0  0  0  0  0  0  0  0  0  0  0  0
   -1.2114   -0.7537    0.6862 C   0  0  0  0  0  0  0  0  0  0  0  0
   -1.0772   -2.0412   -0.0869 C   0  0  0  0  0  0  0  0  0  0  0  0
   -2.5198   -0.5527    1.1206 O   0  0  0  0  0  0  0  0  0  0  0  0
    3.3651   -0.8314   -1.9208 H   0  0  0  0  0  0  0  0  0  0  0  0
    3.7249    0.8326   -1.4120 H   0  0  0  0  0  0  0  0  0  0  0  0
    3.8621   -0.5326   -0.1893 H   0  0  0  0  0  0  0  0  0  0  0  0
   -1.2471    0.5587   -1.0621 H   0  0  0  0  0  0  0  0  0  0  0  0
   -1.8776    1.8982    1.0208 H   0  0  0  0  0  0  0  0  0  0  0  0
   -0.1370    1.5881    1.5807 H   0  0  0  0  0  0  0  0  0  0  0  0
   -0.7483    2.7019   -0.9830 H   0  0  0  0  0  0  0  0  0  0  0  0
   -0.5847   -0.8551    1.5964 H   0  0  0  0  0  0  0  0  0  0  0  0
   -0.0258   -2.1144   -0.4329 H   0  0  0  0  0  0  0  0  0  0  0  0
   -1.2246   -2.8658    0.6622 H   0  0  0  0  0  0  0  0  0  0  0  0
   -1.8057   -2.0957   -0.9213 H   0  0  0  0  0  0  0  0  0  0  0  0
   -2.4719   -0.0539    1.9718 H   0  0  0  0  0  0  0  0  0  0  0  0
  1  2  1  0
  2  3  3  0
  3  4  1  0
  4  5  1  0
  5  6  1  0
  4  7  1  0
  7  8  1  0
  7  9  1  0
  1 10  1  0
  1 11  1  0
  1 12  1  0
  4 13  1  0
  5 14  1  0
  5 15  1  0
  6 16  1  0
  7 17  1  0
  8 18  1  0
  8 19  1  0
  8 20  1  0
  9 21  1  0
M  END
