
     RDKit          3D

 19 19  0  0  0  0  0  0  0  0999 V2000
    4.7671   -1.4281   -0.2455 C   0  0  0  0  0  0  0  0  0  0  0  0
    3.3735   -0.9975   -0.1826 C   0  0  0  0  0  0  0  0  0  0  0  0
    2.2192   -0.6241   -0.1438 C   0  0  0  0  0  0  0  0  0  0  0  0
    0.8660   -0.1948   -0.0766 C   0  0  0  0  0  0  0  0  0  0  0  0
   -0.2844    0.1545   -0.0082 C   0  0  0  0  0  0  0  0  0  0  0  0
   -1.6795    0.6039    0.0821 C   0  0  0  0  0  0  0  0  0  0  0  0
   -2.1061    1.2817    1.3777 C   0  0  0  0  0  0  0  0  0  0  0  0
   -2.3689    0.9485   -1.1571 C   0  0  0  0  0  0  0  0  0  0  0  0
   -2.6931   -0.3679   -0.5550 C   0  0  0  0  0  0  0  0  0  0  0  0
    5.0315   -1.9627    0.6781 H   0  0  0  0  0  0  0  0  0  0  0  0
    4.9631   -2.0678   -1.1519 H   0  0  0  0  0  0  0  0  0  0  0  0
    5.4561   -0.5485   -0.3784 H   0  0  0  0  0  0  0  0  0  0  0  0
   -1.2218    1.5160    2.0044 H   0  0  0  0  0  0  0  0  0  0  0  0
   -2.7897    0.6252    1.9580 H   0  0  0  0  0  0  0  0  0  0  0  0
   -2.5582    2.2483    1.0981 H   0  0  0  0  0  0  0  0  0  0  0  0
   -1.8969    0.9191   -2.1457 H   0  0  0  0  0  0  0  0  0  0  0  0
   -3.1853    1.7219   -1.0609 H   0  0  0  0  0  0  0  0  0  0  0  0
   -2.2971   -1.2997   -0.9977 H   0  0  0  0  0  0  0  0  0  0  0  0
   -3.5957   -0.5279    0.0599 H   0  0  0  0  0  0  0  0  0  0  0  0
  1  2  1  0
  2  3  3  0
  3  4  1  0
  4  5  3  0
  5  6  1  0
  6  7  1  0
  6  8  1  0
  8  9  1  0
  9  6  1  0
  1 10  1  0
  1 11  1  0
  1 12  1  0
  7 13  1  0
  7 14  1  0
  7 15  1  0
  8 16  1  0
  8 17  1  0
  9 18  1  0
  9 19  1  0
M  END
