
     RDKit          3D

 21 20  0  0  0  0  0  0  0  0999 V2000
    4.7909   -0.2485    1.3113 C   0  0  0  0  0  0  0  0  0  0  0  0
    3.4165   -0.2112    0.2589 C   0  0  0  0  0  0  0  0  0  0  0  0
    2.6241   -0.1910   -0.3545 C   0  0  0  0  0  0  0  0  0  0  0  0
    1.3351   -0.1439   -1.3852 C   0  0  0  0  0  0  0  0  0  0  0  0
    0.0129    0.3389   -0.7893 C   0  0  0  0  0  0  0  0  0  0  0  0
   -1.1696    0.7873   -0.2343 C   0  0  0  0  0  0  0  0  0  0  0  0
   -2.3315    1.2322    0.3059 C   0  0  0  0  0  0  0  0  0  0  0  0
   -3.0541    0.1987    1.1911 C   0  0  0  0  0  0  0  0  0  0  0  0
   -2.7881   -0.2298   -1.1853 C   0  0  0  0  0  0  0  0  0  0  0  0
    5.1275    0.5950    1.0471 H   0  0  0  0  0  0  0  0  0  0  0  0
    5.5309   -0.6523    0.0930 H   0  0  0  0  0  0  0  0  0  0  0  0
    4.6598   -1.4156    1.2920 H   0  0  0  0  0  0  0  0  0  0  0  0
    1.6143    0.3541   -2.2561 H   0  0  0  0  0  0  0  0  0  0  0  0
    1.1770   -1.2421   -1.7059 H   0  0  0  0  0  0  0  0  0  0  0  0
   -2.9832    1.6863   -0.4813 H   0  0  0  0  0  0  0  0  0  0  0  0
   -3.5239   -0.7329    0.5839 H   0  0  0  0  0  0  0  0  0  0  0  0
   -2.4818   -0.1468    2.0353 H   0  0  0  0  0  0  0  0  0  0  0  0
   -3.9695    0.7097    1.4750 H   0  0  0  0  0  0  0  0  0  0  0  0
   -1.9171    0.1964   -1.6249 H   0  0  0  0  0  0  0  0  0  0  0  0
   -3.7384    0.0370   -1.0056 H   0  0  0  0  0  0  0  0  0  0  0  0
   -2.3319   -0.9215   -0.3418 H   0  0  0  0  0  0  0  0  0  0  0  0
  1  2  1  0
  2  3  3  0
  3  4  1  0
  4  5  1  0
  5  6  3  0
  6  7  1  0
  7  8  1  0
  7  9  1  0
  1 10  1  0
  1 11  1  0
  1 12  1  0
  4 13  1  0
  4 14  1  0
  7 15  1  0
  8 16  1  0
  8 17  1  0
  8 18  1  0
  9 19  1  0
  9 20  1  0
  9 21  1  0
M  END
