
     RDKit          3D

 15 14  0  0  0  0  0  0  0  0999 V2000
   -4.3698   -1.8050   -0.1237 C   0  0  0  0  0  0  0  0  0  0  0  0
   -3.0483   -1.1597   -0.1988 C   0  0  0  0  0  0  0  0  0  0  0  0
   -1.9541   -0.6306   -0.2404 C   0  0  0  0  0  0  0  0  0  0  0  0
   -0.6772   -0.0169   -0.2649 C   0  0  0  0  0  0  0  0  0  0  0  0
    0.4171    0.5207   -0.2680 C   0  0  0  0  0  0  0  0  0  0  0  0
    1.6964    1.1545   -0.2536 C   0  0  0  0  0  0  0  0  0  0  0  0
    1.8126    2.3317   -0.6524 O   0  0  0  0  0  0  0  0  0  0  0  0
    2.8296    0.5076    0.1910 O   0  0  0  0  0  0  0  0  0  0  0  0
    4.0921    1.1393    0.2029 C   0  0  0  0  0  0  0  0  0  0  0  0
   -4.9163   -1.4865   -1.0317 H   0  0  0  0  0  0  0  0  0  0  0  0
   -4.2390   -2.9055   -0.1131 H   0  0  0  0  0  0  0  0  0  0  0  0
   -4.9365   -1.5060    0.7698 H   0  0  0  0  0  0  0  0  0  0  0  0
    4.8009    0.4167    0.6833 H   0  0  0  0  0  0  0  0  0  0  0  0
    4.0772    2.0827    0.7733 H   0  0  0  0  0  0  0  0  0  0  0  0
    4.4153    1.3570   -0.8555 H   0  0  0  0  0  0  0  0  0  0  0  0
  1  2  1  0
  2  3  3  0
  3  4  1  0
  4  5  3  0
  5  6  1  0
  6  7  2  0
  6  8  1  0
  8  9  1  0
  1 10  1  0
  1 11  1  0
  1 12  1  0
  9 13  1  0
  9 14  1  0
  9 15  1  0
M  END
