
     RDKit          3D

 17 16  0  0  0  0  0  0  0  0999 V2000
   -2.0918    0.5760   -0.6223 C   0  0  0  0  0  0  0  0  0  0  0  0
   -1.4797   -0.5491    0.1345 C   0  0  0  0  0  0  0  0  0  0  0  0
   -2.1301   -1.3268    0.8084 O   0  0  0  0  0  0  0  0  0  0  0  0
    0.0147   -0.7688    0.0892 C   0  0  0  0  0  0  0  0  0  0  0  0
    0.3645   -1.8715    0.8662 O   0  0  0  0  0  0  0  0  0  0  0  0
    0.6242    0.5024    0.6299 C   0  0  0  0  0  0  0  0  0  0  0  0
    2.0127    0.5132    0.6893 O   0  0  0  0  0  0  0  0  0  0  0  0
    2.7751    0.3801   -0.4512 C   0  0  0  0  0  0  0  0  0  0  0  0
    2.1791    0.2511   -1.5452 O   0  0  0  0  0  0  0  0  0  0  0  0
   -3.1123    0.3115   -0.9877 H   0  0  0  0  0  0  0  0  0  0  0  0
   -1.4783    0.8617   -1.4940 H   0  0  0  0  0  0  0  0  0  0  0  0
   -2.2072    1.4141    0.1130 H   0  0  0  0  0  0  0  0  0  0  0  0
    0.3326   -0.9818   -0.9380 H   0  0  0  0  0  0  0  0  0  0  0  0
   -0.1932   -1.7947    1.7006 H   0  0  0  0  0  0  0  0  0  0  0  0
    0.2795    1.3797    0.0240 H   0  0  0  0  0  0  0  0  0  0  0  0
    0.2507    0.7192    1.6652 H   0  0  0  0  0  0  0  0  0  0  0  0
    3.8594    0.3837   -0.4282 H   0  0  0  0  0  0  0  0  0  0  0  0
  1  2  1  0
  2  3  2  0
  2  4  1  0
  4  5  1  0
  4  6  1  0
  6  7  1  0
  7  8  1  0
  8  9  2  0
  1 10  1  0
  1 11  1  0
  1 12  1  0
  4 13  1  0
  5 14  1  0
  6 15  1  0
  6 16  1  0
  8 17  1  0
M  END
