
     RDKit          3D

 19 19  0  0  0  0  0  0  0  0999 V2000
    2.2675    0.2816   -0.6179 C   0  0  0  0  0  0  0  0  0  0  0  0
    1.2601   -0.0500    0.3986 C   0  0  0  0  0  0  0  0  0  0  0  0
    1.6033   -0.0287    1.5722 O   0  0  0  0  0  0  0  0  0  0  0  0
   -0.1229   -0.4004    0.0566 C   0  0  0  0  0  0  0  0  0  0  0  0
   -0.1746   -1.5027   -0.9691 C   0  0  0  0  0  0  0  0  0  0  0  0
   -0.9167   -0.6808    1.1718 O   0  0  0  0  0  0  0  0  0  0  0  0
   -1.9609    0.0448    0.6332 C   0  0  0  0  0  0  0  0  0  0  0  0
   -0.9739    0.7960   -0.2145 C   0  0  0  0  0  0  0  0  0  0  0  0
   -0.5003    1.9073    0.4835 O   0  0  0  0  0  0  0  0  0  0  0  0
    1.8906    0.2105   -1.6477 H   0  0  0  0  0  0  0  0  0  0  0  0
    3.2297   -0.2913   -0.4708 H   0  0  0  0  0  0  0  0  0  0  0  0
    2.5706    1.3536   -0.4362 H   0  0  0  0  0  0  0  0  0  0  0  0
    0.3264   -2.3897   -0.5262 H   0  0  0  0  0  0  0  0  0  0  0  0
    0.4078   -1.1764   -1.8539 H   0  0  0  0  0  0  0  0  0  0  0  0
   -1.2137   -1.7806   -1.2215 H   0  0  0  0  0  0  0  0  0  0  0  0
   -2.4890    0.7112    1.3328 H   0  0  0  0  0  0  0  0  0  0  0  0
   -2.7050   -0.5254    0.0427 H   0  0  0  0  0  0  0  0  0  0  0  0
   -1.2665    0.9754   -1.2584 H   0  0  0  0  0  0  0  0  0  0  0  0
   -1.2326    2.5456    0.7024 H   0  0  0  0  0  0  0  0  0  0  0  0
  1  2  1  0
  2  3  2  0
  2  4  1  0
  4  5  1  0
  4  6  1  0
  6  7  1  0
  7  8  1  0
  8  9  1  0
  8  4  1  0
  1 10  1  0
  1 11  1  0
  1 12  1  0
  5 13  1  0
  5 14  1  0
  5 15  1  0
  7 16  1  0
  7 17  1  0
  8 18  1  0
  9 19  1  0
M  END
