
     RDKit          3D

 19 20  0  0  0  0  0  0  0  0999 V2000
    2.8086    0.5983    0.6340 C   0  0  0  0  0  0  0  0  0  0  0  0
    1.4433    0.4847    0.0575 C   0  0  0  0  0  0  0  0  0  0  0  0
    1.0078    1.4899   -0.5010 O   0  0  0  0  0  0  0  0  0  0  0  0
    0.7060   -0.7727    0.1763 C   0  0  0  0  0  0  0  0  0  0  0  0
   -0.0963   -1.1229   -1.0766 C   0  0  0  0  0  0  0  0  0  0  0  0
   -0.7691   -0.8425    0.1888 C   0  0  0  0  0  0  0  0  0  0  0  0
   -1.4811    0.4622    0.4562 C   0  0  0  0  0  0  0  0  0  0  0  0
   -2.9570    0.5324    0.4961 C   0  0  0  0  0  0  0  0  0  0  0  0
   -2.1184    1.1120   -0.5747 O   0  0  0  0  0  0  0  0  0  0  0  0
    3.1938   -0.3882    0.9826 H   0  0  0  0  0  0  0  0  0  0  0  0
    3.5427    0.9389   -0.1386 H   0  0  0  0  0  0  0  0  0  0  0  0
    2.7601    1.2754    1.5026 H   0  0  0  0  0  0  0  0  0  0  0  0
    1.2286   -1.5815    0.7035 H   0  0  0  0  0  0  0  0  0  0  0  0
    0.0207   -2.1894   -1.3836 H   0  0  0  0  0  0  0  0  0  0  0  0
   -0.0860   -0.4356   -1.9323 H   0  0  0  0  0  0  0  0  0  0  0  0
   -1.2440   -1.7040    0.7008 H   0  0  0  0  0  0  0  0  0  0  0  0
   -0.9522    1.1029    1.1916 H   0  0  0  0  0  0  0  0  0  0  0  0
   -3.4531    1.3160    1.0736 H   0  0  0  0  0  0  0  0  0  0  0  0
   -3.5544   -0.2760    0.0410 H   0  0  0  0  0  0  0  0  0  0  0  0
  1  2  1  0
  2  3  2  0
  2  4  1  0
  4  5  1  0
  5  6  1  0
  6  7  1  0
  7  8  1  0
  8  9  1  0
  6  4  1  0
  9  7  1  0
  1 10  1  0
  1 11  1  0
  1 12  1  0
  4 13  1  0
  5 14  1  0
  5 15  1  0
  6 16  1  0
  7 17  1  0
  8 18  1  0
  8 19  1  0
M  END
