
     RDKit          3D

 21 21  0  0  0  0  0  0  0  0999 V2000
    2.5576    0.8877    0.0218 C   0  0  0  0  0  0  0  0  0  0  0  0
    1.7428   -0.3624    0.0835 C   0  0  0  0  0  0  0  0  0  0  0  0
    2.2685   -1.3166    0.6334 O   0  0  0  0  0  0  0  0  0  0  0  0
    0.3967   -0.4367   -0.4815 C   0  0  0  0  0  0  0  0  0  0  0  0
   -0.2078   -1.8250   -0.2814 C   0  0  0  0  0  0  0  0  0  0  0  0
   -1.5521   -1.0913   -0.2238 C   0  0  0  0  0  0  0  0  0  0  0  0
   -0.7340    0.0788    0.3439 C   0  0  0  0  0  0  0  0  0  0  0  0
   -1.3069    1.4114   -0.0549 C   0  0  0  0  0  0  0  0  0  0  0  0
   -1.8156    1.4203   -1.3500 O   0  0  0  0  0  0  0  0  0  0  0  0
    3.4842    0.6446   -0.5682 H   0  0  0  0  0  0  0  0  0  0  0  0
    2.9188    1.1548    1.0365 H   0  0  0  0  0  0  0  0  0  0  0  0
    2.0613    1.7011   -0.5079 H   0  0  0  0  0  0  0  0  0  0  0  0
    0.2804   -0.1223   -1.5371 H   0  0  0  0  0  0  0  0  0  0  0  0
    0.0924   -2.1832    0.7331 H   0  0  0  0  0  0  0  0  0  0  0  0
   -0.0846   -2.5135   -1.1077 H   0  0  0  0  0  0  0  0  0  0  0  0
   -1.9240   -0.9023   -1.2428 H   0  0  0  0  0  0  0  0  0  0  0  0
   -2.2397   -1.5483    0.4822 H   0  0  0  0  0  0  0  0  0  0  0  0
   -0.6578   -0.0363    1.4229 H   0  0  0  0  0  0  0  0  0  0  0  0
   -0.4795    2.1536   -0.0314 H   0  0  0  0  0  0  0  0  0  0  0  0
   -2.0430    1.7497    0.6972 H   0  0  0  0  0  0  0  0  0  0  0  0
   -2.7579    1.1359   -1.4023 H   0  0  0  0  0  0  0  0  0  0  0  0
  1  2  1  0
  2  3  2  0
  2  4  1  0
  4  5  1  0
  5  6  1  0
  6  7  1  0
  7  8  1  0
  8  9  1  0
  7  4  1  0
  1 10  1  0
  1 11  1  0
  1 12  1  0
  4 13  1  0
  5 14  1  0
  5 15  1  0
  6 16  1  0
  6 17  1  0
  7 18  1  0
  8 19  1  0
  8 20  1  0
  9 21  1  0
M  END
