
     RDKit          3D

 21 21  0  0  0  0  0  0  0  0999 V2000
    2.2692    0.6368    1.0362 C   0  0  0  0  0  0  0  0  0  0  0  0
    0.8736    0.1454    1.1826 C   0  0  0  0  0  0  0  0  0  0  0  0
    0.2835    0.3949    2.2296 O   0  0  0  0  0  0  0  0  0  0  0  0
    0.2728   -0.6057    0.0834 C   0  0  0  0  0  0  0  0  0  0  0  0
    1.1509   -0.8144   -1.1137 C   0  0  0  0  0  0  0  0  0  0  0  0
   -0.7013   -1.5516    0.2698 O   0  0  0  0  0  0  0  0  0  0  0  0
   -1.2048   -0.3382   -0.0992 C   0  0  0  0  0  0  0  0  0  0  0  0
   -1.5996   -0.0356   -1.5185 C   0  0  0  0  0  0  0  0  0  0  0  0
   -1.9407    0.4252    0.9651 C   0  0  0  0  0  0  0  0  0  0  0  0
    2.3627    1.4228    0.2611 H   0  0  0  0  0  0  0  0  0  0  0  0
    2.9523   -0.1772    0.7553 H   0  0  0  0  0  0  0  0  0  0  0  0
    2.6381    1.1056    1.9940 H   0  0  0  0  0  0  0  0  0  0  0  0
    1.7257   -1.7598   -0.9508 H   0  0  0  0  0  0  0  0  0  0  0  0
    0.5901   -0.9580   -2.0538 H   0  0  0  0  0  0  0  0  0  0  0  0
    1.8900    0.0056   -1.1560 H   0  0  0  0  0  0  0  0  0  0  0  0
   -1.5995   -0.9677   -2.1406 H   0  0  0  0  0  0  0  0  0  0  0  0
   -0.8729    0.7146   -1.8960 H   0  0  0  0  0  0  0  0  0  0  0  0
   -2.5971    0.4220   -1.6010 H   0  0  0  0  0  0  0  0  0  0  0  0
   -3.0148    0.5784    0.6671 H   0  0  0  0  0  0  0  0  0  0  0  0
   -1.4984    1.4439    1.1503 H   0  0  0  0  0  0  0  0  0  0  0  0
   -1.9798   -0.0871    1.9349 H   0  0  0  0  0  0  0  0  0  0  0  0
  1  2  1  0
  2  3  2  0
  2  4  1  0
  4  5  1  0
  4  6  1  0
  6  7  1  0
  7  8  1  0
  7  9  1  0
  7  4  1  0
  1 10  1  0
  1 11  1  0
  1 12  1  0
  5 13  1  0
  5 14  1  0
  5 15  1  0
  8 16  1  0
  8 17  1  0
  8 18  1  0
  9 19  1  0
  9 20  1  0
  9 21  1  0
M  END
