
     RDKit          3D

 19 18  0  0  0  0  0  0  0  0999 V2000
    2.9672    0.6039    0.2262 C   0  0  0  0  0  0  0  0  0  0  0  0
    1.6912    0.2457   -0.4502 C   0  0  0  0  0  0  0  0  0  0  0  0
    1.6087    0.3539   -1.6939 O   0  0  0  0  0  0  0  0  0  0  0  0
    0.5797   -0.2057    0.2330 O   0  0  0  0  0  0  0  0  0  0  0  0
   -0.5735   -0.5186   -0.4772 C   0  0  0  0  0  0  0  0  0  0  0  0
   -0.9894   -1.9672   -0.3293 C   0  0  0  0  0  0  0  0  0  0  0  0
   -1.7449    0.3063   -0.0895 C   0  0  0  0  0  0  0  0  0  0  0  0
   -1.7017    1.3618    0.9504 C   0  0  0  0  0  0  0  0  0  0  0  0
   -2.7954    0.0977   -0.6623 O   0  0  0  0  0  0  0  0  0  0  0  0
    3.6227   -0.2897    0.3153 H   0  0  0  0  0  0  0  0  0  0  0  0
    3.5227    1.3217   -0.4213 H   0  0  0  0  0  0  0  0  0  0  0  0
    2.7740    1.0989    1.1994 H   0  0  0  0  0  0  0  0  0  0  0  0
   -0.4369   -0.3509   -1.5849 H   0  0  0  0  0  0  0  0  0  0  0  0
   -1.5227   -2.2974   -1.2459 H   0  0  0  0  0  0  0  0  0  0  0  0
   -1.7432   -2.0792    0.5040 H   0  0  0  0  0  0  0  0  0  0  0  0
   -0.1307   -2.6502   -0.1999 H   0  0  0  0  0  0  0  0  0  0  0  0
   -0.8934    1.1627    1.7007 H   0  0  0  0  0  0  0  0  0  0  0  0
   -2.6760    1.4289    1.5135 H   0  0  0  0  0  0  0  0  0  0  0  0
   -1.5586    2.3773    0.5119 H   0  0  0  0  0  0  0  0  0  0  0  0
  1  2  1  0
  2  3  2  0
  2  4  1  0
  4  5  1  0
  5  6  1  0
  5  7  1  0
  7  8  1  0
  7  9  2  0
  1 10  1  0
  1 11  1  0
  1 12  1  0
  5 13  1  0
  6 14  1  0
  6 15  1  0
  6 16  1  0
  8 17  1  0
  8 18  1  0
  8 19  1  0
M  END
