
     RDKit          3D

 19 19  0  0  0  0  0  0  0  0999 V2000
    3.3450    0.3896    0.0802 C   0  0  0  0  0  0  0  0  0  0  0  0
    2.0835    0.1007   -0.6356 C   0  0  0  0  0  0  0  0  0  0  0  0
    1.9723    0.1448   -1.8877 O   0  0  0  0  0  0  0  0  0  0  0  0
    0.9759   -0.2328    0.0986 O   0  0  0  0  0  0  0  0  0  0  0  0
   -0.2860   -0.5336   -0.4152 C   0  0  0  0  0  0  0  0  0  0  0  0
   -1.2652   -1.3783    0.2842 C   0  0  0  0  0  0  0  0  0  0  0  0
   -1.4453    0.0726    0.3798 C   0  0  0  0  0  0  0  0  0  0  0  0
   -2.5180    0.7914   -0.4081 C   0  0  0  0  0  0  0  0  0  0  0  0
   -1.1346    0.7007    1.5862 O   0  0  0  0  0  0  0  0  0  0  0  0
    3.8824   -0.5579    0.3707 H   0  0  0  0  0  0  0  0  0  0  0  0
    4.0260    1.0521   -0.4505 H   0  0  0  0  0  0  0  0  0  0  0  0
    3.0741    0.8921    1.0371 H   0  0  0  0  0  0  0  0  0  0  0  0
   -0.3559   -0.4873   -1.5213 H   0  0  0  0  0  0  0  0  0  0  0  0
   -0.9385   -1.8951    1.2141 H   0  0  0  0  0  0  0  0  0  0  0  0
   -1.9340   -2.0078   -0.3431 H   0  0  0  0  0  0  0  0  0  0  0  0
   -2.3060    1.8776   -0.4913 H   0  0  0  0  0  0  0  0  0  0  0  0
   -2.6413    0.3266   -1.4064 H   0  0  0  0  0  0  0  0  0  0  0  0
   -3.4702    0.6901    0.1710 H   0  0  0  0  0  0  0  0  0  0  0  0
   -1.0643    0.0545    2.3372 H   0  0  0  0  0  0  0  0  0  0  0  0
  1  2  1  0
  2  3  2  0
  2  4  1  0
  4  5  1  0
  5  6  1  0
  6  7  1  0
  7  8  1  0
  7  9  1  0
  7  5  1  0
  1 10  1  0
  1 11  1  0
  1 12  1  0
  5 13  1  0
  6 14  1  0
  6 15  1  0
  8 16  1  0
  8 17  1  0
  8 18  1  0
  9 19  1  0
M  END
