
     RDKit          3D

 20 19  0  0  0  0  0  0  0  0999 V2000
   -2.1364   -0.9603   -0.5948 C   0  0  0  0  0  0  0  0  0  0  0  0
   -1.2413    0.2251   -0.7447 C   0  0  0  0  0  0  0  0  0  0  0  0
   -1.2244    0.8604   -1.7816 O   0  0  0  0  0  0  0  0  0  0  0  0
   -0.3543    0.6582    0.3580 C   0  0  0  0  0  0  0  0  0  0  0  0
    0.4290    1.8536   -0.0402 C   0  0  0  0  0  0  0  0  0  0  0  0
    0.4957   -0.4966    0.8301 C   0  0  0  0  0  0  0  0  0  0  0  0
    1.3706   -1.0516   -0.2677 C   0  0  0  0  0  0  0  0  0  0  0  0
    2.2436   -0.1127   -0.7787 O   0  0  0  0  0  0  0  0  0  0  0  0
   -2.5964   -1.1809   -1.5737 H   0  0  0  0  0  0  0  0  0  0  0  0
   -1.5645   -1.8569   -0.2782 H   0  0  0  0  0  0  0  0  0  0  0  0
   -2.9647   -0.7656    0.1183 H   0  0  0  0  0  0  0  0  0  0  0  0
   -0.9992    0.9434    1.2295 H   0  0  0  0  0  0  0  0  0  0  0  0
    0.8491    1.8042   -1.0652 H   0  0  0  0  0  0  0  0  0  0  0  0
    1.2538    2.1135    0.6317 H   0  0  0  0  0  0  0  0  0  0  0  0
   -0.2621    2.7402   -0.0451 H   0  0  0  0  0  0  0  0  0  0  0  0
    1.1237   -0.2096    1.6728 H   0  0  0  0  0  0  0  0  0  0  0  0
   -0.1968   -1.3027    1.1502 H   0  0  0  0  0  0  0  0  0  0  0  0
    1.9709   -1.8697    0.1828 H   0  0  0  0  0  0  0  0  0  0  0  0
    0.7964   -1.4873   -1.0982 H   0  0  0  0  0  0  0  0  0  0  0  0
    3.0074    0.0953   -0.2148 H   0  0  0  0  0  0  0  0  0  0  0  0
  1  2  1  0
  2  3  2  0
  2  4  1  0
  4  5  1  0
  4  6  1  0
  6  7  1  0
  7  8  1  0
  1  9  1  0
  1 10  1  0
  1 11  1  0
  4 12  1  0
  5 13  1  0
  5 14  1  0
  5 15  1  0
  6 16  1  0
  6 17  1  0
  7 18  1  0
  7 19  1  0
  8 20  1  0
M  END
