
     RDKit          3D

 19 20  0  0  0  0  0  0  0  0999 V2000
    2.4036    0.0775    0.4429 C   0  0  0  0  0  0  0  0  0  0  0  0
    1.5201   -0.1193   -0.7230 C   0  0  0  0  0  0  0  0  0  0  0  0
    2.0527   -0.1971   -1.8185 O   0  0  0  0  0  0  0  0  0  0  0  0
    0.0556   -0.2277   -0.6617 C   0  0  0  0  0  0  0  0  0  0  0  0
   -0.3935   -1.4199    0.2069 C   0  0  0  0  0  0  0  0  0  0  0  0
   -1.5335   -0.9577    0.9151 O   0  0  0  0  0  0  0  0  0  0  0  0
   -1.9963    0.0158    0.1000 C   0  0  0  0  0  0  0  0  0  0  0  0
   -1.9039    1.4193    0.0601 C   0  0  0  0  0  0  0  0  0  0  0  0
   -0.6321    0.8239    0.1092 C   0  0  0  0  0  0  0  0  0  0  0  0
    3.2005    0.8083    0.1434 H   0  0  0  0  0  0  0  0  0  0  0  0
    1.8731    0.4647    1.3119 H   0  0  0  0  0  0  0  0  0  0  0  0
    2.8592   -0.9236    0.6717 H   0  0  0  0  0  0  0  0  0  0  0  0
   -0.3987   -0.3202   -1.6632 H   0  0  0  0  0  0  0  0  0  0  0  0
   -0.6098   -2.3008   -0.3854 H   0  0  0  0  0  0  0  0  0  0  0  0
    0.3957   -1.5416    0.9646 H   0  0  0  0  0  0  0  0  0  0  0  0
   -2.2748   -0.4585   -0.8931 H   0  0  0  0  0  0  0  0  0  0  0  0
   -2.1917    1.9864   -0.8611 H   0  0  0  0  0  0  0  0  0  0  0  0
   -2.2980    1.9912    0.9513 H   0  0  0  0  0  0  0  0  0  0  0  0
   -0.1283    0.8794    1.1288 H   0  0  0  0  0  0  0  0  0  0  0  0
  1  2  1  0
  2  3  2  0
  2  4  1  0
  4  5  1  0
  5  6  1  0
  6  7  1  0
  7  8  1  0
  8  9  1  0
  9  4  1  0
  9  7  1  0
  1 10  1  0
  1 11  1  0
  1 12  1  0
  4 13  1  0
  5 14  1  0
  5 15  1  0
  7 16  1  0
  8 17  1  0
  8 18  1  0
  9 19  1  0
M  END
