
     RDKit          3D

 16 17  0  0  0  0  0  0  0  0999 V2000
    2.3085   -0.2581   -0.3523 C   0  0  0  0  0  0  0  0  0  0  0  0
    1.0712    0.3035    0.2739 C   0  0  0  0  0  0  0  0  0  0  0  0
    1.1356    1.4415    0.7111 O   0  0  0  0  0  0  0  0  0  0  0  0
   -0.1912   -0.4776    0.3680 C   0  0  0  0  0  0  0  0  0  0  0  0
   -1.2653    0.3446    1.0464 C   0  0  0  0  0  0  0  0  0  0  0  0
   -1.8968    0.5163   -0.3194 C   0  0  0  0  0  0  0  0  0  0  0  0
   -2.3733   -0.6623   -0.8512 O   0  0  0  0  0  0  0  0  0  0  0  0
   -1.0249   -0.4299   -0.8901 C   0  0  0  0  0  0  0  0  0  0  0  0
    2.0670   -0.9824   -1.1323 H   0  0  0  0  0  0  0  0  0  0  0  0
    2.8664   -0.7837    0.4572 H   0  0  0  0  0  0  0  0  0  0  0  0
    2.9337    0.5305   -0.8145 H   0  0  0  0  0  0  0  0  0  0  0  0
   -0.0582   -1.5059    0.7939 H   0  0  0  0  0  0  0  0  0  0  0  0
   -1.8697   -0.3251    1.7089 H   0  0  0  0  0  0  0  0  0  0  0  0
   -0.9387    1.2544    1.5487 H   0  0  0  0  0  0  0  0  0  0  0  0
   -2.2130    1.4923   -0.6746 H   0  0  0  0  0  0  0  0  0  0  0  0
   -0.5511   -0.4581   -1.8738 H   0  0  0  0  0  0  0  0  0  0  0  0
  1  2  1  0
  2  3  2  0
  2  4  1  0
  4  5  1  0
  5  6  1  0
  6  7  1  0
  7  8  1  0
  8  4  1  0
  8  6  1  0
  1  9  1  0
  1 10  1  0
  1 11  1  0
  4 12  1  0
  5 13  1  0
  5 14  1  0
  6 15  1  0
  8 16  1  0
M  END
