
     RDKit          3D

 21 21  0  0  0  0  0  0  0  0999 V2000
    2.1295    0.9520    0.7340 C   0  0  0  0  0  0  0  0  0  0  0  0
    1.4114   -0.3623    0.8427 C   0  0  0  0  0  0  0  0  0  0  0  0
    1.8286   -1.2705    1.5141 O   0  0  0  0  0  0  0  0  0  0  0  0
    0.1578   -0.5040    0.0640 C   0  0  0  0  0  0  0  0  0  0  0  0
   -0.9506    0.4031    0.4799 C   0  0  0  0  0  0  0  0  0  0  0  0
   -2.2128    0.3048   -0.3551 C   0  0  0  0  0  0  0  0  0  0  0  0
   -0.5854    1.6863    0.7271 O   0  0  0  0  0  0  0  0  0  0  0  0
   -0.0853   -1.7939   -0.6697 C   0  0  0  0  0  0  0  0  0  0  0  0
    0.4242   -0.6172   -1.4192 C   0  0  0  0  0  0  0  0  0  0  0  0
    1.5927    1.6830    0.0968 H   0  0  0  0  0  0  0  0  0  0  0  0
    2.4066    1.3557    1.6753 H   0  0  0  0  0  0  0  0  0  0  0  0
    3.0456    0.6808    0.0838 H   0  0  0  0  0  0  0  0  0  0  0  0
   -1.2383   -0.0337    1.5440 H   0  0  0  0  0  0  0  0  0  0  0  0
   -3.0386   -0.0452    0.2859 H   0  0  0  0  0  0  0  0  0  0  0  0
   -2.4166    1.3336   -0.7439 H   0  0  0  0  0  0  0  0  0  0  0  0
   -2.0898   -0.3772   -1.2112 H   0  0  0  0  0  0  0  0  0  0  0  0
   -1.1853    2.0319    1.4685 H   0  0  0  0  0  0  0  0  0  0  0  0
    0.6308   -2.6039   -0.3560 H   0  0  0  0  0  0  0  0  0  0  0  0
   -1.1119   -2.0940   -0.9103 H   0  0  0  0  0  0  0  0  0  0  0  0
   -0.2084   -0.0973   -2.1355 H   0  0  0  0  0  0  0  0  0  0  0  0
    1.4957   -0.6321   -1.7151 H   0  0  0  0  0  0  0  0  0  0  0  0
  1  2  1  0
  2  3  2  0
  2  4  1  0
  4  5  1  0
  5  6  1  0
  5  7  1  0
  4  8  1  0
  8  9  1  0
  9  4  1  0
  1 10  1  0
  1 11  1  0
  1 12  1  0
  5 13  1  0
  6 14  1  0
  6 15  1  0
  6 16  1  0
  7 17  1  0
  8 18  1  0
  8 19  1  0
  9 20  1  0
  9 21  1  0
M  END
