
     RDKit          3D

 19 19  0  0  0  0  0  0  0  0999 V2000
    3.4497   -0.2995   -0.3473 C   0  0  0  0  0  0  0  0  0  0  0  0
    2.1416    0.0742    0.2427 C   0  0  0  0  0  0  0  0  0  0  0  0
    2.0566    0.6259    1.3712 O   0  0  0  0  0  0  0  0  0  0  0  0
    0.9400   -0.1577   -0.4045 O   0  0  0  0  0  0  0  0  0  0  0  0
   -0.3104    0.1817    0.1226 C   0  0  0  0  0  0  0  0  0  0  0  0
   -1.1017    1.1067   -0.6820 C   0  0  0  0  0  0  0  0  0  0  0  0
   -2.3946    0.8748   -0.4813 C   0  0  0  0  0  0  0  0  0  0  0  0
   -2.5609   -0.2580    0.5026 C   0  0  0  0  0  0  0  0  0  0  0  0
   -1.2299   -0.9977    0.2851 C   0  0  0  0  0  0  0  0  0  0  0  0
    4.2232   -0.4546    0.4323 H   0  0  0  0  0  0  0  0  0  0  0  0
    3.3842   -1.2721   -0.9172 H   0  0  0  0  0  0  0  0  0  0  0  0
    3.8067    0.5238   -0.9982 H   0  0  0  0  0  0  0  0  0  0  0  0
   -0.1414    0.6536    1.1220 H   0  0  0  0  0  0  0  0  0  0  0  0
   -0.7171    1.8902   -1.3627 H   0  0  0  0  0  0  0  0  0  0  0  0
   -3.2251    1.4053   -0.9425 H   0  0  0  0  0  0  0  0  0  0  0  0
   -3.4221   -0.8958    0.2480 H   0  0  0  0  0  0  0  0  0  0  0  0
   -2.6234    0.1521    1.5315 H   0  0  0  0  0  0  0  0  0  0  0  0
   -0.9812   -1.6159    1.1647 H   0  0  0  0  0  0  0  0  0  0  0  0
   -1.2941   -1.5370   -0.6551 H   0  0  0  0  0  0  0  0  0  0  0  0
  1  2  1  0
  2  3  2  0
  2  4  1  0
  4  5  1  0
  5  6  1  0
  6  7  2  0
  7  8  1  0
  8  9  1  0
  9  5  1  0
  1 10  1  0
  1 11  1  0
  1 12  1  0
  5 13  1  0
  6 14  1  0
  7 15  1  0
  8 16  1  0
  8 17  1  0
  9 18  1  0
  9 19  1  0
M  END
