
     RDKit          3D

 19 18  0  0  0  0  0  0  0  0999 V2000
   -2.8470    0.9406    0.4276 C   0  0  0  0  0  0  0  0  0  0  0  0
   -1.5374    0.2697    0.7617 C   0  0  0  0  0  0  0  0  0  0  0  0
   -1.2348    0.1031    1.9303 O   0  0  0  0  0  0  0  0  0  0  0  0
   -0.6636   -0.1635   -0.3601 C   0  0  0  0  0  0  0  0  0  0  0  0
    0.5746   -0.8015    0.2675 C   0  0  0  0  0  0  0  0  0  0  0  0
    1.5389   -1.2818   -0.7632 C   0  0  0  0  0  0  0  0  0  0  0  0
    1.9498   -0.2048   -1.5579 O   0  0  0  0  0  0  0  0  0  0  0  0
    2.6350    0.8552   -1.0106 C   0  0  0  0  0  0  0  0  0  0  0  0
    2.8888    0.8326    0.2193 O   0  0  0  0  0  0  0  0  0  0  0  0
   -3.6927    0.2816    0.6627 H   0  0  0  0  0  0  0  0  0  0  0  0
   -2.8123    1.3081   -0.5995 H   0  0  0  0  0  0  0  0  0  0  0  0
   -2.9522    1.8387    1.0873 H   0  0  0  0  0  0  0  0  0  0  0  0
   -0.3457    0.7438   -0.9487 H   0  0  0  0  0  0  0  0  0  0  0  0
   -1.1542   -0.8332   -1.0677 H   0  0  0  0  0  0  0  0  0  0  0  0
    0.1671   -1.6595    0.8768 H   0  0  0  0  0  0  0  0  0  0  0  0
    0.9672   -0.0793    0.9975 H   0  0  0  0  0  0  0  0  0  0  0  0
    1.1475   -2.1291   -1.3651 H   0  0  0  0  0  0  0  0  0  0  0  0
    2.4092   -1.7376   -0.2001 H   0  0  0  0  0  0  0  0  0  0  0  0
    2.9617    1.7167   -1.6302 H   0  0  0  0  0  0  0  0  0  0  0  0
  1  2  1  0
  2  3  2  0
  2  4  1  0
  4  5  1  0
  5  6  1  0
  6  7  1  0
  7  8  1  0
  8  9  2  0
  1 10  1  0
  1 11  1  0
  1 12  1  0
  4 13  1  0
  4 14  1  0
  5 15  1  0
  5 16  1  0
  6 17  1  0
  6 18  1  0
  8 19  1  0
M  END
