
     RDKit          3D

 17 18  0  0  0  0  0  0  0  0999 V2000
    2.8518   -0.0603    0.4016 C   0  0  0  0  0  0  0  0  0  0  0  0
    1.4307    0.3809    0.3992 C   0  0  0  0  0  0  0  0  0  0  0  0
    1.1731    1.5733    0.4483 O   0  0  0  0  0  0  0  0  0  0  0  0
    0.2796   -0.5551    0.3397 C   0  0  0  0  0  0  0  0  0  0  0  0
   -0.6710   -0.4249    1.4415 O   0  0  0  0  0  0  0  0  0  0  0  0
   -1.0004   -0.1682    0.1438 C   0  0  0  0  0  0  0  0  0  0  0  0
   -2.1640   -0.7784   -0.5404 C   0  0  0  0  0  0  0  0  0  0  0  0
   -2.8894    0.3842   -0.2793 O   0  0  0  0  0  0  0  0  0  0  0  0
   -1.6519    1.0706   -0.3002 C   0  0  0  0  0  0  0  0  0  0  0  0
    3.2022   -0.2057    1.4442 H   0  0  0  0  0  0  0  0  0  0  0  0
    3.0086   -0.9708   -0.2160 H   0  0  0  0  0  0  0  0  0  0  0  0
    3.4426    0.7488   -0.0659 H   0  0  0  0  0  0  0  0  0  0  0  0
    0.6064   -1.6252    0.2970 H   0  0  0  0  0  0  0  0  0  0  0  0
   -2.5817   -1.7075   -0.1190 H   0  0  0  0  0  0  0  0  0  0  0  0
   -1.9442   -0.9466   -1.6201 H   0  0  0  0  0  0  0  0  0  0  0  0
   -1.6459    1.9454    0.3920 H   0  0  0  0  0  0  0  0  0  0  0  0
   -1.4466    1.3394   -1.3664 H   0  0  0  0  0  0  0  0  0  0  0  0
  1  2  1  0
  2  3  2  0
  2  4  1  0
  4  5  1  0
  5  6  1  0
  6  7  1  0
  7  8  1  0
  8  9  1  0
  6  4  1  0
  9  6  1  0
  1 10  1  0
  1 11  1  0
  1 12  1  0
  4 13  1  0
  7 14  1  0
  7 15  1  0
  9 16  1  0
  9 17  1  0
M  END
