
     RDKit          3D

 19 19  0  0  0  0  0  0  0  0999 V2000
    2.5990    0.4712    0.0831 C   0  0  0  0  0  0  0  0  0  0  0  0
    1.3355    0.0305   -0.6098 C   0  0  0  0  0  0  0  0  0  0  0  0
    1.1723    0.2638   -1.7992 O   0  0  0  0  0  0  0  0  0  0  0  0
    0.3122   -0.6817    0.1751 C   0  0  0  0  0  0  0  0  0  0  0  0
    0.7890   -0.8892    1.4719 O   0  0  0  0  0  0  0  0  0  0  0  0
   -1.0274   -0.0260    0.1885 C   0  0  0  0  0  0  0  0  0  0  0  0
   -2.2206   -0.9603    0.3611 C   0  0  0  0  0  0  0  0  0  0  0  0
   -1.1982    1.1828   -0.6499 C   0  0  0  0  0  0  0  0  0  0  0  0
   -1.2207    1.1956    0.7815 O   0  0  0  0  0  0  0  0  0  0  0  0
    3.0928    1.2192   -0.5763 H   0  0  0  0  0  0  0  0  0  0  0  0
    3.2540   -0.4140    0.2203 H   0  0  0  0  0  0  0  0  0  0  0  0
    2.2726    0.9069    1.0473 H   0  0  0  0  0  0  0  0  0  0  0  0
    0.2318   -1.7086   -0.2866 H   0  0  0  0  0  0  0  0  0  0  0  0
    0.7214   -0.0368    1.9774 H   0  0  0  0  0  0  0  0  0  0  0  0
   -2.6840   -0.8290    1.3635 H   0  0  0  0  0  0  0  0  0  0  0  0
   -2.9855   -0.7266   -0.3942 H   0  0  0  0  0  0  0  0  0  0  0  0
   -1.8873   -2.0309    0.3290 H   0  0  0  0  0  0  0  0  0  0  0  0
   -0.3633    1.7648   -1.0170 H   0  0  0  0  0  0  0  0  0  0  0  0
   -2.1936    1.2683   -1.1437 H   0  0  0  0  0  0  0  0  0  0  0  0
  1  2  1  0
  2  3  2  0
  2  4  1  0
  4  5  1  0
  4  6  1  0
  6  7  1  0
  6  8  1  0
  8  9  1  0
  9  6  1  0
  1 10  1  0
  1 11  1  0
  1 12  1  0
  4 13  1  0
  5 14  1  0
  7 15  1  0
  7 16  1  0
  7 17  1  0
  8 18  1  0
  8 19  1  0
M  END
