
     RDKit          3D

 23 23  0  0  0  0  0  0  0  0999 V2000
   -2.5456   -0.5368   -0.2505 C   0  0  0  0  0  0  0  0  0  0  0  0
   -1.7304   -0.1414    0.9235 C   0  0  0  0  0  0  0  0  0  0  0  0
   -2.3400    0.0045    1.9718 O   0  0  0  0  0  0  0  0  0  0  0  0
   -0.2904    0.0833    0.9293 C   0  0  0  0  0  0  0  0  0  0  0  0
    0.1647    0.9247   -0.2987 C   0  0  0  0  0  0  0  0  0  0  0  0
    0.9322    2.1548    0.0711 C   0  0  0  0  0  0  0  0  0  0  0  0
    0.6652   -0.4405   -0.0397 C   0  0  0  0  0  0  0  0  0  0  0  0
    2.1305   -0.4731    0.3861 C   0  0  0  0  0  0  0  0  0  0  0  0
    0.3366   -1.5726   -0.9835 C   0  0  0  0  0  0  0  0  0  0  0  0
   -2.0903   -0.3362   -1.2176 H   0  0  0  0  0  0  0  0  0  0  0  0
   -3.4940    0.0789   -0.2212 H   0  0  0  0  0  0  0  0  0  0  0  0
   -2.8902   -1.5868   -0.2237 H   0  0  0  0  0  0  0  0  0  0  0  0
    0.1275    0.3813    1.9142 H   0  0  0  0  0  0  0  0  0  0  0  0
   -0.5190    1.0409   -1.1362 H   0  0  0  0  0  0  0  0  0  0  0  0
    1.3597    2.6196   -0.8430 H   0  0  0  0  0  0  0  0  0  0  0  0
    1.7012    1.9925    0.8398 H   0  0  0  0  0  0  0  0  0  0  0  0
    0.2036    2.8936    0.4748 H   0  0  0  0  0  0  0  0  0  0  0  0
    2.5477   -1.5091    0.3219 H   0  0  0  0  0  0  0  0  0  0  0  0
    2.6702    0.1578   -0.3582 H   0  0  0  0  0  0  0  0  0  0  0  0
    2.2802   -0.0232    1.3802 H   0  0  0  0  0  0  0  0  0  0  0  0
   -0.5891   -2.1111   -0.6377 H   0  0  0  0  0  0  0  0  0  0  0  0
    0.2469   -1.2471   -2.0373 H   0  0  0  0  0  0  0  0  0  0  0  0
    1.1229   -2.3542   -0.9655 H   0  0  0  0  0  0  0  0  0  0  0  0
  1  2  1  0
  2  3  2  0
  2  4  1  0
  4  5  1  0
  5  6  1  0
  5  7  1  0
  7  8  1  0
  7  9  1  0
  7  4  1  0
  1 10  1  0
  1 11  1  0
  1 12  1  0
  4 13  1  0
  5 14  1  0
  6 15  1  0
  6 16  1  0
  6 17  1  0
  8 18  1  0
  8 19  1  0
  8 20  1  0
  9 21  1  0
  9 22  1  0
  9 23  1  0
M  END
