
     RDKit          3D

 17 18  0  0  0  0  0  0  0  0999 V2000
    2.2007   -0.7164    0.3063 C   0  0  0  0  0  0  0  0  0  0  0  0
    1.3140    0.3806   -0.1112 C   0  0  0  0  0  0  0  0  0  0  0  0
    1.7913    1.2896   -0.7695 O   0  0  0  0  0  0  0  0  0  0  0  0
   -0.1284    0.4487    0.2203 C   0  0  0  0  0  0  0  0  0  0  0  0
   -0.9192    1.6074   -0.2579 C   0  0  0  0  0  0  0  0  0  0  0  0
   -1.0793    0.3028   -0.9091 C   0  0  0  0  0  0  0  0  0  0  0  0
   -1.7719   -0.7673   -0.0829 C   0  0  0  0  0  0  0  0  0  0  0  0
   -0.7645   -0.6148    1.0042 C   0  0  0  0  0  0  0  0  0  0  0  0
   -0.5712   -1.1505    2.0715 O   0  0  0  0  0  0  0  0  0  0  0  0
    1.7066   -1.3656    1.0376 H   0  0  0  0  0  0  0  0  0  0  0  0
    2.4770   -1.3367   -0.5884 H   0  0  0  0  0  0  0  0  0  0  0  0
    3.1891   -0.3477    0.7051 H   0  0  0  0  0  0  0  0  0  0  0  0
   -0.3525    2.4376   -0.6856 H   0  0  0  0  0  0  0  0  0  0  0  0
   -1.7941    1.9534    0.3599 H   0  0  0  0  0  0  0  0  0  0  0  0
   -0.7291    0.0716   -1.9209 H   0  0  0  0  0  0  0  0  0  0  0  0
   -1.7775   -1.7719   -0.5485 H   0  0  0  0  0  0  0  0  0  0  0  0
   -2.7907   -0.4208    0.1693 H   0  0  0  0  0  0  0  0  0  0  0  0
  1  2  1  0
  2  3  2  0
  2  4  1  0
  4  5  1  0
  5  6  1  0
  6  7  1  0
  7  8  1  0
  8  9  2  0
  6  4  1  0
  8  4  1  0
  1 10  1  0
  1 11  1  0
  1 12  1  0
  5 13  1  0
  5 14  1  0
  6 15  1  0
  7 16  1  0
  7 17  1  0
M  END
