
     RDKit          3D

 19 19  0  0  0  0  0  0  0  0999 V2000
    2.4555    1.2849    0.5748 C   0  0  0  0  0  0  0  0  0  0  0  0
    1.3525    0.4163    0.0330 C   0  0  0  0  0  0  0  0  0  0  0  0
    1.2428   -0.7305    0.5006 O   0  0  0  0  0  0  0  0  0  0  0  0
    0.4664    0.9070   -0.9869 C   0  0  0  0  0  0  0  0  0  0  0  0
    0.6787    2.0705   -1.4268 O   0  0  0  0  0  0  0  0  0  0  0  0
   -0.6444    0.1288   -1.5247 C   0  0  0  0  0  0  0  0  0  0  0  0
   -0.6259   -1.3292   -1.5323 C   0  0  0  0  0  0  0  0  0  0  0  0
   -1.6587   -0.5821   -0.7093 C   0  0  0  0  0  0  0  0  0  0  0  0
   -1.6304   -0.7154    0.7636 C   0  0  0  0  0  0  0  0  0  0  0  0
    2.1668    2.3422    0.4769 H   0  0  0  0  0  0  0  0  0  0  0  0
    2.5189    1.0615    1.6575 H   0  0  0  0  0  0  0  0  0  0  0  0
    3.4310    1.0333    0.1338 H   0  0  0  0  0  0  0  0  0  0  0  0
   -1.1229    0.6706   -2.4126 H   0  0  0  0  0  0  0  0  0  0  0  0
   -0.9723   -1.8021   -2.4888 H   0  0  0  0  0  0  0  0  0  0  0  0
    0.0931   -1.9677   -1.0047 H   0  0  0  0  0  0  0  0  0  0  0  0
   -2.6871   -0.6419   -1.1461 H   0  0  0  0  0  0  0  0  0  0  0  0
   -1.1950   -1.6672    1.1544 H   0  0  0  0  0  0  0  0  0  0  0  0
   -2.7014   -0.6665    1.1426 H   0  0  0  0  0  0  0  0  0  0  0  0
   -1.1676    0.1874    1.2582 H   0  0  0  0  0  0  0  0  0  0  0  0
  1  2  1  0
  2  3  2  0
  2  4  1  0
  4  5  2  0
  4  6  1  0
  6  7  1  0
  7  8  1  0
  8  9  1  0
  8  6  1  0
  1 10  1  0
  1 11  1  0
  1 12  1  0
  6 13  1  0
  7 14  1  0
  7 15  1  0
  8 16  1  0
  9 17  1  0
  9 18  1  0
  9 19  1  0
M  END
