
     RDKit          3D

 19 19  0  0  0  0  0  0  0  0999 V2000
   -3.2581    0.5823    0.0290 C   0  0  0  0  0  0  0  0  0  0  0  0
   -2.1683   -0.3906   -0.2562 C   0  0  0  0  0  0  0  0  0  0  0  0
   -2.5265   -1.5463   -0.4634 O   0  0  0  0  0  0  0  0  0  0  0  0
   -0.7225    0.0092   -0.2899 C   0  0  0  0  0  0  0  0  0  0  0  0
    0.0105   -1.1087   -0.5762 O   0  0  0  0  0  0  0  0  0  0  0  0
    1.3564   -0.9486   -0.6508 C   0  0  0  0  0  0  0  0  0  0  0  0
    1.9997   -0.4444    0.6154 C   0  0  0  0  0  0  0  0  0  0  0  0
    2.7560    0.8491    0.5598 C   0  0  0  0  0  0  0  0  0  0  0  0
    3.4605   -0.3267    0.3633 O   0  0  0  0  0  0  0  0  0  0  0  0
   -3.9478    0.5333   -0.8644 H   0  0  0  0  0  0  0  0  0  0  0  0
   -2.9041    1.5994    0.1976 H   0  0  0  0  0  0  0  0  0  0  0  0
   -3.8582    0.1736    0.8739 H   0  0  0  0  0  0  0  0  0  0  0  0
   -0.5660    0.8428   -1.0347 H   0  0  0  0  0  0  0  0  0  0  0  0
   -0.4639    0.4319    0.7132 H   0  0  0  0  0  0  0  0  0  0  0  0
    1.8129   -1.9239   -0.9209 H   0  0  0  0  0  0  0  0  0  0  0  0
    1.6063   -0.2342   -1.4638 H   0  0  0  0  0  0  0  0  0  0  0  0
    1.8754   -0.9655    1.5625 H   0  0  0  0  0  0  0  0  0  0  0  0
    2.5533    1.5178   -0.2994 H   0  0  0  0  0  0  0  0  0  0  0  0
    2.9845    1.3494    1.5225 H   0  0  0  0  0  0  0  0  0  0  0  0
  1  2  1  0
  2  3  2  0
  2  4  1  0
  4  5  1  0
  5  6  1  0
  6  7  1  0
  7  8  1  0
  8  9  1  0
  9  7  1  0
  1 10  1  0
  1 11  1  0
  1 12  1  0
  4 13  1  0
  4 14  1  0
  6 15  1  0
  6 16  1  0
  7 17  1  0
  8 18  1  0
  8 19  1  0
M  END
