
     RDKit          3D

 19 19  0  0  0  0  0  0  0  0999 V2000
    2.5280    0.1225    0.3790 C   0  0  0  0  0  0  0  0  0  0  0  0
    1.2653    0.6713   -0.1923 C   0  0  0  0  0  0  0  0  0  0  0  0
    1.1998    1.8855   -0.2718 O   0  0  0  0  0  0  0  0  0  0  0  0
    0.1401   -0.1441   -0.6466 C   0  0  0  0  0  0  0  0  0  0  0  0
   -0.9312    0.7304   -1.1485 C   0  0  0  0  0  0  0  0  0  0  0  0
   -1.8826    0.8753   -0.2661 C   0  0  0  0  0  0  0  0  0  0  0  0
   -1.5491    0.1008    0.9436 C   0  0  0  0  0  0  0  0  0  0  0  0
   -0.5244   -0.9323    0.4460 C   0  0  0  0  0  0  0  0  0  0  0  0
   -1.2226   -2.0143   -0.0397 O   0  0  0  0  0  0  0  0  0  0  0  0
    2.9253    0.7627    1.2023 H   0  0  0  0  0  0  0  0  0  0  0  0
    3.3310    0.1326   -0.4098 H   0  0  0  0  0  0  0  0  0  0  0  0
    2.4291   -0.9376    0.6878 H   0  0  0  0  0  0  0  0  0  0  0  0
    0.4601   -0.7829   -1.4979 H   0  0  0  0  0  0  0  0  0  0  0  0
   -0.9084    1.1990   -2.1618 H   0  0  0  0  0  0  0  0  0  0  0  0
   -2.7900    1.4654   -0.3730 H   0  0  0  0  0  0  0  0  0  0  0  0
   -1.1204    0.6969    1.7607 H   0  0  0  0  0  0  0  0  0  0  0  0
   -2.4532   -0.4120    1.3411 H   0  0  0  0  0  0  0  0  0  0  0  0
    0.1639   -1.2356    1.2572 H   0  0  0  0  0  0  0  0  0  0  0  0
   -1.0607   -2.1836   -1.0104 H   0  0  0  0  0  0  0  0  0  0  0  0
  1  2  1  0
  2  3  2  0
  2  4  1  0
  4  5  1  0
  5  6  2  0
  6  7  1  0
  7  8  1  0
  8  9  1  0
  8  4  1  0
  1 10  1  0
  1 11  1  0
  1 12  1  0
  4 13  1  0
  5 14  1  0
  6 15  1  0
  7 16  1  0
  7 17  1  0
  8 18  1  0
  9 19  1  0
M  END
