
     RDKit          3D

 19 18  0  0  0  0  0  0  0  0999 V2000
    2.0496   -1.0297   -0.6246 C   0  0  0  0  0  0  0  0  0  0  0  0
    0.7742   -0.3038   -0.7952 C   0  0  0  0  0  0  0  0  0  0  0  0
    0.3119   -0.0783   -1.8952 O   0  0  0  0  0  0  0  0  0  0  0  0
    0.0331    0.1642    0.3969 C   0  0  0  0  0  0  0  0  0  0  0  0
   -0.0340    1.6569    0.3483 C   0  0  0  0  0  0  0  0  0  0  0  0
    0.7526   -0.2116    1.5249 O   0  0  0  0  0  0  0  0  0  0  0  0
   -1.2902   -0.5272    0.4117 C   0  0  0  0  0  0  0  0  0  0  0  0
   -2.1488   -0.2968   -0.7407 C   0  0  0  0  0  0  0  0  0  0  0  0
   -2.8308    0.7045   -0.8627 O   0  0  0  0  0  0  0  0  0  0  0  0
    2.9226   -0.3581   -0.7641 H   0  0  0  0  0  0  0  0  0  0  0  0
    2.0436   -1.8773   -1.3414 H   0  0  0  0  0  0  0  0  0  0  0  0
    2.1378   -1.5005    0.3851 H   0  0  0  0  0  0  0  0  0  0  0  0
   -0.0175    2.0462   -0.6921 H   0  0  0  0  0  0  0  0  0  0  0  0
   -0.8146    2.1103    0.9577 H   0  0  0  0  0  0  0  0  0  0  0  0
    0.9405    2.0290    0.7897 H   0  0  0  0  0  0  0  0  0  0  0  0
    0.3848    0.2664    2.3071 H   0  0  0  0  0  0  0  0  0  0  0  0
   -1.1461   -1.6215    0.5728 H   0  0  0  0  0  0  0  0  0  0  0  0
   -1.8435   -0.1667    1.3284 H   0  0  0  0  0  0  0  0  0  0  0  0
   -2.2252   -1.0062   -1.5518 H   0  0  0  0  0  0  0  0  0  0  0  0
  1  2  1  0
  2  3  2  0
  2  4  1  0
  4  5  1  0
  4  6  1  0
  4  7  1  0
  7  8  1  0
  8  9  2  0
  1 10  1  0
  1 11  1  0
  1 12  1  0
  5 13  1  0
  5 14  1  0
  5 15  1  0
  6 16  1  0
  7 17  1  0
  7 18  1  0
  8 19  1  0
M  END
