
     RDKit          3D

 19 20  0  0  0  0  0  0  0  0999 V2000
    2.3173   -0.4850   -0.8374 C   0  0  0  0  0  0  0  0  0  0  0  0
    1.4260   -0.2226    0.3548 C   0  0  0  0  0  0  0  0  0  0  0  0
    1.8985   -0.5901    1.4249 O   0  0  0  0  0  0  0  0  0  0  0  0
    0.2097    0.3686    0.2439 C   0  0  0  0  0  0  0  0  0  0  0  0
   -0.2197    1.6549    0.9012 C   0  0  0  0  0  0  0  0  0  0  0  0
   -1.3565    1.1508    0.0709 C   0  0  0  0  0  0  0  0  0  0  0  0
   -0.4116    0.8150   -0.8891 O   0  0  0  0  0  0  0  0  0  0  0  0
   -1.1109   -0.2047    0.6675 C   0  0  0  0  0  0  0  0  0  0  0  0
   -1.6143   -1.3777   -0.1053 C   0  0  0  0  0  0  0  0  0  0  0  0
    1.8022   -0.2315   -1.7777 H   0  0  0  0  0  0  0  0  0  0  0  0
    2.6278   -1.5393   -0.8052 H   0  0  0  0  0  0  0  0  0  0  0  0
    3.2062    0.1680   -0.7360 H   0  0  0  0  0  0  0  0  0  0  0  0
   -0.3027    1.5388    1.9863 H   0  0  0  0  0  0  0  0  0  0  0  0
    0.2323    2.5778    0.5190 H   0  0  0  0  0  0  0  0  0  0  0  0
   -2.2485    1.5914   -0.0841 H   0  0  0  0  0  0  0  0  0  0  0  0
   -1.2203   -0.2475    1.7702 H   0  0  0  0  0  0  0  0  0  0  0  0
   -0.7671   -1.7699   -0.7219 H   0  0  0  0  0  0  0  0  0  0  0  0
   -2.0199   -2.1516    0.5805 H   0  0  0  0  0  0  0  0  0  0  0  0
   -2.4484   -1.0455   -0.7487 H   0  0  0  0  0  0  0  0  0  0  0  0
  1  2  1  0
  2  3  2  0
  2  4  1  0
  4  5  1  0
  5  6  1  0
  6  7  1  0
  6  8  1  0
  8  9  1  0
  7  4  1  0
  8  4  1  0
  1 10  1  0
  1 11  1  0
  1 12  1  0
  5 13  1  0
  5 14  1  0
  6 15  1  0
  8 16  1  0
  9 17  1  0
  9 18  1  0
  9 19  1  0
M  END
