
     RDKit          3D

 19 19  0  0  0  0  0  0  0  0999 V2000
    2.2651   -0.6059    0.5265 C   0  0  0  0  0  0  0  0  0  0  0  0
    1.5178   -0.8321   -0.7238 C   0  0  0  0  0  0  0  0  0  0  0  0
    2.0013   -1.4864   -1.6132 O   0  0  0  0  0  0  0  0  0  0  0  0
    0.1730   -0.2589   -0.8923 C   0  0  0  0  0  0  0  0  0  0  0  0
    0.0479    1.2052   -0.4036 C   0  0  0  0  0  0  0  0  0  0  0  0
   -0.6222    0.0857    0.3144 C   0  0  0  0  0  0  0  0  0  0  0  0
   -0.1069   -0.1870    1.5773 O   0  0  0  0  0  0  0  0  0  0  0  0
   -2.1305    0.0915    0.2300 C   0  0  0  0  0  0  0  0  0  0  0  0
   -2.4951    0.3767   -1.0851 O   0  0  0  0  0  0  0  0  0  0  0  0
    3.3508   -0.8377    0.3962 H   0  0  0  0  0  0  0  0  0  0  0  0
    2.1643    0.4129    0.9538 H   0  0  0  0  0  0  0  0  0  0  0  0
    1.9028   -1.3458    1.2987 H   0  0  0  0  0  0  0  0  0  0  0  0
   -0.3428   -0.4832   -1.8514 H   0  0  0  0  0  0  0  0  0  0  0  0
    0.9255    1.7019    0.0132 H   0  0  0  0  0  0  0  0  0  0  0  0
   -0.5436    1.8654   -1.0756 H   0  0  0  0  0  0  0  0  0  0  0  0
   -0.4120   -1.0597    1.9350 H   0  0  0  0  0  0  0  0  0  0  0  0
   -2.4837    0.9151    0.9042 H   0  0  0  0  0  0  0  0  0  0  0  0
   -2.5617   -0.8851    0.5524 H   0  0  0  0  0  0  0  0  0  0  0  0
   -2.6500    1.3275   -1.2505 H   0  0  0  0  0  0  0  0  0  0  0  0
  1  2  1  0
  2  3  2  0
  2  4  1  0
  4  5  1  0
  5  6  1  0
  6  7  1  0
  6  8  1  0
  8  9  1  0
  6  4  1  0
  1 10  1  0
  1 11  1  0
  1 12  1  0
  4 13  1  0
  5 14  1  0
  5 15  1  0
  7 16  1  0
  8 17  1  0
  8 18  1  0
  9 19  1  0
M  END
