
     RDKit          3D

 21 20  0  0  0  0  0  0  0  0999 V2000
    3.3578   -1.0556   -2.2157 C   0  0  0  0  0  0  0  0  0  0  0  0
    2.2261   -1.5147   -1.3558 C   0  0  0  0  0  0  0  0  0  0  0  0
    2.0098   -2.7497   -1.2916 O   0  0  0  0  0  0  0  0  0  0  0  0
    1.3996   -0.5986   -0.6188 C   0  0  0  0  0  0  0  0  0  0  0  0
    0.7090    0.1940    0.0073 C   0  0  0  0  0  0  0  0  0  0  0  0
   -0.1389    1.1304    0.7496 C   0  0  0  0  0  0  0  0  0  0  0  0
   -1.2663    0.3216    1.3424 C   0  0  0  0  0  0  0  0  0  0  0  0
   -2.0911   -0.3727    0.3109 C   0  0  0  0  0  0  0  0  0  0  0  0
   -2.1677    1.2672    2.1478 C   0  0  0  0  0  0  0  0  0  0  0  0
    3.0739   -1.0817   -3.3055 H   0  0  0  0  0  0  0  0  0  0  0  0
    3.5406    0.0277   -1.9696 H   0  0  0  0  0  0  0  0  0  0  0  0
    4.2940   -1.5782   -2.0053 H   0  0  0  0  0  0  0  0  0  0  0  0
   -0.5725    1.9129    0.0866 H   0  0  0  0  0  0  0  0  0  0  0  0
    0.4400    1.5892    1.5776 H   0  0  0  0  0  0  0  0  0  0  0  0
   -0.8497   -0.3942    2.0823 H   0  0  0  0  0  0  0  0  0  0  0  0
   -1.8585    0.0825   -0.6831 H   0  0  0  0  0  0  0  0  0  0  0  0
   -1.7577   -1.4366    0.2674 H   0  0  0  0  0  0  0  0  0  0  0  0
   -3.1459   -0.2886    0.5720 H   0  0  0  0  0  0  0  0  0  0  0  0
   -2.0849    2.3023    1.7054 H   0  0  0  0  0  0  0  0  0  0  0  0
   -1.8923    1.2649    3.2231 H   0  0  0  0  0  0  0  0  0  0  0  0
   -3.2252    0.9780    2.0833 H   0  0  0  0  0  0  0  0  0  0  0  0
  1  2  1  0
  2  3  2  0
  2  4  1  0
  4  5  3  0
  5  6  1  0
  6  7  1  0
  7  8  1  0
  7  9  1  0
  1 10  1  0
  1 11  1  0
  1 12  1  0
  6 13  1  0
  6 14  1  0
  7 15  1  0
  8 16  1  0
  8 17  1  0
  8 18  1  0
  9 19  1  0
  9 20  1  0
  9 21  1  0
M  END
