
     RDKit          3D

 21 22  0  0  0  0  0  0  0  0999 V2000
    2.6659   -0.6748    0.0594 C   0  0  0  0  0  0  0  0  0  0  0  0
    1.6822    0.3371    0.5237 C   0  0  0  0  0  0  0  0  0  0  0  0
    2.1204    1.3746    0.9767 O   0  0  0  0  0  0  0  0  0  0  0  0
    0.2437   -0.0049    0.3951 C   0  0  0  0  0  0  0  0  0  0  0  0
   -0.2367   -0.2781   -1.0010 C   0  0  0  0  0  0  0  0  0  0  0  0
   -0.0452    1.1982   -1.2470 C   0  0  0  0  0  0  0  0  0  0  0  0
   -0.6852    1.1307    0.1169 C   0  0  0  0  0  0  0  0  0  0  0  0
   -1.5971    0.1051   -0.5060 C   0  0  0  0  0  0  0  0  0  0  0  0
   -2.2723   -0.8424    0.4229 C   0  0  0  0  0  0  0  0  0  0  0  0
    2.6078   -1.5946    0.7091 H   0  0  0  0  0  0  0  0  0  0  0  0
    2.3701   -1.0524   -0.9630 H   0  0  0  0  0  0  0  0  0  0  0  0
    3.7025   -0.3323    0.0905 H   0  0  0  0  0  0  0  0  0  0  0  0
   -0.1618   -0.6726    1.1883 H   0  0  0  0  0  0  0  0  0  0  0  0
    0.0175   -1.0293   -1.6053 H   0  0  0  0  0  0  0  0  0  0  0  0
    0.9779    1.5644   -1.2954 H   0  0  0  0  0  0  0  0  0  0  0  0
   -0.7700    1.6544   -1.9644 H   0  0  0  0  0  0  0  0  0  0  0  0
   -0.9417    1.8944    0.7048 H   0  0  0  0  0  0  0  0  0  0  0  0
   -2.2104    0.5652   -1.3013 H   0  0  0  0  0  0  0  0  0  0  0  0
   -2.4015   -0.4628    1.4520 H   0  0  0  0  0  0  0  0  0  0  0  0
   -3.2978   -1.0321    0.0300 H   0  0  0  0  0  0  0  0  0  0  0  0
   -1.7680   -1.8479    0.4126 H   0  0  0  0  0  0  0  0  0  0  0  0
  1  2  1  0
  2  3  2  0
  2  4  1  0
  4  5  1  0
  5  6  1  0
  6  7  1  0
  7  8  1  0
  8  9  1  0
  7  4  1  0
  8  5  1  0
  1 10  1  0
  1 11  1  0
  1 12  1  0
  4 13  1  0
  5 14  1  0
  6 15  1  0
  6 16  1  0
  7 17  1  0
  8 18  1  0
  9 19  1  0
  9 20  1  0
  9 21  1  0
M  END
