
     RDKit          3D

 19 20  0  0  0  0  0  0  0  0999 V2000
    2.7873    0.4197    0.1862 C   0  0  0  0  0  0  0  0  0  0  0  0
    1.6996   -0.4220    0.7456 C   0  0  0  0  0  0  0  0  0  0  0  0
    1.6106   -0.5390    1.9413 O   0  0  0  0  0  0  0  0  0  0  0  0
    0.7519   -1.0967   -0.1642 C   0  0  0  0  0  0  0  0  0  0  0  0
   -0.2227   -1.8547    0.4331 O   0  0  0  0  0  0  0  0  0  0  0  0
   -1.2737   -1.1742   -0.1631 C   0  0  0  0  0  0  0  0  0  0  0  0
   -1.4421    0.2361    0.2435 C   0  0  0  0  0  0  0  0  0  0  0  0
   -2.4612    1.1396   -0.3588 C   0  0  0  0  0  0  0  0  0  0  0  0
   -0.3189   -0.1634   -0.6839 C   0  0  0  0  0  0  0  0  0  0  0  0
    2.4542    1.4593   -0.0126 H   0  0  0  0  0  0  0  0  0  0  0  0
    3.1100   -0.0673   -0.7598 H   0  0  0  0  0  0  0  0  0  0  0  0
    3.6338    0.3956    0.8791 H   0  0  0  0  0  0  0  0  0  0  0  0
    1.2579   -1.5753   -1.0516 H   0  0  0  0  0  0  0  0  0  0  0  0
   -1.9813   -1.7023   -0.8112 H   0  0  0  0  0  0  0  0  0  0  0  0
   -1.0905    0.5348    1.2681 H   0  0  0  0  0  0  0  0  0  0  0  0
   -1.9628    1.9295   -0.9749 H   0  0  0  0  0  0  0  0  0  0  0  0
   -3.0488    1.6860    0.4170 H   0  0  0  0  0  0  0  0  0  0  0  0
   -3.1890    0.6404   -1.0223 H   0  0  0  0  0  0  0  0  0  0  0  0
   -0.3142    0.1539   -1.7289 H   0  0  0  0  0  0  0  0  0  0  0  0
  1  2  1  0
  2  3  2  0
  2  4  1  0
  4  5  1  0
  5  6  1  0
  6  7  1  0
  7  8  1  0
  7  9  1  0
  9  4  1  0
  9  6  1  0
  1 10  1  0
  1 11  1  0
  1 12  1  0
  4 13  1  0
  6 14  1  0
  7 15  1  0
  8 16  1  0
  8 17  1  0
  8 18  1  0
  9 19  1  0
M  END
