
     RDKit          3D

 20 19  0  0  0  0  0  0  0  0999 V2000
    2.9646   -1.5087    0.0254 C   0  0  0  0  0  0  0  0  0  0  0  0
    1.9165   -0.4374    0.0148 C   0  0  0  0  0  0  0  0  0  0  0  0
    1.8246    0.3529   -0.9612 O   0  0  0  0  0  0  0  0  0  0  0  0
    1.0258   -0.2753    1.0539 O   0  0  0  0  0  0  0  0  0  0  0  0
    0.0203    0.7157    1.0953 C   0  0  0  0  0  0  0  0  0  0  0  0
   -0.9468    0.5810   -0.0636 C   0  0  0  0  0  0  0  0  0  0  0  0
   -1.5935   -0.7951    0.0287 C   0  0  0  0  0  0  0  0  0  0  0  0
   -2.0558    1.5919    0.1190 C   0  0  0  0  0  0  0  0  0  0  0  0
    3.3253   -1.7156    1.0599 H   0  0  0  0  0  0  0  0  0  0  0  0
    3.8659   -1.1834   -0.5429 H   0  0  0  0  0  0  0  0  0  0  0  0
    2.5928   -2.4615   -0.3770 H   0  0  0  0  0  0  0  0  0  0  0  0
   -0.5762    0.5450    2.0204 H   0  0  0  0  0  0  0  0  0  0  0  0
    0.4227    1.7427    1.1733 H   0  0  0  0  0  0  0  0  0  0  0  0
   -0.4827    0.7157   -1.0421 H   0  0  0  0  0  0  0  0  0  0  0  0
   -1.0789   -1.4942   -0.6608 H   0  0  0  0  0  0  0  0  0  0  0  0
   -2.6871   -0.7519   -0.1472 H   0  0  0  0  0  0  0  0  0  0  0  0
   -1.4615   -1.1971    1.0530 H   0  0  0  0  0  0  0  0  0  0  0  0
   -2.6634    1.7224   -0.8043 H   0  0  0  0  0  0  0  0  0  0  0  0
   -1.6585    2.5908    0.4294 H   0  0  0  0  0  0  0  0  0  0  0  0
   -2.7542    1.2621    0.9171 H   0  0  0  0  0  0  0  0  0  0  0  0
  1  2  1  0
  2  3  2  0
  2  4  1  0
  4  5  1  0
  5  6  1  0
  6  7  1  0
  6  8  1  0
  1  9  1  0
  1 10  1  0
  1 11  1  0
  5 12  1  0
  5 13  1  0
  6 14  1  0
  7 15  1  0
  7 16  1  0
  7 17  1  0
  8 18  1  0
  8 19  1  0
  8 20  1  0
M  END
