
     RDKit          3D

 21 21  0  0  0  0  0  0  0  0999 V2000
    3.2904   -0.0762    0.4578 C   0  0  0  0  0  0  0  0  0  0  0  0
    1.9347   -0.1920   -0.1815 C   0  0  0  0  0  0  0  0  0  0  0  0
    1.7976   -0.3259   -1.4265 O   0  0  0  0  0  0  0  0  0  0  0  0
    0.7707   -0.1583    0.5566 O   0  0  0  0  0  0  0  0  0  0  0  0
   -0.5230   -0.2600    0.0316 C   0  0  0  0  0  0  0  0  0  0  0  0
   -0.8363   -1.5280   -0.7199 C   0  0  0  0  0  0  0  0  0  0  0  0
   -1.5386    0.1033    1.0982 C   0  0  0  0  0  0  0  0  0  0  0  0
   -2.0209    1.2954    0.2870 C   0  0  0  0  0  0  0  0  0  0  0  0
   -0.9911    0.9582   -0.7513 C   0  0  0  0  0  0  0  0  0  0  0  0
    3.6234    0.9885    0.3103 H   0  0  0  0  0  0  0  0  0  0  0  0
    3.1270   -0.2490    1.5443 H   0  0  0  0  0  0  0  0  0  0  0  0
    4.0232   -0.7425    0.0021 H   0  0  0  0  0  0  0  0  0  0  0  0
   -0.0498   -2.2683   -0.4634 H   0  0  0  0  0  0  0  0  0  0  0  0
   -0.8524   -1.2948   -1.8191 H   0  0  0  0  0  0  0  0  0  0  0  0
   -1.8533   -1.9348   -0.4534 H   0  0  0  0  0  0  0  0  0  0  0  0
   -2.3008   -0.6602    1.2903 H   0  0  0  0  0  0  0  0  0  0  0  0
   -1.0982    0.4599    2.0587 H   0  0  0  0  0  0  0  0  0  0  0  0
   -1.8121    2.2799    0.7627 H   0  0  0  0  0  0  0  0  0  0  0  0
   -3.0763    1.1760   -0.0712 H   0  0  0  0  0  0  0  0  0  0  0  0
   -0.1508    1.7030   -0.8003 H   0  0  0  0  0  0  0  0  0  0  0  0
   -1.4633    0.7257   -1.7133 H   0  0  0  0  0  0  0  0  0  0  0  0
  1  2  1  0
  2  3  2  0
  2  4  1  0
  4  5  1  0
  5  6  1  0
  5  7  1  0
  7  8  1  0
  8  9  1  0
  9  5  1  0
  1 10  1  0
  1 11  1  0
  1 12  1  0
  6 13  1  0
  6 14  1  0
  6 15  1  0
  7 16  1  0
  7 17  1  0
  8 18  1  0
  8 19  1  0
  9 20  1  0
  9 21  1  0
M  END
