
     RDKit          3D

 19 18  0  0  0  0  0  0  0  0999 V2000
    2.8697   -0.4011   -0.0807 C   0  0  0  0  0  0  0  0  0  0  0  0
    1.4500   -0.0976   -0.4080 C   0  0  0  0  0  0  0  0  0  0  0  0
    1.1924    0.1142   -1.5801 O   0  0  0  0  0  0  0  0  0  0  0  0
    0.4667   -0.0727    0.6811 C   0  0  0  0  0  0  0  0  0  0  0  0
   -0.9257    0.2419    0.2405 C   0  0  0  0  0  0  0  0  0  0  0  0
   -1.0470    1.5942   -0.4273 C   0  0  0  0  0  0  0  0  0  0  0  0
   -1.4698   -0.7751   -0.5650 O   0  0  0  0  0  0  0  0  0  0  0  0
   -2.5814   -1.5016   -0.1630 C   0  0  0  0  0  0  0  0  0  0  0  0
   -3.0872   -1.2166    0.9524 O   0  0  0  0  0  0  0  0  0  0  0  0
    3.0616   -1.4971   -0.1194 H   0  0  0  0  0  0  0  0  0  0  0  0
    3.1193   -0.0921    0.9730 H   0  0  0  0  0  0  0  0  0  0  0  0
    3.5810    0.1210   -0.7450 H   0  0  0  0  0  0  0  0  0  0  0  0
    0.7803    0.7212    1.4066 H   0  0  0  0  0  0  0  0  0  0  0  0
    0.4191   -1.0248    1.2542 H   0  0  0  0  0  0  0  0  0  0  0  0
   -1.5419    0.3122    1.1803 H   0  0  0  0  0  0  0  0  0  0  0  0
   -1.8622    2.2128    0.0075 H   0  0  0  0  0  0  0  0  0  0  0  0
   -1.2725    1.4895   -1.5206 H   0  0  0  0  0  0  0  0  0  0  0  0
   -0.1052    2.1640   -0.3551 H   0  0  0  0  0  0  0  0  0  0  0  0
   -3.0473   -2.2924   -0.7314 H   0  0  0  0  0  0  0  0  0  0  0  0
  1  2  1  0
  2  3  2  0
  2  4  1  0
  4  5  1  0
  5  6  1  0
  5  7  1  0
  7  8  1  0
  8  9  2  0
  1 10  1  0
  1 11  1  0
  1 12  1  0
  4 13  1  0
  4 14  1  0
  5 15  1  0
  6 16  1  0
  6 17  1  0
  6 18  1  0
  8 19  1  0
M  END
