
     RDKit          3D

 21 22  0  0  0  0  0  0  0  0999 V2000
   -3.0555    0.4039    0.3112 C   0  0  0  0  0  0  0  0  0  0  0  0
   -1.9596   -0.5759    0.4523 C   0  0  0  0  0  0  0  0  0  0  0  0
   -2.1011   -1.4882    1.2437 O   0  0  0  0  0  0  0  0  0  0  0  0
   -0.7174   -0.4858   -0.3236 C   0  0  0  0  0  0  0  0  0  0  0  0
    0.0331    0.8292   -0.0615 C   0  0  0  0  0  0  0  0  0  0  0  0
    1.2750    0.0136    0.0299 C   0  0  0  0  0  0  0  0  0  0  0  0
    2.4133    0.1423   -0.8613 C   0  0  0  0  0  0  0  0  0  0  0  0
    2.5053    0.4050    0.6549 C   0  0  0  0  0  0  0  0  0  0  0  0
    0.4827   -1.2011    0.2655 C   0  0  0  0  0  0  0  0  0  0  0  0
   -3.0752    0.7717   -0.7540 H   0  0  0  0  0  0  0  0  0  0  0  0
   -4.0441   -0.1052    0.4689 H   0  0  0  0  0  0  0  0  0  0  0  0
   -2.8861    1.2169    1.0249 H   0  0  0  0  0  0  0  0  0  0  0  0
   -0.8047   -0.6528   -1.4116 H   0  0  0  0  0  0  0  0  0  0  0  0
   -0.2822    1.2546    0.9147 H   0  0  0  0  0  0  0  0  0  0  0  0
   -0.0323    1.5311   -0.9112 H   0  0  0  0  0  0  0  0  0  0  0  0
    2.9756   -0.6984   -1.2716 H   0  0  0  0  0  0  0  0  0  0  0  0
    2.4323    1.0532   -1.5170 H   0  0  0  0  0  0  0  0  0  0  0  0
    3.1080   -0.3477    1.2160 H   0  0  0  0  0  0  0  0  0  0  0  0
    2.6780    1.4494    0.9731 H   0  0  0  0  0  0  0  0  0  0  0  0
    0.7415   -2.1225   -0.2975 H   0  0  0  0  0  0  0  0  0  0  0  0
    0.3135   -1.3932    1.3482 H   0  0  0  0  0  0  0  0  0  0  0  0
  1  2  1  0
  2  3  2  0
  2  4  1  0
  4  5  1  0
  5  6  1  0
  6  7  1  0
  7  8  1  0
  6  9  1  0
  9  4  1  0
  8  6  1  0
  1 10  1  0
  1 11  1  0
  1 12  1  0
  4 13  1  0
  5 14  1  0
  5 15  1  0
  7 16  1  0
  7 17  1  0
  8 18  1  0
  8 19  1  0
  9 20  1  0
  9 21  1  0
M  END
