
     RDKit          3D

 16 15  0  0  0  0  0  0  0  0999 V2000
   -3.0196    1.1649   -0.1586 C   0  0  0  0  0  0  0  0  0  0  0  0
   -2.2138    0.0787   -0.8103 C   0  0  0  0  0  0  0  0  0  0  0  0
   -2.7299   -0.5355   -1.7837 O   0  0  0  0  0  0  0  0  0  0  0  0
   -0.8977   -0.2433   -0.3331 C   0  0  0  0  0  0  0  0  0  0  0  0
    0.2171   -0.5165    0.0937 C   0  0  0  0  0  0  0  0  0  0  0  0
    1.5496   -0.8560    0.5946 C   0  0  0  0  0  0  0  0  0  0  0  0
    2.4955    0.2225    0.0588 C   0  0  0  0  0  0  0  0  0  0  0  0
    1.9090   -2.0952    0.0833 O   0  0  0  0  0  0  0  0  0  0  0  0
   -3.4818    0.6932    0.7359 H   0  0  0  0  0  0  0  0  0  0  0  0
   -3.7956    1.5514   -0.8237 H   0  0  0  0  0  0  0  0  0  0  0  0
   -2.3876    1.9948    0.1880 H   0  0  0  0  0  0  0  0  0  0  0  0
    1.5550   -0.8460    1.7045 H   0  0  0  0  0  0  0  0  0  0  0  0
    2.3546    0.2448   -1.0288 H   0  0  0  0  0  0  0  0  0  0  0  0
    2.0812    1.1909    0.4650 H   0  0  0  0  0  0  0  0  0  0  0  0
    3.5343    0.0473    0.3813 H   0  0  0  0  0  0  0  0  0  0  0  0
    2.8299   -2.0960   -0.2840 H   0  0  0  0  0  0  0  0  0  0  0  0
  1  2  1  0
  2  3  2  0
  2  4  1  0
  4  5  3  0
  5  6  1  0
  6  7  1  0
  6  8  1  0
  1  9  1  0
  1 10  1  0
  1 11  1  0
  6 12  1  0
  7 13  1  0
  7 14  1  0
  7 15  1  0
  8 16  1  0
M  END
