
     RDKit          3D

 21 21  0  0  0  0  0  0  0  0999 V2000
    2.8159   -0.8839   -0.0469 C   0  0  0  0  0  0  0  0  0  0  0  0
    1.5093   -0.4594    0.5448 C   0  0  0  0  0  0  0  0  0  0  0  0
    1.3166   -0.8004    1.7064 O   0  0  0  0  0  0  0  0  0  0  0  0
    0.5246    0.3219   -0.2376 C   0  0  0  0  0  0  0  0  0  0  0  0
   -0.2910    1.3710    0.4198 C   0  0  0  0  0  0  0  0  0  0  0  0
   -0.7455    2.4745   -0.2720 O   0  0  0  0  0  0  0  0  0  0  0  0
   -0.8939    0.0565    0.0146 C   0  0  0  0  0  0  0  0  0  0  0  0
   -1.7935    0.0271   -1.2163 C   0  0  0  0  0  0  0  0  0  0  0  0
   -1.3915   -0.7875    1.1400 C   0  0  0  0  0  0  0  0  0  0  0  0
    3.5717   -0.1370    0.2935 H   0  0  0  0  0  0  0  0  0  0  0  0
    3.1024   -1.9011    0.2528 H   0  0  0  0  0  0  0  0  0  0  0  0
    2.7840   -0.7906   -1.1619 H   0  0  0  0  0  0  0  0  0  0  0  0
    0.8423    0.5538   -1.2733 H   0  0  0  0  0  0  0  0  0  0  0  0
   -0.0734    1.5533    1.4836 H   0  0  0  0  0  0  0  0  0  0  0  0
   -0.5534    2.4365   -1.2419 H   0  0  0  0  0  0  0  0  0  0  0  0
   -1.8670   -1.0334   -1.5618 H   0  0  0  0  0  0  0  0  0  0  0  0
   -2.7937    0.4319   -1.0107 H   0  0  0  0  0  0  0  0  0  0  0  0
   -1.3011    0.5956   -2.0352 H   0  0  0  0  0  0  0  0  0  0  0  0
   -2.5013   -0.5939    1.2255 H   0  0  0  0  0  0  0  0  0  0  0  0
   -0.9715   -0.5593    2.1196 H   0  0  0  0  0  0  0  0  0  0  0  0
   -1.2901   -1.8757    0.8569 H   0  0  0  0  0  0  0  0  0  0  0  0
  1  2  1  0
  2  3  2  0
  2  4  1  0
  4  5  1  0
  5  6  1  0
  5  7  1  0
  7  8  1  0
  7  9  1  0
  7  4  1  0
  1 10  1  0
  1 11  1  0
  1 12  1  0
  4 13  1  0
  5 14  1  0
  6 15  1  0
  8 16  1  0
  8 17  1  0
  8 18  1  0
  9 19  1  0
  9 20  1  0
  9 21  1  0
M  END
