
     RDKit          3D

 21 20  0  0  0  0  0  0  0  0999 V2000
    2.9508    0.3994    0.2270 C   0  0  0  0  0  0  0  0  0  0  0  0
    1.5356    0.0029    0.4018 C   0  0  0  0  0  0  0  0  0  0  0  0
    1.1877   -0.4532    1.4654 O   0  0  0  0  0  0  0  0  0  0  0  0
    0.5802    0.1579   -0.6831 C   0  0  0  0  0  0  0  0  0  0  0  0
   -0.8245   -0.2592   -0.3900 C   0  0  0  0  0  0  0  0  0  0  0  0
   -0.9822   -1.6841   -0.0061 C   0  0  0  0  0  0  0  0  0  0  0  0
   -1.5698   -0.0971   -1.5879 O   0  0  0  0  0  0  0  0  0  0  0  0
   -1.4126    0.7313    0.5866 C   0  0  0  0  0  0  0  0  0  0  0  0
   -2.7619    0.4957    0.8206 O   0  0  0  0  0  0  0  0  0  0  0  0
    3.4829   -0.4265   -0.2903 H   0  0  0  0  0  0  0  0  0  0  0  0
    3.4412    0.6558    1.1977 H   0  0  0  0  0  0  0  0  0  0  0  0
    3.0634    1.3218   -0.4031 H   0  0  0  0  0  0  0  0  0  0  0  0
    0.6423    1.2010   -1.0568 H   0  0  0  0  0  0  0  0  0  0  0  0
    0.9539   -0.4646   -1.5509 H   0  0  0  0  0  0  0  0  0  0  0  0
   -0.6332   -1.9247    1.0178 H   0  0  0  0  0  0  0  0  0  0  0  0
   -2.0849   -1.9079    0.0059 H   0  0  0  0  0  0  0  0  0  0  0  0
   -0.5520   -2.3134   -0.7829 H   0  0  0  0  0  0  0  0  0  0  0  0
   -1.7632    0.8527   -1.7623 H   0  0  0  0  0  0  0  0  0  0  0  0
   -0.8794    0.5940    1.5451 H   0  0  0  0  0  0  0  0  0  0  0  0
   -1.2042    1.7417    0.2111 H   0  0  0  0  0  0  0  0  0  0  0  0
   -3.1700    1.3764    1.0346 H   0  0  0  0  0  0  0  0  0  0  0  0
  1  2  1  0
  2  3  2  0
  2  4  1  0
  4  5  1  0
  5  6  1  0
  5  7  1  0
  5  8  1  0
  8  9  1  0
  1 10  1  0
  1 11  1  0
  1 12  1  0
  4 13  1  0
  4 14  1  0
  6 15  1  0
  6 16  1  0
  6 17  1  0
  7 18  1  0
  8 19  1  0
  8 20  1  0
  9 21  1  0
M  END
