
     RDKit          3D

 21 21  0  0  0  0  0  0  0  0999 V2000
    3.2900   -0.3458    0.3147 C   0  0  0  0  0  0  0  0  0  0  0  0
    2.0659   -0.5418   -0.4651 C   0  0  0  0  0  0  0  0  0  0  0  0
    2.1494   -1.1039   -1.6078 O   0  0  0  0  0  0  0  0  0  0  0  0
    0.7987   -0.1652   -0.0682 O   0  0  0  0  0  0  0  0  0  0  0  0
   -0.3627   -0.3705   -0.8484 C   0  0  0  0  0  0  0  0  0  0  0  0
   -1.4604   -1.0507   -0.0639 C   0  0  0  0  0  0  0  0  0  0  0  0
   -1.7845   -0.0431    0.9879 C   0  0  0  0  0  0  0  0  0  0  0  0
   -1.6596    1.2835    0.2690 C   0  0  0  0  0  0  0  0  0  0  0  0
   -0.9877    1.0146   -1.0450 C   0  0  0  0  0  0  0  0  0  0  0  0
    3.5868   -1.2272    0.9231 H   0  0  0  0  0  0  0  0  0  0  0  0
    3.2858    0.5652    0.9489 H   0  0  0  0  0  0  0  0  0  0  0  0
    4.1309   -0.1876   -0.4158 H   0  0  0  0  0  0  0  0  0  0  0  0
   -0.1543   -0.8618   -1.8061 H   0  0  0  0  0  0  0  0  0  0  0  0
   -2.3461   -1.0946   -0.7592 H   0  0  0  0  0  0  0  0  0  0  0  0
   -1.1754   -2.0355    0.3126 H   0  0  0  0  0  0  0  0  0  0  0  0
   -1.0595   -0.1406    1.8273 H   0  0  0  0  0  0  0  0  0  0  0  0
   -2.8420   -0.1776    1.3585 H   0  0  0  0  0  0  0  0  0  0  0  0
   -2.6226    1.8080    0.1699 H   0  0  0  0  0  0  0  0  0  0  0  0
   -1.0130    1.9259    0.9262 H   0  0  0  0  0  0  0  0  0  0  0  0
   -1.6748    0.9864   -1.9058 H   0  0  0  0  0  0  0  0  0  0  0  0
   -0.1652    1.7624   -1.1653 H   0  0  0  0  0  0  0  0  0  0  0  0
  1  2  1  0
  2  3  2  0
  2  4  1  0
  4  5  1  0
  5  6  1  0
  6  7  1  0
  7  8  1  0
  8  9  1  0
  9  5  1  0
  1 10  1  0
  1 11  1  0
  1 12  1  0
  5 13  1  0
  6 14  1  0
  6 15  1  0
  7 16  1  0
  7 17  1  0
  8 18  1  0
  8 19  1  0
  9 20  1  0
  9 21  1  0
M  END
