
     RDKit          3D

 19 19  0  0  0  0  0  0  0  0999 V2000
    3.1574    0.3552   -0.5155 C   0  0  0  0  0  0  0  0  0  0  0  0
    1.9886   -0.3972   -0.0046 C   0  0  0  0  0  0  0  0  0  0  0  0
    2.1899   -1.4296    0.6053 O   0  0  0  0  0  0  0  0  0  0  0  0
    0.6068    0.0565   -0.2072 C   0  0  0  0  0  0  0  0  0  0  0  0
   -0.3530   -0.8842    0.4062 C   0  0  0  0  0  0  0  0  0  0  0  0
    0.0645   -1.8631    0.9750 O   0  0  0  0  0  0  0  0  0  0  0  0
   -1.8044   -0.6402    0.3305 C   0  0  0  0  0  0  0  0  0  0  0  0
   -2.2780    0.7593    0.4714 C   0  0  0  0  0  0  0  0  0  0  0  0
   -2.4052    0.0051   -0.8570 C   0  0  0  0  0  0  0  0  0  0  0  0
    3.9810   -0.3673   -0.7462 H   0  0  0  0  0  0  0  0  0  0  0  0
    2.8914    0.9022   -1.4430 H   0  0  0  0  0  0  0  0  0  0  0  0
    3.5463    1.0444    0.2722 H   0  0  0  0  0  0  0  0  0  0  0  0
    0.4212    1.0527    0.2849 H   0  0  0  0  0  0  0  0  0  0  0  0
    0.4499    0.1530   -1.3046 H   0  0  0  0  0  0  0  0  0  0  0  0
   -2.4463   -1.4118    0.8256 H   0  0  0  0  0  0  0  0  0  0  0  0
   -1.5342    1.5499    0.5688 H   0  0  0  0  0  0  0  0  0  0  0  0
   -3.2441    0.9920    0.9643 H   0  0  0  0  0  0  0  0  0  0  0  0
   -1.8066    0.4308   -1.6698 H   0  0  0  0  0  0  0  0  0  0  0  0
   -3.4252   -0.3076   -1.1774 H   0  0  0  0  0  0  0  0  0  0  0  0
  1  2  1  0
  2  3  2  0
  2  4  1  0
  4  5  1  0
  5  6  2  0
  5  7  1  0
  7  8  1  0
  8  9  1  0
  9  7  1  0
  1 10  1  0
  1 11  1  0
  1 12  1  0
  4 13  1  0
  4 14  1  0
  7 15  1  0
  8 16  1  0
  8 17  1  0
  9 18  1  0
  9 19  1  0
M  END
