
     RDKit          3D

 21 20  0  0  0  0  0  0  0  0999 V2000
   -2.2660   -0.7718    0.3874 C   0  0  0  0  0  0  0  0  0  0  0  0
   -0.8249   -0.5645    0.6640 C   0  0  0  0  0  0  0  0  0  0  0  0
   -0.3573   -1.0837    1.6569 O   0  0  0  0  0  0  0  0  0  0  0  0
    0.0208    0.2447   -0.2317 C   0  0  0  0  0  0  0  0  0  0  0  0
   -0.5471    1.6695   -0.2740 C   0  0  0  0  0  0  0  0  0  0  0  0
   -1.8323    1.5845   -0.7520 O   0  0  0  0  0  0  0  0  0  0  0  0
    1.4505    0.3565    0.1658 C   0  0  0  0  0  0  0  0  0  0  0  0
    2.2016   -0.9353    0.2460 C   0  0  0  0  0  0  0  0  0  0  0  0
    2.2004   -1.5820   -0.9941 O   0  0  0  0  0  0  0  0  0  0  0  0
   -2.8919    0.1053    0.7152 H   0  0  0  0  0  0  0  0  0  0  0  0
   -2.4452   -0.8593   -0.7240 H   0  0  0  0  0  0  0  0  0  0  0  0
   -2.6153   -1.7149    0.8814 H   0  0  0  0  0  0  0  0  0  0  0  0
   -0.0958   -0.1940   -1.2494 H   0  0  0  0  0  0  0  0  0  0  0  0
   -0.4850    2.1180    0.7423 H   0  0  0  0  0  0  0  0  0  0  0  0
    0.1248    2.3002   -0.9114 H   0  0  0  0  0  0  0  0  0  0  0  0
   -2.3845    2.2469   -0.2640 H   0  0  0  0  0  0  0  0  0  0  0  0
    1.4739    0.8619    1.1719 H   0  0  0  0  0  0  0  0  0  0  0  0
    1.9579    0.9876   -0.5931 H   0  0  0  0  0  0  0  0  0  0  0  0
    3.2592   -0.6497    0.5319 H   0  0  0  0  0  0  0  0  0  0  0  0
    1.8305   -1.5647    1.0687 H   0  0  0  0  0  0  0  0  0  0  0  0
    2.2255   -2.5550   -0.9026 H   0  0  0  0  0  0  0  0  0  0  0  0
  1  2  1  0
  2  3  2  0
  2  4  1  0
  4  5  1  0
  5  6  1  0
  4  7  1  0
  7  8  1  0
  8  9  1  0
  1 10  1  0
  1 11  1  0
  1 12  1  0
  4 13  1  0
  5 14  1  0
  5 15  1  0
  6 16  1  0
  7 17  1  0
  7 18  1  0
  8 19  1  0
  8 20  1  0
  9 21  1  0
M  END
