
     RDKit          3D

 15 14  0  0  0  0  0  0  0  0999 V2000
   -2.6761   -0.1843    0.5610 C   0  0  0  0  0  0  0  0  0  0  0  0
   -1.4719   -0.0284   -0.2816 C   0  0  0  0  0  0  0  0  0  0  0  0
   -1.6085    0.0447   -1.5467 O   0  0  0  0  0  0  0  0  0  0  0  0
   -0.1277    0.0474    0.2521 C   0  0  0  0  0  0  0  0  0  0  0  0
    0.0267   -0.0224    1.4906 O   0  0  0  0  0  0  0  0  0  0  0  0
    1.0342    0.2003   -0.5965 C   0  0  0  0  0  0  0  0  0  0  0  0
    0.8441    0.2680   -1.8485 O   0  0  0  0  0  0  0  0  0  0  0  0
    2.4185    0.2800   -0.0723 C   0  0  0  0  0  0  0  0  0  0  0  0
    2.3863    0.1849    1.3149 O   0  0  0  0  0  0  0  0  0  0  0  0
   -3.3309   -0.9541    0.0829 H   0  0  0  0  0  0  0  0  0  0  0  0
   -3.2445    0.7572    0.5413 H   0  0  0  0  0  0  0  0  0  0  0  0
   -2.4192   -0.5369    1.5740 H   0  0  0  0  0  0  0  0  0  0  0  0
    2.8933    1.2645   -0.3072 H   0  0  0  0  0  0  0  0  0  0  0  0
    3.0149   -0.5525   -0.4642 H   0  0  0  0  0  0  0  0  0  0  0  0
    2.2605   -0.7684    1.5321 H   0  0  0  0  0  0  0  0  0  0  0  0
  1  2  1  0
  2  3  2  0
  2  4  1  0
  4  5  2  0
  4  6  1  0
  6  7  2  0
  6  8  1  0
  8  9  1  0
  1 10  1  0
  1 11  1  0
  1 12  1  0
  8 13  1  0
  8 14  1  0
  9 15  1  0
M  END
