
     RDKit          3D

 21 20  0  0  0  0  0  0  0  0999 V2000
    2.7970   -0.8051    0.2933 C   0  0  0  0  0  0  0  0  0  0  0  0
    1.9404   -0.5292   -0.8779 C   0  0  0  0  0  0  0  0  0  0  0  0
    2.3613   -0.8790   -1.9705 O   0  0  0  0  0  0  0  0  0  0  0  0
    0.6190    0.1328   -0.8481 C   0  0  0  0  0  0  0  0  0  0  0  0
    0.1795    0.5171    0.5255 C   0  0  0  0  0  0  0  0  0  0  0  0
   -1.1542    1.1867    0.5458 C   0  0  0  0  0  0  0  0  0  0  0  0
   -2.2765    0.3621    0.0055 C   0  0  0  0  0  0  0  0  0  0  0  0
   -2.5163   -0.8957    0.7061 C   0  0  0  0  0  0  0  0  0  0  0  0
   -1.8251   -1.8681    0.5094 O   0  0  0  0  0  0  0  0  0  0  0  0
    3.2062   -1.8328    0.3093 H   0  0  0  0  0  0  0  0  0  0  0  0
    2.3317   -0.6074    1.2577 H   0  0  0  0  0  0  0  0  0  0  0  0
    3.6652   -0.0840    0.2171 H   0  0  0  0  0  0  0  0  0  0  0  0
    0.7190    1.0933   -1.4356 H   0  0  0  0  0  0  0  0  0  0  0  0
   -0.1443   -0.4584   -1.4063 H   0  0  0  0  0  0  0  0  0  0  0  0
    0.2465   -0.3799    1.1692 H   0  0  0  0  0  0  0  0  0  0  0  0
    0.9232    1.2403    0.9278 H   0  0  0  0  0  0  0  0  0  0  0  0
   -1.4236    1.5579    1.5565 H   0  0  0  0  0  0  0  0  0  0  0  0
   -1.0797    2.0991   -0.0895 H   0  0  0  0  0  0  0  0  0  0  0  0
   -2.0699    0.1108   -1.0723 H   0  0  0  0  0  0  0  0  0  0  0  0
   -3.1823    1.0214   -0.0483 H   0  0  0  0  0  0  0  0  0  0  0  0
   -3.3172   -0.9820    1.4149 H   0  0  0  0  0  0  0  0  0  0  0  0
  1  2  1  0
  2  3  2  0
  2  4  1  0
  4  5  1  0
  5  6  1  0
  6  7  1  0
  7  8  1  0
  8  9  2  0
  1 10  1  0
  1 11  1  0
  1 12  1  0
  4 13  1  0
  4 14  1  0
  5 15  1  0
  5 16  1  0
  6 17  1  0
  6 18  1  0
  7 19  1  0
  7 20  1  0
  8 21  1  0
M  END
