
     RDKit          3D

 21 22  0  0  0  0  0  0  0  0999 V2000
    3.0208   -0.3545    0.5553 C   0  0  0  0  0  0  0  0  0  0  0  0
    1.9174   -0.1432   -0.4099 C   0  0  0  0  0  0  0  0  0  0  0  0
    2.0478   -0.6211   -1.5256 O   0  0  0  0  0  0  0  0  0  0  0  0
    0.6855    0.5936   -0.1278 C   0  0  0  0  0  0  0  0  0  0  0  0
   -0.1782    0.0814    0.9884 C   0  0  0  0  0  0  0  0  0  0  0  0
   -1.4032    0.2193    0.1580 C   0  0  0  0  0  0  0  0  0  0  0  0
   -2.3907   -0.9160    0.1949 C   0  0  0  0  0  0  0  0  0  0  0  0
   -1.6066    1.2472   -0.8629 C   0  0  0  0  0  0  0  0  0  0  0  0
   -0.4736    0.3271   -1.0626 C   0  0  0  0  0  0  0  0  0  0  0  0
    3.5126   -1.3224    0.3340 H   0  0  0  0  0  0  0  0  0  0  0  0
    3.7806    0.4619    0.4544 H   0  0  0  0  0  0  0  0  0  0  0  0
    2.6521   -0.4013    1.5985 H   0  0  0  0  0  0  0  0  0  0  0  0
    0.8721    1.6960    0.0011 H   0  0  0  0  0  0  0  0  0  0  0  0
   -0.1751    0.7499    1.8840 H   0  0  0  0  0  0  0  0  0  0  0  0
    0.0376   -0.9835    1.2169 H   0  0  0  0  0  0  0  0  0  0  0  0
   -3.0868   -0.8452   -0.6925 H   0  0  0  0  0  0  0  0  0  0  0  0
   -1.9262   -1.9083    0.1226 H   0  0  0  0  0  0  0  0  0  0  0  0
   -3.0145   -0.7842    1.0804 H   0  0  0  0  0  0  0  0  0  0  0  0
   -2.4568    1.1433   -1.5315 H   0  0  0  0  0  0  0  0  0  0  0  0
   -1.3161    2.3222   -0.6931 H   0  0  0  0  0  0  0  0  0  0  0  0
   -0.4984   -0.5619   -1.6825 H   0  0  0  0  0  0  0  0  0  0  0  0
  1  2  1  0
  2  3  2  0
  2  4  1  0
  4  5  1  0
  5  6  1  0
  6  7  1  0
  6  8  1  0
  8  9  1  0
  9  4  1  0
  9  6  1  0
  1 10  1  0
  1 11  1  0
  1 12  1  0
  4 13  1  0
  5 14  1  0
  5 15  1  0
  7 16  1  0
  7 17  1  0
  7 18  1  0
  8 19  1  0
  8 20  1  0
  9 21  1  0
M  END
