
     RDKit          3D

 17 17  0  0  0  0  0  0  0  0999 V2000
   -2.4556    0.5009    0.3029 C   0  0  0  0  0  0  0  0  0  0  0  0
   -1.4906   -0.1952   -0.6071 C   0  0  0  0  0  0  0  0  0  0  0  0
   -1.8637   -1.0673   -1.3820 O   0  0  0  0  0  0  0  0  0  0  0  0
   -0.0361    0.1252   -0.6266 C   0  0  0  0  0  0  0  0  0  0  0  0
    0.7808   -1.0408   -0.0540 C   0  0  0  0  0  0  0  0  0  0  0  0
    2.1162   -0.3362    0.1669 C   0  0  0  0  0  0  0  0  0  0  0  0
    1.6303    1.0126    0.6273 C   0  0  0  0  0  0  0  0  0  0  0  0
    2.3875    1.8301    1.2019 O   0  0  0  0  0  0  0  0  0  0  0  0
    0.2797    1.1431    0.3056 O   0  0  0  0  0  0  0  0  0  0  0  0
   -2.1974    1.5471    0.4798 H   0  0  0  0  0  0  0  0  0  0  0  0
   -2.5668   -0.0993    1.2185 H   0  0  0  0  0  0  0  0  0  0  0  0
   -3.4453    0.4575   -0.2166 H   0  0  0  0  0  0  0  0  0  0  0  0
    0.3324    0.3476   -1.6426 H   0  0  0  0  0  0  0  0  0  0  0  0
    0.8805   -1.8649   -0.7586 H   0  0  0  0  0  0  0  0  0  0  0  0
    0.3055   -1.3103    0.8961 H   0  0  0  0  0  0  0  0  0  0  0  0
    2.7423   -0.8265    0.9068 H   0  0  0  0  0  0  0  0  0  0  0  0
    2.6004   -0.2234   -0.8184 H   0  0  0  0  0  0  0  0  0  0  0  0
  1  2  1  0
  2  3  2  0
  2  4  1  0
  4  5  1  0
  5  6  1  0
  6  7  1  0
  7  8  2  0
  7  9  1  0
  9  4  1  0
  1 10  1  0
  1 11  1  0
  1 12  1  0
  4 13  1  0
  5 14  1  0
  5 15  1  0
  6 16  1  0
  6 17  1  0
M  END
