
     RDKit          3D

 17 16  0  0  0  0  0  0  0  0999 V2000
    3.4537   -0.3804   -0.8399 C   0  0  0  0  0  0  0  0  0  0  0  0
    2.3721   -1.4008   -0.9253 C   0  0  0  0  0  0  0  0  0  0  0  0
    2.6901   -2.5651   -1.2495 O   0  0  0  0  0  0  0  0  0  0  0  0
    1.0282   -0.9990   -0.6324 C   0  0  0  0  0  0  0  0  0  0  0  0
   -0.1329   -0.6720   -0.3903 C   0  0  0  0  0  0  0  0  0  0  0  0
   -1.5166   -0.2854   -0.1212 C   0  0  0  0  0  0  0  0  0  0  0  0
   -1.5613    0.8322    0.8394 C   0  0  0  0  0  0  0  0  0  0  0  0
   -2.9292    1.3418    1.2169 C   0  0  0  0  0  0  0  0  0  0  0  0
   -0.6170    1.3812    1.3549 O   0  0  0  0  0  0  0  0  0  0  0  0
    4.1450   -0.6608   -0.0032 H   0  0  0  0  0  0  0  0  0  0  0  0
    3.0464    0.6142   -0.5541 H   0  0  0  0  0  0  0  0  0  0  0  0
    3.9923   -0.3417   -1.7995 H   0  0  0  0  0  0  0  0  0  0  0  0
   -2.0403   -0.0516   -1.0698 H   0  0  0  0  0  0  0  0  0  0  0  0
   -2.0990   -1.1503    0.3111 H   0  0  0  0  0  0  0  0  0  0  0  0
   -3.7057    0.9867    0.5046 H   0  0  0  0  0  0  0  0  0  0  0  0
   -3.1664    0.9024    2.1882 H   0  0  0  0  0  0  0  0  0  0  0  0
   -2.9594    2.4489    1.1700 H   0  0  0  0  0  0  0  0  0  0  0  0
  1  2  1  0
  2  3  2  0
  2  4  1  0
  4  5  3  0
  5  6  1  0
  6  7  1  0
  7  8  1  0
  7  9  2  0
  1 10  1  0
  1 11  1  0
  1 12  1  0
  6 13  1  0
  6 14  1  0
  8 15  1  0
  8 16  1  0
  8 17  1  0
M  END
