
     RDKit          3D

 21 22  0  0  0  0  0  0  0  0999 V2000
    2.6042    0.0673    0.2625 C   0  0  0  0  0  0  0  0  0  0  0  0
    1.4857   -0.8161   -0.2138 C   0  0  0  0  0  0  0  0  0  0  0  0
    1.8579   -1.9241   -0.6288 O   0  0  0  0  0  0  0  0  0  0  0  0
    0.1479   -0.3442   -0.1583 C   0  0  0  0  0  0  0  0  0  0  0  0
   -0.2550    0.8984   -0.9185 C   0  0  0  0  0  0  0  0  0  0  0  0
   -1.7007    1.0430   -0.4035 C   0  0  0  0  0  0  0  0  0  0  0  0
   -1.7676   -0.1875    0.4399 C   0  0  0  0  0  0  0  0  0  0  0  0
   -1.0127   -1.2595   -0.3491 C   0  0  0  0  0  0  0  0  0  0  0  0
   -0.4528   -0.0284    1.2214 C   0  0  0  0  0  0  0  0  0  0  0  0
    3.3277    0.2328   -0.5673 H   0  0  0  0  0  0  0  0  0  0  0  0
    2.2302    1.0754    0.5460 H   0  0  0  0  0  0  0  0  0  0  0  0
    3.0809   -0.3916    1.1534 H   0  0  0  0  0  0  0  0  0  0  0  0
    0.3495    1.7727   -0.6790 H   0  0  0  0  0  0  0  0  0  0  0  0
   -0.3136    0.6678   -2.0020 H   0  0  0  0  0  0  0  0  0  0  0  0
   -2.4161    1.0800   -1.2284 H   0  0  0  0  0  0  0  0  0  0  0  0
   -1.7070    1.9369    0.2472 H   0  0  0  0  0  0  0  0  0  0  0  0
   -2.6324   -0.4604    0.9722 H   0  0  0  0  0  0  0  0  0  0  0  0
   -1.3768   -1.4253   -1.3652 H   0  0  0  0  0  0  0  0  0  0  0  0
   -0.9591   -2.1901    0.2234 H   0  0  0  0  0  0  0  0  0  0  0  0
   -0.2153    1.0270    1.4635 H   0  0  0  0  0  0  0  0  0  0  0  0
   -0.2750   -0.7743    1.9842 H   0  0  0  0  0  0  0  0  0  0  0  0
  1  2  1  0
  2  3  2  0
  2  4  1  0
  4  5  1  0
  5  6  1  0
  6  7  1  0
  7  8  1  0
  7  9  1  0
  8  4  1  0
  9  4  1  0
  1 10  1  0
  1 11  1  0
  1 12  1  0
  5 13  1  0
  5 14  1  0
  6 15  1  0
  6 16  1  0
  7 17  1  0
  8 18  1  0
  8 19  1  0
  9 20  1  0
  9 21  1  0
M  END
