
     RDKit          3D

 17 17  0  0  0  0  0  0  0  0999 V2000
   -2.2743   -0.2071   -0.3272 C   0  0  0  0  0  0  0  0  0  0  0  0
   -1.0251    0.5075   -0.6377 C   0  0  0  0  0  0  0  0  0  0  0  0
   -1.1146    1.5773   -1.2149 O   0  0  0  0  0  0  0  0  0  0  0  0
    0.3253   -0.0074   -0.2851 C   0  0  0  0  0  0  0  0  0  0  0  0
    0.5878   -1.4077   -0.6827 C   0  0  0  0  0  0  0  0  0  0  0  0
    1.5986   -1.7067   -1.2963 O   0  0  0  0  0  0  0  0  0  0  0  0
    0.6900    0.3152    1.1565 C   0  0  0  0  0  0  0  0  0  0  0  0
    1.9655    0.8275    0.5619 C   0  0  0  0  0  0  0  0  0  0  0  0
    1.3375    0.8578   -0.6897 O   0  0  0  0  0  0  0  0  0  0  0  0
   -3.0270    0.0106   -1.1197 H   0  0  0  0  0  0  0  0  0  0  0  0
   -2.6936    0.2664    0.6034 H   0  0  0  0  0  0  0  0  0  0  0  0
   -2.1622   -1.2967   -0.2216 H   0  0  0  0  0  0  0  0  0  0  0  0
   -0.0904   -2.2210   -0.4538 H   0  0  0  0  0  0  0  0  0  0  0  0
    0.0809    1.1047    1.6117 H   0  0  0  0  0  0  0  0  0  0  0  0
    0.7686   -0.5514    1.8211 H   0  0  0  0  0  0  0  0  0  0  0  0
    2.2471    1.8524    0.8424 H   0  0  0  0  0  0  0  0  0  0  0  0
    2.7860    0.0786    0.5623 H   0  0  0  0  0  0  0  0  0  0  0  0
  1  2  1  0
  2  3  2  0
  2  4  1  0
  4  5  1  0
  5  6  2  0
  4  7  1  0
  7  8  1  0
  8  9  1  0
  9  4  1  0
  1 10  1  0
  1 11  1  0
  1 12  1  0
  5 13  1  0
  7 14  1  0
  7 15  1  0
  8 16  1  0
  8 17  1  0
M  END
