
     RDKit          3D

 16 16  0  0  0  0  0  0  0  0999 V2000
    2.5151   -0.2056   -0.0108 C   0  0  0  0  0  0  0  0  0  0  0  0
    1.1125   -0.2552    0.4815 C   0  0  0  0  0  0  0  0  0  0  0  0
    0.9291   -0.4554    1.6683 O   0  0  0  0  0  0  0  0  0  0  0  0
    0.0072   -0.0644   -0.4633 C   0  0  0  0  0  0  0  0  0  0  0  0
   -1.3296   -0.6623   -0.2548 C   0  0  0  0  0  0  0  0  0  0  0  0
   -2.1003   -0.9917   -1.3700 O   0  0  0  0  0  0  0  0  0  0  0  0
   -1.1501    0.7501    0.1031 C   0  0  0  0  0  0  0  0  0  0  0  0
   -1.5581    1.7908   -0.6928 O   0  0  0  0  0  0  0  0  0  0  0  0
    2.6232    0.6532   -0.7339 H   0  0  0  0  0  0  0  0  0  0  0  0
    2.7136   -1.1298   -0.5805 H   0  0  0  0  0  0  0  0  0  0  0  0
    3.2490   -0.0122    0.7936 H   0  0  0  0  0  0  0  0  0  0  0  0
    0.2741    0.1124   -1.5279 H   0  0  0  0  0  0  0  0  0  0  0  0
   -1.3997   -1.4172    0.5551 H   0  0  0  0  0  0  0  0  0  0  0  0
   -2.8006   -1.6491   -1.1818 H   0  0  0  0  0  0  0  0  0  0  0  0
   -1.1505    0.9811    1.1871 H   0  0  0  0  0  0  0  0  0  0  0  0
   -1.9350    2.5552   -0.2115 H   0  0  0  0  0  0  0  0  0  0  0  0
  1  2  1  0
  2  3  2  0
  2  4  1  0
  4  5  1  0
  5  6  1  0
  5  7  1  0
  7  8  1  0
  7  4  1  0
  1  9  1  0
  1 10  1  0
  1 11  1  0
  4 12  1  0
  5 13  1  0
  6 14  1  0
  7 15  1  0
  8 16  1  0
M  END
