
     RDKit          3D

 19 19  0  0  0  0  0  0  0  0999 V2000
    2.5238   -0.2912    0.4746 C   0  0  0  0  0  0  0  0  0  0  0  0
    1.3017   -0.0926   -0.3562 C   0  0  0  0  0  0  0  0  0  0  0  0
    1.3415   -0.0549   -1.5768 O   0  0  0  0  0  0  0  0  0  0  0  0
    0.0211    0.0589    0.3722 C   0  0  0  0  0  0  0  0  0  0  0  0
    0.1680   -0.0097    1.7370 O   0  0  0  0  0  0  0  0  0  0  0  0
   -0.9560   -1.0012   -0.1476 C   0  0  0  0  0  0  0  0  0  0  0  0
   -2.2682   -0.2863    0.0068 C   0  0  0  0  0  0  0  0  0  0  0  0
   -2.0129    1.0257    0.3172 O   0  0  0  0  0  0  0  0  0  0  0  0
   -0.7136    1.3223   -0.0134 C   0  0  0  0  0  0  0  0  0  0  0  0
    2.6080   -1.3917    0.6499 H   0  0  0  0  0  0  0  0  0  0  0  0
    2.3884    0.1647    1.4785 H   0  0  0  0  0  0  0  0  0  0  0  0
    3.4182    0.0975   -0.0522 H   0  0  0  0  0  0  0  0  0  0  0  0
    0.2786    0.9285    2.0678 H   0  0  0  0  0  0  0  0  0  0  0  0
   -0.6749   -1.1767   -1.2044 H   0  0  0  0  0  0  0  0  0  0  0  0
   -0.8475   -1.8897    0.4801 H   0  0  0  0  0  0  0  0  0  0  0  0
   -2.7878   -0.7368    0.8976 H   0  0  0  0  0  0  0  0  0  0  0  0
   -2.8958   -0.3165   -0.9030 H   0  0  0  0  0  0  0  0  0  0  0  0
   -0.3233    2.1578    0.5668 H   0  0  0  0  0  0  0  0  0  0  0  0
   -0.5693    1.4920   -1.0992 H   0  0  0  0  0  0  0  0  0  0  0  0
  1  2  1  0
  2  3  2  0
  2  4  1  0
  4  5  1  0
  4  6  1  0
  6  7  1  0
  7  8  1  0
  8  9  1  0
  9  4  1  0
  1 10  1  0
  1 11  1  0
  1 12  1  0
  5 13  1  0
  6 14  1  0
  6 15  1  0
  7 16  1  0
  7 17  1  0
  9 18  1  0
  9 19  1  0
M  END
