
     RDKit          3D

 21 21  0  0  0  0  0  0  0  0999 V2000
    2.8855   -0.0836    0.1164 C   0  0  0  0  0  0  0  0  0  0  0  0
    1.6004   -0.7711   -0.1625 C   0  0  0  0  0  0  0  0  0  0  0  0
    1.6178   -1.8057   -0.7962 O   0  0  0  0  0  0  0  0  0  0  0  0
    0.2935   -0.2359    0.3078 C   0  0  0  0  0  0  0  0  0  0  0  0
    0.1261    1.1149   -0.3007 C   0  0  0  0  0  0  0  0  0  0  0  0
   -1.2334    1.6349   -0.2881 C   0  0  0  0  0  0  0  0  0  0  0  0
   -2.2514    0.8089   -0.2531 C   0  0  0  0  0  0  0  0  0  0  0  0
   -2.1405   -0.6615   -0.2242 C   0  0  0  0  0  0  0  0  0  0  0  0
   -0.8031   -1.1929    0.0992 C   0  0  0  0  0  0  0  0  0  0  0  0
    2.8094    1.0185    0.0750 H   0  0  0  0  0  0  0  0  0  0  0  0
    3.2671   -0.3392    1.1391 H   0  0  0  0  0  0  0  0  0  0  0  0
    3.6486   -0.3947   -0.6444 H   0  0  0  0  0  0  0  0  0  0  0  0
    0.4175   -0.0799    1.4200 H   0  0  0  0  0  0  0  0  0  0  0  0
    0.4507    1.0440   -1.3776 H   0  0  0  0  0  0  0  0  0  0  0  0
    0.7820    1.8396    0.2409 H   0  0  0  0  0  0  0  0  0  0  0  0
   -1.4033    2.6949   -0.3073 H   0  0  0  0  0  0  0  0  0  0  0  0
   -3.2543    1.2355   -0.2446 H   0  0  0  0  0  0  0  0  0  0  0  0
   -2.5065   -1.0204   -1.2318 H   0  0  0  0  0  0  0  0  0  0  0  0
   -2.9213   -1.0289    0.4911 H   0  0  0  0  0  0  0  0  0  0  0  0
   -0.4908   -1.8988   -0.7270 H   0  0  0  0  0  0  0  0  0  0  0  0
   -0.8939   -1.8785    0.9926 H   0  0  0  0  0  0  0  0  0  0  0  0
  1  2  1  0
  2  3  2  0
  2  4  1  0
  4  5  1  0
  5  6  1  0
  6  7  2  0
  7  8  1  0
  8  9  1  0
  9  4  1  0
  1 10  1  0
  1 11  1  0
  1 12  1  0
  4 13  1  0
  5 14  1  0
  5 15  1  0
  6 16  1  0
  7 17  1  0
  8 18  1  0
  8 19  1  0
  9 20  1  0
  9 21  1  0
M  END
