
     RDKit          3D

 18 18  0  0  0  0  0  0  0  0999 V2000
    2.6490   -0.8686   -0.4497 C   0  0  0  0  0  0  0  0  0  0  0  0
    1.5713    0.0023    0.0635 C   0  0  0  0  0  0  0  0  0  0  0  0
    1.8499    0.8049    0.9377 O   0  0  0  0  0  0  0  0  0  0  0  0
    0.1761   -0.1065   -0.4832 C   0  0  0  0  0  0  0  0  0  0  0  0
   -0.5363    1.2294   -0.5573 C   0  0  0  0  0  0  0  0  0  0  0  0
   -0.9572    0.1479    0.4513 C   0  0  0  0  0  0  0  0  0  0  0  0
   -2.3113   -0.4290    0.2306 C   0  0  0  0  0  0  0  0  0  0  0  0
   -0.6351    0.3773    1.7909 O   0  0  0  0  0  0  0  0  0  0  0  0
    2.2472   -1.8806   -0.6881 H   0  0  0  0  0  0  0  0  0  0  0  0
    3.0193   -0.4517   -1.4032 H   0  0  0  0  0  0  0  0  0  0  0  0
    3.4715   -0.9313    0.2638 H   0  0  0  0  0  0  0  0  0  0  0  0
   -0.0105   -0.8487   -1.2694 H   0  0  0  0  0  0  0  0  0  0  0  0
   -0.0765    2.1100   -0.1028 H   0  0  0  0  0  0  0  0  0  0  0  0
   -1.1947    1.3532   -1.4556 H   0  0  0  0  0  0  0  0  0  0  0  0
   -2.6433   -0.2149   -0.8058 H   0  0  0  0  0  0  0  0  0  0  0  0
   -3.0224    0.1125    0.9192 H   0  0  0  0  0  0  0  0  0  0  0  0
   -2.3762   -1.5157    0.4272 H   0  0  0  0  0  0  0  0  0  0  0  0
   -1.2208    1.1096    2.1308 H   0  0  0  0  0  0  0  0  0  0  0  0
  1  2  1  0
  2  3  2  0
  2  4  1  0
  4  5  1  0
  5  6  1  0
  6  7  1  0
  6  8  1  0
  6  4  1  0
  1  9  1  0
  1 10  1  0
  1 11  1  0
  4 12  1  0
  5 13  1  0
  5 14  1  0
  7 15  1  0
  7 16  1  0
  7 17  1  0
  8 18  1  0
M  END
