
     RDKit          3D

 21 20  0  0  0  0  0  0  0  0999 V2000
    3.4218    0.7444    0.5916 C   0  0  0  0  0  0  0  0  0  0  0  0
    2.2069    0.3514   -0.1721 C   0  0  0  0  0  0  0  0  0  0  0  0
    2.2467    0.3035   -1.4291 O   0  0  0  0  0  0  0  0  0  0  0  0
    1.0024    0.0258    0.4206 O   0  0  0  0  0  0  0  0  0  0  0  0
   -0.1574   -0.3482   -0.2807 C   0  0  0  0  0  0  0  0  0  0  0  0
   -0.6937   -1.6866    0.0627 C   0  0  0  0  0  0  0  0  0  0  0  0
   -1.2193    0.6973    0.0269 C   0  0  0  0  0  0  0  0  0  0  0  0
   -2.4821    0.3440   -0.6891 C   0  0  0  0  0  0  0  0  0  0  0  0
   -1.4932    0.7567    1.3904 O   0  0  0  0  0  0  0  0  0  0  0  0
    3.9814    1.5598    0.0912 H   0  0  0  0  0  0  0  0  0  0  0  0
    4.0896   -0.1318    0.6477 H   0  0  0  0  0  0  0  0  0  0  0  0
    3.1724    1.1014    1.6111 H   0  0  0  0  0  0  0  0  0  0  0  0
    0.0953   -0.3251   -1.3605 H   0  0  0  0  0  0  0  0  0  0  0  0
   -0.4345   -2.0387    1.0804 H   0  0  0  0  0  0  0  0  0  0  0  0
   -0.3796   -2.4320   -0.7132 H   0  0  0  0  0  0  0  0  0  0  0  0
   -1.8017   -1.6483    0.0170 H   0  0  0  0  0  0  0  0  0  0  0  0
   -0.8398    1.6937   -0.3414 H   0  0  0  0  0  0  0  0  0  0  0  0
   -2.9523    1.2684   -1.0913 H   0  0  0  0  0  0  0  0  0  0  0  0
   -2.2523   -0.3682   -1.5032 H   0  0  0  0  0  0  0  0  0  0  0  0
   -3.1874   -0.1542    0.0041 H   0  0  0  0  0  0  0  0  0  0  0  0
   -2.3234    0.2868    1.6369 H   0  0  0  0  0  0  0  0  0  0  0  0
  1  2  1  0
  2  3  2  0
  2  4  1  0
  4  5  1  0
  5  6  1  0
  5  7  1  0
  7  8  1  0
  7  9  1  0
  1 10  1  0
  1 11  1  0
  1 12  1  0
  5 13  1  0
  6 14  1  0
  6 15  1  0
  6 16  1  0
  7 17  1  0
  8 18  1  0
  8 19  1  0
  8 20  1  0
  9 21  1  0
M  END
