
     RDKit          3D

 21 22  0  0  0  0  0  0  0  0999 V2000
   -2.8216    0.5615   -0.3148 C   0  0  0  0  0  0  0  0  0  0  0  0
   -1.9436   -0.5146   -0.8394 C   0  0  0  0  0  0  0  0  0  0  0  0
   -2.3632   -1.1377   -1.7989 O   0  0  0  0  0  0  0  0  0  0  0  0
   -0.6297   -0.8559   -0.2741 C   0  0  0  0  0  0  0  0  0  0  0  0
   -0.6378   -0.9393    1.2535 C   0  0  0  0  0  0  0  0  0  0  0  0
    0.1585    0.1358    0.4988 C   0  0  0  0  0  0  0  0  0  0  0  0
    1.6373   -0.0171    0.5811 C   0  0  0  0  0  0  0  0  0  0  0  0
    2.4043    0.0081   -0.7249 C   0  0  0  0  0  0  0  0  0  0  0  0
    2.5743    1.0872    0.2994 C   0  0  0  0  0  0  0  0  0  0  0  0
   -3.7162    0.0961    0.1736 H   0  0  0  0  0  0  0  0  0  0  0  0
   -2.3066    1.2328    0.4027 H   0  0  0  0  0  0  0  0  0  0  0  0
   -3.2452    1.1968   -1.1397 H   0  0  0  0  0  0  0  0  0  0  0  0
   -0.0805   -1.6710   -0.7526 H   0  0  0  0  0  0  0  0  0  0  0  0
   -1.5212   -0.6154    1.8035 H   0  0  0  0  0  0  0  0  0  0  0  0
   -0.0740   -1.7534    1.7403 H   0  0  0  0  0  0  0  0  0  0  0  0
   -0.2710    1.1803    0.5120 H   0  0  0  0  0  0  0  0  0  0  0  0
    2.0081   -0.7897    1.2861 H   0  0  0  0  0  0  0  0  0  0  0  0
    3.1749   -0.7400   -0.9046 H   0  0  0  0  0  0  0  0  0  0  0  0
    1.8754    0.3397   -1.6446 H   0  0  0  0  0  0  0  0  0  0  0  0
    2.2210    2.1137    0.0638 H   0  0  0  0  0  0  0  0  0  0  0  0
    3.5567    1.0820    0.8073 H   0  0  0  0  0  0  0  0  0  0  0  0
  1  2  1  0
  2  3  2  0
  2  4  1  0
  4  5  1  0
  5  6  1  0
  6  7  1  0
  7  8  1  0
  8  9  1  0
  6  4  1  0
  9  7  1  0
  1 10  1  0
  1 11  1  0
  1 12  1  0
  4 13  1  0
  5 14  1  0
  5 15  1  0
  6 16  1  0
  7 17  1  0
  8 18  1  0
  8 19  1  0
  9 20  1  0
  9 21  1  0
M  END
