
     RDKit          3D

 17 18  0  0  0  0  0  0  0  0999 V2000
    2.4265    0.0805   -0.4857 C   0  0  0  0  0  0  0  0  0  0  0  0
    1.3363   -0.3309    0.4632 C   0  0  0  0  0  0  0  0  0  0  0  0
    1.7042   -0.9225    1.4603 O   0  0  0  0  0  0  0  0  0  0  0  0
   -0.0127   -0.0276    0.1720 C   0  0  0  0  0  0  0  0  0  0  0  0
   -0.8350    0.7477    1.1762 C   0  0  0  0  0  0  0  0  0  0  0  0
   -1.9756    0.8855    0.4940 C   0  0  0  0  0  0  0  0  0  0  0  0
   -1.6349    0.1821   -0.7848 C   0  0  0  0  0  0  0  0  0  0  0  0
   -0.9775   -1.0839   -0.2859 C   0  0  0  0  0  0  0  0  0  0  0  0
   -0.3388    0.6556   -0.9983 O   0  0  0  0  0  0  0  0  0  0  0  0
    2.8984   -0.8156   -0.9491 H   0  0  0  0  0  0  0  0  0  0  0  0
    2.0537    0.7936   -1.2493 H   0  0  0  0  0  0  0  0  0  0  0  0
    3.2341    0.5484    0.1382 H   0  0  0  0  0  0  0  0  0  0  0  0
   -0.5541    1.0851    2.1665 H   0  0  0  0  0  0  0  0  0  0  0  0
   -2.9108    1.3625    0.7493 H   0  0  0  0  0  0  0  0  0  0  0  0
   -2.3332    0.1522   -1.5717 H   0  0  0  0  0  0  0  0  0  0  0  0
   -1.4937   -1.5739    0.5694 H   0  0  0  0  0  0  0  0  0  0  0  0
   -0.5867   -1.7388   -1.0642 H   0  0  0  0  0  0  0  0  0  0  0  0
  1  2  1  0
  2  3  2  0
  2  4  1  0
  4  5  1  0
  5  6  2  0
  6  7  1  0
  7  8  1  0
  7  9  1  0
  8  4  1  0
  9  4  1  0
  1 10  1  0
  1 11  1  0
  1 12  1  0
  5 13  1  0
  6 14  1  0
  7 15  1  0
  8 16  1  0
  8 17  1  0
M  END
