
     RDKit          3D

 17 18  0  0  0  0  0  0  0  0999 V2000
    2.9552   -0.2699    0.2994 C   0  0  0  0  0  0  0  0  0  0  0  0
    1.5574   -0.3939   -0.1519 C   0  0  0  0  0  0  0  0  0  0  0  0
    1.2854   -1.2162   -1.0824 O   0  0  0  0  0  0  0  0  0  0  0  0
    0.5006    0.3229    0.3624 O   0  0  0  0  0  0  0  0  0  0  0  0
   -0.8276    0.1825   -0.0904 C   0  0  0  0  0  0  0  0  0  0  0  0
   -1.5309   -1.1216   -0.0078 C   0  0  0  0  0  0  0  0  0  0  0  0
   -2.6417   -0.4457    0.5476 O   0  0  0  0  0  0  0  0  0  0  0  0
   -1.9547    0.7590    0.6366 C   0  0  0  0  0  0  0  0  0  0  0  0
   -1.4781    1.3650   -0.6610 C   0  0  0  0  0  0  0  0  0  0  0  0
    3.2359    0.7846    0.5410 H   0  0  0  0  0  0  0  0  0  0  0  0
    3.6275   -0.5747   -0.5286 H   0  0  0  0  0  0  0  0  0  0  0  0
    3.1753   -0.8680    1.2018 H   0  0  0  0  0  0  0  0  0  0  0  0
   -1.1495   -1.8846    0.6673 H   0  0  0  0  0  0  0  0  0  0  0  0
   -1.7994   -1.4831   -1.0370 H   0  0  0  0  0  0  0  0  0  0  0  0
   -1.8819    1.3036    1.5736 H   0  0  0  0  0  0  0  0  0  0  0  0
   -0.9892    2.3522   -0.5518 H   0  0  0  0  0  0  0  0  0  0  0  0
   -2.0844    1.1879   -1.5901 H   0  0  0  0  0  0  0  0  0  0  0  0
  1  2  1  0
  2  3  2  0
  2  4  1  0
  4  5  1  0
  5  6  1  0
  6  7  1  0
  7  8  1  0
  8  9  1  0
  8  5  1  0
  9  5  1  0
  1 10  1  0
  1 11  1  0
  1 12  1  0
  6 13  1  0
  6 14  1  0
  8 15  1  0
  9 16  1  0
  9 17  1  0
M  END
