
     RDKit          3D

 15 14  0  0  0  0  0  0  0  0999 V2000
    1.9582   -0.3633   -0.5635 C   0  0  0  0  0  0  0  0  0  0  0  0
    0.5101   -0.2518   -0.7889 C   0  0  0  0  0  0  0  0  0  0  0  0
    0.0943   -0.4390   -1.9202 O   0  0  0  0  0  0  0  0  0  0  0  0
   -0.4675    0.0777    0.2955 C   0  0  0  0  0  0  0  0  0  0  0  0
    0.2050    0.2524    1.5003 O   0  0  0  0  0  0  0  0  0  0  0  0
   -1.2110    1.3240   -0.0757 C   0  0  0  0  0  0  0  0  0  0  0  0
   -1.8707    1.4271   -1.0738 O   0  0  0  0  0  0  0  0  0  0  0  0
   -1.4275   -1.0434    0.4382 C   0  0  0  0  0  0  0  0  0  0  0  0
   -1.4927   -1.6154    1.5076 O   0  0  0  0  0  0  0  0  0  0  0  0
    2.3435    0.4213    0.1427 H   0  0  0  0  0  0  0  0  0  0  0  0
    2.2253   -1.3951   -0.1996 H   0  0  0  0  0  0  0  0  0  0  0  0
    2.5165   -0.1957   -1.5092 H   0  0  0  0  0  0  0  0  0  0  0  0
   -0.1950    0.9572    2.0579 H   0  0  0  0  0  0  0  0  0  0  0  0
   -1.1441    2.1693    0.5961 H   0  0  0  0  0  0  0  0  0  0  0  0
   -2.0445   -1.3254   -0.4073 H   0  0  0  0  0  0  0  0  0  0  0  0
  1  2  1  0
  2  3  2  0
  2  4  1  0
  4  5  1  0
  4  6  1  0
  6  7  2  0
  4  8  1  0
  8  9  2  0
  1 10  1  0
  1 11  1  0
  1 12  1  0
  5 13  1  0
  6 14  1  0
  8 15  1  0
M  END
