
     RDKit          3D

 17 17  0  0  0  0  0  0  0  0999 V2000
    2.8666    0.0191    0.2588 C   0  0  0  0  0  0  0  0  0  0  0  0
    1.4590    0.2707    0.6603 C   0  0  0  0  0  0  0  0  0  0  0  0
    1.2528    0.5172    1.8772 O   0  0  0  0  0  0  0  0  0  0  0  0
    0.3564    0.2368   -0.3026 C   0  0  0  0  0  0  0  0  0  0  0  0
    0.6575   -0.0190   -1.5055 O   0  0  0  0  0  0  0  0  0  0  0  0
   -1.0375    0.4726    0.0219 C   0  0  0  0  0  0  0  0  0  0  0  0
   -1.7189   -0.4043    0.9980 C   0  0  0  0  0  0  0  0  0  0  0  0
   -2.7007   -0.7238    0.0387 O   0  0  0  0  0  0  0  0  0  0  0  0
   -1.9892   -0.1514   -0.9879 C   0  0  0  0  0  0  0  0  0  0  0  0
    3.5286    0.7666    0.7123 H   0  0  0  0  0  0  0  0  0  0  0  0
    2.9281    0.0032   -0.8537 H   0  0  0  0  0  0  0  0  0  0  0  0
    3.2181   -0.9861    0.5961 H   0  0  0  0  0  0  0  0  0  0  0  0
   -1.2466    1.5375    0.2074 H   0  0  0  0  0  0  0  0  0  0  0  0
   -2.2299    0.1199    1.8455 H   0  0  0  0  0  0  0  0  0  0  0  0
   -1.2395   -1.3168    1.3317 H   0  0  0  0  0  0  0  0  0  0  0  0
   -1.4944   -0.9072   -1.6295 H   0  0  0  0  0  0  0  0  0  0  0  0
   -2.6105    0.5649   -1.5456 H   0  0  0  0  0  0  0  0  0  0  0  0
  1  2  1  0
  2  3  2  0
  2  4  1  0
  4  5  2  0
  4  6  1  0
  6  7  1  0
  7  8  1  0
  8  9  1  0
  9  6  1  0
  1 10  1  0
  1 11  1  0
  1 12  1  0
  6 13  1  0
  7 14  1  0
  7 15  1  0
  9 16  1  0
  9 17  1  0
M  END
