
     RDKit          3D

 19 18  0  0  0  0  0  0  0  0999 V2000
    4.0160    0.5850    0.1472 C   0  0  0  0  0  0  0  0  0  0  0  0
    2.7752    0.7050    0.9590 C   0  0  0  0  0  0  0  0  0  0  0  0
    2.7997    1.2889    2.0721 O   0  0  0  0  0  0  0  0  0  0  0  0
    1.5718    0.1257    0.4066 C   0  0  0  0  0  0  0  0  0  0  0  0
    0.5552   -0.3422   -0.0470 C   0  0  0  0  0  0  0  0  0  0  0  0
   -0.6631   -0.9306   -0.5996 C   0  0  0  0  0  0  0  0  0  0  0  0
   -1.8300   -0.0258   -0.2641 C   0  0  0  0  0  0  0  0  0  0  0  0
   -3.1283   -0.5480   -0.7913 C   0  0  0  0  0  0  0  0  0  0  0  0
   -4.1289    0.3520   -0.4305 O   0  0  0  0  0  0  0  0  0  0  0  0
    3.8018    1.0023   -0.8579 H   0  0  0  0  0  0  0  0  0  0  0  0
    4.8473    1.1629    0.5783 H   0  0  0  0  0  0  0  0  0  0  0  0
    4.3308   -0.4835    0.0301 H   0  0  0  0  0  0  0  0  0  0  0  0
   -0.5332   -1.1118   -1.6631 H   0  0  0  0  0  0  0  0  0  0  0  0
   -0.8519   -1.8914   -0.0501 H   0  0  0  0  0  0  0  0  0  0  0  0
   -1.8839    0.0205    0.8429 H   0  0  0  0  0  0  0  0  0  0  0  0
   -1.5741    0.9801   -0.6160 H   0  0  0  0  0  0  0  0  0  0  0  0
   -3.2902   -1.5547   -0.3178 H   0  0  0  0  0  0  0  0  0  0  0  0
   -3.0629   -0.6121   -1.8879 H   0  0  0  0  0  0  0  0  0  0  0  0
   -3.7513    1.2777   -0.3583 H   0  0  0  0  0  0  0  0  0  0  0  0
  1  2  1  0
  2  3  2  0
  2  4  1  0
  4  5  3  0
  5  6  1  0
  6  7  1  0
  7  8  1  0
  8  9  1  0
  1 10  1  0
  1 11  1  0
  1 12  1  0
  6 13  1  0
  6 14  1  0
  7 15  1  0
  7 16  1  0
  8 17  1  0
  8 18  1  0
  9 19  1  0
M  END
