
     RDKit          3D

 19 19  0  0  0  0  0  0  0  0999 V2000
   -2.6027   -0.5933    0.1748 C   0  0  0  0  0  0  0  0  0  0  0  0
   -1.2018   -1.0664    0.4025 C   0  0  0  0  0  0  0  0  0  0  0  0
   -0.9477   -2.2478    0.2931 O   0  0  0  0  0  0  0  0  0  0  0  0
   -0.1757   -0.0783    0.7529 C   0  0  0  0  0  0  0  0  0  0  0  0
    0.0215    1.0109   -0.3102 C   0  0  0  0  0  0  0  0  0  0  0  0
    1.4806    0.9963    0.1028 C   0  0  0  0  0  0  0  0  0  0  0  0
    2.3883    1.1089   -0.9399 O   0  0  0  0  0  0  0  0  0  0  0  0
    1.2512   -0.4604    0.4679 C   0  0  0  0  0  0  0  0  0  0  0  0
    1.3317   -1.2229   -0.6895 O   0  0  0  0  0  0  0  0  0  0  0  0
   -2.6975    0.4939    0.3754 H   0  0  0  0  0  0  0  0  0  0  0  0
   -3.3288   -1.0930    0.8469 H   0  0  0  0  0  0  0  0  0  0  0  0
   -2.8375   -0.7441   -0.9035 H   0  0  0  0  0  0  0  0  0  0  0  0
   -0.3431    0.3826    1.7516 H   0  0  0  0  0  0  0  0  0  0  0  0
   -0.5214    1.9402   -0.1180 H   0  0  0  0  0  0  0  0  0  0  0  0
   -0.1079    0.5773   -1.3210 H   0  0  0  0  0  0  0  0  0  0  0  0
    1.6267    1.6804    0.9541 H   0  0  0  0  0  0  0  0  0  0  0  0
    2.7560    2.0317   -0.9495 H   0  0  0  0  0  0  0  0  0  0  0  0
    1.8416   -0.8289    1.3242 H   0  0  0  0  0  0  0  0  0  0  0  0
    2.0666   -1.8873   -0.6673 H   0  0  0  0  0  0  0  0  0  0  0  0
  1  2  1  0
  2  3  2  0
  2  4  1  0
  4  5  1  0
  5  6  1  0
  6  7  1  0
  6  8  1  0
  8  9  1  0
  8  4  1  0
  1 10  1  0
  1 11  1  0
  1 12  1  0
  4 13  1  0
  5 14  1  0
  5 15  1  0
  6 16  1  0
  7 17  1  0
  8 18  1  0
  9 19  1  0
M  END
