
     RDKit          3D

 19 19  0  0  0  0  0  0  0  0999 V2000
    2.8181    0.0862    0.6820 C   0  0  0  0  0  0  0  0  0  0  0  0
    1.6487   -0.4030   -0.0607 C   0  0  0  0  0  0  0  0  0  0  0  0
    1.7320   -1.0806   -1.1271 O   0  0  0  0  0  0  0  0  0  0  0  0
    0.3697   -0.1318    0.3935 O   0  0  0  0  0  0  0  0  0  0  0  0
   -0.7611   -0.5964   -0.3115 C   0  0  0  0  0  0  0  0  0  0  0  0
   -1.6089   -1.5163    0.5497 C   0  0  0  0  0  0  0  0  0  0  0  0
   -1.5650    0.6030   -0.7328 C   0  0  0  0  0  0  0  0  0  0  0  0
   -0.9342    1.9434   -0.4402 C   0  0  0  0  0  0  0  0  0  0  0  0
   -2.0657    1.4682    0.2191 O   0  0  0  0  0  0  0  0  0  0  0  0
    2.5014    0.9327    1.3310 H   0  0  0  0  0  0  0  0  0  0  0  0
    3.5205    0.5301   -0.0644 H   0  0  0  0  0  0  0  0  0  0  0  0
    3.3205   -0.6870    1.2886 H   0  0  0  0  0  0  0  0  0  0  0  0
   -0.4835   -1.1705   -1.2194 H   0  0  0  0  0  0  0  0  0  0  0  0
   -2.2370   -0.9433    1.2662 H   0  0  0  0  0  0  0  0  0  0  0  0
   -2.2440   -2.1152   -0.1438 H   0  0  0  0  0  0  0  0  0  0  0  0
   -0.9954   -2.2113    1.1228 H   0  0  0  0  0  0  0  0  0  0  0  0
   -2.0363    0.5637   -1.7420 H   0  0  0  0  0  0  0  0  0  0  0  0
   -1.0104    2.7696   -1.1510 H   0  0  0  0  0  0  0  0  0  0  0  0
    0.0306    1.9583    0.1402 H   0  0  0  0  0  0  0  0  0  0  0  0
  1  2  1  0
  2  3  2  0
  2  4  1  0
  4  5  1  0
  5  6  1  0
  5  7  1  0
  7  8  1  0
  8  9  1  0
  9  7  1  0
  1 10  1  0
  1 11  1  0
  1 12  1  0
  5 13  1  0
  6 14  1  0
  6 15  1  0
  6 16  1  0
  7 17  1  0
  8 18  1  0
  8 19  1  0
M  END
