
     RDKit          3D

 17 19  0  0  0  0  0  0  0  0999 V2000
    2.1970    0.3504    0.5587 C   0  0  0  0  0  0  0  0  0  0  0  0
    1.2523   -0.1202   -0.4583 C   0  0  0  0  0  0  0  0  0  0  0  0
    1.6305   -0.1824   -1.6168 O   0  0  0  0  0  0  0  0  0  0  0  0
   -0.1460   -0.5314   -0.1797 C   0  0  0  0  0  0  0  0  0  0  0  0
   -1.0307   -0.9913   -1.2513 C   0  0  0  0  0  0  0  0  0  0  0  0
   -1.1975    0.4214   -0.7736 C   0  0  0  0  0  0  0  0  0  0  0  0
   -1.6544    0.6926    0.6290 C   0  0  0  0  0  0  0  0  0  0  0  0
   -0.7408    1.0249    1.6112 O   0  0  0  0  0  0  0  0  0  0  0  0
   -0.7518   -0.2718    1.1568 C   0  0  0  0  0  0  0  0  0  0  0  0
    2.4781    1.4094    0.3043 H   0  0  0  0  0  0  0  0  0  0  0  0
    1.8574    0.2611    1.5879 H   0  0  0  0  0  0  0  0  0  0  0  0
    3.1453   -0.2488    0.4294 H   0  0  0  0  0  0  0  0  0  0  0  0
   -0.5734   -1.0869   -2.2562 H   0  0  0  0  0  0  0  0  0  0  0  0
   -1.8642   -1.6994   -0.9946 H   0  0  0  0  0  0  0  0  0  0  0  0
   -0.8577    1.2347   -1.4122 H   0  0  0  0  0  0  0  0  0  0  0  0
   -2.7057    0.8517    0.8603 H   0  0  0  0  0  0  0  0  0  0  0  0
   -1.0384   -1.1141    1.8050 H   0  0  0  0  0  0  0  0  0  0  0  0
  1  2  1  0
  2  3  2  0
  2  4  1  0
  4  5  1  0
  5  6  1  0
  6  7  1  0
  7  8  1  0
  8  9  1  0
  6  4  1  0
  9  7  1  0
  9  4  1  0
  1 10  1  0
  1 11  1  0
  1 12  1  0
  5 13  1  0
  5 14  1  0
  6 15  1  0
  7 16  1  0
  9 17  1  0
M  END
