
     RDKit          3D

 16 16  0  0  0  0  0  0  0  0999 V2000
    2.4765    0.3140   -0.1612 C   0  0  0  0  0  0  0  0  0  0  0  0
    1.3670   -0.5639    0.2639 C   0  0  0  0  0  0  0  0  0  0  0  0
    1.4414   -1.7788    0.2568 O   0  0  0  0  0  0  0  0  0  0  0  0
    0.1049    0.0966    0.7197 C   0  0  0  0  0  0  0  0  0  0  0  0
   -0.8177   -0.8426    1.0767 O   0  0  0  0  0  0  0  0  0  0  0  0
   -1.9709   -0.6485    0.3577 C   0  0  0  0  0  0  0  0  0  0  0  0
   -1.6824    0.4938   -0.5658 C   0  0  0  0  0  0  0  0  0  0  0  0
   -0.3800    0.8201   -0.3544 O   0  0  0  0  0  0  0  0  0  0  0  0
    3.1277    0.5522    0.7274 H   0  0  0  0  0  0  0  0  0  0  0  0
    3.0919   -0.2019   -0.9306 H   0  0  0  0  0  0  0  0  0  0  0  0
    2.0703    1.2722   -0.5427 H   0  0  0  0  0  0  0  0  0  0  0  0
    0.3191    0.8203    1.5341 H   0  0  0  0  0  0  0  0  0  0  0  0
   -2.2029   -1.5842   -0.1889 H   0  0  0  0  0  0  0  0  0  0  0  0
   -2.7721   -0.3628    1.0618 H   0  0  0  0  0  0  0  0  0  0  0  0
   -2.3213    1.3779   -0.3346 H   0  0  0  0  0  0  0  0  0  0  0  0
   -1.8514    0.2356   -1.6449 H   0  0  0  0  0  0  0  0  0  0  0  0
  1  2  1  0
  2  3  2  0
  2  4  1  0
  4  5  1  0
  5  6  1  0
  6  7  1  0
  7  8  1  0
  8  4  1  0
  1  9  1  0
  1 10  1  0
  1 11  1  0
  4 12  1  0
  6 13  1  0
  6 14  1  0
  7 15  1  0
  7 16  1  0
M  END
