
     RDKit          3D

 25 24  0  0  0  0  0  0  0  0999 V2000
    3.6768    0.2223   -0.2470 C   0  0  0  0  0  0  0  0  0  0  0  0
    2.4105   -0.5458    0.0462 C   0  0  0  0  0  0  0  0  0  0  0  0
    2.4370   -1.6958    0.3882 O   0  0  0  0  0  0  0  0  0  0  0  0
    1.1423    0.2142   -0.1169 C   0  0  0  0  0  0  0  0  0  0  0  0
    0.0120   -0.7260    0.2208 C   0  0  0  0  0  0  0  0  0  0  0  0
   -1.3449   -0.0535    0.0883 C   0  0  0  0  0  0  0  0  0  0  0  0
   -2.3814   -1.0956    0.4517 C   0  0  0  0  0  0  0  0  0  0  0  0
   -1.5282    0.4222   -1.3440 C   0  0  0  0  0  0  0  0  0  0  0  0
   -1.4347    1.1581    0.9733 C   0  0  0  0  0  0  0  0  0  0  0  0
    3.8420    0.8695    0.6408 H   0  0  0  0  0  0  0  0  0  0  0  0
    4.4667   -0.5204   -0.3784 H   0  0  0  0  0  0  0  0  0  0  0  0
    3.4619    0.8067   -1.1680 H   0  0  0  0  0  0  0  0  0  0  0  0
    1.0285    0.5951   -1.1526 H   0  0  0  0  0  0  0  0  0  0  0  0
    1.1077    1.0538    0.6335 H   0  0  0  0  0  0  0  0  0  0  0  0
    0.1361   -1.0446    1.2762 H   0  0  0  0  0  0  0  0  0  0  0  0
    0.0369   -1.6269   -0.3960 H   0  0  0  0  0  0  0  0  0  0  0  0
   -3.2898   -0.6543    0.8895 H   0  0  0  0  0  0  0  0  0  0  0  0
   -2.5873   -1.7110   -0.4497 H   0  0  0  0  0  0  0  0  0  0  0  0
   -1.9857   -1.8120    1.2226 H   0  0  0  0  0  0  0  0  0  0  0  0
   -0.8749    1.2831   -1.5158 H   0  0  0  0  0  0  0  0  0  0  0  0
   -2.5859    0.8043   -1.4247 H   0  0  0  0  0  0  0  0  0  0  0  0
   -1.3216   -0.3766   -2.0778 H   0  0  0  0  0  0  0  0  0  0  0  0
   -1.0200    1.0028    1.9779 H   0  0  0  0  0  0  0  0  0  0  0  0
   -2.5174    1.4518    1.0044 H   0  0  0  0  0  0  0  0  0  0  0  0
   -0.8865    1.9785    0.4576 H   0  0  0  0  0  0  0  0  0  0  0  0
  1  2  1  0
  2  3  2  0
  2  4  1  0
  4  5  1  0
  5  6  1  0
  6  7  1  0
  6  8  1  0
  6  9  1  0
  1 10  1  0
  1 11  1  0
  1 12  1  0
  4 13  1  0
  4 14  1  0
  5 15  1  0
  5 16  1  0
  7 17  1  0
  7 18  1  0
  7 19  1  0
  8 20  1  0
  8 21  1  0
  8 22  1  0
  9 23  1  0
  9 24  1  0
  9 25  1  0
M  END
