
     RDKit          3D

 23 22  0  0  0  0  0  0  0  0999 V2000
    2.3802    0.4465    0.7635 C   0  0  0  0  0  0  0  0  0  0  0  0
    1.7312    0.0431   -0.5093 C   0  0  0  0  0  0  0  0  0  0  0  0
    2.2847    0.3818   -1.5409 O   0  0  0  0  0  0  0  0  0  0  0  0
    0.4899   -0.7242   -0.5778 C   0  0  0  0  0  0  0  0  0  0  0  0
    0.2076   -0.9889   -1.9379 O   0  0  0  0  0  0  0  0  0  0  0  0
   -0.7304   -0.0270   -0.0201 C   0  0  0  0  0  0  0  0  0  0  0  0
   -1.9316   -0.9724   -0.1839 C   0  0  0  0  0  0  0  0  0  0  0  0
   -0.6144    0.2317    1.4611 C   0  0  0  0  0  0  0  0  0  0  0  0
   -1.0419    1.2562   -0.7096 C   0  0  0  0  0  0  0  0  0  0  0  0
    1.8583    1.2670    1.2848 H   0  0  0  0  0  0  0  0  0  0  0  0
    3.4224    0.8056    0.5819 H   0  0  0  0  0  0  0  0  0  0  0  0
    2.5340   -0.4380    1.4520 H   0  0  0  0  0  0  0  0  0  0  0  0
    0.5786   -1.7170   -0.0871 H   0  0  0  0  0  0  0  0  0  0  0  0
    0.7085   -1.7939   -2.2488 H   0  0  0  0  0  0  0  0  0  0  0  0
   -1.9362   -1.4252   -1.1959 H   0  0  0  0  0  0  0  0  0  0  0  0
   -2.8245   -0.3436   -0.0107 H   0  0  0  0  0  0  0  0  0  0  0  0
   -1.8173   -1.7297    0.6173 H   0  0  0  0  0  0  0  0  0  0  0  0
   -1.5543   -0.0746    1.9946 H   0  0  0  0  0  0  0  0  0  0  0  0
    0.1996   -0.3484    1.8990 H   0  0  0  0  0  0  0  0  0  0  0  0
   -0.4847    1.3225    1.6801 H   0  0  0  0  0  0  0  0  0  0  0  0
   -0.5629    2.1157   -0.2060 H   0  0  0  0  0  0  0  0  0  0  0  0
   -0.7572    1.2488   -1.7982 H   0  0  0  0  0  0  0  0  0  0  0  0
   -2.1394    1.4640   -0.7082 H   0  0  0  0  0  0  0  0  0  0  0  0
  1  2  1  0
  2  3  2  0
  2  4  1  0
  4  5  1  0
  4  6  1  0
  6  7  1  0
  6  8  1  0
  6  9  1  0
  1 10  1  0
  1 11  1  0
  1 12  1  0
  4 13  1  0
  5 14  1  0
  7 15  1  0
  7 16  1  0
  7 17  1  0
  8 18  1  0
  8 19  1  0
  8 20  1  0
  9 21  1  0
  9 22  1  0
  9 23  1  0
M  END
