
     RDKit          3D

 17 16  0  0  0  0  0  0  0  0999 V2000
   -3.3097    0.0406    0.3056 C   0  0  0  0  0  0  0  0  0  0  0  0
   -1.8587   -0.1570    0.5530 C   0  0  0  0  0  0  0  0  0  0  0  0
   -1.4374   -1.2990    0.8193 O   0  0  0  0  0  0  0  0  0  0  0  0
   -0.9728    0.8838    0.4960 O   0  0  0  0  0  0  0  0  0  0  0  0
    0.4051    0.7908    0.7141 C   0  0  0  0  0  0  0  0  0  0  0  0
    1.0707   -0.1340   -0.2504 C   0  0  0  0  0  0  0  0  0  0  0  0
    0.3601   -0.6756   -1.0795 O   0  0  0  0  0  0  0  0  0  0  0  0
    2.5076   -0.4190   -0.2517 C   0  0  0  0  0  0  0  0  0  0  0  0
    3.2193    0.2385    0.7188 O   0  0  0  0  0  0  0  0  0  0  0  0
   -3.5344    0.2738   -0.7332 H   0  0  0  0  0  0  0  0  0  0  0  0
   -3.8929   -0.8384    0.6523 H   0  0  0  0  0  0  0  0  0  0  0  0
   -3.6864    0.9031    0.9217 H   0  0  0  0  0  0  0  0  0  0  0  0
    0.5789    0.4098    1.7463 H   0  0  0  0  0  0  0  0  0  0  0  0
    0.8338    1.8077    0.6726 H   0  0  0  0  0  0  0  0  0  0  0  0
    2.6514   -1.5173   -0.0828 H   0  0  0  0  0  0  0  0  0  0  0  0
    2.9099   -0.2388   -1.2851 H   0  0  0  0  0  0  0  0  0  0  0  0
    4.1554   -0.0690    0.6798 H   0  0  0  0  0  0  0  0  0  0  0  0
  1  2  1  0
  2  3  2  0
  2  4  1  0
  4  5  1  0
  5  6  1  0
  6  7  2  0
  6  8  1  0
  8  9  1  0
  1 10  1  0
  1 11  1  0
  1 12  1  0
  5 13  1  0
  5 14  1  0
  8 15  1  0
  8 16  1  0
  9 17  1  0
M  END
