
     RDKit          3D

 17 18  0  0  0  0  0  0  0  0999 V2000
   -2.9351    0.4391   -0.2254 C   0  0  0  0  0  0  0  0  0  0  0  0
   -1.7524   -0.4591   -0.3451 C   0  0  0  0  0  0  0  0  0  0  0  0
   -1.7049   -1.2286   -1.2870 O   0  0  0  0  0  0  0  0  0  0  0  0
   -0.6802   -0.4024    0.6589 C   0  0  0  0  0  0  0  0  0  0  0  0
    0.0573   -1.5107    0.9822 O   0  0  0  0  0  0  0  0  0  0  0  0
    0.7122   -0.6440    0.1154 C   0  0  0  0  0  0  0  0  0  0  0  0
    1.7626    0.2846    0.6265 C   0  0  0  0  0  0  0  0  0  0  0  0
    3.1133    0.3400   -0.0064 C   0  0  0  0  0  0  0  0  0  0  0  0
    2.9036   -0.2570    1.2507 O   0  0  0  0  0  0  0  0  0  0  0  0
   -2.7451    1.2184    0.5486 H   0  0  0  0  0  0  0  0  0  0  0  0
   -3.7969   -0.2285    0.0719 H   0  0  0  0  0  0  0  0  0  0  0  0
   -3.2184    0.8933   -1.1984 H   0  0  0  0  0  0  0  0  0  0  0  0
   -0.8020    0.3250    1.4824 H   0  0  0  0  0  0  0  0  0  0  0  0
    0.8028   -1.0069   -0.9285 H   0  0  0  0  0  0  0  0  0  0  0  0
    1.3873    1.2308    1.0673 H   0  0  0  0  0  0  0  0  0  0  0  0
    3.5959    1.3340   -0.0500 H   0  0  0  0  0  0  0  0  0  0  0  0
    3.3000   -0.3280   -0.8780 H   0  0  0  0  0  0  0  0  0  0  0  0
  1  2  1  0
  2  3  2  0
  2  4  1  0
  4  5  1  0
  5  6  1  0
  6  7  1  0
  7  8  1  0
  8  9  1  0
  6  4  1  0
  9  7  1  0
  1 10  1  0
  1 11  1  0
  1 12  1  0
  4 13  1  0
  6 14  1  0
  7 15  1  0
  8 16  1  0
  8 17  1  0
M  END
