
     RDKit          3D

 19 20  0  0  0  0  0  0  0  0999 V2000
   -2.8775    0.5972    0.3710 C   0  0  0  0  0  0  0  0  0  0  0  0
   -1.5766    1.0381   -0.2038 C   0  0  0  0  0  0  0  0  0  0  0  0
   -1.2884    2.2118   -0.3235 O   0  0  0  0  0  0  0  0  0  0  0  0
   -0.6179   -0.0043   -0.6372 C   0  0  0  0  0  0  0  0  0  0  0  0
    0.5739    0.4716   -1.1634 O   0  0  0  0  0  0  0  0  0  0  0  0
    1.3759   -0.2098   -0.2843 C   0  0  0  0  0  0  0  0  0  0  0  0
    2.5233    0.4699    0.4035 C   0  0  0  0  0  0  0  0  0  0  0  0
    1.1559   -1.6593    0.0085 C   0  0  0  0  0  0  0  0  0  0  0  0
    0.1739   -0.6607    0.4570 C   0  0  0  0  0  0  0  0  0  0  0  0
   -2.7752   -0.4167    0.7824 H   0  0  0  0  0  0  0  0  0  0  0  0
   -3.2147    1.2598    1.1922 H   0  0  0  0  0  0  0  0  0  0  0  0
   -3.6151    0.5870   -0.4832 H   0  0  0  0  0  0  0  0  0  0  0  0
   -1.0640   -0.7746   -1.2967 H   0  0  0  0  0  0  0  0  0  0  0  0
    2.2489    0.9135    1.3707 H   0  0  0  0  0  0  0  0  0  0  0  0
    3.3213   -0.2829    0.6005 H   0  0  0  0  0  0  0  0  0  0  0  0
    2.9687    1.2012   -0.3072 H   0  0  0  0  0  0  0  0  0  0  0  0
    0.8010   -2.3226   -0.8340 H   0  0  0  0  0  0  0  0  0  0  0  0
    1.8045   -2.0955    0.7769 H   0  0  0  0  0  0  0  0  0  0  0  0
    0.0821   -0.3235    1.5013 H   0  0  0  0  0  0  0  0  0  0  0  0
  1  2  1  0
  2  3  2  0
  2  4  1  0
  4  5  1  0
  5  6  1  0
  6  7  1  0
  6  8  1  0
  8  9  1  0
  9  4  1  0
  9  6  1  0
  1 10  1  0
  1 11  1  0
  1 12  1  0
  4 13  1  0
  7 14  1  0
  7 15  1  0
  7 16  1  0
  8 17  1  0
  8 18  1  0
  9 19  1  0
M  END
