
     RDKit          3D

 21 21  0  0  0  0  0  0  0  0999 V2000
    2.7304   -0.1487    0.7878 C   0  0  0  0  0  0  0  0  0  0  0  0
    1.9608    0.9558    0.1784 C   0  0  0  0  0  0  0  0  0  0  0  0
    2.3961    2.0817    0.2241 O   0  0  0  0  0  0  0  0  0  0  0  0
    0.6646    0.7045   -0.4872 C   0  0  0  0  0  0  0  0  0  0  0  0
    0.6322   -0.5468   -1.3901 C   0  0  0  0  0  0  0  0  0  0  0  0
   -0.0912   -0.4927   -0.0412 C   0  0  0  0  0  0  0  0  0  0  0  0
   -1.5767   -0.5730   -0.1522 C   0  0  0  0  0  0  0  0  0  0  0  0
   -2.2866    0.5109    0.6262 C   0  0  0  0  0  0  0  0  0  0  0  0
   -3.6682    0.3992    0.4955 O   0  0  0  0  0  0  0  0  0  0  0  0
    2.3616   -0.3710    1.8313 H   0  0  0  0  0  0  0  0  0  0  0  0
    2.6728   -1.0995    0.2239 H   0  0  0  0  0  0  0  0  0  0  0  0
    3.8212    0.1187    0.8999 H   0  0  0  0  0  0  0  0  0  0  0  0
    0.1386    1.5802   -0.9225 H   0  0  0  0  0  0  0  0  0  0  0  0
    1.5496   -1.1437   -1.4766 H   0  0  0  0  0  0  0  0  0  0  0  0
    0.0315   -0.4790   -2.3047 H   0  0  0  0  0  0  0  0  0  0  0  0
    0.3482   -1.0883    0.7901 H   0  0  0  0  0  0  0  0  0  0  0  0
   -1.9192   -1.5413    0.2666 H   0  0  0  0  0  0  0  0  0  0  0  0
   -1.9343   -0.5516   -1.2030 H   0  0  0  0  0  0  0  0  0  0  0  0
   -1.9874    0.3812    1.7004 H   0  0  0  0  0  0  0  0  0  0  0  0
   -1.9138    1.4908    0.2238 H   0  0  0  0  0  0  0  0  0  0  0  0
   -3.9303   -0.1875   -0.2707 H   0  0  0  0  0  0  0  0  0  0  0  0
  1  2  1  0
  2  3  2  0
  2  4  1  0
  4  5  1  0
  5  6  1  0
  6  7  1  0
  7  8  1  0
  8  9  1  0
  6  4  1  0
  1 10  1  0
  1 11  1  0
  1 12  1  0
  4 13  1  0
  5 14  1  0
  5 15  1  0
  6 16  1  0
  7 17  1  0
  7 18  1  0
  8 19  1  0
  8 20  1  0
  9 21  1  0
M  END
