
     RDKit          3D

 13 12  0  0  0  0  0  0  0  0999 V2000
   -2.4523    1.1295    0.4356 C   0  0  0  0  0  0  0  0  0  0  0  0
   -0.9552    0.9451    0.3018 C   0  0  0  0  0  0  0  0  0  0  0  0
   -0.2683    1.6643    1.0872 O   0  0  0  0  0  0  0  0  0  0  0  0
   -0.4740    0.0150   -0.6474 C   0  0  0  0  0  0  0  0  0  0  0  0
   -1.3061   -0.3770   -1.5745 O   0  0  0  0  0  0  0  0  0  0  0  0
    0.8049   -0.5314   -0.6662 C   0  0  0  0  0  0  0  0  0  0  0  0
    1.9650   -1.0447   -0.6988 C   0  0  0  0  0  0  0  0  0  0  0  0
    3.3093   -1.6465   -0.7142 C   0  0  0  0  0  0  0  0  0  0  0  0
    4.3104   -0.8895   -0.4860 O   0  0  0  0  0  0  0  0  0  0  0  0
   -2.9778    0.3374   -0.1353 H   0  0  0  0  0  0  0  0  0  0  0  0
   -2.6384    0.9416    1.5536 H   0  0  0  0  0  0  0  0  0  0  0  0
   -2.7828    2.1101    0.1114 H   0  0  0  0  0  0  0  0  0  0  0  0
    3.4653   -2.6540   -0.9127 H   0  0  0  0  0  0  0  0  0  0  0  0
  1  2  1  0
  2  3  2  0
  2  4  1  0
  4  5  2  0
  4  6  1  0
  6  7  3  0
  7  8  1  0
  8  9  2  0
  1 10  1  0
  1 11  1  0
  1 12  1  0
  8 13  1  0
M  END
