
     RDKit          3D

 17 18  0  0  0  0  0  0  0  0999 V2000
    2.3988    0.7219    0.0961 C   0  0  0  0  0  0  0  0  0  0  0  0
    1.2102    0.1697   -0.5596 C   0  0  0  0  0  0  0  0  0  0  0  0
    1.1204    0.1810   -1.7635 O   0  0  0  0  0  0  0  0  0  0  0  0
    0.1082   -0.4054    0.2114 C   0  0  0  0  0  0  0  0  0  0  0  0
   -1.0555   -0.9394   -0.5782 C   0  0  0  0  0  0  0  0  0  0  0  0
   -1.8319   -0.7827    0.7048 C   0  0  0  0  0  0  0  0  0  0  0  0
   -1.0334    0.4959    0.5601 C   0  0  0  0  0  0  0  0  0  0  0  0
   -1.3924    0.4458   -0.8414 C   0  0  0  0  0  0  0  0  0  0  0  0
   -1.7597    1.1351   -1.7319 O   0  0  0  0  0  0  0  0  0  0  0  0
    3.3331    0.1559   -0.1269 H   0  0  0  0  0  0  0  0  0  0  0  0
    2.3220    0.7647    1.1941 H   0  0  0  0  0  0  0  0  0  0  0  0
    2.5762    1.7589   -0.2649 H   0  0  0  0  0  0  0  0  0  0  0  0
    0.4816   -1.0701    1.0136 H   0  0  0  0  0  0  0  0  0  0  0  0
   -1.0636   -1.7309   -1.1893 H   0  0  0  0  0  0  0  0  0  0  0  0
   -1.4537   -1.4701    1.4791 H   0  0  0  0  0  0  0  0  0  0  0  0
   -2.9131   -0.6932    0.5928 H   0  0  0  0  0  0  0  0  0  0  0  0
   -1.0470    1.2629    1.2038 H   0  0  0  0  0  0  0  0  0  0  0  0
  1  2  1  0
  2  3  2  0
  2  4  1  0
  4  5  1  0
  5  6  1  0
  6  7  1  0
  7  8  1  0
  8  9  2  0
  7  4  1  0
  8  5  1  0
  1 10  1  0
  1 11  1  0
  1 12  1  0
  4 13  1  0
  5 14  1  0
  6 15  1  0
  6 16  1  0
  7 17  1  0
M  END
