
     RDKit          3D

 19 19  0  0  0  0  0  0  0  0999 V2000
   -1.9119    0.9498   -0.7914 C   0  0  0  0  0  0  0  0  0  0  0  0
   -1.8108   -0.4953   -0.4492 C   0  0  0  0  0  0  0  0  0  0  0  0
   -2.5396   -1.3254   -0.9617 O   0  0  0  0  0  0  0  0  0  0  0  0
   -0.8043   -0.9559    0.5379 C   0  0  0  0  0  0  0  0  0  0  0  0
   -0.8882   -2.3369    0.7022 O   0  0  0  0  0  0  0  0  0  0  0  0
    0.6045   -0.6267    0.1162 C   0  0  0  0  0  0  0  0  0  0  0  0
    1.5579   -1.0339    1.0758 O   0  0  0  0  0  0  0  0  0  0  0  0
    1.3659    0.3852    0.8490 C   0  0  0  0  0  0  0  0  0  0  0  0
    2.5933    1.0025    0.2680 C   0  0  0  0  0  0  0  0  0  0  0  0
   -1.6327    1.1406   -1.8455 H   0  0  0  0  0  0  0  0  0  0  0  0
   -1.3133    1.5377   -0.0656 H   0  0  0  0  0  0  0  0  0  0  0  0
   -2.9786    1.2414   -0.6457 H   0  0  0  0  0  0  0  0  0  0  0  0
   -1.0441   -0.5118    1.5373 H   0  0  0  0  0  0  0  0  0  0  0  0
   -1.7038   -2.6166    1.1824 H   0  0  0  0  0  0  0  0  0  0  0  0
    0.8305   -0.7806   -0.9466 H   0  0  0  0  0  0  0  0  0  0  0  0
    0.8387    0.9173    1.6651 H   0  0  0  0  0  0  0  0  0  0  0  0
    2.3897    1.9022   -0.3454 H   0  0  0  0  0  0  0  0  0  0  0  0
    3.3066    1.3231    1.0790 H   0  0  0  0  0  0  0  0  0  0  0  0
    3.1403    0.2834   -0.3491 H   0  0  0  0  0  0  0  0  0  0  0  0
  1  2  1  0
  2  3  2  0
  2  4  1  0
  4  5  1  0
  4  6  1  0
  6  7  1  0
  7  8  1  0
  8  9  1  0
  8  6  1  0
  1 10  1  0
  1 11  1  0
  1 12  1  0
  4 13  1  0
  5 14  1  0
  6 15  1  0
  8 16  1  0
  9 17  1  0
  9 18  1  0
  9 19  1  0
M  END
