
     RDKit          3D

 17 17  0  0  0  0  0  0  0  0999 V2000
   -2.4118   -0.0024   -0.0490 C   0  0  0  0  0  0  0  0  0  0  0  0
   -1.3421   -0.6079    0.7695 C   0  0  0  0  0  0  0  0  0  0  0  0
   -1.5803   -1.6082    1.4087 O   0  0  0  0  0  0  0  0  0  0  0  0
   -0.0105   -0.0085    0.8094 C   0  0  0  0  0  0  0  0  0  0  0  0
    0.9591   -0.9808    0.1349 C   0  0  0  0  0  0  0  0  0  0  0  0
    2.0094   -0.0212   -0.3363 C   0  0  0  0  0  0  0  0  0  0  0  0
    3.0523   -0.2708   -0.9167 O   0  0  0  0  0  0  0  0  0  0  0  0
    1.5090    1.3193    0.0565 C   0  0  0  0  0  0  0  0  0  0  0  0
    0.1302    1.1230    0.0405 O   0  0  0  0  0  0  0  0  0  0  0  0
   -3.2094   -0.7447   -0.3083 H   0  0  0  0  0  0  0  0  0  0  0  0
   -2.0557    0.4017   -1.0119 H   0  0  0  0  0  0  0  0  0  0  0  0
   -2.9177    0.7580    0.5866 H   0  0  0  0  0  0  0  0  0  0  0  0
    0.3834    0.1400    1.8365 H   0  0  0  0  0  0  0  0  0  0  0  0
    0.5152   -1.4390   -0.7673 H   0  0  0  0  0  0  0  0  0  0  0  0
    1.3513   -1.7090    0.8568 H   0  0  0  0  0  0  0  0  0  0  0  0
    1.8327    2.1217   -0.6282 H   0  0  0  0  0  0  0  0  0  0  0  0
    1.7851    1.5287    1.1204 H   0  0  0  0  0  0  0  0  0  0  0  0
  1  2  1  0
  2  3  2  0
  2  4  1  0
  4  5  1  0
  5  6  1  0
  6  7  2  0
  6  8  1  0
  8  9  1  0
  9  4  1  0
  1 10  1  0
  1 11  1  0
  1 12  1  0
  4 13  1  0
  5 14  1  0
  5 15  1  0
  8 16  1  0
  8 17  1  0
M  END
