
     RDKit          3D

 21 20  0  0  0  0  0  0  0  0999 V2000
    2.5567   -0.5388    0.3170 C   0  0  0  0  0  0  0  0  0  0  0  0
    1.4864    0.4217    0.6218 C   0  0  0  0  0  0  0  0  0  0  0  0
    1.3913    0.9042    1.7332 O   0  0  0  0  0  0  0  0  0  0  0  0
    0.4962    0.8312   -0.4052 C   0  0  0  0  0  0  0  0  0  0  0  0
    0.7867    0.1702   -1.5807 O   0  0  0  0  0  0  0  0  0  0  0  0
   -0.8730    0.4783    0.1309 C   0  0  0  0  0  0  0  0  0  0  0  0
   -1.0342   -0.9734    0.4044 C   0  0  0  0  0  0  0  0  0  0  0  0
   -1.8816    0.9044   -0.9179 C   0  0  0  0  0  0  0  0  0  0  0  0
   -1.6067    0.2111   -2.0997 O   0  0  0  0  0  0  0  0  0  0  0  0
    2.1954   -1.3887   -0.3158 H   0  0  0  0  0  0  0  0  0  0  0  0
    3.4026   -0.0348   -0.2182 H   0  0  0  0  0  0  0  0  0  0  0  0
    2.9870   -1.0056    1.2267 H   0  0  0  0  0  0  0  0  0  0  0  0
    0.5765    1.9193   -0.6052 H   0  0  0  0  0  0  0  0  0  0  0  0
    0.5849   -0.7946   -1.4334 H   0  0  0  0  0  0  0  0  0  0  0  0
   -1.0693    1.0349    1.0685 H   0  0  0  0  0  0  0  0  0  0  0  0
   -1.9680   -1.1325    0.9772 H   0  0  0  0  0  0  0  0  0  0  0  0
   -0.2110   -1.3406    1.0787 H   0  0  0  0  0  0  0  0  0  0  0  0
   -1.0671   -1.6094   -0.4989 H   0  0  0  0  0  0  0  0  0  0  0  0
   -1.8097    1.9971   -1.0472 H   0  0  0  0  0  0  0  0  0  0  0  0
   -2.8881    0.6146   -0.5436 H   0  0  0  0  0  0  0  0  0  0  0  0
   -2.0551   -0.6685   -2.0162 H   0  0  0  0  0  0  0  0  0  0  0  0
  1  2  1  0
  2  3  2  0
  2  4  1  0
  4  5  1  0
  4  6  1  0
  6  7  1  0
  6  8  1  0
  8  9  1  0
  1 10  1  0
  1 11  1  0
  1 12  1  0
  4 13  1  0
  5 14  1  0
  6 15  1  0
  7 16  1  0
  7 17  1  0
  7 18  1  0
  8 19  1  0
  8 20  1  0
  9 21  1  0
M  END
