
     RDKit          3D

 19 20  0  0  0  0  0  0  0  0999 V2000
    2.6942   -0.1207   -0.3024 C   0  0  0  0  0  0  0  0  0  0  0  0
    1.4397    0.6105    0.0890 C   0  0  0  0  0  0  0  0  0  0  0  0
    1.4790    1.8256    0.0533 O   0  0  0  0  0  0  0  0  0  0  0  0
    0.2819   -0.1949    0.4782 C   0  0  0  0  0  0  0  0  0  0  0  0
   -0.8844    0.7032    0.8379 C   0  0  0  0  0  0  0  0  0  0  0  0
   -1.0673    1.7762   -0.0032 O   0  0  0  0  0  0  0  0  0  0  0  0
   -1.5663   -0.5776    0.4363 C   0  0  0  0  0  0  0  0  0  0  0  0
   -2.0327   -0.9070   -0.7999 C   0  0  0  0  0  0  0  0  0  0  0  0
   -0.5752   -0.8136   -0.5749 C   0  0  0  0  0  0  0  0  0  0  0  0
    2.5248   -1.2053   -0.4092 H   0  0  0  0  0  0  0  0  0  0  0  0
    3.0887    0.2556   -1.2546 H   0  0  0  0  0  0  0  0  0  0  0  0
    3.4308    0.0786    0.4985 H   0  0  0  0  0  0  0  0  0  0  0  0
    0.4642   -0.9104    1.3026 H   0  0  0  0  0  0  0  0  0  0  0  0
   -0.9359    0.9534    1.9093 H   0  0  0  0  0  0  0  0  0  0  0  0
   -1.5768    2.4896    0.4207 H   0  0  0  0  0  0  0  0  0  0  0  0
   -1.5583   -1.3261    1.2878 H   0  0  0  0  0  0  0  0  0  0  0  0
   -2.6231   -0.1578   -1.4095 H   0  0  0  0  0  0  0  0  0  0  0  0
   -2.3919   -1.9436   -1.0447 H   0  0  0  0  0  0  0  0  0  0  0  0
   -0.1915   -0.5356   -1.5149 H   0  0  0  0  0  0  0  0  0  0  0  0
  1  2  1  0
  2  3  2  0
  2  4  1  0
  4  5  1  0
  5  6  1  0
  5  7  1  0
  7  8  1  0
  8  9  1  0
  9  4  1  0
  9  7  1  0
  1 10  1  0
  1 11  1  0
  1 12  1  0
  4 13  1  0
  5 14  1  0
  6 15  1  0
  7 16  1  0
  8 17  1  0
  8 18  1  0
  9 19  1  0
M  END
