
     RDKit          3D

 19 19  0  0  0  0  0  0  0  0999 V2000
    3.0798    0.1781    0.4436 C   0  0  0  0  0  0  0  0  0  0  0  0
    1.7712    0.2380   -0.2501 C   0  0  0  0  0  0  0  0  0  0  0  0
    1.6951    0.8563   -1.2916 O   0  0  0  0  0  0  0  0  0  0  0  0
    0.5785   -0.4294    0.2933 C   0  0  0  0  0  0  0  0  0  0  0  0
   -0.6451   -0.2369   -0.5776 C   0  0  0  0  0  0  0  0  0  0  0  0
   -1.8935   -0.9005   -0.0661 C   0  0  0  0  0  0  0  0  0  0  0  0
   -2.5812    0.4417    0.0566 C   0  0  0  0  0  0  0  0  0  0  0  0
   -1.3247    1.0547   -0.4578 C   0  0  0  0  0  0  0  0  0  0  0  0
   -1.0488    2.2205   -0.6714 O   0  0  0  0  0  0  0  0  0  0  0  0
    3.3994   -0.9013    0.4586 H   0  0  0  0  0  0  0  0  0  0  0  0
    2.9488    0.5623    1.4856 H   0  0  0  0  0  0  0  0  0  0  0  0
    3.8590    0.7285   -0.0798 H   0  0  0  0  0  0  0  0  0  0  0  0
    0.3936   -0.0762    1.3290 H   0  0  0  0  0  0  0  0  0  0  0  0
    0.7169   -1.5420    0.3798 H   0  0  0  0  0  0  0  0  0  0  0  0
   -0.4840   -0.4919   -1.6444 H   0  0  0  0  0  0  0  0  0  0  0  0
   -2.4235   -1.5501   -0.8143 H   0  0  0  0  0  0  0  0  0  0  0  0
   -1.8016   -1.4108    0.9203 H   0  0  0  0  0  0  0  0  0  0  0  0
   -2.7865    0.7088    1.1133 H   0  0  0  0  0  0  0  0  0  0  0  0
   -3.4535    0.5502   -0.6272 H   0  0  0  0  0  0  0  0  0  0  0  0
  1  2  1  0
  2  3  2  0
  2  4  1  0
  4  5  1  0
  5  6  1  0
  6  7  1  0
  7  8  1  0
  8  9  2  0
  8  5  1  0
  1 10  1  0
  1 11  1  0
  1 12  1  0
  4 13  1  0
  4 14  1  0
  5 15  1  0
  6 16  1  0
  6 17  1  0
  7 18  1  0
  7 19  1  0
M  END
