
     RDKit          3D

 16 15  0  0  0  0  0  0  0  0999 V2000
    2.2502   -0.0364   -0.5292 C   0  0  0  0  0  0  0  0  0  0  0  0
    0.9715   -0.7071   -0.1715 C   0  0  0  0  0  0  0  0  0  0  0  0
    0.6612   -1.7312   -0.7472 O   0  0  0  0  0  0  0  0  0  0  0  0
    0.0394   -0.1885    0.8639 C   0  0  0  0  0  0  0  0  0  0  0  0
   -1.1368    0.4606    0.1816 C   0  0  0  0  0  0  0  0  0  0  0  0
   -1.9931    0.9389    1.1656 O   0  0  0  0  0  0  0  0  0  0  0  0
   -1.8510   -0.4549   -0.7150 C   0  0  0  0  0  0  0  0  0  0  0  0
   -3.0563   -0.6516   -0.4857 O   0  0  0  0  0  0  0  0  0  0  0  0
    2.3932    0.8399    0.1345 H   0  0  0  0  0  0  0  0  0  0  0  0
    2.2253    0.3681   -1.5725 H   0  0  0  0  0  0  0  0  0  0  0  0
    3.1428   -0.7170   -0.4124 H   0  0  0  0  0  0  0  0  0  0  0  0
   -0.2725   -0.9482    1.5898 H   0  0  0  0  0  0  0  0  0  0  0  0
    0.6133    0.5796    1.4509 H   0  0  0  0  0  0  0  0  0  0  0  0
   -0.7560    1.3073   -0.4632 H   0  0  0  0  0  0  0  0  0  0  0  0
   -1.8128    1.9099    1.2610 H   0  0  0  0  0  0  0  0  0  0  0  0
   -1.4187   -0.9694   -1.5506 H   0  0  0  0  0  0  0  0  0  0  0  0
  1  2  1  0
  2  3  2  0
  2  4  1  0
  4  5  1  0
  5  6  1  0
  5  7  1  0
  7  8  2  0
  1  9  1  0
  1 10  1  0
  1 11  1  0
  4 12  1  0
  4 13  1  0
  5 14  1  0
  6 15  1  0
  7 16  1  0
M  END
