
     RDKit          3D

 21 21  0  0  0  0  0  0  0  0999 V2000
    2.9355   -0.6888    0.0713 C   0  0  0  0  0  0  0  0  0  0  0  0
    2.0330    0.4347   -0.2641 C   0  0  0  0  0  0  0  0  0  0  0  0
    2.5906    1.4983   -0.6848 O   0  0  0  0  0  0  0  0  0  0  0  0
    0.5926    0.3500   -0.1286 C   0  0  0  0  0  0  0  0  0  0  0  0
   -0.1449    1.3749   -0.4409 C   0  0  0  0  0  0  0  0  0  0  0  0
   -1.6130    1.4206   -0.3500 C   0  0  0  0  0  0  0  0  0  0  0  0
   -2.2827    0.1154   -0.1816 C   0  0  0  0  0  0  0  0  0  0  0  0
   -1.4165   -1.0922   -0.1685 C   0  0  0  0  0  0  0  0  0  0  0  0
   -0.0404   -0.8776    0.3563 C   0  0  0  0  0  0  0  0  0  0  0  0
    3.2287   -1.2809   -0.8171 H   0  0  0  0  0  0  0  0  0  0  0  0
    3.8627   -0.2662    0.5524 H   0  0  0  0  0  0  0  0  0  0  0  0
    2.4495   -1.3531    0.8070 H   0  0  0  0  0  0  0  0  0  0  0  0
    0.3350    2.2983   -0.8058 H   0  0  0  0  0  0  0  0  0  0  0  0
   -1.9844    1.9268   -1.2896 H   0  0  0  0  0  0  0  0  0  0  0  0
   -1.8678    2.1367    0.4663 H   0  0  0  0  0  0  0  0  0  0  0  0
   -3.0657   -0.0249   -0.9682 H   0  0  0  0  0  0  0  0  0  0  0  0
   -2.8651    0.1402    0.7847 H   0  0  0  0  0  0  0  0  0  0  0  0
   -1.3973   -1.5790   -1.1797 H   0  0  0  0  0  0  0  0  0  0  0  0
   -1.8881   -1.8718    0.4994 H   0  0  0  0  0  0  0  0  0  0  0  0
    0.6017   -1.7476    0.0376 H   0  0  0  0  0  0  0  0  0  0  0  0
   -0.0634   -0.9139    1.4780 H   0  0  0  0  0  0  0  0  0  0  0  0
  1  2  1  0
  2  3  2  0
  2  4  1  0
  4  5  2  0
  5  6  1  0
  6  7  1  0
  7  8  1  0
  8  9  1  0
  9  4  1  0
  1 10  1  0
  1 11  1  0
  1 12  1  0
  5 13  1  0
  6 14  1  0
  6 15  1  0
  7 16  1  0
  7 17  1  0
  8 18  1  0
  8 19  1  0
  9 20  1  0
  9 21  1  0
M  END
