
     RDKit          3D

 21 22  0  0  0  0  0  0  0  0999 V2000
    3.1120    0.6445    0.1681 C   0  0  0  0  0  0  0  0  0  0  0  0
    1.8377    0.0063    0.5012 C   0  0  0  0  0  0  0  0  0  0  0  0
    1.7446   -0.6562    1.5205 O   0  0  0  0  0  0  0  0  0  0  0  0
    0.5887    0.1048   -0.3422 C   0  0  0  0  0  0  0  0  0  0  0  0
   -0.2819   -0.9914   -0.5999 C   0  0  0  0  0  0  0  0  0  0  0  0
   -1.7801   -1.0967   -0.5511 C   0  0  0  0  0  0  0  0  0  0  0  0
   -1.4803   -0.9141    0.9540 C   0  0  0  0  0  0  0  0  0  0  0  0
   -0.6266    0.1955    0.3940 C   0  0  0  0  0  0  0  0  0  0  0  0
   -1.5318    1.3005   -0.1666 C   0  0  0  0  0  0  0  0  0  0  0  0
    3.8484    0.4111    0.9594 H   0  0  0  0  0  0  0  0  0  0  0  0
    3.0425    1.7692    0.1057 H   0  0  0  0  0  0  0  0  0  0  0  0
    3.5044    0.2172   -0.7747 H   0  0  0  0  0  0  0  0  0  0  0  0
    0.8239    0.7407   -1.2489 H   0  0  0  0  0  0  0  0  0  0  0  0
    0.1110   -1.9212   -0.0667 H   0  0  0  0  0  0  0  0  0  0  0  0
   -2.1768   -2.0922   -0.7396 H   0  0  0  0  0  0  0  0  0  0  0  0
   -2.3807   -0.3342   -1.0130 H   0  0  0  0  0  0  0  0  0  0  0  0
   -0.9504   -1.7888    1.3471 H   0  0  0  0  0  0  0  0  0  0  0  0
   -2.3579   -0.5503    1.4835 H   0  0  0  0  0  0  0  0  0  0  0  0
   -1.0841    2.2464    0.2727 H   0  0  0  0  0  0  0  0  0  0  0  0
   -2.5511    1.2779    0.2111 H   0  0  0  0  0  0  0  0  0  0  0  0
   -1.4114    1.4311   -1.2519 H   0  0  0  0  0  0  0  0  0  0  0  0
  1  2  1  0
  2  3  2  0
  2  4  1  0
  4  5  1  0
  5  6  1  0
  6  7  1  0
  7  8  1  0
  8  9  1  0
  8  4  1  0
  8  5  1  0
  1 10  1  0
  1 11  1  0
  1 12  1  0
  4 13  1  0
  5 14  1  0
  6 15  1  0
  6 16  1  0
  7 17  1  0
  7 18  1  0
  9 19  1  0
  9 20  1  0
  9 21  1  0
M  END
