
     RDKit          3D

 14 13  0  0  0  0  0  0  0  0999 V2000
   -1.9140    0.0776   -0.2066 C   0  0  0  0  0  0  0  0  0  0  0  0
   -0.6716   -0.3184    0.4521 C   0  0  0  0  0  0  0  0  0  0  0  0
   -0.6891   -1.2764    1.2213 O   0  0  0  0  0  0  0  0  0  0  0  0
    0.6394    0.3497    0.2698 C   0  0  0  0  0  0  0  0  0  0  0  0
    1.6136   -0.7188   -0.2142 C   0  0  0  0  0  0  0  0  0  0  0  0
    0.5908    1.4126   -0.6020 O   0  0  0  0  0  0  0  0  0  0  0  0
   -2.6167    0.4744    0.5612 H   0  0  0  0  0  0  0  0  0  0  0  0
   -1.7789    0.7765   -1.0388 H   0  0  0  0  0  0  0  0  0  0  0  0
   -2.4081   -0.8628   -0.5824 H   0  0  0  0  0  0  0  0  0  0  0  0
    0.9885    0.6882    1.2637 H   0  0  0  0  0  0  0  0  0  0  0  0
    2.6462   -0.3124   -0.1986 H   0  0  0  0  0  0  0  0  0  0  0  0
    1.2808   -0.9959   -1.2307 H   0  0  0  0  0  0  0  0  0  0  0  0
    1.4877   -1.5779    0.4625 H   0  0  0  0  0  0  0  0  0  0  0  0
    0.8315    2.2836   -0.1572 H   0  0  0  0  0  0  0  0  0  0  0  0
  1  2  1  0
  2  3  2  0
  2  4  1  0
  4  5  1  0
  4  6  1  0
  1  7  1  0
  1  8  1  0
  1  9  1  0
  4 10  1  0
  5 11  1  0
  5 12  1  0
  5 13  1  0
  6 14  1  0
M  END
