
     RDKit          3D

 21 21  0  0  0  0  0  0  0  0999 V2000
    2.9148   -0.8766   -0.1045 C   0  0  0  0  0  0  0  0  0  0  0  0
    1.7734   -0.4626    0.7513 C   0  0  0  0  0  0  0  0  0  0  0  0
    1.4702   -1.1251    1.7242 O   0  0  0  0  0  0  0  0  0  0  0  0
    0.9747    0.7525    0.4553 C   0  0  0  0  0  0  0  0  0  0  0  0
   -0.3244    0.4442   -0.2503 C   0  0  0  0  0  0  0  0  0  0  0  0
   -1.1427    1.6881   -0.5604 C   0  0  0  0  0  0  0  0  0  0  0  0
   -0.3405   -0.6281   -1.1212 O   0  0  0  0  0  0  0  0  0  0  0  0
   -1.0825   -0.7398    0.1386 C   0  0  0  0  0  0  0  0  0  0  0  0
   -2.5801   -0.8211   -0.0697 C   0  0  0  0  0  0  0  0  0  0  0  0
    2.9350   -1.9786   -0.2388 H   0  0  0  0  0  0  0  0  0  0  0  0
    2.8032   -0.3694   -1.0829 H   0  0  0  0  0  0  0  0  0  0  0  0
    3.9067   -0.5873    0.3267 H   0  0  0  0  0  0  0  0  0  0  0  0
    0.6970    1.2321    1.4283 H   0  0  0  0  0  0  0  0  0  0  0  0
    1.5896    1.4911   -0.1325 H   0  0  0  0  0  0  0  0  0  0  0  0
   -1.7225    1.5748   -1.4784 H   0  0  0  0  0  0  0  0  0  0  0  0
   -0.4993    2.5858   -0.6255 H   0  0  0  0  0  0  0  0  0  0  0  0
   -1.7993    1.8341    0.3186 H   0  0  0  0  0  0  0  0  0  0  0  0
   -0.6464   -1.4331    0.8803 H   0  0  0  0  0  0  0  0  0  0  0  0
   -2.9927   -1.6031    0.6056 H   0  0  0  0  0  0  0  0  0  0  0  0
   -2.8358   -1.1166   -1.1037 H   0  0  0  0  0  0  0  0  0  0  0  0
   -3.0984    0.1388    0.1391 H   0  0  0  0  0  0  0  0  0  0  0  0
  1  2  1  0
  2  3  2  0
  2  4  1  0
  4  5  1  0
  5  6  1  0
  5  7  1  0
  7  8  1  0
  8  9  1  0
  8  5  1  0
  1 10  1  0
  1 11  1  0
  1 12  1  0
  4 13  1  0
  4 14  1  0
  6 15  1  0
  6 16  1  0
  6 17  1  0
  8 18  1  0
  9 19  1  0
  9 20  1  0
  9 21  1  0
M  END
