
     RDKit          3D

 17 16  0  0  0  0  0  0  0  0999 V2000
    3.0453    0.8130    0.0946 C   0  0  0  0  0  0  0  0  0  0  0  0
    2.3431   -0.4067    0.5171 C   0  0  0  0  0  0  0  0  0  0  0  0
    3.0201   -1.2780    1.1430 O   0  0  0  0  0  0  0  0  0  0  0  0
    0.9477   -0.5958    0.2287 C   0  0  0  0  0  0  0  0  0  0  0  0
   -0.2277   -0.7753   -0.0219 C   0  0  0  0  0  0  0  0  0  0  0  0
   -1.6557   -1.0047   -0.3037 C   0  0  0  0  0  0  0  0  0  0  0  0
   -1.7945   -1.3067   -1.6475 O   0  0  0  0  0  0  0  0  0  0  0  0
   -2.3738    0.2752    0.0536 C   0  0  0  0  0  0  0  0  0  0  0  0
   -2.2563    0.6041    1.3800 O   0  0  0  0  0  0  0  0  0  0  0  0
    4.1176    0.5522   -0.1378 H   0  0  0  0  0  0  0  0  0  0  0  0
    3.0998    1.5941    0.8809 H   0  0  0  0  0  0  0  0  0  0  0  0
    2.5889    1.2067   -0.8503 H   0  0  0  0  0  0  0  0  0  0  0  0
   -2.0754   -1.8328    0.2750 H   0  0  0  0  0  0  0  0  0  0  0  0
   -1.2163   -0.7463   -2.2291 H   0  0  0  0  0  0  0  0  0  0  0  0
   -3.4264    0.2077   -0.2577 H   0  0  0  0  0  0  0  0  0  0  0  0
   -1.8842    1.0811   -0.5631 H   0  0  0  0  0  0  0  0  0  0  0  0
   -2.2522    1.6124    1.4381 H   0  0  0  0  0  0  0  0  0  0  0  0
  1  2  1  0
  2  3  2  0
  2  4  1  0
  4  5  3  0
  5  6  1  0
  6  7  1  0
  6  8  1  0
  8  9  1  0
  1 10  1  0
  1 11  1  0
  1 12  1  0
  6 13  1  0
  7 14  1  0
  8 15  1  0
  8 16  1  0
  9 17  1  0
M  END
