
     RDKit          3D

 15 16  0  0  0  0  0  0  0  0999 V2000
    1.9096   -0.0457    0.2612 C   0  0  0  0  0  0  0  0  0  0  0  0
    0.8645   -0.0583   -0.7945 C   0  0  0  0  0  0  0  0  0  0  0  0
    1.1530   -0.1483   -1.9785 O   0  0  0  0  0  0  0  0  0  0  0  0
   -0.5828    0.0362   -0.4900 C   0  0  0  0  0  0  0  0  0  0  0  0
   -1.0672    1.2249    0.2108 C   0  0  0  0  0  0  0  0  0  0  0  0
   -1.0900   -0.0766    0.8933 C   0  0  0  0  0  0  0  0  0  0  0  0
   -2.1068   -0.9812    0.5216 O   0  0  0  0  0  0  0  0  0  0  0  0
   -1.4470   -1.1457   -0.6939 C   0  0  0  0  0  0  0  0  0  0  0  0
   -1.5803   -2.0099   -1.6013 O   0  0  0  0  0  0  0  0  0  0  0  0
    1.9979   -1.0534    0.7427 H   0  0  0  0  0  0  0  0  0  0  0  0
    2.8923    0.1464   -0.2249 H   0  0  0  0  0  0  0  0  0  0  0  0
    1.7692    0.7643    1.0019 H   0  0  0  0  0  0  0  0  0  0  0  0
   -0.3023    1.9468    0.5715 H   0  0  0  0  0  0  0  0  0  0  0  0
   -1.9776    1.7115   -0.1668 H   0  0  0  0  0  0  0  0  0  0  0  0
   -0.4325   -0.3110    1.7470 H   0  0  0  0  0  0  0  0  0  0  0  0
  1  2  1  0
  2  3  2  0
  2  4  1  0
  4  5  1  0
  5  6  1  0
  6  7  1  0
  7  8  1  0
  8  9  2  0
  6  4  1  0
  8  4  1  0
  1 10  1  0
  1 11  1  0
  1 12  1  0
  5 13  1  0
  5 14  1  0
  6 15  1  0
M  END
