
     RDKit          3D

 21 21  0  0  0  0  0  0  0  0999 V2000
    3.2968   -0.5501   -0.9780 C   0  0  0  0  0  0  0  0  0  0  0  0
    1.9948    0.1143   -0.6973 C   0  0  0  0  0  0  0  0  0  0  0  0
    1.6571    1.1342   -1.3491 O   0  0  0  0  0  0  0  0  0  0  0  0
    1.1184   -0.3274    0.2514 O   0  0  0  0  0  0  0  0  0  0  0  0
   -0.1367    0.2794    0.5507 C   0  0  0  0  0  0  0  0  0  0  0  0
   -0.1483    0.8708    1.9418 C   0  0  0  0  0  0  0  0  0  0  0  0
   -1.2833   -0.6295    0.2866 C   0  0  0  0  0  0  0  0  0  0  0  0
   -2.6787   -0.2797    0.5000 C   0  0  0  0  0  0  0  0  0  0  0  0
   -2.1913   -0.2441   -0.9020 C   0  0  0  0  0  0  0  0  0  0  0  0
    3.3116   -1.5919   -0.6042 H   0  0  0  0  0  0  0  0  0  0  0  0
    4.1562   -0.0149   -0.5432 H   0  0  0  0  0  0  0  0  0  0  0  0
    3.4718   -0.6083   -2.0790 H   0  0  0  0  0  0  0  0  0  0  0  0
   -0.1955    1.1417   -0.1481 H   0  0  0  0  0  0  0  0  0  0  0  0
   -1.1975    1.1908    2.1369 H   0  0  0  0  0  0  0  0  0  0  0  0
    0.1931    0.1676    2.7155 H   0  0  0  0  0  0  0  0  0  0  0  0
    0.4816    1.7901    1.9025 H   0  0  0  0  0  0  0  0  0  0  0  0
   -1.0103   -1.7189    0.3345 H   0  0  0  0  0  0  0  0  0  0  0  0
   -3.3999   -1.1234    0.7089 H   0  0  0  0  0  0  0  0  0  0  0  0
   -3.0289    0.6671    0.9329 H   0  0  0  0  0  0  0  0  0  0  0  0
   -2.3883   -1.0319   -1.6252 H   0  0  0  0  0  0  0  0  0  0  0  0
   -2.0228    0.7641   -1.3398 H   0  0  0  0  0  0  0  0  0  0  0  0
  1  2  1  0
  2  3  2  0
  2  4  1  0
  4  5  1  0
  5  6  1  0
  5  7  1  0
  7  8  1  0
  8  9  1  0
  9  7  1  0
  1 10  1  0
  1 11  1  0
  1 12  1  0
  5 13  1  0
  6 14  1  0
  6 15  1  0
  6 16  1  0
  7 17  1  0
  8 18  1  0
  8 19  1  0
  9 20  1  0
  9 21  1  0
M  END
