
     RDKit          3D

 18 18  0  0  0  0  0  0  0  0999 V2000
   -2.8148    0.4107    0.3553 C   0  0  0  0  0  0  0  0  0  0  0  0
   -1.5917    0.0721   -0.4328 C   0  0  0  0  0  0  0  0  0  0  0  0
   -1.5509    0.3763   -1.6107 O   0  0  0  0  0  0  0  0  0  0  0  0
   -0.4877   -0.6171    0.2559 C   0  0  0  0  0  0  0  0  0  0  0  0
    0.6501   -0.8699   -0.7031 C   0  0  0  0  0  0  0  0  0  0  0  0
    1.7795   -1.5164   -0.2115 O   0  0  0  0  0  0  0  0  0  0  0  0
    1.9114   -0.1586   -0.6264 C   0  0  0  0  0  0  0  0  0  0  0  0
    2.3041    0.7454    0.4946 C   0  0  0  0  0  0  0  0  0  0  0  0
   -3.4351    1.1843   -0.1658 H   0  0  0  0  0  0  0  0  0  0  0  0
   -3.4379   -0.4944    0.4660 H   0  0  0  0  0  0  0  0  0  0  0  0
   -2.5372    0.7745    1.3828 H   0  0  0  0  0  0  0  0  0  0  0  0
   -0.1217    0.0637    1.0579 H   0  0  0  0  0  0  0  0  0  0  0  0
   -0.8657   -1.5813    0.6633 H   0  0  0  0  0  0  0  0  0  0  0  0
    0.3244   -1.2399   -1.6929 H   0  0  0  0  0  0  0  0  0  0  0  0
    2.4732    0.0074   -1.5896 H   0  0  0  0  0  0  0  0  0  0  0  0
    3.4202    0.6465    0.6259 H   0  0  0  0  0  0  0  0  0  0  0  0
    2.1174    1.8197    0.3023 H   0  0  0  0  0  0  0  0  0  0  0  0
    1.8625    0.3771    1.4289 H   0  0  0  0  0  0  0  0  0  0  0  0
  1  2  1  0
  2  3  2  0
  2  4  1  0
  4  5  1  0
  5  6  1  0
  6  7  1  0
  7  8  1  0
  7  5  1  0
  1  9  1  0
  1 10  1  0
  1 11  1  0
  4 12  1  0
  4 13  1  0
  5 14  1  0
  7 15  1  0
  8 16  1  0
  8 17  1  0
  8 18  1  0
M  END
