
     RDKit          3D

 21 21  0  0  0  0  0  0  0  0999 V2000
    2.2219    0.8783    0.1228 C   0  0  0  0  0  0  0  0  0  0  0  0
    1.4187   -0.1473   -0.5782 C   0  0  0  0  0  0  0  0  0  0  0  0
    1.9171   -0.7397   -1.5183 O   0  0  0  0  0  0  0  0  0  0  0  0
    0.0386   -0.4617   -0.1628 C   0  0  0  0  0  0  0  0  0  0  0  0
    0.0011   -0.9455    1.2520 C   0  0  0  0  0  0  0  0  0  0  0  0
   -0.6900   -1.4138   -1.0728 C   0  0  0  0  0  0  0  0  0  0  0  0
   -1.7947   -0.5720   -1.1598 O   0  0  0  0  0  0  0  0  0  0  0  0
   -1.0313    0.4473   -0.6193 C   0  0  0  0  0  0  0  0  0  0  0  0
   -1.7805    1.2402    0.3879 C   0  0  0  0  0  0  0  0  0  0  0  0
    3.0313    0.4417    0.7394 H   0  0  0  0  0  0  0  0  0  0  0  0
    1.6130    1.6103    0.6827 H   0  0  0  0  0  0  0  0  0  0  0  0
    2.7502    1.4682   -0.6824 H   0  0  0  0  0  0  0  0  0  0  0  0
    0.1710   -2.0613    1.2212 H   0  0  0  0  0  0  0  0  0  0  0  0
    0.8539   -0.5455    1.8338 H   0  0  0  0  0  0  0  0  0  0  0  0
   -0.9365   -0.7927    1.7764 H   0  0  0  0  0  0  0  0  0  0  0  0
   -0.9515   -2.4029   -0.6205 H   0  0  0  0  0  0  0  0  0  0  0  0
   -0.1439   -1.5804   -2.0253 H   0  0  0  0  0  0  0  0  0  0  0  0
   -0.6792    1.1185   -1.4487 H   0  0  0  0  0  0  0  0  0  0  0  0
   -2.2402    0.6618    1.1891 H   0  0  0  0  0  0  0  0  0  0  0  0
   -1.1404    2.0450    0.8351 H   0  0  0  0  0  0  0  0  0  0  0  0
   -2.6286    1.7516   -0.1524 H   0  0  0  0  0  0  0  0  0  0  0  0
  1  2  1  0
  2  3  2  0
  2  4  1  0
  4  5  1  0
  4  6  1  0
  6  7  1  0
  7  8  1  0
  8  9  1  0
  8  4  1  0
  1 10  1  0
  1 11  1  0
  1 12  1  0
  5 13  1  0
  5 14  1  0
  5 15  1  0
  6 16  1  0
  6 17  1  0
  8 18  1  0
  9 19  1  0
  9 20  1  0
  9 21  1  0
M  END
