
     RDKit          3D

 21 21  0  0  0  0  0  0  0  0999 V2000
    3.4384   -0.5651   -0.5023 C   0  0  0  0  0  0  0  0  0  0  0  0
    2.2273    0.2425   -0.1640 C   0  0  0  0  0  0  0  0  0  0  0  0
    2.3580    1.3347    0.4481 O   0  0  0  0  0  0  0  0  0  0  0  0
    0.9456   -0.1468   -0.4901 O   0  0  0  0  0  0  0  0  0  0  0  0
   -0.1511    0.6431   -0.1515 C   0  0  0  0  0  0  0  0  0  0  0  0
   -1.1235    0.9352   -1.2895 C   0  0  0  0  0  0  0  0  0  0  0  0
   -2.2224    0.8863   -0.2193 C   0  0  0  0  0  0  0  0  0  0  0  0
   -1.2943   -0.0750    0.5358 C   0  0  0  0  0  0  0  0  0  0  0  0
   -1.5440   -1.4767    0.0531 C   0  0  0  0  0  0  0  0  0  0  0  0
    4.1892   -0.5253    0.3387 H   0  0  0  0  0  0  0  0  0  0  0  0
    3.1984   -1.6026   -0.7363 H   0  0  0  0  0  0  0  0  0  0  0  0
    3.9361   -0.1136   -1.3720 H   0  0  0  0  0  0  0  0  0  0  0  0
    0.0543    1.5884    0.3863 H   0  0  0  0  0  0  0  0  0  0  0  0
   -1.2818    0.0727   -1.9699 H   0  0  0  0  0  0  0  0  0  0  0  0
   -1.0106    1.9165   -1.7579 H   0  0  0  0  0  0  0  0  0  0  0  0
   -3.1665    0.4550   -0.5464 H   0  0  0  0  0  0  0  0  0  0  0  0
   -2.2735    1.9024    0.2524 H   0  0  0  0  0  0  0  0  0  0  0  0
   -1.2928    0.0867    1.6185 H   0  0  0  0  0  0  0  0  0  0  0  0
   -0.6422   -2.0855   -0.0374 H   0  0  0  0  0  0  0  0  0  0  0  0
   -2.2029   -1.9755    0.8079 H   0  0  0  0  0  0  0  0  0  0  0  0
   -2.1419   -1.4977   -0.8981 H   0  0  0  0  0  0  0  0  0  0  0  0
  1  2  1  0
  2  3  2  0
  2  4  1  0
  4  5  1  0
  5  6  1  0
  6  7  1  0
  7  8  1  0
  8  9  1  0
  8  5  1  0
  1 10  1  0
  1 11  1  0
  1 12  1  0
  5 13  1  0
  6 14  1  0
  6 15  1  0
  7 16  1  0
  7 17  1  0
  8 18  1  0
  9 19  1  0
  9 20  1  0
  9 21  1  0
M  END
