
     RDKit          3D

 18 17  0  0  0  0  0  0  0  0999 V2000
    2.6751   -0.4287   -0.5841 C   0  0  0  0  0  0  0  0  0  0  0  0
    1.3101   -0.4613   -0.0334 C   0  0  0  0  0  0  0  0  0  0  0  0
    0.9940   -1.3476    0.7177 O   0  0  0  0  0  0  0  0  0  0  0  0
    0.3317    0.5798   -0.3940 C   0  0  0  0  0  0  0  0  0  0  0  0
   -1.0133    0.3376    0.2978 C   0  0  0  0  0  0  0  0  0  0  0  0
   -1.5998   -0.9818   -0.0856 C   0  0  0  0  0  0  0  0  0  0  0  0
   -1.9194    1.4204   -0.1477 C   0  0  0  0  0  0  0  0  0  0  0  0
   -2.6738    1.2164   -1.0701 O   0  0  0  0  0  0  0  0  0  0  0  0
    3.4309   -0.8448    0.1280 H   0  0  0  0  0  0  0  0  0  0  0  0
    2.7116   -1.0715   -1.4976 H   0  0  0  0  0  0  0  0  0  0  0  0
    2.9430    0.6230   -0.8552 H   0  0  0  0  0  0  0  0  0  0  0  0
    0.7383    1.5675   -0.0929 H   0  0  0  0  0  0  0  0  0  0  0  0
    0.1940    0.5337   -1.5026 H   0  0  0  0  0  0  0  0  0  0  0  0
   -0.8402    0.4011    1.3907 H   0  0  0  0  0  0  0  0  0  0  0  0
   -2.7223   -0.8755   -0.0370 H   0  0  0  0  0  0  0  0  0  0  0  0
   -1.3805   -1.2106   -1.1457 H   0  0  0  0  0  0  0  0  0  0  0  0
   -1.2867   -1.8276    0.5333 H   0  0  0  0  0  0  0  0  0  0  0  0
   -1.8927    2.3699    0.3549 H   0  0  0  0  0  0  0  0  0  0  0  0
  1  2  1  0
  2  3  2  0
  2  4  1  0
  4  5  1  0
  5  6  1  0
  5  7  1  0
  7  8  2  0
  1  9  1  0
  1 10  1  0
  1 11  1  0
  4 12  1  0
  4 13  1  0
  5 14  1  0
  6 15  1  0
  6 16  1  0
  6 17  1  0
  7 18  1  0
M  END
