
     RDKit          3D

 19 20  0  0  0  0  0  0  0  0999 V2000
   -2.4148    0.5696   -0.0797 C   0  0  0  0  0  0  0  0  0  0  0  0
   -0.9865    0.8508    0.3207 C   0  0  0  0  0  0  0  0  0  0  0  0
   -0.8694    1.8712    1.0203 O   0  0  0  0  0  0  0  0  0  0  0  0
    0.0269    0.0572   -0.0592 C   0  0  0  0  0  0  0  0  0  0  0  0
    0.2285   -1.4055    0.2305 C   0  0  0  0  0  0  0  0  0  0  0  0
    1.4156   -1.0378   -0.6173 C   0  0  0  0  0  0  0  0  0  0  0  0
    0.4481   -0.2757   -1.4773 C   0  0  0  0  0  0  0  0  0  0  0  0
    1.4811    0.2172    0.2184 C   0  0  0  0  0  0  0  0  0  0  0  0
    2.0159    1.2609   -0.5203 O   0  0  0  0  0  0  0  0  0  0  0  0
   -2.8792   -0.1822    0.5591 H   0  0  0  0  0  0  0  0  0  0  0  0
   -3.0220    1.4705   -0.1207 H   0  0  0  0  0  0  0  0  0  0  0  0
   -2.3604    0.1652   -1.1219 H   0  0  0  0  0  0  0  0  0  0  0  0
   -0.5078   -2.0279   -0.2784 H   0  0  0  0  0  0  0  0  0  0  0  0
    0.4909   -1.6628    1.2633 H   0  0  0  0  0  0  0  0  0  0  0  0
    2.1735   -1.6190   -0.9019 H   0  0  0  0  0  0  0  0  0  0  0  0
    0.8497    0.5864   -2.0195 H   0  0  0  0  0  0  0  0  0  0  0  0
   -0.2264   -0.9416   -2.0144 H   0  0  0  0  0  0  0  0  0  0  0  0
    1.8254    0.1031    1.2450 H   0  0  0  0  0  0  0  0  0  0  0  0
    2.3106    2.0003    0.0670 H   0  0  0  0  0  0  0  0  0  0  0  0
  1  2  1  0
  2  3  2  0
  2  4  1  0
  4  5  1  0
  5  6  1  0
  6  7  1  0
  6  8  1  0
  8  9  1  0
  7  4  1  0
  8  4  1  0
  1 10  1  0
  1 11  1  0
  1 12  1  0
  5 13  1  0
  5 14  1  0
  6 15  1  0
  7 16  1  0
  7 17  1  0
  8 18  1  0
  9 19  1  0
M  END
