
     RDKit          3D

 21 21  0  0  0  0  0  0  0  0999 V2000
   -1.0928    2.4281   -0.0618 C   0  0  0  0  0  0  0  0  0  0  0  0
   -0.0972    1.4393    0.4478 C   0  0  0  0  0  0  0  0  0  0  0  0
    0.9350    1.9091    0.8877 O   0  0  0  0  0  0  0  0  0  0  0  0
   -0.2836   -0.0066    0.4494 C   0  0  0  0  0  0  0  0  0  0  0  0
   -0.5072   -0.6572   -0.8934 C   0  0  0  0  0  0  0  0  0  0  0  0
   -1.3031   -1.9407   -0.8535 C   0  0  0  0  0  0  0  0  0  0  0  0
    0.8667   -0.9773   -0.9967 O   0  0  0  0  0  0  0  0  0  0  0  0
    0.9488   -0.8388    0.3987 C   0  0  0  0  0  0  0  0  0  0  0  0
    2.2592   -0.1934    0.7565 C   0  0  0  0  0  0  0  0  0  0  0  0
   -1.6502    2.8772    0.7945 H   0  0  0  0  0  0  0  0  0  0  0  0
   -1.7922    1.9840   -0.7949 H   0  0  0  0  0  0  0  0  0  0  0  0
   -0.5792    3.2850   -0.5573 H   0  0  0  0  0  0  0  0  0  0  0  0
   -1.0613   -0.3993    1.1629 H   0  0  0  0  0  0  0  0  0  0  0  0
   -0.7657    0.0456   -1.6987 H   0  0  0  0  0  0  0  0  0  0  0  0
   -1.0113   -2.6476   -1.6494 H   0  0  0  0  0  0  0  0  0  0  0  0
   -1.1280   -2.4311    0.1058 H   0  0  0  0  0  0  0  0  0  0  0  0
   -2.3934   -1.7704   -0.9489 H   0  0  0  0  0  0  0  0  0  0  0  0
    0.8366   -1.8111    0.9377 H   0  0  0  0  0  0  0  0  0  0  0  0
    2.2026    0.1910    1.7970 H   0  0  0  0  0  0  0  0  0  0  0  0
    3.0417   -1.0120    0.7147 H   0  0  0  0  0  0  0  0  0  0  0  0
    2.5748    0.5263    0.0019 H   0  0  0  0  0  0  0  0  0  0  0  0
  1  2  1  0
  2  3  2  0
  2  4  1  0
  4  5  1  0
  5  6  1  0
  5  7  1  0
  7  8  1  0
  8  9  1  0
  8  4  1  0
  1 10  1  0
  1 11  1  0
  1 12  1  0
  4 13  1  0
  5 14  1  0
  6 15  1  0
  6 16  1  0
  6 17  1  0
  8 18  1  0
  9 19  1  0
  9 20  1  0
  9 21  1  0
M  END
