
     RDKit          3D

 19 19  0  0  0  0  0  0  0  0999 V2000
    2.8178    0.3269    0.0123 C   0  0  0  0  0  0  0  0  0  0  0  0
    1.4998   -0.1500   -0.4776 C   0  0  0  0  0  0  0  0  0  0  0  0
    1.4730   -0.7623   -1.5313 O   0  0  0  0  0  0  0  0  0  0  0  0
    0.2655    0.1160    0.2974 C   0  0  0  0  0  0  0  0  0  0  0  0
   -0.6912   -1.0969    0.4145 C   0  0  0  0  0  0  0  0  0  0  0  0
   -1.3430   -1.2636    1.6213 O   0  0  0  0  0  0  0  0  0  0  0  0
   -1.0287    0.1298   -0.4277 C   0  0  0  0  0  0  0  0  0  0  0  0
   -2.2032    0.9013    0.0678 C   0  0  0  0  0  0  0  0  0  0  0  0
   -0.9329   -0.0109   -1.8160 O   0  0  0  0  0  0  0  0  0  0  0  0
    3.6565   -0.0888   -0.5435 H   0  0  0  0  0  0  0  0  0  0  0  0
    2.9155   -0.0099    1.0745 H   0  0  0  0  0  0  0  0  0  0  0  0
    2.8187    1.4312   -0.0776 H   0  0  0  0  0  0  0  0  0  0  0  0
    0.4013    0.6816    1.2424 H   0  0  0  0  0  0  0  0  0  0  0  0
   -0.4139   -2.0013   -0.1714 H   0  0  0  0  0  0  0  0  0  0  0  0
   -1.2486   -2.2087    1.8997 H   0  0  0  0  0  0  0  0  0  0  0  0
   -2.7075    0.4235    0.9538 H   0  0  0  0  0  0  0  0  0  0  0  0
   -2.9696    0.9561   -0.7262 H   0  0  0  0  0  0  0  0  0  0  0  0
   -1.9673    1.9418    0.3604 H   0  0  0  0  0  0  0  0  0  0  0  0
   -0.3421    0.6842   -2.1728 H   0  0  0  0  0  0  0  0  0  0  0  0
  1  2  1  0
  2  3  2  0
  2  4  1  0
  4  5  1  0
  5  6  1  0
  5  7  1  0
  7  8  1  0
  7  9  1  0
  7  4  1  0
  1 10  1  0
  1 11  1  0
  1 12  1  0
  4 13  1  0
  5 14  1  0
  6 15  1  0
  8 16  1  0
  8 17  1  0
  8 18  1  0
  9 19  1  0
M  END
