
     RDKit          3D

 16 16  0  0  0  0  0  0  0  0999 V2000
    2.1193    0.4102   -0.0136 C   0  0  0  0  0  0  0  0  0  0  0  0
    0.8830   -0.0318   -0.8017 C   0  0  0  0  0  0  0  0  0  0  0  0
    0.9676   -0.1749   -1.9589 O   0  0  0  0  0  0  0  0  0  0  0  0
   -0.3705   -0.2251   -0.0026 C   0  0  0  0  0  0  0  0  0  0  0  0
   -0.2848   -1.3064    0.9814 C   0  0  0  0  0  0  0  0  0  0  0  0
   -0.6091   -1.0344    2.1169 O   0  0  0  0  0  0  0  0  0  0  0  0
   -1.6481   -0.1408   -0.7590 C   0  0  0  0  0  0  0  0  0  0  0  0
   -1.2846    0.8867    0.2679 C   0  0  0  0  0  0  0  0  0  0  0  0
    1.8398    0.6672    1.0593 H   0  0  0  0  0  0  0  0  0  0  0  0
    2.4556    1.3698   -0.4489 H   0  0  0  0  0  0  0  0  0  0  0  0
    2.9245   -0.2843    0.0428 H   0  0  0  0  0  0  0  0  0  0  0  0
    0.0342   -2.2887    0.6643 H   0  0  0  0  0  0  0  0  0  0  0  0
   -1.5559    0.1790   -1.8464 H   0  0  0  0  0  0  0  0  0  0  0  0
   -2.5119   -0.7621   -0.4884 H   0  0  0  0  0  0  0  0  0  0  0  0
   -1.7922    0.8136    1.2738 H   0  0  0  0  0  0  0  0  0  0  0  0
   -1.1669    1.9221   -0.0869 H   0  0  0  0  0  0  0  0  0  0  0  0
  1  2  1  0
  2  3  2  0
  2  4  1  0
  4  5  1  0
  5  6  2  0
  4  7  1  0
  7  8  1  0
  8  4  1  0
  1  9  1  0
  1 10  1  0
  1 11  1  0
  5 12  1  0
  7 13  1  0
  7 14  1  0
  8 15  1  0
  8 16  1  0
M  END
