
     RDKit          3D

 21 20  0  0  0  0  0  0  0  0999 V2000
    2.8040    2.7475    0.0234 C   0  0  0  0  0  0  0  0  0  0  0  0
    1.4925    2.1251   -0.3800 C   0  0  0  0  0  0  0  0  0  0  0  0
    1.1031    2.0862   -1.4863 O   0  0  0  0  0  0  0  0  0  0  0  0
    0.7099    1.5519    0.7519 C   0  0  0  0  0  0  0  0  0  0  0  0
    0.0836    0.2701    0.3083 C   0  0  0  0  0  0  0  0  0  0  0  0
   -0.4643   -0.8982   -0.0810 C   0  0  0  0  0  0  0  0  0  0  0  0
   -1.0272   -2.0635   -0.4519 C   0  0  0  0  0  0  0  0  0  0  0  0
   -2.4013   -1.8505   -1.0450 C   0  0  0  0  0  0  0  0  0  0  0  0
   -1.1196   -2.9648    0.8253 C   0  0  0  0  0  0  0  0  0  0  0  0
    2.7647    3.8719   -0.1123 H   0  0  0  0  0  0  0  0  0  0  0  0
    3.1079    2.4762    1.0331 H   0  0  0  0  0  0  0  0  0  0  0  0
    3.5009    2.4249   -0.7818 H   0  0  0  0  0  0  0  0  0  0  0  0
    0.0012    2.1768    1.2607 H   0  0  0  0  0  0  0  0  0  0  0  0
    1.4802    1.2141    1.5387 H   0  0  0  0  0  0  0  0  0  0  0  0
   -0.3828   -2.6836   -1.1698 H   0  0  0  0  0  0  0  0  0  0  0  0
   -3.1969   -2.4500   -0.4993 H   0  0  0  0  0  0  0  0  0  0  0  0
   -2.4952   -2.1160   -2.1027 H   0  0  0  0  0  0  0  0  0  0  0  0
   -2.7015   -0.7930   -0.9501 H   0  0  0  0  0  0  0  0  0  0  0  0
   -0.7391   -2.2952    1.6595 H   0  0  0  0  0  0  0  0  0  0  0  0
   -0.3918   -3.7813    0.6758 H   0  0  0  0  0  0  0  0  0  0  0  0
   -2.1284   -3.3253    0.9835 H   0  0  0  0  0  0  0  0  0  0  0  0
  1  2  1  0
  2  3  2  0
  2  4  1  0
  4  5  1  0
  5  6  3  0
  6  7  1  0
  7  8  1  0
  7  9  1  0
  1 10  1  0
  1 11  1  0
  1 12  1  0
  4 13  1  0
  4 14  1  0
  7 15  1  0
  8 16  1  0
  8 17  1  0
  8 18  1  0
  9 19  1  0
  9 20  1  0
  9 21  1  0
M  END
