
     RDKit          3D

 21 21  0  0  0  0  0  0  0  0999 V2000
    3.1539    0.0224   -0.2423 C   0  0  0  0  0  0  0  0  0  0  0  0
    1.6787   -0.0804   -0.2767 C   0  0  0  0  0  0  0  0  0  0  0  0
    1.1422   -0.3132   -1.3332 O   0  0  0  0  0  0  0  0  0  0  0  0
    0.8723    0.0934    0.9327 C   0  0  0  0  0  0  0  0  0  0  0  0
   -0.5916   -0.0264    0.7721 C   0  0  0  0  0  0  0  0  0  0  0  0
   -1.0025   -1.3832    0.2436 C   0  0  0  0  0  0  0  0  0  0  0  0
   -1.4060   -0.8556   -0.9794 O   0  0  0  0  0  0  0  0  0  0  0  0
   -1.2699    0.4296   -0.4533 C   0  0  0  0  0  0  0  0  0  0  0  0
   -2.6794    0.9542   -0.1432 C   0  0  0  0  0  0  0  0  0  0  0  0
    3.5848   -0.2108    0.7482 H   0  0  0  0  0  0  0  0  0  0  0  0
    3.5088    1.0516   -0.4925 H   0  0  0  0  0  0  0  0  0  0  0  0
    3.6476   -0.6512   -0.9669 H   0  0  0  0  0  0  0  0  0  0  0  0
    1.1861   -0.6800    1.6973 H   0  0  0  0  0  0  0  0  0  0  0  0
    1.1112    1.0657    1.4459 H   0  0  0  0  0  0  0  0  0  0  0  0
   -1.1063    0.2839    1.7035 H   0  0  0  0  0  0  0  0  0  0  0  0
   -0.1709   -2.0977    0.0723 H   0  0  0  0  0  0  0  0  0  0  0  0
   -1.8195   -1.7900    0.8723 H   0  0  0  0  0  0  0  0  0  0  0  0
   -0.7210    1.0748   -1.1628 H   0  0  0  0  0  0  0  0  0  0  0  0
   -2.6849    2.0180    0.0891 H   0  0  0  0  0  0  0  0  0  0  0  0
   -3.0456    0.4095    0.7522 H   0  0  0  0  0  0  0  0  0  0  0  0
   -3.3880    0.6855   -0.9678 H   0  0  0  0  0  0  0  0  0  0  0  0
  1  2  1  0
  2  3  2  0
  2  4  1  0
  4  5  1  0
  5  6  1  0
  6  7  1  0
  7  8  1  0
  8  9  1  0
  8  5  1  0
  1 10  1  0
  1 11  1  0
  1 12  1  0
  4 13  1  0
  4 14  1  0
  5 15  1  0
  6 16  1  0
  6 17  1  0
  8 18  1  0
  9 19  1  0
  9 20  1  0
  9 21  1  0
M  END
