
     RDKit          3D

 17 18  0  0  0  0  0  0  0  0999 V2000
    3.1358    0.7530    0.1149 C   0  0  0  0  0  0  0  0  0  0  0  0
    2.0238   -0.2279    0.3131 C   0  0  0  0  0  0  0  0  0  0  0  0
    2.2340   -1.4384    0.5431 O   0  0  0  0  0  0  0  0  0  0  0  0
    0.6882    0.1733    0.2487 O   0  0  0  0  0  0  0  0  0  0  0  0
   -0.3905   -0.7115    0.4282 C   0  0  0  0  0  0  0  0  0  0  0  0
   -1.5978   -0.5558   -0.4132 C   0  0  0  0  0  0  0  0  0  0  0  0
   -2.4669    0.6538   -0.3632 C   0  0  0  0  0  0  0  0  0  0  0  0
   -1.9870    1.0663    0.8533 O   0  0  0  0  0  0  0  0  0  0  0  0
   -1.6066   -0.2682    1.1021 C   0  0  0  0  0  0  0  0  0  0  0  0
    4.0116    0.2532   -0.3918 H   0  0  0  0  0  0  0  0  0  0  0  0
    2.8046    1.6202   -0.4847 H   0  0  0  0  0  0  0  0  0  0  0  0
    3.5167    1.0880    1.0915 H   0  0  0  0  0  0  0  0  0  0  0  0
   -0.0571   -1.7614    0.6262 H   0  0  0  0  0  0  0  0  0  0  0  0
   -2.1026   -1.4768   -0.7589 H   0  0  0  0  0  0  0  0  0  0  0  0
   -2.3725    1.3589   -1.2123 H   0  0  0  0  0  0  0  0  0  0  0  0
   -3.5600    0.3905   -0.2649 H   0  0  0  0  0  0  0  0  0  0  0  0
   -2.2737   -0.9170    1.6802 H   0  0  0  0  0  0  0  0  0  0  0  0
  1  2  1  0
  2  3  2  0
  2  4  1  0
  4  5  1  0
  5  6  1  0
  6  7  1  0
  7  8  1  0
  8  9  1  0
  9  5  1  0
  9  6  1  0
  1 10  1  0
  1 11  1  0
  1 12  1  0
  5 13  1  0
  6 14  1  0
  7 15  1  0
  7 16  1  0
  9 17  1  0
M  END
