
     RDKit          3D

 17 17  0  0  0  0  0  0  0  0999 V2000
    2.3014   -0.2314    0.1743 C   0  0  0  0  0  0  0  0  0  0  0  0
    0.9491   -0.8288    0.1272 C   0  0  0  0  0  0  0  0  0  0  0  0
    0.7619   -1.8471    0.7523 O   0  0  0  0  0  0  0  0  0  0  0  0
   -0.1044   -0.1814   -0.6606 C   0  0  0  0  0  0  0  0  0  0  0  0
   -1.4475   -0.8423   -0.6617 C   0  0  0  0  0  0  0  0  0  0  0  0
   -1.8450    0.0587    0.4587 C   0  0  0  0  0  0  0  0  0  0  0  0
   -2.6866   -0.0169    1.3388 O   0  0  0  0  0  0  0  0  0  0  0  0
   -0.7862    0.9992   -0.0125 C   0  0  0  0  0  0  0  0  0  0  0  0
   -0.1009    1.5600    1.0595 O   0  0  0  0  0  0  0  0  0  0  0  0
    2.7986   -0.4987    1.1330 H   0  0  0  0  0  0  0  0  0  0  0  0
    2.2030    0.8753    0.0975 H   0  0  0  0  0  0  0  0  0  0  0  0
    2.9233   -0.5944   -0.6900 H   0  0  0  0  0  0  0  0  0  0  0  0
    0.2737    0.0205   -1.6981 H   0  0  0  0  0  0  0  0  0  0  0  0
   -1.4568   -1.9184   -0.4062 H   0  0  0  0  0  0  0  0  0  0  0  0
   -1.9896   -0.5872   -1.6164 H   0  0  0  0  0  0  0  0  0  0  0  0
   -1.1258    1.7251   -0.7841 H   0  0  0  0  0  0  0  0  0  0  0  0
   -0.6682    2.3079    1.3885 H   0  0  0  0  0  0  0  0  0  0  0  0
  1  2  1  0
  2  3  2  0
  2  4  1  0
  4  5  1  0
  5  6  1  0
  6  7  2  0
  6  8  1  0
  8  9  1  0
  8  4  1  0
  1 10  1  0
  1 11  1  0
  1 12  1  0
  4 13  1  0
  5 14  1  0
  5 15  1  0
  8 16  1  0
  9 17  1  0
M  END
