
     RDKit          3D

 17 17  0  0  0  0  0  0  0  0999 V2000
    2.7800    0.3907   -0.5650 C   0  0  0  0  0  0  0  0  0  0  0  0
    1.6495    0.5372    0.3893 C   0  0  0  0  0  0  0  0  0  0  0  0
    1.6758    1.3954    1.2377 O   0  0  0  0  0  0  0  0  0  0  0  0
    0.4998   -0.3631    0.2997 C   0  0  0  0  0  0  0  0  0  0  0  0
   -0.5105   -0.1492    1.2364 O   0  0  0  0  0  0  0  0  0  0  0  0
   -1.4009   -0.6299    0.2766 C   0  0  0  0  0  0  0  0  0  0  0  0
   -2.7593    0.0215    0.2931 C   0  0  0  0  0  0  0  0  0  0  0  0
   -0.4881   -0.0650   -0.7568 C   0  0  0  0  0  0  0  0  0  0  0  0
   -0.5564    0.3964   -1.8841 O   0  0  0  0  0  0  0  0  0  0  0  0
    3.7465    0.6559   -0.0670 H   0  0  0  0  0  0  0  0  0  0  0  0
    2.7951   -0.6144   -0.9938 H   0  0  0  0  0  0  0  0  0  0  0  0
    2.5736    1.1125   -1.3951 H   0  0  0  0  0  0  0  0  0  0  0  0
    0.7374   -1.4569    0.2868 H   0  0  0  0  0  0  0  0  0  0  0  0
   -1.4278   -1.7286    0.3137 H   0  0  0  0  0  0  0  0  0  0  0  0
   -3.4150   -0.5212    0.9970 H   0  0  0  0  0  0  0  0  0  0  0  0
   -3.2250   -0.0788   -0.7086 H   0  0  0  0  0  0  0  0  0  0  0  0
   -2.6746    1.0977    0.5371 H   0  0  0  0  0  0  0  0  0  0  0  0
  1  2  1  0
  2  3  2  0
  2  4  1  0
  4  5  1  0
  5  6  1  0
  6  7  1  0
  6  8  1  0
  8  9  2  0
  8  4  1  0
  1 10  1  0
  1 11  1  0
  1 12  1  0
  4 13  1  0
  6 14  1  0
  7 15  1  0
  7 16  1  0
  7 17  1  0
M  END
