
     RDKit          3D

 16 15  0  0  0  0  0  0  0  0999 V2000
    2.7497    0.7531   -0.3833 C   0  0  0  0  0  0  0  0  0  0  0  0
    1.6325    0.1710    0.4086 C   0  0  0  0  0  0  0  0  0  0  0  0
    1.8057   -0.1117    1.6272 O   0  0  0  0  0  0  0  0  0  0  0  0
    0.3843   -0.0846   -0.1270 O   0  0  0  0  0  0  0  0  0  0  0  0
   -0.6327   -0.6420    0.6931 C   0  0  0  0  0  0  0  0  0  0  0  0
   -1.9142   -0.8487   -0.0572 C   0  0  0  0  0  0  0  0  0  0  0  0
   -2.4277    0.4332   -0.5864 C   0  0  0  0  0  0  0  0  0  0  0  0
   -1.8057    1.4520   -0.3762 O   0  0  0  0  0  0  0  0  0  0  0  0
    3.6790    0.3047   -0.0023 H   0  0  0  0  0  0  0  0  0  0  0  0
    2.6815    0.5015   -1.4545 H   0  0  0  0  0  0  0  0  0  0  0  0
    2.8342    1.8415   -0.2631 H   0  0  0  0  0  0  0  0  0  0  0  0
   -0.3071   -1.5367    1.2387 H   0  0  0  0  0  0  0  0  0  0  0  0
   -0.8471    0.1490    1.4689 H   0  0  0  0  0  0  0  0  0  0  0  0
   -2.6604   -1.2358    0.6739 H   0  0  0  0  0  0  0  0  0  0  0  0
   -1.8266   -1.5946   -0.8707 H   0  0  0  0  0  0  0  0  0  0  0  0
   -3.3455    0.4482   -1.1510 H   0  0  0  0  0  0  0  0  0  0  0  0
  1  2  1  0
  2  3  2  0
  2  4  1  0
  4  5  1  0
  5  6  1  0
  6  7  1  0
  7  8  2  0
  1  9  1  0
  1 10  1  0
  1 11  1  0
  5 12  1  0
  5 13  1  0
  6 14  1  0
  6 15  1  0
  7 16  1  0
M  END
