
     RDKit          3D

 21 21  0  0  0  0  0  0  0  0999 V2000
    2.1692   -1.3021    0.3051 C   0  0  0  0  0  0  0  0  0  0  0  0
    1.4255   -0.3036   -0.4859 C   0  0  0  0  0  0  0  0  0  0  0  0
    1.8234   -0.0275   -1.6073 O   0  0  0  0  0  0  0  0  0  0  0  0
    0.2087    0.4045   -0.0156 C   0  0  0  0  0  0  0  0  0  0  0  0
    0.4761    1.8922   -0.1761 C   0  0  0  0  0  0  0  0  0  0  0  0
   -0.9083    0.0593   -0.9798 C   0  0  0  0  0  0  0  0  0  0  0  0
   -1.8437   -0.7287   -0.0883 C   0  0  0  0  0  0  0  0  0  0  0  0
   -1.5456   -0.1461    1.2585 C   0  0  0  0  0  0  0  0  0  0  0  0
   -0.1875    0.0574    1.2387 O   0  0  0  0  0  0  0  0  0  0  0  0
    3.2637   -1.1876    0.0571 H   0  0  0  0  0  0  0  0  0  0  0  0
    2.0645   -1.1573    1.4077 H   0  0  0  0  0  0  0  0  0  0  0  0
    1.8851   -2.3198   -0.0216 H   0  0  0  0  0  0  0  0  0  0  0  0
   -0.2260    2.4868    0.4436 H   0  0  0  0  0  0  0  0  0  0  0  0
    0.3577    2.1399   -1.2532 H   0  0  0  0  0  0  0  0  0  0  0  0
    1.5071    2.1338    0.1016 H   0  0  0  0  0  0  0  0  0  0  0  0
   -1.4460    0.9719   -1.3226 H   0  0  0  0  0  0  0  0  0  0  0  0
   -0.5584   -0.5120   -1.8533 H   0  0  0  0  0  0  0  0  0  0  0  0
   -1.5969   -1.8060   -0.0565 H   0  0  0  0  0  0  0  0  0  0  0  0
   -2.8732   -0.5363   -0.4435 H   0  0  0  0  0  0  0  0  0  0  0  0
   -1.8509   -0.8830    2.0464 H   0  0  0  0  0  0  0  0  0  0  0  0
   -2.1444    0.7644    1.4448 H   0  0  0  0  0  0  0  0  0  0  0  0
  1  2  1  0
  2  3  2  0
  2  4  1  0
  4  5  1  0
  4  6  1  0
  6  7  1  0
  7  8  1  0
  8  9  1  0
  9  4  1  0
  1 10  1  0
  1 11  1  0
  1 12  1  0
  5 13  1  0
  5 14  1  0
  5 15  1  0
  6 16  1  0
  6 17  1  0
  7 18  1  0
  7 19  1  0
  8 20  1  0
  8 21  1  0
M  END
