
     RDKit          3D

 14 14  0  0  0  0  0  0  0  0999 V2000
   -2.5085   -0.0694   -0.2476 C   0  0  0  0  0  0  0  0  0  0  0  0
   -1.1953   -0.4332    0.3385 C   0  0  0  0  0  0  0  0  0  0  0  0
   -1.1863   -1.2552    1.2950 O   0  0  0  0  0  0  0  0  0  0  0  0
    0.0458    0.1347   -0.1673 C   0  0  0  0  0  0  0  0  0  0  0  0
   -0.0359    0.9476   -1.1224 O   0  0  0  0  0  0  0  0  0  0  0  0
    1.3381   -0.2310    0.4186 C   0  0  0  0  0  0  0  0  0  0  0  0
    2.5715    0.4996    0.1884 C   0  0  0  0  0  0  0  0  0  0  0  0
    2.2992   -0.6302   -0.5773 O   0  0  0  0  0  0  0  0  0  0  0  0
   -2.4362    0.0675   -1.3645 H   0  0  0  0  0  0  0  0  0  0  0  0
   -3.2766   -0.8499   -0.0672 H   0  0  0  0  0  0  0  0  0  0  0  0
   -2.8728    0.8996    0.1972 H   0  0  0  0  0  0  0  0  0  0  0  0
    1.3059   -0.9537    1.2547 H   0  0  0  0  0  0  0  0  0  0  0  0
    2.5651    1.5038   -0.3136 H   0  0  0  0  0  0  0  0  0  0  0  0
    3.3859    0.3697    0.9309 H   0  0  0  0  0  0  0  0  0  0  0  0
  1  2  1  0
  2  3  2  0
  2  4  1  0
  4  5  2  0
  4  6  1  0
  6  7  1  0
  7  8  1  0
  8  6  1  0
  1  9  1  0
  1 10  1  0
  1 11  1  0
  6 12  1  0
  7 13  1  0
  7 14  1  0
M  END
