
     RDKit          3D

 18 18  0  0  0  0  0  0  0  0999 V2000
    2.4566    0.0184    0.6247 C   0  0  0  0  0  0  0  0  0  0  0  0
    1.3532    0.6496   -0.1502 C   0  0  0  0  0  0  0  0  0  0  0  0
    1.6474    1.3864   -1.0618 O   0  0  0  0  0  0  0  0  0  0  0  0
   -0.0351    0.3255    0.2566 C   0  0  0  0  0  0  0  0  0  0  0  0
   -1.0564    1.0331   -0.6128 C   0  0  0  0  0  0  0  0  0  0  0  0
   -2.2580    0.1416   -0.3950 C   0  0  0  0  0  0  0  0  0  0  0  0
   -1.8781   -1.0777   -0.0531 C   0  0  0  0  0  0  0  0  0  0  0  0
   -0.4023   -1.1126   -0.0131 C   0  0  0  0  0  0  0  0  0  0  0  0
    3.0219   -0.7262    0.0230 H   0  0  0  0  0  0  0  0  0  0  0  0
    3.2250    0.7762    0.9468 H   0  0  0  0  0  0  0  0  0  0  0  0
    2.0914   -0.5257    1.5190 H   0  0  0  0  0  0  0  0  0  0  0  0
   -0.1579    0.6108    1.3152 H   0  0  0  0  0  0  0  0  0  0  0  0
   -1.3402    2.0193   -0.1912 H   0  0  0  0  0  0  0  0  0  0  0  0
   -0.7653    1.0843   -1.6628 H   0  0  0  0  0  0  0  0  0  0  0  0
   -3.3092    0.4530   -0.5030 H   0  0  0  0  0  0  0  0  0  0  0  0
   -2.5804   -1.9114    0.1607 H   0  0  0  0  0  0  0  0  0  0  0  0
   -0.0020   -1.3958   -1.0061 H   0  0  0  0  0  0  0  0  0  0  0  0
   -0.0107   -1.7490    0.8031 H   0  0  0  0  0  0  0  0  0  0  0  0
  1  2  1  0
  2  3  2  0
  2  4  1  0
  4  5  1  0
  5  6  1  0
  6  7  2  0
  7  8  1  0
  8  4  1  0
  1  9  1  0
  1 10  1  0
  1 11  1  0
  4 12  1  0
  5 13  1  0
  5 14  1  0
  6 15  1  0
  7 16  1  0
  8 17  1  0
  8 18  1  0
M  END
