
     RDKit          3D

 19 19  0  0  0  0  0  0  0  0999 V2000
   -2.6345   -0.7620    0.0401 C   0  0  0  0  0  0  0  0  0  0  0  0
   -1.5573   -0.1482   -0.7582 C   0  0  0  0  0  0  0  0  0  0  0  0
   -1.8765    0.4196   -1.7898 O   0  0  0  0  0  0  0  0  0  0  0  0
   -0.1252   -0.1661   -0.4091 C   0  0  0  0  0  0  0  0  0  0  0  0
    0.4689    1.2029   -0.2607 C   0  0  0  0  0  0  0  0  0  0  0  0
    1.8600    1.1586    0.2285 C   0  0  0  0  0  0  0  0  0  0  0  0
    2.2550    0.0622    0.9089 O   0  0  0  0  0  0  0  0  0  0  0  0
    1.5109   -1.0658    0.8044 C   0  0  0  0  0  0  0  0  0  0  0  0
    0.1287   -0.8388    0.7851 O   0  0  0  0  0  0  0  0  0  0  0  0
   -2.3667   -0.8911    1.1074 H   0  0  0  0  0  0  0  0  0  0  0  0
   -3.4992   -0.0648    0.0095 H   0  0  0  0  0  0  0  0  0  0  0  0
   -2.9561   -1.7337   -0.3998 H   0  0  0  0  0  0  0  0  0  0  0  0
    0.4434   -0.6863   -1.2332 H   0  0  0  0  0  0  0  0  0  0  0  0
   -0.1971    1.8711    0.3466 H   0  0  0  0  0  0  0  0  0  0  0  0
    0.4553    1.6678   -1.2884 H   0  0  0  0  0  0  0  0  0  0  0  0
    2.5815    1.3308   -0.6178 H   0  0  0  0  0  0  0  0  0  0  0  0
    2.0184    2.0542    0.9003 H   0  0  0  0  0  0  0  0  0  0  0  0
    1.6976   -1.6957    1.7013 H   0  0  0  0  0  0  0  0  0  0  0  0
    1.7927   -1.7146   -0.0750 H   0  0  0  0  0  0  0  0  0  0  0  0
  1  2  1  0
  2  3  2  0
  2  4  1  0
  4  5  1  0
  5  6  1  0
  6  7  1  0
  7  8  1  0
  8  9  1  0
  9  4  1  0
  1 10  1  0
  1 11  1  0
  1 12  1  0
  4 13  1  0
  5 14  1  0
  5 15  1  0
  6 16  1  0
  6 17  1  0
  8 18  1  0
  8 19  1  0
M  END
