
     RDKit          3D

 21 22  0  0  0  0  0  0  0  0999 V2000
    2.9033   -0.0655   -0.0513 C   0  0  0  0  0  0  0  0  0  0  0  0
    1.6275    0.4348    0.4749 C   0  0  0  0  0  0  0  0  0  0  0  0
    1.5989    1.0989    1.4942 O   0  0  0  0  0  0  0  0  0  0  0  0
    0.3555    0.1450   -0.2175 C   0  0  0  0  0  0  0  0  0  0  0  0
   -0.8504    0.7336    0.4584 C   0  0  0  0  0  0  0  0  0  0  0  0
   -1.6423    1.5857   -0.4995 C   0  0  0  0  0  0  0  0  0  0  0  0
   -1.3976   -0.6511    0.7011 C   0  0  0  0  0  0  0  0  0  0  0  0
   -1.5415   -1.5908   -0.4172 C   0  0  0  0  0  0  0  0  0  0  0  0
   -0.1945   -1.2311    0.0803 C   0  0  0  0  0  0  0  0  0  0  0  0
    3.4720    0.6839   -0.6361 H   0  0  0  0  0  0  0  0  0  0  0  0
    3.5039   -0.4224    0.8333 H   0  0  0  0  0  0  0  0  0  0  0  0
    2.7254   -0.9475   -0.7068 H   0  0  0  0  0  0  0  0  0  0  0  0
    0.3846    0.2835   -1.3263 H   0  0  0  0  0  0  0  0  0  0  0  0
   -0.6091    1.2642    1.3906 H   0  0  0  0  0  0  0  0  0  0  0  0
   -2.3766    2.2443    0.0471 H   0  0  0  0  0  0  0  0  0  0  0  0
   -0.9197    2.2935   -0.9683 H   0  0  0  0  0  0  0  0  0  0  0  0
   -2.1396    0.9782   -1.2793 H   0  0  0  0  0  0  0  0  0  0  0  0
   -1.6902   -0.9548    1.7029 H   0  0  0  0  0  0  0  0  0  0  0  0
   -1.7638   -1.2790   -1.4536 H   0  0  0  0  0  0  0  0  0  0  0  0
   -1.8796   -2.6107   -0.1850 H   0  0  0  0  0  0  0  0  0  0  0  0
    0.4338   -1.9927    0.5578 H   0  0  0  0  0  0  0  0  0  0  0  0
  1  2  1  0
  2  3  2  0
  2  4  1  0
  4  5  1  0
  5  6  1  0
  5  7  1  0
  7  8  1  0
  8  9  1  0
  9  4  1  0
  9  7  1  0
  1 10  1  0
  1 11  1  0
  1 12  1  0
  4 13  1  0
  5 14  1  0
  6 15  1  0
  6 16  1  0
  6 17  1  0
  7 18  1  0
  8 19  1  0
  8 20  1  0
  9 21  1  0
M  END
