
     RDKit          3D

 21 21  0  0  0  0  0  0  0  0999 V2000
    2.2410    0.5968   -0.3865 C   0  0  0  0  0  0  0  0  0  0  0  0
    2.0206   -0.6183    0.4188 C   0  0  0  0  0  0  0  0  0  0  0  0
    2.8768   -1.0945    1.1421 O   0  0  0  0  0  0  0  0  0  0  0  0
    0.7019   -1.3501    0.3929 C   0  0  0  0  0  0  0  0  0  0  0  0
   -0.2109   -0.5778    1.2694 C   0  0  0  0  0  0  0  0  0  0  0  0
   -1.5138   -0.8870    1.5378 O   0  0  0  0  0  0  0  0  0  0  0  0
   -1.3974    0.0327    0.5123 C   0  0  0  0  0  0  0  0  0  0  0  0
   -1.5267    1.5009    0.7060 C   0  0  0  0  0  0  0  0  0  0  0  0
   -1.6992   -0.5036   -0.8822 C   0  0  0  0  0  0  0  0  0  0  0  0
    1.4660    1.3778   -0.1772 H   0  0  0  0  0  0  0  0  0  0  0  0
    2.2428    0.4347   -1.4649 H   0  0  0  0  0  0  0  0  0  0  0  0
    3.2264    1.0305   -0.0430 H   0  0  0  0  0  0  0  0  0  0  0  0
    0.8374   -2.4035    0.7054 H   0  0  0  0  0  0  0  0  0  0  0  0
    0.3872   -1.3217   -0.6632 H   0  0  0  0  0  0  0  0  0  0  0  0
    0.2705    0.0599    2.0548 H   0  0  0  0  0  0  0  0  0  0  0  0
   -2.5609    1.8441    0.8410 H   0  0  0  0  0  0  0  0  0  0  0  0
   -1.1554    1.9790   -0.2537 H   0  0  0  0  0  0  0  0  0  0  0  0
   -0.8456    1.8626    1.5187 H   0  0  0  0  0  0  0  0  0  0  0  0
   -1.0094   -0.1105   -1.6527 H   0  0  0  0  0  0  0  0  0  0  0  0
   -2.7504   -0.2422   -1.1147 H   0  0  0  0  0  0  0  0  0  0  0  0
   -1.6010   -1.6097   -0.8530 H   0  0  0  0  0  0  0  0  0  0  0  0
  1  2  1  0
  2  3  2  0
  2  4  1  0
  4  5  1  0
  5  6  1  0
  6  7  1  0
  7  8  1  0
  7  9  1  0
  7  5  1  0
  1 10  1  0
  1 11  1  0
  1 12  1  0
  4 13  1  0
  4 14  1  0
  5 15  1  0
  8 16  1  0
  8 17  1  0
  8 18  1  0
  9 19  1  0
  9 20  1  0
  9 21  1  0
M  END
