
     RDKit          3D

 21 21  0  0  0  0  0  0  0  0999 V2000
   -1.6008   -1.6786    0.3367 C   0  0  0  0  0  0  0  0  0  0  0  0
   -0.8531   -0.5314    0.8834 C   0  0  0  0  0  0  0  0  0  0  0  0
   -0.7643   -0.4443    2.0878 O   0  0  0  0  0  0  0  0  0  0  0  0
   -0.2225    0.5171    0.0495 C   0  0  0  0  0  0  0  0  0  0  0  0
    1.2720    0.6910    0.0154 C   0  0  0  0  0  0  0  0  0  0  0  0
    2.0606   -0.4876   -0.4135 C   0  0  0  0  0  0  0  0  0  0  0  0
    1.8693   -1.5203    0.5193 O   0  0  0  0  0  0  0  0  0  0  0  0
   -1.0443    0.9568   -1.0967 C   0  0  0  0  0  0  0  0  0  0  0  0
   -0.9669    1.8732    0.0745 C   0  0  0  0  0  0  0  0  0  0  0  0
   -1.2756   -1.9385   -0.7014 H   0  0  0  0  0  0  0  0  0  0  0  0
   -2.6938   -1.3364    0.2267 H   0  0  0  0  0  0  0  0  0  0  0  0
   -1.6299   -2.5013    1.0477 H   0  0  0  0  0  0  0  0  0  0  0  0
    1.4396    1.5126   -0.7704 H   0  0  0  0  0  0  0  0  0  0  0  0
    1.6213    1.0671    0.9699 H   0  0  0  0  0  0  0  0  0  0  0  0
    1.8501   -0.8956   -1.4091 H   0  0  0  0  0  0  0  0  0  0  0  0
    3.1333   -0.2092   -0.3406 H   0  0  0  0  0  0  0  0  0  0  0  0
    2.6435   -1.5635    1.1553 H   0  0  0  0  0  0  0  0  0  0  0  0
   -2.0442    0.4814   -1.2357 H   0  0  0  0  0  0  0  0  0  0  0  0
   -0.5888    1.2412   -2.0540 H   0  0  0  0  0  0  0  0  0  0  0  0
   -0.3927    2.7925   -0.1098 H   0  0  0  0  0  0  0  0  0  0  0  0
   -1.8129    1.9737    0.7652 H   0  0  0  0  0  0  0  0  0  0  0  0
  1  2  1  0
  2  3  2  0
  2  4  1  0
  4  5  1  0
  5  6  1  0
  6  7  1  0
  4  8  1  0
  8  9  1  0
  9  4  1  0
  1 10  1  0
  1 11  1  0
  1 12  1  0
  5 13  1  0
  5 14  1  0
  6 15  1  0
  6 16  1  0
  7 17  1  0
  8 18  1  0
  8 19  1  0
  9 20  1  0
  9 21  1  0
M  END
