
     RDKit          3D

 11 10  0  0  0  0  0  0  0  0999 V2000
   -1.5598   -0.0371   -0.2173 C   0  0  0  0  0  0  0  0  0  0  0  0
   -0.1629   -0.3163   -0.6322 C   0  0  0  0  0  0  0  0  0  0  0  0
    0.0588   -1.2088   -1.4269 O   0  0  0  0  0  0  0  0  0  0  0  0
    0.9811    0.4570   -0.1111 C   0  0  0  0  0  0  0  0  0  0  0  0
    2.1977    0.0271   -0.6328 O   0  0  0  0  0  0  0  0  0  0  0  0
   -1.5276    0.3551    0.8264 H   0  0  0  0  0  0  0  0  0  0  0  0
   -2.1609   -0.9729   -0.1727 H   0  0  0  0  0  0  0  0  0  0  0  0
   -2.0770    0.6571   -0.9161 H   0  0  0  0  0  0  0  0  0  0  0  0
    0.8721    1.5416   -0.3919 H   0  0  0  0  0  0  0  0  0  0  0  0
    1.0356    0.4290    1.0089 H   0  0  0  0  0  0  0  0  0  0  0  0
    2.3430   -0.9317   -0.3543 H   0  0  0  0  0  0  0  0  0  0  0  0
  1  2  1  0
  2  3  2  0
  2  4  1  0
  4  5  1  0
  1  6  1  0
  1  7  1  0
  1  8  1  0
  4  9  1  0
  4 10  1  0
  5 11  1  0
M  END
