
     RDKit          3D

 21 21  0  0  0  0  0  0  0  0999 V2000
    3.4905   -0.2294   -0.1019 C   0  0  0  0  0  0  0  0  0  0  0  0
    2.0605   -0.5572    0.1599 C   0  0  0  0  0  0  0  0  0  0  0  0
    1.7576   -1.6109    0.6431 O   0  0  0  0  0  0  0  0  0  0  0  0
    1.0601    0.4521   -0.1952 C   0  0  0  0  0  0  0  0  0  0  0  0
   -0.3440    0.1410    0.0571 C   0  0  0  0  0  0  0  0  0  0  0  0
   -0.8958   -0.9176    0.5632 C   0  0  0  0  0  0  0  0  0  0  0  0
   -2.3738   -0.7367    0.6096 C   0  0  0  0  0  0  0  0  0  0  0  0
   -2.6278    0.2212   -0.5282 C   0  0  0  0  0  0  0  0  0  0  0  0
   -1.4219    1.1535   -0.3094 C   0  0  0  0  0  0  0  0  0  0  0  0
    4.1326   -0.4968    0.7668 H   0  0  0  0  0  0  0  0  0  0  0  0
    3.8456   -0.7255   -1.0321 H   0  0  0  0  0  0  0  0  0  0  0  0
    3.6423    0.8596   -0.2643 H   0  0  0  0  0  0  0  0  0  0  0  0
    1.3517    1.3763    0.4110 H   0  0  0  0  0  0  0  0  0  0  0  0
    1.2240    0.8193   -1.2561 H   0  0  0  0  0  0  0  0  0  0  0  0
   -0.4318   -1.8531    0.9299 H   0  0  0  0  0  0  0  0  0  0  0  0
   -2.6606   -0.1955    1.5448 H   0  0  0  0  0  0  0  0  0  0  0  0
   -2.9167   -1.6911    0.4936 H   0  0  0  0  0  0  0  0  0  0  0  0
   -2.5701   -0.2766   -1.4968 H   0  0  0  0  0  0  0  0  0  0  0  0
   -3.5754    0.7817   -0.3779 H   0  0  0  0  0  0  0  0  0  0  0  0
   -1.5924    1.7763    0.5829 H   0  0  0  0  0  0  0  0  0  0  0  0
   -1.1547    1.7093   -1.2000 H   0  0  0  0  0  0  0  0  0  0  0  0
  1  2  1  0
  2  3  2  0
  2  4  1  0
  4  5  1  0
  5  6  2  0
  6  7  1  0
  7  8  1  0
  8  9  1  0
  9  5  1  0
  1 10  1  0
  1 11  1  0
  1 12  1  0
  4 13  1  0
  4 14  1  0
  6 15  1  0
  7 16  1  0
  7 17  1  0
  8 18  1  0
  8 19  1  0
  9 20  1  0
  9 21  1  0
M  END
