
     RDKit          3D

 23 23  0  0  0  0  0  0  0  0999 V2000
    2.9995   -0.7564   -0.0937 C   0  0  0  0  0  0  0  0  0  0  0  0
    1.9295    0.1680    0.3695 C   0  0  0  0  0  0  0  0  0  0  0  0
    2.1284    0.8841    1.3229 O   0  0  0  0  0  0  0  0  0  0  0  0
    0.6559    0.1869   -0.3453 C   0  0  0  0  0  0  0  0  0  0  0  0
   -0.1023   -1.1337   -0.3734 C   0  0  0  0  0  0  0  0  0  0  0  0
   -1.3492   -0.2660   -0.4185 C   0  0  0  0  0  0  0  0  0  0  0  0
   -2.4845   -0.9185    0.2766 C   0  0  0  0  0  0  0  0  0  0  0  0
   -0.5376    0.7223    0.4248 C   0  0  0  0  0  0  0  0  0  0  0  0
   -0.8279    2.1675    0.1447 C   0  0  0  0  0  0  0  0  0  0  0  0
    2.8973   -0.9809   -1.1946 H   0  0  0  0  0  0  0  0  0  0  0  0
    2.9017   -1.6845    0.4795 H   0  0  0  0  0  0  0  0  0  0  0  0
    4.0165   -0.3265    0.0194 H   0  0  0  0  0  0  0  0  0  0  0  0
    0.6768    0.6011   -1.3742 H   0  0  0  0  0  0  0  0  0  0  0  0
    0.0778   -1.7573   -1.2485 H   0  0  0  0  0  0  0  0  0  0  0  0
   -0.0304   -1.6308    0.6205 H   0  0  0  0  0  0  0  0  0  0  0  0
   -1.5128    0.0691   -1.4563 H   0  0  0  0  0  0  0  0  0  0  0  0
   -3.4440   -0.3899    0.1319 H   0  0  0  0  0  0  0  0  0  0  0  0
   -2.2262   -1.0940    1.3199 H   0  0  0  0  0  0  0  0  0  0  0  0
   -2.6252   -1.9373   -0.1889 H   0  0  0  0  0  0  0  0  0  0  0  0
   -0.5137    0.4067    1.4706 H   0  0  0  0  0  0  0  0  0  0  0  0
   -0.0007    2.6349   -0.4313 H   0  0  0  0  0  0  0  0  0  0  0  0
   -0.8329    2.6882    1.1420 H   0  0  0  0  0  0  0  0  0  0  0  0
   -1.7959    2.3472   -0.3341 H   0  0  0  0  0  0  0  0  0  0  0  0
  1  2  1  0
  2  3  2  0
  2  4  1  0
  4  5  1  0
  5  6  1  0
  6  7  1  0
  6  8  1  0
  8  9  1  0
  8  4  1  0
  1 10  1  0
  1 11  1  0
  1 12  1  0
  4 13  1  0
  5 14  1  0
  5 15  1  0
  6 16  1  0
  7 17  1  0
  7 18  1  0
  7 19  1  0
  8 20  1  0
  9 21  1  0
  9 22  1  0
  9 23  1  0
M  END
