
     RDKit          3D

 20 20  0  0  0  0  0  0  0  0999 V2000
   -2.4164    0.3589   -0.6247 C   0  0  0  0  0  0  0  0  0  0  0  0
   -1.4576    0.4610    0.5023 C   0  0  0  0  0  0  0  0  0  0  0  0
   -1.7611    1.1033    1.4677 O   0  0  0  0  0  0  0  0  0  0  0  0
   -0.1382   -0.2075    0.4504 C   0  0  0  0  0  0  0  0  0  0  0  0
    0.5686   -0.3170    1.7793 C   0  0  0  0  0  0  0  0  0  0  0  0
    0.1910   -1.2310   -0.5597 C   0  0  0  0  0  0  0  0  0  0  0  0
    0.6516    0.1631   -0.7805 C   0  0  0  0  0  0  0  0  0  0  0  0
    2.0866    0.5640   -0.6951 C   0  0  0  0  0  0  0  0  0  0  0  0
   -2.1484    1.1901   -1.3203 H   0  0  0  0  0  0  0  0  0  0  0  0
   -3.4385    0.4946   -0.2548 H   0  0  0  0  0  0  0  0  0  0  0  0
   -2.2975   -0.5724   -1.2187 H   0  0  0  0  0  0  0  0  0  0  0  0
   -0.1143   -0.1675    2.6343 H   0  0  0  0  0  0  0  0  0  0  0  0
    0.9405   -1.3722    1.8881 H   0  0  0  0  0  0  0  0  0  0  0  0
    1.3958    0.3953    1.8799 H   0  0  0  0  0  0  0  0  0  0  0  0
   -0.5570   -1.6753   -1.2284 H   0  0  0  0  0  0  0  0  0  0  0  0
    0.9840   -1.9593   -0.2701 H   0  0  0  0  0  0  0  0  0  0  0  0
    0.1056    0.6916   -1.6184 H   0  0  0  0  0  0  0  0  0  0  0  0
    2.5930    0.2331    0.2233 H   0  0  0  0  0  0  0  0  0  0  0  0
    2.1221    1.6720   -0.7016 H   0  0  0  0  0  0  0  0  0  0  0  0
    2.6902    0.1752   -1.5530 H   0  0  0  0  0  0  0  0  0  0  0  0
  1  2  1  0
  2  3  2  0
  2  4  1  0
  4  5  1  0
  4  6  1  0
  6  7  1  0
  7  8  1  0
  7  4  1  0
  1  9  1  0
  1 10  1  0
  1 11  1  0
  5 12  1  0
  5 13  1  0
  5 14  1  0
  6 15  1  0
  6 16  1  0
  7 17  1  0
  8 18  1  0
  8 19  1  0
  8 20  1  0
M  END
