
     RDKit          3D

 21 20  0  0  0  0  0  0  0  0999 V2000
    2.2517    0.4906   -0.3282 C   0  0  0  0  0  0  0  0  0  0  0  0
    1.1556   -0.0825    0.4936 C   0  0  0  0  0  0  0  0  0  0  0  0
    1.4242   -0.2795    1.6638 O   0  0  0  0  0  0  0  0  0  0  0  0
   -0.1829   -0.4136   -0.0014 C   0  0  0  0  0  0  0  0  0  0  0  0
   -0.1192   -1.4549   -1.1281 C   0  0  0  0  0  0  0  0  0  0  0  0
   -0.9300   -1.1318    1.1304 C   0  0  0  0  0  0  0  0  0  0  0  0
   -0.9392    0.7408   -0.4962 C   0  0  0  0  0  0  0  0  0  0  0  0
   -1.2802    1.9080    0.3633 C   0  0  0  0  0  0  0  0  0  0  0  0
   -1.3142    0.7700   -1.6511 O   0  0  0  0  0  0  0  0  0  0  0  0
    2.9577    1.0975    0.2744 H   0  0  0  0  0  0  0  0  0  0  0  0
    2.8275   -0.3633   -0.7486 H   0  0  0  0  0  0  0  0  0  0  0  0
    1.8942    1.1080   -1.1663 H   0  0  0  0  0  0  0  0  0  0  0  0
   -0.2823   -0.9475   -2.1194 H   0  0  0  0  0  0  0  0  0  0  0  0
    0.8487   -1.9707   -1.1483 H   0  0  0  0  0  0  0  0  0  0  0  0
   -0.9238   -2.1994   -1.0412 H   0  0  0  0  0  0  0  0  0  0  0  0
   -0.6094   -0.7091    2.1045 H   0  0  0  0  0  0  0  0  0  0  0  0
   -0.6384   -2.2080    1.1140 H   0  0  0  0  0  0  0  0  0  0  0  0
   -2.0090   -1.0647    1.0264 H   0  0  0  0  0  0  0  0  0  0  0  0
   -1.3235    2.8326   -0.2800 H   0  0  0  0  0  0  0  0  0  0  0  0
   -2.3007    1.8196    0.7975 H   0  0  0  0  0  0  0  0  0  0  0  0
   -0.5067    2.0577    1.1408 H   0  0  0  0  0  0  0  0  0  0  0  0
  1  2  1  0
  2  3  2  0
  2  4  1  0
  4  5  1  0
  4  6  1  0
  4  7  1  0
  7  8  1  0
  7  9  2  0
  1 10  1  0
  1 11  1  0
  1 12  1  0
  5 13  1  0
  5 14  1  0
  5 15  1  0
  6 16  1  0
  6 17  1  0
  6 18  1  0
  8 19  1  0
  8 20  1  0
  8 21  1  0
M  END
