
     RDKit          3D

 15 14  0  0  0  0  0  0  0  0999 V2000
   -3.2442   -0.2203   -0.1252 C   0  0  0  0  0  0  0  0  0  0  0  0
   -1.7782   -0.4098   -0.0400 C   0  0  0  0  0  0  0  0  0  0  0  0
   -1.2767   -1.5597    0.2156 O   0  0  0  0  0  0  0  0  0  0  0  0
   -0.8898    0.7205   -0.2480 C   0  0  0  0  0  0  0  0  0  0  0  0
   -1.3989    1.8403   -0.4974 O   0  0  0  0  0  0  0  0  0  0  0  0
    0.5335    0.5344   -0.1648 C   0  0  0  0  0  0  0  0  0  0  0  0
    1.7430    0.3898   -0.0776 C   0  0  0  0  0  0  0  0  0  0  0  0
    3.1945    0.2162    0.0186 C   0  0  0  0  0  0  0  0  0  0  0  0
    3.5896   -1.0137   -0.4895 O   0  0  0  0  0  0  0  0  0  0  0  0
   -3.4760    0.7076    0.4539 H   0  0  0  0  0  0  0  0  0  0  0  0
   -3.7198   -1.1118    0.3111 H   0  0  0  0  0  0  0  0  0  0  0  0
   -3.5815   -0.0640   -1.1652 H   0  0  0  0  0  0  0  0  0  0  0  0
    3.5358    0.2312    1.0954 H   0  0  0  0  0  0  0  0  0  0  0  0
    3.7387    1.0542   -0.4608 H   0  0  0  0  0  0  0  0  0  0  0  0
    3.0301   -1.3149   -1.2452 H   0  0  0  0  0  0  0  0  0  0  0  0
  1  2  1  0
  2  3  2  0
  2  4  1  0
  4  5  2  0
  4  6  1  0
  6  7  3  0
  7  8  1  0
  8  9  1  0
  1 10  1  0
  1 11  1  0
  1 12  1  0
  8 13  1  0
  8 14  1  0
  9 15  1  0
M  END
