
     RDKit          3D

 23 22  0  0  0  0  0  0  0  0999 V2000
    3.1949    0.3988   -0.5486 C   0  0  0  0  0  0  0  0  0  0  0  0
    2.2604   -0.6132    0.0063 C   0  0  0  0  0  0  0  0  0  0  0  0
    2.7627   -1.3896    0.8041 O   0  0  0  0  0  0  0  0  0  0  0  0
    0.8512   -0.7404   -0.3182 C   0  0  0  0  0  0  0  0  0  0  0  0
    0.3046   -1.8015    0.3954 O   0  0  0  0  0  0  0  0  0  0  0  0
    0.0196    0.4801   -0.0435 C   0  0  0  0  0  0  0  0  0  0  0  0
   -1.4375    0.2293   -0.4225 C   0  0  0  0  0  0  0  0  0  0  0  0
   -2.0403   -0.9106    0.3492 C   0  0  0  0  0  0  0  0  0  0  0  0
   -2.2810    1.4595   -0.1593 C   0  0  0  0  0  0  0  0  0  0  0  0
    3.9182   -0.1079   -1.2277 H   0  0  0  0  0  0  0  0  0  0  0  0
    2.6947    1.1807   -1.1358 H   0  0  0  0  0  0  0  0  0  0  0  0
    3.7634    0.8246    0.3036 H   0  0  0  0  0  0  0  0  0  0  0  0
    0.7400   -0.9958   -1.3981 H   0  0  0  0  0  0  0  0  0  0  0  0
    0.6055   -1.8163    1.3428 H   0  0  0  0  0  0  0  0  0  0  0  0
    0.0558    0.7702    1.0151 H   0  0  0  0  0  0  0  0  0  0  0  0
    0.3501    1.3382   -0.6400 H   0  0  0  0  0  0  0  0  0  0  0  0
   -1.5146   -0.0393   -1.5092 H   0  0  0  0  0  0  0  0  0  0  0  0
   -1.6474   -0.9887    1.3912 H   0  0  0  0  0  0  0  0  0  0  0  0
   -1.9566   -1.8815   -0.1825 H   0  0  0  0  0  0  0  0  0  0  0  0
   -3.1277   -0.7157    0.4570 H   0  0  0  0  0  0  0  0  0  0  0  0
   -2.7036    1.4498    0.8829 H   0  0  0  0  0  0  0  0  0  0  0  0
   -3.1326    1.4670   -0.8941 H   0  0  0  0  0  0  0  0  0  0  0  0
   -1.6798    2.4024   -0.2388 H   0  0  0  0  0  0  0  0  0  0  0  0
  1  2  1  0
  2  3  2  0
  2  4  1  0
  4  5  1  0
  4  6  1  0
  6  7  1  0
  7  8  1  0
  7  9  1  0
  1 10  1  0
  1 11  1  0
  1 12  1  0
  4 13  1  0
  5 14  1  0
  6 15  1  0
  6 16  1  0
  7 17  1  0
  8 18  1  0
  8 19  1  0
  8 20  1  0
  9 21  1  0
  9 22  1  0
  9 23  1  0
M  END
