
     RDKit          3D

 21 21  0  0  0  0  0  0  0  0999 V2000
    2.6125   -0.6979    0.2725 C   0  0  0  0  0  0  0  0  0  0  0  0
    1.5813    0.3354    0.0344 C   0  0  0  0  0  0  0  0  0  0  0  0
    1.9654    1.3540   -0.5165 O   0  0  0  0  0  0  0  0  0  0  0  0
    0.1664    0.2363    0.3988 C   0  0  0  0  0  0  0  0  0  0  0  0
   -0.5225    1.4965   -0.0199 C   0  0  0  0  0  0  0  0  0  0  0  0
    0.0354    2.6071    0.6124 O   0  0  0  0  0  0  0  0  0  0  0  0
   -0.5084   -1.0102   -0.0736 C   0  0  0  0  0  0  0  0  0  0  0  0
   -1.9976   -1.0989    0.3194 C   0  0  0  0  0  0  0  0  0  0  0  0
   -1.5776   -0.9978   -1.0898 C   0  0  0  0  0  0  0  0  0  0  0  0
    3.1845   -0.8939   -0.6611 H   0  0  0  0  0  0  0  0  0  0  0  0
    3.3436   -0.3271    1.0220 H   0  0  0  0  0  0  0  0  0  0  0  0
    2.2225   -1.6475    0.6394 H   0  0  0  0  0  0  0  0  0  0  0  0
    0.1361    0.2213    1.5300 H   0  0  0  0  0  0  0  0  0  0  0  0
   -1.5965    1.5252    0.1551 H   0  0  0  0  0  0  0  0  0  0  0  0
   -0.3857    1.6652   -1.1289 H   0  0  0  0  0  0  0  0  0  0  0  0
   -0.4048    3.4413    0.3638 H   0  0  0  0  0  0  0  0  0  0  0  0
    0.0976   -1.9257   -0.0041 H   0  0  0  0  0  0  0  0  0  0  0  0
   -2.3265   -2.0594    0.7664 H   0  0  0  0  0  0  0  0  0  0  0  0
   -2.4733   -0.2120    0.7567 H   0  0  0  0  0  0  0  0  0  0  0  0
   -1.8286   -0.0871   -1.6797 H   0  0  0  0  0  0  0  0  0  0  0  0
   -1.7236   -1.9246   -1.6974 H   0  0  0  0  0  0  0  0  0  0  0  0
  1  2  1  0
  2  3  2  0
  2  4  1  0
  4  5  1  0
  5  6  1  0
  4  7  1  0
  7  8  1  0
  8  9  1  0
  9  7  1  0
  1 10  1  0
  1 11  1  0
  1 12  1  0
  4 13  1  0
  5 14  1  0
  5 15  1  0
  6 16  1  0
  7 17  1  0
  8 18  1  0
  8 19  1  0
  9 20  1  0
  9 21  1  0
M  END
