
     RDKit          3D

 17 18  0  0  0  0  0  0  0  0999 V2000
    2.6862    0.0111    0.0035 C   0  0  0  0  0  0  0  0  0  0  0  0
    1.4463   -0.7780   -0.2337 C   0  0  0  0  0  0  0  0  0  0  0  0
    1.6039   -2.0138   -0.4127 O   0  0  0  0  0  0  0  0  0  0  0  0
    0.1260   -0.1611   -0.2582 C   0  0  0  0  0  0  0  0  0  0  0  0
   -0.2404    1.1058   -0.0934 C   0  0  0  0  0  0  0  0  0  0  0  0
   -1.7331    0.9682   -0.2705 C   0  0  0  0  0  0  0  0  0  0  0  0
   -2.0412   -0.2144    0.5950 C   0  0  0  0  0  0  0  0  0  0  0  0
   -1.1812   -0.8268   -0.4822 C   0  0  0  0  0  0  0  0  0  0  0  0
   -1.7857    0.0983   -1.3627 O   0  0  0  0  0  0  0  0  0  0  0  0
    3.3138   -0.5860    0.6946 H   0  0  0  0  0  0  0  0  0  0  0  0
    2.3986    0.9926    0.4284 H   0  0  0  0  0  0  0  0  0  0  0  0
    3.2665    0.1148   -0.9522 H   0  0  0  0  0  0  0  0  0  0  0  0
    0.3326    1.9934    0.1082 H   0  0  0  0  0  0  0  0  0  0  0  0
   -2.3247    1.8377   -0.2524 H   0  0  0  0  0  0  0  0  0  0  0  0
   -3.0680   -0.5866    0.5782 H   0  0  0  0  0  0  0  0  0  0  0  0
   -1.5641   -0.1038    1.5879 H   0  0  0  0  0  0  0  0  0  0  0  0
   -1.2355   -1.8513   -0.7003 H   0  0  0  0  0  0  0  0  0  0  0  0
  1  2  1  0
  2  3  2  0
  2  4  1  0
  4  5  2  0
  5  6  1  0
  6  7  1  0
  7  8  1  0
  8  9  1  0
  8  4  1  0
  9  6  1  0
  1 10  1  0
  1 11  1  0
  1 12  1  0
  5 13  1  0
  6 14  1  0
  7 15  1  0
  7 16  1  0
  8 17  1  0
M  END
