
     RDKit          3D

 21 20  0  0  0  0  0  0  0  0999 V2000
    2.3009   -1.0618   -0.0289 C   0  0  0  0  0  0  0  0  0  0  0  0
    1.4643    0.0774    0.4293 C   0  0  0  0  0  0  0  0  0  0  0  0
    1.7888    0.6239    1.4872 O   0  0  0  0  0  0  0  0  0  0  0  0
    0.2950    0.5591   -0.3188 C   0  0  0  0  0  0  0  0  0  0  0  0
   -0.3629    1.7237    0.3775 C   0  0  0  0  0  0  0  0  0  0  0  0
   -1.4625    2.1459   -0.3645 O   0  0  0  0  0  0  0  0  0  0  0  0
   -0.6859   -0.5486   -0.6246 C   0  0  0  0  0  0  0  0  0  0  0  0
   -1.2076   -1.1935    0.6362 C   0  0  0  0  0  0  0  0  0  0  0  0
   -1.7591   -0.0750   -1.3381 O   0  0  0  0  0  0  0  0  0  0  0  0
    2.8152   -0.7490   -0.9633 H   0  0  0  0  0  0  0  0  0  0  0  0
    1.5865   -1.8743   -0.3204 H   0  0  0  0  0  0  0  0  0  0  0  0
    3.0088   -1.3979    0.7266 H   0  0  0  0  0  0  0  0  0  0  0  0
    0.6576    0.9360   -1.3081 H   0  0  0  0  0  0  0  0  0  0  0  0
    0.3734    2.5542    0.3815 H   0  0  0  0  0  0  0  0  0  0  0  0
   -0.6393    1.4837    1.4262 H   0  0  0  0  0  0  0  0  0  0  0  0
   -1.5280    3.1397   -0.2902 H   0  0  0  0  0  0  0  0  0  0  0  0
   -0.1619   -1.3170   -1.2101 H   0  0  0  0  0  0  0  0  0  0  0  0
   -0.4052   -1.7065    1.2042 H   0  0  0  0  0  0  0  0  0  0  0  0
   -1.7808   -0.4943    1.2686 H   0  0  0  0  0  0  0  0  0  0  0  0
   -1.9158   -1.9941    0.3208 H   0  0  0  0  0  0  0  0  0  0  0  0
   -2.3814   -0.8317   -1.4909 H   0  0  0  0  0  0  0  0  0  0  0  0
  1  2  1  0
  2  3  2  0
  2  4  1  0
  4  5  1  0
  5  6  1  0
  4  7  1  0
  7  8  1  0
  7  9  1  0
  1 10  1  0
  1 11  1  0
  1 12  1  0
  4 13  1  0
  5 14  1  0
  5 15  1  0
  6 16  1  0
  7 17  1  0
  8 18  1  0
  8 19  1  0
  8 20  1  0
  9 21  1  0
M  END
