
     RDKit          3D

 19 19  0  0  0  0  0  0  0  0999 V2000
    3.0056    1.0764    0.2697 C   0  0  0  0  0  0  0  0  0  0  0  0
    1.9444    0.1058    0.5833 C   0  0  0  0  0  0  0  0  0  0  0  0
    2.1110   -0.7641    1.4762 O   0  0  0  0  0  0  0  0  0  0  0  0
    0.7126    0.0813   -0.0685 O   0  0  0  0  0  0  0  0  0  0  0  0
   -0.2944   -0.8516    0.2402 C   0  0  0  0  0  0  0  0  0  0  0  0
   -1.7119   -0.3723    0.3412 C   0  0  0  0  0  0  0  0  0  0  0  0
   -2.0579    1.0305   -0.1436 C   0  0  0  0  0  0  0  0  0  0  0  0
   -1.2592   -1.3404   -0.7501 C   0  0  0  0  0  0  0  0  0  0  0  0
   -1.3158   -0.8917   -2.0472 O   0  0  0  0  0  0  0  0  0  0  0  0
    2.6891    2.1286    0.4057 H   0  0  0  0  0  0  0  0  0  0  0  0
    3.8791    0.8819    0.9231 H   0  0  0  0  0  0  0  0  0  0  0  0
    3.3585    0.8994   -0.7760 H   0  0  0  0  0  0  0  0  0  0  0  0
   -0.0035   -1.5598    1.0522 H   0  0  0  0  0  0  0  0  0  0  0  0
   -2.3766   -0.7430    1.1396 H   0  0  0  0  0  0  0  0  0  0  0  0
   -1.2407    1.3940   -0.8197 H   0  0  0  0  0  0  0  0  0  0  0  0
   -2.2357    1.6983    0.6990 H   0  0  0  0  0  0  0  0  0  0  0  0
   -2.9545    0.9013   -0.8050 H   0  0  0  0  0  0  0  0  0  0  0  0
   -1.6704   -2.3634   -0.6095 H   0  0  0  0  0  0  0  0  0  0  0  0
   -0.5796   -1.3112   -2.5681 H   0  0  0  0  0  0  0  0  0  0  0  0
  1  2  1  0
  2  3  2  0
  2  4  1  0
  4  5  1  0
  5  6  1  0
  6  7  1  0
  6  8  1  0
  8  9  1  0
  8  5  1  0
  1 10  1  0
  1 11  1  0
  1 12  1  0
  5 13  1  0
  6 14  1  0
  7 15  1  0
  7 16  1  0
  7 17  1  0
  8 18  1  0
  9 19  1  0
M  END
