
     RDKit          3D

 19 20  0  0  0  0  0  0  0  0999 V2000
    2.6962    0.0950   -0.3254 C   0  0  0  0  0  0  0  0  0  0  0  0
    1.5625   -0.6042    0.3318 C   0  0  0  0  0  0  0  0  0  0  0  0
    1.6875   -1.7837    0.5791 O   0  0  0  0  0  0  0  0  0  0  0  0
    0.3211    0.0816    0.6822 C   0  0  0  0  0  0  0  0  0  0  0  0
   -0.6126   -0.7928    1.2995 O   0  0  0  0  0  0  0  0  0  0  0  0
   -1.7672   -0.5353    0.6199 C   0  0  0  0  0  0  0  0  0  0  0  0
   -1.3051   -0.6919   -0.8379 C   0  0  0  0  0  0  0  0  0  0  0  0
   -0.4915    0.5468   -0.4675 C   0  0  0  0  0  0  0  0  0  0  0  0
   -1.7655    0.9653    0.2882 C   0  0  0  0  0  0  0  0  0  0  0  0
    2.4613    0.3971   -1.3673 H   0  0  0  0  0  0  0  0  0  0  0  0
    2.9742    1.0326    0.2076 H   0  0  0  0  0  0  0  0  0  0  0  0
    3.5971   -0.5380   -0.3685 H   0  0  0  0  0  0  0  0  0  0  0  0
    0.4740    0.8883    1.4552 H   0  0  0  0  0  0  0  0  0  0  0  0
   -2.6916   -0.9743    0.8861 H   0  0  0  0  0  0  0  0  0  0  0  0
   -2.1156   -0.4829   -1.5494 H   0  0  0  0  0  0  0  0  0  0  0  0
   -0.7142   -1.5869   -1.0260 H   0  0  0  0  0  0  0  0  0  0  0  0
   -0.1300    1.1735   -1.2233 H   0  0  0  0  0  0  0  0  0  0  0  0
   -2.6030    1.2324   -0.3592 H   0  0  0  0  0  0  0  0  0  0  0  0
   -1.5773    1.5775    1.1749 H   0  0  0  0  0  0  0  0  0  0  0  0
  1  2  1  0
  2  3  2  0
  2  4  1  0
  4  5  1  0
  5  6  1  0
  6  7  1  0
  7  8  1  0
  8  9  1  0
  8  4  1  0
  9  6  1  0
  1 10  1  0
  1 11  1  0
  1 12  1  0
  4 13  1  0
  6 14  1  0
  7 15  1  0
  7 16  1  0
  8 17  1  0
  9 18  1  0
  9 19  1  0
M  END
