
     RDKit          3D

 17 18  0  0  0  0  0  0  0  0999 V2000
    2.4805   -0.5826    0.0646 C   0  0  0  0  0  0  0  0  0  0  0  0
    1.7185    0.5696   -0.4810 C   0  0  0  0  0  0  0  0  0  0  0  0
    2.3046    1.2723   -1.2957 O   0  0  0  0  0  0  0  0  0  0  0  0
    0.3402    0.8237   -0.0463 C   0  0  0  0  0  0  0  0  0  0  0  0
   -0.0481   -0.1397    0.8802 O   0  0  0  0  0  0  0  0  0  0  0  0
   -1.4350   -0.0191    0.8359 C   0  0  0  0  0  0  0  0  0  0  0  0
   -2.1111   -0.9137   -0.1377 C   0  0  0  0  0  0  0  0  0  0  0  0
   -1.8002    0.5031   -0.5033 C   0  0  0  0  0  0  0  0  0  0  0  0
   -0.5809    0.7562   -1.0984 O   0  0  0  0  0  0  0  0  0  0  0  0
    1.8702   -1.5147    0.0614 H   0  0  0  0  0  0  0  0  0  0  0  0
    3.4176   -0.7798   -0.4933 H   0  0  0  0  0  0  0  0  0  0  0  0
    2.7634   -0.3783    1.1057 H   0  0  0  0  0  0  0  0  0  0  0  0
    0.3184    1.8053    0.4652 H   0  0  0  0  0  0  0  0  0  0  0  0
   -1.9281    0.3251    1.7553 H   0  0  0  0  0  0  0  0  0  0  0  0
   -1.5253   -1.7540   -0.5837 H   0  0  0  0  0  0  0  0  0  0  0  0
   -3.1493   -1.1964    0.1128 H   0  0  0  0  0  0  0  0  0  0  0  0
   -2.6354    1.2227   -0.6419 H   0  0  0  0  0  0  0  0  0  0  0  0
  1  2  1  0
  2  3  2  0
  2  4  1  0
  4  5  1  0
  5  6  1  0
  6  7  1  0
  7  8  1  0
  8  9  1  0
  9  4  1  0
  8  6  1  0
  1 10  1  0
  1 11  1  0
  1 12  1  0
  4 13  1  0
  6 14  1  0
  7 15  1  0
  7 16  1  0
  8 17  1  0
M  END
