
     RDKit          3D

 23 22  0  0  0  0  0  0  0  0999 V2000
   -3.0398   -0.6975    0.0732 C   0  0  0  0  0  0  0  0  0  0  0  0
   -1.5488   -0.7894   -0.1130 C   0  0  0  0  0  0  0  0  0  0  0  0
   -1.0534   -1.8480   -0.4040 O   0  0  0  0  0  0  0  0  0  0  0  0
   -0.7893    0.4649    0.0821 C   0  0  0  0  0  0  0  0  0  0  0  0
   -1.3137    1.4742   -0.9388 C   0  0  0  0  0  0  0  0  0  0  0  0
    0.6781    0.3309   -0.1386 C   0  0  0  0  0  0  0  0  0  0  0  0
    1.3696   -0.6415    0.7519 C   0  0  0  0  0  0  0  0  0  0  0  0
    2.8469   -0.6380    0.3789 C   0  0  0  0  0  0  0  0  0  0  0  0
    3.3782    0.6199    0.5516 O   0  0  0  0  0  0  0  0  0  0  0  0
   -3.5132   -0.0466   -0.6734 H   0  0  0  0  0  0  0  0  0  0  0  0
   -3.4876   -1.7042    0.0307 H   0  0  0  0  0  0  0  0  0  0  0  0
   -3.1856   -0.3267    1.1200 H   0  0  0  0  0  0  0  0  0  0  0  0
   -0.9809    0.8992    1.0838 H   0  0  0  0  0  0  0  0  0  0  0  0
   -1.1891    1.0239   -1.9581 H   0  0  0  0  0  0  0  0  0  0  0  0
   -0.7126    2.4137   -0.8486 H   0  0  0  0  0  0  0  0  0  0  0  0
   -2.3863    1.6530   -0.7241 H   0  0  0  0  0  0  0  0  0  0  0  0
    1.1334    1.3306    0.0428 H   0  0  0  0  0  0  0  0  0  0  0  0
    0.9203    0.0692   -1.1878 H   0  0  0  0  0  0  0  0  0  0  0  0
    1.3382   -0.3235    1.8305 H   0  0  0  0  0  0  0  0  0  0  0  0
    1.0173   -1.6859    0.6599 H   0  0  0  0  0  0  0  0  0  0  0  0
    3.3874   -1.3215    1.0874 H   0  0  0  0  0  0  0  0  0  0  0  0
    3.0131   -1.0579   -0.6277 H   0  0  0  0  0  0  0  0  0  0  0  0
    4.1175    0.8013   -0.0786 H   0  0  0  0  0  0  0  0  0  0  0  0
  1  2  1  0
  2  3  2  0
  2  4  1  0
  4  5  1  0
  4  6  1  0
  6  7  1  0
  7  8  1  0
  8  9  1  0
  1 10  1  0
  1 11  1  0
  1 12  1  0
  4 13  1  0
  5 14  1  0
  5 15  1  0
  5 16  1  0
  6 17  1  0
  6 18  1  0
  7 19  1  0
  7 20  1  0
  8 21  1  0
  8 22  1  0
  9 23  1  0
M  END
