
     RDKit          3D

 21 22  0  0  0  0  0  0  0  0999 V2000
    2.3767    0.3664   -0.5400 C   0  0  0  0  0  0  0  0  0  0  0  0
    1.4618   -0.7166   -0.1334 C   0  0  0  0  0  0  0  0  0  0  0  0
    1.9027   -1.8509   -0.0662 O   0  0  0  0  0  0  0  0  0  0  0  0
    0.0351   -0.4977    0.1975 C   0  0  0  0  0  0  0  0  0  0  0  0
   -0.6941   -1.7467    0.5830 C   0  0  0  0  0  0  0  0  0  0  0  0
   -0.1935    0.6735    1.1441 C   0  0  0  0  0  0  0  0  0  0  0  0
   -1.1082    1.3261    0.1627 C   0  0  0  0  0  0  0  0  0  0  0  0
   -2.0896    0.5849   -0.6409 C   0  0  0  0  0  0  0  0  0  0  0  0
   -0.6572    0.3317   -0.8765 C   0  0  0  0  0  0  0  0  0  0  0  0
    2.9871    0.7592    0.3236 H   0  0  0  0  0  0  0  0  0  0  0  0
    1.8509    1.2518   -0.9574 H   0  0  0  0  0  0  0  0  0  0  0  0
    3.1140    0.0468   -1.3025 H   0  0  0  0  0  0  0  0  0  0  0  0
   -1.6639   -1.5263    1.0607 H   0  0  0  0  0  0  0  0  0  0  0  0
   -0.0851   -2.2976    1.3085 H   0  0  0  0  0  0  0  0  0  0  0  0
   -0.8530   -2.3792   -0.3375 H   0  0  0  0  0  0  0  0  0  0  0  0
    0.7323    1.2785    1.3448 H   0  0  0  0  0  0  0  0  0  0  0  0
   -0.7086    0.4157    2.0687 H   0  0  0  0  0  0  0  0  0  0  0  0
   -1.0108    2.4080   -0.0161 H   0  0  0  0  0  0  0  0  0  0  0  0
   -2.6729   -0.2648   -0.1917 H   0  0  0  0  0  0  0  0  0  0  0  0
   -2.6310    1.1333   -1.4066 H   0  0  0  0  0  0  0  0  0  0  0  0
   -0.0930    0.7039   -1.7247 H   0  0  0  0  0  0  0  0  0  0  0  0
  1  2  1  0
  2  3  2  0
  2  4  1  0
  4  5  1  0
  4  6  1  0
  6  7  1  0
  7  8  1  0
  8  9  1  0
  9  4  1  0
  9  7  1  0
  1 10  1  0
  1 11  1  0
  1 12  1  0
  5 13  1  0
  5 14  1  0
  5 15  1  0
  6 16  1  0
  6 17  1  0
  7 18  1  0
  8 19  1  0
  8 20  1  0
  9 21  1  0
M  END
