
     RDKit          3D

 21 21  0  0  0  0  0  0  0  0999 V2000
    4.0280    0.1366    0.3798 C   0  0  0  0  0  0  0  0  0  0  0  0
    2.7542   -0.6020    0.1749 C   0  0  0  0  0  0  0  0  0  0  0  0
    2.7511   -1.8127   -0.1427 O   0  0  0  0  0  0  0  0  0  0  0  0
    1.5726    0.0576    0.3376 O   0  0  0  0  0  0  0  0  0  0  0  0
    0.2881   -0.5463    0.1679 C   0  0  0  0  0  0  0  0  0  0  0  0
   -0.7464    0.5165    0.4376 C   0  0  0  0  0  0  0  0  0  0  0  0
   -2.1451    0.0552    0.3043 C   0  0  0  0  0  0  0  0  0  0  0  0
   -2.7289   -0.4918   -0.9241 C   0  0  0  0  0  0  0  0  0  0  0  0
   -3.0770    0.9411   -0.5391 C   0  0  0  0  0  0  0  0  0  0  0  0
    3.9014    1.1967    0.0579 H   0  0  0  0  0  0  0  0  0  0  0  0
    4.8805   -0.3372   -0.1480 H   0  0  0  0  0  0  0  0  0  0  0  0
    4.2813    0.1040    1.4708 H   0  0  0  0  0  0  0  0  0  0  0  0
    0.2347   -0.8093   -0.9274 H   0  0  0  0  0  0  0  0  0  0  0  0
    0.1518   -1.4351    0.7834 H   0  0  0  0  0  0  0  0  0  0  0  0
   -0.5719    0.8940    1.4685 H   0  0  0  0  0  0  0  0  0  0  0  0
   -0.5728    1.3764   -0.2358 H   0  0  0  0  0  0  0  0  0  0  0  0
   -2.6307   -0.2626    1.2704 H   0  0  0  0  0  0  0  0  0  0  0  0
   -3.5858   -1.1902   -0.8284 H   0  0  0  0  0  0  0  0  0  0  0  0
   -2.1481   -0.6543   -1.8496 H   0  0  0  0  0  0  0  0  0  0  0  0
   -4.0795    1.1560   -0.1687 H   0  0  0  0  0  0  0  0  0  0  0  0
   -2.5575    1.7074   -1.1834 H   0  0  0  0  0  0  0  0  0  0  0  0
  1  2  1  0
  2  3  2  0
  2  4  1  0
  4  5  1  0
  5  6  1  0
  6  7  1  0
  7  8  1  0
  8  9  1  0
  9  7  1  0
  1 10  1  0
  1 11  1  0
  1 12  1  0
  5 13  1  0
  5 14  1  0
  6 15  1  0
  6 16  1  0
  7 17  1  0
  8 18  1  0
  8 19  1  0
  9 20  1  0
  9 21  1  0
M  END
