
     RDKit          3D

 19 20  0  0  0  0  0  0  0  0999 V2000
   -2.6571   -0.0477   -0.4455 C   0  0  0  0  0  0  0  0  0  0  0  0
   -1.3200   -0.6686   -0.6946 C   0  0  0  0  0  0  0  0  0  0  0  0
   -1.2305   -1.6084   -1.4390 O   0  0  0  0  0  0  0  0  0  0  0  0
   -0.1452   -0.1025   -0.0129 C   0  0  0  0  0  0  0  0  0  0  0  0
    0.2374    1.3115   -0.2382 C   0  0  0  0  0  0  0  0  0  0  0  0
    1.5276    1.4303   -0.4520 C   0  0  0  0  0  0  0  0  0  0  0  0
    2.1512    0.1030   -0.3931 C   0  0  0  0  0  0  0  0  0  0  0  0
    1.1116   -0.8907    0.0037 C   0  0  0  0  0  0  0  0  0  0  0  0
    0.3579   -0.6780    1.2635 C   0  0  0  0  0  0  0  0  0  0  0  0
   -2.6115    0.6505    0.4239 H   0  0  0  0  0  0  0  0  0  0  0  0
   -2.9391    0.4679   -1.3896 H   0  0  0  0  0  0  0  0  0  0  0  0
   -3.3591   -0.8758   -0.2246 H   0  0  0  0  0  0  0  0  0  0  0  0
   -0.4760    2.1310   -0.2239 H   0  0  0  0  0  0  0  0  0  0  0  0
    2.1057    2.3592   -0.6503 H   0  0  0  0  0  0  0  0  0  0  0  0
    2.9776    0.0408    0.3498 H   0  0  0  0  0  0  0  0  0  0  0  0
    2.5097   -0.2034   -1.4124 H   0  0  0  0  0  0  0  0  0  0  0  0
    1.1441   -1.9101   -0.4476 H   0  0  0  0  0  0  0  0  0  0  0  0
    0.8388   -0.0115    2.0067 H   0  0  0  0  0  0  0  0  0  0  0  0
   -0.2232   -1.4976    1.7184 H   0  0  0  0  0  0  0  0  0  0  0  0
  1  2  1  0
  2  3  2  0
  2  4  1  0
  4  5  1  0
  5  6  2  0
  6  7  1  0
  7  8  1  0
  8  9  1  0
  8  4  1  0
  9  4  1  0
  1 10  1  0
  1 11  1  0
  1 12  1  0
  5 13  1  0
  6 14  1  0
  7 15  1  0
  7 16  1  0
  8 17  1  0
  9 18  1  0
  9 19  1  0
M  END
