
     RDKit          3D

 19 20  0  0  0  0  0  0  0  0999 V2000
    2.5385    0.4719    0.2911 C   0  0  0  0  0  0  0  0  0  0  0  0
    1.0758    0.7712    0.4470 C   0  0  0  0  0  0  0  0  0  0  0  0
    0.6434    1.4347    1.3666 O   0  0  0  0  0  0  0  0  0  0  0  0
    0.1292    0.2371   -0.5579 C   0  0  0  0  0  0  0  0  0  0  0  0
    0.1930   -1.2963   -0.5957 C   0  0  0  0  0  0  0  0  0  0  0  0
   -1.0451   -1.2713    0.3127 C   0  0  0  0  0  0  0  0  0  0  0  0
   -1.2875    0.1236   -0.1596 C   0  0  0  0  0  0  0  0  0  0  0  0
   -2.1867    1.0479    0.2954 C   0  0  0  0  0  0  0  0  0  0  0  0
   -2.2773    0.4305   -1.0554 O   0  0  0  0  0  0  0  0  0  0  0  0
    3.1096    0.8754    1.1500 H   0  0  0  0  0  0  0  0  0  0  0  0
    2.7386   -0.6168    0.2670 H   0  0  0  0  0  0  0  0  0  0  0  0
    2.9073    0.9162   -0.6655 H   0  0  0  0  0  0  0  0  0  0  0  0
    0.2873    0.6393   -1.5744 H   0  0  0  0  0  0  0  0  0  0  0  0
    1.0799   -1.7311   -0.1437 H   0  0  0  0  0  0  0  0  0  0  0  0
   -0.1122   -1.6773   -1.5949 H   0  0  0  0  0  0  0  0  0  0  0  0
   -1.8558   -1.9514   -0.0200 H   0  0  0  0  0  0  0  0  0  0  0  0
   -0.7862   -1.3293    1.3932 H   0  0  0  0  0  0  0  0  0  0  0  0
   -3.0989    0.7833    0.8531 H   0  0  0  0  0  0  0  0  0  0  0  0
   -2.0529    2.1423    0.1857 H   0  0  0  0  0  0  0  0  0  0  0  0
  1  2  1  0
  2  3  2  0
  2  4  1  0
  4  5  1  0
  5  6  1  0
  6  7  1  0
  7  8  1  0
  8  9  1  0
  7  4  1  0
  9  7  1  0
  1 10  1  0
  1 11  1  0
  1 12  1  0
  4 13  1  0
  5 14  1  0
  5 15  1  0
  6 16  1  0
  6 17  1  0
  8 18  1  0
  8 19  1  0
M  END
