
     RDKit          3D

 19 18  0  0  0  0  0  0  0  0999 V2000
   -2.9429    0.7450    0.7474 C   0  0  0  0  0  0  0  0  0  0  0  0
   -2.6385   -0.3023   -0.2334 C   0  0  0  0  0  0  0  0  0  0  0  0
   -3.5402   -0.9187   -0.7765 O   0  0  0  0  0  0  0  0  0  0  0  0
   -1.2511   -0.6685   -0.6168 C   0  0  0  0  0  0  0  0  0  0  0  0
   -0.3011    0.0904    0.0569 O   0  0  0  0  0  0  0  0  0  0  0  0
    0.9492   -0.3427   -0.3842 C   0  0  0  0  0  0  0  0  0  0  0  0
    2.0510    0.4145    0.2830 C   0  0  0  0  0  0  0  0  0  0  0  0
    3.4709    0.1655    0.0073 C   0  0  0  0  0  0  0  0  0  0  0  0
    1.7460    1.2699    1.0858 O   0  0  0  0  0  0  0  0  0  0  0  0
   -3.9084    0.5741    1.2456 H   0  0  0  0  0  0  0  0  0  0  0  0
   -2.9748    1.7657    0.3171 H   0  0  0  0  0  0  0  0  0  0  0  0
   -2.1647    0.7580    1.5518 H   0  0  0  0  0  0  0  0  0  0  0  0
   -1.0620   -0.6099   -1.6973 H   0  0  0  0  0  0  0  0  0  0  0  0
   -1.0703   -1.7392   -0.3230 H   0  0  0  0  0  0  0  0  0  0  0  0
    1.0217   -1.4339   -0.2110 H   0  0  0  0  0  0  0  0  0  0  0  0
    1.0806   -0.1853   -1.4783 H   0  0  0  0  0  0  0  0  0  0  0  0
    3.7479    0.7690   -0.8962 H   0  0  0  0  0  0  0  0  0  0  0  0
    4.0941    0.5362    0.8676 H   0  0  0  0  0  0  0  0  0  0  0  0
    3.6927   -0.8878   -0.2277 H   0  0  0  0  0  0  0  0  0  0  0  0
  1  2  1  0
  2  3  2  0
  2  4  1  0
  4  5  1  0
  5  6  1  0
  6  7  1  0
  7  8  1  0
  7  9  2  0
  1 10  1  0
  1 11  1  0
  1 12  1  0
  4 13  1  0
  4 14  1  0
  6 15  1  0
  6 16  1  0
  8 17  1  0
  8 18  1  0
  8 19  1  0
M  END
