
     RDKit          3D

 18 17  0  0  0  0  0  0  0  0999 V2000
    1.9711   -0.3994   -0.0738 C   0  0  0  0  0  0  0  0  0  0  0  0
    0.8361   -0.2295    0.8521 C   0  0  0  0  0  0  0  0  0  0  0  0
    1.0654   -0.1703    2.0612 O   0  0  0  0  0  0  0  0  0  0  0  0
   -0.5571   -0.1292    0.3711 C   0  0  0  0  0  0  0  0  0  0  0  0
   -1.0037   -1.4014   -0.3501 C   0  0  0  0  0  0  0  0  0  0  0  0
   -1.4298    0.0257    1.4482 O   0  0  0  0  0  0  0  0  0  0  0  0
   -0.7490    1.0033   -0.6161 C   0  0  0  0  0  0  0  0  0  0  0  0
   -0.5043    2.2484   -0.0489 O   0  0  0  0  0  0  0  0  0  0  0  0
    2.0324    0.5260   -0.7064 H   0  0  0  0  0  0  0  0  0  0  0  0
    2.9204   -0.4951    0.4652 H   0  0  0  0  0  0  0  0  0  0  0  0
    1.8744   -1.2690   -0.7449 H   0  0  0  0  0  0  0  0  0  0  0  0
   -1.2420   -2.1492    0.4118 H   0  0  0  0  0  0  0  0  0  0  0  0
   -1.9116   -1.1182   -0.9539 H   0  0  0  0  0  0  0  0  0  0  0  0
   -0.2520   -1.7672   -1.0579 H   0  0  0  0  0  0  0  0  0  0  0  0
   -1.3807    0.9111    1.8564 H   0  0  0  0  0  0  0  0  0  0  0  0
   -0.1503    0.7983   -1.5095 H   0  0  0  0  0  0  0  0  0  0  0  0
   -1.8277    0.9555   -0.9277 H   0  0  0  0  0  0  0  0  0  0  0  0
    0.3085    2.6603   -0.4769 H   0  0  0  0  0  0  0  0  0  0  0  0
  1  2  1  0
  2  3  2  0
  2  4  1  0
  4  5  1  0
  4  6  1  0
  4  7  1  0
  7  8  1  0
  1  9  1  0
  1 10  1  0
  1 11  1  0
  5 12  1  0
  5 13  1  0
  5 14  1  0
  6 15  1  0
  7 16  1  0
  7 17  1  0
  8 18  1  0
M  END
