
     RDKit          3D

 21 21  0  0  0  0  0  0  0  0999 V2000
    3.0649    0.6504   -0.1777 C   0  0  0  0  0  0  0  0  0  0  0  0
    1.6484    0.3647    0.1414 C   0  0  0  0  0  0  0  0  0  0  0  0
    0.8799    1.3072    0.2224 O   0  0  0  0  0  0  0  0  0  0  0  0
    1.1468   -1.0242    0.3624 C   0  0  0  0  0  0  0  0  0  0  0  0
   -0.3149   -1.0583    0.6694 C   0  0  0  0  0  0  0  0  0  0  0  0
   -1.1585   -0.4764   -0.4410 C   0  0  0  0  0  0  0  0  0  0  0  0
   -2.6471   -0.4510   -0.2576 C   0  0  0  0  0  0  0  0  0  0  0  0
   -1.8530    0.8326   -0.0812 C   0  0  0  0  0  0  0  0  0  0  0  0
   -1.8744    1.7587   -1.1255 O   0  0  0  0  0  0  0  0  0  0  0  0
    3.3091    1.7054    0.0335 H   0  0  0  0  0  0  0  0  0  0  0  0
    3.3323    0.4294   -1.2305 H   0  0  0  0  0  0  0  0  0  0  0  0
    3.7164   -0.0205    0.4533 H   0  0  0  0  0  0  0  0  0  0  0  0
    1.4307   -1.6682   -0.4926 H   0  0  0  0  0  0  0  0  0  0  0  0
    1.6854   -1.4274    1.2446 H   0  0  0  0  0  0  0  0  0  0  0  0
   -0.6281   -2.1080    0.8215 H   0  0  0  0  0  0  0  0  0  0  0  0
   -0.4740   -0.5048    1.6227 H   0  0  0  0  0  0  0  0  0  0  0  0
   -0.8159   -0.6333   -1.4779 H   0  0  0  0  0  0  0  0  0  0  0  0
   -3.3073   -0.4502   -1.1462 H   0  0  0  0  0  0  0  0  0  0  0  0
   -3.0192   -0.9610    0.6499 H   0  0  0  0  0  0  0  0  0  0  0  0
   -1.7893    1.1854    0.9511 H   0  0  0  0  0  0  0  0  0  0  0  0
   -2.3322    2.5496   -0.7973 H   0  0  0  0  0  0  0  0  0  0  0  0
  1  2  1  0
  2  3  2  0
  2  4  1  0
  4  5  1  0
  5  6  1  0
  6  7  1  0
  7  8  1  0
  8  9  1  0
  8  6  1  0
  1 10  1  0
  1 11  1  0
  1 12  1  0
  4 13  1  0
  4 14  1  0
  5 15  1  0
  5 16  1  0
  6 17  1  0
  7 18  1  0
  7 19  1  0
  8 20  1  0
  9 21  1  0
M  END
