
     RDKit          3D

 19 20  0  0  0  0  0  0  0  0999 V2000
    3.5484   -0.5868   -0.1418 C   0  0  0  0  0  0  0  0  0  0  0  0
    2.3369    0.2444   -0.3601 C   0  0  0  0  0  0  0  0  0  0  0  0
    2.3924    1.3708   -0.9138 O   0  0  0  0  0  0  0  0  0  0  0  0
    1.0890   -0.1989    0.0442 O   0  0  0  0  0  0  0  0  0  0  0  0
   -0.1005    0.5613   -0.1430 C   0  0  0  0  0  0  0  0  0  0  0  0
   -1.2609   -0.1828   -0.4895 C   0  0  0  0  0  0  0  0  0  0  0  0
   -2.2273   -0.9078    0.4461 C   0  0  0  0  0  0  0  0  0  0  0  0
   -2.6331    0.5670    0.6862 C   0  0  0  0  0  0  0  0  0  0  0  0
   -1.1129    0.6472    0.8597 C   0  0  0  0  0  0  0  0  0  0  0  0
    3.7624   -0.7027    0.9311 H   0  0  0  0  0  0  0  0  0  0  0  0
    3.3830   -1.5943   -0.5697 H   0  0  0  0  0  0  0  0  0  0  0  0
    4.3967   -0.0771   -0.6598 H   0  0  0  0  0  0  0  0  0  0  0  0
    0.1391    1.5429   -0.6554 H   0  0  0  0  0  0  0  0  0  0  0  0
   -1.9144    0.3324   -1.2656 H   0  0  0  0  0  0  0  0  0  0  0  0
   -1.7930   -1.3331    1.3475 H   0  0  0  0  0  0  0  0  0  0  0  0
   -2.9717   -1.4915   -0.0955 H   0  0  0  0  0  0  0  0  0  0  0  0
   -3.0010    1.0638   -0.2195 H   0  0  0  0  0  0  0  0  0  0  0  0
   -3.1602    0.7439    1.6152 H   0  0  0  0  0  0  0  0  0  0  0  0
   -0.8727    0.0013    1.7633 H   0  0  0  0  0  0  0  0  0  0  0  0
  1  2  1  0
  2  3  2  0
  2  4  1  0
  4  5  1  0
  5  6  1  0
  6  7  1  0
  7  8  1  0
  8  9  1  0
  9  5  1  0
  9  6  1  0
  1 10  1  0
  1 11  1  0
  1 12  1  0
  5 13  1  0
  6 14  1  0
  7 15  1  0
  7 16  1  0
  8 17  1  0
  8 18  1  0
  9 19  1  0
M  END
