
     RDKit          3D

 23 22  0  0  0  0  0  0  0  0999 V2000
    2.7716    0.5669    0.7071 C   0  0  0  0  0  0  0  0  0  0  0  0
    1.8109   -0.5587    0.6036 C   0  0  0  0  0  0  0  0  0  0  0  0
    1.5290   -1.1784    1.6082 O   0  0  0  0  0  0  0  0  0  0  0  0
    1.1902   -0.9442   -0.6796 C   0  0  0  0  0  0  0  0  0  0  0  0
    0.0039   -0.1570   -1.0950 C   0  0  0  0  0  0  0  0  0  0  0  0
   -1.1760   -0.1565   -0.2010 C   0  0  0  0  0  0  0  0  0  0  0  0
   -0.9572    0.3969    1.1790 C   0  0  0  0  0  0  0  0  0  0  0  0
   -2.3274    0.6399   -0.8381 C   0  0  0  0  0  0  0  0  0  0  0  0
   -1.7052   -1.4637   -0.0344 O   0  0  0  0  0  0  0  0  0  0  0  0
    2.3674    1.5238    0.3025 H   0  0  0  0  0  0  0  0  0  0  0  0
    3.0893    0.7039    1.7453 H   0  0  0  0  0  0  0  0  0  0  0  0
    3.6761    0.2884    0.1264 H   0  0  0  0  0  0  0  0  0  0  0  0
    0.9185   -2.0258   -0.6847 H   0  0  0  0  0  0  0  0  0  0  0  0
    2.0322   -0.8733   -1.4364 H   0  0  0  0  0  0  0  0  0  0  0  0
    0.3087    0.8949   -1.3355 H   0  0  0  0  0  0  0  0  0  0  0  0
   -0.3364   -0.5854   -2.0898 H   0  0  0  0  0  0  0  0  0  0  0  0
   -0.0345    1.0095    1.2691 H   0  0  0  0  0  0  0  0  0  0  0  0
   -1.7773    1.1424    1.4431 H   0  0  0  0  0  0  0  0  0  0  0  0
   -1.0234   -0.3711    1.9756 H   0  0  0  0  0  0  0  0  0  0  0  0
   -2.2289    0.5785   -1.9417 H   0  0  0  0  0  0  0  0  0  0  0  0
   -3.2733    0.2221   -0.4544 H   0  0  0  0  0  0  0  0  0  0  0  0
   -2.2201    1.6778   -0.4490 H   0  0  0  0  0  0  0  0  0  0  0  0
   -2.6381   -1.3309    0.2799 H   0  0  0  0  0  0  0  0  0  0  0  0
  1  2  1  0
  2  3  2  0
  2  4  1  0
  4  5  1  0
  5  6  1  0
  6  7  1  0
  6  8  1  0
  6  9  1  0
  1 10  1  0
  1 11  1  0
  1 12  1  0
  4 13  1  0
  4 14  1  0
  5 15  1  0
  5 16  1  0
  7 17  1  0
  7 18  1  0
  7 19  1  0
  8 20  1  0
  8 21  1  0
  8 22  1  0
  9 23  1  0
M  END
