
     RDKit          3D

 23 23  0  0  0  0  0  0  0  0999 V2000
    4.0808    0.2049   -0.0503 C   0  0  0  0  0  0  0  0  0  0  0  0
    2.6787    0.2331    0.4501 C   0  0  0  0  0  0  0  0  0  0  0  0
    2.5145    0.6221    1.5938 O   0  0  0  0  0  0  0  0  0  0  0  0
    1.5267   -0.1889   -0.3915 C   0  0  0  0  0  0  0  0  0  0  0  0
    0.2576   -0.0337    0.4270 C   0  0  0  0  0  0  0  0  0  0  0  0
   -0.9618   -0.4475   -0.3697 C   0  0  0  0  0  0  0  0  0  0  0  0
   -2.1532   -0.2573    0.5241 C   0  0  0  0  0  0  0  0  0  0  0  0
   -3.5229   -0.5684    0.0572 C   0  0  0  0  0  0  0  0  0  0  0  0
   -3.0955    0.8776    0.1239 C   0  0  0  0  0  0  0  0  0  0  0  0
    4.6990   -0.2553    0.7606 H   0  0  0  0  0  0  0  0  0  0  0  0
    4.4963    1.2013   -0.2387 H   0  0  0  0  0  0  0  0  0  0  0  0
    4.0827   -0.4473   -0.9594 H   0  0  0  0  0  0  0  0  0  0  0  0
    1.4470    0.5820   -1.2100 H   0  0  0  0  0  0  0  0  0  0  0  0
    1.6427   -1.1979   -0.7905 H   0  0  0  0  0  0  0  0  0  0  0  0
    0.0919    1.0229    0.7227 H   0  0  0  0  0  0  0  0  0  0  0  0
    0.3128   -0.6379    1.3748 H   0  0  0  0  0  0  0  0  0  0  0  0
   -0.8265   -1.5026   -0.6893 H   0  0  0  0  0  0  0  0  0  0  0  0
   -0.9997    0.1991   -1.2773 H   0  0  0  0  0  0  0  0  0  0  0  0
   -1.9345   -0.3926    1.6133 H   0  0  0  0  0  0  0  0  0  0  0  0
   -4.2555   -0.8578    0.8393 H   0  0  0  0  0  0  0  0  0  0  0  0
   -3.7156   -1.0222   -0.9163 H   0  0  0  0  0  0  0  0  0  0  0  0
   -2.9262    1.3654   -0.8572 H   0  0  0  0  0  0  0  0  0  0  0  0
   -3.4395    1.5009    0.9896 H   0  0  0  0  0  0  0  0  0  0  0  0
  1  2  1  0
  2  3  2  0
  2  4  1  0
  4  5  1  0
  5  6  1  0
  6  7  1  0
  7  8  1  0
  8  9  1  0
  9  7  1  0
  1 10  1  0
  1 11  1  0
  1 12  1  0
  4 13  1  0
  4 14  1  0
  5 15  1  0
  5 16  1  0
  6 17  1  0
  6 18  1  0
  7 19  1  0
  8 20  1  0
  8 21  1  0
  9 22  1  0
  9 23  1  0
M  END
