
     RDKit          3D

 19 20  0  0  0  0  0  0  0  0999 V2000
    2.6608   -0.5275    0.6769 C   0  0  0  0  0  0  0  0  0  0  0  0
    1.2454   -0.9745    0.6190 C   0  0  0  0  0  0  0  0  0  0  0  0
    0.7008   -1.3244    1.6383 O   0  0  0  0  0  0  0  0  0  0  0  0
    0.5484   -0.9789   -0.6723 C   0  0  0  0  0  0  0  0  0  0  0  0
    0.0335    0.4219   -1.0312 C   0  0  0  0  0  0  0  0  0  0  0  0
   -1.1564   -0.1350   -0.3596 C   0  0  0  0  0  0  0  0  0  0  0  0
   -1.7540    0.3814    0.8649 C   0  0  0  0  0  0  0  0  0  0  0  0
   -2.5172    0.3847   -0.4882 C   0  0  0  0  0  0  0  0  0  0  0  0
   -0.7870   -1.4272   -0.5716 O   0  0  0  0  0  0  0  0  0  0  0  0
    2.7993    0.2313   -0.1181 H   0  0  0  0  0  0  0  0  0  0  0  0
    2.8910   -0.1098    1.6777 H   0  0  0  0  0  0  0  0  0  0  0  0
    3.3572   -1.3819    0.5368 H   0  0  0  0  0  0  0  0  0  0  0  0
    1.0500   -1.4783   -1.5185 H   0  0  0  0  0  0  0  0  0  0  0  0
   -0.0524    0.5357   -2.1432 H   0  0  0  0  0  0  0  0  0  0  0  0
    0.6038    1.2064   -0.5151 H   0  0  0  0  0  0  0  0  0  0  0  0
   -2.1010   -0.3852    1.6093 H   0  0  0  0  0  0  0  0  0  0  0  0
   -1.5145    1.3675    1.2973 H   0  0  0  0  0  0  0  0  0  0  0  0
   -3.3789   -0.2885   -0.5630 H   0  0  0  0  0  0  0  0  0  0  0  0
   -2.6290    1.3950   -0.9393 H   0  0  0  0  0  0  0  0  0  0  0  0
  1  2  1  0
  2  3  2  0
  2  4  1  0
  4  5  1  0
  5  6  1  0
  6  7  1  0
  7  8  1  0
  6  9  1  0
  9  4  1  0
  8  6  1  0
  1 10  1  0
  1 11  1  0
  1 12  1  0
  4 13  1  0
  5 14  1  0
  5 15  1  0
  7 16  1  0
  7 17  1  0
  8 18  1  0
  8 19  1  0
M  END
