
     RDKit          3D

 19 19  0  0  0  0  0  0  0  0999 V2000
    2.4068   -0.5278    0.5173 C   0  0  0  0  0  0  0  0  0  0  0  0
    1.2175   -0.9838   -0.2265 C   0  0  0  0  0  0  0  0  0  0  0  0
    1.0420   -2.1674   -0.4129 O   0  0  0  0  0  0  0  0  0  0  0  0
    0.2463   -0.0090   -0.7413 C   0  0  0  0  0  0  0  0  0  0  0  0
    0.6826    1.2767   -0.3914 O   0  0  0  0  0  0  0  0  0  0  0  0
   -0.4760    2.0327   -0.5334 C   0  0  0  0  0  0  0  0  0  0  0  0
   -1.4883    1.1969    0.1465 C   0  0  0  0  0  0  0  0  0  0  0  0
   -1.0577   -0.0526    0.0254 C   0  0  0  0  0  0  0  0  0  0  0  0
   -1.7000   -1.2834    0.5292 C   0  0  0  0  0  0  0  0  0  0  0  0
    2.2441    0.5242    0.8666 H   0  0  0  0  0  0  0  0  0  0  0  0
    3.2688   -0.5014   -0.1799 H   0  0  0  0  0  0  0  0  0  0  0  0
    2.6511   -1.1368    1.3937 H   0  0  0  0  0  0  0  0  0  0  0  0
    0.0633   -0.0934   -1.8315 H   0  0  0  0  0  0  0  0  0  0  0  0
   -0.3861    3.0467   -0.1115 H   0  0  0  0  0  0  0  0  0  0  0  0
   -0.6839    2.0626   -1.6399 H   0  0  0  0  0  0  0  0  0  0  0  0
   -2.4066    1.4742    0.6549 H   0  0  0  0  0  0  0  0  0  0  0  0
   -2.3491   -1.7071   -0.2821 H   0  0  0  0  0  0  0  0  0  0  0  0
   -0.9652   -2.0550    0.7796 H   0  0  0  0  0  0  0  0  0  0  0  0
   -2.3096   -1.0965    1.4370 H   0  0  0  0  0  0  0  0  0  0  0  0
  1  2  1  0
  2  3  2  0
  2  4  1  0
  4  5  1  0
  5  6  1  0
  6  7  1  0
  7  8  2  0
  8  9  1  0
  8  4  1  0
  1 10  1  0
  1 11  1  0
  1 12  1  0
  4 13  1  0
  6 14  1  0
  6 15  1  0
  7 16  1  0
  9 17  1  0
  9 18  1  0
  9 19  1  0
M  END
