
     RDKit          3D

 23 23  0  0  0  0  0  0  0  0999 V2000
    1.8437   -1.2682    1.3684 C   0  0  0  0  0  0  0  0  0  0  0  0
    1.6086   -0.5967    0.1093 C   0  0  0  0  0  0  0  0  0  0  0  0
    2.5456   -0.6180   -0.7464 O   0  0  0  0  0  0  0  0  0  0  0  0
    0.4502    0.1592   -0.4135 C   0  0  0  0  0  0  0  0  0  0  0  0
   -0.9509   -0.3444   -0.2348 C   0  0  0  0  0  0  0  0  0  0  0  0
   -1.5103   -0.3792    1.1055 C   0  0  0  0  0  0  0  0  0  0  0  0
   -1.8440    0.0683   -1.3782 C   0  0  0  0  0  0  0  0  0  0  0  0
    0.5389    1.6493    0.1019 C   0  0  0  0  0  0  0  0  0  0  0  0
    0.7520    1.3096   -1.3537 C   0  0  0  0  0  0  0  0  0  0  0  0
    2.6764   -2.0509    1.1924 H   0  0  0  0  0  0  0  0  0  0  0  0
    2.4209   -0.5816    2.0905 H   0  0  0  0  0  0  0  0  0  0  0  0
    1.0814   -1.8310    1.8918 H   0  0  0  0  0  0  0  0  0  0  0  0
   -0.8547   -1.5212   -0.4690 H   0  0  0  0  0  0  0  0  0  0  0  0
   -1.9542    0.5854    1.5103 H   0  0  0  0  0  0  0  0  0  0  0  0
   -0.8581   -0.8211    1.8371 H   0  0  0  0  0  0  0  0  0  0  0  0
   -2.4604   -1.0307    1.0944 H   0  0  0  0  0  0  0  0  0  0  0  0
   -2.2446    1.0701   -1.3562 H   0  0  0  0  0  0  0  0  0  0  0  0
   -1.2317   -0.1182   -2.3170 H   0  0  0  0  0  0  0  0  0  0  0  0
   -2.6755   -0.6657   -1.4500 H   0  0  0  0  0  0  0  0  0  0  0  0
   -0.4484    2.0406    0.3590 H   0  0  0  0  0  0  0  0  0  0  0  0
    1.3776    1.7588    0.7910 H   0  0  0  0  0  0  0  0  0  0  0  0
    1.7900    1.5197   -1.6752 H   0  0  0  0  0  0  0  0  0  0  0  0
   -0.0523    1.6659   -2.0578 H   0  0  0  0  0  0  0  0  0  0  0  0
  1  2  1  0
  2  3  2  0
  2  4  1  0
  4  5  1  0
  5  6  1  0
  5  7  1  0
  4  8  1  0
  8  9  1  0
  9  4  1  0
  1 10  1  0
  1 11  1  0
  1 12  1  0
  5 13  1  0
  6 14  1  0
  6 15  1  0
  6 16  1  0
  7 17  1  0
  7 18  1  0
  7 19  1  0
  8 20  1  0
  8 21  1  0
  9 22  1  0
  9 23  1  0
M  END
