
     RDKit          3D

 19 19  0  0  0  0  0  0  0  0999 V2000
    2.8589   -0.8187    0.4147 C   0  0  0  0  0  0  0  0  0  0  0  0
    1.8885    0.1865   -0.0912 C   0  0  0  0  0  0  0  0  0  0  0  0
    2.2506    1.3510   -0.0680 O   0  0  0  0  0  0  0  0  0  0  0  0
    0.5505   -0.1471   -0.6038 C   0  0  0  0  0  0  0  0  0  0  0  0
   -0.1166    1.0054   -1.0012 O   0  0  0  0  0  0  0  0  0  0  0  0
   -0.9208    1.3374    0.0849 C   0  0  0  0  0  0  0  0  0  0  0  0
   -1.3711   -0.0508    0.5383 C   0  0  0  0  0  0  0  0  0  0  0  0
   -2.5358   -0.4323   -0.3438 C   0  0  0  0  0  0  0  0  0  0  0  0
   -0.2449   -0.7984    0.3161 O   0  0  0  0  0  0  0  0  0  0  0  0
    2.4663   -1.8384    0.4406 H   0  0  0  0  0  0  0  0  0  0  0  0
    3.1836   -0.4517    1.4300 H   0  0  0  0  0  0  0  0  0  0  0  0
    3.7862   -0.7905   -0.2066 H   0  0  0  0  0  0  0  0  0  0  0  0
    0.6081   -0.7943   -1.5284 H   0  0  0  0  0  0  0  0  0  0  0  0
   -1.7888    1.9542   -0.2218 H   0  0  0  0  0  0  0  0  0  0  0  0
   -0.3506    1.7957    0.9100 H   0  0  0  0  0  0  0  0  0  0  0  0
   -1.6980   -0.0457    1.5948 H   0  0  0  0  0  0  0  0  0  0  0  0
   -2.5774    0.2083   -1.2705 H   0  0  0  0  0  0  0  0  0  0  0  0
   -3.4754   -0.2026    0.2085 H   0  0  0  0  0  0  0  0  0  0  0  0
   -2.5133   -1.4679   -0.6844 H   0  0  0  0  0  0  0  0  0  0  0  0
  1  2  1  0
  2  3  2  0
  2  4  1  0
  4  5  1  0
  5  6  1  0
  6  7  1  0
  7  8  1  0
  7  9  1  0
  9  4  1  0
  1 10  1  0
  1 11  1  0
  1 12  1  0
  4 13  1  0
  6 14  1  0
  6 15  1  0
  7 16  1  0
  8 17  1  0
  8 18  1  0
  8 19  1  0
M  END
