
     RDKit          3D

 19 19  0  0  0  0  0  0  0  0999 V2000
    2.8384   -0.4020    0.0441 C   0  0  0  0  0  0  0  0  0  0  0  0
    1.8148    0.6516   -0.0399 C   0  0  0  0  0  0  0  0  0  0  0  0
    2.2039    1.8427   -0.0534 O   0  0  0  0  0  0  0  0  0  0  0  0
    0.3659    0.3124   -0.1064 C   0  0  0  0  0  0  0  0  0  0  0  0
   -0.5920    1.1997   -0.1822 C   0  0  0  0  0  0  0  0  0  0  0  0
   -1.9147    0.5484   -0.2332 C   0  0  0  0  0  0  0  0  0  0  0  0
   -2.5814    0.7588    0.9683 O   0  0  0  0  0  0  0  0  0  0  0  0
   -1.6052   -0.8814   -0.5064 C   0  0  0  0  0  0  0  0  0  0  0  0
   -0.1572   -1.0479   -0.0951 C   0  0  0  0  0  0  0  0  0  0  0  0
    3.6118   -0.3103   -0.7584 H   0  0  0  0  0  0  0  0  0  0  0  0
    2.3567   -1.4070    0.0461 H   0  0  0  0  0  0  0  0  0  0  0  0
    3.4047   -0.2175    1.0027 H   0  0  0  0  0  0  0  0  0  0  0  0
   -0.3917    2.2961   -0.2030 H   0  0  0  0  0  0  0  0  0  0  0  0
   -2.4585    0.9811   -1.0995 H   0  0  0  0  0  0  0  0  0  0  0  0
   -3.1023    1.6122    0.8490 H   0  0  0  0  0  0  0  0  0  0  0  0
   -2.2759   -1.5926    0.0426 H   0  0  0  0  0  0  0  0  0  0  0  0
   -1.7248   -1.1083   -1.6016 H   0  0  0  0  0  0  0  0  0  0  0  0
   -0.1681   -1.5032    0.9362 H   0  0  0  0  0  0  0  0  0  0  0  0
    0.3755   -1.7330   -0.7913 H   0  0  0  0  0  0  0  0  0  0  0  0
  1  2  1  0
  2  3  2  0
  2  4  1  0
  4  5  2  0
  5  6  1  0
  6  7  1  0
  6  8  1  0
  8  9  1  0
  9  4  1  0
  1 10  1  0
  1 11  1  0
  1 12  1  0
  5 13  1  0
  6 14  1  0
  7 15  1  0
  8 16  1  0
  8 17  1  0
  9 18  1  0
  9 19  1  0
M  END
