
     RDKit          3D

 17 17  0  0  0  0  0  0  0  0999 V2000
    2.1721   -0.5553   -0.2273 C   0  0  0  0  0  0  0  0  0  0  0  0
    0.8720   -0.5625    0.4811 C   0  0  0  0  0  0  0  0  0  0  0  0
    0.7360   -1.3613    1.4114 O   0  0  0  0  0  0  0  0  0  0  0  0
   -0.2288    0.3685    0.0806 C   0  0  0  0  0  0  0  0  0  0  0  0
    0.1222    1.2614   -1.0327 C   0  0  0  0  0  0  0  0  0  0  0  0
   -0.0329    2.5158   -0.7661 O   0  0  0  0  0  0  0  0  0  0  0  0
   -1.3254    0.8140    0.9780 C   0  0  0  0  0  0  0  0  0  0  0  0
   -1.5523   -0.2946   -0.0656 C   0  0  0  0  0  0  0  0  0  0  0  0
   -1.8214   -1.5137    0.4954 O   0  0  0  0  0  0  0  0  0  0  0  0
    2.9204   -1.2240    0.2664 H   0  0  0  0  0  0  0  0  0  0  0  0
    2.0270   -0.7859   -1.2860 H   0  0  0  0  0  0  0  0  0  0  0  0
    2.5726    0.4767   -0.1300 H   0  0  0  0  0  0  0  0  0  0  0  0
    0.4625    0.9976   -1.9700 H   0  0  0  0  0  0  0  0  0  0  0  0
   -1.9359    1.7091    0.7165 H   0  0  0  0  0  0  0  0  0  0  0  0
   -1.3341    0.5587    2.0343 H   0  0  0  0  0  0  0  0  0  0  0  0
   -2.0737   -0.0994   -0.9901 H   0  0  0  0  0  0  0  0  0  0  0  0
   -1.5803   -2.3053    0.0041 H   0  0  0  0  0  0  0  0  0  0  0  0
  1  2  1  0
  2  3  2  0
  2  4  1  0
  4  5  1  0
  5  6  2  0
  4  7  1  0
  7  8  1  0
  8  9  1  0
  8  4  1  0
  1 10  1  0
  1 11  1  0
  1 12  1  0
  5 13  1  0
  7 14  1  0
  7 15  1  0
  8 16  1  0
  9 17  1  0
M  END
