
     RDKit          3D

 15 16  0  0  0  0  0  0  0  0999 V2000
   -2.4121    0.6329   -0.3246 C   0  0  0  0  0  0  0  0  0  0  0  0
   -1.2797   -0.2763   -0.0397 C   0  0  0  0  0  0  0  0  0  0  0  0
   -1.5100   -1.4215    0.2942 O   0  0  0  0  0  0  0  0  0  0  0  0
    0.0984    0.2602   -0.1770 C   0  0  0  0  0  0  0  0  0  0  0  0
    1.1801   -0.5528   -0.6503 C   0  0  0  0  0  0  0  0  0  0  0  0
    1.9165   -1.5501    0.0773 O   0  0  0  0  0  0  0  0  0  0  0  0
    2.5323   -0.3842    0.5938 C   0  0  0  0  0  0  0  0  0  0  0  0
    3.6587    0.0898    0.7551 O   0  0  0  0  0  0  0  0  0  0  0  0
    1.0984   -0.0258    0.8428 C   0  0  0  0  0  0  0  0  0  0  0  0
   -3.3458    0.0799   -0.5693 H   0  0  0  0  0  0  0  0  0  0  0  0
   -2.6101    1.3208    0.5427 H   0  0  0  0  0  0  0  0  0  0  0  0
   -2.0948    1.2951   -1.1558 H   0  0  0  0  0  0  0  0  0  0  0  0
    0.0806    1.3457   -0.4971 H   0  0  0  0  0  0  0  0  0  0  0  0
    1.9526   -0.0054   -1.2772 H   0  0  0  0  0  0  0  0  0  0  0  0
    0.7351   -0.8083    1.5849 H   0  0  0  0  0  0  0  0  0  0  0  0
  1  2  1  0
  2  3  2  0
  2  4  1  0
  4  5  1  0
  5  6  1  0
  6  7  1  0
  7  8  2  0
  7  9  1  0
  9  4  1  0
  9  5  1  0
  1 10  1  0
  1 11  1  0
  1 12  1  0
  4 13  1  0
  5 14  1  0
  9 15  1  0
M  END
