
     RDKit          3D

 18 18  0  0  0  0  0  0  0  0999 V2000
    2.5496   -0.1439   -0.2682 C   0  0  0  0  0  0  0  0  0  0  0  0
    1.3454   -0.3501    0.5634 C   0  0  0  0  0  0  0  0  0  0  0  0
    1.4174   -1.0437    1.5486 O   0  0  0  0  0  0  0  0  0  0  0  0
    0.0788    0.2882    0.1846 C   0  0  0  0  0  0  0  0  0  0  0  0
   -1.0974    0.0282    1.0829 C   0  0  0  0  0  0  0  0  0  0  0  0
   -1.9518    0.0117   -0.1919 C   0  0  0  0  0  0  0  0  0  0  0  0
   -2.2973    1.2605   -0.6593 O   0  0  0  0  0  0  0  0  0  0  0  0
   -0.6847   -0.5051   -0.8874 C   0  0  0  0  0  0  0  0  0  0  0  0
    3.4804   -0.4757    0.2501 H   0  0  0  0  0  0  0  0  0  0  0  0
    2.4404   -0.7501   -1.2084 H   0  0  0  0  0  0  0  0  0  0  0  0
    2.6499    0.9090   -0.6027 H   0  0  0  0  0  0  0  0  0  0  0  0
    0.1725    1.3653   -0.0643 H   0  0  0  0  0  0  0  0  0  0  0  0
   -1.3614    0.8028    1.8017 H   0  0  0  0  0  0  0  0  0  0  0  0
   -1.1129   -0.9853    1.5164 H   0  0  0  0  0  0  0  0  0  0  0  0
   -2.7768   -0.7001   -0.1593 H   0  0  0  0  0  0  0  0  0  0  0  0
   -1.7537    1.9905   -0.3166 H   0  0  0  0  0  0  0  0  0  0  0  0
   -0.5402   -0.1350   -1.9029 H   0  0  0  0  0  0  0  0  0  0  0  0
   -0.5581   -1.5672   -0.6867 H   0  0  0  0  0  0  0  0  0  0  0  0
  1  2  1  0
  2  3  2  0
  2  4  1  0
  4  5  1  0
  5  6  1  0
  6  7  1  0
  6  8  1  0
  8  4  1  0
  1  9  1  0
  1 10  1  0
  1 11  1  0
  4 12  1  0
  5 13  1  0
  5 14  1  0
  6 15  1  0
  7 16  1  0
  8 17  1  0
  8 18  1  0
M  END
