
     RDKit          3D

 13 12  0  0  0  0  0  0  0  0999 V2000
    2.3605    0.3218   -1.0564 C   0  0  0  0  0  0  0  0  0  0  0  0
    1.5967   -0.4826   -0.0731 C   0  0  0  0  0  0  0  0  0  0  0  0
    2.1841   -1.4519    0.5148 O   0  0  0  0  0  0  0  0  0  0  0  0
    0.2219   -0.1876    0.2214 C   0  0  0  0  0  0  0  0  0  0  0  0
   -0.9476    0.0819    0.4614 C   0  0  0  0  0  0  0  0  0  0  0  0
   -2.3534    0.3860    0.7320 C   0  0  0  0  0  0  0  0  0  0  0  0
   -3.0493   -0.7382    1.1873 O   0  0  0  0  0  0  0  0  0  0  0  0
    2.0333    1.3890   -0.9757 H   0  0  0  0  0  0  0  0  0  0  0  0
    2.1757   -0.0306   -2.0907 H   0  0  0  0  0  0  0  0  0  0  0  0
    3.4344    0.2426   -0.8055 H   0  0  0  0  0  0  0  0  0  0  0  0
   -2.4109    1.1406    1.5145 H   0  0  0  0  0  0  0  0  0  0  0  0
   -2.8304    0.8259   -0.1825 H   0  0  0  0  0  0  0  0  0  0  0  0
   -2.4149   -1.4970    1.1365 H   0  0  0  0  0  0  0  0  0  0  0  0
  1  2  1  0
  2  3  2  0
  2  4  1  0
  4  5  3  0
  5  6  1  0
  6  7  1  0
  1  8  1  0
  1  9  1  0
  1 10  1  0
  6 11  1  0
  6 12  1  0
  7 13  1  0
M  END
