
     RDKit          3D

 21 21  0  0  0  0  0  0  0  0999 V2000
    2.8397   -0.2017    0.1084 C   0  0  0  0  0  0  0  0  0  0  0  0
    1.6510    0.5781   -0.2924 C   0  0  0  0  0  0  0  0  0  0  0  0
    1.7268    1.7879   -0.4249 O   0  0  0  0  0  0  0  0  0  0  0  0
    0.3332   -0.0596   -0.5483 C   0  0  0  0  0  0  0  0  0  0  0  0
    0.3472   -1.4192   -0.3741 O   0  0  0  0  0  0  0  0  0  0  0  0
   -0.8933   -1.8521    0.0010 C   0  0  0  0  0  0  0  0  0  0  0  0
   -1.8025   -0.6459    0.1050 C   0  0  0  0  0  0  0  0  0  0  0  0
   -0.7429    0.4338    0.3672 C   0  0  0  0  0  0  0  0  0  0  0  0
   -1.2752    1.7777    0.0454 C   0  0  0  0  0  0  0  0  0  0  0  0
    3.6090   -0.2634   -0.6686 H   0  0  0  0  0  0  0  0  0  0  0  0
    2.4953   -1.1961    0.4557 H   0  0  0  0  0  0  0  0  0  0  0  0
    3.3099    0.2943    0.9937 H   0  0  0  0  0  0  0  0  0  0  0  0
    0.0703    0.1453   -1.6099 H   0  0  0  0  0  0  0  0  0  0  0  0
   -0.7991   -2.2395    1.0594 H   0  0  0  0  0  0  0  0  0  0  0  0
   -1.3147   -2.6527   -0.6373 H   0  0  0  0  0  0  0  0  0  0  0  0
   -2.2457   -0.4621   -0.8850 H   0  0  0  0  0  0  0  0  0  0  0  0
   -2.5150   -0.7135    0.9279 H   0  0  0  0  0  0  0  0  0  0  0  0
   -0.4289    0.3342    1.4130 H   0  0  0  0  0  0  0  0  0  0  0  0
   -0.6550    2.5777    0.4535 H   0  0  0  0  0  0  0  0  0  0  0  0
   -1.4265    1.9021   -1.0231 H   0  0  0  0  0  0  0  0  0  0  0  0
   -2.2837    1.8746    0.5333 H   0  0  0  0  0  0  0  0  0  0  0  0
  1  2  1  0
  2  3  2  0
  2  4  1  0
  4  5  1  0
  5  6  1  0
  6  7  1  0
  7  8  1  0
  8  9  1  0
  8  4  1  0
  1 10  1  0
  1 11  1  0
  1 12  1  0
  4 13  1  0
  6 14  1  0
  6 15  1  0
  7 16  1  0
  7 17  1  0
  8 18  1  0
  9 19  1  0
  9 20  1  0
  9 21  1  0
M  END
