
     RDKit          3D

 19 19  0  0  0  0  0  0  0  0999 V2000
    2.9316    0.3892   -0.1595 C   0  0  0  0  0  0  0  0  0  0  0  0
    1.6212   -0.1789   -0.4992 C   0  0  0  0  0  0  0  0  0  0  0  0
    1.4143   -0.7696   -1.5558 O   0  0  0  0  0  0  0  0  0  0  0  0
    0.4755   -0.0561    0.4438 C   0  0  0  0  0  0  0  0  0  0  0  0
   -0.7704   -0.7030   -0.0930 C   0  0  0  0  0  0  0  0  0  0  0  0
   -1.8985   -0.5391    0.9215 C   0  0  0  0  0  0  0  0  0  0  0  0
   -2.1312    0.8069    0.2845 C   0  0  0  0  0  0  0  0  0  0  0  0
   -2.5512    1.8708    0.6660 O   0  0  0  0  0  0  0  0  0  0  0  0
   -1.6063    0.1876   -0.9890 C   0  0  0  0  0  0  0  0  0  0  0  0
    3.7348   -0.1704   -0.7185 H   0  0  0  0  0  0  0  0  0  0  0  0
    3.1832    0.3038    0.9172 H   0  0  0  0  0  0  0  0  0  0  0  0
    2.9872    1.4371   -0.5253 H   0  0  0  0  0  0  0  0  0  0  0  0
    0.2597    0.9910    0.6973 H   0  0  0  0  0  0  0  0  0  0  0  0
    0.7508   -0.6158    1.3840 H   0  0  0  0  0  0  0  0  0  0  0  0
   -0.6907   -1.7473   -0.3928 H   0  0  0  0  0  0  0  0  0  0  0  0
   -1.5452   -0.4916    1.9583 H   0  0  0  0  0  0  0  0  0  0  0  0
   -2.7126   -1.2664    0.7201 H   0  0  0  0  0  0  0  0  0  0  0  0
   -2.3987   -0.3765   -1.4912 H   0  0  0  0  0  0  0  0  0  0  0  0
   -1.0534    0.9285   -1.5685 H   0  0  0  0  0  0  0  0  0  0  0  0
  1  2  1  0
  2  3  2  0
  2  4  1  0
  4  5  1  0
  5  6  1  0
  6  7  1  0
  7  8  2  0
  7  9  1  0
  9  5  1  0
  1 10  1  0
  1 11  1  0
  1 12  1  0
  4 13  1  0
  4 14  1  0
  5 15  1  0
  6 16  1  0
  6 17  1  0
  9 18  1  0
  9 19  1  0
M  END
