
     RDKit          3D

 20 19  0  0  0  0  0  0  0  0999 V2000
    2.2166    0.8683    0.3602 C   0  0  0  0  0  0  0  0  0  0  0  0
    1.6161   -0.4887    0.3256 C   0  0  0  0  0  0  0  0  0  0  0  0
    2.3871   -1.4241    0.1958 O   0  0  0  0  0  0  0  0  0  0  0  0
    0.2004   -0.7864    0.4328 C   0  0  0  0  0  0  0  0  0  0  0  0
   -0.0264   -2.1571    0.3641 O   0  0  0  0  0  0  0  0  0  0  0  0
   -0.6843   -0.1292   -0.5838 C   0  0  0  0  0  0  0  0  0  0  0  0
   -2.1044   -0.6016   -0.2531 C   0  0  0  0  0  0  0  0  0  0  0  0
   -0.7107    1.3593   -0.5060 C   0  0  0  0  0  0  0  0  0  0  0  0
    2.4529    1.2529   -0.6496 H   0  0  0  0  0  0  0  0  0  0  0  0
    3.2142    0.7980    0.8843 H   0  0  0  0  0  0  0  0  0  0  0  0
    1.6391    1.6025    0.9187 H   0  0  0  0  0  0  0  0  0  0  0  0
   -0.1546   -0.4173    1.4410 H   0  0  0  0  0  0  0  0  0  0  0  0
   -0.0541   -2.3886   -0.6130 H   0  0  0  0  0  0  0  0  0  0  0  0
   -0.3748   -0.4882   -1.5888 H   0  0  0  0  0  0  0  0  0  0  0  0
   -2.1816   -0.6668    0.8593 H   0  0  0  0  0  0  0  0  0  0  0  0
   -2.8453    0.0926   -0.6823 H   0  0  0  0  0  0  0  0  0  0  0  0
   -2.2423   -1.6421   -0.6307 H   0  0  0  0  0  0  0  0  0  0  0  0
   -1.6392    1.6987   -1.0527 H   0  0  0  0  0  0  0  0  0  0  0  0
   -0.8603    1.6511    0.5524 H   0  0  0  0  0  0  0  0  0  0  0  0
    0.1517    1.8668   -0.9461 H   0  0  0  0  0  0  0  0  0  0  0  0
  1  2  1  0
  2  3  2  0
  2  4  1  0
  4  5  1  0
  4  6  1  0
  6  7  1  0
  6  8  1  0
  1  9  1  0
  1 10  1  0
  1 11  1  0
  4 12  1  0
  5 13  1  0
  6 14  1  0
  7 15  1  0
  7 16  1  0
  7 17  1  0
  8 18  1  0
  8 19  1  0
  8 20  1  0
M  END
