
     RDKit          3D

 19 19  0  0  0  0  0  0  0  0999 V2000
    3.1711    0.1228   -0.3154 C   0  0  0  0  0  0  0  0  0  0  0  0
    1.7684    0.0927    0.1810 C   0  0  0  0  0  0  0  0  0  0  0  0
    1.5418    0.0383    1.4335 O   0  0  0  0  0  0  0  0  0  0  0  0
    0.6958    0.1243   -0.7309 O   0  0  0  0  0  0  0  0  0  0  0  0
   -0.5917    0.0921   -0.1685 C   0  0  0  0  0  0  0  0  0  0  0  0
   -0.9343    1.2246    0.7658 C   0  0  0  0  0  0  0  0  0  0  0  0
   -1.1119   -1.2808    0.1227 C   0  0  0  0  0  0  0  0  0  0  0  0
   -1.7483   -0.4336   -0.9480 C   0  0  0  0  0  0  0  0  0  0  0  0
   -3.0306   -0.0229   -0.6436 O   0  0  0  0  0  0  0  0  0  0  0  0
    3.2847    0.9383   -1.0710 H   0  0  0  0  0  0  0  0  0  0  0  0
    3.8486    0.2431    0.5287 H   0  0  0  0  0  0  0  0  0  0  0  0
    3.3435   -0.8807   -0.7963 H   0  0  0  0  0  0  0  0  0  0  0  0
   -1.9991    1.5516    0.6608 H   0  0  0  0  0  0  0  0  0  0  0  0
   -0.3267    2.1170    0.4595 H   0  0  0  0  0  0  0  0  0  0  0  0
   -0.6762    1.0129    1.8184 H   0  0  0  0  0  0  0  0  0  0  0  0
   -1.5903   -1.4036    1.1040 H   0  0  0  0  0  0  0  0  0  0  0  0
   -0.5628   -2.1474   -0.2611 H   0  0  0  0  0  0  0  0  0  0  0  0
   -1.5528   -0.6642   -1.9954 H   0  0  0  0  0  0  0  0  0  0  0  0
   -3.5293   -0.7243   -0.1200 H   0  0  0  0  0  0  0  0  0  0  0  0
  1  2  1  0
  2  3  2  0
  2  4  1  0
  4  5  1  0
  5  6  1  0
  5  7  1  0
  7  8  1  0
  8  9  1  0
  8  5  1  0
  1 10  1  0
  1 11  1  0
  1 12  1  0
  6 13  1  0
  6 14  1  0
  6 15  1  0
  7 16  1  0
  7 17  1  0
  8 18  1  0
  9 19  1  0
M  END
