
     RDKit          3D

 17 16  0  0  0  0  0  0  0  0999 V2000
    2.9095   -0.6786   -1.2445 C   0  0  0  0  0  0  0  0  0  0  0  0
    1.6740   -0.8090   -1.7653 C   0  0  0  0  0  0  0  0  0  0  0  0
    0.6813   -0.9705   -2.4169 O   0  0  0  0  0  0  0  0  0  0  0  0
    0.6613   -0.4383   -0.4143 C   0  0  0  0  0  0  0  0  0  0  0  0
   -0.2032   -0.1031    0.7778 C   0  0  0  0  0  0  0  0  0  0  0  0
   -1.0094    0.2333    1.9216 C   0  0  0  0  0  0  0  0  0  0  0  0
   -1.5849    1.5667    1.3399 C   0  0  0  0  0  0  0  0  0  0  0  0
   -2.5119   -0.6630    0.9783 C   0  0  0  0  0  0  0  0  0  0  0  0
   -1.6630   -1.1485    0.3168 O   0  0  0  0  0  0  0  0  0  0  0  0
    3.0301   -0.4976   -0.1840 H   0  0  0  0  0  0  0  0  0  0  0  0
    3.5605    0.1746   -1.7659 H   0  0  0  0  0  0  0  0  0  0  0  0
    3.4743   -1.7259   -1.3500 H   0  0  0  0  0  0  0  0  0  0  0  0
   -1.1687   -0.4843    2.5253 H   0  0  0  0  0  0  0  0  0  0  0  0
   -1.8692    2.2339    2.1212 H   0  0  0  0  0  0  0  0  0  0  0  0
   -0.7041    2.1055    0.7891 H   0  0  0  0  0  0  0  0  0  0  0  0
   -2.2394    1.3496    0.4405 H   0  0  0  0  0  0  0  0  0  0  0  0
   -3.0371   -0.1448    1.6595 H   0  0  0  0  0  0  0  0  0  0  0  0
  1  2  1  0
  2  3  2  0
  2  4  1  0
  4  5  3  0
  5  6  1  0
  6  7  1  0
  6  8  1  0
  8  9  2  0
  1 10  1  0
  1 11  1  0
  1 12  1  0
  6 13  1  0
  7 14  1  0
  7 15  1  0
  7 16  1  0
  8 17  1  0
M  END
