
     RDKit          3D

 15 14  0  0  0  0  0  0  0  0999 V2000
    2.7470   -0.0292    0.1569 C   0  0  0  0  0  0  0  0  0  0  0  0
    1.4893   -0.6894    0.5782 C   0  0  0  0  0  0  0  0  0  0  0  0
    1.5857   -1.5717    1.4613 O   0  0  0  0  0  0  0  0  0  0  0  0
    0.2153   -0.2931   -0.0400 C   0  0  0  0  0  0  0  0  0  0  0  0
    0.2216    0.6106   -0.9257 O   0  0  0  0  0  0  0  0  0  0  0  0
   -0.9891   -0.8379    0.2775 O   0  0  0  0  0  0  0  0  0  0  0  0
   -2.1742   -0.4055   -0.3553 C   0  0  0  0  0  0  0  0  0  0  0  0
   -2.3508    1.0320   -0.0427 C   0  0  0  0  0  0  0  0  0  0  0  0
   -1.5691    1.6315    0.6639 O   0  0  0  0  0  0  0  0  0  0  0  0
    3.5605   -0.7748    0.1792 H   0  0  0  0  0  0  0  0  0  0  0  0
    2.9668    0.8536    0.8060 H   0  0  0  0  0  0  0  0  0  0  0  0
    2.6314    0.4012   -0.8811 H   0  0  0  0  0  0  0  0  0  0  0  0
   -2.0870   -0.5742   -1.4602 H   0  0  0  0  0  0  0  0  0  0  0  0
   -3.0601   -0.9550    0.0171 H   0  0  0  0  0  0  0  0  0  0  0  0
   -3.1872    1.6018   -0.4351 H   0  0  0  0  0  0  0  0  0  0  0  0
  1  2  1  0
  2  3  2  0
  2  4  1  0
  4  5  2  0
  4  6  1  0
  6  7  1  0
  7  8  1  0
  8  9  2  0
  1 10  1  0
  1 11  1  0
  1 12  1  0
  7 13  1  0
  7 14  1  0
  8 15  1  0
M  END
