
     RDKit          3D

 14 13  0  0  0  0  0  0  0  0999 V2000
   -2.5703   -0.1357   -0.0581 C   0  0  0  0  0  0  0  0  0  0  0  0
   -1.2476    0.4971    0.2242 C   0  0  0  0  0  0  0  0  0  0  0  0
   -1.1924    1.7026    0.5760 O   0  0  0  0  0  0  0  0  0  0  0  0
    0.0032   -0.2311    0.1084 C   0  0  0  0  0  0  0  0  0  0  0  0
   -0.0728   -1.4410   -0.2463 O   0  0  0  0  0  0  0  0  0  0  0  0
    1.2669    0.4121    0.3892 C   0  0  0  0  0  0  0  0  0  0  0  0
    2.5646   -0.3170    0.2768 C   0  0  0  0  0  0  0  0  0  0  0  0
    1.2524    1.6192    0.7363 O   0  0  0  0  0  0  0  0  0  0  0  0
   -3.2724    0.1672    0.7352 H   0  0  0  0  0  0  0  0  0  0  0  0
   -2.9804    0.3029   -1.0092 H   0  0  0  0  0  0  0  0  0  0  0  0
   -2.4472   -1.2337   -0.1354 H   0  0  0  0  0  0  0  0  0  0  0  0
    3.1297    0.1189   -0.5818 H   0  0  0  0  0  0  0  0  0  0  0  0
    2.4084   -1.3858    0.1281 H   0  0  0  0  0  0  0  0  0  0  0  0
    3.1581   -0.0757    1.1970 H   0  0  0  0  0  0  0  0  0  0  0  0
  1  2  1  0
  2  3  2  0
  2  4  1  0
  4  5  2  0
  4  6  1  0
  6  7  1  0
  6  8  2  0
  1  9  1  0
  1 10  1  0
  1 11  1  0
  7 12  1  0
  7 13  1  0
  7 14  1  0
M  END
