
     RDKit          3D

 16 17  0  0  0  0  0  0  0  0999 V2000
    2.3976    0.4040   -0.2058 C   0  0  0  0  0  0  0  0  0  0  0  0
    1.1780   -0.3995   -0.4737 C   0  0  0  0  0  0  0  0  0  0  0  0
    1.3071   -1.5548   -0.8294 O   0  0  0  0  0  0  0  0  0  0  0  0
   -0.1504    0.1890   -0.3125 C   0  0  0  0  0  0  0  0  0  0  0  0
   -1.3219   -0.6816   -0.6005 C   0  0  0  0  0  0  0  0  0  0  0  0
   -2.1398    0.2140    0.2723 C   0  0  0  0  0  0  0  0  0  0  0  0
   -0.8569   -0.0742    0.9850 C   0  0  0  0  0  0  0  0  0  0  0  0
   -0.9914   -1.3818    0.5529 O   0  0  0  0  0  0  0  0  0  0  0  0
    3.0321   -0.0620    0.6032 H   0  0  0  0  0  0  0  0  0  0  0  0
    3.0342    0.5117   -1.1130 H   0  0  0  0  0  0  0  0  0  0  0  0
    2.1624    1.4231    0.1368 H   0  0  0  0  0  0  0  0  0  0  0  0
   -0.2550    1.2219   -0.6742 H   0  0  0  0  0  0  0  0  0  0  0  0
   -1.5923   -1.0824   -1.4847 H   0  0  0  0  0  0  0  0  0  0  0  0
   -2.1682    1.2429   -0.1117 H   0  0  0  0  0  0  0  0  0  0  0  0
   -3.0565   -0.2118    0.6728 H   0  0  0  0  0  0  0  0  0  0  0  0
   -0.5790    0.2416    1.8992 H   0  0  0  0  0  0  0  0  0  0  0  0
  1  2  1  0
  2  3  2  0
  2  4  1  0
  4  5  1  0
  5  6  1  0
  6  7  1  0
  7  8  1  0
  7  4  1  0
  8  5  1  0
  1  9  1  0
  1 10  1  0
  1 11  1  0
  4 12  1  0
  5 13  1  0
  6 14  1  0
  6 15  1  0
  7 16  1  0
M  END
