
     RDKit          3D

 21 20  0  0  0  0  0  0  0  0999 V2000
    3.6489    0.2215    0.1889 C   0  0  0  0  0  0  0  0  0  0  0  0
    2.2076    0.2194    0.4788 C   0  0  0  0  0  0  0  0  0  0  0  0
    1.7454    1.0666    1.2035 O   0  0  0  0  0  0  0  0  0  0  0  0
    1.3304   -0.8190   -0.1176 C   0  0  0  0  0  0  0  0  0  0  0  0
   -0.1076   -0.6522    0.2975 C   0  0  0  0  0  0  0  0  0  0  0  0
   -0.5740    0.5669   -0.1017 O   0  0  0  0  0  0  0  0  0  0  0  0
   -1.8910    0.8201    0.2325 C   0  0  0  0  0  0  0  0  0  0  0  0
   -2.8635   -0.1519   -0.3511 C   0  0  0  0  0  0  0  0  0  0  0  0
   -4.1441    0.2290    0.0704 O   0  0  0  0  0  0  0  0  0  0  0  0
    4.0959   -0.7862    0.1605 H   0  0  0  0  0  0  0  0  0  0  0  0
    3.8578    0.7352   -0.7762 H   0  0  0  0  0  0  0  0  0  0  0  0
    4.2058    0.7888    0.9866 H   0  0  0  0  0  0  0  0  0  0  0  0
    1.7233   -1.8126    0.2296 H   0  0  0  0  0  0  0  0  0  0  0  0
    1.4639   -0.7546   -1.2180 H   0  0  0  0  0  0  0  0  0  0  0  0
   -0.1480   -0.7465    1.4018 H   0  0  0  0  0  0  0  0  0  0  0  0
   -0.6688   -1.5179   -0.1155 H   0  0  0  0  0  0  0  0  0  0  0  0
   -2.1919    1.8445   -0.0378 H   0  0  0  0  0  0  0  0  0  0  0  0
   -1.9569    0.7525    1.3485 H   0  0  0  0  0  0  0  0  0  0  0  0
   -2.6833   -1.1932   -0.0947 H   0  0  0  0  0  0  0  0  0  0  0  0
   -2.8684   -0.0233   -1.4731 H   0  0  0  0  0  0  0  0  0  0  0  0
   -4.1813    1.2131    0.2406 H   0  0  0  0  0  0  0  0  0  0  0  0
  1  2  1  0
  2  3  2  0
  2  4  1  0
  4  5  1  0
  5  6  1  0
  6  7  1  0
  7  8  1  0
  8  9  1  0
  1 10  1  0
  1 11  1  0
  1 12  1  0
  4 13  1  0
  4 14  1  0
  5 15  1  0
  5 16  1  0
  7 17  1  0
  7 18  1  0
  8 19  1  0
  8 20  1  0
  9 21  1  0
M  END
