
     RDKit          3D

 17 18  0  0  0  0  0  0  0  0999 V2000
    2.4354   -0.0221    0.2422 C   0  0  0  0  0  0  0  0  0  0  0  0
    1.1104    0.5685    0.5031 C   0  0  0  0  0  0  0  0  0  0  0  0
    1.0095    1.5318    1.2189 O   0  0  0  0  0  0  0  0  0  0  0  0
   -0.0734   -0.0223   -0.1114 C   0  0  0  0  0  0  0  0  0  0  0  0
    0.1413   -1.1298   -0.9203 O   0  0  0  0  0  0  0  0  0  0  0  0
   -1.2840   -0.2084    0.7390 C   0  0  0  0  0  0  0  0  0  0  0  0
   -2.0893   -0.1746   -0.5177 C   0  0  0  0  0  0  0  0  0  0  0  0
   -1.1135    0.9435   -0.5783 C   0  0  0  0  0  0  0  0  0  0  0  0
   -1.3857    1.1733    0.7641 O   0  0  0  0  0  0  0  0  0  0  0  0
    2.5259   -0.1921   -0.8707 H   0  0  0  0  0  0  0  0  0  0  0  0
    2.5091   -1.0339    0.6968 H   0  0  0  0  0  0  0  0  0  0  0  0
    3.2825    0.6175    0.5425 H   0  0  0  0  0  0  0  0  0  0  0  0
    0.2976   -1.8984   -0.2854 H   0  0  0  0  0  0  0  0  0  0  0  0
   -1.3954   -0.8362    1.5204 H   0  0  0  0  0  0  0  0  0  0  0  0
   -3.1466    0.0502   -0.4445 H   0  0  0  0  0  0  0  0  0  0  0  0
   -1.8095   -1.0122   -1.2026 H   0  0  0  0  0  0  0  0  0  0  0  0
   -1.0144    1.6450   -1.2963 H   0  0  0  0  0  0  0  0  0  0  0  0
  1  2  1  0
  2  3  2  0
  2  4  1  0
  4  5  1  0
  4  6  1  0
  6  7  1  0
  7  8  1  0
  8  9  1  0
  8  4  1  0
  9  6  1  0
  1 10  1  0
  1 11  1  0
  1 12  1  0
  5 13  1  0
  6 14  1  0
  7 15  1  0
  7 16  1  0
  8 17  1  0
M  END
