
     RDKit          3D

 18 18  0  0  0  0  0  0  0  0999 V2000
   -1.8512   -1.3350   -0.6302 C   0  0  0  0  0  0  0  0  0  0  0  0
   -1.4190    0.0489   -0.3557 C   0  0  0  0  0  0  0  0  0  0  0  0
   -2.0070    1.0271   -0.7746 O   0  0  0  0  0  0  0  0  0  0  0  0
   -0.2081    0.2810    0.4714 C   0  0  0  0  0  0  0  0  0  0  0  0
    0.0561    1.7360    0.6296 C   0  0  0  0  0  0  0  0  0  0  0  0
    0.9729   -0.3027   -0.3111 C   0  0  0  0  0  0  0  0  0  0  0  0
    2.3027   -0.2505    0.2012 C   0  0  0  0  0  0  0  0  0  0  0  0
    1.5089   -1.5109    0.1534 O   0  0  0  0  0  0  0  0  0  0  0  0
   -2.3882   -1.4352   -1.6136 H   0  0  0  0  0  0  0  0  0  0  0  0
   -1.0254   -2.0589   -0.6070 H   0  0  0  0  0  0  0  0  0  0  0  0
   -2.6095   -1.6606    0.1385 H   0  0  0  0  0  0  0  0  0  0  0  0
   -0.2958   -0.2696    1.4310 H   0  0  0  0  0  0  0  0  0  0  0  0
    1.1268    1.9948    0.7610 H   0  0  0  0  0  0  0  0  0  0  0  0
   -0.4982    2.1291    1.4912 H   0  0  0  0  0  0  0  0  0  0  0  0
   -0.2680    2.2729   -0.2958 H   0  0  0  0  0  0  0  0  0  0  0  0
    0.8394   -0.2735   -1.4143 H   0  0  0  0  0  0  0  0  0  0  0  0
    3.1583   -0.2745   -0.5146 H   0  0  0  0  0  0  0  0  0  0  0  0
    2.6053   -0.1184    1.2399 H   0  0  0  0  0  0  0  0  0  0  0  0
  1  2  1  0
  2  3  2  0
  2  4  1  0
  4  5  1  0
  4  6  1  0
  6  7  1  0
  7  8  1  0
  8  6  1  0
  1  9  1  0
  1 10  1  0
  1 11  1  0
  4 12  1  0
  5 13  1  0
  5 14  1  0
  5 15  1  0
  6 16  1  0
  7 17  1  0
  7 18  1  0
M  END
