
     RDKit          3D

 17 17  0  0  0  0  0  0  0  0999 V2000
    2.1725   -0.3858    0.3428 C   0  0  0  0  0  0  0  0  0  0  0  0
    1.2656    0.8010    0.1888 C   0  0  0  0  0  0  0  0  0  0  0  0
    1.7287    1.8730   -0.1346 O   0  0  0  0  0  0  0  0  0  0  0  0
   -0.1768    0.5603    0.4537 C   0  0  0  0  0  0  0  0  0  0  0  0
   -1.0641    1.7028    0.3074 C   0  0  0  0  0  0  0  0  0  0  0  0
   -1.2574    2.7706    0.9128 O   0  0  0  0  0  0  0  0  0  0  0  0
   -1.6262    1.1124   -0.8078 O   0  0  0  0  0  0  0  0  0  0  0  0
   -0.8226   -0.0513   -0.7763 C   0  0  0  0  0  0  0  0  0  0  0  0
   -1.5671   -1.3087   -0.4344 C   0  0  0  0  0  0  0  0  0  0  0  0
    1.7704   -1.2481   -0.2544 H   0  0  0  0  0  0  0  0  0  0  0  0
    3.2110   -0.1419    0.0981 H   0  0  0  0  0  0  0  0  0  0  0  0
    2.0745   -0.7000    1.4162 H   0  0  0  0  0  0  0  0  0  0  0  0
   -0.2792   -0.0527    1.3759 H   0  0  0  0  0  0  0  0  0  0  0  0
   -0.1870   -0.0828   -1.6781 H   0  0  0  0  0  0  0  0  0  0  0  0
   -0.9348   -2.1878   -0.6588 H   0  0  0  0  0  0  0  0  0  0  0  0
   -1.7862   -1.3265    0.6653 H   0  0  0  0  0  0  0  0  0  0  0  0
   -2.5214   -1.3344   -1.0164 H   0  0  0  0  0  0  0  0  0  0  0  0
  1  2  1  0
  2  3  2  0
  2  4  1  0
  4  5  1  0
  5  6  2  0
  5  7  1  0
  7  8  1  0
  8  9  1  0
  8  4  1  0
  1 10  1  0
  1 11  1  0
  1 12  1  0
  4 13  1  0
  8 14  1  0
  9 15  1  0
  9 16  1  0
  9 17  1  0
M  END
