
     RDKit          3D

 16 16  0  0  0  0  0  0  0  0999 V2000
    2.4320   -0.1510   -0.3527 C   0  0  0  0  0  0  0  0  0  0  0  0
    1.3175    0.7211    0.0716 C   0  0  0  0  0  0  0  0  0  0  0  0
    1.5867    1.8707    0.4791 O   0  0  0  0  0  0  0  0  0  0  0  0
   -0.0598    0.2737    0.0240 C   0  0  0  0  0  0  0  0  0  0  0  0
   -1.1402    0.9469    0.3708 C   0  0  0  0  0  0  0  0  0  0  0  0
   -2.3537    0.1005    0.1594 C   0  0  0  0  0  0  0  0  0  0  0  0
   -1.8382   -1.1788    0.0352 O   0  0  0  0  0  0  0  0  0  0  0  0
   -0.5261   -1.0467   -0.4303 C   0  0  0  0  0  0  0  0  0  0  0  0
    2.5873   -0.1743   -1.4394 H   0  0  0  0  0  0  0  0  0  0  0  0
    3.3956    0.2024    0.0980 H   0  0  0  0  0  0  0  0  0  0  0  0
    2.2457   -1.1554    0.0824 H   0  0  0  0  0  0  0  0  0  0  0  0
   -1.2075    1.9556    0.7549 H   0  0  0  0  0  0  0  0  0  0  0  0
   -2.9383    0.4445   -0.6892 H   0  0  0  0  0  0  0  0  0  0  0  0
   -2.9945    0.1271    1.0709 H   0  0  0  0  0  0  0  0  0  0  0  0
    0.0902   -1.8895   -0.0465 H   0  0  0  0  0  0  0  0  0  0  0  0
   -0.5965   -1.0468   -1.5400 H   0  0  0  0  0  0  0  0  0  0  0  0
  1  2  1  0
  2  3  2  0
  2  4  1  0
  4  5  2  0
  5  6  1  0
  6  7  1  0
  7  8  1  0
  8  4  1  0
  1  9  1  0
  1 10  1  0
  1 11  1  0
  5 12  1  0
  6 13  1  0
  6 14  1  0
  8 15  1  0
  8 16  1  0
M  END
