
     RDKit          3D

 17 17  0  0  0  0  0  0  0  0999 V2000
    2.1728    0.2847    0.6949 C   0  0  0  0  0  0  0  0  0  0  0  0
    1.4229   -0.8823    0.2079 C   0  0  0  0  0  0  0  0  0  0  0  0
    1.8437   -2.0099    0.5517 O   0  0  0  0  0  0  0  0  0  0  0  0
    0.2313   -0.8737   -0.6426 C   0  0  0  0  0  0  0  0  0  0  0  0
   -0.0196    0.0818   -1.5967 O   0  0  0  0  0  0  0  0  0  0  0  0
   -0.8346    0.1665   -0.4848 C   0  0  0  0  0  0  0  0  0  0  0  0
   -2.2669   -0.3202   -0.5268 C   0  0  0  0  0  0  0  0  0  0  0  0
   -0.6132    1.3879    0.3256 C   0  0  0  0  0  0  0  0  0  0  0  0
   -1.4292    1.7300    1.1939 O   0  0  0  0  0  0  0  0  0  0  0  0
    1.7147    0.7836    1.5898 H   0  0  0  0  0  0  0  0  0  0  0  0
    3.1807   -0.0322    1.0589 H   0  0  0  0  0  0  0  0  0  0  0  0
    2.3919    1.0181   -0.1321 H   0  0  0  0  0  0  0  0  0  0  0  0
   -0.1863   -1.8875   -0.9207 H   0  0  0  0  0  0  0  0  0  0  0  0
   -2.3207   -1.2114    0.1618 H   0  0  0  0  0  0  0  0  0  0  0  0
   -2.5734   -0.6831   -1.5050 H   0  0  0  0  0  0  0  0  0  0  0  0
   -2.9652    0.4359   -0.1634 H   0  0  0  0  0  0  0  0  0  0  0  0
    0.2512    2.0118    0.1875 H   0  0  0  0  0  0  0  0  0  0  0  0
  1  2  1  0
  2  3  2  0
  2  4  1  0
  4  5  1  0
  5  6  1  0
  6  7  1  0
  6  8  1  0
  8  9  2  0
  6  4  1  0
  1 10  1  0
  1 11  1  0
  1 12  1  0
  4 13  1  0
  7 14  1  0
  7 15  1  0
  7 16  1  0
  8 17  1  0
M  END
