
     RDKit          3D

 21 22  0  0  0  0  0  0  0  0999 V2000
    2.3369   -0.5662   -0.6410 C   0  0  0  0  0  0  0  0  0  0  0  0
    1.1310    0.2623   -0.8868 C   0  0  0  0  0  0  0  0  0  0  0  0
    1.0930    0.8691   -1.9360 O   0  0  0  0  0  0  0  0  0  0  0  0
    0.0769    0.3006    0.1285 C   0  0  0  0  0  0  0  0  0  0  0  0
    0.4601    0.8061    1.4902 C   0  0  0  0  0  0  0  0  0  0  0  0
   -1.2222    0.7739   -0.4276 C   0  0  0  0  0  0  0  0  0  0  0  0
   -1.3052   -0.5572   -1.1341 C   0  0  0  0  0  0  0  0  0  0  0  0
   -0.8136   -0.9022    0.2353 C   0  0  0  0  0  0  0  0  0  0  0  0
   -1.8775    0.0525    0.7219 C   0  0  0  0  0  0  0  0  0  0  0  0
    2.1446   -1.4499   -0.0161 H   0  0  0  0  0  0  0  0  0  0  0  0
    2.7598   -0.9236   -1.6112 H   0  0  0  0  0  0  0  0  0  0  0  0
    3.1395    0.0982   -0.2109 H   0  0  0  0  0  0  0  0  0  0  0  0
    0.0210    1.8043    1.6420 H   0  0  0  0  0  0  0  0  0  0  0  0
    0.1953    0.0846    2.3051 H   0  0  0  0  0  0  0  0  0  0  0  0
    1.5688    0.8733    1.5141 H   0  0  0  0  0  0  0  0  0  0  0  0
   -1.4646    1.6680   -0.7983 H   0  0  0  0  0  0  0  0  0  0  0  0
   -0.6402   -0.7166   -1.9741 H   0  0  0  0  0  0  0  0  0  0  0  0
   -2.3696   -0.8581   -1.2690 H   0  0  0  0  0  0  0  0  0  0  0  0
   -0.5949   -1.8005    0.6122 H   0  0  0  0  0  0  0  0  0  0  0  0
   -2.8968   -0.3009    0.5442 H   0  0  0  0  0  0  0  0  0  0  0  0
   -1.7420    0.4823    1.7115 H   0  0  0  0  0  0  0  0  0  0  0  0
  1  2  1  0
  2  3  2  0
  2  4  1  0
  4  5  1  0
  4  6  1  0
  6  7  1  0
  7  8  1  0
  8  9  1  0
  8  4  1  0
  9  6  1  0
  1 10  1  0
  1 11  1  0
  1 12  1  0
  5 13  1  0
  5 14  1  0
  5 15  1  0
  6 16  1  0
  7 17  1  0
  7 18  1  0
  8 19  1  0
  9 20  1  0
  9 21  1  0
M  END
