
     RDKit          3D

 21 21  0  0  0  0  0  0  0  0999 V2000
    2.5574    0.6582    0.1753 C   0  0  0  0  0  0  0  0  0  0  0  0
    1.8806   -0.6336    0.4808 C   0  0  0  0  0  0  0  0  0  0  0  0
    2.4142   -1.3970    1.2702 O   0  0  0  0  0  0  0  0  0  0  0  0
    0.6014   -0.9190   -0.1883 C   0  0  0  0  0  0  0  0  0  0  0  0
   -0.5321   -1.1339    0.8055 C   0  0  0  0  0  0  0  0  0  0  0  0
   -1.7071   -0.8697   -0.1437 C   0  0  0  0  0  0  0  0  0  0  0  0
   -1.1318    0.2915   -0.9217 C   0  0  0  0  0  0  0  0  0  0  0  0
   -1.4348    1.5925   -0.2000 C   0  0  0  0  0  0  0  0  0  0  0  0
    0.2179    0.0968   -1.0258 O   0  0  0  0  0  0  0  0  0  0  0  0
    2.8946    1.1735    1.0970 H   0  0  0  0  0  0  0  0  0  0  0  0
    1.8836    1.3531   -0.3634 H   0  0  0  0  0  0  0  0  0  0  0  0
    3.4054    0.4389   -0.5102 H   0  0  0  0  0  0  0  0  0  0  0  0
    0.7200   -1.9026   -0.7222 H   0  0  0  0  0  0  0  0  0  0  0  0
   -0.5608   -0.3412    1.5580 H   0  0  0  0  0  0  0  0  0  0  0  0
   -0.5838   -2.1485    1.1872 H   0  0  0  0  0  0  0  0  0  0  0  0
   -2.6204   -0.6270    0.3927 H   0  0  0  0  0  0  0  0  0  0  0  0
   -1.7913   -1.7172   -0.8538 H   0  0  0  0  0  0  0  0  0  0  0  0
   -1.5583    0.3692   -1.9354 H   0  0  0  0  0  0  0  0  0  0  0  0
   -2.4642    1.8865   -0.5043 H   0  0  0  0  0  0  0  0  0  0  0  0
   -0.7293    2.3658   -0.4994 H   0  0  0  0  0  0  0  0  0  0  0  0
   -1.4610    1.4639    0.9015 H   0  0  0  0  0  0  0  0  0  0  0  0
  1  2  1  0
  2  3  2  0
  2  4  1  0
  4  5  1  0
  5  6  1  0
  6  7  1  0
  7  8  1  0
  7  9  1  0
  9  4  1  0
  1 10  1  0
  1 11  1  0
  1 12  1  0
  4 13  1  0
  5 14  1  0
  5 15  1  0
  6 16  1  0
  6 17  1  0
  7 18  1  0
  8 19  1  0
  8 20  1  0
  8 21  1  0
M  END
