
     RDKit          3D

 19 20  0  0  0  0  0  0  0  0999 V2000
    2.6120    0.1990    0.1689 C   0  0  0  0  0  0  0  0  0  0  0  0
    1.6015   -0.8483   -0.0296 C   0  0  0  0  0  0  0  0  0  0  0  0
    1.9033   -1.8515   -0.6687 O   0  0  0  0  0  0  0  0  0  0  0  0
    0.2106   -0.7926    0.4917 C   0  0  0  0  0  0  0  0  0  0  0  0
   -0.7232   -0.9050   -0.6707 C   0  0  0  0  0  0  0  0  0  0  0  0
   -1.3527    0.4696   -0.7502 C   0  0  0  0  0  0  0  0  0  0  0  0
   -2.3703    0.7493    0.2969 C   0  0  0  0  0  0  0  0  0  0  0  0
   -0.9502    1.1200    0.4916 C   0  0  0  0  0  0  0  0  0  0  0  0
   -0.0737    0.3398    1.1932 O   0  0  0  0  0  0  0  0  0  0  0  0
    3.2972    0.2016   -0.7253 H   0  0  0  0  0  0  0  0  0  0  0  0
    3.2445   -0.0944    1.0342 H   0  0  0  0  0  0  0  0  0  0  0  0
    2.2140    1.2178    0.2501 H   0  0  0  0  0  0  0  0  0  0  0  0
    0.0982   -1.7038    1.1497 H   0  0  0  0  0  0  0  0  0  0  0  0
   -0.2074   -1.1431   -1.6221 H   0  0  0  0  0  0  0  0  0  0  0  0
   -1.5218   -1.6317   -0.4177 H   0  0  0  0  0  0  0  0  0  0  0  0
   -1.3048    1.0447   -1.6787 H   0  0  0  0  0  0  0  0  0  0  0  0
   -2.8197   -0.1286    0.8266 H   0  0  0  0  0  0  0  0  0  0  0  0
   -3.1040    1.5419    0.0873 H   0  0  0  0  0  0  0  0  0  0  0  0
   -0.7535    2.2152    0.5729 H   0  0  0  0  0  0  0  0  0  0  0  0
  1  2  1  0
  2  3  2  0
  2  4  1  0
  4  5  1  0
  5  6  1  0
  6  7  1  0
  7  8  1  0
  8  9  1  0
  9  4  1  0
  8  6  1  0
  1 10  1  0
  1 11  1  0
  1 12  1  0
  4 13  1  0
  5 14  1  0
  5 15  1  0
  6 16  1  0
  7 17  1  0
  7 18  1  0
  8 19  1  0
M  END
