
     RDKit          3D

 21 20  0  0  0  0  0  0  0  0999 V2000
   -3.4130   -0.2276   -0.5050 C   0  0  0  0  0  0  0  0  0  0  0  0
   -2.4601    0.1303    0.5696 C   0  0  0  0  0  0  0  0  0  0  0  0
   -2.7422   -0.1092    1.7250 O   0  0  0  0  0  0  0  0  0  0  0  0
   -1.1610    0.7759    0.2742 C   0  0  0  0  0  0  0  0  0  0  0  0
    0.0126   -0.1545    0.5567 C   0  0  0  0  0  0  0  0  0  0  0  0
    1.2809    0.5943    0.2130 C   0  0  0  0  0  0  0  0  0  0  0  0
    2.4885   -0.2072    0.4371 C   0  0  0  0  0  0  0  0  0  0  0  0
    3.3072   -0.6591   -0.7081 C   0  0  0  0  0  0  0  0  0  0  0  0
    2.8298   -0.5072    1.5592 O   0  0  0  0  0  0  0  0  0  0  0  0
   -4.4633    0.0169   -0.2511 H   0  0  0  0  0  0  0  0  0  0  0  0
   -3.4048   -1.3419   -0.7004 H   0  0  0  0  0  0  0  0  0  0  0  0
   -3.1116    0.2274   -1.4847 H   0  0  0  0  0  0  0  0  0  0  0  0
   -1.0868    1.1124   -0.7801 H   0  0  0  0  0  0  0  0  0  0  0  0
   -1.0475    1.7268    0.8730 H   0  0  0  0  0  0  0  0  0  0  0  0
   -0.0509   -0.4684    1.5999 H   0  0  0  0  0  0  0  0  0  0  0  0
   -0.0876   -1.0605   -0.0724 H   0  0  0  0  0  0  0  0  0  0  0  0
    1.1873    0.9409   -0.8372 H   0  0  0  0  0  0  0  0  0  0  0  0
    1.2726    1.5096    0.8594 H   0  0  0  0  0  0  0  0  0  0  0  0
    4.2472   -1.1488   -0.3627 H   0  0  0  0  0  0  0  0  0  0  0  0
    3.6223    0.2436   -1.2523 H   0  0  0  0  0  0  0  0  0  0  0  0
    2.7804   -1.3938   -1.3589 H   0  0  0  0  0  0  0  0  0  0  0  0
  1  2  1  0
  2  3  2  0
  2  4  1  0
  4  5  1  0
  5  6  1  0
  6  7  1  0
  7  8  1  0
  7  9  2  0
  1 10  1  0
  1 11  1  0
  1 12  1  0
  4 13  1  0
  4 14  1  0
  5 15  1  0
  5 16  1  0
  6 17  1  0
  6 18  1  0
  8 19  1  0
  8 20  1  0
  8 21  1  0
M  END
