
     RDKit          3D

 17 18  0  0  0  0  0  0  0  0999 V2000
    2.2696    0.5745    0.2755 C   0  0  0  0  0  0  0  0  0  0  0  0
    1.1819   -0.3701    0.6083 C   0  0  0  0  0  0  0  0  0  0  0  0
    1.3735   -1.2754    1.3841 O   0  0  0  0  0  0  0  0  0  0  0  0
   -0.1260   -0.1897   -0.0165 C   0  0  0  0  0  0  0  0  0  0  0  0
   -0.8120    1.1106    0.2488 C   0  0  0  0  0  0  0  0  0  0  0  0
   -2.0824    0.4106    0.4646 C   0  0  0  0  0  0  0  0  0  0  0  0
   -3.2366    0.7459    0.5973 O   0  0  0  0  0  0  0  0  0  0  0  0
   -1.3498   -0.8773    0.4504 C   0  0  0  0  0  0  0  0  0  0  0  0
   -0.7366   -1.2609   -0.8332 C   0  0  0  0  0  0  0  0  0  0  0  0
    3.2173    0.3478    0.7804 H   0  0  0  0  0  0  0  0  0  0  0  0
    1.9311    1.5930    0.5749 H   0  0  0  0  0  0  0  0  0  0  0  0
    2.3626    0.5972   -0.8352 H   0  0  0  0  0  0  0  0  0  0  0  0
   -0.4611    1.5573    1.2256 H   0  0  0  0  0  0  0  0  0  0  0  0
   -0.7428    1.7940   -0.6087 H   0  0  0  0  0  0  0  0  0  0  0  0
   -1.3651   -1.5331    1.3293 H   0  0  0  0  0  0  0  0  0  0  0  0
   -1.2376   -1.0012   -1.7978 H   0  0  0  0  0  0  0  0  0  0  0  0
   -0.1859   -2.2233   -0.8344 H   0  0  0  0  0  0  0  0  0  0  0  0
  1  2  1  0
  2  3  2  0
  2  4  1  0
  4  5  1  0
  5  6  1  0
  6  7  2  0
  6  8  1  0
  8  9  1  0
  8  4  1  0
  9  4  1  0
  1 10  1  0
  1 11  1  0
  1 12  1  0
  5 13  1  0
  5 14  1  0
  8 15  1  0
  9 16  1  0
  9 17  1  0
M  END
