
     RDKit          3D

 17 17  0  0  0  0  0  0  0  0999 V2000
    3.2957   -0.4125   -0.3683 C   0  0  0  0  0  0  0  0  0  0  0  0
    2.4454   -0.3863   -1.5249 C   0  0  0  0  0  0  0  0  0  0  0  0
    2.2178   -0.4811   -2.6394 O   0  0  0  0  0  0  0  0  0  0  0  0
    0.9946    0.0248   -0.8890 C   0  0  0  0  0  0  0  0  0  0  0  0
   -0.1560    0.3736   -0.3825 C   0  0  0  0  0  0  0  0  0  0  0  0
   -1.3260    0.7047    0.1351 C   0  0  0  0  0  0  0  0  0  0  0  0
   -1.9217    0.1252    1.3529 C   0  0  0  0  0  0  0  0  0  0  0  0
   -3.1975    0.2811    0.6965 O   0  0  0  0  0  0  0  0  0  0  0  0
   -2.5063   -0.0886   -0.5044 C   0  0  0  0  0  0  0  0  0  0  0  0
    4.2394    0.0777   -0.6667 H   0  0  0  0  0  0  0  0  0  0  0  0
    3.4287   -1.4744    0.0302 H   0  0  0  0  0  0  0  0  0  0  0  0
    2.9274    0.1907    0.5207 H   0  0  0  0  0  0  0  0  0  0  0  0
   -1.6592    1.8288    0.0023 H   0  0  0  0  0  0  0  0  0  0  0  0
   -1.8813    0.9361    2.1795 H   0  0  0  0  0  0  0  0  0  0  0  0
   -1.6826   -0.8434    1.7139 H   0  0  0  0  0  0  0  0  0  0  0  0
   -2.2918   -1.1545   -0.4884 H   0  0  0  0  0  0  0  0  0  0  0  0
   -2.9265    0.2981   -1.3914 H   0  0  0  0  0  0  0  0  0  0  0  0
  1  2  1  0
  2  3  2  0
  2  4  1  0
  4  5  3  0
  5  6  1  0
  6  7  1  0
  7  8  1  0
  8  9  1  0
  9  6  1  0
  1 10  1  0
  1 11  1  0
  1 12  1  0
  6 13  1  0
  7 14  1  0
  7 15  1  0
  9 16  1  0
  9 17  1  0
M  END
