
     RDKit          3D

 21 20  0  0  0  0  0  0  0  0999 V2000
   -2.4509   -0.4123    0.6785 C   0  0  0  0  0  0  0  0  0  0  0  0
   -1.3681    0.4936    1.1388 C   0  0  0  0  0  0  0  0  0  0  0  0
   -1.5244    1.1251    2.1830 O   0  0  0  0  0  0  0  0  0  0  0  0
   -0.1123    0.6180    0.3201 C   0  0  0  0  0  0  0  0  0  0  0  0
   -0.4892    1.2030   -1.0211 C   0  0  0  0  0  0  0  0  0  0  0  0
    0.4236   -0.7820    0.1238 C   0  0  0  0  0  0  0  0  0  0  0  0
    1.7019   -0.8538   -0.6549 C   0  0  0  0  0  0  0  0  0  0  0  0
    2.8259   -0.1176    0.0046 C   0  0  0  0  0  0  0  0  0  0  0  0
    3.2264    0.9744   -0.3194 O   0  0  0  0  0  0  0  0  0  0  0  0
   -2.1036   -1.4755    0.5810 H   0  0  0  0  0  0  0  0  0  0  0  0
   -2.8428   -0.0960   -0.3058 H   0  0  0  0  0  0  0  0  0  0  0  0
   -3.2704   -0.4423    1.4226 H   0  0  0  0  0  0  0  0  0  0  0  0
    0.5640    1.2784    0.8821 H   0  0  0  0  0  0  0  0  0  0  0  0
   -1.5848    1.2227   -1.1854 H   0  0  0  0  0  0  0  0  0  0  0  0
   -0.1714    2.2685   -1.1165 H   0  0  0  0  0  0  0  0  0  0  0  0
   -0.0351    0.6326   -1.8702 H   0  0  0  0  0  0  0  0  0  0  0  0
   -0.3394   -1.3573   -0.4368 H   0  0  0  0  0  0  0  0  0  0  0  0
    0.6340   -1.1983    1.1275 H   0  0  0  0  0  0  0  0  0  0  0  0
    1.6123   -0.5410   -1.7088 H   0  0  0  0  0  0  0  0  0  0  0  0
    1.9873   -1.9257   -0.6896 H   0  0  0  0  0  0  0  0  0  0  0  0
    3.3171   -0.6147    0.8466 H   0  0  0  0  0  0  0  0  0  0  0  0
  1  2  1  0
  2  3  2  0
  2  4  1  0
  4  5  1  0
  4  6  1  0
  6  7  1  0
  7  8  1  0
  8  9  2  0
  1 10  1  0
  1 11  1  0
  1 12  1  0
  4 13  1  0
  5 14  1  0
  5 15  1  0
  5 16  1  0
  6 17  1  0
  6 18  1  0
  7 19  1  0
  7 20  1  0
  8 21  1  0
M  END
