
     RDKit          3D

 17 17  0  0  0  0  0  0  0  0999 V2000
   -3.1768   -0.2536   -0.2746 C   0  0  0  0  0  0  0  0  0  0  0  0
   -1.8304    0.3157   -0.4741 C   0  0  0  0  0  0  0  0  0  0  0  0
   -1.7425    1.3628   -1.1613 O   0  0  0  0  0  0  0  0  0  0  0  0
   -0.6188   -0.2662    0.0767 C   0  0  0  0  0  0  0  0  0  0  0  0
   -0.7536   -1.3223    0.7637 O   0  0  0  0  0  0  0  0  0  0  0  0
    0.6953    0.3727   -0.1736 C   0  0  0  0  0  0  0  0  0  0  0  0
    1.8290   -0.3527    0.4623 C   0  0  0  0  0  0  0  0  0  0  0  0
    3.1983    0.2004    0.2766 C   0  0  0  0  0  0  0  0  0  0  0  0
    2.4930    0.4675    1.5140 O   0  0  0  0  0  0  0  0  0  0  0  0
   -3.9549    0.5411   -0.3696 H   0  0  0  0  0  0  0  0  0  0  0  0
   -3.3141   -0.7199    0.7142 H   0  0  0  0  0  0  0  0  0  0  0  0
   -3.3692   -0.9690   -1.0957 H   0  0  0  0  0  0  0  0  0  0  0  0
    0.6112    1.4358    0.1391 H   0  0  0  0  0  0  0  0  0  0  0  0
    0.8511    0.3249   -1.2894 H   0  0  0  0  0  0  0  0  0  0  0  0
    1.7141   -1.3945    0.8122 H   0  0  0  0  0  0  0  0  0  0  0  0
    4.0973   -0.4278    0.3989 H   0  0  0  0  0  0  0  0  0  0  0  0
    3.2709    1.1467   -0.3192 H   0  0  0  0  0  0  0  0  0  0  0  0
  1  2  1  0
  2  3  2  0
  2  4  1  0
  4  5  2  0
  4  6  1  0
  6  7  1  0
  7  8  1  0
  8  9  1  0
  9  7  1  0
  1 10  1  0
  1 11  1  0
  1 12  1  0
  6 13  1  0
  6 14  1  0
  7 15  1  0
  8 16  1  0
  8 17  1  0
M  END
