
     RDKit          3D

 19 19  0  0  0  0  0  0  0  0999 V2000
    2.6938    0.0669   -0.1124 C   0  0  0  0  0  0  0  0  0  0  0  0
    1.4854   -0.7335   -0.3909 C   0  0  0  0  0  0  0  0  0  0  0  0
    1.5699   -1.9508   -0.2979 O   0  0  0  0  0  0  0  0  0  0  0  0
    0.1702   -0.1567   -0.7776 C   0  0  0  0  0  0  0  0  0  0  0  0
    0.2615    1.2364   -0.8333 O   0  0  0  0  0  0  0  0  0  0  0  0
   -1.0486    1.2937   -0.3810 C   0  0  0  0  0  0  0  0  0  0  0  0
   -0.8184   -0.0167    0.3275 C   0  0  0  0  0  0  0  0  0  0  0  0
   -2.0189   -0.8960    0.2966 C   0  0  0  0  0  0  0  0  0  0  0  0
   -0.2285    0.0774    1.5750 O   0  0  0  0  0  0  0  0  0  0  0  0
    2.7091    1.0307   -0.6603 H   0  0  0  0  0  0  0  0  0  0  0  0
    3.6134   -0.5377   -0.3115 H   0  0  0  0  0  0  0  0  0  0  0  0
    2.7296    0.3399    0.9716 H   0  0  0  0  0  0  0  0  0  0  0  0
   -0.2368   -0.5217   -1.7434 H   0  0  0  0  0  0  0  0  0  0  0  0
   -1.2409    2.0916    0.3760 H   0  0  0  0  0  0  0  0  0  0  0  0
   -1.8204    1.1695   -1.1553 H   0  0  0  0  0  0  0  0  0  0  0  0
   -2.6735   -0.6713   -0.5924 H   0  0  0  0  0  0  0  0  0  0  0  0
   -2.6488   -0.6461    1.1792 H   0  0  0  0  0  0  0  0  0  0  0  0
   -1.8180   -1.9676    0.3289 H   0  0  0  0  0  0  0  0  0  0  0  0
   -0.6801    0.7922    2.0670 H   0  0  0  0  0  0  0  0  0  0  0  0
  1  2  1  0
  2  3  2  0
  2  4  1  0
  4  5  1  0
  5  6  1  0
  6  7  1  0
  7  8  1  0
  7  9  1  0
  7  4  1  0
  1 10  1  0
  1 11  1  0
  1 12  1  0
  4 13  1  0
  6 14  1  0
  6 15  1  0
  8 16  1  0
  8 17  1  0
  8 18  1  0
  9 19  1  0
M  END
