
     RDKit          3D

 19 20  0  0  0  0  0  0  0  0999 V2000
    2.2636    0.4001    0.8068 C   0  0  0  0  0  0  0  0  0  0  0  0
    1.0565    0.5574   -0.0268 C   0  0  0  0  0  0  0  0  0  0  0  0
    0.9779    1.5733   -0.7122 O   0  0  0  0  0  0  0  0  0  0  0  0
   -0.0167   -0.4320   -0.0594 C   0  0  0  0  0  0  0  0  0  0  0  0
    0.2575   -1.8557   -0.4974 C   0  0  0  0  0  0  0  0  0  0  0  0
   -0.4155   -0.9724   -1.4643 C   0  0  0  0  0  0  0  0  0  0  0  0
   -1.6723   -0.4376   -1.2287 O   0  0  0  0  0  0  0  0  0  0  0  0
   -1.4450   -0.0950    0.0959 C   0  0  0  0  0  0  0  0  0  0  0  0
   -1.8296    1.2845    0.4619 C   0  0  0  0  0  0  0  0  0  0  0  0
    2.1401    1.0055    1.7387 H   0  0  0  0  0  0  0  0  0  0  0  0
    2.4597   -0.6395    1.1091 H   0  0  0  0  0  0  0  0  0  0  0  0
    3.1816    0.7739    0.3064 H   0  0  0  0  0  0  0  0  0  0  0  0
    1.3099   -2.0753   -0.6740 H   0  0  0  0  0  0  0  0  0  0  0  0
   -0.3839   -2.6216    0.0240 H   0  0  0  0  0  0  0  0  0  0  0  0
    0.1128   -0.5241   -2.3236 H   0  0  0  0  0  0  0  0  0  0  0  0
   -1.9737   -0.8390    0.7511 H   0  0  0  0  0  0  0  0  0  0  0  0
   -2.8378    1.4939    0.0018 H   0  0  0  0  0  0  0  0  0  0  0  0
   -2.0170    1.3213    1.5693 H   0  0  0  0  0  0  0  0  0  0  0  0
   -1.1682    2.0824    0.1213 H   0  0  0  0  0  0  0  0  0  0  0  0
  1  2  1  0
  2  3  2  0
  2  4  1  0
  4  5  1  0
  5  6  1  0
  6  7  1  0
  7  8  1  0
  8  9  1  0
  6  4  1  0
  8  4  1  0
  1 10  1  0
  1 11  1  0
  1 12  1  0
  5 13  1  0
  5 14  1  0
  6 15  1  0
  8 16  1  0
  9 17  1  0
  9 18  1  0
  9 19  1  0
M  END
