
     RDKit          3D

 19 18  0  0  0  0  0  0  0  0999 V2000
    2.9964    0.5512    0.0572 C   0  0  0  0  0  0  0  0  0  0  0  0
    1.7757   -0.0381   -0.5430 C   0  0  0  0  0  0  0  0  0  0  0  0
    1.8442   -0.5792   -1.6679 O   0  0  0  0  0  0  0  0  0  0  0  0
    0.5771    0.0220    0.1553 O   0  0  0  0  0  0  0  0  0  0  0  0
   -0.6117   -0.5128   -0.3477 C   0  0  0  0  0  0  0  0  0  0  0  0
   -1.0986   -1.6069    0.5501 C   0  0  0  0  0  0  0  0  0  0  0  0
   -1.6168    0.5925   -0.5426 C   0  0  0  0  0  0  0  0  0  0  0  0
   -1.9444    1.3110    0.7072 C   0  0  0  0  0  0  0  0  0  0  0  0
   -1.1937    2.1543    1.1559 O   0  0  0  0  0  0  0  0  0  0  0  0
    3.2145    1.4762   -0.5078 H   0  0  0  0  0  0  0  0  0  0  0  0
    3.8601   -0.1385   -0.0691 H   0  0  0  0  0  0  0  0  0  0  0  0
    2.8057    0.8167    1.1159 H   0  0  0  0  0  0  0  0  0  0  0  0
   -0.4321   -0.9644   -1.3467 H   0  0  0  0  0  0  0  0  0  0  0  0
   -2.0991   -1.9843    0.2120 H   0  0  0  0  0  0  0  0  0  0  0  0
   -1.1552   -1.2955    1.6225 H   0  0  0  0  0  0  0  0  0  0  0  0
   -0.3493   -2.4246    0.5129 H   0  0  0  0  0  0  0  0  0  0  0  0
   -2.5590    0.2162   -1.0163 H   0  0  0  0  0  0  0  0  0  0  0  0
   -1.1648    1.2845   -1.3115 H   0  0  0  0  0  0  0  0  0  0  0  0
   -2.8489    1.1197    1.2637 H   0  0  0  0  0  0  0  0  0  0  0  0
  1  2  1  0
  2  3  2  0
  2  4  1  0
  4  5  1  0
  5  6  1  0
  5  7  1  0
  7  8  1  0
  8  9  2  0
  1 10  1  0
  1 11  1  0
  1 12  1  0
  5 13  1  0
  6 14  1  0
  6 15  1  0
  6 16  1  0
  7 17  1  0
  7 18  1  0
  8 19  1  0
M  END
