
     RDKit          3D

 21 21  0  0  0  0  0  0  0  0999 V2000
   -3.3733   -0.0820   -0.0252 C   0  0  0  0  0  0  0  0  0  0  0  0
   -1.8756   -0.1837    0.1529 C   0  0  0  0  0  0  0  0  0  0  0  0
   -1.2642   -1.0013   -0.5034 O   0  0  0  0  0  0  0  0  0  0  0  0
   -1.1581    0.6935    1.1078 C   0  0  0  0  0  0  0  0  0  0  0  0
    0.1811    0.3887    1.0661 O   0  0  0  0  0  0  0  0  0  0  0  0
    0.7615    0.5607   -0.1679 C   0  0  0  0  0  0  0  0  0  0  0  0
    2.0518    1.3475   -0.1503 C   0  0  0  0  0  0  0  0  0  0  0  0
    2.8582    0.0642   -0.3258 C   0  0  0  0  0  0  0  0  0  0  0  0
    1.5612   -0.6682   -0.5510 C   0  0  0  0  0  0  0  0  0  0  0  0
   -3.7426   -0.9875   -0.5258 H   0  0  0  0  0  0  0  0  0  0  0  0
   -3.5166    0.8362   -0.6609 H   0  0  0  0  0  0  0  0  0  0  0  0
   -3.8563    0.0872    0.9538 H   0  0  0  0  0  0  0  0  0  0  0  0
   -1.3192    1.7840    0.8632 H   0  0  0  0  0  0  0  0  0  0  0  0
   -1.5720    0.4645    2.1164 H   0  0  0  0  0  0  0  0  0  0  0  0
    0.0822    0.9244   -0.9820 H   0  0  0  0  0  0  0  0  0  0  0  0
    2.1689    1.9943   -1.0421 H   0  0  0  0  0  0  0  0  0  0  0  0
    2.2966    1.8461    0.7946 H   0  0  0  0  0  0  0  0  0  0  0  0
    3.5079    0.0641   -1.2390 H   0  0  0  0  0  0  0  0  0  0  0  0
    3.3905   -0.2657    0.5667 H   0  0  0  0  0  0  0  0  0  0  0  0
    1.4277   -1.5391    0.1525 H   0  0  0  0  0  0  0  0  0  0  0  0
    1.3902   -1.0070   -1.6005 H   0  0  0  0  0  0  0  0  0  0  0  0
  1  2  1  0
  2  3  2  0
  2  4  1  0
  4  5  1  0
  5  6  1  0
  6  7  1  0
  7  8  1  0
  8  9  1  0
  9  6  1  0
  1 10  1  0
  1 11  1  0
  1 12  1  0
  4 13  1  0
  4 14  1  0
  6 15  1  0
  7 16  1  0
  7 17  1  0
  8 18  1  0
  8 19  1  0
  9 20  1  0
  9 21  1  0
M  END
