
     RDKit          3D

 21 21  0  0  0  0  0  0  0  0999 V2000
    3.1480    0.5362    0.1316 C   0  0  0  0  0  0  0  0  0  0  0  0
    1.8143   -0.1133    0.2660 C   0  0  0  0  0  0  0  0  0  0  0  0
    1.5509   -0.5989    1.3353 O   0  0  0  0  0  0  0  0  0  0  0  0
    0.8336   -0.1779   -0.8404 C   0  0  0  0  0  0  0  0  0  0  0  0
   -0.3860   -0.8863   -0.3847 C   0  0  0  0  0  0  0  0  0  0  0  0
   -1.4088   -1.0255   -1.3298 O   0  0  0  0  0  0  0  0  0  0  0  0
   -2.2772   -1.1339   -0.2178 C   0  0  0  0  0  0  0  0  0  0  0  0
   -1.3517   -0.1169    0.4614 C   0  0  0  0  0  0  0  0  0  0  0  0
   -1.7000    1.2624   -0.0551 C   0  0  0  0  0  0  0  0  0  0  0  0
    3.3658    1.0785    1.0746 H   0  0  0  0  0  0  0  0  0  0  0  0
    3.0712    1.2367   -0.7306 H   0  0  0  0  0  0  0  0  0  0  0  0
    3.9145   -0.2445   -0.0559 H   0  0  0  0  0  0  0  0  0  0  0  0
    0.5404    0.8925   -1.0535 H   0  0  0  0  0  0  0  0  0  0  0  0
    1.2670   -0.5706   -1.7757 H   0  0  0  0  0  0  0  0  0  0  0  0
   -0.2000   -1.8830    0.0715 H   0  0  0  0  0  0  0  0  0  0  0  0
   -2.1397   -2.1166    0.2411 H   0  0  0  0  0  0  0  0  0  0  0  0
   -3.2922   -0.7882   -0.3959 H   0  0  0  0  0  0  0  0  0  0  0  0
   -1.2843   -0.2109    1.5431 H   0  0  0  0  0  0  0  0  0  0  0  0
   -2.5680    1.6602    0.5299 H   0  0  0  0  0  0  0  0  0  0  0  0
   -2.0497    1.2336   -1.1072 H   0  0  0  0  0  0  0  0  0  0  0  0
   -0.8480    1.9663   -0.0153 H   0  0  0  0  0  0  0  0  0  0  0  0
  1  2  1  0
  2  3  2  0
  2  4  1  0
  4  5  1  0
  5  6  1  0
  6  7  1  0
  7  8  1  0
  8  9  1  0
  8  5  1  0
  1 10  1  0
  1 11  1  0
  1 12  1  0
  4 13  1  0
  4 14  1  0
  5 15  1  0
  7 16  1  0
  7 17  1  0
  8 18  1  0
  9 19  1  0
  9 20  1  0
  9 21  1  0
M  END
