
     RDKit          3D

 21 20  0  0  0  0  0  0  0  0999 V2000
    3.0080    0.7461    0.1810 C   0  0  0  0  0  0  0  0  0  0  0  0
    1.7070    0.0489    0.0668 C   0  0  0  0  0  0  0  0  0  0  0  0
    1.7431   -1.2017   -0.0546 O   0  0  0  0  0  0  0  0  0  0  0  0
    0.4279    0.7072    0.0862 C   0  0  0  0  0  0  0  0  0  0  0  0
    0.3748    1.9567    0.2069 O   0  0  0  0  0  0  0  0  0  0  0  0
   -0.8312   -0.0633   -0.0339 C   0  0  0  0  0  0  0  0  0  0  0  0
   -0.8152   -0.7901   -1.3414 C   0  0  0  0  0  0  0  0  0  0  0  0
   -1.0151   -1.0086    1.1451 C   0  0  0  0  0  0  0  0  0  0  0  0
   -2.0251    0.8746   -0.0171 C   0  0  0  0  0  0  0  0  0  0  0  0
    3.7093    0.2475   -0.5196 H   0  0  0  0  0  0  0  0  0  0  0  0
    2.9426    1.8175   -0.1116 H   0  0  0  0  0  0  0  0  0  0  0  0
    3.4323    0.6158    1.1965 H   0  0  0  0  0  0  0  0  0  0  0  0
   -1.4190   -0.2109   -2.0929 H   0  0  0  0  0  0  0  0  0  0  0  0
    0.2111   -0.8310   -1.7800 H   0  0  0  0  0  0  0  0  0  0  0  0
   -1.2643   -1.8039   -1.2708 H   0  0  0  0  0  0  0  0  0  0  0  0
   -0.0612   -1.1274    1.7005 H   0  0  0  0  0  0  0  0  0  0  0  0
   -1.7450   -0.6039    1.8784 H   0  0  0  0  0  0  0  0  0  0  0  0
   -1.3745   -2.0019    0.8299 H   0  0  0  0  0  0  0  0  0  0  0  0
   -2.1454    1.3611    0.9793 H   0  0  0  0  0  0  0  0  0  0  0  0
   -1.9264    1.6820   -0.7620 H   0  0  0  0  0  0  0  0  0  0  0  0
   -2.9341    0.3042   -0.2865 H   0  0  0  0  0  0  0  0  0  0  0  0
  1  2  1  0
  2  3  2  0
  2  4  1  0
  4  5  2  0
  4  6  1  0
  6  7  1  0
  6  8  1  0
  6  9  1  0
  1 10  1  0
  1 11  1  0
  1 12  1  0
  7 13  1  0
  7 14  1  0
  7 15  1  0
  8 16  1  0
  8 17  1  0
  8 18  1  0
  9 19  1  0
  9 20  1  0
  9 21  1  0
M  END
