
     RDKit          3D

 17 17  0  0  0  0  0  0  0  0999 V2000
    2.5204    0.0881   -0.8448 C   0  0  0  0  0  0  0  0  0  0  0  0
    1.1287   -0.2784   -0.4881 C   0  0  0  0  0  0  0  0  0  0  0  0
    0.5167   -1.0110   -1.2375 O   0  0  0  0  0  0  0  0  0  0  0  0
    0.5415    0.2521    0.7498 C   0  0  0  0  0  0  0  0  0  0  0  0
    0.1708   -0.9310    1.6154 O   0  0  0  0  0  0  0  0  0  0  0  0
   -0.8060   -0.0567    1.2157 C   0  0  0  0  0  0  0  0  0  0  0  0
   -1.8886   -0.5041    0.2371 C   0  0  0  0  0  0  0  0  0  0  0  0
   -2.0902    0.5689   -0.7427 C   0  0  0  0  0  0  0  0  0  0  0  0
   -2.2151    1.7152   -0.4017 O   0  0  0  0  0  0  0  0  0  0  0  0
    2.5982    1.0568   -1.3800 H   0  0  0  0  0  0  0  0  0  0  0  0
    3.0048   -0.6966   -1.4718 H   0  0  0  0  0  0  0  0  0  0  0  0
    3.0961    0.1200    0.1310 H   0  0  0  0  0  0  0  0  0  0  0  0
    1.1741    0.9450    1.3783 H   0  0  0  0  0  0  0  0  0  0  0  0
   -1.2025    0.5703    2.0295 H   0  0  0  0  0  0  0  0  0  0  0  0
   -2.8073   -0.7293    0.8456 H   0  0  0  0  0  0  0  0  0  0  0  0
   -1.6181   -1.4342   -0.2843 H   0  0  0  0  0  0  0  0  0  0  0  0
   -2.1235    0.3249   -1.8004 H   0  0  0  0  0  0  0  0  0  0  0  0
  1  2  1  0
  2  3  2  0
  2  4  1  0
  4  5  1  0
  5  6  1  0
  6  7  1  0
  7  8  1  0
  8  9  2  0
  6  4  1  0
  1 10  1  0
  1 11  1  0
  1 12  1  0
  4 13  1  0
  6 14  1  0
  7 15  1  0
  7 16  1  0
  8 17  1  0
M  END
