
     RDKit          3D

 17 16  0  0  0  0  0  0  0  0999 V2000
    2.9398    0.1370   -0.1133 C   0  0  0  0  0  0  0  0  0  0  0  0
    1.5546    0.2053    0.4503 C   0  0  0  0  0  0  0  0  0  0  0  0
    1.3866    0.4459    1.6532 O   0  0  0  0  0  0  0  0  0  0  0  0
    0.4291    0.0101   -0.3162 O   0  0  0  0  0  0  0  0  0  0  0  0
   -0.8861    0.0543    0.1180 C   0  0  0  0  0  0  0  0  0  0  0  0
   -1.7512    1.0655   -0.5901 C   0  0  0  0  0  0  0  0  0  0  0  0
   -1.5062   -1.3113   -0.0994 C   0  0  0  0  0  0  0  0  0  0  0  0
    3.1870    1.0322   -0.6875 H   0  0  0  0  0  0  0  0  0  0  0  0
    2.9714   -0.7784   -0.7309 H   0  0  0  0  0  0  0  0  0  0  0  0
    3.6713    0.0306    0.7069 H   0  0  0  0  0  0  0  0  0  0  0  0
   -0.9744    0.2751    1.2111 H   0  0  0  0  0  0  0  0  0  0  0  0
   -2.8088    0.8102   -0.3107 H   0  0  0  0  0  0  0  0  0  0  0  0
   -1.6497    1.0036   -1.6985 H   0  0  0  0  0  0  0  0  0  0  0  0
   -1.5996    2.0993   -0.2182 H   0  0  0  0  0  0  0  0  0  0  0  0
   -2.4366   -1.2539   -0.6942 H   0  0  0  0  0  0  0  0  0  0  0  0
   -0.8056   -1.9887   -0.6613 H   0  0  0  0  0  0  0  0  0  0  0  0
   -1.7216   -1.8370    0.8538 H   0  0  0  0  0  0  0  0  0  0  0  0
  1  2  1  0
  2  3  2  0
  2  4  1  0
  4  5  1  0
  5  6  1  0
  5  7  1  0
  1  8  1  0
  1  9  1  0
  1 10  1  0
  5 11  1  0
  6 12  1  0
  6 13  1  0
  6 14  1  0
  7 15  1  0
  7 16  1  0
  7 17  1  0
M  END
