
     RDKit          3D

 23 23  0  0  0  0  0  0  0  0999 V2000
    3.5765   -0.4336   -0.8317 C   0  0  0  0  0  0  0  0  0  0  0  0
    2.3488   -0.3626   -0.0026 C   0  0  0  0  0  0  0  0  0  0  0  0
    2.4688   -0.4914    1.1997 O   0  0  0  0  0  0  0  0  0  0  0  0
    0.9999   -0.1429   -0.5835 C   0  0  0  0  0  0  0  0  0  0  0  0
   -0.0484   -0.1217    0.5376 C   0  0  0  0  0  0  0  0  0  0  0  0
   -1.4158    0.0970   -0.0049 C   0  0  0  0  0  0  0  0  0  0  0  0
   -1.8992   -0.9459   -0.9842 C   0  0  0  0  0  0  0  0  0  0  0  0
   -2.4825    0.7648    0.7831 C   0  0  0  0  0  0  0  0  0  0  0  0
   -1.7930    1.5492   -0.2756 C   0  0  0  0  0  0  0  0  0  0  0  0
    3.3440   -0.9840   -1.7761 H   0  0  0  0  0  0  0  0  0  0  0  0
    4.3945   -0.9390   -0.2933 H   0  0  0  0  0  0  0  0  0  0  0  0
    3.9272    0.5961   -1.1163 H   0  0  0  0  0  0  0  0  0  0  0  0
    0.7726   -0.9518   -1.3073 H   0  0  0  0  0  0  0  0  0  0  0  0
    0.9813    0.8071   -1.1572 H   0  0  0  0  0  0  0  0  0  0  0  0
    0.0178   -1.1403    1.0116 H   0  0  0  0  0  0  0  0  0  0  0  0
    0.2464    0.5960    1.3239 H   0  0  0  0  0  0  0  0  0  0  0  0
   -2.7721   -1.4710   -0.5097 H   0  0  0  0  0  0  0  0  0  0  0  0
   -1.1431   -1.6975   -1.2200 H   0  0  0  0  0  0  0  0  0  0  0  0
   -2.2744   -0.3970   -1.8866 H   0  0  0  0  0  0  0  0  0  0  0  0
   -2.3082    1.0883    1.8320 H   0  0  0  0  0  0  0  0  0  0  0  0
   -3.5426    0.4983    0.5962 H   0  0  0  0  0  0  0  0  0  0  0  0
   -1.1225    2.3516    0.0440 H   0  0  0  0  0  0  0  0  0  0  0  0
   -2.2760    1.7304   -1.2659 H   0  0  0  0  0  0  0  0  0  0  0  0
  1  2  1  0
  2  3  2  0
  2  4  1  0
  4  5  1  0
  5  6  1  0
  6  7  1  0
  6  8  1  0
  8  9  1  0
  9  6  1  0
  1 10  1  0
  1 11  1  0
  1 12  1  0
  4 13  1  0
  4 14  1  0
  5 15  1  0
  5 16  1  0
  7 17  1  0
  7 18  1  0
  7 19  1  0
  8 20  1  0
  8 21  1  0
  9 22  1  0
  9 23  1  0
M  END
