
     RDKit          3D

 21 21  0  0  0  0  0  0  0  0999 V2000
   -1.4549    1.8672    0.5148 C   0  0  0  0  0  0  0  0  0  0  0  0
   -0.7089    0.7483    1.1197 C   0  0  0  0  0  0  0  0  0  0  0  0
   -0.8410    0.4485    2.2813 O   0  0  0  0  0  0  0  0  0  0  0  0
    0.2266   -0.0303    0.2874 C   0  0  0  0  0  0  0  0  0  0  0  0
    1.2993    0.8708   -0.2581 C   0  0  0  0  0  0  0  0  0  0  0  0
    2.1892    0.1558   -1.0439 O   0  0  0  0  0  0  0  0  0  0  0  0
    0.6921   -1.3327    0.8741 C   0  0  0  0  0  0  0  0  0  0  0  0
   -0.5658   -1.9703    0.2692 C   0  0  0  0  0  0  0  0  0  0  0  0
   -0.4926   -0.8535   -0.7837 C   0  0  0  0  0  0  0  0  0  0  0  0
   -1.5854    1.7676   -0.5858 H   0  0  0  0  0  0  0  0  0  0  0  0
   -0.8831    2.8115    0.6681 H   0  0  0  0  0  0  0  0  0  0  0  0
   -2.4969    1.9523    0.9225 H   0  0  0  0  0  0  0  0  0  0  0  0
    0.7677    1.6513   -0.8722 H   0  0  0  0  0  0  0  0  0  0  0  0
    1.7634    1.3941    0.5769 H   0  0  0  0  0  0  0  0  0  0  0  0
    3.0031    0.0208   -0.5112 H   0  0  0  0  0  0  0  0  0  0  0  0
    1.5708   -1.7180    0.3159 H   0  0  0  0  0  0  0  0  0  0  0  0
    0.7219   -1.4040    1.9631 H   0  0  0  0  0  0  0  0  0  0  0  0
   -0.4099   -2.9650   -0.1523 H   0  0  0  0  0  0  0  0  0  0  0  0
   -1.4498   -1.8561    0.9148 H   0  0  0  0  0  0  0  0  0  0  0  0
   -1.4944   -0.4734   -1.0398 H   0  0  0  0  0  0  0  0  0  0  0  0
    0.1485   -1.0849   -1.6370 H   0  0  0  0  0  0  0  0  0  0  0  0
  1  2  1  0
  2  3  2  0
  2  4  1  0
  4  5  1  0
  5  6  1  0
  4  7  1  0
  7  8  1  0
  8  9  1  0
  9  4  1  0
  1 10  1  0
  1 11  1  0
  1 12  1  0
  5 13  1  0
  5 14  1  0
  6 15  1  0
  7 16  1  0
  7 17  1  0
  8 18  1  0
  8 19  1  0
  9 20  1  0
  9 21  1  0
M  END
