
     RDKit          3D

 21 20  0  0  0  0  0  0  0  0999 V2000
    3.0641    0.5644    0.1666 C   0  0  0  0  0  0  0  0  0  0  0  0
    1.6848    0.6865   -0.3638 C   0  0  0  0  0  0  0  0  0  0  0  0
    1.3381    1.7335   -0.8592 O   0  0  0  0  0  0  0  0  0  0  0  0
    0.7986   -0.4911   -0.2570 C   0  0  0  0  0  0  0  0  0  0  0  0
   -0.5810   -0.2932   -0.7959 C   0  0  0  0  0  0  0  0  0  0  0  0
   -1.3088   -1.6312   -0.5867 C   0  0  0  0  0  0  0  0  0  0  0  0
   -1.2854    0.7399    0.0686 C   0  0  0  0  0  0  0  0  0  0  0  0
   -2.6597    0.9991   -0.3928 C   0  0  0  0  0  0  0  0  0  0  0  0
   -3.1498    0.4406   -1.3547 O   0  0  0  0  0  0  0  0  0  0  0  0
    3.1392   -0.2821    0.9064 H   0  0  0  0  0  0  0  0  0  0  0  0
    3.2851    1.4765    0.7292 H   0  0  0  0  0  0  0  0  0  0  0  0
    3.8031    0.3341   -0.6261 H   0  0  0  0  0  0  0  0  0  0  0  0
    1.3414   -1.3343   -0.7749 H   0  0  0  0  0  0  0  0  0  0  0  0
    0.7810   -0.7780    0.8217 H   0  0  0  0  0  0  0  0  0  0  0  0
   -0.5986   -0.0629   -1.8567 H   0  0  0  0  0  0  0  0  0  0  0  0
   -2.2231   -1.6982   -1.1813 H   0  0  0  0  0  0  0  0  0  0  0  0
   -0.5656   -2.4235   -0.8122 H   0  0  0  0  0  0  0  0  0  0  0  0
   -1.4891   -1.7053    0.5192 H   0  0  0  0  0  0  0  0  0  0  0  0
   -1.3652    0.3222    1.1049 H   0  0  0  0  0  0  0  0  0  0  0  0
   -0.7456    1.6873    0.1606 H   0  0  0  0  0  0  0  0  0  0  0  0
   -3.2635    1.7156    0.1425 H   0  0  0  0  0  0  0  0  0  0  0  0
  1  2  1  0
  2  3  2  0
  2  4  1  0
  4  5  1  0
  5  6  1  0
  5  7  1  0
  7  8  1  0
  8  9  2  0
  1 10  1  0
  1 11  1  0
  1 12  1  0
  4 13  1  0
  4 14  1  0
  5 15  1  0
  6 16  1  0
  6 17  1  0
  6 18  1  0
  7 19  1  0
  7 20  1  0
  8 21  1  0
M  END
