
     RDKit          3D

 17 17  0  0  0  0  0  0  0  0999 V2000
    2.8798   -0.3493    0.2267 C   0  0  0  0  0  0  0  0  0  0  0  0
    1.4501   -0.5780   -0.1261 C   0  0  0  0  0  0  0  0  0  0  0  0
    1.0175   -1.6323   -0.6095 O   0  0  0  0  0  0  0  0  0  0  0  0
    0.5724    0.4574    0.1069 O   0  0  0  0  0  0  0  0  0  0  0  0
   -0.8032    0.3490   -0.1897 C   0  0  0  0  0  0  0  0  0  0  0  0
   -1.1545    0.0843   -1.6018 C   0  0  0  0  0  0  0  0  0  0  0  0
   -2.3206   -0.0200   -1.9230 O   0  0  0  0  0  0  0  0  0  0  0  0
   -1.7793    1.1510    0.6134 C   0  0  0  0  0  0  0  0  0  0  0  0
   -1.6182   -0.2913    0.9043 C   0  0  0  0  0  0  0  0  0  0  0  0
    3.2316   -1.2762    0.7251 H   0  0  0  0  0  0  0  0  0  0  0  0
    3.4525   -0.0829   -0.6669 H   0  0  0  0  0  0  0  0  0  0  0  0
    2.9747    0.4622    0.9779 H   0  0  0  0  0  0  0  0  0  0  0  0
   -0.3692   -0.0168   -2.3522 H   0  0  0  0  0  0  0  0  0  0  0  0
   -2.7171    1.4771    0.1239 H   0  0  0  0  0  0  0  0  0  0  0  0
   -1.3401    1.8751    1.3340 H   0  0  0  0  0  0  0  0  0  0  0  0
   -2.3670   -1.0409    0.5986 H   0  0  0  0  0  0  0  0  0  0  0  0
   -1.1096   -0.5683    1.8585 H   0  0  0  0  0  0  0  0  0  0  0  0
  1  2  1  0
  2  3  2  0
  2  4  1  0
  4  5  1  0
  5  6  1  0
  6  7  2  0
  5  8  1  0
  8  9  1  0
  9  5  1  0
  1 10  1  0
  1 11  1  0
  1 12  1  0
  6 13  1  0
  8 14  1  0
  8 15  1  0
  9 16  1  0
  9 17  1  0
M  END
