
     RDKit          3D

 16 16  0  0  0  0  0  0  0  0999 V2000
   -2.3607   -0.0581   -0.1529 C   0  0  0  0  0  0  0  0  0  0  0  0
   -1.0759    0.4274    0.3978 C   0  0  0  0  0  0  0  0  0  0  0  0
   -1.1138    0.9802    1.4727 O   0  0  0  0  0  0  0  0  0  0  0  0
    0.2005    0.2720   -0.2823 C   0  0  0  0  0  0  0  0  0  0  0  0
    1.3534    0.8602    0.5056 C   0  0  0  0  0  0  0  0  0  0  0  0
    2.1929   -0.2520   -0.0430 C   0  0  0  0  0  0  0  0  0  0  0  0
    3.3377   -0.4893   -0.3383 O   0  0  0  0  0  0  0  0  0  0  0  0
    0.9143   -1.0528   -0.0906 C   0  0  0  0  0  0  0  0  0  0  0  0
   -2.9836   -0.4331    0.6953 H   0  0  0  0  0  0  0  0  0  0  0  0
   -2.2368   -0.8911   -0.8705 H   0  0  0  0  0  0  0  0  0  0  0  0
   -2.9490    0.7850   -0.5963 H   0  0  0  0  0  0  0  0  0  0  0  0
    0.2131    0.5135   -1.3650 H   0  0  0  0  0  0  0  0  0  0  0  0
    1.6688    1.8682    0.1923 H   0  0  0  0  0  0  0  0  0  0  0  0
    1.1711    0.7355    1.5959 H   0  0  0  0  0  0  0  0  0  0  0  0
    0.8873   -1.7287   -0.9668 H   0  0  0  0  0  0  0  0  0  0  0  0
    0.7806   -1.5369    0.8786 H   0  0  0  0  0  0  0  0  0  0  0  0
  1  2  1  0
  2  3  2  0
  2  4  1  0
  4  5  1  0
  5  6  1  0
  6  7  2  0
  6  8  1  0
  8  4  1  0
  1  9  1  0
  1 10  1  0
  1 11  1  0
  4 12  1  0
  5 13  1  0
  5 14  1  0
  8 15  1  0
  8 16  1  0
M  END
