
     RDKit          3D

 19 19  0  0  0  0  0  0  0  0999 V2000
    2.6847    0.1349   -0.5756 C   0  0  0  0  0  0  0  0  0  0  0  0
    1.5913    0.9808   -0.0191 C   0  0  0  0  0  0  0  0  0  0  0  0
    1.6843    2.2017   -0.0814 O   0  0  0  0  0  0  0  0  0  0  0  0
    0.4309    0.3174    0.5897 C   0  0  0  0  0  0  0  0  0  0  0  0
    0.5420   -1.0614    0.5481 O   0  0  0  0  0  0  0  0  0  0  0  0
   -0.4310   -1.2443   -0.4369 C   0  0  0  0  0  0  0  0  0  0  0  0
   -0.8038    0.2138   -0.2614 C   0  0  0  0  0  0  0  0  0  0  0  0
   -2.0807    0.3210    0.5487 C   0  0  0  0  0  0  0  0  0  0  0  0
   -3.1984    0.2245   -0.2435 O   0  0  0  0  0  0  0  0  0  0  0  0
    2.3723   -0.9115   -0.6759 H   0  0  0  0  0  0  0  0  0  0  0  0
    2.9292    0.4899   -1.6174 H   0  0  0  0  0  0  0  0  0  0  0  0
    3.5906    0.1576    0.0722 H   0  0  0  0  0  0  0  0  0  0  0  0
    0.1835    0.7436    1.5822 H   0  0  0  0  0  0  0  0  0  0  0  0
   -1.1873   -1.9689   -0.0618 H   0  0  0  0  0  0  0  0  0  0  0  0
   -0.0603   -1.4573   -1.4413 H   0  0  0  0  0  0  0  0  0  0  0  0
   -0.7912    0.8062   -1.1958 H   0  0  0  0  0  0  0  0  0  0  0  0
   -2.0996   -0.5317    1.2695 H   0  0  0  0  0  0  0  0  0  0  0  0
   -2.1225    1.2479    1.1561 H   0  0  0  0  0  0  0  0  0  0  0  0
   -3.2342   -0.6643   -0.6791 H   0  0  0  0  0  0  0  0  0  0  0  0
  1  2  1  0
  2  3  2  0
  2  4  1  0
  4  5  1  0
  5  6  1  0
  6  7  1  0
  7  8  1  0
  8  9  1  0
  7  4  1  0
  1 10  1  0
  1 11  1  0
  1 12  1  0
  4 13  1  0
  6 14  1  0
  6 15  1  0
  7 16  1  0
  8 17  1  0
  8 18  1  0
  9 19  1  0
M  END
