
     RDKit          3D

 21 22  0  0  0  0  0  0  0  0999 V2000
    3.1292    0.4011   -0.0050 C   0  0  0  0  0  0  0  0  0  0  0  0
    1.6577    0.5555   -0.1781 C   0  0  0  0  0  0  0  0  0  0  0  0
    1.2624    1.4969   -0.8389 O   0  0  0  0  0  0  0  0  0  0  0  0
    0.7752   -0.4471    0.4655 C   0  0  0  0  0  0  0  0  0  0  0  0
   -0.5567   -0.2127    0.2441 C   0  0  0  0  0  0  0  0  0  0  0  0
   -1.7051   -1.0529    0.7650 C   0  0  0  0  0  0  0  0  0  0  0  0
   -2.3656    0.0285   -0.0562 C   0  0  0  0  0  0  0  0  0  0  0  0
   -1.2839   -0.2428   -1.0686 C   0  0  0  0  0  0  0  0  0  0  0  0
   -1.3791    0.9630    0.5914 C   0  0  0  0  0  0  0  0  0  0  0  0
    3.3827    0.1657    1.0589 H   0  0  0  0  0  0  0  0  0  0  0  0
    3.6863    1.2718   -0.3945 H   0  0  0  0  0  0  0  0  0  0  0  0
    3.5053   -0.4940   -0.5811 H   0  0  0  0  0  0  0  0  0  0  0  0
    1.0496   -0.4708    1.5382 H   0  0  0  0  0  0  0  0  0  0  0  0
    1.1093   -1.4441    0.0660 H   0  0  0  0  0  0  0  0  0  0  0  0
   -1.8710   -0.9911    1.8604 H   0  0  0  0  0  0  0  0  0  0  0  0
   -1.7616   -2.0677    0.3487 H   0  0  0  0  0  0  0  0  0  0  0  0
   -3.3380    0.1670   -0.2141 H   0  0  0  0  0  0  0  0  0  0  0  0
   -1.1553    0.6134   -1.7350 H   0  0  0  0  0  0  0  0  0  0  0  0
   -1.3304   -1.2110   -1.5880 H   0  0  0  0  0  0  0  0  0  0  0  0
   -1.6176    1.0608    1.6722 H   0  0  0  0  0  0  0  0  0  0  0  0
   -1.1932    1.9105    0.0506 H   0  0  0  0  0  0  0  0  0  0  0  0
  1  2  1  0
  2  3  2  0
  2  4  1  0
  4  5  1  0
  5  6  1  0
  6  7  1  0
  7  8  1  0
  7  9  1  0
  8  5  1  0
  9  5  1  0
  1 10  1  0
  1 11  1  0
  1 12  1  0
  4 13  1  0
  4 14  1  0
  6 15  1  0
  6 16  1  0
  7 17  1  0
  8 18  1  0
  8 19  1  0
  9 20  1  0
  9 21  1  0
M  END
