
     RDKit          3D

 19 20  0  0  0  0  0  0  0  0999 V2000
    2.5630   -0.2991    0.4315 C   0  0  0  0  0  0  0  0  0  0  0  0
    1.2844   -0.7353   -0.1766 C   0  0  0  0  0  0  0  0  0  0  0  0
    1.0880   -1.9051   -0.3734 O   0  0  0  0  0  0  0  0  0  0  0  0
    0.2780    0.2683   -0.5325 C   0  0  0  0  0  0  0  0  0  0  0  0
   -1.0388   -0.1789   -1.0609 C   0  0  0  0  0  0  0  0  0  0  0  0
   -1.4835    1.2466   -0.7152 C   0  0  0  0  0  0  0  0  0  0  0  0
   -0.6695    0.7808    0.4794 C   0  0  0  0  0  0  0  0  0  0  0  0
   -1.4451   -0.4763    0.3272 C   0  0  0  0  0  0  0  0  0  0  0  0
   -1.0356   -1.6075    0.9609 O   0  0  0  0  0  0  0  0  0  0  0  0
    2.4210    0.0183    1.5034 H   0  0  0  0  0  0  0  0  0  0  0  0
    2.9260    0.6006   -0.1022 H   0  0  0  0  0  0  0  0  0  0  0  0
    3.3526   -1.0815    0.3470 H   0  0  0  0  0  0  0  0  0  0  0  0
    0.7709    1.0797   -1.1665 H   0  0  0  0  0  0  0  0  0  0  0  0
   -1.2546   -0.6425   -1.9176 H   0  0  0  0  0  0  0  0  0  0  0  0
   -0.9759    2.0425   -1.2569 H   0  0  0  0  0  0  0  0  0  0  0  0
   -2.5732    1.3381   -0.5407 H   0  0  0  0  0  0  0  0  0  0  0  0
   -0.4913    1.3107    1.3089 H   0  0  0  0  0  0  0  0  0  0  0  0
   -2.5343   -0.2643    0.5507 H   0  0  0  0  0  0  0  0  0  0  0  0
   -1.1822   -1.4951    1.9335 H   0  0  0  0  0  0  0  0  0  0  0  0
  1  2  1  0
  2  3  2  0
  2  4  1  0
  4  5  1  0
  5  6  1  0
  6  7  1  0
  7  8  1  0
  8  9  1  0
  7  4  1  0
  8  5  1  0
  1 10  1  0
  1 11  1  0
  1 12  1  0
  4 13  1  0
  5 14  1  0
  6 15  1  0
  6 16  1  0
  7 17  1  0
  8 18  1  0
  9 19  1  0
M  END
