
     RDKit          3D

 17 17  0  0  0  0  0  0  0  0999 V2000
   -2.9965    0.3348   -0.3364 C   0  0  0  0  0  0  0  0  0  0  0  0
   -1.8665   -0.3473    0.3249 C   0  0  0  0  0  0  0  0  0  0  0  0
   -2.1388   -1.1223    1.2844 O   0  0  0  0  0  0  0  0  0  0  0  0
   -0.4771   -0.1665   -0.0761 C   0  0  0  0  0  0  0  0  0  0  0  0
   -0.2462    0.6120   -1.0342 O   0  0  0  0  0  0  0  0  0  0  0  0
    0.6223   -0.8645    0.6083 C   0  0  0  0  0  0  0  0  0  0  0  0
    1.5966   -1.4999   -0.2665 O   0  0  0  0  0  0  0  0  0  0  0  0
    1.9930   -0.3861    0.6059 C   0  0  0  0  0  0  0  0  0  0  0  0
    2.4673    0.7855   -0.1703 C   0  0  0  0  0  0  0  0  0  0  0  0
   -3.6686    0.7118    0.4831 H   0  0  0  0  0  0  0  0  0  0  0  0
   -2.6222    1.2405   -0.8758 H   0  0  0  0  0  0  0  0  0  0  0  0
   -3.5598   -0.3304   -1.0288 H   0  0  0  0  0  0  0  0  0  0  0  0
    0.3240   -1.5418    1.4542 H   0  0  0  0  0  0  0  0  0  0  0  0
    2.6756   -0.7432    1.4104 H   0  0  0  0  0  0  0  0  0  0  0  0
    3.3581    1.2353    0.3120 H   0  0  0  0  0  0  0  0  0  0  0  0
    1.7236    1.6022   -0.2601 H   0  0  0  0  0  0  0  0  0  0  0  0
    2.8152    0.4799   -1.1952 H   0  0  0  0  0  0  0  0  0  0  0  0
  1  2  1  0
  2  3  2  0
  2  4  1  0
  4  5  2  0
  4  6  1  0
  6  7  1  0
  7  8  1  0
  8  9  1  0
  8  6  1  0
  1 10  1  0
  1 11  1  0
  1 12  1  0
  6 13  1  0
  8 14  1  0
  9 15  1  0
  9 16  1  0
  9 17  1  0
M  END
