
     RDKit          3D

 19 18  0  0  0  0  0  0  0  0999 V2000
    3.2551    0.0306   -0.3361 C   0  0  0  0  0  0  0  0  0  0  0  0
    1.8956   -0.2535    0.2021 C   0  0  0  0  0  0  0  0  0  0  0  0
    1.5240   -1.4495    0.3332 O   0  0  0  0  0  0  0  0  0  0  0  0
    1.0140    0.7411    0.5681 O   0  0  0  0  0  0  0  0  0  0  0  0
   -0.2619    0.5259    1.0734 C   0  0  0  0  0  0  0  0  0  0  0  0
   -1.1788   -0.2283    0.1408 C   0  0  0  0  0  0  0  0  0  0  0  0
   -2.5336   -0.4334    0.7266 C   0  0  0  0  0  0  0  0  0  0  0  0
   -1.3595    0.5089   -1.1580 C   0  0  0  0  0  0  0  0  0  0  0  0
   -0.7322    0.2076   -2.1658 O   0  0  0  0  0  0  0  0  0  0  0  0
    3.3253   -0.1394   -1.4148 H   0  0  0  0  0  0  0  0  0  0  0  0
    3.5442    1.0871   -0.1289 H   0  0  0  0  0  0  0  0  0  0  0  0
    3.9810   -0.6094    0.2018 H   0  0  0  0  0  0  0  0  0  0  0  0
   -0.2152   -0.0445    2.0161 H   0  0  0  0  0  0  0  0  0  0  0  0
   -0.7066    1.5117    1.3181 H   0  0  0  0  0  0  0  0  0  0  0  0
   -0.7561   -1.2281   -0.0863 H   0  0  0  0  0  0  0  0  0  0  0  0
   -2.8561    0.3760    1.4075 H   0  0  0  0  0  0  0  0  0  0  0  0
   -2.5689   -1.3790    1.3144 H   0  0  0  0  0  0  0  0  0  0  0  0
   -3.3023   -0.5404   -0.0680 H   0  0  0  0  0  0  0  0  0  0  0  0
   -2.0680    1.3166   -1.1620 H   0  0  0  0  0  0  0  0  0  0  0  0
  1  2  1  0
  2  3  2  0
  2  4  1  0
  4  5  1  0
  5  6  1  0
  6  7  1  0
  6  8  1  0
  8  9  2  0
  1 10  1  0
  1 11  1  0
  1 12  1  0
  5 13  1  0
  5 14  1  0
  6 15  1  0
  7 16  1  0
  7 17  1  0
  7 18  1  0
  8 19  1  0
M  END
