
     RDKit          3D

 23 23  0  0  0  0  0  0  0  0999 V2000
    2.0406   -1.3212    0.1436 C   0  0  0  0  0  0  0  0  0  0  0  0
    1.6990    0.1279    0.2679 C   0  0  0  0  0  0  0  0  0  0  0  0
    2.4610    0.8496    0.8505 O   0  0  0  0  0  0  0  0  0  0  0  0
    0.4417    0.6870   -0.2985 C   0  0  0  0  0  0  0  0  0  0  0  0
    0.3781    0.6835   -1.7876 C   0  0  0  0  0  0  0  0  0  0  0  0
   -0.4157    1.6324    0.4510 C   0  0  0  0  0  0  0  0  0  0  0  0
   -0.8327    0.2011    0.3710 C   0  0  0  0  0  0  0  0  0  0  0  0
   -0.8012   -0.5833    1.6382 C   0  0  0  0  0  0  0  0  0  0  0  0
   -1.9281   -0.2129   -0.5747 C   0  0  0  0  0  0  0  0  0  0  0  0
    1.9824   -1.7342   -0.8607 H   0  0  0  0  0  0  0  0  0  0  0  0
    3.0229   -1.5195    0.6597 H   0  0  0  0  0  0  0  0  0  0  0  0
    1.3259   -1.9598    0.7608 H   0  0  0  0  0  0  0  0  0  0  0  0
   -0.4731    1.3410   -2.1643 H   0  0  0  0  0  0  0  0  0  0  0  0
    0.4129   -0.2627   -2.3002 H   0  0  0  0  0  0  0  0  0  0  0  0
    1.2770    1.2986   -2.1481 H   0  0  0  0  0  0  0  0  0  0  0  0
   -1.1213    2.3182   -0.0455 H   0  0  0  0  0  0  0  0  0  0  0  0
   -0.1078    2.0201    1.4508 H   0  0  0  0  0  0  0  0  0  0  0  0
   -1.7390   -0.2868    2.1991 H   0  0  0  0  0  0  0  0  0  0  0  0
   -0.9718   -1.6871    1.4552 H   0  0  0  0  0  0  0  0  0  0  0  0
    0.0088   -0.3921    2.3231 H   0  0  0  0  0  0  0  0  0  0  0  0
   -2.0817   -1.3262   -0.4302 H   0  0  0  0  0  0  0  0  0  0  0  0
   -1.6659   -0.1216   -1.6309 H   0  0  0  0  0  0  0  0  0  0  0  0
   -2.9120    0.2478   -0.3302 H   0  0  0  0  0  0  0  0  0  0  0  0
  1  2  1  0
  2  3  2  0
  2  4  1  0
  4  5  1  0
  4  6  1  0
  6  7  1  0
  7  8  1  0
  7  9  1  0
  7  4  1  0
  1 10  1  0
  1 11  1  0
  1 12  1  0
  5 13  1  0
  5 14  1  0
  5 15  1  0
  6 16  1  0
  6 17  1  0
  8 18  1  0
  8 19  1  0
  8 20  1  0
  9 21  1  0
  9 22  1  0
  9 23  1  0
M  END
