
     RDKit          3D

 19 19  0  0  0  0  0  0  0  0999 V2000
    2.8591    0.9118   -0.4502 C   0  0  0  0  0  0  0  0  0  0  0  0
    1.7520    0.1103    0.1649 C   0  0  0  0  0  0  0  0  0  0  0  0
    1.8846   -0.3914    1.2684 O   0  0  0  0  0  0  0  0  0  0  0  0
    0.4603   -0.1032   -0.5390 C   0  0  0  0  0  0  0  0  0  0  0  0
   -0.4304   -0.9338    0.3222 C   0  0  0  0  0  0  0  0  0  0  0  0
   -1.7537   -1.1764   -0.3520 C   0  0  0  0  0  0  0  0  0  0  0  0
   -2.6160   -0.3079    0.1432 C   0  0  0  0  0  0  0  0  0  0  0  0
   -1.8893    0.5126    1.1390 C   0  0  0  0  0  0  0  0  0  0  0  0
   -0.7412   -0.2065    1.4658 O   0  0  0  0  0  0  0  0  0  0  0  0
    2.7995    1.9786   -0.2035 H   0  0  0  0  0  0  0  0  0  0  0  0
    2.7759    0.8269   -1.5652 H   0  0  0  0  0  0  0  0  0  0  0  0
    3.8101    0.4702   -0.0989 H   0  0  0  0  0  0  0  0  0  0  0  0
    0.0273    0.8652   -0.8262 H   0  0  0  0  0  0  0  0  0  0  0  0
    0.6443   -0.6780   -1.4949 H   0  0  0  0  0  0  0  0  0  0  0  0
    0.0066   -1.8881    0.6319 H   0  0  0  0  0  0  0  0  0  0  0  0
   -1.9211   -1.9378   -1.1022 H   0  0  0  0  0  0  0  0  0  0  0  0
   -3.6503   -0.2053   -0.1177 H   0  0  0  0  0  0  0  0  0  0  0  0
   -1.5324    1.4635    0.6728 H   0  0  0  0  0  0  0  0  0  0  0  0
   -2.4854    0.6893    2.0594 H   0  0  0  0  0  0  0  0  0  0  0  0
  1  2  1  0
  2  3  2  0
  2  4  1  0
  4  5  1  0
  5  6  1  0
  6  7  2  0
  7  8  1  0
  8  9  1  0
  9  5  1  0
  1 10  1  0
  1 11  1  0
  1 12  1  0
  4 13  1  0
  4 14  1  0
  5 15  1  0
  6 16  1  0
  7 17  1  0
  8 18  1  0
  8 19  1  0
M  END
