
     RDKit          3D

 19 19  0  0  0  0  0  0  0  0999 V2000
    3.5959    0.9783   -0.2917 C   0  0  0  0  0  0  0  0  0  0  0  0
    2.7859   -0.2593   -0.1916 C   0  0  0  0  0  0  0  0  0  0  0  0
    3.4020   -1.3528   -0.2152 O   0  0  0  0  0  0  0  0  0  0  0  0
    1.3545   -0.2468   -0.0716 C   0  0  0  0  0  0  0  0  0  0  0  0
    0.1486   -0.2180    0.0315 C   0  0  0  0  0  0  0  0  0  0  0  0
   -1.3124   -0.2086    0.1537 C   0  0  0  0  0  0  0  0  0  0  0  0
   -1.9234    0.9942    0.8510 C   0  0  0  0  0  0  0  0  0  0  0  0
   -2.0875   -1.4527    0.2021 C   0  0  0  0  0  0  0  0  0  0  0  0
   -2.1036   -0.7430   -1.0777 C   0  0  0  0  0  0  0  0  0  0  0  0
    4.5521    0.8432    0.2799 H   0  0  0  0  0  0  0  0  0  0  0  0
    3.8664    1.2406   -1.3267 H   0  0  0  0  0  0  0  0  0  0  0  0
    3.0099    1.7994    0.1508 H   0  0  0  0  0  0  0  0  0  0  0  0
   -1.5815    1.9449    0.4062 H   0  0  0  0  0  0  0  0  0  0  0  0
   -3.0303    0.8659    0.8083 H   0  0  0  0  0  0  0  0  0  0  0  0
   -1.6095    0.9437    1.9195 H   0  0  0  0  0  0  0  0  0  0  0  0
   -3.0489   -1.4499    0.7811 H   0  0  0  0  0  0  0  0  0  0  0  0
   -1.6196   -2.4617    0.2079 H   0  0  0  0  0  0  0  0  0  0  0  0
   -2.9377   -0.1060   -1.4223 H   0  0  0  0  0  0  0  0  0  0  0  0
   -1.4608   -1.1114   -1.9081 H   0  0  0  0  0  0  0  0  0  0  0  0
  1  2  1  0
  2  3  2  0
  2  4  1  0
  4  5  3  0
  5  6  1  0
  6  7  1  0
  6  8  1  0
  8  9  1  0
  9  6  1  0
  1 10  1  0
  1 11  1  0
  1 12  1  0
  7 13  1  0
  7 14  1  0
  7 15  1  0
  8 16  1  0
  8 17  1  0
  9 18  1  0
  9 19  1  0
M  END
