
     RDKit          3D

 15 14  0  0  0  0  0  0  0  0999 V2000
   -1.9790   -0.0547    0.0579 C   0  0  0  0  0  0  0  0  0  0  0  0
   -0.6369   -0.6376    0.3194 C   0  0  0  0  0  0  0  0  0  0  0  0
   -0.5179   -1.4914    1.1749 O   0  0  0  0  0  0  0  0  0  0  0  0
    0.5820   -0.2292   -0.4166 C   0  0  0  0  0  0  0  0  0  0  0  0
    0.7465    1.2744   -0.1430 C   0  0  0  0  0  0  0  0  0  0  0  0
    1.7422   -0.9906    0.0984 C   0  0  0  0  0  0  0  0  0  0  0  0
    1.7817   -1.5845    1.1608 O   0  0  0  0  0  0  0  0  0  0  0  0
   -2.3905    0.3303    1.0203 H   0  0  0  0  0  0  0  0  0  0  0  0
   -2.6628   -0.8734   -0.2697 H   0  0  0  0  0  0  0  0  0  0  0  0
   -1.9786    0.7320   -0.6908 H   0  0  0  0  0  0  0  0  0  0  0  0
    0.4684   -0.3433   -1.5157 H   0  0  0  0  0  0  0  0  0  0  0  0
    0.0631    1.7917   -0.8566 H   0  0  0  0  0  0  0  0  0  0  0  0
    1.7842    1.5935   -0.3007 H   0  0  0  0  0  0  0  0  0  0  0  0
    0.3598    1.5141    0.8713 H   0  0  0  0  0  0  0  0  0  0  0  0
    2.6378   -1.0314   -0.5101 H   0  0  0  0  0  0  0  0  0  0  0  0
  1  2  1  0
  2  3  2  0
  2  4  1  0
  4  5  1  0
  4  6  1  0
  6  7  2  0
  1  8  1  0
  1  9  1  0
  1 10  1  0
  4 11  1  0
  5 12  1  0
  5 13  1  0
  5 14  1  0
  6 15  1  0
M  END
