
     RDKit          3D

 19 20  0  0  0  0  0  0  0  0999 V2000
    1.9205   -1.1798    0.4124 C   0  0  0  0  0  0  0  0  0  0  0  0
    1.5837   -0.0286   -0.4490 C   0  0  0  0  0  0  0  0  0  0  0  0
    2.4210    0.3489   -1.2308 O   0  0  0  0  0  0  0  0  0  0  0  0
    0.2855    0.6282   -0.3577 C   0  0  0  0  0  0  0  0  0  0  0  0
   -0.7650    0.1830    0.5976 C   0  0  0  0  0  0  0  0  0  0  0  0
   -1.3387   -1.1804    0.5793 C   0  0  0  0  0  0  0  0  0  0  0  0
   -2.1537   -0.1035    0.0045 C   0  0  0  0  0  0  0  0  0  0  0  0
    0.2221    2.0276   -0.8086 C   0  0  0  0  0  0  0  0  0  0  0  0
   -0.3142    1.0487   -1.6311 O   0  0  0  0  0  0  0  0  0  0  0  0
    1.0831   -1.4064    1.0719 H   0  0  0  0  0  0  0  0  0  0  0  0
    2.8324   -0.8824    0.9961 H   0  0  0  0  0  0  0  0  0  0  0  0
    2.1855   -2.0891   -0.1650 H   0  0  0  0  0  0  0  0  0  0  0  0
   -0.7442    0.6915    1.5981 H   0  0  0  0  0  0  0  0  0  0  0  0
   -0.9275   -1.9582   -0.1169 H   0  0  0  0  0  0  0  0  0  0  0  0
   -1.6422   -1.6276    1.5512 H   0  0  0  0  0  0  0  0  0  0  0  0
   -2.2631   -0.0831   -1.0889 H   0  0  0  0  0  0  0  0  0  0  0  0
   -3.0037    0.3486    0.5790 H   0  0  0  0  0  0  0  0  0  0  0  0
   -0.5397    2.7470   -0.4329 H   0  0  0  0  0  0  0  0  0  0  0  0
    1.1580    2.5157   -1.1091 H   0  0  0  0  0  0  0  0  0  0  0  0
  1  2  1  0
  2  3  2  0
  2  4  1  0
  4  5  1  0
  5  6  1  0
  6  7  1  0
  4  8  1  0
  8  9  1  0
  9  4  1  0
  7  5  1  0
  1 10  1  0
  1 11  1  0
  1 12  1  0
  5 13  1  0
  6 14  1  0
  6 15  1  0
  7 16  1  0
  7 17  1  0
  8 18  1  0
  8 19  1  0
M  END
