
     RDKit          3D

 18 17  0  0  0  0  0  0  0  0999 V2000
    2.7474    0.5737    0.0297 C   0  0  0  0  0  0  0  0  0  0  0  0
    1.3394    1.0965    0.1479 C   0  0  0  0  0  0  0  0  0  0  0  0
    1.0850    2.2025   -0.2751 O   0  0  0  0  0  0  0  0  0  0  0  0
    0.2860    0.2539    0.7783 C   0  0  0  0  0  0  0  0  0  0  0  0
    0.7524   -0.9633    1.1977 O   0  0  0  0  0  0  0  0  0  0  0  0
   -0.9038    0.1587   -0.1423 C   0  0  0  0  0  0  0  0  0  0  0  0
   -2.0119   -0.6875    0.4435 C   0  0  0  0  0  0  0  0  0  0  0  0
   -3.1029   -0.7650   -0.4195 O   0  0  0  0  0  0  0  0  0  0  0  0
    3.2854    1.0409   -0.8128 H   0  0  0  0  0  0  0  0  0  0  0  0
    3.2766    0.7516    0.9907 H   0  0  0  0  0  0  0  0  0  0  0  0
    2.6752   -0.5297   -0.0917 H   0  0  0  0  0  0  0  0  0  0  0  0
   -0.0634    0.8144    1.6888 H   0  0  0  0  0  0  0  0  0  0  0  0
    0.5286   -1.7120    0.5829 H   0  0  0  0  0  0  0  0  0  0  0  0
   -0.6406   -0.2753   -1.1288 H   0  0  0  0  0  0  0  0  0  0  0  0
   -1.3438    1.1567   -0.3427 H   0  0  0  0  0  0  0  0  0  0  0  0
   -2.3351   -0.3469    1.4250 H   0  0  0  0  0  0  0  0  0  0  0  0
   -1.6507   -1.7498    0.5653 H   0  0  0  0  0  0  0  0  0  0  0  0
   -3.9239   -1.0192    0.0346 H   0  0  0  0  0  0  0  0  0  0  0  0
  1  2  1  0
  2  3  2  0
  2  4  1  0
  4  5  1  0
  4  6  1  0
  6  7  1  0
  7  8  1  0
  1  9  1  0
  1 10  1  0
  1 11  1  0
  4 12  1  0
  5 13  1  0
  6 14  1  0
  6 15  1  0
  7 16  1  0
  7 17  1  0
  8 18  1  0
M  END
