
     RDKit          3D

 14 14  0  0  0  0  0  0  0  0999 V2000
   -2.3008    0.2525   -0.5001 C   0  0  0  0  0  0  0  0  0  0  0  0
   -1.1399   -0.1976    0.3102 C   0  0  0  0  0  0  0  0  0  0  0  0
   -1.2547   -0.3150    1.5168 O   0  0  0  0  0  0  0  0  0  0  0  0
    0.1694   -0.5132   -0.3026 C   0  0  0  0  0  0  0  0  0  0  0  0
    0.9974   -1.4545    0.3008 O   0  0  0  0  0  0  0  0  0  0  0  0
    1.3873   -0.1235    0.4868 C   0  0  0  0  0  0  0  0  0  0  0  0
    2.5293    0.4033   -0.2883 C   0  0  0  0  0  0  0  0  0  0  0  0
    2.6618    0.0604   -1.4436 O   0  0  0  0  0  0  0  0  0  0  0  0
   -2.0633    0.1616   -1.5869 H   0  0  0  0  0  0  0  0  0  0  0  0
   -2.6002    1.2707   -0.2558 H   0  0  0  0  0  0  0  0  0  0  0  0
   -3.1319   -0.4430   -0.2885 H   0  0  0  0  0  0  0  0  0  0  0  0
    0.2034   -0.3857   -1.3975 H   0  0  0  0  0  0  0  0  0  0  0  0
    1.2843    0.2018    1.5396 H   0  0  0  0  0  0  0  0  0  0  0  0
    3.2579    1.0821    0.1204 H   0  0  0  0  0  0  0  0  0  0  0  0
  1  2  1  0
  2  3  2  0
  2  4  1  0
  4  5  1  0
  5  6  1  0
  6  7  1  0
  7  8  2  0
  6  4  1  0
  1  9  1  0
  1 10  1  0
  1 11  1  0
  4 12  1  0
  6 13  1  0
  7 14  1  0
M  END
