
     RDKit          3D

 12 11  0  0  0  0  0  0  0  0999 V2000
   -1.9110    0.1246    0.2862 C   0  0  0  0  0  0  0  0  0  0  0  0
   -0.6209    0.2084   -0.4560 C   0  0  0  0  0  0  0  0  0  0  0  0
   -0.6114    0.6553   -1.6319 O   0  0  0  0  0  0  0  0  0  0  0  0
    0.6368   -0.2077    0.1259 C   0  0  0  0  0  0  0  0  0  0  0  0
    1.8900   -0.1089   -0.6407 C   0  0  0  0  0  0  0  0  0  0  0  0
    0.6312   -0.6517    1.2925 O   0  0  0  0  0  0  0  0  0  0  0  0
   -1.8516    0.6528    1.2758 H   0  0  0  0  0  0  0  0  0  0  0  0
   -2.1938   -0.9195    0.5257 H   0  0  0  0  0  0  0  0  0  0  0  0
   -2.7174    0.5256   -0.3540 H   0  0  0  0  0  0  0  0  0  0  0  0
    2.4527    0.8447   -0.4213 H   0  0  0  0  0  0  0  0  0  0  0  0
    2.5823   -0.9759   -0.4497 H   0  0  0  0  0  0  0  0  0  0  0  0
    1.7131   -0.1477   -1.7548 H   0  0  0  0  0  0  0  0  0  0  0  0
  1  2  1  0
  2  3  2  0
  2  4  1  0
  4  5  1  0
  4  6  2  0
  1  7  1  0
  1  8  1  0
  1  9  1  0
  5 10  1  0
  5 11  1  0
  5 12  1  0
M  END
