
     RDKit          3D

 21 21  0  0  0  0  0  0  0  0999 V2000
    2.3235    0.9907   -0.3574 C   0  0  0  0  0  0  0  0  0  0  0  0
    1.5307    0.2461    0.6410 C   0  0  0  0  0  0  0  0  0  0  0  0
    1.6143    0.6226    1.8198 O   0  0  0  0  0  0  0  0  0  0  0  0
    0.6448   -0.9034    0.3755 C   0  0  0  0  0  0  0  0  0  0  0  0
   -0.5800   -0.6166   -0.4093 C   0  0  0  0  0  0  0  0  0  0  0  0
   -1.3425   -1.9368   -0.5498 C   0  0  0  0  0  0  0  0  0  0  0  0
   -1.4918    0.4199    0.1043 C   0  0  0  0  0  0  0  0  0  0  0  0
   -1.1653    1.8099    0.3266 C   0  0  0  0  0  0  0  0  0  0  0  0
   -0.9938    0.9362    1.4192 O   0  0  0  0  0  0  0  0  0  0  0  0
    3.2526    0.4638   -0.6746 H   0  0  0  0  0  0  0  0  0  0  0  0
    2.5412    1.9931    0.0665 H   0  0  0  0  0  0  0  0  0  0  0  0
    1.7194    1.2101   -1.2887 H   0  0  0  0  0  0  0  0  0  0  0  0
    0.3764   -1.4552    1.3065 H   0  0  0  0  0  0  0  0  0  0  0  0
    1.2642   -1.6355   -0.2270 H   0  0  0  0  0  0  0  0  0  0  0  0
   -0.2375   -0.4051   -1.4700 H   0  0  0  0  0  0  0  0  0  0  0  0
   -2.0405   -1.9758    0.3326 H   0  0  0  0  0  0  0  0  0  0  0  0
   -1.8935   -1.9485   -1.5041 H   0  0  0  0  0  0  0  0  0  0  0  0
   -0.6734   -2.8021   -0.4475 H   0  0  0  0  0  0  0  0  0  0  0  0
   -2.5826    0.1380    0.1843 H   0  0  0  0  0  0  0  0  0  0  0  0
   -0.2633    2.3201   -0.0943 H   0  0  0  0  0  0  0  0  0  0  0  0
   -2.0032    2.5286    0.4464 H   0  0  0  0  0  0  0  0  0  0  0  0
  1  2  1  0
  2  3  2  0
  2  4  1  0
  4  5  1  0
  5  6  1  0
  5  7  1  0
  7  8  1  0
  8  9  1  0
  9  7  1  0
  1 10  1  0
  1 11  1  0
  1 12  1  0
  4 13  1  0
  4 14  1  0
  5 15  1  0
  6 16  1  0
  6 17  1  0
  6 18  1  0
  7 19  1  0
  8 20  1  0
  8 21  1  0
M  END
