
     RDKit          3D

 19 19  0  0  0  0  0  0  0  0999 V2000
    3.1153    0.1766    0.7928 C   0  0  0  0  0  0  0  0  0  0  0  0
    1.9912   -0.2426   -0.0779 C   0  0  0  0  0  0  0  0  0  0  0  0
    2.1978   -0.8690   -1.1519 O   0  0  0  0  0  0  0  0  0  0  0  0
    0.6623    0.0092    0.2037 O   0  0  0  0  0  0  0  0  0  0  0  0
   -0.4028   -0.3852   -0.6165 C   0  0  0  0  0  0  0  0  0  0  0  0
   -1.4589   -1.1670    0.1092 C   0  0  0  0  0  0  0  0  0  0  0  0
   -2.2771   -0.1196    0.7619 C   0  0  0  0  0  0  0  0  0  0  0  0
   -2.0987    1.0402    0.1434 C   0  0  0  0  0  0  0  0  0  0  0  0
   -1.1472    0.8951   -0.9837 C   0  0  0  0  0  0  0  0  0  0  0  0
    3.0085    1.2339    1.1356 H   0  0  0  0  0  0  0  0  0  0  0  0
    4.0458    0.1457    0.1811 H   0  0  0  0  0  0  0  0  0  0  0  0
    3.2215   -0.4442    1.6899 H   0  0  0  0  0  0  0  0  0  0  0  0
   -0.1218   -0.9193   -1.5195 H   0  0  0  0  0  0  0  0  0  0  0  0
   -1.0544   -1.9154    0.8108 H   0  0  0  0  0  0  0  0  0  0  0  0
   -2.0932   -1.7093   -0.6159 H   0  0  0  0  0  0  0  0  0  0  0  0
   -2.9173   -0.3160    1.6211 H   0  0  0  0  0  0  0  0  0  0  0  0
   -2.5841    1.9516    0.4312 H   0  0  0  0  0  0  0  0  0  0  0  0
   -1.6130    0.8523   -1.9665 H   0  0  0  0  0  0  0  0  0  0  0  0
   -0.4739    1.7831   -0.9487 H   0  0  0  0  0  0  0  0  0  0  0  0
  1  2  1  0
  2  3  2  0
  2  4  1  0
  4  5  1  0
  5  6  1  0
  6  7  1  0
  7  8  2  0
  8  9  1  0
  9  5  1  0
  1 10  1  0
  1 11  1  0
  1 12  1  0
  5 13  1  0
  6 14  1  0
  6 15  1  0
  7 16  1  0
  8 17  1  0
  9 18  1  0
  9 19  1  0
M  END
