
     RDKit          3D

 19 18  0  0  0  0  0  0  0  0999 V2000
    3.3153    0.7590    0.4872 C   0  0  0  0  0  0  0  0  0  0  0  0
    2.5411   -0.5051    0.4755 C   0  0  0  0  0  0  0  0  0  0  0  0
    3.1488   -1.5597    0.7797 O   0  0  0  0  0  0  0  0  0  0  0  0
    1.1536   -0.4471    0.1198 C   0  0  0  0  0  0  0  0  0  0  0  0
   -0.0096   -0.3941   -0.1991 C   0  0  0  0  0  0  0  0  0  0  0  0
   -1.4173   -0.3065   -0.5948 C   0  0  0  0  0  0  0  0  0  0  0  0
   -1.6733    0.9947   -1.2722 C   0  0  0  0  0  0  0  0  0  0  0  0
   -2.2678   -0.5237    0.6223 C   0  0  0  0  0  0  0  0  0  0  0  0
   -1.9735   -1.7872    1.1249 O   0  0  0  0  0  0  0  0  0  0  0  0
    3.5942    0.9368    1.5629 H   0  0  0  0  0  0  0  0  0  0  0  0
    4.2262    0.7060   -0.1498 H   0  0  0  0  0  0  0  0  0  0  0  0
    2.7189    1.6010    0.1211 H   0  0  0  0  0  0  0  0  0  0  0  0
   -1.6859   -1.1197   -1.3254 H   0  0  0  0  0  0  0  0  0  0  0  0
   -1.6993    1.8411   -0.5418 H   0  0  0  0  0  0  0  0  0  0  0  0
   -2.6454    0.9202   -1.8405 H   0  0  0  0  0  0  0  0  0  0  0  0
   -0.8847    1.1386   -2.0444 H   0  0  0  0  0  0  0  0  0  0  0  0
   -3.3448   -0.4478    0.2991 H   0  0  0  0  0  0  0  0  0  0  0  0
   -2.0585    0.2215    1.4169 H   0  0  0  0  0  0  0  0  0  0  0  0
   -1.0382   -2.0282    0.9587 H   0  0  0  0  0  0  0  0  0  0  0  0
  1  2  1  0
  2  3  2  0
  2  4  1  0
  4  5  3  0
  5  6  1  0
  6  7  1  0
  6  8  1  0
  8  9  1  0
  1 10  1  0
  1 11  1  0
  1 12  1  0
  6 13  1  0
  7 14  1  0
  7 15  1  0
  7 16  1  0
  8 17  1  0
  8 18  1  0
  9 19  1  0
M  END
