
     RDKit          3D

 18 17  0  0  0  0  0  0  0  0999 V2000
    2.0821   -1.0458    0.1355 C   0  0  0  0  0  0  0  0  0  0  0  0
    1.3845    0.2430   -0.1569 C   0  0  0  0  0  0  0  0  0  0  0  0
    1.9202    1.1299   -0.8131 O   0  0  0  0  0  0  0  0  0  0  0  0
    0.0061    0.4012    0.3864 C   0  0  0  0  0  0  0  0  0  0  0  0
   -0.5099    1.7569   -0.0188 C   0  0  0  0  0  0  0  0  0  0  0  0
   -0.8425   -0.7262   -0.1451 C   0  0  0  0  0  0  0  0  0  0  0  0
   -2.2362   -0.6624    0.3361 C   0  0  0  0  0  0  0  0  0  0  0  0
   -3.0044   -1.5288   -0.0365 O   0  0  0  0  0  0  0  0  0  0  0  0
    2.0571   -1.1727    1.2410 H   0  0  0  0  0  0  0  0  0  0  0  0
    1.6323   -1.8712   -0.4189 H   0  0  0  0  0  0  0  0  0  0  0  0
    3.1418   -0.9144   -0.1613 H   0  0  0  0  0  0  0  0  0  0  0  0
    0.0035    0.3525    1.4934 H   0  0  0  0  0  0  0  0  0  0  0  0
    0.3634    2.4378   -0.1066 H   0  0  0  0  0  0  0  0  0  0  0  0
   -1.1430    2.1708    0.8110 H   0  0  0  0  0  0  0  0  0  0  0  0
   -1.0845    1.7479   -0.9503 H   0  0  0  0  0  0  0  0  0  0  0  0
   -0.8065   -0.7626   -1.2556 H   0  0  0  0  0  0  0  0  0  0  0  0
   -0.3905   -1.6709    0.2243 H   0  0  0  0  0  0  0  0  0  0  0  0
   -2.5734    0.1150    0.9915 H   0  0  0  0  0  0  0  0  0  0  0  0
  1  2  1  0
  2  3  2  0
  2  4  1  0
  4  5  1  0
  4  6  1  0
  6  7  1  0
  7  8  2  0
  1  9  1  0
  1 10  1  0
  1 11  1  0
  4 12  1  0
  5 13  1  0
  5 14  1  0
  5 15  1  0
  6 16  1  0
  6 17  1  0
  7 18  1  0
M  END
