
     RDKit          3D

 15 15  0  0  0  0  0  0  0  0999 V2000
   -2.1472    0.4809    0.2172 C   0  0  0  0  0  0  0  0  0  0  0  0
   -0.9241    0.1480   -0.5562 C   0  0  0  0  0  0  0  0  0  0  0  0
   -0.6675    0.8034   -1.5528 O   0  0  0  0  0  0  0  0  0  0  0  0
    0.0009   -0.9498   -0.1691 C   0  0  0  0  0  0  0  0  0  0  0  0
    1.2579   -0.4795    0.4825 C   0  0  0  0  0  0  0  0  0  0  0  0
    2.1938    0.3949   -0.1649 C   0  0  0  0  0  0  0  0  0  0  0  0
    1.2190    0.9020    0.8079 O   0  0  0  0  0  0  0  0  0  0  0  0
   -2.9884   -0.0654   -0.2393 H   0  0  0  0  0  0  0  0  0  0  0  0
   -2.0923    0.1739    1.2700 H   0  0  0  0  0  0  0  0  0  0  0  0
   -2.3884    1.5707    0.1733 H   0  0  0  0  0  0  0  0  0  0  0  0
    0.2301   -1.5065   -1.1122 H   0  0  0  0  0  0  0  0  0  0  0  0
   -0.5506   -1.6483    0.5017 H   0  0  0  0  0  0  0  0  0  0  0  0
    1.6427   -1.1608    1.2942 H   0  0  0  0  0  0  0  0  0  0  0  0
    3.1998    0.5713    0.2482 H   0  0  0  0  0  0  0  0  0  0  0  0
    2.0144    0.7654   -1.2006 H   0  0  0  0  0  0  0  0  0  0  0  0
  1  2  1  0
  2  3  2  0
  2  4  1  0
  4  5  1  0
  5  6  1  0
  6  7  1  0
  7  5  1  0
  1  8  1  0
  1  9  1  0
  1 10  1  0
  4 11  1  0
  4 12  1  0
  5 13  1  0
  6 14  1  0
  6 15  1  0
M  END
