
     RDKit          3D

 19 19  0  0  0  0  0  0  0  0999 V2000
    3.3694   -0.0724    0.4357 C   0  0  0  0  0  0  0  0  0  0  0  0
    2.0044   -0.4700   -0.0113 C   0  0  0  0  0  0  0  0  0  0  0  0
    1.9025   -1.3840   -0.8636 O   0  0  0  0  0  0  0  0  0  0  0  0
    0.8562    0.1088    0.4585 O   0  0  0  0  0  0  0  0  0  0  0  0
   -0.4413   -0.2109    0.0875 C   0  0  0  0  0  0  0  0  0  0  0  0
   -1.1930    0.9238   -0.5669 C   0  0  0  0  0  0  0  0  0  0  0  0
   -2.6132    0.6220   -0.1246 C   0  0  0  0  0  0  0  0  0  0  0  0
   -2.4579    0.1766    1.1775 O   0  0  0  0  0  0  0  0  0  0  0  0
   -1.3348   -0.6558    1.1918 C   0  0  0  0  0  0  0  0  0  0  0  0
    3.7416   -0.6825    1.2646 H   0  0  0  0  0  0  0  0  0  0  0  0
    4.1077   -0.1973   -0.4002 H   0  0  0  0  0  0  0  0  0  0  0  0
    3.3775    1.0002    0.7186 H   0  0  0  0  0  0  0  0  0  0  0  0
   -0.3880   -1.0312   -0.6691 H   0  0  0  0  0  0  0  0  0  0  0  0
   -1.1384    0.8498   -1.6605 H   0  0  0  0  0  0  0  0  0  0  0  0
   -0.8918    1.9144   -0.1650 H   0  0  0  0  0  0  0  0  0  0  0  0
   -3.1896    1.5775   -0.0884 H   0  0  0  0  0  0  0  0  0  0  0  0
   -3.1112   -0.1243   -0.7562 H   0  0  0  0  0  0  0  0  0  0  0  0
   -1.7356   -1.6956    1.0502 H   0  0  0  0  0  0  0  0  0  0  0  0
   -0.8647   -0.6489    2.1927 H   0  0  0  0  0  0  0  0  0  0  0  0
  1  2  1  0
  2  3  2  0
  2  4  1  0
  4  5  1  0
  5  6  1  0
  6  7  1  0
  7  8  1  0
  8  9  1  0
  9  5  1  0
  1 10  1  0
  1 11  1  0
  1 12  1  0
  5 13  1  0
  6 14  1  0
  6 15  1  0
  7 16  1  0
  7 17  1  0
  9 18  1  0
  9 19  1  0
M  END
