
     RDKit          3D

 19 19  0  0  0  0  0  0  0  0999 V2000
   -2.5742   -0.4651    0.2230 C   0  0  0  0  0  0  0  0  0  0  0  0
   -1.2796   -0.8298   -0.3898 C   0  0  0  0  0  0  0  0  0  0  0  0
   -1.2765   -1.8038   -1.1337 O   0  0  0  0  0  0  0  0  0  0  0  0
    0.0033   -0.1018   -0.1639 C   0  0  0  0  0  0  0  0  0  0  0  0
    1.2424   -0.8693   -0.4340 C   0  0  0  0  0  0  0  0  0  0  0  0
    2.5443   -0.3338    0.0411 C   0  0  0  0  0  0  0  0  0  0  0  0
    1.2444   -1.9256   -1.0327 O   0  0  0  0  0  0  0  0  0  0  0  0
    0.0717    0.9840    0.8500 C   0  0  0  0  0  0  0  0  0  0  0  0
   -0.0595    1.3471   -0.5696 C   0  0  0  0  0  0  0  0  0  0  0  0
   -2.4541    0.0719    1.1814 H   0  0  0  0  0  0  0  0  0  0  0  0
   -3.0714   -1.4337    0.4986 H   0  0  0  0  0  0  0  0  0  0  0  0
   -3.1649    0.1024   -0.5176 H   0  0  0  0  0  0  0  0  0  0  0  0
    2.5371   -0.3950    1.1627 H   0  0  0  0  0  0  0  0  0  0  0  0
    3.3964   -0.9257   -0.3201 H   0  0  0  0  0  0  0  0  0  0  0  0
    2.6841    0.7194   -0.2956 H   0  0  0  0  0  0  0  0  0  0  0  0
    1.0820    1.1453    1.3091 H   0  0  0  0  0  0  0  0  0  0  0  0
   -0.7378    1.1357    1.5877 H   0  0  0  0  0  0  0  0  0  0  0  0
    0.8215    1.7910   -1.1156 H   0  0  0  0  0  0  0  0  0  0  0  0
   -1.0092    1.7870   -0.8811 H   0  0  0  0  0  0  0  0  0  0  0  0
  1  2  1  0
  2  3  2  0
  2  4  1  0
  4  5  1  0
  5  6  1  0
  5  7  2  0
  4  8  1  0
  8  9  1  0
  9  4  1  0
  1 10  1  0
  1 11  1  0
  1 12  1  0
  6 13  1  0
  6 14  1  0
  6 15  1  0
  8 16  1  0
  8 17  1  0
  9 18  1  0
  9 19  1  0
M  END
