
     RDKit          3D

 19 19  0  0  0  0  0  0  0  0999 V2000
    3.1753    0.9429   -0.2047 C   0  0  0  0  0  0  0  0  0  0  0  0
    1.8513    0.3106   -0.4648 C   0  0  0  0  0  0  0  0  0  0  0  0
    0.9344    0.8911   -1.0978 O   0  0  0  0  0  0  0  0  0  0  0  0
    1.5699   -0.9677   -0.0113 O   0  0  0  0  0  0  0  0  0  0  0  0
    0.3319   -1.5480   -0.2594 C   0  0  0  0  0  0  0  0  0  0  0  0
   -0.8205   -0.7612    0.3297 C   0  0  0  0  0  0  0  0  0  0  0  0
   -2.0840   -1.4349    0.0262 O   0  0  0  0  0  0  0  0  0  0  0  0
   -1.7798   -0.1204   -0.5117 C   0  0  0  0  0  0  0  0  0  0  0  0
   -2.7299    0.9072    0.0209 C   0  0  0  0  0  0  0  0  0  0  0  0
    3.4640    0.7346    0.8562 H   0  0  0  0  0  0  0  0  0  0  0  0
    3.1319    2.0321   -0.3181 H   0  0  0  0  0  0  0  0  0  0  0  0
    3.9521    0.4594   -0.8260 H   0  0  0  0  0  0  0  0  0  0  0  0
    0.1380   -1.7437   -1.3325 H   0  0  0  0  0  0  0  0  0  0  0  0
    0.3097   -2.5565    0.2323 H   0  0  0  0  0  0  0  0  0  0  0  0
   -0.7562   -0.5294    1.3948 H   0  0  0  0  0  0  0  0  0  0  0  0
   -1.7092   -0.1421   -1.6145 H   0  0  0  0  0  0  0  0  0  0  0  0
   -2.6608    1.0476    1.1192 H   0  0  0  0  0  0  0  0  0  0  0  0
   -3.7882    0.5816   -0.1918 H   0  0  0  0  0  0  0  0  0  0  0  0
   -2.5300    1.8968   -0.4362 H   0  0  0  0  0  0  0  0  0  0  0  0
  1  2  1  0
  2  3  2  0
  2  4  1  0
  4  5  1  0
  5  6  1  0
  6  7  1  0
  7  8  1  0
  8  9  1  0
  8  6  1  0
  1 10  1  0
  1 11  1  0
  1 12  1  0
  5 13  1  0
  5 14  1  0
  6 15  1  0
  8 16  1  0
  9 17  1  0
  9 18  1  0
  9 19  1  0
M  END
