
     RDKit          3D

 21 21  0  0  0  0  0  0  0  0999 V2000
    3.9298   -0.0524   -0.3682 C   0  0  0  0  0  0  0  0  0  0  0  0
    2.5849    0.5509   -0.1110 C   0  0  0  0  0  0  0  0  0  0  0  0
    2.5233    1.7050    0.2719 O   0  0  0  0  0  0  0  0  0  0  0  0
    1.3287   -0.2195   -0.3101 C   0  0  0  0  0  0  0  0  0  0  0  0
    0.2669    0.5799   -0.0004 O   0  0  0  0  0  0  0  0  0  0  0  0
   -0.9675   -0.0060   -0.1399 C   0  0  0  0  0  0  0  0  0  0  0  0
   -2.0805    0.8348   -0.6643 C   0  0  0  0  0  0  0  0  0  0  0  0
   -2.1060    0.3255    0.7467 C   0  0  0  0  0  0  0  0  0  0  0  0
   -3.1492   -0.7421    1.0063 C   0  0  0  0  0  0  0  0  0  0  0  0
    3.9417   -1.1331   -0.1925 H   0  0  0  0  0  0  0  0  0  0  0  0
    4.6614    0.4699    0.2912 H   0  0  0  0  0  0  0  0  0  0  0  0
    4.2662    0.1504   -1.4128 H   0  0  0  0  0  0  0  0  0  0  0  0
    1.3398   -0.5784   -1.3576 H   0  0  0  0  0  0  0  0  0  0  0  0
    1.3503   -1.1598    0.3162 H   0  0  0  0  0  0  0  0  0  0  0  0
   -0.9178   -1.0661   -0.4915 H   0  0  0  0  0  0  0  0  0  0  0  0
   -2.7155    0.3742   -1.4446 H   0  0  0  0  0  0  0  0  0  0  0  0
   -1.9587    1.9294   -0.7967 H   0  0  0  0  0  0  0  0  0  0  0  0
   -2.0008    1.0396    1.5891 H   0  0  0  0  0  0  0  0  0  0  0  0
   -4.0122   -0.5204    0.3471 H   0  0  0  0  0  0  0  0  0  0  0  0
   -3.5127   -0.7269    2.0536 H   0  0  0  0  0  0  0  0  0  0  0  0
   -2.7721   -1.7551    0.7694 H   0  0  0  0  0  0  0  0  0  0  0  0
  1  2  1  0
  2  3  2  0
  2  4  1  0
  4  5  1  0
  5  6  1  0
  6  7  1  0
  7  8  1  0
  8  9  1  0
  8  6  1  0
  1 10  1  0
  1 11  1  0
  1 12  1  0
  4 13  1  0
  4 14  1  0
  6 15  1  0
  7 16  1  0
  7 17  1  0
  8 18  1  0
  9 19  1  0
  9 20  1  0
  9 21  1  0
M  END
