
     RDKit          3D

 18 19  0  0  0  0  0  0  0  0999 V2000
    2.3731   -0.2111    0.1272 C   0  0  0  0  0  0  0  0  0  0  0  0
    1.1285   -0.2789   -0.6436 C   0  0  0  0  0  0  0  0  0  0  0  0
    1.1050   -0.9546   -1.6644 O   0  0  0  0  0  0  0  0  0  0  0  0
   -0.0909    0.4278   -0.2453 C   0  0  0  0  0  0  0  0  0  0  0  0
   -1.3204    0.2869   -1.1171 C   0  0  0  0  0  0  0  0  0  0  0  0
   -1.8475   -0.6679   -0.0476 C   0  0  0  0  0  0  0  0  0  0  0  0
   -0.8269   -0.2417    0.9381 C   0  0  0  0  0  0  0  0  0  0  0  0
   -0.2760    1.1267    1.0162 C   0  0  0  0  0  0  0  0  0  0  0  0
    3.2169   -0.1236   -0.6087 H   0  0  0  0  0  0  0  0  0  0  0  0
    2.3751    0.6998    0.7258 H   0  0  0  0  0  0  0  0  0  0  0  0
    2.5642   -1.1200    0.7375 H   0  0  0  0  0  0  0  0  0  0  0  0
   -1.1388   -0.1638   -2.0974 H   0  0  0  0  0  0  0  0  0  0  0  0
   -1.9278    1.2347   -1.1358 H   0  0  0  0  0  0  0  0  0  0  0  0
   -1.6451   -1.7168   -0.4090 H   0  0  0  0  0  0  0  0  0  0  0  0
   -2.9036   -0.5399    0.2118 H   0  0  0  0  0  0  0  0  0  0  0  0
   -0.3065   -1.0357    1.4834 H   0  0  0  0  0  0  0  0  0  0  0  0
    0.5307    1.2923    1.7307 H   0  0  0  0  0  0  0  0  0  0  0  0
   -1.0101    1.9857    0.9983 H   0  0  0  0  0  0  0  0  0  0  0  0
  1  2  1  0
  2  3  2  0
  2  4  1  0
  4  5  1  0
  5  6  1  0
  6  7  1  0
  7  8  1  0
  7  4  1  0
  8  4  1  0
  1  9  1  0
  1 10  1  0
  1 11  1  0
  5 12  1  0
  5 13  1  0
  6 14  1  0
  6 15  1  0
  7 16  1  0
  8 17  1  0
  8 18  1  0
M  END
