
     RDKit          3D

 17 17  0  0  0  0  0  0  0  0999 V2000
    2.3279   -0.3163    0.1808 C   0  0  0  0  0  0  0  0  0  0  0  0
    1.1628    0.5932    0.2909 C   0  0  0  0  0  0  0  0  0  0  0  0
    1.2702    1.6085    0.9440 O   0  0  0  0  0  0  0  0  0  0  0  0
   -0.0884    0.2622   -0.3801 C   0  0  0  0  0  0  0  0  0  0  0  0
   -1.1788    1.2890   -0.1711 C   0  0  0  0  0  0  0  0  0  0  0  0
   -2.3499    0.5516   -0.4687 O   0  0  0  0  0  0  0  0  0  0  0  0
   -2.1264   -0.8079   -0.3489 C   0  0  0  0  0  0  0  0  0  0  0  0
   -2.8784   -1.7634   -0.6523 O   0  0  0  0  0  0  0  0  0  0  0  0
   -0.7720   -0.9667    0.2313 C   0  0  0  0  0  0  0  0  0  0  0  0
    3.0928    0.2129   -0.4398 H   0  0  0  0  0  0  0  0  0  0  0  0
    2.0792   -1.2860   -0.2727 H   0  0  0  0  0  0  0  0  0  0  0  0
    2.7775   -0.5195    1.1642 H   0  0  0  0  0  0  0  0  0  0  0  0
    0.0056    0.1023   -1.4706 H   0  0  0  0  0  0  0  0  0  0  0  0
   -1.0382    2.1683   -0.7979 H   0  0  0  0  0  0  0  0  0  0  0  0
   -1.1441    1.5626    0.9151 H   0  0  0  0  0  0  0  0  0  0  0  0
   -0.2734   -1.8931   -0.0459 H   0  0  0  0  0  0  0  0  0  0  0  0
   -0.8664   -0.7977    1.3217 H   0  0  0  0  0  0  0  0  0  0  0  0
  1  2  1  0
  2  3  2  0
  2  4  1  0
  4  5  1  0
  5  6  1  0
  6  7  1  0
  7  8  2  0
  7  9  1  0
  9  4  1  0
  1 10  1  0
  1 11  1  0
  1 12  1  0
  4 13  1  0
  5 14  1  0
  5 15  1  0
  9 16  1  0
  9 17  1  0
M  END
