
     RDKit          3D

 21 21  0  0  0  0  0  0  0  0999 V2000
    3.6059   -0.3378   -0.4643 C   0  0  0  0  0  0  0  0  0  0  0  0
    2.3731    0.3115    0.0531 C   0  0  0  0  0  0  0  0  0  0  0  0
    2.4463    1.4559    0.5590 O   0  0  0  0  0  0  0  0  0  0  0  0
    1.1205   -0.2928    0.0052 O   0  0  0  0  0  0  0  0  0  0  0  0
   -0.0461    0.3314    0.4992 C   0  0  0  0  0  0  0  0  0  0  0  0
   -0.9635   -0.5667    1.2791 C   0  0  0  0  0  0  0  0  0  0  0  0
   -1.3837    0.0087   -0.0254 C   0  0  0  0  0  0  0  0  0  0  0  0
   -2.4172    1.1161    0.0085 C   0  0  0  0  0  0  0  0  0  0  0  0
   -1.5704   -0.9462   -1.1832 C   0  0  0  0  0  0  0  0  0  0  0  0
    4.2836    0.3971   -0.9677 H   0  0  0  0  0  0  0  0  0  0  0  0
    3.4017   -1.1650   -1.1529 H   0  0  0  0  0  0  0  0  0  0  0  0
    4.1880   -0.7277    0.4083 H   0  0  0  0  0  0  0  0  0  0  0  0
    0.1092    1.3468    0.9318 H   0  0  0  0  0  0  0  0  0  0  0  0
   -0.7104   -1.6474    1.3770 H   0  0  0  0  0  0  0  0  0  0  0  0
   -1.4754   -0.1753    2.1859 H   0  0  0  0  0  0  0  0  0  0  0  0
   -2.6967    1.3899   -1.0446 H   0  0  0  0  0  0  0  0  0  0  0  0
   -3.3011    0.8495    0.6119 H   0  0  0  0  0  0  0  0  0  0  0  0
   -1.9791    2.0214    0.4656 H   0  0  0  0  0  0  0  0  0  0  0  0
   -2.5277   -1.4772   -1.0035 H   0  0  0  0  0  0  0  0  0  0  0  0
   -1.7418   -0.2957   -2.0877 H   0  0  0  0  0  0  0  0  0  0  0  0
   -0.7155   -1.5965   -1.3559 H   0  0  0  0  0  0  0  0  0  0  0  0
  1  2  1  0
  2  3  2  0
  2  4  1  0
  4  5  1  0
  5  6  1  0
  6  7  1  0
  7  8  1  0
  7  9  1  0
  7  5  1  0
  1 10  1  0
  1 11  1  0
  1 12  1  0
  5 13  1  0
  6 14  1  0
  6 15  1  0
  8 16  1  0
  8 17  1  0
  8 18  1  0
  9 19  1  0
  9 20  1  0
  9 21  1  0
M  END
