
     RDKit          3D

 21 20  0  0  0  0  0  0  0  0999 V2000
    2.1856    1.1429    0.0490 C   0  0  0  0  0  0  0  0  0  0  0  0
    1.1808    0.1627    0.5382 C   0  0  0  0  0  0  0  0  0  0  0  0
    1.2840   -0.1801    1.7078 O   0  0  0  0  0  0  0  0  0  0  0  0
    0.1498   -0.3276   -0.3776 C   0  0  0  0  0  0  0  0  0  0  0  0
    0.4164   -1.8252   -0.5752 C   0  0  0  0  0  0  0  0  0  0  0  0
    0.3103    0.2555   -1.6298 O   0  0  0  0  0  0  0  0  0  0  0  0
   -1.2535   -0.1498    0.1059 C   0  0  0  0  0  0  0  0  0  0  0  0
   -1.7390    1.2579    0.0945 C   0  0  0  0  0  0  0  0  0  0  0  0
   -1.4440   -0.7249    1.3612 O   0  0  0  0  0  0  0  0  0  0  0  0
    3.1346    1.0693    0.6412 H   0  0  0  0  0  0  0  0  0  0  0  0
    1.8239    2.1904    0.0990 H   0  0  0  0  0  0  0  0  0  0  0  0
    2.4914    0.9329   -1.0078 H   0  0  0  0  0  0  0  0  0  0  0  0
    0.0799   -2.3443    0.3306 H   0  0  0  0  0  0  0  0  0  0  0  0
    1.4970   -1.9532   -0.7704 H   0  0  0  0  0  0  0  0  0  0  0  0
   -0.1230   -2.1884   -1.4697 H   0  0  0  0  0  0  0  0  0  0  0  0
   -0.0351   -0.3906   -2.3024 H   0  0  0  0  0  0  0  0  0  0  0  0
   -1.9134   -0.7312   -0.6035 H   0  0  0  0  0  0  0  0  0  0  0  0
   -1.5872    1.7730    1.0664 H   0  0  0  0  0  0  0  0  0  0  0  0
   -2.8347    1.2611   -0.0840 H   0  0  0  0  0  0  0  0  0  0  0  0
   -1.2504    1.8345   -0.7291 H   0  0  0  0  0  0  0  0  0  0  0  0
   -2.3733   -1.0648    1.4174 H   0  0  0  0  0  0  0  0  0  0  0  0
  1  2  1  0
  2  3  2  0
  2  4  1  0
  4  5  1  0
  4  6  1  0
  4  7  1  0
  7  8  1  0
  7  9  1  0
  1 10  1  0
  1 11  1  0
  1 12  1  0
  5 13  1  0
  5 14  1  0
  5 15  1  0
  6 16  1  0
  7 17  1  0
  8 18  1  0
  8 19  1  0
  8 20  1  0
  9 21  1  0
M  END
