
     RDKit          3D

 21 21  0  0  0  0  0  0  0  0999 V2000
    3.1026    0.0740   -0.4792 C   0  0  0  0  0  0  0  0  0  0  0  0
    1.6204   -0.0418   -0.4660 C   0  0  0  0  0  0  0  0  0  0  0  0
    1.0842   -0.2944   -1.5273 O   0  0  0  0  0  0  0  0  0  0  0  0
    0.8653    0.1408    0.7632 C   0  0  0  0  0  0  0  0  0  0  0  0
   -0.5938   -0.0007    0.6926 C   0  0  0  0  0  0  0  0  0  0  0  0
   -1.3018    0.9427   -0.2308 C   0  0  0  0  0  0  0  0  0  0  0  0
   -2.6527    0.2510   -0.2671 C   0  0  0  0  0  0  0  0  0  0  0  0
   -2.4685   -1.0770    0.0009 O   0  0  0  0  0  0  0  0  0  0  0  0
   -1.1137   -1.3183    0.1843 C   0  0  0  0  0  0  0  0  0  0  0  0
    3.6036   -0.9073   -0.3029 H   0  0  0  0  0  0  0  0  0  0  0  0
    3.4682    0.4466   -1.4627 H   0  0  0  0  0  0  0  0  0  0  0  0
    3.4394    0.7511    0.3354 H   0  0  0  0  0  0  0  0  0  0  0  0
    1.2399   -0.5580    1.5568 H   0  0  0  0  0  0  0  0  0  0  0  0
    1.0920    1.1574    1.1595 H   0  0  0  0  0  0  0  0  0  0  0  0
   -1.0356    0.1444    1.6989 H   0  0  0  0  0  0  0  0  0  0  0  0
   -0.9121    0.8963   -1.2803 H   0  0  0  0  0  0  0  0  0  0  0  0
   -1.3623    1.9791    0.1402 H   0  0  0  0  0  0  0  0  0  0  0  0
   -3.1907    0.4582   -1.2099 H   0  0  0  0  0  0  0  0  0  0  0  0
   -3.2585    0.6773    0.5860 H   0  0  0  0  0  0  0  0  0  0  0  0
   -0.7016   -1.5939   -0.8065 H   0  0  0  0  0  0  0  0  0  0  0  0
   -0.9242   -2.1275    0.9149 H   0  0  0  0  0  0  0  0  0  0  0  0
  1  2  1  0
  2  3  2  0
  2  4  1  0
  4  5  1  0
  5  6  1  0
  6  7  1  0
  7  8  1  0
  8  9  1  0
  9  5  1  0
  1 10  1  0
  1 11  1  0
  1 12  1  0
  4 13  1  0
  4 14  1  0
  5 15  1  0
  6 16  1  0
  6 17  1  0
  7 18  1  0
  7 19  1  0
  9 20  1  0
  9 21  1  0
M  END
