
     RDKit          3D

 17 18  0  0  0  0  0  0  0  0999 V2000
    2.3067   -0.2344   -0.3288 C   0  0  0  0  0  0  0  0  0  0  0  0
    1.2022    0.4643    0.4199 C   0  0  0  0  0  0  0  0  0  0  0  0
    1.6209    1.2850    1.2533 O   0  0  0  0  0  0  0  0  0  0  0  0
   -0.1081    0.2438    0.2283 C   0  0  0  0  0  0  0  0  0  0  0  0
   -0.8358   -1.0800    0.4071 C   0  0  0  0  0  0  0  0  0  0  0  0
   -1.9046   -0.0910    0.0133 C   0  0  0  0  0  0  0  0  0  0  0  0
   -0.9254    0.4146   -1.0094 C   0  0  0  0  0  0  0  0  0  0  0  0
   -1.2467    0.8324    0.9605 C   0  0  0  0  0  0  0  0  0  0  0  0
   -1.5452    1.6186    1.8376 O   0  0  0  0  0  0  0  0  0  0  0  0
    2.8405   -0.9462    0.3486 H   0  0  0  0  0  0  0  0  0  0  0  0
    1.8937   -0.7583   -1.2287 H   0  0  0  0  0  0  0  0  0  0  0  0
    2.9770    0.5760   -0.6847 H   0  0  0  0  0  0  0  0  0  0  0  0
   -0.5778   -1.8083   -0.3561 H   0  0  0  0  0  0  0  0  0  0  0  0
   -0.9614   -1.4162    1.4417 H   0  0  0  0  0  0  0  0  0  0  0  0
   -2.8810   -0.2668   -0.1036 H   0  0  0  0  0  0  0  0  0  0  0  0
   -0.7186   -0.2640   -1.8511 H   0  0  0  0  0  0  0  0  0  0  0  0
   -1.1367    1.4305   -1.3479 H   0  0  0  0  0  0  0  0  0  0  0  0
  1  2  1  0
  2  3  2  0
  2  4  1  0
  4  5  1  0
  5  6  1  0
  6  7  1  0
  6  8  1  0
  8  9  2  0
  7  4  1  0
  8  4  1  0
  1 10  1  0
  1 11  1  0
  1 12  1  0
  5 13  1  0
  5 14  1  0
  6 15  1  0
  7 16  1  0
  7 17  1  0
M  END
