
     RDKit          3D

 13 12  0  0  0  0  0  0  0  0999 V2000
    2.2450    0.0815    0.2262 C   0  0  0  0  0  0  0  0  0  0  0  0
    0.7693   -0.0811    0.3047 C   0  0  0  0  0  0  0  0  0  0  0  0
    0.2287    0.2410    1.4013 O   0  0  0  0  0  0  0  0  0  0  0  0
    0.0055   -0.5542   -0.7429 O   0  0  0  0  0  0  0  0  0  0  0  0
   -1.3904   -0.6668   -0.5535 C   0  0  0  0  0  0  0  0  0  0  0  0
   -1.9486    0.6566   -0.2424 C   0  0  0  0  0  0  0  0  0  0  0  0
   -3.1392    0.8145   -0.0372 O   0  0  0  0  0  0  0  0  0  0  0  0
    2.6034    0.2300   -0.8078 H   0  0  0  0  0  0  0  0  0  0  0  0
    2.5241    0.9835    0.8041 H   0  0  0  0  0  0  0  0  0  0  0  0
    2.7913   -0.7759    0.6670 H   0  0  0  0  0  0  0  0  0  0  0  0
   -1.5248   -1.3024    0.3601 H   0  0  0  0  0  0  0  0  0  0  0  0
   -1.8778   -1.1356   -1.4420 H   0  0  0  0  0  0  0  0  0  0  0  0
   -1.2865    1.5088   -0.1949 H   0  0  0  0  0  0  0  0  0  0  0  0
  1  2  1  0
  2  3  2  0
  2  4  1  0
  4  5  1  0
  5  6  1  0
  6  7  2  0
  1  8  1  0
  1  9  1  0
  1 10  1  0
  5 11  1  0
  5 12  1  0
  6 13  1  0
M  END
