
     RDKit          3D

 19 20  0  0  0  0  0  0  0  0999 V2000
    3.1993    0.3481    0.5867 C   0  0  0  0  0  0  0  0  0  0  0  0
    1.7912    0.5538    0.1710 C   0  0  0  0  0  0  0  0  0  0  0  0
    1.4912    1.6375   -0.4303 O   0  0  0  0  0  0  0  0  0  0  0  0
    0.7912   -0.3431    0.3901 O   0  0  0  0  0  0  0  0  0  0  0  0
   -0.4387   -0.2876    0.0882 C   0  0  0  0  0  0  0  0  0  0  0  0
   -1.0777   -0.1590   -1.2671 C   0  0  0  0  0  0  0  0  0  0  0  0
   -2.2506   -0.2140   -0.3269 C   0  0  0  0  0  0  0  0  0  0  0  0
   -1.4660    0.7201    0.5522 C   0  0  0  0  0  0  0  0  0  0  0  0
   -1.5001   -1.3266    0.3577 C   0  0  0  0  0  0  0  0  0  0  0  0
    3.2967   -0.2012    1.5365 H   0  0  0  0  0  0  0  0  0  0  0  0
    3.7624   -0.2308   -0.1795 H   0  0  0  0  0  0  0  0  0  0  0  0
    3.6548    1.3586    0.7611 H   0  0  0  0  0  0  0  0  0  0  0  0
   -0.9830   -1.0875   -1.8743 H   0  0  0  0  0  0  0  0  0  0  0  0
   -0.9183    0.7747   -1.8092 H   0  0  0  0  0  0  0  0  0  0  0  0
   -3.2211   -0.1797   -0.5515 H   0  0  0  0  0  0  0  0  0  0  0  0
   -1.3387    1.7419    0.1969 H   0  0  0  0  0  0  0  0  0  0  0  0
   -1.6744    0.5775    1.6291 H   0  0  0  0  0  0  0  0  0  0  0  0
   -1.7852   -1.4624    1.4076 H   0  0  0  0  0  0  0  0  0  0  0  0
   -1.3327   -2.2202   -0.2507 H   0  0  0  0  0  0  0  0  0  0  0  0
  1  2  1  0
  2  3  2  0
  2  4  1  0
  4  5  1  0
  5  6  1  0
  6  7  1  0
  7  8  1  0
  7  9  1  0
  8  5  1  0
  9  5  1  0
  1 10  1  0
  1 11  1  0
  1 12  1  0
  6 13  1  0
  6 14  1  0
  7 15  1  0
  8 16  1  0
  8 17  1  0
  9 18  1  0
  9 19  1  0
M  END
