
     RDKit          3D

 18 19  0  0  0  0  0  0  0  0999 V2000
    2.4094   -0.0020   -0.0845 C   0  0  0  0  0  0  0  0  0  0  0  0
    1.1482   -0.7592    0.1889 C   0  0  0  0  0  0  0  0  0  0  0  0
    1.3333   -1.9324    0.5546 O   0  0  0  0  0  0  0  0  0  0  0  0
   -0.0810   -0.2331    0.0558 C   0  0  0  0  0  0  0  0  0  0  0  0
   -1.3996   -0.9145    0.3068 C   0  0  0  0  0  0  0  0  0  0  0  0
   -1.7825    0.4958   -0.0707 C   0  0  0  0  0  0  0  0  0  0  0  0
   -0.7308    0.3614   -1.1502 C   0  0  0  0  0  0  0  0  0  0  0  0
   -0.6688    0.9298    0.8301 C   0  0  0  0  0  0  0  0  0  0  0  0
    3.2746   -0.4112    0.4455 H   0  0  0  0  0  0  0  0  0  0  0  0
    2.3080    1.0596    0.2374 H   0  0  0  0  0  0  0  0  0  0  0  0
    2.6453   -0.0603   -1.1736 H   0  0  0  0  0  0  0  0  0  0  0  0
   -1.6935   -1.6711   -0.4493 H   0  0  0  0  0  0  0  0  0  0  0  0
   -1.6105   -1.1618    1.3500 H   0  0  0  0  0  0  0  0  0  0  0  0
   -2.6998    0.8727   -0.1657 H   0  0  0  0  0  0  0  0  0  0  0  0
   -1.0308   -0.4167   -1.8637 H   0  0  0  0  0  0  0  0  0  0  0  0
   -0.3232    1.2937   -1.5445 H   0  0  0  0  0  0  0  0  0  0  0  0
   -0.2280    1.9074    0.6503 H   0  0  0  0  0  0  0  0  0  0  0  0
   -0.8704    0.6420    1.8826 H   0  0  0  0  0  0  0  0  0  0  0  0
  1  2  1  0
  2  3  2  0
  2  4  1  0
  4  5  1  0
  5  6  1  0
  6  7  1  0
  6  8  1  0
  7  4  1  0
  8  4  1  0
  1  9  1  0
  1 10  1  0
  1 11  1  0
  5 12  1  0
  5 13  1  0
  6 14  1  0
  7 15  1  0
  7 16  1  0
  8 17  1  0
  8 18  1  0
M  END
