
     RDKit          3D

 18 18  0  0  0  0  0  0  0  0999 V2000
    2.4119    0.8066   -0.2590 C   0  0  0  0  0  0  0  0  0  0  0  0
    1.0282    0.3926   -0.5476 C   0  0  0  0  0  0  0  0  0  0  0  0
    0.5149    0.7258   -1.5970 O   0  0  0  0  0  0  0  0  0  0  0  0
    0.2134   -0.4201    0.3836 C   0  0  0  0  0  0  0  0  0  0  0  0
    0.8910   -0.7562    1.5680 O   0  0  0  0  0  0  0  0  0  0  0  0
   -0.6792   -1.4803   -0.1499 C   0  0  0  0  0  0  0  0  0  0  0  0
   -1.2523   -0.2216    0.4805 C   0  0  0  0  0  0  0  0  0  0  0  0
   -1.9763    0.7151   -0.4542 C   0  0  0  0  0  0  0  0  0  0  0  0
    3.1320    0.5195   -1.0593 H   0  0  0  0  0  0  0  0  0  0  0  0
    2.7469    0.2384    0.6549 H   0  0  0  0  0  0  0  0  0  0  0  0
    2.5049    1.8781    0.0098 H   0  0  0  0  0  0  0  0  0  0  0  0
    0.2892   -0.9002    2.3235 H   0  0  0  0  0  0  0  0  0  0  0  0
   -0.7993   -2.4235    0.4499 H   0  0  0  0  0  0  0  0  0  0  0  0
   -0.8087   -1.6159   -1.2462 H   0  0  0  0  0  0  0  0  0  0  0  0
   -1.6986   -0.3424    1.4864 H   0  0  0  0  0  0  0  0  0  0  0  0
   -3.0204    0.8330   -0.0959 H   0  0  0  0  0  0  0  0  0  0  0  0
   -1.9674    0.3170   -1.4876 H   0  0  0  0  0  0  0  0  0  0  0  0
   -1.5302    1.7341   -0.4600 H   0  0  0  0  0  0  0  0  0  0  0  0
  1  2  1  0
  2  3  2  0
  2  4  1  0
  4  5  1  0
  4  6  1  0
  6  7  1  0
  7  8  1  0
  7  4  1  0
  1  9  1  0
  1 10  1  0
  1 11  1  0
  5 12  1  0
  6 13  1  0
  6 14  1  0
  7 15  1  0
  8 16  1  0
  8 17  1  0
  8 18  1  0
M  END
