
     RDKit          3D

 21 20  0  0  0  0  0  0  0  0999 V2000
    2.6633   -0.8844   -0.4140 C   0  0  0  0  0  0  0  0  0  0  0  0
    1.5079   -0.0315   -0.7819 C   0  0  0  0  0  0  0  0  0  0  0  0
    1.5021    0.5857   -1.8307 O   0  0  0  0  0  0  0  0  0  0  0  0
    0.3156    0.1137    0.0941 C   0  0  0  0  0  0  0  0  0  0  0  0
    0.1388    1.5714    0.3847 C   0  0  0  0  0  0  0  0  0  0  0  0
    0.5124   -0.6589    1.2285 O   0  0  0  0  0  0  0  0  0  0  0  0
   -0.8746   -0.4024   -0.7140 C   0  0  0  0  0  0  0  0  0  0  0  0
   -2.1517   -0.3008    0.0873 C   0  0  0  0  0  0  0  0  0  0  0  0
   -3.1773   -0.7911   -0.7253 O   0  0  0  0  0  0  0  0  0  0  0  0
    3.3326   -0.3787    0.3086 H   0  0  0  0  0  0  0  0  0  0  0  0
    3.2428   -1.1565   -1.3276 H   0  0  0  0  0  0  0  0  0  0  0  0
    2.2972   -1.8637   -0.0060 H   0  0  0  0  0  0  0  0  0  0  0  0
    1.1139    2.1317    0.3730 H   0  0  0  0  0  0  0  0  0  0  0  0
   -0.4459    2.0253   -0.4610 H   0  0  0  0  0  0  0  0  0  0  0  0
   -0.4294    1.7891    1.2969 H   0  0  0  0  0  0  0  0  0  0  0  0
    0.1014   -0.2789    2.0412 H   0  0  0  0  0  0  0  0  0  0  0  0
   -0.9729    0.2088   -1.6233 H   0  0  0  0  0  0  0  0  0  0  0  0
   -0.7341   -1.4488   -1.0154 H   0  0  0  0  0  0  0  0  0  0  0  0
   -2.3760    0.7675    0.3456 H   0  0  0  0  0  0  0  0  0  0  0  0
   -2.0779   -0.8688    1.0263 H   0  0  0  0  0  0  0  0  0  0  0  0
   -3.4883   -0.1286   -1.3759 H   0  0  0  0  0  0  0  0  0  0  0  0
  1  2  1  0
  2  3  2  0
  2  4  1  0
  4  5  1  0
  4  6  1  0
  4  7  1  0
  7  8  1  0
  8  9  1  0
  1 10  1  0
  1 11  1  0
  1 12  1  0
  5 13  1  0
  5 14  1  0
  5 15  1  0
  6 16  1  0
  7 17  1  0
  7 18  1  0
  8 19  1  0
  8 20  1  0
  9 21  1  0
M  END
