
     RDKit          3D

 19 20  0  0  0  0  0  0  0  0999 V2000
    2.3198   -0.2246   -0.6559 C   0  0  0  0  0  0  0  0  0  0  0  0
    1.4685    0.1511    0.4941 C   0  0  0  0  0  0  0  0  0  0  0  0
    2.0566    0.6589    1.4617 O   0  0  0  0  0  0  0  0  0  0  0  0
    0.0271   -0.0180    0.5919 C   0  0  0  0  0  0  0  0  0  0  0  0
   -0.6408   -1.3449    0.5025 C   0  0  0  0  0  0  0  0  0  0  0  0
   -1.6354   -0.7450   -0.4780 C   0  0  0  0  0  0  0  0  0  0  0  0
   -0.9693    0.5880   -0.2573 C   0  0  0  0  0  0  0  0  0  0  0  0
   -0.7122    1.3891   -1.3458 O   0  0  0  0  0  0  0  0  0  0  0  0
   -0.7757    1.1115    1.1170 C   0  0  0  0  0  0  0  0  0  0  0  0
    1.7103   -0.4649   -1.5568 H   0  0  0  0  0  0  0  0  0  0  0  0
    2.9806   -1.0795   -0.3630 H   0  0  0  0  0  0  0  0  0  0  0  0
    2.9845    0.6318   -0.9325 H   0  0  0  0  0  0  0  0  0  0  0  0
   -1.1234   -1.5966    1.4819 H   0  0  0  0  0  0  0  0  0  0  0  0
   -0.0311   -2.1662    0.0857 H   0  0  0  0  0  0  0  0  0  0  0  0
   -2.6812   -0.7001   -0.1118 H   0  0  0  0  0  0  0  0  0  0  0  0
   -1.5334   -1.1065   -1.5165 H   0  0  0  0  0  0  0  0  0  0  0  0
   -1.5491    1.9246   -1.5104 H   0  0  0  0  0  0  0  0  0  0  0  0
   -0.3275    2.1317    1.1559 H   0  0  0  0  0  0  0  0  0  0  0  0
   -1.5685    0.8597    1.8373 H   0  0  0  0  0  0  0  0  0  0  0  0
  1  2  1  0
  2  3  2  0
  2  4  1  0
  4  5  1  0
  5  6  1  0
  6  7  1  0
  7  8  1  0
  7  9  1  0
  7  4  1  0
  9  4  1  0
  1 10  1  0
  1 11  1  0
  1 12  1  0
  5 13  1  0
  5 14  1  0
  6 15  1  0
  6 16  1  0
  8 17  1  0
  9 18  1  0
  9 19  1  0
M  END
