
     RDKit          3D

 18 17  0  0  0  0  0  0  0  0999 V2000
    2.2680    0.6734   -0.0209 C   0  0  0  0  0  0  0  0  0  0  0  0
    1.1182    0.1508   -0.7922 C   0  0  0  0  0  0  0  0  0  0  0  0
    0.9578    0.5338   -1.9269 O   0  0  0  0  0  0  0  0  0  0  0  0
    0.2030   -0.8057   -0.1887 C   0  0  0  0  0  0  0  0  0  0  0  0
    0.5341   -1.1420    1.1287 O   0  0  0  0  0  0  0  0  0  0  0  0
   -1.2364   -0.3418   -0.1604 C   0  0  0  0  0  0  0  0  0  0  0  0
   -1.4473    0.8214    0.7763 C   0  0  0  0  0  0  0  0  0  0  0  0
   -1.6719    0.0190   -1.4222 O   0  0  0  0  0  0  0  0  0  0  0  0
    1.8881    0.9483    0.9841 H   0  0  0  0  0  0  0  0  0  0  0  0
    3.0640   -0.1138    0.1205 H   0  0  0  0  0  0  0  0  0  0  0  0
    2.7625    1.5097   -0.5466 H   0  0  0  0  0  0  0  0  0  0  0  0
    0.1870   -1.7922   -0.7403 H   0  0  0  0  0  0  0  0  0  0  0  0
   -0.0742   -1.8879    1.3757 H   0  0  0  0  0  0  0  0  0  0  0  0
   -1.8325   -1.1913    0.2362 H   0  0  0  0  0  0  0  0  0  0  0  0
   -0.6621    1.6129    0.6219 H   0  0  0  0  0  0  0  0  0  0  0  0
   -1.4579    0.5337    1.8403 H   0  0  0  0  0  0  0  0  0  0  0  0
   -2.4551    1.2327    0.5530 H   0  0  0  0  0  0  0  0  0  0  0  0
   -2.1452   -0.7610   -1.8386 H   0  0  0  0  0  0  0  0  0  0  0  0
  1  2  1  0
  2  3  2  0
  2  4  1  0
  4  5  1  0
  4  6  1  0
  6  7  1  0
  6  8  1  0
  1  9  1  0
  1 10  1  0
  1 11  1  0
  4 12  1  0
  5 13  1  0
  6 14  1  0
  7 15  1  0
  7 16  1  0
  7 17  1  0
  8 18  1  0
M  END
