
     RDKit          3D

 21 20  0  0  0  0  0  0  0  0999 V2000
    3.0277   -0.4623   -0.0377 C   0  0  0  0  0  0  0  0  0  0  0  0
    1.5788   -0.8020   -0.1788 C   0  0  0  0  0  0  0  0  0  0  0  0
    1.1502   -1.8966   -0.5580 O   0  0  0  0  0  0  0  0  0  0  0  0
    0.6891    0.1929    0.1430 O   0  0  0  0  0  0  0  0  0  0  0  0
   -0.7060    0.0839    0.0812 C   0  0  0  0  0  0  0  0  0  0  0  0
   -1.1407   -0.2314   -1.3327 C   0  0  0  0  0  0  0  0  0  0  0  0
   -1.2686   -0.9752    0.9830 C   0  0  0  0  0  0  0  0  0  0  0  0
   -1.2645    1.4387    0.5204 C   0  0  0  0  0  0  0  0  0  0  0  0
   -0.8110    2.4517   -0.3337 O   0  0  0  0  0  0  0  0  0  0  0  0
    3.6893   -1.3085   -0.2182 H   0  0  0  0  0  0  0  0  0  0  0  0
    3.1696   -0.0080    0.9762 H   0  0  0  0  0  0  0  0  0  0  0  0
    3.2177    0.3600   -0.7574 H   0  0  0  0  0  0  0  0  0  0  0  0
   -0.6206    0.3843   -2.0916 H   0  0  0  0  0  0  0  0  0  0  0  0
   -2.2357   -0.1487   -1.4308 H   0  0  0  0  0  0  0  0  0  0  0  0
   -0.8862   -1.2933   -1.5339 H   0  0  0  0  0  0  0  0  0  0  0  0
   -0.5435   -1.3463    1.7289 H   0  0  0  0  0  0  0  0  0  0  0  0
   -2.1302   -0.5706    1.5544 H   0  0  0  0  0  0  0  0  0  0  0  0
   -1.6866   -1.8433    0.4041 H   0  0  0  0  0  0  0  0  0  0  0  0
   -2.3736    1.4093    0.5213 H   0  0  0  0  0  0  0  0  0  0  0  0
   -0.8515    1.6538    1.5274 H   0  0  0  0  0  0  0  0  0  0  0  0
   -0.0036    2.9115    0.0328 H   0  0  0  0  0  0  0  0  0  0  0  0
  1  2  1  0
  2  3  2  0
  2  4  1  0
  4  5  1  0
  5  6  1  0
  5  7  1  0
  5  8  1  0
  8  9  1  0
  1 10  1  0
  1 11  1  0
  1 12  1  0
  6 13  1  0
  6 14  1  0
  6 15  1  0
  7 16  1  0
  7 17  1  0
  7 18  1  0
  8 19  1  0
  8 20  1  0
  9 21  1  0
M  END
