
     RDKit          3D

 21 21  0  0  0  0  0  0  0  0999 V2000
    2.6269   -0.7861   -0.4249 C   0  0  0  0  0  0  0  0  0  0  0  0
    1.1765   -0.8925   -0.0999 C   0  0  0  0  0  0  0  0  0  0  0  0
    0.6676   -2.0006   -0.2400 O   0  0  0  0  0  0  0  0  0  0  0  0
    0.4371    0.2757    0.3559 C   0  0  0  0  0  0  0  0  0  0  0  0
    0.3746    1.4564   -0.5640 C   0  0  0  0  0  0  0  0  0  0  0  0
   -0.9302    1.6865   -0.1265 O   0  0  0  0  0  0  0  0  0  0  0  0
   -1.0264    0.3202    0.2238 C   0  0  0  0  0  0  0  0  0  0  0  0
   -1.7215    0.1089    1.5468 C   0  0  0  0  0  0  0  0  0  0  0  0
   -1.6786   -0.4370   -0.8752 C   0  0  0  0  0  0  0  0  0  0  0  0
    3.1037   -0.0063    0.2321 H   0  0  0  0  0  0  0  0  0  0  0  0
    3.1716   -1.7271   -0.2255 H   0  0  0  0  0  0  0  0  0  0  0  0
    2.8056   -0.4445   -1.4598 H   0  0  0  0  0  0  0  0  0  0  0  0
    0.7631    0.6101    1.3743 H   0  0  0  0  0  0  0  0  0  0  0  0
    0.4930    1.2626   -1.6308 H   0  0  0  0  0  0  0  0  0  0  0  0
    1.0989    2.2623   -0.2602 H   0  0  0  0  0  0  0  0  0  0  0  0
   -1.6233   -0.9556    1.8089 H   0  0  0  0  0  0  0  0  0  0  0  0
   -1.1822    0.7188    2.3041 H   0  0  0  0  0  0  0  0  0  0  0  0
   -2.8031    0.3884    1.5008 H   0  0  0  0  0  0  0  0  0  0  0  0
   -1.5637   -1.5172   -0.7413 H   0  0  0  0  0  0  0  0  0  0  0  0
   -1.4010   -0.0849   -1.8954 H   0  0  0  0  0  0  0  0  0  0  0  0
   -2.7887   -0.2380   -0.8033 H   0  0  0  0  0  0  0  0  0  0  0  0
  1  2  1  0
  2  3  2  0
  2  4  1  0
  4  5  1  0
  5  6  1  0
  6  7  1  0
  7  8  1  0
  7  9  1  0
  7  4  1  0
  1 10  1  0
  1 11  1  0
  1 12  1  0
  4 13  1  0
  5 14  1  0
  5 15  1  0
  8 16  1  0
  8 17  1  0
  8 18  1  0
  9 19  1  0
  9 20  1  0
  9 21  1  0
M  END
