
     RDKit          3D

 19 20  0  0  0  0  0  0  0  0999 V2000
    2.5025   -0.5205   -0.5523 C   0  0  0  0  0  0  0  0  0  0  0  0
    1.5026   -0.3424    0.5436 C   0  0  0  0  0  0  0  0  0  0  0  0
    1.8401   -0.7353    1.6436 O   0  0  0  0  0  0  0  0  0  0  0  0
    0.2210    0.2516    0.3327 C   0  0  0  0  0  0  0  0  0  0  0  0
    0.0121    1.5271   -0.4397 C   0  0  0  0  0  0  0  0  0  0  0  0
   -1.4540    1.0937   -0.5590 C   0  0  0  0  0  0  0  0  0  0  0  0
   -1.0736   -0.0827    0.3402 C   0  0  0  0  0  0  0  0  0  0  0  0
   -1.8434   -1.3428    0.2830 C   0  0  0  0  0  0  0  0  0  0  0  0
   -0.5907    0.3165    1.5742 O   0  0  0  0  0  0  0  0  0  0  0  0
    2.4859    0.3265   -1.2694 H   0  0  0  0  0  0  0  0  0  0  0  0
    3.5500   -0.5367   -0.1423 H   0  0  0  0  0  0  0  0  0  0  0  0
    2.3730   -1.4872   -1.0680 H   0  0  0  0  0  0  0  0  0  0  0  0
    0.5662    1.5423   -1.3735 H   0  0  0  0  0  0  0  0  0  0  0  0
    0.1369    2.4007    0.2382 H   0  0  0  0  0  0  0  0  0  0  0  0
   -2.1399    1.7539    0.0268 H   0  0  0  0  0  0  0  0  0  0  0  0
   -1.7730    0.8225   -1.5625 H   0  0  0  0  0  0  0  0  0  0  0  0
   -1.9753   -1.7908    1.2860 H   0  0  0  0  0  0  0  0  0  0  0  0
   -2.8817   -1.0960   -0.0852 H   0  0  0  0  0  0  0  0  0  0  0  0
   -1.4586   -2.1002   -0.4218 H   0  0  0  0  0  0  0  0  0  0  0  0
  1  2  1  0
  2  3  2  0
  2  4  1  0
  4  5  1  0
  5  6  1  0
  6  7  1  0
  7  8  1  0
  7  9  1  0
  7  4  1  0
  9  4  1  0
  1 10  1  0
  1 11  1  0
  1 12  1  0
  5 13  1  0
  5 14  1  0
  6 15  1  0
  6 16  1  0
  8 17  1  0
  8 18  1  0
  8 19  1  0
M  END
