
     RDKit          3D

 16 17  0  0  0  0  0  0  0  0999 V2000
   -2.2374    0.0225    0.1401 C   0  0  0  0  0  0  0  0  0  0  0  0
   -1.0972   -0.3008   -0.7500 C   0  0  0  0  0  0  0  0  0  0  0  0
   -1.3119   -0.9950   -1.7152 O   0  0  0  0  0  0  0  0  0  0  0  0
    0.2566    0.1863   -0.4998 C   0  0  0  0  0  0  0  0  0  0  0  0
    0.5905    1.1973    0.5145 C   0  0  0  0  0  0  0  0  0  0  0  0
    1.0651   -0.2237    0.6670 C   0  0  0  0  0  0  0  0  0  0  0  0
    2.0456   -0.7237   -0.3504 C   0  0  0  0  0  0  0  0  0  0  0  0
    1.2561   -0.1647   -1.3813 O   0  0  0  0  0  0  0  0  0  0  0  0
   -3.0273    0.4750   -0.4936 H   0  0  0  0  0  0  0  0  0  0  0  0
   -1.9781    0.7592    0.9166 H   0  0  0  0  0  0  0  0  0  0  0  0
   -2.6768   -0.8796    0.6227 H   0  0  0  0  0  0  0  0  0  0  0  0
    1.3629    1.9581    0.2039 H   0  0  0  0  0  0  0  0  0  0  0  0
   -0.0921    1.5405    1.2919 H   0  0  0  0  0  0  0  0  0  0  0  0
    0.6843   -0.8678    1.4619 H   0  0  0  0  0  0  0  0  0  0  0  0
    2.1386   -1.8144   -0.4104 H   0  0  0  0  0  0  0  0  0  0  0  0
    3.0209   -0.1693   -0.2178 H   0  0  0  0  0  0  0  0  0  0  0  0
  1  2  1  0
  2  3  2  0
  2  4  1  0
  4  5  1  0
  5  6  1  0
  6  7  1  0
  7  8  1  0
  6  4  1  0
  8  4  1  0
  1  9  1  0
  1 10  1  0
  1 11  1  0
  5 12  1  0
  5 13  1  0
  6 14  1  0
  7 15  1  0
  7 16  1  0
M  END
