
     RDKit          3D

 21 21  0  0  0  0  0  0  0  0999 V2000
   -2.5157    0.5553    0.6735 C   0  0  0  0  0  0  0  0  0  0  0  0
   -1.7379   -0.6614    0.3221 C   0  0  0  0  0  0  0  0  0  0  0  0
   -1.8807   -1.6182    1.0608 O   0  0  0  0  0  0  0  0  0  0  0  0
   -0.8383   -0.7821   -0.8194 C   0  0  0  0  0  0  0  0  0  0  0  0
   -0.2861   -2.0545   -0.8360 O   0  0  0  0  0  0  0  0  0  0  0  0
    0.2288    0.2761   -0.8862 C   0  0  0  0  0  0  0  0  0  0  0  0
    1.1024    0.2352    0.3427 C   0  0  0  0  0  0  0  0  0  0  0  0
    2.2042    1.2738    0.3504 C   0  0  0  0  0  0  0  0  0  0  0  0
    2.5160   -0.1730    0.2671 C   0  0  0  0  0  0  0  0  0  0  0  0
   -2.0700    1.1523    1.4677 H   0  0  0  0  0  0  0  0  0  0  0  0
   -3.5335    0.2134    0.9614 H   0  0  0  0  0  0  0  0  0  0  0  0
   -2.6561    1.1221   -0.2839 H   0  0  0  0  0  0  0  0  0  0  0  0
   -1.4783   -0.7249   -1.7483 H   0  0  0  0  0  0  0  0  0  0  0  0
   -1.0536   -2.6904   -0.6913 H   0  0  0  0  0  0  0  0  0  0  0  0
    0.8831    0.0144   -1.7617 H   0  0  0  0  0  0  0  0  0  0  0  0
   -0.1504    1.2823   -1.0280 H   0  0  0  0  0  0  0  0  0  0  0  0
    0.5596    0.0591    1.3157 H   0  0  0  0  0  0  0  0  0  0  0  0
    2.3782    1.8905   -0.5551 H   0  0  0  0  0  0  0  0  0  0  0  0
    2.4129    1.8289    1.2960 H   0  0  0  0  0  0  0  0  0  0  0  0
    2.9648   -0.5803   -0.6481 H   0  0  0  0  0  0  0  0  0  0  0  0
    2.9507   -0.6186    1.1956 H   0  0  0  0  0  0  0  0  0  0  0  0
  1  2  1  0
  2  3  2  0
  2  4  1  0
  4  5  1  0
  4  6  1  0
  6  7  1  0
  7  8  1  0
  8  9  1  0
  9  7  1  0
  1 10  1  0
  1 11  1  0
  1 12  1  0
  4 13  1  0
  5 14  1  0
  6 15  1  0
  6 16  1  0
  7 17  1  0
  8 18  1  0
  8 19  1  0
  9 20  1  0
  9 21  1  0
M  END
