
     RDKit          3D

 18 17  0  0  0  0  0  0  0  0999 V2000
   -2.7226    0.3969    0.4244 C   0  0  0  0  0  0  0  0  0  0  0  0
   -1.9071   -0.7383   -0.0623 C   0  0  0  0  0  0  0  0  0  0  0  0
   -2.3766   -1.4997   -0.8737 O   0  0  0  0  0  0  0  0  0  0  0  0
   -0.5364   -0.9441    0.4300 C   0  0  0  0  0  0  0  0  0  0  0  0
    0.4372    0.0152   -0.2328 C   0  0  0  0  0  0  0  0  0  0  0  0
    1.8276   -0.1678    0.2213 C   0  0  0  0  0  0  0  0  0  0  0  0
    2.8737    0.7478   -0.2791 C   0  0  0  0  0  0  0  0  0  0  0  0
    2.1291   -1.0494    0.9940 O   0  0  0  0  0  0  0  0  0  0  0  0
   -2.2899    1.3728    0.0899 H   0  0  0  0  0  0  0  0  0  0  0  0
   -2.8196    0.3074    1.5108 H   0  0  0  0  0  0  0  0  0  0  0  0
   -3.7700    0.3353   -0.0007 H   0  0  0  0  0  0  0  0  0  0  0  0
   -0.1556   -1.9724    0.2197 H   0  0  0  0  0  0  0  0  0  0  0  0
   -0.5293   -0.8027    1.5213 H   0  0  0  0  0  0  0  0  0  0  0  0
    0.0712    1.0494    0.0525 H   0  0  0  0  0  0  0  0  0  0  0  0
    0.4420   -0.1285   -1.3346 H   0  0  0  0  0  0  0  0  0  0  0  0
    3.0352    0.6090   -1.3651 H   0  0  0  0  0  0  0  0  0  0  0  0
    3.8374    0.6805    0.2813 H   0  0  0  0  0  0  0  0  0  0  0  0
    2.4536    1.7886   -0.1357 H   0  0  0  0  0  0  0  0  0  0  0  0
  1  2  1  0
  2  3  2  0
  2  4  1  0
  4  5  1  0
  5  6  1  0
  6  7  1  0
  6  8  2  0
  1  9  1  0
  1 10  1  0
  1 11  1  0
  4 12  1  0
  4 13  1  0
  5 14  1  0
  5 15  1  0
  7 16  1  0
  7 17  1  0
  7 18  1  0
M  END
