
     RDKit          3D

 17 18  0  0  0  0  0  0  0  0999 V2000
    2.4828   -0.4093    0.0075 C   0  0  0  0  0  0  0  0  0  0  0  0
    1.1212   -0.7557    0.4804 C   0  0  0  0  0  0  0  0  0  0  0  0
    0.9162   -1.9018    0.8549 O   0  0  0  0  0  0  0  0  0  0  0  0
    0.0408    0.2341    0.5051 C   0  0  0  0  0  0  0  0  0  0  0  0
   -1.2171   -0.3500    1.0151 C   0  0  0  0  0  0  0  0  0  0  0  0
   -2.2388   -0.0639    0.2214 C   0  0  0  0  0  0  0  0  0  0  0  0
   -1.8422    0.7467   -0.9340 C   0  0  0  0  0  0  0  0  0  0  0  0
   -1.1302    1.9137   -0.7965 O   0  0  0  0  0  0  0  0  0  0  0  0
   -0.3207    0.7897   -0.8391 C   0  0  0  0  0  0  0  0  0  0  0  0
    2.6697   -0.9771   -0.9212 H   0  0  0  0  0  0  0  0  0  0  0  0
    3.2767   -0.6936    0.7497 H   0  0  0  0  0  0  0  0  0  0  0  0
    2.5753    0.6668   -0.2173 H   0  0  0  0  0  0  0  0  0  0  0  0
    0.3012    1.0965    1.1854 H   0  0  0  0  0  0  0  0  0  0  0  0
   -1.2512   -0.9425    1.9446 H   0  0  0  0  0  0  0  0  0  0  0  0
   -3.2525   -0.4009    0.4200 H   0  0  0  0  0  0  0  0  0  0  0  0
   -2.3065    0.5763   -1.9227 H   0  0  0  0  0  0  0  0  0  0  0  0
    0.1754    0.4711   -1.7534 H   0  0  0  0  0  0  0  0  0  0  0  0
  1  2  1  0
  2  3  2  0
  2  4  1  0
  4  5  1  0
  5  6  2  0
  6  7  1  0
  7  8  1  0
  8  9  1  0
  9  4  1  0
  9  7  1  0
  1 10  1  0
  1 11  1  0
  1 12  1  0
  4 13  1  0
  5 14  1  0
  6 15  1  0
  7 16  1  0
  9 17  1  0
M  END
