
     RDKit          3D

 19 20  0  0  0  0  0  0  0  0999 V2000
    2.7070   -0.3071    0.0541 C   0  0  0  0  0  0  0  0  0  0  0  0
    1.5536    0.2915    0.7952 C   0  0  0  0  0  0  0  0  0  0  0  0
    1.6339    0.4539    2.0092 O   0  0  0  0  0  0  0  0  0  0  0  0
    0.3057    0.6928    0.0683 C   0  0  0  0  0  0  0  0  0  0  0  0
   -0.6226    1.2158    0.9198 O   0  0  0  0  0  0  0  0  0  0  0  0
   -1.8822    1.0280    0.3912 C   0  0  0  0  0  0  0  0  0  0  0  0
   -1.7831   -0.0450   -0.6633 C   0  0  0  0  0  0  0  0  0  0  0  0
   -1.3093   -1.3466   -0.1641 C   0  0  0  0  0  0  0  0  0  0  0  0
   -0.2960   -0.4261   -0.7041 C   0  0  0  0  0  0  0  0  0  0  0  0
    2.3508   -1.2079   -0.4770 H   0  0  0  0  0  0  0  0  0  0  0  0
    3.5349   -0.4990    0.7533 H   0  0  0  0  0  0  0  0  0  0  0  0
    3.1086    0.4571   -0.6763 H   0  0  0  0  0  0  0  0  0  0  0  0
    0.6027    1.4885   -0.6686 H   0  0  0  0  0  0  0  0  0  0  0  0
   -2.5172    0.5924    1.1995 H   0  0  0  0  0  0  0  0  0  0  0  0
   -2.3768    1.9401    0.0424 H   0  0  0  0  0  0  0  0  0  0  0  0
   -2.2454    0.0981   -1.6460 H   0  0  0  0  0  0  0  0  0  0  0  0
   -1.5411   -2.2317   -0.7690 H   0  0  0  0  0  0  0  0  0  0  0  0
   -1.3843   -1.5572    0.9372 H   0  0  0  0  0  0  0  0  0  0  0  0
    0.1609   -0.6376   -1.6863 H   0  0  0  0  0  0  0  0  0  0  0  0
  1  2  1  0
  2  3  2  0
  2  4  1  0
  4  5  1  0
  5  6  1  0
  6  7  1  0
  7  8  1  0
  8  9  1  0
  9  4  1  0
  9  7  1  0
  1 10  1  0
  1 11  1  0
  1 12  1  0
  4 13  1  0
  6 14  1  0
  6 15  1  0
  7 16  1  0
  8 17  1  0
  8 18  1  0
  9 19  1  0
M  END
