
     RDKit          3D

 17 17  0  0  0  0  0  0  0  0999 V2000
    2.6225   -0.1835    0.2586 C   0  0  0  0  0  0  0  0  0  0  0  0
    1.1780    0.1125    0.5686 C   0  0  0  0  0  0  0  0  0  0  0  0
    0.9409    0.5343    1.6844 O   0  0  0  0  0  0  0  0  0  0  0  0
    0.1851   -0.1228   -0.4770 C   0  0  0  0  0  0  0  0  0  0  0  0
   -0.6911    1.1295   -0.7068 C   0  0  0  0  0  0  0  0  0  0  0  0
   -1.2408   -0.2359   -0.2877 C   0  0  0  0  0  0  0  0  0  0  0  0
   -1.9612   -0.8235   -1.3605 O   0  0  0  0  0  0  0  0  0  0  0  0
   -1.9391   -0.3229    0.9957 C   0  0  0  0  0  0  0  0  0  0  0  0
   -2.8993   -1.0570    1.1188 O   0  0  0  0  0  0  0  0  0  0  0  0
    2.7584   -0.5203   -0.8021 H   0  0  0  0  0  0  0  0  0  0  0  0
    3.0494   -0.9726    0.9111 H   0  0  0  0  0  0  0  0  0  0  0  0
    3.2329    0.7699    0.3204 H   0  0  0  0  0  0  0  0  0  0  0  0
    0.6276   -0.5588   -1.4286 H   0  0  0  0  0  0  0  0  0  0  0  0
   -0.7753    1.4666   -1.7400 H   0  0  0  0  0  0  0  0  0  0  0  0
   -0.7322    1.8821    0.1112 H   0  0  0  0  0  0  0  0  0  0  0  0
   -2.7197   -1.3519   -1.0430 H   0  0  0  0  0  0  0  0  0  0  0  0
   -1.6362    0.2540    1.8771 H   0  0  0  0  0  0  0  0  0  0  0  0
  1  2  1  0
  2  3  2  0
  2  4  1  0
  4  5  1  0
  5  6  1  0
  6  7  1  0
  6  8  1  0
  8  9  2  0
  6  4  1  0
  1 10  1  0
  1 11  1  0
  1 12  1  0
  4 13  1  0
  5 14  1  0
  5 15  1  0
  7 16  1  0
  8 17  1  0
M  END
