
     RDKit          3D

 19 20  0  0  0  0  0  0  0  0999 V2000
    3.1344   -0.0410   -0.0599 C   0  0  0  0  0  0  0  0  0  0  0  0
    1.7052   -0.1314   -0.4607 C   0  0  0  0  0  0  0  0  0  0  0  0
    1.4849   -0.4625   -1.6200 O   0  0  0  0  0  0  0  0  0  0  0  0
    0.5649    0.1576    0.4688 C   0  0  0  0  0  0  0  0  0  0  0  0
   -0.5646    0.8755    0.0410 C   0  0  0  0  0  0  0  0  0  0  0  0
   -1.9287    1.1042    0.4320 C   0  0  0  0  0  0  0  0  0  0  0  0
   -2.6316    0.0494    0.0266 C   0  0  0  0  0  0  0  0  0  0  0  0
   -1.6384   -0.8976   -0.6547 C   0  0  0  0  0  0  0  0  0  0  0  0
   -0.5619   -0.6537    0.3720 C   0  0  0  0  0  0  0  0  0  0  0  0
    3.6467    0.8145   -0.5613 H   0  0  0  0  0  0  0  0  0  0  0  0
    3.1236    0.1252    1.0572 H   0  0  0  0  0  0  0  0  0  0  0  0
    3.6765   -1.0004   -0.2022 H   0  0  0  0  0  0  0  0  0  0  0  0
    0.9705    0.4432    1.4877 H   0  0  0  0  0  0  0  0  0  0  0  0
   -0.4905    1.1430   -1.0686 H   0  0  0  0  0  0  0  0  0  0  0  0
   -2.3601    1.9712    0.9669 H   0  0  0  0  0  0  0  0  0  0  0  0
   -3.6796   -0.1817    0.1125 H   0  0  0  0  0  0  0  0  0  0  0  0
   -2.0191   -1.9153   -0.6825 H   0  0  0  0  0  0  0  0  0  0  0  0
   -1.4229   -0.4436   -1.6243 H   0  0  0  0  0  0  0  0  0  0  0  0
   -1.0092   -0.9567    1.3711 H   0  0  0  0  0  0  0  0  0  0  0  0
  1  2  1  0
  2  3  2  0
  2  4  1  0
  4  5  1  0
  5  6  1  0
  6  7  2  0
  7  8  1  0
  8  9  1  0
  9  4  1  0
  9  5  1  0
  1 10  1  0
  1 11  1  0
  1 12  1  0
  4 13  1  0
  5 14  1  0
  6 15  1  0
  7 16  1  0
  8 17  1  0
  8 18  1  0
  9 19  1  0
M  END
