
     RDKit          3D

 21 21  0  0  0  0  0  0  0  0999 V2000
    3.0729   -0.9677   -0.7788 C   0  0  0  0  0  0  0  0  0  0  0  0
    1.8811   -0.4317   -0.0798 C   0  0  0  0  0  0  0  0  0  0  0  0
    1.5365   -0.9673    0.9533 O   0  0  0  0  0  0  0  0  0  0  0  0
    1.1331    0.7086   -0.6087 C   0  0  0  0  0  0  0  0  0  0  0  0
    0.8002    1.6929    0.3974 O   0  0  0  0  0  0  0  0  0  0  0  0
   -0.2191    1.0645   -0.2791 C   0  0  0  0  0  0  0  0  0  0  0  0
   -1.1928    0.1723    0.4541 C   0  0  0  0  0  0  0  0  0  0  0  0
   -2.5352    0.9003    0.6277 C   0  0  0  0  0  0  0  0  0  0  0  0
   -1.4874   -1.0144   -0.4734 C   0  0  0  0  0  0  0  0  0  0  0  0
    3.1074   -0.6557   -1.8458 H   0  0  0  0  0  0  0  0  0  0  0  0
    3.0702   -2.0946   -0.8090 H   0  0  0  0  0  0  0  0  0  0  0  0
    4.0170   -0.6551   -0.2907 H   0  0  0  0  0  0  0  0  0  0  0  0
    1.5467    1.1411   -1.5679 H   0  0  0  0  0  0  0  0  0  0  0  0
   -0.7645    1.7592   -0.9774 H   0  0  0  0  0  0  0  0  0  0  0  0
   -0.8114   -0.1572    1.4308 H   0  0  0  0  0  0  0  0  0  0  0  0
   -3.0582    0.8415   -0.3387 H   0  0  0  0  0  0  0  0  0  0  0  0
   -3.0995    0.5092    1.4826 H   0  0  0  0  0  0  0  0  0  0  0  0
   -2.2970    1.9848    0.7949 H   0  0  0  0  0  0  0  0  0  0  0  0
   -2.5136   -1.3981   -0.2931 H   0  0  0  0  0  0  0  0  0  0  0  0
   -0.7880   -1.8076   -0.2118 H   0  0  0  0  0  0  0  0  0  0  0  0
   -1.3985   -0.6251   -1.5069 H   0  0  0  0  0  0  0  0  0  0  0  0
  1  2  1  0
  2  3  2  0
  2  4  1  0
  4  5  1  0
  5  6  1  0
  6  7  1  0
  7  8  1  0
  7  9  1  0
  6  4  1  0
  1 10  1  0
  1 11  1  0
  1 12  1  0
  4 13  1  0
  6 14  1  0
  7 15  1  0
  8 16  1  0
  8 17  1  0
  8 18  1  0
  9 19  1  0
  9 20  1  0
  9 21  1  0
M  END
