
     RDKit          3D

 19 20  0  0  0  0  0  0  0  0999 V2000
   -2.0353   -0.2864    0.9904 C   0  0  0  0  0  0  0  0  0  0  0  0
   -0.7251    0.4133    0.8868 C   0  0  0  0  0  0  0  0  0  0  0  0
   -0.1517    0.9054    1.8272 O   0  0  0  0  0  0  0  0  0  0  0  0
   -0.1414    0.4683   -0.5199 C   0  0  0  0  0  0  0  0  0  0  0  0
    0.0401   -0.9599   -0.9530 C   0  0  0  0  0  0  0  0  0  0  0  0
    0.9491   -1.3049    0.2365 C   0  0  0  0  0  0  0  0  0  0  0  0
    1.7414   -0.2561    0.3977 C   0  0  0  0  0  0  0  0  0  0  0  0
    1.4027    0.7127   -0.6015 C   0  0  0  0  0  0  0  0  0  0  0  0
    0.4324    1.6930   -0.8396 C   0  0  0  0  0  0  0  0  0  0  0  0
   -1.9010   -1.3919    0.8996 H   0  0  0  0  0  0  0  0  0  0  0  0
   -2.7087    0.0162    0.1356 H   0  0  0  0  0  0  0  0  0  0  0  0
   -2.5838   -0.0265    1.9026 H   0  0  0  0  0  0  0  0  0  0  0  0
   -0.8712   -1.5445   -0.8546 H   0  0  0  0  0  0  0  0  0  0  0  0
    0.6015   -1.0437   -1.8795 H   0  0  0  0  0  0  0  0  0  0  0  0
    0.8806   -2.2433    0.7720 H   0  0  0  0  0  0  0  0  0  0  0  0
    2.4955   -0.1875    1.1615 H   0  0  0  0  0  0  0  0  0  0  0  0
    1.9146    0.3641   -1.5693 H   0  0  0  0  0  0  0  0  0  0  0  0
    0.3867    2.5619   -0.1214 H   0  0  0  0  0  0  0  0  0  0  0  0
    0.2736    2.1099   -1.8712 H   0  0  0  0  0  0  0  0  0  0  0  0
  1  2  1  0
  2  3  2  0
  2  4  1  0
  4  5  1  0
  5  6  1  0
  6  7  2  0
  7  8  1  0
  8  9  1  0
  8  4  1  0
  9  4  1  0
  1 10  1  0
  1 11  1  0
  1 12  1  0
  5 13  1  0
  5 14  1  0
  6 15  1  0
  7 16  1  0
  8 17  1  0
  9 18  1  0
  9 19  1  0
M  END
