
     RDKit          3D

 21 21  0  0  0  0  0  0  0  0999 V2000
   -2.3849    0.3606   -0.4904 C   0  0  0  0  0  0  0  0  0  0  0  0
   -1.1440   -0.4855   -0.4813 C   0  0  0  0  0  0  0  0  0  0  0  0
   -1.2245   -1.5357   -1.1328 O   0  0  0  0  0  0  0  0  0  0  0  0
    0.0517   -0.0670    0.2541 C   0  0  0  0  0  0  0  0  0  0  0  0
   -0.1790    0.1069    1.7363 C   0  0  0  0  0  0  0  0  0  0  0  0
    1.1303   -1.1111    0.0198 C   0  0  0  0  0  0  0  0  0  0  0  0
    2.0920   -0.3708   -0.8552 C   0  0  0  0  0  0  0  0  0  0  0  0
    1.9361    0.9814   -0.5943 O   0  0  0  0  0  0  0  0  0  0  0  0
    0.5849    1.1998   -0.3395 C   0  0  0  0  0  0  0  0  0  0  0  0
   -2.0935    1.3638   -0.1831 H   0  0  0  0  0  0  0  0  0  0  0  0
   -2.8190    0.3696   -1.5164 H   0  0  0  0  0  0  0  0  0  0  0  0
   -3.0760   -0.1314    0.2470 H   0  0  0  0  0  0  0  0  0  0  0  0
    0.6858   -0.2226    2.3487 H   0  0  0  0  0  0  0  0  0  0  0  0
   -0.3356    1.1795    1.9759 H   0  0  0  0  0  0  0  0  0  0  0  0
   -1.0889   -0.4480    2.0234 H   0  0  0  0  0  0  0  0  0  0  0  0
    0.7359   -1.9914   -0.5435 H   0  0  0  0  0  0  0  0  0  0  0  0
    1.5680   -1.4800    0.9652 H   0  0  0  0  0  0  0  0  0  0  0  0
    3.1335   -0.6870   -0.6286 H   0  0  0  0  0  0  0  0  0  0  0  0
    1.9328   -0.6103   -1.9296 H   0  0  0  0  0  0  0  0  0  0  0  0
    0.0294    1.5264   -1.2556 H   0  0  0  0  0  0  0  0  0  0  0  0
    0.4651    2.0529    0.3799 H   0  0  0  0  0  0  0  0  0  0  0  0
  1  2  1  0
  2  3  2  0
  2  4  1  0
  4  5  1  0
  4  6  1  0
  6  7  1  0
  7  8  1  0
  8  9  1  0
  9  4  1  0
  1 10  1  0
  1 11  1  0
  1 12  1  0
  5 13  1  0
  5 14  1  0
  5 15  1  0
  6 16  1  0
  6 17  1  0
  7 18  1  0
  7 19  1  0
  9 20  1  0
  9 21  1  0
M  END
