
     RDKit          3D

 19 19  0  0  0  0  0  0  0  0999 V2000
    2.9299   -0.4774    0.2741 C   0  0  0  0  0  0  0  0  0  0  0  0
    1.7457   -0.5128   -0.6302 C   0  0  0  0  0  0  0  0  0  0  0  0
    1.6657   -1.3468   -1.5327 O   0  0  0  0  0  0  0  0  0  0  0  0
    0.6073    0.4367   -0.5042 C   0  0  0  0  0  0  0  0  0  0  0  0
    0.8694    1.2922    0.5538 O   0  0  0  0  0  0  0  0  0  0  0  0
   -0.6503   -0.3770   -0.2732 C   0  0  0  0  0  0  0  0  0  0  0  0
   -1.8663    0.5025   -0.1319 C   0  0  0  0  0  0  0  0  0  0  0  0
   -3.1633   -0.1984    0.0995 C   0  0  0  0  0  0  0  0  0  0  0  0
   -2.8498    0.4191   -1.1653 O   0  0  0  0  0  0  0  0  0  0  0  0
    2.6480   -0.6204    1.3392 H   0  0  0  0  0  0  0  0  0  0  0  0
    3.6009   -1.2977    0.0011 H   0  0  0  0  0  0  0  0  0  0  0  0
    3.5065    0.4665    0.1667 H   0  0  0  0  0  0  0  0  0  0  0  0
    0.5346    1.0416   -1.4238 H   0  0  0  0  0  0  0  0  0  0  0  0
    0.7132    2.2460    0.3259 H   0  0  0  0  0  0  0  0  0  0  0  0
   -0.8133   -1.0367   -1.1495 H   0  0  0  0  0  0  0  0  0  0  0  0
   -0.5078   -0.9646    0.6353 H   0  0  0  0  0  0  0  0  0  0  0  0
   -1.7746    1.4783    0.3858 H   0  0  0  0  0  0  0  0  0  0  0  0
   -3.2167   -1.3148    0.0013 H   0  0  0  0  0  0  0  0  0  0  0  0
   -3.9790    0.2637    0.6729 H   0  0  0  0  0  0  0  0  0  0  0  0
  1  2  1  0
  2  3  2  0
  2  4  1  0
  4  5  1  0
  4  6  1  0
  6  7  1  0
  7  8  1  0
  8  9  1  0
  9  7  1  0
  1 10  1  0
  1 11  1  0
  1 12  1  0
  4 13  1  0
  5 14  1  0
  6 15  1  0
  6 16  1  0
  7 17  1  0
  8 18  1  0
  8 19  1  0
M  END
