
     RDKit          3D

 21 21  0  0  0  0  0  0  0  0999 V2000
    3.5553   -0.1720   -0.2232 C   0  0  0  0  0  0  0  0  0  0  0  0
    2.2753    0.0018    0.5370 C   0  0  0  0  0  0  0  0  0  0  0  0
    2.2695    0.1488    1.7343 O   0  0  0  0  0  0  0  0  0  0  0  0
    0.9826   -0.0065   -0.1972 C   0  0  0  0  0  0  0  0  0  0  0  0
   -0.0274    0.1677    0.7048 O   0  0  0  0  0  0  0  0  0  0  0  0
   -1.2999    0.1858    0.2070 C   0  0  0  0  0  0  0  0  0  0  0  0
   -1.7394    1.2070   -0.8056 C   0  0  0  0  0  0  0  0  0  0  0  0
   -2.0185   -1.1580    0.0541 C   0  0  0  0  0  0  0  0  0  0  0  0
   -2.3550   -0.3090    1.2083 C   0  0  0  0  0  0  0  0  0  0  0  0
    3.8073    0.8120   -0.6660 H   0  0  0  0  0  0  0  0  0  0  0  0
    3.3702   -0.9595   -0.9733 H   0  0  0  0  0  0  0  0  0  0  0  0
    4.3313   -0.4470    0.5129 H   0  0  0  0  0  0  0  0  0  0  0  0
    0.8358   -0.9898   -0.7114 H   0  0  0  0  0  0  0  0  0  0  0  0
    0.9778    0.7980   -0.9778 H   0  0  0  0  0  0  0  0  0  0  0  0
   -0.8974    1.4115   -1.4802 H   0  0  0  0  0  0  0  0  0  0  0  0
   -2.5770    0.8545   -1.4365 H   0  0  0  0  0  0  0  0  0  0  0  0
   -2.0138    2.1788   -0.3373 H   0  0  0  0  0  0  0  0  0  0  0  0
   -1.3538   -2.0289    0.1576 H   0  0  0  0  0  0  0  0  0  0  0  0
   -2.7849   -1.2682   -0.7195 H   0  0  0  0  0  0  0  0  0  0  0  0
   -3.3179    0.2375    1.2193 H   0  0  0  0  0  0  0  0  0  0  0  0
   -2.0202   -0.6647    2.1927 H   0  0  0  0  0  0  0  0  0  0  0  0
  1  2  1  0
  2  3  2  0
  2  4  1  0
  4  5  1  0
  5  6  1  0
  6  7  1  0
  6  8  1  0
  8  9  1  0
  9  6  1  0
  1 10  1  0
  1 11  1  0
  1 12  1  0
  4 13  1  0
  4 14  1  0
  7 15  1  0
  7 16  1  0
  7 17  1  0
  8 18  1  0
  8 19  1  0
  9 20  1  0
  9 21  1  0
M  END
