
     RDKit          3D

 19 21  0  0  0  0  0  0  0  0999 V2000
   -2.6548   -0.0064   -0.5700 C   0  0  0  0  0  0  0  0  0  0  0  0
   -1.9979    0.7392    0.5321 C   0  0  0  0  0  0  0  0  0  0  0  0
   -2.6220    1.5940    1.1396 O   0  0  0  0  0  0  0  0  0  0  0  0
   -0.5993    0.5044    0.9501 C   0  0  0  0  0  0  0  0  0  0  0  0
    0.1379   -0.7033    0.5092 C   0  0  0  0  0  0  0  0  0  0  0  0
    1.5775   -0.7850    0.8907 C   0  0  0  0  0  0  0  0  0  0  0  0
    2.6651   -0.7107   -0.1260 C   0  0  0  0  0  0  0  0  0  0  0  0
    1.8443    0.5062    0.0503 C   0  0  0  0  0  0  0  0  0  0  0  0
    0.3915    0.5210   -0.2509 C   0  0  0  0  0  0  0  0  0  0  0  0
   -2.2583   -1.0308   -0.6828 H   0  0  0  0  0  0  0  0  0  0  0  0
   -3.7505    0.0119   -0.3833 H   0  0  0  0  0  0  0  0  0  0  0  0
   -2.4502    0.5058   -1.5552 H   0  0  0  0  0  0  0  0  0  0  0  0
   -0.1900    1.1047    1.7806 H   0  0  0  0  0  0  0  0  0  0  0  0
   -0.4276   -1.5607    0.1458 H   0  0  0  0  0  0  0  0  0  0  0  0
    1.8424   -0.6932    1.9632 H   0  0  0  0  0  0  0  0  0  0  0  0
    3.6862   -0.6674    0.2799 H   0  0  0  0  0  0  0  0  0  0  0  0
    2.5944   -1.2972   -1.0677 H   0  0  0  0  0  0  0  0  0  0  0  0
    2.2246    1.3689    0.6214 H   0  0  0  0  0  0  0  0  0  0  0  0
   -0.0132    0.5986   -1.2512 H   0  0  0  0  0  0  0  0  0  0  0  0
  1  2  1  0
  2  3  2  0
  2  4  1  0
  4  5  1  0
  5  6  1  0
  6  7  1  0
  7  8  1  0
  8  9  1  0
  9  4  1  0
  9  5  1  0
  8  6  1  0
  1 10  1  0
  1 11  1  0
  1 12  1  0
  4 13  1  0
  5 14  1  0
  6 15  1  0
  7 16  1  0
  7 17  1  0
  8 18  1  0
  9 19  1  0
M  END
