
     RDKit          3D

 17 16  0  0  0  0  0  0  0  0999 V2000
   -2.8771    0.6334   -0.0677 C   0  0  0  0  0  0  0  0  0  0  0  0
   -1.3728    0.5638   -0.1104 C   0  0  0  0  0  0  0  0  0  0  0  0
   -0.6834    1.5057    0.2738 O   0  0  0  0  0  0  0  0  0  0  0  0
   -0.7965   -0.5461   -0.5760 O   0  0  0  0  0  0  0  0  0  0  0  0
    0.4620   -1.0122   -0.7780 C   0  0  0  0  0  0  0  0  0  0  0  0
    1.3062   -1.1348    0.4560 C   0  0  0  0  0  0  0  0  0  0  0  0
    1.5722    0.0492    1.1507 O   0  0  0  0  0  0  0  0  0  0  0  0
    2.3436    1.0872    0.5738 C   0  0  0  0  0  0  0  0  0  0  0  0
    2.7790    0.9003   -0.5878 O   0  0  0  0  0  0  0  0  0  0  0  0
   -3.2810   -0.3863    0.0727 H   0  0  0  0  0  0  0  0  0  0  0  0
   -3.2351    1.1284   -0.9853 H   0  0  0  0  0  0  0  0  0  0  0  0
   -3.1825    1.1966    0.8622 H   0  0  0  0  0  0  0  0  0  0  0  0
    1.0197   -0.4529   -1.5849 H   0  0  0  0  0  0  0  0  0  0  0  0
    0.3598   -2.0516   -1.2331 H   0  0  0  0  0  0  0  0  0  0  0  0
    0.7785   -1.8073    1.2048 H   0  0  0  0  0  0  0  0  0  0  0  0
    2.2779   -1.6627    0.1888 H   0  0  0  0  0  0  0  0  0  0  0  0
    2.5294    1.9893    1.1404 H   0  0  0  0  0  0  0  0  0  0  0  0
  1  2  1  0
  2  3  2  0
  2  4  1  0
  4  5  1  0
  5  6  1  0
  6  7  1  0
  7  8  1  0
  8  9  2  0
  1 10  1  0
  1 11  1  0
  1 12  1  0
  5 13  1  0
  5 14  1  0
  6 15  1  0
  6 16  1  0
  8 17  1  0
M  END
