
     RDKit          3D

 21 21  0  0  0  0  0  0  0  0999 V2000
    2.9811    0.7081    0.4487 C   0  0  0  0  0  0  0  0  0  0  0  0
    1.5955    0.4145   -0.0380 C   0  0  0  0  0  0  0  0  0  0  0  0
    1.3328    0.6233   -1.1923 O   0  0  0  0  0  0  0  0  0  0  0  0
    0.5686   -0.1221    0.8833 C   0  0  0  0  0  0  0  0  0  0  0  0
   -0.7294   -0.2458    0.1558 C   0  0  0  0  0  0  0  0  0  0  0  0
   -1.3377    1.0211   -0.4025 C   0  0  0  0  0  0  0  0  0  0  0  0
   -2.5553    0.7031   -1.0511 O   0  0  0  0  0  0  0  0  0  0  0  0
   -1.6535   -1.3770    0.4271 C   0  0  0  0  0  0  0  0  0  0  0  0
   -0.7732   -1.4893   -0.7479 C   0  0  0  0  0  0  0  0  0  0  0  0
    3.5813   -0.2330    0.4796 H   0  0  0  0  0  0  0  0  0  0  0  0
    3.4803    1.3738   -0.2606 H   0  0  0  0  0  0  0  0  0  0  0  0
    2.8732    1.1794    1.4469 H   0  0  0  0  0  0  0  0  0  0  0  0
    0.8672   -1.1573    1.1970 H   0  0  0  0  0  0  0  0  0  0  0  0
    0.4900    0.5079    1.8006 H   0  0  0  0  0  0  0  0  0  0  0  0
   -1.6034    1.6739    0.4814 H   0  0  0  0  0  0  0  0  0  0  0  0
   -0.6907    1.6196   -1.0271 H   0  0  0  0  0  0  0  0  0  0  0  0
   -3.0921    1.5137   -1.1640 H   0  0  0  0  0  0  0  0  0  0  0  0
   -2.7246   -1.1864    0.2144 H   0  0  0  0  0  0  0  0  0  0  0  0
   -1.5172   -2.0325    1.3157 H   0  0  0  0  0  0  0  0  0  0  0  0
    0.0564   -2.2123   -0.7093 H   0  0  0  0  0  0  0  0  0  0  0  0
   -1.1494   -1.2828   -1.7553 H   0  0  0  0  0  0  0  0  0  0  0  0
  1  2  1  0
  2  3  2  0
  2  4  1  0
  4  5  1  0
  5  6  1  0
  6  7  1  0
  5  8  1  0
  8  9  1  0
  9  5  1  0
  1 10  1  0
  1 11  1  0
  1 12  1  0
  4 13  1  0
  4 14  1  0
  6 15  1  0
  6 16  1  0
  7 17  1  0
  8 18  1  0
  8 19  1  0
  9 20  1  0
  9 21  1  0
M  END
