
     RDKit          3D

 20 19  0  0  0  0  0  0  0  0999 V2000
   -2.8112   -0.1432   -0.9234 C   0  0  0  0  0  0  0  0  0  0  0  0
   -2.3333   -0.3462    0.4427 C   0  0  0  0  0  0  0  0  0  0  0  0
   -3.1635   -0.6143    1.3052 O   0  0  0  0  0  0  0  0  0  0  0  0
   -0.9218   -0.2571    0.8884 C   0  0  0  0  0  0  0  0  0  0  0  0
   -0.0429    0.0449   -0.1196 O   0  0  0  0  0  0  0  0  0  0  0  0
    1.2352    0.1040    0.3960 C   0  0  0  0  0  0  0  0  0  0  0  0
    2.1516   -0.9306   -0.2361 C   0  0  0  0  0  0  0  0  0  0  0  0
    1.8424    1.4772    0.1638 C   0  0  0  0  0  0  0  0  0  0  0  0
   -3.0278   -1.1582   -1.3625 H   0  0  0  0  0  0  0  0  0  0  0  0
   -3.8020    0.3612   -0.8797 H   0  0  0  0  0  0  0  0  0  0  0  0
   -2.0997    0.3344   -1.6057 H   0  0  0  0  0  0  0  0  0  0  0  0
   -0.7883    0.5044    1.7041 H   0  0  0  0  0  0  0  0  0  0  0  0
   -0.6499   -1.2595    1.2875 H   0  0  0  0  0  0  0  0  0  0  0  0
    1.2374   -0.1046    1.4853 H   0  0  0  0  0  0  0  0  0  0  0  0
    2.0976   -1.9046    0.2979 H   0  0  0  0  0  0  0  0  0  0  0  0
    3.1911   -0.5607   -0.0924 H   0  0  0  0  0  0  0  0  0  0  0  0
    1.9950   -1.0264   -1.3189 H   0  0  0  0  0  0  0  0  0  0  0  0
    2.9427    1.4295    0.0945 H   0  0  0  0  0  0  0  0  0  0  0  0
    1.5166    2.1262    1.0117 H   0  0  0  0  0  0  0  0  0  0  0  0
    1.4307    1.9239   -0.7473 H   0  0  0  0  0  0  0  0  0  0  0  0
  1  2  1  0
  2  3  2  0
  2  4  1  0
  4  5  1  0
  5  6  1  0
  6  7  1  0
  6  8  1  0
  1  9  1  0
  1 10  1  0
  1 11  1  0
  4 12  1  0
  4 13  1  0
  6 14  1  0
  7 15  1  0
  7 16  1  0
  7 17  1  0
  8 18  1  0
  8 19  1  0
  8 20  1  0
M  END
