
     RDKit          3D

 19 19  0  0  0  0  0  0  0  0999 V2000
    2.5562    0.9401    0.0270 C   0  0  0  0  0  0  0  0  0  0  0  0
    1.7123   -0.0537   -0.6769 C   0  0  0  0  0  0  0  0  0  0  0  0
    1.7046   -0.0845   -1.8876 O   0  0  0  0  0  0  0  0  0  0  0  0
    0.8726   -1.0155    0.0707 C   0  0  0  0  0  0  0  0  0  0  0  0
   -0.5110   -0.5022    0.0835 C   0  0  0  0  0  0  0  0  0  0  0  0
   -1.1868   -0.2143    1.1885 C   0  0  0  0  0  0  0  0  0  0  0  0
   -2.5169    0.2619    0.7287 C   0  0  0  0  0  0  0  0  0  0  0  0
   -2.6403   -0.0894   -0.5907 O   0  0  0  0  0  0  0  0  0  0  0  0
   -1.3560   -0.2316   -1.1124 C   0  0  0  0  0  0  0  0  0  0  0  0
    1.8907    1.7807    0.3436 H   0  0  0  0  0  0  0  0  0  0  0  0
    3.0847    0.4849    0.8832 H   0  0  0  0  0  0  0  0  0  0  0  0
    3.2694    1.4076   -0.6980 H   0  0  0  0  0  0  0  0  0  0  0  0
    0.9223   -2.0153   -0.4277 H   0  0  0  0  0  0  0  0  0  0  0  0
    1.2827   -1.1196    1.0776 H   0  0  0  0  0  0  0  0  0  0  0  0
   -0.8391   -0.3079    2.2225 H   0  0  0  0  0  0  0  0  0  0  0  0
   -3.3276   -0.2077    1.3367 H   0  0  0  0  0  0  0  0  0  0  0  0
   -2.5946    1.3784    0.8235 H   0  0  0  0  0  0  0  0  0  0  0  0
   -1.0278    0.7056   -1.6128 H   0  0  0  0  0  0  0  0  0  0  0  0
   -1.2954   -1.1175   -1.7792 H   0  0  0  0  0  0  0  0  0  0  0  0
  1  2  1  0
  2  3  2  0
  2  4  1  0
  4  5  1  0
  5  6  2  0
  6  7  1  0
  7  8  1  0
  8  9  1  0
  9  5  1  0
  1 10  1  0
  1 11  1  0
  1 12  1  0
  4 13  1  0
  4 14  1  0
  6 15  1  0
  7 16  1  0
  7 17  1  0
  9 18  1  0
  9 19  1  0
M  END
