
     RDKit          3D

 19 19  0  0  0  0  0  0  0  0999 V2000
    3.5433    0.4945   -0.4979 C   0  0  0  0  0  0  0  0  0  0  0  0
    2.2405    0.2932    0.2246 C   0  0  0  0  0  0  0  0  0  0  0  0
    2.2065    0.5017    1.4640 O   0  0  0  0  0  0  0  0  0  0  0  0
    1.1041   -0.1124   -0.4582 O   0  0  0  0  0  0  0  0  0  0  0  0
   -0.0806   -0.2841    0.2638 C   0  0  0  0  0  0  0  0  0  0  0  0
   -1.2263   -0.7301   -0.6364 C   0  0  0  0  0  0  0  0  0  0  0  0
   -2.5624   -0.9623   -0.0421 C   0  0  0  0  0  0  0  0  0  0  0  0
   -2.2983    0.2135   -1.0054 C   0  0  0  0  0  0  0  0  0  0  0  0
   -2.4443    1.4512   -0.4304 O   0  0  0  0  0  0  0  0  0  0  0  0
    4.3916    0.3920    0.2064 H   0  0  0  0  0  0  0  0  0  0  0  0
    3.6716   -0.2174   -1.3247 H   0  0  0  0  0  0  0  0  0  0  0  0
    3.5556    1.5184   -0.8909 H   0  0  0  0  0  0  0  0  0  0  0  0
    0.0684   -0.9882    1.0820 H   0  0  0  0  0  0  0  0  0  0  0  0
   -0.3662    0.7046    0.6881 H   0  0  0  0  0  0  0  0  0  0  0  0
   -0.8966   -1.4165   -1.4473 H   0  0  0  0  0  0  0  0  0  0  0  0
   -2.6450   -0.7147    1.0426 H   0  0  0  0  0  0  0  0  0  0  0  0
   -3.2413   -1.7519   -0.4217 H   0  0  0  0  0  0  0  0  0  0  0  0
   -2.7724    0.1207   -2.0098 H   0  0  0  0  0  0  0  0  0  0  0  0
   -2.2482    1.4879    0.5340 H   0  0  0  0  0  0  0  0  0  0  0  0
  1  2  1  0
  2  3  2  0
  2  4  1  0
  4  5  1  0
  5  6  1  0
  6  7  1  0
  7  8  1  0
  8  9  1  0
  8  6  1  0
  1 10  1  0
  1 11  1  0
  1 12  1  0
  5 13  1  0
  5 14  1  0
  6 15  1  0
  7 16  1  0
  7 17  1  0
  8 18  1  0
  9 19  1  0
M  END
