
     RDKit          3D

 17 17  0  0  0  0  0  0  0  0999 V2000
    2.7324   -0.2833   -0.1223 C   0  0  0  0  0  0  0  0  0  0  0  0
    1.2550   -0.3285   -0.0909 C   0  0  0  0  0  0  0  0  0  0  0  0
    0.7048   -1.4504   -0.1454 O   0  0  0  0  0  0  0  0  0  0  0  0
    0.4943    0.8799   -0.0009 C   0  0  0  0  0  0  0  0  0  0  0  0
    1.1600    1.9786    0.0422 O   0  0  0  0  0  0  0  0  0  0  0  0
   -0.9735    0.9933    0.0469 C   0  0  0  0  0  0  0  0  0  0  0  0
   -1.7037    0.0051   -0.8397 C   0  0  0  0  0  0  0  0  0  0  0  0
   -1.8567   -0.0277    0.6414 C   0  0  0  0  0  0  0  0  0  0  0  0
   -1.3730   -1.1094    1.3721 O   0  0  0  0  0  0  0  0  0  0  0  0
    3.0924   -0.6223    0.8722 H   0  0  0  0  0  0  0  0  0  0  0  0
    3.1596   -0.9455   -0.9022 H   0  0  0  0  0  0  0  0  0  0  0  0
    3.1143    0.7511   -0.3221 H   0  0  0  0  0  0  0  0  0  0  0  0
   -1.3595    2.0550    0.0937 H   0  0  0  0  0  0  0  0  0  0  0  0
   -1.1700   -0.7979   -1.3440 H   0  0  0  0  0  0  0  0  0  0  0  0
   -2.4733    0.4893   -1.4756 H   0  0  0  0  0  0  0  0  0  0  0  0
   -2.8730    0.3387    0.9749 H   0  0  0  0  0  0  0  0  0  0  0  0
   -1.9302   -1.9259    1.1995 H   0  0  0  0  0  0  0  0  0  0  0  0
  1  2  1  0
  2  3  2  0
  2  4  1  0
  4  5  2  0
  4  6  1  0
  6  7  1  0
  7  8  1  0
  8  9  1  0
  8  6  1  0
  1 10  1  0
  1 11  1  0
  1 12  1  0
  6 13  1  0
  7 14  1  0
  7 15  1  0
  8 16  1  0
  9 17  1  0
M  END
