
     RDKit          3D

 19 18  0  0  0  0  0  0  0  0999 V2000
    3.0915    0.0934   -0.4296 C   0  0  0  0  0  0  0  0  0  0  0  0
    1.8017    0.1563    0.2919 C   0  0  0  0  0  0  0  0  0  0  0  0
    1.8313    0.2253    1.4972 O   0  0  0  0  0  0  0  0  0  0  0  0
    0.5464    0.1347   -0.4419 C   0  0  0  0  0  0  0  0  0  0  0  0
   -0.6857    0.2036    0.4010 C   0  0  0  0  0  0  0  0  0  0  0  0
   -0.7092   -0.8927    1.2703 O   0  0  0  0  0  0  0  0  0  0  0  0
   -1.8832    0.0662   -0.5466 C   0  0  0  0  0  0  0  0  0  0  0  0
   -3.1570    0.1226    0.1958 C   0  0  0  0  0  0  0  0  0  0  0  0
   -3.1858    0.2610    1.3973 O   0  0  0  0  0  0  0  0  0  0  0  0
    2.9644   -0.2905   -1.4754 H   0  0  0  0  0  0  0  0  0  0  0  0
    3.8154   -0.5944    0.0563 H   0  0  0  0  0  0  0  0  0  0  0  0
    3.5883    1.0908   -0.5112 H   0  0  0  0  0  0  0  0  0  0  0  0
    0.4967   -0.8473   -0.9993 H   0  0  0  0  0  0  0  0  0  0  0  0
    0.4617    0.9141   -1.2258 H   0  0  0  0  0  0  0  0  0  0  0  0
   -0.7707    1.1134    1.0058 H   0  0  0  0  0  0  0  0  0  0  0  0
   -0.4266   -1.7200    0.8391 H   0  0  0  0  0  0  0  0  0  0  0  0
   -1.8566    0.8367   -1.3360 H   0  0  0  0  0  0  0  0  0  0  0  0
   -1.8271   -0.9134   -1.0606 H   0  0  0  0  0  0  0  0  0  0  0  0
   -4.0954    0.0401   -0.3293 H   0  0  0  0  0  0  0  0  0  0  0  0
  1  2  1  0
  2  3  2  0
  2  4  1  0
  4  5  1  0
  5  6  1  0
  5  7  1  0
  7  8  1  0
  8  9  2  0
  1 10  1  0
  1 11  1  0
  1 12  1  0
  4 13  1  0
  4 14  1  0
  5 15  1  0
  6 16  1  0
  7 17  1  0
  7 18  1  0
  8 19  1  0
M  END
