
     RDKit          3D

 23 23  0  0  0  0  0  0  0  0999 V2000
    2.8309    0.9977    0.4096 C   0  0  0  0  0  0  0  0  0  0  0  0
    1.8364   -0.1160    0.3926 C   0  0  0  0  0  0  0  0  0  0  0  0
    2.2518   -1.1644   -0.1140 O   0  0  0  0  0  0  0  0  0  0  0  0
    0.4768    0.0153    0.9297 C   0  0  0  0  0  0  0  0  0  0  0  0
   -0.5955    0.0701   -0.1212 C   0  0  0  0  0  0  0  0  0  0  0  0
   -0.4834    1.2102   -1.0893 C   0  0  0  0  0  0  0  0  0  0  0  0
   -1.9909   -0.0777    0.4518 C   0  0  0  0  0  0  0  0  0  0  0  0
   -1.8056   -1.5914    0.2631 C   0  0  0  0  0  0  0  0  0  0  0  0
   -0.8326   -1.2237   -0.8616 C   0  0  0  0  0  0  0  0  0  0  0  0
    2.3836    1.9493    0.7626 H   0  0  0  0  0  0  0  0  0  0  0  0
    3.7356    0.7495    1.0090 H   0  0  0  0  0  0  0  0  0  0  0  0
    3.2116    1.0881   -0.6426 H   0  0  0  0  0  0  0  0  0  0  0  0
    0.2407   -0.7788    1.6649 H   0  0  0  0  0  0  0  0  0  0  0  0
    0.4372    0.9933    1.4853 H   0  0  0  0  0  0  0  0  0  0  0  0
   -1.1551    1.0032   -1.9518 H   0  0  0  0  0  0  0  0  0  0  0  0
   -0.8101    2.1853   -0.6638 H   0  0  0  0  0  0  0  0  0  0  0  0
    0.5758    1.2562   -1.4574 H   0  0  0  0  0  0  0  0  0  0  0  0
   -2.1328    0.2405    1.4822 H   0  0  0  0  0  0  0  0  0  0  0  0
   -2.7910    0.2888   -0.2292 H   0  0  0  0  0  0  0  0  0  0  0  0
   -1.2977   -2.0378    1.1389 H   0  0  0  0  0  0  0  0  0  0  0  0
   -2.6844   -2.1240   -0.1056 H   0  0  0  0  0  0  0  0  0  0  0  0
    0.0306   -1.8900   -0.9728 H   0  0  0  0  0  0  0  0  0  0  0  0
   -1.4321   -1.0436   -1.7802 H   0  0  0  0  0  0  0  0  0  0  0  0
  1  2  1  0
  2  3  2  0
  2  4  1  0
  4  5  1  0
  5  6  1  0
  5  7  1  0
  7  8  1  0
  8  9  1  0
  9  5  1  0
  1 10  1  0
  1 11  1  0
  1 12  1  0
  4 13  1  0
  4 14  1  0
  6 15  1  0
  6 16  1  0
  6 17  1  0
  7 18  1  0
  7 19  1  0
  8 20  1  0
  8 21  1  0
  9 22  1  0
  9 23  1  0
M  END
