
     RDKit          3D

 17 18  0  0  0  0  0  0  0  0999 V2000
    3.0837   -0.2368    0.4341 C   0  0  0  0  0  0  0  0  0  0  0  0
    1.8069    0.3616   -0.0836 C   0  0  0  0  0  0  0  0  0  0  0  0
    1.8037    1.4013   -0.7928 O   0  0  0  0  0  0  0  0  0  0  0  0
    0.5711   -0.2112    0.2010 O   0  0  0  0  0  0  0  0  0  0  0  0
   -0.6169    0.3562   -0.2881 C   0  0  0  0  0  0  0  0  0  0  0  0
   -1.5127   -0.7167   -0.9117 C   0  0  0  0  0  0  0  0  0  0  0  0
   -2.5744   -0.2673    0.0885 C   0  0  0  0  0  0  0  0  0  0  0  0
   -2.8876    1.0648    0.1930 O   0  0  0  0  0  0  0  0  0  0  0  0
   -1.7128    0.5612    0.7345 C   0  0  0  0  0  0  0  0  0  0  0  0
    3.5127   -0.9627   -0.2997 H   0  0  0  0  0  0  0  0  0  0  0  0
    2.9502   -0.6697    1.4334 H   0  0  0  0  0  0  0  0  0  0  0  0
    3.8104    0.6009    0.4973 H   0  0  0  0  0  0  0  0  0  0  0  0
   -0.5139    1.2670   -0.9004 H   0  0  0  0  0  0  0  0  0  0  0  0
   -1.1942   -1.7542   -0.6226 H   0  0  0  0  0  0  0  0  0  0  0  0
   -1.7557   -0.5742   -1.9593 H   0  0  0  0  0  0  0  0  0  0  0  0
   -3.2827   -1.0466    0.3903 H   0  0  0  0  0  0  0  0  0  0  0  0
   -1.4879    0.8264    1.7604 H   0  0  0  0  0  0  0  0  0  0  0  0
  1  2  1  0
  2  3  2  0
  2  4  1  0
  4  5  1  0
  5  6  1  0
  6  7  1  0
  7  8  1  0
  8  9  1  0
  9  5  1  0
  9  7  1  0
  1 10  1  0
  1 11  1  0
  1 12  1  0
  5 13  1  0
  6 14  1  0
  6 15  1  0
  7 16  1  0
  9 17  1  0
M  END
