
     RDKit          3D

 19 19  0  0  0  0  0  0  0  0999 V2000
   -1.7361   -1.4737   -0.1599 C   0  0  0  0  0  0  0  0  0  0  0  0
   -0.3307   -1.0098   -0.3350 C   0  0  0  0  0  0  0  0  0  0  0  0
    0.3763   -1.7340   -1.0116 O   0  0  0  0  0  0  0  0  0  0  0  0
    0.0930    0.2514    0.3015 C   0  0  0  0  0  0  0  0  0  0  0  0
   -0.6992    1.4413   -0.1725 C   0  0  0  0  0  0  0  0  0  0  0  0
   -2.0533    1.2886    0.1033 O   0  0  0  0  0  0  0  0  0  0  0  0
    1.5327    0.5615    0.1992 C   0  0  0  0  0  0  0  0  0  0  0  0
    2.6295   -0.1862    0.6742 C   0  0  0  0  0  0  0  0  0  0  0  0
    2.1974   -0.4403   -0.7084 O   0  0  0  0  0  0  0  0  0  0  0  0
   -2.3147   -1.2901   -1.1045 H   0  0  0  0  0  0  0  0  0  0  0  0
   -2.2601   -0.9727    0.6580 H   0  0  0  0  0  0  0  0  0  0  0  0
   -1.7683   -2.5789    0.0450 H   0  0  0  0  0  0  0  0  0  0  0  0
   -0.1409    0.1268    1.4017 H   0  0  0  0  0  0  0  0  0  0  0  0
   -0.3653    2.3509    0.3524 H   0  0  0  0  0  0  0  0  0  0  0  0
   -0.5665    1.6287   -1.2526 H   0  0  0  0  0  0  0  0  0  0  0  0
   -2.5761    1.2982   -0.7302 H   0  0  0  0  0  0  0  0  0  0  0  0
    1.7458    1.5821   -0.2011 H   0  0  0  0  0  0  0  0  0  0  0  0
    3.6467    0.2522    0.6390 H   0  0  0  0  0  0  0  0  0  0  0  0
    2.5899   -1.0959    1.3015 H   0  0  0  0  0  0  0  0  0  0  0  0
  1  2  1  0
  2  3  2  0
  2  4  1  0
  4  5  1  0
  5  6  1  0
  4  7  1  0
  7  8  1  0
  8  9  1  0
  9  7  1  0
  1 10  1  0
  1 11  1  0
  1 12  1  0
  4 13  1  0
  5 14  1  0
  5 15  1  0
  6 16  1  0
  7 17  1  0
  8 18  1  0
  8 19  1  0
M  END
