
     RDKit          3D

 18 18  0  0  0  0  0  0  0  0999 V2000
    2.5748    0.2075    0.2038 C   0  0  0  0  0  0  0  0  0  0  0  0
    1.4987   -0.6686    0.8014 C   0  0  0  0  0  0  0  0  0  0  0  0
    1.7772   -1.4120    1.7094 O   0  0  0  0  0  0  0  0  0  0  0  0
    0.1653   -0.5200    0.1901 C   0  0  0  0  0  0  0  0  0  0  0  0
   -0.3917    0.8817    0.3372 C   0  0  0  0  0  0  0  0  0  0  0  0
   -1.8790    0.6294    0.2857 C   0  0  0  0  0  0  0  0  0  0  0  0
   -1.9562   -0.8642    0.0793 C   0  0  0  0  0  0  0  0  0  0  0  0
   -0.8069   -1.3129    0.7315 O   0  0  0  0  0  0  0  0  0  0  0  0
    2.4951    0.0533   -0.8923 H   0  0  0  0  0  0  0  0  0  0  0  0
    2.2454    1.2563    0.4532 H   0  0  0  0  0  0  0  0  0  0  0  0
    3.5562    0.0012    0.6206 H   0  0  0  0  0  0  0  0  0  0  0  0
    0.2474   -0.7576   -0.8881 H   0  0  0  0  0  0  0  0  0  0  0  0
   -0.0983    1.3700    1.2662 H   0  0  0  0  0  0  0  0  0  0  0  0
   -0.0297    1.4552   -0.5525 H   0  0  0  0  0  0  0  0  0  0  0  0
   -2.3450    1.1913   -0.5495 H   0  0  0  0  0  0  0  0  0  0  0  0
   -2.3184    0.9086    1.2452 H   0  0  0  0  0  0  0  0  0  0  0  0
   -1.8725   -1.1107   -1.0151 H   0  0  0  0  0  0  0  0  0  0  0  0
   -2.8624   -1.3087    0.5278 H   0  0  0  0  0  0  0  0  0  0  0  0
  1  2  1  0
  2  3  2  0
  2  4  1  0
  4  5  1  0
  5  6  1  0
  6  7  1  0
  7  8  1  0
  8  4  1  0
  1  9  1  0
  1 10  1  0
  1 11  1  0
  4 12  1  0
  5 13  1  0
  5 14  1  0
  6 15  1  0
  6 16  1  0
  7 17  1  0
  7 18  1  0
M  END
