
     RDKit          3D

 17 20  0  0  0  0  0  0  0  0999 V2000
    2.4419   -0.1577    0.3274 C   0  0  0  0  0  0  0  0  0  0  0  0
    1.3729    0.4061   -0.5516 C   0  0  0  0  0  0  0  0  0  0  0  0
    1.7710    0.9887   -1.5605 O   0  0  0  0  0  0  0  0  0  0  0  0
    0.0155    0.2736   -0.2373 C   0  0  0  0  0  0  0  0  0  0  0  0
   -1.1999    0.7099   -0.8915 C   0  0  0  0  0  0  0  0  0  0  0  0
   -1.8663   -0.5777   -0.4837 C   0  0  0  0  0  0  0  0  0  0  0  0
   -1.9376    0.5991    0.3358 C   0  0  0  0  0  0  0  0  0  0  0  0
   -0.6821    0.1718    1.0278 C   0  0  0  0  0  0  0  0  0  0  0  0
   -0.6232   -0.9877    0.1671 C   0  0  0  0  0  0  0  0  0  0  0  0
    3.4010    0.3706    0.2121 H   0  0  0  0  0  0  0  0  0  0  0  0
    2.5382   -1.2584    0.1096 H   0  0  0  0  0  0  0  0  0  0  0  0
    2.0531   -0.1067    1.3681 H   0  0  0  0  0  0  0  0  0  0  0  0
   -1.3962    1.1319   -1.8263 H   0  0  0  0  0  0  0  0  0  0  0  0
   -2.5623   -1.1139   -1.0498 H   0  0  0  0  0  0  0  0  0  0  0  0
   -2.7351    1.1412    0.7459 H   0  0  0  0  0  0  0  0  0  0  0  0
   -0.3946    0.3468    2.0132 H   0  0  0  0  0  0  0  0  0  0  0  0
   -0.1962   -1.9375    0.2937 H   0  0  0  0  0  0  0  0  0  0  0  0
  1  2  1  0
  2  3  2  0
  2  4  1  0
  4  5  1  0
  5  6  1  0
  6  7  1  0
  7  8  1  0
  8  9  1  0
  8  4  1  0
  9  4  1  0
  7  5  1  0
  9  6  1  0
  1 10  1  0
  1 11  1  0
  1 12  1  0
  5 13  1  0
  6 14  1  0
  7 15  1  0
  8 16  1  0
  9 17  1  0
M  END
