
     RDKit          3D

 17 17  0  0  0  0  0  0  0  0999 V2000
    2.6934    0.3388    0.1610 C   0  0  0  0  0  0  0  0  0  0  0  0
    1.2475    0.5884   -0.0681 C   0  0  0  0  0  0  0  0  0  0  0  0
    0.8583    1.7190   -0.1915 O   0  0  0  0  0  0  0  0  0  0  0  0
    0.3072   -0.5361   -0.1426 C   0  0  0  0  0  0  0  0  0  0  0  0
   -1.1360   -0.1838   -0.3184 C   0  0  0  0  0  0  0  0  0  0  0  0
   -2.0035   -1.4254   -0.4032 C   0  0  0  0  0  0  0  0  0  0  0  0
   -3.2079   -1.2101   -0.5542 O   0  0  0  0  0  0  0  0  0  0  0  0
   -1.7599    0.9796    0.2517 C   0  0  0  0  0  0  0  0  0  0  0  0
   -1.5353    0.7987   -1.2222 O   0  0  0  0  0  0  0  0  0  0  0  0
    3.1689   -0.0781   -0.7669 H   0  0  0  0  0  0  0  0  0  0  0  0
    3.2199    1.2958    0.3973 H   0  0  0  0  0  0  0  0  0  0  0  0
    2.8253   -0.3476    1.0086 H   0  0  0  0  0  0  0  0  0  0  0  0
    0.6407   -1.3288   -0.8548 H   0  0  0  0  0  0  0  0  0  0  0  0
    0.3678   -1.0375    0.8757 H   0  0  0  0  0  0  0  0  0  0  0  0
   -1.5924   -2.3995   -0.3361 H   0  0  0  0  0  0  0  0  0  0  0  0
   -2.8520    0.9679    0.4927 H   0  0  0  0  0  0  0  0  0  0  0  0
   -1.2420    1.8588    0.5784 H   0  0  0  0  0  0  0  0  0  0  0  0
  1  2  1  0
  2  3  2  0
  2  4  1  0
  4  5  1  0
  5  6  1  0
  6  7  2  0
  5  8  1  0
  8  9  1  0
  9  5  1  0
  1 10  1  0
  1 11  1  0
  1 12  1  0
  4 13  1  0
  4 14  1  0
  6 15  1  0
  8 16  1  0
  8 17  1  0
M  END
