
     RDKit          3D

 15 14  0  0  0  0  0  0  0  0999 V2000
   -3.7983   -0.0340   -0.8780 C   0  0  0  0  0  0  0  0  0  0  0  0
   -2.7874   -1.0743   -0.5882 C   0  0  0  0  0  0  0  0  0  0  0  0
   -3.1381   -2.2756   -0.6295 O   0  0  0  0  0  0  0  0  0  0  0  0
   -1.4473   -0.7142   -0.2738 C   0  0  0  0  0  0  0  0  0  0  0  0
   -0.3265   -0.3962    0.0035 C   0  0  0  0  0  0  0  0  0  0  0  0
    1.0259    0.0100    0.3264 C   0  0  0  0  0  0  0  0  0  0  0  0
    2.1760    0.3725    0.6166 C   0  0  0  0  0  0  0  0  0  0  0  0
    3.4996    0.8061    0.9319 C   0  0  0  0  0  0  0  0  0  0  0  0
    4.4670   -0.2126    0.8785 O   0  0  0  0  0  0  0  0  0  0  0  0
   -3.6793    0.3941   -1.8839 H   0  0  0  0  0  0  0  0  0  0  0  0
   -4.8275   -0.4751   -0.8036 H   0  0  0  0  0  0  0  0  0  0  0  0
   -3.7153    0.7245   -0.0524 H   0  0  0  0  0  0  0  0  0  0  0  0
    3.8131    1.6074    0.2133 H   0  0  0  0  0  0  0  0  0  0  0  0
    3.5796    1.2476    1.9613 H   0  0  0  0  0  0  0  0  0  0  0  0
    5.1584    0.0199    0.1779 H   0  0  0  0  0  0  0  0  0  0  0  0
  1  2  1  0
  2  3  2  0
  2  4  1  0
  4  5  3  0
  5  6  1  0
  6  7  3  0
  7  8  1  0
  8  9  1  0
  1 10  1  0
  1 11  1  0
  1 12  1  0
  8 13  1  0
  8 14  1  0
  9 15  1  0
M  END
