
     RDKit          3D

 19 20  0  0  0  0  0  0  0  0999 V2000
   -2.5376    0.3570   -0.1600 C   0  0  0  0  0  0  0  0  0  0  0  0
   -1.0917    0.6655   -0.2013 C   0  0  0  0  0  0  0  0  0  0  0  0
   -0.7357    1.8079   -0.3878 O   0  0  0  0  0  0  0  0  0  0  0  0
   -0.1144   -0.3982   -0.0189 C   0  0  0  0  0  0  0  0  0  0  0  0
   -0.0820   -1.2115    1.2541 C   0  0  0  0  0  0  0  0  0  0  0  0
    1.2924   -0.8920    1.3450 O   0  0  0  0  0  0  0  0  0  0  0  0
    1.3186   -0.2136    0.1316 C   0  0  0  0  0  0  0  0  0  0  0  0
    2.0355    1.0789   -0.0141 C   0  0  0  0  0  0  0  0  0  0  0  0
    0.7898   -0.8612   -1.0923 C   0  0  0  0  0  0  0  0  0  0  0  0
   -3.0015    0.7982   -1.0777 H   0  0  0  0  0  0  0  0  0  0  0  0
   -3.0642    0.7758    0.7042 H   0  0  0  0  0  0  0  0  0  0  0  0
   -2.7354   -0.7358   -0.1783 H   0  0  0  0  0  0  0  0  0  0  0  0
   -0.1814   -2.2803    1.0213 H   0  0  0  0  0  0  0  0  0  0  0  0
   -0.6951   -0.8329    2.0809 H   0  0  0  0  0  0  0  0  0  0  0  0
    1.5778    1.7849   -0.7199 H   0  0  0  0  0  0  0  0  0  0  0  0
    2.2610    1.5525    0.9789 H   0  0  0  0  0  0  0  0  0  0  0  0
    3.0567    0.8494   -0.4403 H   0  0  0  0  0  0  0  0  0  0  0  0
    0.8905   -0.2914   -2.0248 H   0  0  0  0  0  0  0  0  0  0  0  0
    1.0167   -1.9531   -1.2008 H   0  0  0  0  0  0  0  0  0  0  0  0
  1  2  1  0
  2  3  2  0
  2  4  1  0
  4  5  1  0
  5  6  1  0
  6  7  1  0
  7  8  1  0
  7  9  1  0
  7  4  1  0
  9  4  1  0
  1 10  1  0
  1 11  1  0
  1 12  1  0
  5 13  1  0
  5 14  1  0
  8 15  1  0
  8 16  1  0
  8 17  1  0
  9 18  1  0
  9 19  1  0
M  END
