
     RDKit          3D

 19 20  0  0  0  0  0  0  0  0999 V2000
   -3.1401   -0.3968   -0.0067 C   0  0  0  0  0  0  0  0  0  0  0  0
   -1.7045   -0.7250   -0.1587 C   0  0  0  0  0  0  0  0  0  0  0  0
   -1.3561   -1.8263   -0.5254 O   0  0  0  0  0  0  0  0  0  0  0  0
   -0.6831    0.3087    0.1423 C   0  0  0  0  0  0  0  0  0  0  0  0
    0.4891    0.4183   -0.6560 C   0  0  0  0  0  0  0  0  0  0  0  0
    1.8472    0.9737   -0.4839 C   0  0  0  0  0  0  0  0  0  0  0  0
    2.5132   -0.2650    0.1568 C   0  0  0  0  0  0  0  0  0  0  0  0
    1.4273   -1.0912    0.5603 O   0  0  0  0  0  0  0  0  0  0  0  0
    0.4792   -0.1639    0.8192 C   0  0  0  0  0  0  0  0  0  0  0  0
   -3.3103    0.6555    0.2776 H   0  0  0  0  0  0  0  0  0  0  0  0
   -3.7127   -0.5652   -0.9416 H   0  0  0  0  0  0  0  0  0  0  0  0
   -3.5553   -1.0073    0.8406 H   0  0  0  0  0  0  0  0  0  0  0  0
   -1.1438    1.2709    0.4674 H   0  0  0  0  0  0  0  0  0  0  0  0
    0.5418   -0.3696   -1.4727 H   0  0  0  0  0  0  0  0  0  0  0  0
    1.9305    1.7942    0.2623 H   0  0  0  0  0  0  0  0  0  0  0  0
    2.3038    1.2166   -1.4493 H   0  0  0  0  0  0  0  0  0  0  0  0
    3.1754   -0.7730   -0.5419 H   0  0  0  0  0  0  0  0  0  0  0  0
    3.0306    0.0059    1.0914 H   0  0  0  0  0  0  0  0  0  0  0  0
    0.8678    0.5393    1.6183 H   0  0  0  0  0  0  0  0  0  0  0  0
  1  2  1  0
  2  3  2  0
  2  4  1  0
  4  5  1  0
  5  6  1  0
  6  7  1  0
  7  8  1  0
  8  9  1  0
  9  4  1  0
  9  5  1  0
  1 10  1  0
  1 11  1  0
  1 12  1  0
  4 13  1  0
  5 14  1  0
  6 15  1  0
  6 16  1  0
  7 17  1  0
  7 18  1  0
  9 19  1  0
M  END
