
     RDKit          3D

 19 19  0  0  0  0  0  0  0  0999 V2000
    2.9805   -0.1942    0.6066 C   0  0  0  0  0  0  0  0  0  0  0  0
    1.6614    0.1662   -0.0035 C   0  0  0  0  0  0  0  0  0  0  0  0
    1.6434    0.9387   -0.9828 O   0  0  0  0  0  0  0  0  0  0  0  0
    0.4305   -0.3721    0.5347 C   0  0  0  0  0  0  0  0  0  0  0  0
    0.5305   -1.1493    1.5430 O   0  0  0  0  0  0  0  0  0  0  0  0
   -0.9129   -0.0749   -0.0128 C   0  0  0  0  0  0  0  0  0  0  0  0
   -2.0898   -0.6945    0.7228 C   0  0  0  0  0  0  0  0  0  0  0  0
   -1.1782    1.2599   -0.6480 C   0  0  0  0  0  0  0  0  0  0  0  0
   -1.0368    0.0098   -1.5175 C   0  0  0  0  0  0  0  0  0  0  0  0
    3.0428    0.4431    1.5373 H   0  0  0  0  0  0  0  0  0  0  0  0
    3.0147   -1.2572    0.9240 H   0  0  0  0  0  0  0  0  0  0  0  0
    3.8040    0.0610   -0.1066 H   0  0  0  0  0  0  0  0  0  0  0  0
   -3.0153   -0.2005    0.3815 H   0  0  0  0  0  0  0  0  0  0  0  0
   -2.1948   -1.7700    0.5823 H   0  0  0  0  0  0  0  0  0  0  0  0
   -1.9864   -0.4653    1.8151 H   0  0  0  0  0  0  0  0  0  0  0  0
   -2.1990    1.6441   -0.5755 H   0  0  0  0  0  0  0  0  0  0  0  0
   -0.3868    2.0302   -0.6912 H   0  0  0  0  0  0  0  0  0  0  0  0
   -0.1334    0.0289   -2.1569 H   0  0  0  0  0  0  0  0  0  0  0  0
   -1.9745   -0.4040   -1.9523 H   0  0  0  0  0  0  0  0  0  0  0  0
  1  2  1  0
  2  3  2  0
  2  4  1  0
  4  5  2  0
  4  6  1  0
  6  7  1  0
  6  8  1  0
  8  9  1  0
  9  6  1  0
  1 10  1  0
  1 11  1  0
  1 12  1  0
  7 13  1  0
  7 14  1  0
  7 15  1  0
  8 16  1  0
  8 17  1  0
  9 18  1  0
  9 19  1  0
M  END
