
     RDKit          3D

 19 21  0  0  0  0  0  0  0  0999 V2000
    2.3696    0.4558    0.3624 C   0  0  0  0  0  0  0  0  0  0  0  0
    1.3686    0.0426   -0.6584 C   0  0  0  0  0  0  0  0  0  0  0  0
    1.6900    0.1925   -1.8290 O   0  0  0  0  0  0  0  0  0  0  0  0
    0.0514   -0.5200   -0.3662 C   0  0  0  0  0  0  0  0  0  0  0  0
   -0.1704   -1.7581    0.3788 C   0  0  0  0  0  0  0  0  0  0  0  0
   -0.5798   -0.4604    0.9655 C   0  0  0  0  0  0  0  0  0  0  0  0
   -1.7894    0.2003    0.3852 C   0  0  0  0  0  0  0  0  0  0  0  0
   -1.5871    1.4357   -0.4178 C   0  0  0  0  0  0  0  0  0  0  0  0
   -1.1397    0.1199   -1.0111 C   0  0  0  0  0  0  0  0  0  0  0  0
    1.9503    0.4190    1.3892 H   0  0  0  0  0  0  0  0  0  0  0  0
    3.2435   -0.2194    0.2329 H   0  0  0  0  0  0  0  0  0  0  0  0
    2.7632    1.4865    0.1215 H   0  0  0  0  0  0  0  0  0  0  0  0
   -0.9949   -2.4367    0.0277 H   0  0  0  0  0  0  0  0  0  0  0  0
    0.6150   -2.3018    0.9152 H   0  0  0  0  0  0  0  0  0  0  0  0
   -0.0761   -0.0268    1.8482 H   0  0  0  0  0  0  0  0  0  0  0  0
   -2.7909   -0.2297    0.4812 H   0  0  0  0  0  0  0  0  0  0  0  0
   -0.7500    2.0939   -0.0914 H   0  0  0  0  0  0  0  0  0  0  0  0
   -2.4573    1.8815   -0.9445 H   0  0  0  0  0  0  0  0  0  0  0  0
   -1.7158   -0.3747   -1.7896 H   0  0  0  0  0  0  0  0  0  0  0  0
  1  2  1  0
  2  3  2  0
  2  4  1  0
  4  5  1  0
  5  6  1  0
  6  7  1  0
  7  8  1  0
  8  9  1  0
  6  4  1  0
  9  7  1  0
  9  4  1  0
  1 10  1  0
  1 11  1  0
  1 12  1  0
  5 13  1  0
  5 14  1  0
  6 15  1  0
  7 16  1  0
  8 17  1  0
  8 18  1  0
  9 19  1  0
M  END
