
     RDKit          3D

 19 19  0  0  0  0  0  0  0  0999 V2000
    2.2294    0.8612   -0.4313 C   0  0  0  0  0  0  0  0  0  0  0  0
    1.4795    0.0504    0.5579 C   0  0  0  0  0  0  0  0  0  0  0  0
    1.9929   -0.3046    1.5989 O   0  0  0  0  0  0  0  0  0  0  0  0
    0.0730   -0.3301    0.2605 C   0  0  0  0  0  0  0  0  0  0  0  0
   -0.0656   -1.8519    0.1932 C   0  0  0  0  0  0  0  0  0  0  0  0
   -0.3198    0.1649   -0.9578 O   0  0  0  0  0  0  0  0  0  0  0  0
   -1.6931    0.3452   -0.7772 C   0  0  0  0  0  0  0  0  0  0  0  0
   -1.6975    0.9926    0.5926 C   0  0  0  0  0  0  0  0  0  0  0  0
   -0.7418    0.2117    1.2391 O   0  0  0  0  0  0  0  0  0  0  0  0
    1.6249    1.0742   -1.3132 H   0  0  0  0  0  0  0  0  0  0  0  0
    3.1486    0.3134   -0.7625 H   0  0  0  0  0  0  0  0  0  0  0  0
    2.5103    1.8194    0.0654 H   0  0  0  0  0  0  0  0  0  0  0  0
   -0.8499   -2.1585   -0.5292 H   0  0  0  0  0  0  0  0  0  0  0  0
   -0.3166   -2.2909    1.1632 H   0  0  0  0  0  0  0  0  0  0  0  0
    0.9354   -2.2063   -0.1809 H   0  0  0  0  0  0  0  0  0  0  0  0
   -2.1290    0.9982   -1.5533 H   0  0  0  0  0  0  0  0  0  0  0  0
   -2.2036   -0.6450   -0.7427 H   0  0  0  0  0  0  0  0  0  0  0  0
   -1.2923    2.0088    0.4966 H   0  0  0  0  0  0  0  0  0  0  0  0
   -2.6848    0.9472    1.0806 H   0  0  0  0  0  0  0  0  0  0  0  0
  1  2  1  0
  2  3  2  0
  2  4  1  0
  4  5  1  0
  4  6  1  0
  6  7  1  0
  7  8  1  0
  8  9  1  0
  9  4  1  0
  1 10  1  0
  1 11  1  0
  1 12  1  0
  5 13  1  0
  5 14  1  0
  5 15  1  0
  7 16  1  0
  7 17  1  0
  8 18  1  0
  8 19  1  0
M  END
