
     RDKit          3D

 20 20  0  0  0  0  0  0  0  0999 V2000
    2.7696   -0.4004    0.0978 C   0  0  0  0  0  0  0  0  0  0  0  0
    1.6949    0.1555   -0.7590 C   0  0  0  0  0  0  0  0  0  0  0  0
    1.7510   -0.0832   -1.9612 O   0  0  0  0  0  0  0  0  0  0  0  0
    0.5785    0.9664   -0.2598 C   0  0  0  0  0  0  0  0  0  0  0  0
   -0.3677    0.1673    0.6060 C   0  0  0  0  0  0  0  0  0  0  0  0
   -1.0185   -1.0170    0.0035 C   0  0  0  0  0  0  0  0  0  0  0  0
   -2.3998   -0.4095    0.1035 C   0  0  0  0  0  0  0  0  0  0  0  0
   -1.7173    0.8425    0.6546 C   0  0  0  0  0  0  0  0  0  0  0  0
    2.3412   -0.9155    1.0042 H   0  0  0  0  0  0  0  0  0  0  0  0
    3.3791   -1.1512   -0.4836 H   0  0  0  0  0  0  0  0  0  0  0  0
    3.4787    0.3437    0.4855 H   0  0  0  0  0  0  0  0  0  0  0  0
    0.0121    1.3938   -1.1206 H   0  0  0  0  0  0  0  0  0  0  0  0
    0.9893    1.7857    0.3346 H   0  0  0  0  0  0  0  0  0  0  0  0
    0.0968    0.0126    1.6109 H   0  0  0  0  0  0  0  0  0  0  0  0
   -0.7080   -1.3341   -0.9917 H   0  0  0  0  0  0  0  0  0  0  0  0
   -0.9751   -1.9010    0.7072 H   0  0  0  0  0  0  0  0  0  0  0  0
   -2.8501   -0.2714   -0.9156 H   0  0  0  0  0  0  0  0  0  0  0  0
   -3.0949   -0.9119    0.8002 H   0  0  0  0  0  0  0  0  0  0  0  0
   -1.8701    1.6702   -0.0575 H   0  0  0  0  0  0  0  0  0  0  0  0
   -2.0898    1.0574    1.6840 H   0  0  0  0  0  0  0  0  0  0  0  0
  1  2  1  0
  2  3  2  0
  2  4  1  0
  4  5  1  0
  5  6  1  0
  6  7  1  0
  7  8  1  0
  8  5  1  0
  1  9  1  0
  1 10  1  0
  1 11  1  0
  4 12  1  0
  4 13  1  0
  5 14  1  0
  6 15  1  0
  6 16  1  0
  7 17  1  0
  7 18  1  0
  8 19  1  0
  8 20  1  0
M  END
