
     RDKit          3D

 21 21  0  0  0  0  0  0  0  0999 V2000
    3.0897   -0.6028    0.6308 C   0  0  0  0  0  0  0  0  0  0  0  0
    1.8904   -0.2844   -0.2015 C   0  0  0  0  0  0  0  0  0  0  0  0
    2.0549   -0.0368   -1.4221 O   0  0  0  0  0  0  0  0  0  0  0  0
    0.6193   -0.2537    0.3220 O   0  0  0  0  0  0  0  0  0  0  0  0
   -0.5158    0.0537   -0.4936 C   0  0  0  0  0  0  0  0  0  0  0  0
   -0.7666   -0.8616   -1.6482 C   0  0  0  0  0  0  0  0  0  0  0  0
   -0.9210    1.4665   -0.4836 C   0  0  0  0  0  0  0  0  0  0  0  0
   -1.7747    0.5170    0.2266 C   0  0  0  0  0  0  0  0  0  0  0  0
   -1.7466    0.3180    1.7052 C   0  0  0  0  0  0  0  0  0  0  0  0
    3.8336    0.2100    0.4168 H   0  0  0  0  0  0  0  0  0  0  0  0
    2.8628   -0.5231    1.7097 H   0  0  0  0  0  0  0  0  0  0  0  0
    3.5219   -1.5839    0.3906 H   0  0  0  0  0  0  0  0  0  0  0  0
   -0.2701   -1.8449   -1.4111 H   0  0  0  0  0  0  0  0  0  0  0  0
   -1.8536   -1.1259   -1.7532 H   0  0  0  0  0  0  0  0  0  0  0  0
   -0.4498   -0.4699   -2.6243 H   0  0  0  0  0  0  0  0  0  0  0  0
   -0.2803    2.2083    0.0479 H   0  0  0  0  0  0  0  0  0  0  0  0
   -1.3180    1.8964   -1.4454 H   0  0  0  0  0  0  0  0  0  0  0  0
   -2.7635    0.2585   -0.2390 H   0  0  0  0  0  0  0  0  0  0  0  0
   -0.7130    0.0665    2.0766 H   0  0  0  0  0  0  0  0  0  0  0  0
   -2.1520    1.2002    2.2634 H   0  0  0  0  0  0  0  0  0  0  0  0
   -2.3477   -0.6083    1.9325 H   0  0  0  0  0  0  0  0  0  0  0  0
  1  2  1  0
  2  3  2  0
  2  4  1  0
  4  5  1  0
  5  6  1  0
  5  7  1  0
  7  8  1  0
  8  9  1  0
  8  5  1  0
  1 10  1  0
  1 11  1  0
  1 12  1  0
  6 13  1  0
  6 14  1  0
  6 15  1  0
  7 16  1  0
  7 17  1  0
  8 18  1  0
  9 19  1  0
  9 20  1  0
  9 21  1  0
M  END
