
     RDKit          3D

 19 19  0  0  0  0  0  0  0  0999 V2000
    2.3446    1.0294    0.3181 C   0  0  0  0  0  0  0  0  0  0  0  0
    1.8410   -0.2819   -0.1067 C   0  0  0  0  0  0  0  0  0  0  0  0
    2.5407   -0.9401   -0.8714 O   0  0  0  0  0  0  0  0  0  0  0  0
    0.5573   -0.8801    0.3097 C   0  0  0  0  0  0  0  0  0  0  0  0
   -0.2136   -0.1317    1.1648 O   0  0  0  0  0  0  0  0  0  0  0  0
   -0.8513    0.4580    0.1005 C   0  0  0  0  0  0  0  0  0  0  0  0
   -2.3561    0.5621    0.2162 C   0  0  0  0  0  0  0  0  0  0  0  0
   -0.4797   -0.7012   -0.7772 C   0  0  0  0  0  0  0  0  0  0  0  0
   -1.4202   -1.7008   -0.8436 O   0  0  0  0  0  0  0  0  0  0  0  0
    1.6694    1.5147    1.0598 H   0  0  0  0  0  0  0  0  0  0  0  0
    3.3603    0.9235    0.7777 H   0  0  0  0  0  0  0  0  0  0  0  0
    2.3936    1.7241   -0.5567 H   0  0  0  0  0  0  0  0  0  0  0  0
    0.6179   -1.9766    0.5602 H   0  0  0  0  0  0  0  0  0  0  0  0
   -0.3809    1.4125   -0.1834 H   0  0  0  0  0  0  0  0  0  0  0  0
   -2.7070    1.1616   -0.6512 H   0  0  0  0  0  0  0  0  0  0  0  0
   -2.6865    0.9782    1.1679 H   0  0  0  0  0  0  0  0  0  0  0  0
   -2.8129   -0.4671    0.1451 H   0  0  0  0  0  0  0  0  0  0  0  0
   -0.0882   -0.3335   -1.7466 H   0  0  0  0  0  0  0  0  0  0  0  0
   -1.3285   -2.3509   -0.0831 H   0  0  0  0  0  0  0  0  0  0  0  0
  1  2  1  0
  2  3  2  0
  2  4  1  0
  4  5  1  0
  5  6  1  0
  6  7  1  0
  6  8  1  0
  8  9  1  0
  8  4  1  0
  1 10  1  0
  1 11  1  0
  1 12  1  0
  4 13  1  0
  6 14  1  0
  7 15  1  0
  7 16  1  0
  7 17  1  0
  8 18  1  0
  9 19  1  0
M  END
