
     RDKit          3D

 19 20  0  0  0  0  0  0  0  0999 V2000
    2.8095   -0.0147    0.1759 C   0  0  0  0  0  0  0  0  0  0  0  0
    1.5324   -0.6912    0.5030 C   0  0  0  0  0  0  0  0  0  0  0  0
    1.6197   -1.7842    1.0829 O   0  0  0  0  0  0  0  0  0  0  0  0
    0.2554   -0.0872    0.1531 C   0  0  0  0  0  0  0  0  0  0  0  0
   -0.6856   -0.9968   -0.6432 C   0  0  0  0  0  0  0  0  0  0  0  0
   -2.0405   -0.3563   -0.5494 C   0  0  0  0  0  0  0  0  0  0  0  0
   -1.8630    0.9204    0.2053 C   0  0  0  0  0  0  0  0  0  0  0  0
   -0.4140    0.9991    0.6231 C   0  0  0  0  0  0  0  0  0  0  0  0
    0.4335    1.2066   -0.5267 O   0  0  0  0  0  0  0  0  0  0  0  0
    3.6528   -0.7171    0.1758 H   0  0  0  0  0  0  0  0  0  0  0  0
    2.7454    0.5003   -0.8261 H   0  0  0  0  0  0  0  0  0  0  0  0
    2.9773    0.8386    0.8976 H   0  0  0  0  0  0  0  0  0  0  0  0
   -0.7058   -1.9538   -0.0957 H   0  0  0  0  0  0  0  0  0  0  0  0
   -0.3155   -1.0877   -1.6757 H   0  0  0  0  0  0  0  0  0  0  0  0
   -2.7913   -1.0188   -0.0455 H   0  0  0  0  0  0  0  0  0  0  0  0
   -2.4023   -0.1655   -1.5955 H   0  0  0  0  0  0  0  0  0  0  0  0
   -2.5443    1.0132    1.0797 H   0  0  0  0  0  0  0  0  0  0  0  0
   -2.1181    1.7978   -0.4539 H   0  0  0  0  0  0  0  0  0  0  0  0
   -0.1459    1.5970    1.5151 H   0  0  0  0  0  0  0  0  0  0  0  0
  1  2  1  0
  2  3  2  0
  2  4  1  0
  4  5  1  0
  5  6  1  0
  6  7  1  0
  7  8  1  0
  8  9  1  0
  8  4  1  0
  9  4  1  0
  1 10  1  0
  1 11  1  0
  1 12  1  0
  5 13  1  0
  5 14  1  0
  6 15  1  0
  6 16  1  0
  7 17  1  0
  7 18  1  0
  8 19  1  0
M  END
