
     RDKit          3D

 18 18  0  0  0  0  0  0  0  0999 V2000
    2.3388   -0.2773    0.1685 C   0  0  0  0  0  0  0  0  0  0  0  0
    1.0220    0.2353    0.6806 C   0  0  0  0  0  0  0  0  0  0  0  0
    0.9213    0.3303    1.8862 O   0  0  0  0  0  0  0  0  0  0  0  0
   -0.0119    0.5716   -0.3000 C   0  0  0  0  0  0  0  0  0  0  0  0
   -0.4486   -0.5906   -1.1846 C   0  0  0  0  0  0  0  0  0  0  0  0
   -1.4477   -0.9070   -0.0853 C   0  0  0  0  0  0  0  0  0  0  0  0
   -1.4307    0.5797    0.2047 C   0  0  0  0  0  0  0  0  0  0  0  0
   -1.6065    0.9371    1.5237 O   0  0  0  0  0  0  0  0  0  0  0  0
    2.2030   -0.7513   -0.8154 H   0  0  0  0  0  0  0  0  0  0  0  0
    2.9861    0.6286   -0.0056 H   0  0  0  0  0  0  0  0  0  0  0  0
    2.8313   -0.9419    0.9131 H   0  0  0  0  0  0  0  0  0  0  0  0
    0.2072    1.5009   -0.8763 H   0  0  0  0  0  0  0  0  0  0  0  0
    0.3203   -1.3575   -1.3525 H   0  0  0  0  0  0  0  0  0  0  0  0
   -0.9574   -0.1909   -2.0765 H   0  0  0  0  0  0  0  0  0  0  0  0
   -1.0304   -1.5431    0.7152 H   0  0  0  0  0  0  0  0  0  0  0  0
   -2.4452   -1.2227   -0.4620 H   0  0  0  0  0  0  0  0  0  0  0  0
   -2.0873    1.0988   -0.5312 H   0  0  0  0  0  0  0  0  0  0  0  0
   -1.3643    1.9000    1.5974 H   0  0  0  0  0  0  0  0  0  0  0  0
  1  2  1  0
  2  3  2  0
  2  4  1  0
  4  5  1  0
  5  6  1  0
  6  7  1  0
  7  8  1  0
  7  4  1  0
  1  9  1  0
  1 10  1  0
  1 11  1  0
  4 12  1  0
  5 13  1  0
  5 14  1  0
  6 15  1  0
  6 16  1  0
  7 17  1  0
  8 18  1  0
M  END
