
     RDKit          3D

 20 19  0  0  0  0  0  0  0  0999 V2000
    2.9053    0.5458   -0.1956 C   0  0  0  0  0  0  0  0  0  0  0  0
    1.4172    0.7871   -0.1616 C   0  0  0  0  0  0  0  0  0  0  0  0
    1.0167    1.7721   -0.7426 O   0  0  0  0  0  0  0  0  0  0  0  0
    0.4873   -0.1109    0.5276 C   0  0  0  0  0  0  0  0  0  0  0  0
   -0.7017   -0.5293   -0.2553 C   0  0  0  0  0  0  0  0  0  0  0  0
   -1.5284   -1.4485    0.6422 C   0  0  0  0  0  0  0  0  0  0  0  0
   -1.5929    0.4829   -0.8289 C   0  0  0  0  0  0  0  0  0  0  0  0
   -2.2139    1.3468    0.0078 O   0  0  0  0  0  0  0  0  0  0  0  0
    3.3377    0.5629    0.8346 H   0  0  0  0  0  0  0  0  0  0  0  0
    3.0080   -0.5424   -0.5033 H   0  0  0  0  0  0  0  0  0  0  0  0
    3.4033    1.2131   -0.8888 H   0  0  0  0  0  0  0  0  0  0  0  0
    1.0541   -1.0355    0.7881 H   0  0  0  0  0  0  0  0  0  0  0  0
    0.2082    0.2964    1.5523 H   0  0  0  0  0  0  0  0  0  0  0  0
   -0.3330   -1.1906   -1.0792 H   0  0  0  0  0  0  0  0  0  0  0  0
   -1.0225   -1.6408    1.6167 H   0  0  0  0  0  0  0  0  0  0  0  0
   -1.7134   -2.4341    0.1618 H   0  0  0  0  0  0  0  0  0  0  0  0
   -2.4852   -0.9412    0.9035 H   0  0  0  0  0  0  0  0  0  0  0  0
   -2.4118   -0.0820   -1.3747 H   0  0  0  0  0  0  0  0  0  0  0  0
   -1.1237    1.1013   -1.6558 H   0  0  0  0  0  0  0  0  0  0  0  0
   -1.7111    1.8469    0.6511 H   0  0  0  0  0  0  0  0  0  0  0  0
  1  2  1  0
  2  3  2  0
  2  4  1  0
  4  5  1  0
  5  6  1  0
  5  7  1  0
  7  8  1  0
  1  9  1  0
  1 10  1  0
  1 11  1  0
  4 12  1  0
  4 13  1  0
  5 14  1  0
  6 15  1  0
  6 16  1  0
  6 17  1  0
  7 18  1  0
  7 19  1  0
  8 20  1  0
M  END
