
     RDKit          3D

 20 20  0  0  0  0  0  0  0  0999 V2000
    2.0468   -1.3022   -0.0222 C   0  0  0  0  0  0  0  0  0  0  0  0
    1.6298    0.1212    0.0248 C   0  0  0  0  0  0  0  0  0  0  0  0
    2.4549    0.9748   -0.2698 O   0  0  0  0  0  0  0  0  0  0  0  0
    0.2445    0.5262    0.4184 C   0  0  0  0  0  0  0  0  0  0  0  0
    0.1263    2.0201    0.3719 C   0  0  0  0  0  0  0  0  0  0  0  0
   -0.7288   -0.1823   -0.4833 C   0  0  0  0  0  0  0  0  0  0  0  0
   -2.1898    0.0054   -0.3522 C   0  0  0  0  0  0  0  0  0  0  0  0
   -1.5778   -1.2587    0.2290 C   0  0  0  0  0  0  0  0  0  0  0  0
    2.8298   -1.4635    0.7713 H   0  0  0  0  0  0  0  0  0  0  0  0
    1.2103   -2.0002    0.0699 H   0  0  0  0  0  0  0  0  0  0  0  0
    2.5355   -1.5212   -1.0046 H   0  0  0  0  0  0  0  0  0  0  0  0
    0.1377    0.2246    1.4883 H   0  0  0  0  0  0  0  0  0  0  0  0
    1.1503    2.4450    0.4358 H   0  0  0  0  0  0  0  0  0  0  0  0
   -0.4224    2.3980   -0.5082 H   0  0  0  0  0  0  0  0  0  0  0  0
   -0.4106    2.4037    1.2738 H   0  0  0  0  0  0  0  0  0  0  0  0
   -0.3495   -0.4548   -1.4917 H   0  0  0  0  0  0  0  0  0  0  0  0
   -2.8137   -0.1868   -1.2502 H   0  0  0  0  0  0  0  0  0  0  0  0
   -2.6306    0.7498    0.3476 H   0  0  0  0  0  0  0  0  0  0  0  0
   -1.5426   -1.2868    1.3267 H   0  0  0  0  0  0  0  0  0  0  0  0
   -1.6998   -2.2122   -0.3314 H   0  0  0  0  0  0  0  0  0  0  0  0
  1  2  1  0
  2  3  2  0
  2  4  1  0
  4  5  1  0
  4  6  1  0
  6  7  1  0
  7  8  1  0
  8  6  1  0
  1  9  1  0
  1 10  1  0
  1 11  1  0
  4 12  1  0
  5 13  1  0
  5 14  1  0
  5 15  1  0
  6 16  1  0
  7 17  1  0
  7 18  1  0
  8 19  1  0
  8 20  1  0
M  END
