
     RDKit          3D

 19 18  0  0  0  0  0  0  0  0999 V2000
    2.5038   -0.5290    0.4886 C   0  0  0  0  0  0  0  0  0  0  0  0
    1.5195   -0.3711   -0.6075 C   0  0  0  0  0  0  0  0  0  0  0  0
    1.6302   -1.1039   -1.5692 O   0  0  0  0  0  0  0  0  0  0  0  0
    0.4452    0.6160   -0.5554 C   0  0  0  0  0  0  0  0  0  0  0  0
   -0.7509    0.1718    0.2359 C   0  0  0  0  0  0  0  0  0  0  0  0
   -1.8214    1.2501    0.2375 C   0  0  0  0  0  0  0  0  0  0  0  0
   -1.3600   -1.1136   -0.2050 C   0  0  0  0  0  0  0  0  0  0  0  0
    3.4575    0.0141    0.2684 H   0  0  0  0  0  0  0  0  0  0  0  0
    2.1262   -0.1485    1.4709 H   0  0  0  0  0  0  0  0  0  0  0  0
    2.7928   -1.5980    0.5518 H   0  0  0  0  0  0  0  0  0  0  0  0
    0.8352    1.5350   -0.0412 H   0  0  0  0  0  0  0  0  0  0  0  0
    0.1050    0.9593   -1.5530 H   0  0  0  0  0  0  0  0  0  0  0  0
   -0.4467    0.0715    1.3169 H   0  0  0  0  0  0  0  0  0  0  0  0
   -2.6785    0.9900   -0.4223 H   0  0  0  0  0  0  0  0  0  0  0  0
   -2.2610    1.3958    1.2495 H   0  0  0  0  0  0  0  0  0  0  0  0
   -1.4008    2.2182   -0.1126 H   0  0  0  0  0  0  0  0  0  0  0  0
   -1.9040   -1.0172   -1.1522 H   0  0  0  0  0  0  0  0  0  0  0  0
   -0.6526   -1.9711   -0.1755 H   0  0  0  0  0  0  0  0  0  0  0  0
   -2.1398   -1.3695    0.5744 H   0  0  0  0  0  0  0  0  0  0  0  0
  1  2  1  0
  2  3  2  0
  2  4  1  0
  4  5  1  0
  5  6  1  0
  5  7  1  0
  1  8  1  0
  1  9  1  0
  1 10  1  0
  4 11  1  0
  4 12  1  0
  5 13  1  0
  6 14  1  0
  6 15  1  0
  6 16  1  0
  7 17  1  0
  7 18  1  0
  7 19  1  0
M  END
