
     RDKit          3D

 21 20  0  0  0  0  0  0  0  0999 V2000
    3.3749    0.0599   -1.0435 C   0  0  0  0  0  0  0  0  0  0  0  0
    2.3520   -0.2154   -0.0150 C   0  0  0  0  0  0  0  0  0  0  0  0
    2.6658   -1.0229    0.9046 O   0  0  0  0  0  0  0  0  0  0  0  0
    1.0979    0.3354    0.0154 O   0  0  0  0  0  0  0  0  0  0  0  0
    0.2032   -0.0074    1.0562 C   0  0  0  0  0  0  0  0  0  0  0  0
   -1.1200    0.7031    0.9093 C   0  0  0  0  0  0  0  0  0  0  0  0
   -1.8054    0.3595   -0.3961 C   0  0  0  0  0  0  0  0  0  0  0  0
   -2.0624   -1.1282   -0.4614 C   0  0  0  0  0  0  0  0  0  0  0  0
   -3.0370    1.0174   -0.4075 O   0  0  0  0  0  0  0  0  0  0  0  0
    2.9644    0.4857   -1.9694 H   0  0  0  0  0  0  0  0  0  0  0  0
    4.1528    0.7262   -0.5749 H   0  0  0  0  0  0  0  0  0  0  0  0
    3.8683   -0.8987   -1.3243 H   0  0  0  0  0  0  0  0  0  0  0  0
    0.6510    0.3638    2.0125 H   0  0  0  0  0  0  0  0  0  0  0  0
    0.0980   -1.0979    1.1775 H   0  0  0  0  0  0  0  0  0  0  0  0
   -0.9744    1.7782    1.0197 H   0  0  0  0  0  0  0  0  0  0  0  0
   -1.7921    0.3626    1.7235 H   0  0  0  0  0  0  0  0  0  0  0  0
   -1.2363    0.7252   -1.2747 H   0  0  0  0  0  0  0  0  0  0  0  0
   -1.7272   -1.6567    0.4579 H   0  0  0  0  0  0  0  0  0  0  0  0
   -1.5921   -1.5332   -1.3826 H   0  0  0  0  0  0  0  0  0  0  0  0
   -3.1659   -1.3438   -0.5301 H   0  0  0  0  0  0  0  0  0  0  0  0
   -2.9156    1.9873   -0.5862 H   0  0  0  0  0  0  0  0  0  0  0  0
  1  2  1  0
  2  3  2  0
  2  4  1  0
  4  5  1  0
  5  6  1  0
  6  7  1  0
  7  8  1  0
  7  9  1  0
  1 10  1  0
  1 11  1  0
  1 12  1  0
  5 13  1  0
  5 14  1  0
  6 15  1  0
  6 16  1  0
  7 17  1  0
  8 18  1  0
  8 19  1  0
  8 20  1  0
  9 21  1  0
M  END
