
     RDKit          3D

 21 20  0  0  0  0  0  0  0  0999 V2000
    2.8576    0.6814    0.2928 C   0  0  0  0  0  0  0  0  0  0  0  0
    1.9702   -0.4654    0.6279 C   0  0  0  0  0  0  0  0  0  0  0  0
    2.5535   -1.5108    0.8779 O   0  0  0  0  0  0  0  0  0  0  0  0
    0.5155   -0.4193    0.6739 C   0  0  0  0  0  0  0  0  0  0  0  0
    0.0254   -1.6740    1.0214 O   0  0  0  0  0  0  0  0  0  0  0  0
   -0.1370    0.0123   -0.6130 C   0  0  0  0  0  0  0  0  0  0  0  0
   -1.6306    0.0047   -0.3908 C   0  0  0  0  0  0  0  0  0  0  0  0
   -2.0659    0.9331    0.7049 C   0  0  0  0  0  0  0  0  0  0  0  0
   -2.0644   -1.2869   -0.0211 O   0  0  0  0  0  0  0  0  0  0  0  0
    3.3574    0.9782    1.2396 H   0  0  0  0  0  0  0  0  0  0  0  0
    3.6553    0.2970   -0.3937 H   0  0  0  0  0  0  0  0  0  0  0  0
    2.3443    1.5252   -0.1591 H   0  0  0  0  0  0  0  0  0  0  0  0
    0.2088    0.2774    1.4800 H   0  0  0  0  0  0  0  0  0  0  0  0
    0.1567   -2.2893    0.2718 H   0  0  0  0  0  0  0  0  0  0  0  0
    0.1382    1.0583   -0.8775 H   0  0  0  0  0  0  0  0  0  0  0  0
    0.0785   -0.7017   -1.4184 H   0  0  0  0  0  0  0  0  0  0  0  0
   -2.1411    0.3182   -1.3275 H   0  0  0  0  0  0  0  0  0  0  0  0
   -1.9127    0.5140    1.7218 H   0  0  0  0  0  0  0  0  0  0  0  0
   -1.6612    1.9603    0.5978 H   0  0  0  0  0  0  0  0  0  0  0  0
   -3.1861    1.0363    0.6016 H   0  0  0  0  0  0  0  0  0  0  0  0
   -3.0622   -1.2490   -0.1281 H   0  0  0  0  0  0  0  0  0  0  0  0
  1  2  1  0
  2  3  2  0
  2  4  1  0
  4  5  1  0
  4  6  1  0
  6  7  1  0
  7  8  1  0
  7  9  1  0
  1 10  1  0
  1 11  1  0
  1 12  1  0
  4 13  1  0
  5 14  1  0
  6 15  1  0
  6 16  1  0
  7 17  1  0
  8 18  1  0
  8 19  1  0
  8 20  1  0
  9 21  1  0
M  END
