
     RDKit          3D

 21 21  0  0  0  0  0  0  0  0999 V2000
    2.2617   -1.2797    0.3134 C   0  0  0  0  0  0  0  0  0  0  0  0
    1.6331   -0.2922   -0.6029 C   0  0  0  0  0  0  0  0  0  0  0  0
    2.1084   -0.0994   -1.7084 O   0  0  0  0  0  0  0  0  0  0  0  0
    0.4241    0.4892   -0.2252 C   0  0  0  0  0  0  0  0  0  0  0  0
    0.5394    1.9541   -0.5790 C   0  0  0  0  0  0  0  0  0  0  0  0
   -0.8047   -0.1815   -0.7965 C   0  0  0  0  0  0  0  0  0  0  0  0
   -1.0863   -0.5989    0.6316 C   0  0  0  0  0  0  0  0  0  0  0  0
   -2.4817   -0.1579    1.0189 C   0  0  0  0  0  0  0  0  0  0  0  0
   -0.0655    0.2243    1.0412 O   0  0  0  0  0  0  0  0  0  0  0  0
    2.6677   -0.7925    1.2265 H   0  0  0  0  0  0  0  0  0  0  0  0
    1.4785   -2.0416    0.5699 H   0  0  0  0  0  0  0  0  0  0  0  0
    3.1052   -1.7774   -0.2002 H   0  0  0  0  0  0  0  0  0  0  0  0
    0.6631    2.5272    0.3417 H   0  0  0  0  0  0  0  0  0  0  0  0
   -0.3166    2.3046   -1.2067 H   0  0  0  0  0  0  0  0  0  0  0  0
    1.4429    2.0978   -1.2402 H   0  0  0  0  0  0  0  0  0  0  0  0
   -0.6182   -1.0657   -1.4224 H   0  0  0  0  0  0  0  0  0  0  0  0
   -1.5228    0.5375   -1.2121 H   0  0  0  0  0  0  0  0  0  0  0  0
   -0.8729   -1.6570    0.8558 H   0  0  0  0  0  0  0  0  0  0  0  0
   -3.1723   -0.9834    0.6785 H   0  0  0  0  0  0  0  0  0  0  0  0
   -2.7976    0.7317    0.4337 H   0  0  0  0  0  0  0  0  0  0  0  0
   -2.5855    0.0610    2.0826 H   0  0  0  0  0  0  0  0  0  0  0  0
  1  2  1  0
  2  3  2  0
  2  4  1  0
  4  5  1  0
  4  6  1  0
  6  7  1  0
  7  8  1  0
  7  9  1  0
  9  4  1  0
  1 10  1  0
  1 11  1  0
  1 12  1  0
  5 13  1  0
  5 14  1  0
  5 15  1  0
  6 16  1  0
  6 17  1  0
  7 18  1  0
  8 19  1  0
  8 20  1  0
  8 21  1  0
M  END
