
     RDKit          3D

 19 20  0  0  0  0  0  0  0  0999 V2000
    2.7341    0.0744   -0.2499 C   0  0  0  0  0  0  0  0  0  0  0  0
    1.2970    0.4390   -0.2053 C   0  0  0  0  0  0  0  0  0  0  0  0
    0.9472    1.4919   -0.6783 O   0  0  0  0  0  0  0  0  0  0  0  0
    0.3125   -0.4659    0.4047 C   0  0  0  0  0  0  0  0  0  0  0  0
    0.8841   -1.6456    0.9512 O   0  0  0  0  0  0  0  0  0  0  0  0
   -0.9149   -0.0163    1.0603 C   0  0  0  0  0  0  0  0  0  0  0  0
   -1.8324    1.0008    0.4744 C   0  0  0  0  0  0  0  0  0  0  0  0
   -1.6786    0.4397   -0.9078 C   0  0  0  0  0  0  0  0  0  0  0  0
   -0.9344   -0.7179   -0.3165 C   0  0  0  0  0  0  0  0  0  0  0  0
    3.2012    0.0714    0.7515 H   0  0  0  0  0  0  0  0  0  0  0  0
    3.2862    0.7401   -0.9598 H   0  0  0  0  0  0  0  0  0  0  0  0
    2.7762   -0.9731   -0.6645 H   0  0  0  0  0  0  0  0  0  0  0  0
    0.7796   -2.3385    0.2533 H   0  0  0  0  0  0  0  0  0  0  0  0
   -1.2857   -0.5652    1.9270 H   0  0  0  0  0  0  0  0  0  0  0  0
   -1.5320    2.0612    0.5904 H   0  0  0  0  0  0  0  0  0  0  0  0
   -2.8792    0.8803    0.8280 H   0  0  0  0  0  0  0  0  0  0  0  0
   -2.6515    0.1640   -1.3970 H   0  0  0  0  0  0  0  0  0  0  0  0
   -1.0785    1.0802   -1.5649 H   0  0  0  0  0  0  0  0  0  0  0  0
   -1.4308   -1.7205   -0.2968 H   0  0  0  0  0  0  0  0  0  0  0  0
  1  2  1  0
  2  3  2  0
  2  4  1  0
  4  5  1  0
  4  6  1  0
  6  7  1  0
  7  8  1  0
  8  9  1  0
  9  4  1  0
  9  6  1  0
  1 10  1  0
  1 11  1  0
  1 12  1  0
  5 13  1  0
  6 14  1  0
  7 15  1  0
  7 16  1  0
  8 17  1  0
  8 18  1  0
  9 19  1  0
M  END
