
     RDKit          3D

 19 19  0  0  0  0  0  0  0  0999 V2000
    2.5259    0.5944   -0.5221 C   0  0  0  0  0  0  0  0  0  0  0  0
    1.0760    0.7715   -0.2341 C   0  0  0  0  0  0  0  0  0  0  0  0
    0.5749    1.8473   -0.5149 O   0  0  0  0  0  0  0  0  0  0  0  0
    0.2530   -0.3100    0.3725 C   0  0  0  0  0  0  0  0  0  0  0  0
    0.9588   -1.4980    0.6451 O   0  0  0  0  0  0  0  0  0  0  0  0
   -0.7984    0.0215    1.3684 C   0  0  0  0  0  0  0  0  0  0  0  0
   -1.1652   -0.4354   -0.0068 C   0  0  0  0  0  0  0  0  0  0  0  0
   -1.8574    0.6000   -0.8565 C   0  0  0  0  0  0  0  0  0  0  0  0
   -1.6352   -1.7412   -0.1930 O   0  0  0  0  0  0  0  0  0  0  0  0
    2.8603    1.0934   -1.4299 H   0  0  0  0  0  0  0  0  0  0  0  0
    3.1254    1.0431    0.3224 H   0  0  0  0  0  0  0  0  0  0  0  0
    2.7944   -0.4893   -0.6306 H   0  0  0  0  0  0  0  0  0  0  0  0
    0.4379   -2.0666    1.2616 H   0  0  0  0  0  0  0  0  0  0  0  0
   -0.9987    1.0711    1.6610 H   0  0  0  0  0  0  0  0  0  0  0  0
   -1.0180   -0.7051    2.1776 H   0  0  0  0  0  0  0  0  0  0  0  0
   -2.9597    0.3837   -0.7818 H   0  0  0  0  0  0  0  0  0  0  0  0
   -1.5579    0.5565   -1.9035 H   0  0  0  0  0  0  0  0  0  0  0  0
   -1.7568    1.6303   -0.4090 H   0  0  0  0  0  0  0  0  0  0  0  0
   -0.8591   -2.3673   -0.3265 H   0  0  0  0  0  0  0  0  0  0  0  0
  1  2  1  0
  2  3  2  0
  2  4  1  0
  4  5  1  0
  4  6  1  0
  6  7  1  0
  7  8  1  0
  7  9  1  0
  7  4  1  0
  1 10  1  0
  1 11  1  0
  1 12  1  0
  5 13  1  0
  6 14  1  0
  6 15  1  0
  8 16  1  0
  8 17  1  0
  8 18  1  0
  9 19  1  0
M  END
