
     RDKit          3D

 19 19  0  0  0  0  0  0  0  0999 V2000
    2.4598    0.7493    0.2718 C   0  0  0  0  0  0  0  0  0  0  0  0
    1.7380   -0.4520   -0.2049 C   0  0  0  0  0  0  0  0  0  0  0  0
    2.3644   -1.3567   -0.7228 O   0  0  0  0  0  0  0  0  0  0  0  0
    0.2581   -0.6029   -0.0761 C   0  0  0  0  0  0  0  0  0  0  0  0
   -0.4142    0.5773    0.5805 C   0  0  0  0  0  0  0  0  0  0  0  0
   -1.8931    0.2971    0.6474 C   0  0  0  0  0  0  0  0  0  0  0  0
   -2.5815    1.3705    1.2566 O   0  0  0  0  0  0  0  0  0  0  0  0
   -0.3930   -1.4516   -1.0251 C   0  0  0  0  0  0  0  0  0  0  0  0
   -0.2296   -1.8250    0.4209 O   0  0  0  0  0  0  0  0  0  0  0  0
    2.9495    1.2719   -0.5746 H   0  0  0  0  0  0  0  0  0  0  0  0
    3.2849    0.4770    0.9792 H   0  0  0  0  0  0  0  0  0  0  0  0
    1.7098    1.4036    0.7626 H   0  0  0  0  0  0  0  0  0  0  0  0
   -0.1902    1.5121    0.0205 H   0  0  0  0  0  0  0  0  0  0  0  0
   -0.0701    0.6800    1.6478 H   0  0  0  0  0  0  0  0  0  0  0  0
   -2.0396   -0.5731    1.3198 H   0  0  0  0  0  0  0  0  0  0  0  0
   -2.3324    0.0623   -0.3426 H   0  0  0  0  0  0  0  0  0  0  0  0
   -3.4320    1.5119    0.7745 H   0  0  0  0  0  0  0  0  0  0  0  0
    0.2411   -2.1883   -1.5794 H   0  0  0  0  0  0  0  0  0  0  0  0
   -1.4297   -1.4635   -1.3425 H   0  0  0  0  0  0  0  0  0  0  0  0
  1  2  1  0
  2  3  2  0
  2  4  1  0
  4  5  1  0
  5  6  1  0
  6  7  1  0
  4  8  1  0
  8  9  1  0
  9  4  1  0
  1 10  1  0
  1 11  1  0
  1 12  1  0
  5 13  1  0
  5 14  1  0
  6 15  1  0
  6 16  1  0
  7 17  1  0
  8 18  1  0
  8 19  1  0
M  END
