
     RDKit          3D

 21 21  0  0  0  0  0  0  0  0999 V2000
    2.8354   -0.2200    0.9479 C   0  0  0  0  0  0  0  0  0  0  0  0
    1.4323    0.2652    0.9033 C   0  0  0  0  0  0  0  0  0  0  0  0
    1.0591    0.9592    1.8295 O   0  0  0  0  0  0  0  0  0  0  0  0
    0.5670   -0.1063   -0.2377 C   0  0  0  0  0  0  0  0  0  0  0  0
   -0.5594    0.7342   -0.6644 C   0  0  0  0  0  0  0  0  0  0  0  0
   -0.7856    2.1014   -0.0557 C   0  0  0  0  0  0  0  0  0  0  0  0
   -0.8688   -0.4593    0.1948 C   0  0  0  0  0  0  0  0  0  0  0  0
   -1.4193   -1.7164   -0.4553 C   0  0  0  0  0  0  0  0  0  0  0  0
   -2.7093   -1.9887   -0.0342 O   0  0  0  0  0  0  0  0  0  0  0  0
    3.2595   -0.1183   -0.0943 H   0  0  0  0  0  0  0  0  0  0  0  0
    2.8803   -1.3287    1.1561 H   0  0  0  0  0  0  0  0  0  0  0  0
    3.4598    0.3366    1.6694 H   0  0  0  0  0  0  0  0  0  0  0  0
    1.0234   -0.7442   -1.0204 H   0  0  0  0  0  0  0  0  0  0  0  0
   -0.9225    0.6505   -1.6987 H   0  0  0  0  0  0  0  0  0  0  0  0
    0.0784    2.7753   -0.1907 H   0  0  0  0  0  0  0  0  0  0  0  0
   -1.6525    2.5891   -0.5446 H   0  0  0  0  0  0  0  0  0  0  0  0
   -1.0601    1.9824    1.0190 H   0  0  0  0  0  0  0  0  0  0  0  0
   -1.1727   -0.2552    1.2204 H   0  0  0  0  0  0  0  0  0  0  0  0
   -0.7582   -2.5526   -0.1242 H   0  0  0  0  0  0  0  0  0  0  0  0
   -1.3504   -1.6207   -1.5628 H   0  0  0  0  0  0  0  0  0  0  0  0
   -3.3366   -1.2833   -0.3364 H   0  0  0  0  0  0  0  0  0  0  0  0
  1  2  1  0
  2  3  2  0
  2  4  1  0
  4  5  1  0
  5  6  1  0
  5  7  1  0
  7  8  1  0
  8  9  1  0
  7  4  1  0
  1 10  1  0
  1 11  1  0
  1 12  1  0
  4 13  1  0
  5 14  1  0
  6 15  1  0
  6 16  1  0
  6 17  1  0
  7 18  1  0
  8 19  1  0
  8 20  1  0
  9 21  1  0
M  END
