
     RDKit          3D

 23 23  0  0  0  0  0  0  0  0999 V2000
    3.3969   -0.5693    0.0271 C   0  0  0  0  0  0  0  0  0  0  0  0
    2.2654    0.4013    0.0608 C   0  0  0  0  0  0  0  0  0  0  0  0
    2.4570    1.4757   -0.4827 O   0  0  0  0  0  0  0  0  0  0  0  0
    0.9642    0.1463    0.6946 C   0  0  0  0  0  0  0  0  0  0  0  0
   -0.1278   -0.2316   -0.2686 C   0  0  0  0  0  0  0  0  0  0  0  0
   -1.4636   -0.4897    0.4214 C   0  0  0  0  0  0  0  0  0  0  0  0
   -2.2940   -1.6697    0.0277 C   0  0  0  0  0  0  0  0  0  0  0  0
   -1.2630    0.6080   -0.6164 C   0  0  0  0  0  0  0  0  0  0  0  0
   -1.4595    2.0074   -0.1209 C   0  0  0  0  0  0  0  0  0  0  0  0
    3.0667   -1.6071    0.2427 H   0  0  0  0  0  0  0  0  0  0  0  0
    3.8374   -0.5586   -0.9911 H   0  0  0  0  0  0  0  0  0  0  0  0
    4.2201   -0.2608    0.7116 H   0  0  0  0  0  0  0  0  0  0  0  0
    1.1096   -0.7282    1.3894 H   0  0  0  0  0  0  0  0  0  0  0  0
    0.6189    0.9691    1.3549 H   0  0  0  0  0  0  0  0  0  0  0  0
    0.1708   -1.0270   -1.0152 H   0  0  0  0  0  0  0  0  0  0  0  0
   -1.5840   -0.1858    1.4771 H   0  0  0  0  0  0  0  0  0  0  0  0
   -3.3550   -1.3006   -0.0847 H   0  0  0  0  0  0  0  0  0  0  0  0
   -2.2321   -2.4156    0.8365 H   0  0  0  0  0  0  0  0  0  0  0  0
   -1.9579   -2.0536   -0.9532 H   0  0  0  0  0  0  0  0  0  0  0  0
   -1.7699    0.4103   -1.5821 H   0  0  0  0  0  0  0  0  0  0  0  0
   -0.9666    2.1504    0.8626 H   0  0  0  0  0  0  0  0  0  0  0  0
   -1.0931    2.7364   -0.8826 H   0  0  0  0  0  0  0  0  0  0  0  0
   -2.5406    2.1925   -0.0239 H   0  0  0  0  0  0  0  0  0  0  0  0
  1  2  1  0
  2  3  2  0
  2  4  1  0
  4  5  1  0
  5  6  1  0
  6  7  1  0
  6  8  1  0
  8  9  1  0
  8  5  1  0
  1 10  1  0
  1 11  1  0
  1 12  1  0
  4 13  1  0
  4 14  1  0
  5 15  1  0
  6 16  1  0
  7 17  1  0
  7 18  1  0
  7 19  1  0
  8 20  1  0
  9 21  1  0
  9 22  1  0
  9 23  1  0
M  END
