
     RDKit          3D

 21 21  0  0  0  0  0  0  0  0999 V2000
    2.7831   -0.1123   -0.4236 C   0  0  0  0  0  0  0  0  0  0  0  0
    1.4514   -0.4201    0.1659 C   0  0  0  0  0  0  0  0  0  0  0  0
    1.4430   -1.1166    1.1693 O   0  0  0  0  0  0  0  0  0  0  0  0
    0.1811    0.0507   -0.3722 C   0  0  0  0  0  0  0  0  0  0  0  0
    0.0623    1.5557   -0.4260 C   0  0  0  0  0  0  0  0  0  0  0  0
   -1.3173    1.7264   -0.5286 O   0  0  0  0  0  0  0  0  0  0  0  0
   -1.8896    0.8454    0.3919 C   0  0  0  0  0  0  0  0  0  0  0  0
   -0.9467   -0.2875    0.5759 C   0  0  0  0  0  0  0  0  0  0  0  0
   -1.5059   -1.6222    0.1509 C   0  0  0  0  0  0  0  0  0  0  0  0
    3.4802   -0.9342   -0.2125 H   0  0  0  0  0  0  0  0  0  0  0  0
    3.1160    0.8577    0.0453 H   0  0  0  0  0  0  0  0  0  0  0  0
    2.7018    0.1110   -1.5201 H   0  0  0  0  0  0  0  0  0  0  0  0
   -0.0738   -0.3754   -1.3659 H   0  0  0  0  0  0  0  0  0  0  0  0
    0.4041    1.9825    0.5360 H   0  0  0  0  0  0  0  0  0  0  0  0
    0.5416    1.9902   -1.3107 H   0  0  0  0  0  0  0  0  0  0  0  0
   -2.0226    1.4511    1.3342 H   0  0  0  0  0  0  0  0  0  0  0  0
   -2.9066    0.5506    0.0900 H   0  0  0  0  0  0  0  0  0  0  0  0
   -0.5855   -0.3509    1.6323 H   0  0  0  0  0  0  0  0  0  0  0  0
   -2.6137   -1.5990    0.1617 H   0  0  0  0  0  0  0  0  0  0  0  0
   -1.0804   -2.4130    0.8027 H   0  0  0  0  0  0  0  0  0  0  0  0
   -1.2224   -1.8900   -0.8965 H   0  0  0  0  0  0  0  0  0  0  0  0
  1  2  1  0
  2  3  2  0
  2  4  1  0
  4  5  1  0
  5  6  1  0
  6  7  1  0
  7  8  1  0
  8  9  1  0
  8  4  1  0
  1 10  1  0
  1 11  1  0
  1 12  1  0
  4 13  1  0
  5 14  1  0
  5 15  1  0
  7 16  1  0
  7 17  1  0
  8 18  1  0
  9 19  1  0
  9 20  1  0
  9 21  1  0
M  END
