
     RDKit          3D

 21 22  0  0  0  0  0  0  0  0999 V2000
    3.3606    0.1060    0.3115 C   0  0  0  0  0  0  0  0  0  0  0  0
    2.0860   -0.3533   -0.3063 C   0  0  0  0  0  0  0  0  0  0  0  0
    2.1211   -1.4362   -0.8761 O   0  0  0  0  0  0  0  0  0  0  0  0
    0.8286    0.4662   -0.2340 C   0  0  0  0  0  0  0  0  0  0  0  0
   -0.2488   -0.2978   -0.9575 C   0  0  0  0  0  0  0  0  0  0  0  0
   -1.6277    0.2295   -1.0772 C   0  0  0  0  0  0  0  0  0  0  0  0
   -2.3409    0.8443    0.0750 C   0  0  0  0  0  0  0  0  0  0  0  0
   -2.0347   -0.3669    0.9083 C   0  0  0  0  0  0  0  0  0  0  0  0
   -1.3393   -0.9835   -0.2570 C   0  0  0  0  0  0  0  0  0  0  0  0
    4.0761    0.2719   -0.5405 H   0  0  0  0  0  0  0  0  0  0  0  0
    3.2644    1.0343    0.8808 H   0  0  0  0  0  0  0  0  0  0  0  0
    3.7548   -0.7207    0.9485 H   0  0  0  0  0  0  0  0  0  0  0  0
    0.9778    1.4203   -0.7948 H   0  0  0  0  0  0  0  0  0  0  0  0
    0.5792    0.6524    0.8373 H   0  0  0  0  0  0  0  0  0  0  0  0
    0.1295   -0.8115   -1.8795 H   0  0  0  0  0  0  0  0  0  0  0  0
   -2.1670    0.1360   -2.0396 H   0  0  0  0  0  0  0  0  0  0  0  0
   -3.4246    0.9724   -0.1420 H   0  0  0  0  0  0  0  0  0  0  0  0
   -1.9411    1.8018    0.4660 H   0  0  0  0  0  0  0  0  0  0  0  0
   -2.9589   -0.8960    1.2100 H   0  0  0  0  0  0  0  0  0  0  0  0
   -1.4152   -0.0802    1.7769 H   0  0  0  0  0  0  0  0  0  0  0  0
   -1.6802   -1.9890   -0.5886 H   0  0  0  0  0  0  0  0  0  0  0  0
  1  2  1  0
  2  3  2  0
  2  4  1  0
  4  5  1  0
  5  6  1  0
  6  7  1  0
  7  8  1  0
  8  9  1  0
  9  5  1  0
  9  6  1  0
  1 10  1  0
  1 11  1  0
  1 12  1  0
  4 13  1  0
  4 14  1  0
  5 15  1  0
  6 16  1  0
  7 17  1  0
  7 18  1  0
  8 19  1  0
  8 20  1  0
  9 21  1  0
M  END
