
     RDKit          3D

 17 17  0  0  0  0  0  0  0  0999 V2000
    2.3629    0.5504    0.5490 C   0  0  0  0  0  0  0  0  0  0  0  0
    1.2977   -0.4371    0.2949 C   0  0  0  0  0  0  0  0  0  0  0  0
    1.4208   -1.5471    0.7849 O   0  0  0  0  0  0  0  0  0  0  0  0
    0.0932   -0.1599   -0.5171 C   0  0  0  0  0  0  0  0  0  0  0  0
   -0.7920   -1.3448   -0.5912 C   0  0  0  0  0  0  0  0  0  0  0  0
   -2.0539   -1.0070   -0.3367 C   0  0  0  0  0  0  0  0  0  0  0  0
   -2.1292    0.4250   -0.0707 C   0  0  0  0  0  0  0  0  0  0  0  0
   -3.2126    1.0517    0.0396 O   0  0  0  0  0  0  0  0  0  0  0  0
   -0.7455    0.9579    0.0364 C   0  0  0  0  0  0  0  0  0  0  0  0
    2.0909    1.0700    1.5125 H   0  0  0  0  0  0  0  0  0  0  0  0
    3.3353    0.0389    0.6843 H   0  0  0  0  0  0  0  0  0  0  0  0
    2.4202    1.2692   -0.2947 H   0  0  0  0  0  0  0  0  0  0  0  0
    0.3779    0.0992   -1.5663 H   0  0  0  0  0  0  0  0  0  0  0  0
   -0.4144   -2.3344   -0.8251 H   0  0  0  0  0  0  0  0  0  0  0  0
   -2.8523   -1.7377   -0.3435 H   0  0  0  0  0  0  0  0  0  0  0  0
   -0.4887    1.2334    1.0759 H   0  0  0  0  0  0  0  0  0  0  0  0
   -0.7103    1.8724   -0.6240 H   0  0  0  0  0  0  0  0  0  0  0  0
  1  2  1  0
  2  3  2  0
  2  4  1  0
  4  5  1  0
  5  6  2  0
  6  7  1  0
  7  8  2  0
  7  9  1  0
  9  4  1  0
  1 10  1  0
  1 11  1  0
  1 12  1  0
  4 13  1  0
  5 14  1  0
  6 15  1  0
  9 16  1  0
  9 17  1  0
M  END
