
     RDKit          3D

 21 21  0  0  0  0  0  0  0  0999 V2000
   -1.7597   -1.5793    0.4481 C   0  0  0  0  0  0  0  0  0  0  0  0
   -1.6049   -0.0973    0.5209 C   0  0  0  0  0  0  0  0  0  0  0  0
   -2.1124    0.4708    1.4707 O   0  0  0  0  0  0  0  0  0  0  0  0
   -0.8811    0.6930   -0.4832 C   0  0  0  0  0  0  0  0  0  0  0  0
   -0.9294    2.1616   -0.1027 C   0  0  0  0  0  0  0  0  0  0  0  0
    0.5893    0.3512   -0.5758 C   0  0  0  0  0  0  0  0  0  0  0  0
    1.1725    0.6236    0.7682 O   0  0  0  0  0  0  0  0  0  0  0  0
    1.2968   -0.6070    0.1509 C   0  0  0  0  0  0  0  0  0  0  0  0
    2.7281   -0.9187   -0.2820 C   0  0  0  0  0  0  0  0  0  0  0  0
   -1.4156   -1.9829    1.4113 H   0  0  0  0  0  0  0  0  0  0  0  0
   -2.8560   -1.8499    0.3942 H   0  0  0  0  0  0  0  0  0  0  0  0
   -1.2956   -2.0054   -0.4391 H   0  0  0  0  0  0  0  0  0  0  0  0
   -1.3835    0.6305   -1.4791 H   0  0  0  0  0  0  0  0  0  0  0  0
   -0.3850    2.3264    0.8670 H   0  0  0  0  0  0  0  0  0  0  0  0
   -0.4387    2.8046   -0.8388 H   0  0  0  0  0  0  0  0  0  0  0  0
   -1.9727    2.4935    0.0698 H   0  0  0  0  0  0  0  0  0  0  0  0
    1.1077    0.9749   -1.3572 H   0  0  0  0  0  0  0  0  0  0  0  0
    0.7928   -1.4947    0.6192 H   0  0  0  0  0  0  0  0  0  0  0  0
    3.4477   -0.1565    0.0816 H   0  0  0  0  0  0  0  0  0  0  0  0
    2.8204   -0.9495   -1.3765 H   0  0  0  0  0  0  0  0  0  0  0  0
    3.0793   -1.8888    0.1326 H   0  0  0  0  0  0  0  0  0  0  0  0
  1  2  1  0
  2  3  2  0
  2  4  1  0
  4  5  1  0
  4  6  1  0
  6  7  1  0
  7  8  1  0
  8  9  1  0
  8  6  1  0
  1 10  1  0
  1 11  1  0
  1 12  1  0
  4 13  1  0
  5 14  1  0
  5 15  1  0
  5 16  1  0
  6 17  1  0
  8 18  1  0
  9 19  1  0
  9 20  1  0
  9 21  1  0
M  END
