
     RDKit          3D

 16 16  0  0  0  0  0  0  0  0999 V2000
    2.0395    0.3479    0.0512 C   0  0  0  0  0  0  0  0  0  0  0  0
    0.9682   -0.3754   -0.6797 C   0  0  0  0  0  0  0  0  0  0  0  0
    1.1344   -0.6647   -1.7760 O   0  0  0  0  0  0  0  0  0  0  0  0
   -0.2750   -0.6878    0.1139 C   0  0  0  0  0  0  0  0  0  0  0  0
    0.0649   -1.4011    1.2383 O   0  0  0  0  0  0  0  0  0  0  0  0
   -1.0866    0.5535    0.5046 C   0  0  0  0  0  0  0  0  0  0  0  0
   -1.6144   -0.4635   -0.3689 C   0  0  0  0  0  0  0  0  0  0  0  0
   -1.9076   -0.0155   -1.6889 O   0  0  0  0  0  0  0  0  0  0  0  0
    2.7981    0.8153   -0.6625 H   0  0  0  0  0  0  0  0  0  0  0  0
    1.5847    1.2210    0.5487 H   0  0  0  0  0  0  0  0  0  0  0  0
    2.5648   -0.2408    0.7666 H   0  0  0  0  0  0  0  0  0  0  0  0
   -0.0480   -0.8792    2.0300 H   0  0  0  0  0  0  0  0  0  0  0  0
   -1.5298    0.5435    1.5580 H   0  0  0  0  0  0  0  0  0  0  0  0
   -0.6608    1.4853    0.1797 H   0  0  0  0  0  0  0  0  0  0  0  0
   -2.4062   -1.1783   -0.0149 H   0  0  0  0  0  0  0  0  0  0  0  0
   -1.6263    0.9399   -1.8000 H   0  0  0  0  0  0  0  0  0  0  0  0
  1  2  1  0
  2  3  2  0
  2  4  1  0
  4  5  1  0
  4  6  1  0
  6  7  1  0
  7  8  1  0
  7  4  1  0
  1  9  1  0
  1 10  1  0
  1 11  1  0
  5 12  1  0
  6 13  1  0
  6 14  1  0
  7 15  1  0
  8 16  1  0
M  END
