
     RDKit          3D

 17 17  0  0  0  0  0  0  0  0999 V2000
   -2.6448    0.7561    0.2680 C   0  0  0  0  0  0  0  0  0  0  0  0
   -1.2753    0.5130   -0.2468 C   0  0  0  0  0  0  0  0  0  0  0  0
   -0.8220    1.2182   -1.1290 O   0  0  0  0  0  0  0  0  0  0  0  0
   -0.4706   -0.5730    0.3054 C   0  0  0  0  0  0  0  0  0  0  0  0
    0.3097   -1.3510   -0.7605 C   0  0  0  0  0  0  0  0  0  0  0  0
    1.0088   -0.5481    0.3131 C   0  0  0  0  0  0  0  0  0  0  0  0
    1.7317    0.5564   -0.1687 O   0  0  0  0  0  0  0  0  0  0  0  0
    2.9985    0.8890    0.3146 C   0  0  0  0  0  0  0  0  0  0  0  0
    3.4666    0.1401    1.2152 O   0  0  0  0  0  0  0  0  0  0  0  0
   -3.2658    1.3359   -0.4453 H   0  0  0  0  0  0  0  0  0  0  0  0
   -3.2031   -0.2053    0.4388 H   0  0  0  0  0  0  0  0  0  0  0  0
   -2.5803    1.2584    1.2519 H   0  0  0  0  0  0  0  0  0  0  0  0
   -0.9584   -1.1698    1.1080 H   0  0  0  0  0  0  0  0  0  0  0  0
    0.3202   -0.9765   -1.7911 H   0  0  0  0  0  0  0  0  0  0  0  0
    0.3014   -2.4574   -0.6914 H   0  0  0  0  0  0  0  0  0  0  0  0
    1.5293   -1.1269    1.1042 H   0  0  0  0  0  0  0  0  0  0  0  0
    3.5542    1.7409   -0.0581 H   0  0  0  0  0  0  0  0  0  0  0  0
  1  2  1  0
  2  3  2  0
  2  4  1  0
  4  5  1  0
  5  6  1  0
  6  7  1  0
  7  8  1  0
  8  9  2  0
  6  4  1  0
  1 10  1  0
  1 11  1  0
  1 12  1  0
  4 13  1  0
  5 14  1  0
  5 15  1  0
  6 16  1  0
  8 17  1  0
M  END
