
     RDKit          3D

 21 21  0  0  0  0  0  0  0  0999 V2000
   -2.7449   -0.4956    0.2463 C   0  0  0  0  0  0  0  0  0  0  0  0
   -1.7386    0.6071    0.2479 C   0  0  0  0  0  0  0  0  0  0  0  0
   -1.9133    1.5835    0.9500 O   0  0  0  0  0  0  0  0  0  0  0  0
   -0.5140    0.5661   -0.5818 C   0  0  0  0  0  0  0  0  0  0  0  0
    0.2058    1.7176   -0.3620 O   0  0  0  0  0  0  0  0  0  0  0  0
    0.2360   -0.7034   -0.4995 C   0  0  0  0  0  0  0  0  0  0  0  0
    0.8078   -1.2583    0.7372 C   0  0  0  0  0  0  0  0  0  0  0  0
    1.7270   -0.6007   -0.3471 C   0  0  0  0  0  0  0  0  0  0  0  0
    2.3966    0.6826    0.0738 C   0  0  0  0  0  0  0  0  0  0  0  0
   -2.5686   -1.1087   -0.6584 H   0  0  0  0  0  0  0  0  0  0  0  0
   -2.6828   -1.0705    1.1797 H   0  0  0  0  0  0  0  0  0  0  0  0
   -3.7527   -0.0508    0.1828 H   0  0  0  0  0  0  0  0  0  0  0  0
   -0.8904    0.6665   -1.6509 H   0  0  0  0  0  0  0  0  0  0  0  0
   -0.4216    2.4613   -0.1851 H   0  0  0  0  0  0  0  0  0  0  0  0
   -0.0805   -1.4756   -1.2509 H   0  0  0  0  0  0  0  0  0  0  0  0
    0.7943   -0.7360    1.7008 H   0  0  0  0  0  0  0  0  0  0  0  0
    0.8902   -2.3582    0.8344 H   0  0  0  0  0  0  0  0  0  0  0  0
    2.3693   -1.3469   -0.8800 H   0  0  0  0  0  0  0  0  0  0  0  0
    2.4679    1.4327   -0.7594 H   0  0  0  0  0  0  0  0  0  0  0  0
    3.4485    0.4029    0.3650 H   0  0  0  0  0  0  0  0  0  0  0  0
    1.9640    1.0844    1.0023 H   0  0  0  0  0  0  0  0  0  0  0  0
  1  2  1  0
  2  3  2  0
  2  4  1  0
  4  5  1  0
  4  6  1  0
  6  7  1  0
  7  8  1  0
  8  9  1  0
  8  6  1  0
  1 10  1  0
  1 11  1  0
  1 12  1  0
  4 13  1  0
  5 14  1  0
  6 15  1  0
  7 16  1  0
  7 17  1  0
  8 18  1  0
  9 19  1  0
  9 20  1  0
  9 21  1  0
M  END
