
     RDKit          3D

 19 20  0  0  0  0  0  0  0  0999 V2000
    2.6337    0.0081    0.3065 C   0  0  0  0  0  0  0  0  0  0  0  0
    1.3759    0.7731    0.1089 C   0  0  0  0  0  0  0  0  0  0  0  0
    1.3403    1.9389    0.4489 O   0  0  0  0  0  0  0  0  0  0  0  0
    0.1645    0.1487   -0.4926 C   0  0  0  0  0  0  0  0  0  0  0  0
   -0.2368   -1.0080    0.3918 C   0  0  0  0  0  0  0  0  0  0  0  0
   -1.7215   -1.1358    0.1720 C   0  0  0  0  0  0  0  0  0  0  0  0
   -2.2764   -0.8546   -1.0515 O   0  0  0  0  0  0  0  0  0  0  0  0
   -2.2017    0.1805   -0.0871 C   0  0  0  0  0  0  0  0  0  0  0  0
   -1.0147    1.0862   -0.3500 C   0  0  0  0  0  0  0  0  0  0  0  0
    2.6985   -0.4536    1.3184 H   0  0  0  0  0  0  0  0  0  0  0  0
    2.7121   -0.8089   -0.4682 H   0  0  0  0  0  0  0  0  0  0  0  0
    3.4743    0.7205    0.1878 H   0  0  0  0  0  0  0  0  0  0  0  0
    0.3186   -0.1638   -1.5425 H   0  0  0  0  0  0  0  0  0  0  0  0
   -0.0978   -0.6677    1.4450 H   0  0  0  0  0  0  0  0  0  0  0  0
    0.3260   -1.9233    0.2117 H   0  0  0  0  0  0  0  0  0  0  0  0
   -2.2526   -1.8940    0.7613 H   0  0  0  0  0  0  0  0  0  0  0  0
   -3.1336    0.6368    0.2612 H   0  0  0  0  0  0  0  0  0  0  0  0
   -0.8685    1.8239    0.4648 H   0  0  0  0  0  0  0  0  0  0  0  0
   -1.2404    1.5928   -1.3320 H   0  0  0  0  0  0  0  0  0  0  0  0
  1  2  1  0
  2  3  2  0
  2  4  1  0
  4  5  1  0
  5  6  1  0
  6  7  1  0
  7  8  1  0
  8  9  1  0
  9  4  1  0
  8  6  1  0
  1 10  1  0
  1 11  1  0
  1 12  1  0
  4 13  1  0
  5 14  1  0
  5 15  1  0
  6 16  1  0
  8 17  1  0
  9 18  1  0
  9 19  1  0
M  END
