
     RDKit          3D

 21 22  0  0  0  0  0  0  0  0999 V2000
    2.7602    0.4205    0.6727 C   0  0  0  0  0  0  0  0  0  0  0  0
    1.7255   -0.4831    0.0974 C   0  0  0  0  0  0  0  0  0  0  0  0
    1.9338   -1.6696    0.1419 O   0  0  0  0  0  0  0  0  0  0  0  0
    0.5296    0.1269   -0.4813 C   0  0  0  0  0  0  0  0  0  0  0  0
   -0.4466   -0.9296   -1.0346 C   0  0  0  0  0  0  0  0  0  0  0  0
   -1.5136   -0.8639   -0.0172 C   0  0  0  0  0  0  0  0  0  0  0  0
   -2.7135   -0.1506    0.1156 C   0  0  0  0  0  0  0  0  0  0  0  0
   -1.6273    0.7158   -0.0652 C   0  0  0  0  0  0  0  0  0  0  0  0
   -0.3021    0.8912    0.5704 C   0  0  0  0  0  0  0  0  0  0  0  0
    2.6475    0.5722    1.7584 H   0  0  0  0  0  0  0  0  0  0  0  0
    3.7759    0.0016    0.4846 H   0  0  0  0  0  0  0  0  0  0  0  0
    2.7309    1.4408    0.1933 H   0  0  0  0  0  0  0  0  0  0  0  0
    0.7691    0.8634   -1.2618 H   0  0  0  0  0  0  0  0  0  0  0  0
    0.0926   -1.9164   -0.9938 H   0  0  0  0  0  0  0  0  0  0  0  0
   -0.7563   -0.6947   -2.0575 H   0  0  0  0  0  0  0  0  0  0  0  0
   -1.1070   -1.2900    0.9534 H   0  0  0  0  0  0  0  0  0  0  0  0
   -3.2575   -0.1324    1.0955 H   0  0  0  0  0  0  0  0  0  0  0  0
   -3.4869   -0.2700   -0.6998 H   0  0  0  0  0  0  0  0  0  0  0  0
   -1.5544    1.1680   -1.1070 H   0  0  0  0  0  0  0  0  0  0  0  0
    0.0477    1.9151    0.6924 H   0  0  0  0  0  0  0  0  0  0  0  0
   -0.2477    0.2849    1.5149 H   0  0  0  0  0  0  0  0  0  0  0  0
  1  2  1  0
  2  3  2  0
  2  4  1  0
  4  5  1  0
  5  6  1  0
  6  7  1  0
  7  8  1  0
  8  9  1  0
  9  4  1  0
  8  6  1  0
  1 10  1  0
  1 11  1  0
  1 12  1  0
  4 13  1  0
  5 14  1  0
  5 15  1  0
  6 16  1  0
  7 17  1  0
  7 18  1  0
  8 19  1  0
  9 20  1  0
  9 21  1  0
M  END
