
     RDKit          3D

 19 20  0  0  0  0  0  0  0  0999 V2000
    2.3132    1.3324   -0.4569 C   0  0  0  0  0  0  0  0  0  0  0  0
    1.7390    0.0406    0.0066 C   0  0  0  0  0  0  0  0  0  0  0  0
    2.4763   -0.6426    0.7027 O   0  0  0  0  0  0  0  0  0  0  0  0
    0.4211   -0.4643   -0.2862 C   0  0  0  0  0  0  0  0  0  0  0  0
    0.2111   -1.9858   -0.1061 C   0  0  0  0  0  0  0  0  0  0  0  0
   -0.5891   -0.9466    0.6072 C   0  0  0  0  0  0  0  0  0  0  0  0
   -1.5785   -0.2165   -0.2635 C   0  0  0  0  0  0  0  0  0  0  0  0
   -2.3155    0.9010    0.4271 C   0  0  0  0  0  0  0  0  0  0  0  0
   -0.5024    0.2134   -1.0519 O   0  0  0  0  0  0  0  0  0  0  0  0
    3.1239    1.1448   -1.1963 H   0  0  0  0  0  0  0  0  0  0  0  0
    1.5763    1.9773   -0.9579 H   0  0  0  0  0  0  0  0  0  0  0  0
    2.7795    1.9082    0.3934 H   0  0  0  0  0  0  0  0  0  0  0  0
    0.9748   -2.4915    0.4931 H   0  0  0  0  0  0  0  0  0  0  0  0
   -0.1641   -2.4819   -1.0030 H   0  0  0  0  0  0  0  0  0  0  0  0
   -0.6214   -0.8711    1.6930 H   0  0  0  0  0  0  0  0  0  0  0  0
   -2.2365   -0.9121   -0.8246 H   0  0  0  0  0  0  0  0  0  0  0  0
   -2.5314    1.7595   -0.2538 H   0  0  0  0  0  0  0  0  0  0  0  0
   -3.3195    0.5223    0.7416 H   0  0  0  0  0  0  0  0  0  0  0  0
   -1.7568    1.2130    1.3356 H   0  0  0  0  0  0  0  0  0  0  0  0
  1  2  1  0
  2  3  2  0
  2  4  1  0
  4  5  1  0
  5  6  1  0
  6  7  1  0
  7  8  1  0
  7  9  1  0
  6  4  1  0
  9  4  1  0
  1 10  1  0
  1 11  1  0
  1 12  1  0
  5 13  1  0
  5 14  1  0
  6 15  1  0
  7 16  1  0
  8 17  1  0
  8 18  1  0
  8 19  1  0
M  END
