
     RDKit          3D

 17 19  0  0  0  0  0  0  0  0999 V2000
    2.7597   -0.0300   -0.5003 C   0  0  0  0  0  0  0  0  0  0  0  0
    1.3169    0.1718   -0.7394 C   0  0  0  0  0  0  0  0  0  0  0  0
    0.9788    0.6660   -1.8122 O   0  0  0  0  0  0  0  0  0  0  0  0
    0.3221   -0.2163    0.2956 C   0  0  0  0  0  0  0  0  0  0  0  0
   -0.8338    0.6098    0.6134 C   0  0  0  0  0  0  0  0  0  0  0  0
   -2.2542    0.1803    0.8452 C   0  0  0  0  0  0  0  0  0  0  0  0
   -3.2612    0.2377   -0.0286 O   0  0  0  0  0  0  0  0  0  0  0  0
   -2.1286    0.0091   -0.6993 C   0  0  0  0  0  0  0  0  0  0  0  0
   -0.9232   -0.7458   -0.2038 C   0  0  0  0  0  0  0  0  0  0  0  0
    3.0150    0.2207    0.5503 H   0  0  0  0  0  0  0  0  0  0  0  0
    3.4004    0.5856   -1.1589 H   0  0  0  0  0  0  0  0  0  0  0  0
    2.9894   -1.0993   -0.7408 H   0  0  0  0  0  0  0  0  0  0  0  0
    0.8179   -0.6516    1.2104 H   0  0  0  0  0  0  0  0  0  0  0  0
   -0.8494    1.5413   -0.0299 H   0  0  0  0  0  0  0  0  0  0  0  0
   -2.2746   -0.7813    1.4394 H   0  0  0  0  0  0  0  0  0  0  0  0
   -1.7851    0.9299   -1.2593 H   0  0  0  0  0  0  0  0  0  0  0  0
   -1.2901   -1.6280    0.4051 H   0  0  0  0  0  0  0  0  0  0  0  0
  1  2  1  0
  2  3  2  0
  2  4  1  0
  4  5  1  0
  5  6  1  0
  6  7  1  0
  7  8  1  0
  8  9  1  0
  9  4  1  0
  9  5  1  0
  8  6  1  0
  1 10  1  0
  1 11  1  0
  1 12  1  0
  4 13  1  0
  5 14  1  0
  6 15  1  0
  8 16  1  0
  9 17  1  0
M  END
