
     RDKit          3D

 20 20  0  0  0  0  0  0  0  0999 V2000
    2.7973   -0.7499   -0.0159 C   0  0  0  0  0  0  0  0  0  0  0  0
    1.6014   -0.1769   -0.6859 C   0  0  0  0  0  0  0  0  0  0  0  0
    1.7304    0.3038   -1.8118 O   0  0  0  0  0  0  0  0  0  0  0  0
    0.3122   -0.1988    0.0049 C   0  0  0  0  0  0  0  0  0  0  0  0
   -0.9735   -0.2632   -0.7767 C   0  0  0  0  0  0  0  0  0  0  0  0
   -2.0583   -1.0887   -0.1831 C   0  0  0  0  0  0  0  0  0  0  0  0
   -0.5508    1.0380   -0.2694 C   0  0  0  0  0  0  0  0  0  0  0  0
   -1.0601    1.6570    0.9918 C   0  0  0  0  0  0  0  0  0  0  0  0
    2.8269   -0.4925    1.0796 H   0  0  0  0  0  0  0  0  0  0  0  0
    3.7520   -0.3491   -0.4253 H   0  0  0  0  0  0  0  0  0  0  0  0
    2.7550   -1.8653   -0.0696 H   0  0  0  0  0  0  0  0  0  0  0  0
    0.2988   -0.6472    1.0022 H   0  0  0  0  0  0  0  0  0  0  0  0
   -0.8001   -0.4444   -1.8708 H   0  0  0  0  0  0  0  0  0  0  0  0
   -2.9393   -0.5117    0.1547 H   0  0  0  0  0  0  0  0  0  0  0  0
   -2.4329   -1.8531   -0.8899 H   0  0  0  0  0  0  0  0  0  0  0  0
   -1.7132   -1.6727    0.7188 H   0  0  0  0  0  0  0  0  0  0  0  0
   -0.1664    1.7938   -1.0011 H   0  0  0  0  0  0  0  0  0  0  0  0
   -1.5547    0.9339    1.6670 H   0  0  0  0  0  0  0  0  0  0  0  0
   -0.1519    2.0186    1.5588 H   0  0  0  0  0  0  0  0  0  0  0  0
   -1.6727    2.5683    0.8216 H   0  0  0  0  0  0  0  0  0  0  0  0
  1  2  1  0
  2  3  2  0
  2  4  1  0
  4  5  1  0
  5  6  1  0
  5  7  1  0
  7  8  1  0
  7  4  1  0
  1  9  1  0
  1 10  1  0
  1 11  1  0
  4 12  1  0
  5 13  1  0
  6 14  1  0
  6 15  1  0
  6 16  1  0
  7 17  1  0
  8 18  1  0
  8 19  1  0
  8 20  1  0
M  END
