
     RDKit          3D

 19 19  0  0  0  0  0  0  0  0999 V2000
    2.7973    0.0411    0.0488 C   0  0  0  0  0  0  0  0  0  0  0  0
    1.4487   -0.6126    0.1247 C   0  0  0  0  0  0  0  0  0  0  0  0
    1.2916   -1.7719   -0.2390 O   0  0  0  0  0  0  0  0  0  0  0  0
    0.2667    0.1316    0.6444 C   0  0  0  0  0  0  0  0  0  0  0  0
    0.6399    1.4025    0.9984 O   0  0  0  0  0  0  0  0  0  0  0  0
   -0.8146    0.0596   -0.3860 C   0  0  0  0  0  0  0  0  0  0  0  0
   -2.1022    0.7462   -0.0682 C   0  0  0  0  0  0  0  0  0  0  0  0
   -2.7620   -0.3085   -0.7101 O   0  0  0  0  0  0  0  0  0  0  0  0
   -1.7560   -1.1382   -0.2052 C   0  0  0  0  0  0  0  0  0  0  0  0
    3.2602    0.1147    1.0549 H   0  0  0  0  0  0  0  0  0  0  0  0
    3.4665   -0.6362   -0.5379 H   0  0  0  0  0  0  0  0  0  0  0  0
    2.7415    1.0267   -0.4661 H   0  0  0  0  0  0  0  0  0  0  0  0
   -0.1042   -0.3776    1.5722 H   0  0  0  0  0  0  0  0  0  0  0  0
    0.2183    2.0612    0.3926 H   0  0  0  0  0  0  0  0  0  0  0  0
   -0.5309    0.1371   -1.4337 H   0  0  0  0  0  0  0  0  0  0  0  0
   -2.3795    0.7360    1.0070 H   0  0  0  0  0  0  0  0  0  0  0  0
   -2.2301    1.7294   -0.5654 H   0  0  0  0  0  0  0  0  0  0  0  0
   -1.4637   -1.9822   -0.8254 H   0  0  0  0  0  0  0  0  0  0  0  0
   -1.9875   -1.3589    0.8614 H   0  0  0  0  0  0  0  0  0  0  0  0
  1  2  1  0
  2  3  2  0
  2  4  1  0
  4  5  1  0
  4  6  1  0
  6  7  1  0
  7  8  1  0
  8  9  1  0
  9  6  1  0
  1 10  1  0
  1 11  1  0
  1 12  1  0
  4 13  1  0
  5 14  1  0
  6 15  1  0
  7 16  1  0
  7 17  1  0
  9 18  1  0
  9 19  1  0
M  END
