
     RDKit          3D

 17 17  0  0  0  0  0  0  0  0999 V2000
   -2.8604    0.1032   -0.0713 C   0  0  0  0  0  0  0  0  0  0  0  0
   -1.4506    0.4412    0.1943 C   0  0  0  0  0  0  0  0  0  0  0  0
   -1.1649    1.2062    1.0849 O   0  0  0  0  0  0  0  0  0  0  0  0
   -0.3800   -0.1494   -0.6221 C   0  0  0  0  0  0  0  0  0  0  0  0
    0.9910    0.3141   -0.2020 C   0  0  0  0  0  0  0  0  0  0  0  0
    1.9588   -0.2884   -1.0224 O   0  0  0  0  0  0  0  0  0  0  0  0
    2.8033   -0.2785    0.0933 C   0  0  0  0  0  0  0  0  0  0  0  0
    1.5830   -0.4030    0.9385 C   0  0  0  0  0  0  0  0  0  0  0  0
    1.3331   -0.8829    2.0179 O   0  0  0  0  0  0  0  0  0  0  0  0
   -3.5296    0.9974   -0.0292 H   0  0  0  0  0  0  0  0  0  0  0  0
   -3.1908   -0.6784    0.6719 H   0  0  0  0  0  0  0  0  0  0  0  0
   -3.0258   -0.3535   -1.0644 H   0  0  0  0  0  0  0  0  0  0  0  0
   -0.4528   -1.2415   -0.5493 H   0  0  0  0  0  0  0  0  0  0  0  0
   -0.5231    0.2169   -1.6766 H   0  0  0  0  0  0  0  0  0  0  0  0
    1.1290    1.4065   -0.2140 H   0  0  0  0  0  0  0  0  0  0  0  0
    3.5055   -1.1304    0.1495 H   0  0  0  0  0  0  0  0  0  0  0  0
    3.2744    0.7203    0.3010 H   0  0  0  0  0  0  0  0  0  0  0  0
  1  2  1  0
  2  3  2  0
  2  4  1  0
  4  5  1  0
  5  6  1  0
  6  7  1  0
  7  8  1  0
  8  9  2  0
  8  5  1  0
  1 10  1  0
  1 11  1  0
  1 12  1  0
  4 13  1  0
  4 14  1  0
  5 15  1  0
  7 16  1  0
  7 17  1  0
M  END
