
     RDKit          3D

 20 19  0  0  0  0  0  0  0  0999 V2000
   -3.1698    0.2416    0.0370 C   0  0  0  0  0  0  0  0  0  0  0  0
   -1.9849   -0.5758    0.3505 C   0  0  0  0  0  0  0  0  0  0  0  0
   -2.0905   -1.4788    1.1602 O   0  0  0  0  0  0  0  0  0  0  0  0
   -0.6514   -0.3572   -0.2742 C   0  0  0  0  0  0  0  0  0  0  0  0
    0.2340    0.3860    0.6807 C   0  0  0  0  0  0  0  0  0  0  0  0
    1.6018    0.6744    0.1688 C   0  0  0  0  0  0  0  0  0  0  0  0
    2.3053   -0.6138   -0.1502 C   0  0  0  0  0  0  0  0  0  0  0  0
    3.5999   -0.3788   -0.6292 O   0  0  0  0  0  0  0  0  0  0  0  0
   -3.7819   -0.1452   -0.7950 H   0  0  0  0  0  0  0  0  0  0  0  0
   -3.8701    0.3444    0.9125 H   0  0  0  0  0  0  0  0  0  0  0  0
   -2.8142    1.2867   -0.1539 H   0  0  0  0  0  0  0  0  0  0  0  0
   -0.7174    0.1358   -1.2553 H   0  0  0  0  0  0  0  0  0  0  0  0
   -0.2180   -1.3776   -0.4413 H   0  0  0  0  0  0  0  0  0  0  0  0
   -0.2948    1.3672    0.8762 H   0  0  0  0  0  0  0  0  0  0  0  0
    0.2365   -0.1515    1.6571 H   0  0  0  0  0  0  0  0  0  0  0  0
    2.2052    1.1525    0.9957 H   0  0  0  0  0  0  0  0  0  0  0  0
    1.6139    1.3805   -0.6768 H   0  0  0  0  0  0  0  0  0  0  0  0
    2.3772   -1.2220    0.7750 H   0  0  0  0  0  0  0  0  0  0  0  0
    1.7374   -1.2429   -0.8919 H   0  0  0  0  0  0  0  0  0  0  0  0
    3.6818    0.5745   -0.8386 H   0  0  0  0  0  0  0  0  0  0  0  0
  1  2  1  0
  2  3  2  0
  2  4  1  0
  4  5  1  0
  5  6  1  0
  6  7  1  0
  7  8  1  0
  1  9  1  0
  1 10  1  0
  1 11  1  0
  4 12  1  0
  4 13  1  0
  5 14  1  0
  5 15  1  0
  6 16  1  0
  6 17  1  0
  7 18  1  0
  7 19  1  0
  8 20  1  0
M  END
