
     RDKit          3D

 19 20  0  0  0  0  0  0  0  0999 V2000
    2.6424    0.0081   -0.4943 C   0  0  0  0  0  0  0  0  0  0  0  0
    1.5266    0.1240    0.4724 C   0  0  0  0  0  0  0  0  0  0  0  0
    1.8090    0.3177    1.6440 O   0  0  0  0  0  0  0  0  0  0  0  0
    0.1655    0.0160    0.0672 C   0  0  0  0  0  0  0  0  0  0  0  0
   -0.8241    1.0612    0.6087 C   0  0  0  0  0  0  0  0  0  0  0  0
   -1.8222   -0.0564    0.2779 C   0  0  0  0  0  0  0  0  0  0  0  0
   -1.6061   -0.1945   -1.1937 C   0  0  0  0  0  0  0  0  0  0  0  0
   -0.1856   -0.1997   -1.2305 O   0  0  0  0  0  0  0  0  0  0  0  0
   -0.7315   -0.9804    0.8212 C   0  0  0  0  0  0  0  0  0  0  0  0
    3.0769   -1.0118   -0.5204 H   0  0  0  0  0  0  0  0  0  0  0  0
    3.4614    0.7440   -0.2735 H   0  0  0  0  0  0  0  0  0  0  0  0
    2.2459    0.2841   -1.4943 H   0  0  0  0  0  0  0  0  0  0  0  0
   -0.9498    1.9418   -0.0199 H   0  0  0  0  0  0  0  0  0  0  0  0
   -0.6935    1.2080    1.6879 H   0  0  0  0  0  0  0  0  0  0  0  0
   -2.7668   -0.0485    0.7229 H   0  0  0  0  0  0  0  0  0  0  0  0
   -1.9168    0.7572   -1.6837 H   0  0  0  0  0  0  0  0  0  0  0  0
   -2.0282   -1.0911   -1.6472 H   0  0  0  0  0  0  0  0  0  0  0  0
   -0.7554   -1.9585    0.3489 H   0  0  0  0  0  0  0  0  0  0  0  0
   -0.6476   -0.9214    1.9063 H   0  0  0  0  0  0  0  0  0  0  0  0
  1  2  1  0
  2  3  2  0
  2  4  1  0
  4  5  1  0
  5  6  1  0
  6  7  1  0
  7  8  1  0
  6  9  1  0
  8  4  1  0
  9  4  1  0
  1 10  1  0
  1 11  1  0
  1 12  1  0
  5 13  1  0
  5 14  1  0
  6 15  1  0
  7 16  1  0
  7 17  1  0
  9 18  1  0
  9 19  1  0
M  END
