
     RDKit          3D

 19 18  0  0  0  0  0  0  0  0999 V2000
    2.0197   -0.5546   -0.7100 C   0  0  0  0  0  0  0  0  0  0  0  0
    0.9353   -0.8512    0.2647 C   0  0  0  0  0  0  0  0  0  0  0  0
    0.8222   -1.9989    0.6561 O   0  0  0  0  0  0  0  0  0  0  0  0
    0.0098    0.1784    0.7640 C   0  0  0  0  0  0  0  0  0  0  0  0
    0.6963    1.2855    1.4710 C   0  0  0  0  0  0  0  0  0  0  0  0
    1.0267    1.2358    2.6411 O   0  0  0  0  0  0  0  0  0  0  0  0
   -0.8545    0.7114   -0.3810 C   0  0  0  0  0  0  0  0  0  0  0  0
   -1.6212   -0.4870   -0.9251 C   0  0  0  0  0  0  0  0  0  0  0  0
   -2.3817   -0.9710    0.1508 O   0  0  0  0  0  0  0  0  0  0  0  0
    2.8742   -0.1555   -0.1384 H   0  0  0  0  0  0  0  0  0  0  0  0
    1.6637    0.1489   -1.5023 H   0  0  0  0  0  0  0  0  0  0  0  0
    2.3530   -1.4604   -1.2283 H   0  0  0  0  0  0  0  0  0  0  0  0
   -0.7051   -0.2639    1.4857 H   0  0  0  0  0  0  0  0  0  0  0  0
    0.9229    2.1954    0.9290 H   0  0  0  0  0  0  0  0  0  0  0  0
   -1.6128    1.3770    0.0726 H   0  0  0  0  0  0  0  0  0  0  0  0
   -0.2480    1.1751   -1.1607 H   0  0  0  0  0  0  0  0  0  0  0  0
   -0.9505   -1.2934   -1.2544 H   0  0  0  0  0  0  0  0  0  0  0  0
   -2.2313   -0.1215   -1.7538 H   0  0  0  0  0  0  0  0  0  0  0  0
   -2.7191   -0.1502    0.6190 H   0  0  0  0  0  0  0  0  0  0  0  0
  1  2  1  0
  2  3  2  0
  2  4  1  0
  4  5  1  0
  5  6  2  0
  4  7  1  0
  7  8  1  0
  8  9  1  0
  1 10  1  0
  1 11  1  0
  1 12  1  0
  4 13  1  0
  5 14  1  0
  7 15  1  0
  7 16  1  0
  8 17  1  0
  8 18  1  0
  9 19  1  0
M  END
