
     RDKit          3D

 17 17  0  0  0  0  0  0  0  0999 V2000
    2.8298   -0.4058    0.2611 C   0  0  0  0  0  0  0  0  0  0  0  0
    1.3702   -0.5933    0.2199 C   0  0  0  0  0  0  0  0  0  0  0  0
    0.9142   -1.7403    0.4526 O   0  0  0  0  0  0  0  0  0  0  0  0
    0.4285    0.4578   -0.0713 C   0  0  0  0  0  0  0  0  0  0  0  0
    0.9069    1.6157   -0.3052 O   0  0  0  0  0  0  0  0  0  0  0  0
   -1.0189    0.3109   -0.1210 C   0  0  0  0  0  0  0  0  0  0  0  0
   -1.6896   -0.9998    0.1361 C   0  0  0  0  0  0  0  0  0  0  0  0
   -1.8599    1.5388    0.0536 C   0  0  0  0  0  0  0  0  0  0  0  0
   -1.6800    1.0225   -1.2053 O   0  0  0  0  0  0  0  0  0  0  0  0
    3.3279   -0.7840   -0.6535 H   0  0  0  0  0  0  0  0  0  0  0  0
    3.2921   -0.9523    1.1286 H   0  0  0  0  0  0  0  0  0  0  0  0
    3.1292    0.6640    0.3989 H   0  0  0  0  0  0  0  0  0  0  0  0
   -2.7889   -0.8512    0.1554 H   0  0  0  0  0  0  0  0  0  0  0  0
   -1.5129   -1.7260   -0.7082 H   0  0  0  0  0  0  0  0  0  0  0  0
   -1.4058   -1.4684    1.0821 H   0  0  0  0  0  0  0  0  0  0  0  0
   -2.8367    1.3976    0.5806 H   0  0  0  0  0  0  0  0  0  0  0  0
   -1.4061    2.5138    0.2324 H   0  0  0  0  0  0  0  0  0  0  0  0
  1  2  1  0
  2  3  2  0
  2  4  1  0
  4  5  2  0
  4  6  1  0
  6  7  1  0
  6  8  1  0
  8  9  1  0
  9  6  1  0
  1 10  1  0
  1 11  1  0
  1 12  1  0
  7 13  1  0
  7 14  1  0
  7 15  1  0
  8 16  1  0
  8 17  1  0
M  END
