
     RDKit          3D

 18 18  0  0  0  0  0  0  0  0999 V2000
    2.8927    0.4262   -0.5338 C   0  0  0  0  0  0  0  0  0  0  0  0
    1.4686    0.3683   -0.1041 C   0  0  0  0  0  0  0  0  0  0  0  0
    1.2268    0.8399    1.0542 O   0  0  0  0  0  0  0  0  0  0  0  0
    0.4701   -0.1628   -0.9087 O   0  0  0  0  0  0  0  0  0  0  0  0
   -0.8453   -0.1532   -0.3698 C   0  0  0  0  0  0  0  0  0  0  0  0
   -1.3804    1.1995   -0.0363 C   0  0  0  0  0  0  0  0  0  0  0  0
   -1.7632   -1.2847   -0.5790 C   0  0  0  0  0  0  0  0  0  0  0  0
   -1.0454   -1.2342    0.7279 C   0  0  0  0  0  0  0  0  0  0  0  0
    3.1166    1.4955   -0.7528 H   0  0  0  0  0  0  0  0  0  0  0  0
    3.5236    0.0236    0.2891 H   0  0  0  0  0  0  0  0  0  0  0  0
    3.0832   -0.2286   -1.4167 H   0  0  0  0  0  0  0  0  0  0  0  0
   -1.8401    1.1933    0.9779 H   0  0  0  0  0  0  0  0  0  0  0  0
   -2.1608    1.5453   -0.7652 H   0  0  0  0  0  0  0  0  0  0  0  0
   -0.5533    1.9367    0.0118 H   0  0  0  0  0  0  0  0  0  0  0  0
   -1.5298   -2.1354   -1.2204 H   0  0  0  0  0  0  0  0  0  0  0  0
   -2.8583   -1.0121   -0.6141 H   0  0  0  0  0  0  0  0  0  0  0  0
   -0.2266   -1.9215    0.9244 H   0  0  0  0  0  0  0  0  0  0  0  0
   -1.5786   -0.8958    1.6438 H   0  0  0  0  0  0  0  0  0  0  0  0
  1  2  1  0
  2  3  2  0
  2  4  1  0
  4  5  1  0
  5  6  1  0
  5  7  1  0
  7  8  1  0
  8  5  1  0
  1  9  1  0
  1 10  1  0
  1 11  1  0
  6 12  1  0
  6 13  1  0
  6 14  1  0
  7 15  1  0
  7 16  1  0
  8 17  1  0
  8 18  1  0
M  END
