
     RDKit          3D

 17 17  0  0  0  0  0  0  0  0999 V2000
    2.1834   -0.2489   -0.1032 C   0  0  0  0  0  0  0  0  0  0  0  0
    0.8734   -0.0719   -0.7380 C   0  0  0  0  0  0  0  0  0  0  0  0
    0.7719   -0.1292   -1.9522 O   0  0  0  0  0  0  0  0  0  0  0  0
   -0.3395    0.1759    0.0480 C   0  0  0  0  0  0  0  0  0  0  0  0
   -0.3417    1.3928    0.8903 C   0  0  0  0  0  0  0  0  0  0  0  0
   -0.8738    2.4256    0.4982 O   0  0  0  0  0  0  0  0  0  0  0  0
   -1.6312    0.0864   -0.7624 C   0  0  0  0  0  0  0  0  0  0  0  0
   -2.2368   -0.3931    0.4105 O   0  0  0  0  0  0  0  0  0  0  0  0
   -1.0000   -1.0332    0.6636 C   0  0  0  0  0  0  0  0  0  0  0  0
    2.2006   -1.0217    0.6937 H   0  0  0  0  0  0  0  0  0  0  0  0
    2.5947    0.7316    0.2689 H   0  0  0  0  0  0  0  0  0  0  0  0
    2.9427   -0.5857   -0.8648 H   0  0  0  0  0  0  0  0  0  0  0  0
    0.1128    1.4443    1.8751 H   0  0  0  0  0  0  0  0  0  0  0  0
   -1.9818    1.0706   -1.1022 H   0  0  0  0  0  0  0  0  0  0  0  0
   -1.5807   -0.7182   -1.4949 H   0  0  0  0  0  0  0  0  0  0  0  0
   -0.7905   -1.2327    1.7123 H   0  0  0  0  0  0  0  0  0  0  0  0
   -0.9034   -1.8926   -0.0427 H   0  0  0  0  0  0  0  0  0  0  0  0
  1  2  1  0
  2  3  2  0
  2  4  1  0
  4  5  1  0
  5  6  2  0
  4  7  1  0
  7  8  1  0
  8  9  1  0
  9  4  1  0
  1 10  1  0
  1 11  1  0
  1 12  1  0
  5 13  1  0
  7 14  1  0
  7 15  1  0
  9 16  1  0
  9 17  1  0
M  END
