
     RDKit          3D

 18 17  0  0  0  0  0  0  0  0999 V2000
   -2.2165    0.2938   -0.5091 C   0  0  0  0  0  0  0  0  0  0  0  0
   -0.7947    0.7074   -0.5163 C   0  0  0  0  0  0  0  0  0  0  0  0
   -0.4449    1.5531   -1.3114 O   0  0  0  0  0  0  0  0  0  0  0  0
    0.1994    0.1241    0.4090 C   0  0  0  0  0  0  0  0  0  0  0  0
    1.5743    0.7210    0.1920 C   0  0  0  0  0  0  0  0  0  0  0  0
    1.5699    2.0934    0.3978 O   0  0  0  0  0  0  0  0  0  0  0  0
    0.2269   -1.3726    0.3234 C   0  0  0  0  0  0  0  0  0  0  0  0
    0.5476   -1.8386   -0.9333 O   0  0  0  0  0  0  0  0  0  0  0  0
   -2.7586    0.6485    0.3918 H   0  0  0  0  0  0  0  0  0  0  0  0
   -2.7360    0.6388   -1.4159 H   0  0  0  0  0  0  0  0  0  0  0  0
   -2.2198   -0.8255   -0.5604 H   0  0  0  0  0  0  0  0  0  0  0  0
   -0.0752    0.3783    1.4708 H   0  0  0  0  0  0  0  0  0  0  0  0
    1.9259    0.4978   -0.8346 H   0  0  0  0  0  0  0  0  0  0  0  0
    2.2974    0.2882    0.9023 H   0  0  0  0  0  0  0  0  0  0  0  0
    2.4346    2.4414    0.0305 H   0  0  0  0  0  0  0  0  0  0  0  0
    0.9251   -1.7923    1.0565 H   0  0  0  0  0  0  0  0  0  0  0  0
   -0.7820   -1.7509    0.5824 H   0  0  0  0  0  0  0  0  0  0  0  0
    0.3265   -2.8060   -0.9725 H   0  0  0  0  0  0  0  0  0  0  0  0
  1  2  1  0
  2  3  2  0
  2  4  1  0
  4  5  1  0
  5  6  1  0
  4  7  1  0
  7  8  1  0
  1  9  1  0
  1 10  1  0
  1 11  1  0
  4 12  1  0
  5 13  1  0
  5 14  1  0
  6 15  1  0
  7 16  1  0
  7 17  1  0
  8 18  1  0
M  END
