
     RDKit          3D

 18 18  0  0  0  0  0  0  0  0999 V2000
    2.0529   -1.0930    0.1020 C   0  0  0  0  0  0  0  0  0  0  0  0
    1.2241    0.0504   -0.3371 C   0  0  0  0  0  0  0  0  0  0  0  0
    1.7032    0.8470   -1.1302 O   0  0  0  0  0  0  0  0  0  0  0  0
   -0.1612    0.3050    0.1187 C   0  0  0  0  0  0  0  0  0  0  0  0
   -0.2701    1.7135    0.6626 C   0  0  0  0  0  0  0  0  0  0  0  0
   -1.1722   -0.0407   -0.9454 C   0  0  0  0  0  0  0  0  0  0  0  0
   -1.7530   -0.8624    0.1711 C   0  0  0  0  0  0  0  0  0  0  0  0
   -0.6853   -0.5993    1.0099 O   0  0  0  0  0  0  0  0  0  0  0  0
    2.6327   -0.7886    0.9856 H   0  0  0  0  0  0  0  0  0  0  0  0
    2.8089   -1.3577   -0.6873 H   0  0  0  0  0  0  0  0  0  0  0  0
    1.4732   -2.0063    0.3195 H   0  0  0  0  0  0  0  0  0  0  0  0
   -0.1528    2.4352   -0.1902 H   0  0  0  0  0  0  0  0  0  0  0  0
    0.5511    1.8399    1.3987 H   0  0  0  0  0  0  0  0  0  0  0  0
   -1.2424    1.8704    1.1917 H   0  0  0  0  0  0  0  0  0  0  0  0
   -1.7898    0.7913   -1.3192 H   0  0  0  0  0  0  0  0  0  0  0  0
   -0.7265   -0.6611   -1.7519 H   0  0  0  0  0  0  0  0  0  0  0  0
   -2.7373   -0.4870    0.4873 H   0  0  0  0  0  0  0  0  0  0  0  0
   -1.7554   -1.9565   -0.0858 H   0  0  0  0  0  0  0  0  0  0  0  0
  1  2  1  0
  2  3  2  0
  2  4  1  0
  4  5  1  0
  4  6  1  0
  6  7  1  0
  7  8  1  0
  8  4  1  0
  1  9  1  0
  1 10  1  0
  1 11  1  0
  5 12  1  0
  5 13  1  0
  5 14  1  0
  6 15  1  0
  6 16  1  0
  7 17  1  0
  7 18  1  0
M  END
