
     RDKit          3D

 15 16  0  0  0  0  0  0  0  0999 V2000
   -2.0390   -0.2307    0.2122 C   0  0  0  0  0  0  0  0  0  0  0  0
   -0.9802   -0.3872   -0.8244 C   0  0  0  0  0  0  0  0  0  0  0  0
   -1.2673   -0.9936   -1.8398 O   0  0  0  0  0  0  0  0  0  0  0  0
    0.3467    0.1911   -0.5763 C   0  0  0  0  0  0  0  0  0  0  0  0
    0.5157    1.0892    0.5735 C   0  0  0  0  0  0  0  0  0  0  0  0
    1.2275   -0.2439    0.5125 C   0  0  0  0  0  0  0  0  0  0  0  0
    2.2573   -0.3444   -0.5157 C   0  0  0  0  0  0  0  0  0  0  0  0
    3.4632   -0.6752   -0.5401 O   0  0  0  0  0  0  0  0  0  0  0  0
    1.3768    0.0791   -1.5045 O   0  0  0  0  0  0  0  0  0  0  0  0
   -1.6785   -0.7406    1.1194 H   0  0  0  0  0  0  0  0  0  0  0  0
   -2.1379    0.8482    0.4844 H   0  0  0  0  0  0  0  0  0  0  0  0
   -3.0229   -0.6207   -0.1289 H   0  0  0  0  0  0  0  0  0  0  0  0
    1.2108    1.9495    0.4766 H   0  0  0  0  0  0  0  0  0  0  0  0
   -0.2853    1.1104    1.3275 H   0  0  0  0  0  0  0  0  0  0  0  0
    1.0131   -1.0311    1.2236 H   0  0  0  0  0  0  0  0  0  0  0  0
  1  2  1  0
  2  3  2  0
  2  4  1  0
  4  5  1  0
  5  6  1  0
  6  7  1  0
  7  8  2  0
  7  9  1  0
  6  4  1  0
  9  4  1  0
  1 10  1  0
  1 11  1  0
  1 12  1  0
  5 13  1  0
  5 14  1  0
  6 15  1  0
M  END
