
     RDKit          3D

 19 20  0  0  0  0  0  0  0  0999 V2000
    2.7170    0.4939   -0.2017 C   0  0  0  0  0  0  0  0  0  0  0  0
    1.8336   -0.5778   -0.7079 C   0  0  0  0  0  0  0  0  0  0  0  0
    2.0095   -1.0429   -1.7992 O   0  0  0  0  0  0  0  0  0  0  0  0
    0.7213   -1.0798    0.1381 C   0  0  0  0  0  0  0  0  0  0  0  0
   -0.3537   -0.0450    0.3230 C   0  0  0  0  0  0  0  0  0  0  0  0
   -1.3843   -0.5309    1.1114 O   0  0  0  0  0  0  0  0  0  0  0  0
   -2.3516   -0.2490    0.1659 C   0  0  0  0  0  0  0  0  0  0  0  0
   -2.4521    1.0639   -0.4941 C   0  0  0  0  0  0  0  0  0  0  0  0
   -1.3185    0.1540   -0.8012 C   0  0  0  0  0  0  0  0  0  0  0  0
    3.0311    1.1319   -1.0560 H   0  0  0  0  0  0  0  0  0  0  0  0
    3.5862    0.0910    0.3175 H   0  0  0  0  0  0  0  0  0  0  0  0
    2.1858    1.1837    0.4969 H   0  0  0  0  0  0  0  0  0  0  0  0
    1.1310   -1.3445    1.1278 H   0  0  0  0  0  0  0  0  0  0  0  0
    0.2466   -1.9887   -0.2949 H   0  0  0  0  0  0  0  0  0  0  0  0
    0.0236    0.9414    0.6782 H   0  0  0  0  0  0  0  0  0  0  0  0
   -3.0878   -1.0464   -0.0174 H   0  0  0  0  0  0  0  0  0  0  0  0
   -2.1314    1.9803    0.0762 H   0  0  0  0  0  0  0  0  0  0  0  0
   -3.2249    1.1804   -1.2543 H   0  0  0  0  0  0  0  0  0  0  0  0
   -1.1815   -0.3156   -1.7894 H   0  0  0  0  0  0  0  0  0  0  0  0
  1  2  1  0
  2  3  2  0
  2  4  1  0
  4  5  1  0
  5  6  1  0
  6  7  1  0
  7  8  1  0
  8  9  1  0
  9  5  1  0
  9  7  1  0
  1 10  1  0
  1 11  1  0
  1 12  1  0
  4 13  1  0
  4 14  1  0
  5 15  1  0
  7 16  1  0
  8 17  1  0
  8 18  1  0
  9 19  1  0
M  END
