
     RDKit          3D

 18 18  0  0  0  0  0  0  0  0999 V2000
    2.2309    0.3346   -0.1202 C   0  0  0  0  0  0  0  0  0  0  0  0
    1.2940    0.2134    1.0044 C   0  0  0  0  0  0  0  0  0  0  0  0
    1.5064    0.8810    2.0044 O   0  0  0  0  0  0  0  0  0  0  0  0
    0.0998   -0.6633    1.0222 C   0  0  0  0  0  0  0  0  0  0  0  0
   -0.1017   -1.4032   -0.1358 O   0  0  0  0  0  0  0  0  0  0  0  0
   -1.4847   -1.3430    0.1537 C   0  0  0  0  0  0  0  0  0  0  0  0
   -1.2084    0.0417    0.7317 C   0  0  0  0  0  0  0  0  0  0  0  0
   -1.0613    1.0804   -0.3221 C   0  0  0  0  0  0  0  0  0  0  0  0
    2.4071   -0.6401   -0.6462 H   0  0  0  0  0  0  0  0  0  0  0  0
    1.9748    1.1378   -0.8410 H   0  0  0  0  0  0  0  0  0  0  0  0
    3.2509    0.6173    0.2743 H   0  0  0  0  0  0  0  0  0  0  0  0
   -0.0184   -1.2535    1.9728 H   0  0  0  0  0  0  0  0  0  0  0  0
   -1.7687   -2.0859    0.9243 H   0  0  0  0  0  0  0  0  0  0  0  0
   -2.1366   -1.2463   -0.7134 H   0  0  0  0  0  0  0  0  0  0  0  0
   -1.8124    0.2996    1.6162 H   0  0  0  0  0  0  0  0  0  0  0  0
   -0.9054    0.6011   -1.3299 H   0  0  0  0  0  0  0  0  0  0  0  0
   -0.2367    1.7883   -0.1734 H   0  0  0  0  0  0  0  0  0  0  0  0
   -2.0297    1.6401   -0.4150 H   0  0  0  0  0  0  0  0  0  0  0  0
  1  2  1  0
  2  3  2  0
  2  4  1  0
  4  5  1  0
  5  6  1  0
  6  7  1  0
  7  8  1  0
  7  4  1  0
  1  9  1  0
  1 10  1  0
  1 11  1  0
  4 12  1  0
  6 13  1  0
  6 14  1  0
  7 15  1  0
  8 16  1  0
  8 17  1  0
  8 18  1  0
M  END
