
     RDKit          3D

 19 19  0  0  0  0  0  0  0  0999 V2000
    1.9545    1.2811    0.0671 C   0  0  0  0  0  0  0  0  0  0  0  0
    1.5981    0.0956   -0.7584 C   0  0  0  0  0  0  0  0  0  0  0  0
    2.4881   -0.6053   -1.2076 O   0  0  0  0  0  0  0  0  0  0  0  0
    0.2053   -0.2866   -1.0697 C   0  0  0  0  0  0  0  0  0  0  0  0
    0.1932   -1.4227   -1.8585 O   0  0  0  0  0  0  0  0  0  0  0  0
   -0.5823   -0.5866    0.1799 C   0  0  0  0  0  0  0  0  0  0  0  0
   -0.7921    0.4148    1.2434 C   0  0  0  0  0  0  0  0  0  0  0  0
   -1.9400   -0.0403    0.3620 C   0  0  0  0  0  0  0  0  0  0  0  0
   -2.9416   -0.8409    0.9225 O   0  0  0  0  0  0  0  0  0  0  0  0
    1.3468    2.1841   -0.2240 H   0  0  0  0  0  0  0  0  0  0  0  0
    3.0002    1.5613   -0.1718 H   0  0  0  0  0  0  0  0  0  0  0  0
    1.9209    1.0822    1.1524 H   0  0  0  0  0  0  0  0  0  0  0  0
   -0.3101    0.5111   -1.6840 H   0  0  0  0  0  0  0  0  0  0  0  0
    0.6449   -2.1962   -1.4315 H   0  0  0  0  0  0  0  0  0  0  0  0
   -0.4541   -1.6464    0.5363 H   0  0  0  0  0  0  0  0  0  0  0  0
   -0.4488    1.4540    1.1858 H   0  0  0  0  0  0  0  0  0  0  0  0
   -0.8952    0.0566    2.2934 H   0  0  0  0  0  0  0  0  0  0  0  0
   -2.3357    0.7725   -0.2789 H   0  0  0  0  0  0  0  0  0  0  0  0
   -2.6521   -1.7883    0.7417 H   0  0  0  0  0  0  0  0  0  0  0  0
  1  2  1  0
  2  3  2  0
  2  4  1  0
  4  5  1  0
  4  6  1  0
  6  7  1  0
  7  8  1  0
  8  9  1  0
  8  6  1  0
  1 10  1  0
  1 11  1  0
  1 12  1  0
  4 13  1  0
  5 14  1  0
  6 15  1  0
  7 16  1  0
  7 17  1  0
  8 18  1  0
  9 19  1  0
M  END
