
     RDKit          3D

 19 18  0  0  0  0  0  0  0  0999 V2000
    1.9701   -1.0157    0.3198 C   0  0  0  0  0  0  0  0  0  0  0  0
    1.2617    0.1050   -0.3391 C   0  0  0  0  0  0  0  0  0  0  0  0
    1.7302    0.5018   -1.3826 O   0  0  0  0  0  0  0  0  0  0  0  0
    0.0566    0.6979    0.2475 C   0  0  0  0  0  0  0  0  0  0  0  0
   -0.4960    1.8250   -0.5952 C   0  0  0  0  0  0  0  0  0  0  0  0
   -1.0580   -0.3007    0.4419 C   0  0  0  0  0  0  0  0  0  0  0  0
   -0.6693   -1.3100    1.2731 O   0  0  0  0  0  0  0  0  0  0  0  0
   -1.5609   -0.8606   -0.8271 C   0  0  0  0  0  0  0  0  0  0  0  0
   -1.5682   -2.0649   -0.9702 O   0  0  0  0  0  0  0  0  0  0  0  0
    1.8569   -1.9760   -0.2441 H   0  0  0  0  0  0  0  0  0  0  0  0
    1.6578   -1.1149    1.3743 H   0  0  0  0  0  0  0  0  0  0  0  0
    3.0766   -0.8129    0.3078 H   0  0  0  0  0  0  0  0  0  0  0  0
    0.3004    1.0885    1.2745 H   0  0  0  0  0  0  0  0  0  0  0  0
    0.0995    2.7484   -0.3808 H   0  0  0  0  0  0  0  0  0  0  0  0
   -0.4366    1.5534   -1.6747 H   0  0  0  0  0  0  0  0  0  0  0  0
   -1.5535    2.0330   -0.3207 H   0  0  0  0  0  0  0  0  0  0  0  0
   -1.9289    0.2321    0.9169 H   0  0  0  0  0  0  0  0  0  0  0  0
   -0.8127   -1.0755    2.2207 H   0  0  0  0  0  0  0  0  0  0  0  0
   -1.9256   -0.2537   -1.6421 H   0  0  0  0  0  0  0  0  0  0  0  0
  1  2  1  0
  2  3  2  0
  2  4  1  0
  4  5  1  0
  4  6  1  0
  6  7  1  0
  6  8  1  0
  8  9  2  0
  1 10  1  0
  1 11  1  0
  1 12  1  0
  4 13  1  0
  5 14  1  0
  5 15  1  0
  5 16  1  0
  6 17  1  0
  7 18  1  0
  8 19  1  0
M  END
