
     RDKit          3D

 15 16  0  0  0  0  0  0  0  0999 V2000
   -2.1073    0.4284    1.1382 C   0  0  0  0  0  0  0  0  0  0  0  0
   -1.0152    0.5694    0.1032 C   0  0  0  0  0  0  0  0  0  0  0  0
   -1.3640    1.1550   -0.9132 O   0  0  0  0  0  0  0  0  0  0  0  0
    0.2356    0.0845    0.2987 C   0  0  0  0  0  0  0  0  0  0  0  0
    0.9007   -1.0102   -0.4980 C   0  0  0  0  0  0  0  0  0  0  0  0
    1.8258   -0.5927    0.6054 C   0  0  0  0  0  0  0  0  0  0  0  0
    0.7005   -0.5869    1.4205 O   0  0  0  0  0  0  0  0  0  0  0  0
    1.5062    0.7800    0.2818 C   0  0  0  0  0  0  0  0  0  0  0  0
    1.9963    1.8620    0.1030 O   0  0  0  0  0  0  0  0  0  0  0  0
   -3.0060    0.0838    0.5875 H   0  0  0  0  0  0  0  0  0  0  0  0
   -2.2423    1.3947    1.6331 H   0  0  0  0  0  0  0  0  0  0  0  0
   -1.8507   -0.3726    1.8619 H   0  0  0  0  0  0  0  0  0  0  0  0
    0.5229   -2.0297   -0.3288 H   0  0  0  0  0  0  0  0  0  0  0  0
    1.1808   -0.7584   -1.5199 H   0  0  0  0  0  0  0  0  0  0  0  0
    2.7169   -1.0072    0.8323 H   0  0  0  0  0  0  0  0  0  0  0  0
  1  2  1  0
  2  3  2  0
  2  4  1  0
  4  5  1  0
  5  6  1  0
  6  7  1  0
  6  8  1  0
  8  9  2  0
  7  4  1  0
  8  4  1  0
  1 10  1  0
  1 11  1  0
  1 12  1  0
  5 13  1  0
  5 14  1  0
  6 15  1  0
M  END
