
     RDKit          3D

 12 12  0  0  0  0  0  0  0  0999 V2000
    1.4214    0.5577   -0.0611 C   0  0  0  0  0  0  0  0  0  0  0  0
    0.6237   -0.5930    0.5026 C   0  0  0  0  0  0  0  0  0  0  0  0
    1.0614   -1.2666    1.3975 O   0  0  0  0  0  0  0  0  0  0  0  0
   -0.7074   -0.8800   -0.0637 C   0  0  0  0  0  0  0  0  0  0  0  0
   -1.4625    0.3730   -0.5068 C   0  0  0  0  0  0  0  0  0  0  0  0
   -0.9641   -0.5495   -1.3944 O   0  0  0  0  0  0  0  0  0  0  0  0
    1.0751    1.4595    0.4919 H   0  0  0  0  0  0  0  0  0  0  0  0
    1.2428    0.6262   -1.1535 H   0  0  0  0  0  0  0  0  0  0  0  0
    2.4844    0.3120    0.1419 H   0  0  0  0  0  0  0  0  0  0  0  0
   -1.2634   -1.7153    0.3601 H   0  0  0  0  0  0  0  0  0  0  0  0
   -0.9612    1.3520   -0.4245 H   0  0  0  0  0  0  0  0  0  0  0  0
   -2.5502    0.3237   -0.2481 H   0  0  0  0  0  0  0  0  0  0  0  0
  1  2  1  0
  2  3  2  0
  2  4  1  0
  4  5  1  0
  5  6  1  0
  6  4  1  0
  1  7  1  0
  1  8  1  0
  1  9  1  0
  4 10  1  0
  5 11  1  0
  5 12  1  0
M  END
