
     RDKit          3D

 20 20  0  0  0  0  0  0  0  0999 V2000
    2.4163    0.6389    0.1531 C   0  0  0  0  0  0  0  0  0  0  0  0
    1.6559   -0.6137    0.1640 C   0  0  0  0  0  0  0  0  0  0  0  0
    2.3079   -1.6541    0.3343 O   0  0  0  0  0  0  0  0  0  0  0  0
    0.2092   -0.7556   -0.0056 C   0  0  0  0  0  0  0  0  0  0  0  0
   -0.4668    0.0315    1.1239 C   0  0  0  0  0  0  0  0  0  0  0  0
   -1.9032    0.0494    0.6220 C   0  0  0  0  0  0  0  0  0  0  0  0
   -1.7925    0.1807   -0.8763 C   0  0  0  0  0  0  0  0  0  0  0  0
   -0.3487   -0.1215   -1.2328 C   0  0  0  0  0  0  0  0  0  0  0  0
    1.8803    1.5097   -0.2169 H   0  0  0  0  0  0  0  0  0  0  0  0
    2.6851    0.8685    1.2257 H   0  0  0  0  0  0  0  0  0  0  0  0
    3.3609    0.4466   -0.4348 H   0  0  0  0  0  0  0  0  0  0  0  0
   -0.1246   -1.8024    0.0380 H   0  0  0  0  0  0  0  0  0  0  0  0
   -0.0285    1.0501    1.1426 H   0  0  0  0  0  0  0  0  0  0  0  0
   -0.3506   -0.5233    2.0638 H   0  0  0  0  0  0  0  0  0  0  0  0
   -2.3440   -0.9245    0.9212 H   0  0  0  0  0  0  0  0  0  0  0  0
   -2.4076    0.8893    1.1076 H   0  0  0  0  0  0  0  0  0  0  0  0
   -2.0776    1.2226   -1.1311 H   0  0  0  0  0  0  0  0  0  0  0  0
   -2.4806   -0.5236   -1.4080 H   0  0  0  0  0  0  0  0  0  0  0  0
    0.1184    0.8498   -1.4892 H   0  0  0  0  0  0  0  0  0  0  0  0
   -0.3094   -0.8183   -2.1015 H   0  0  0  0  0  0  0  0  0  0  0  0
  1  2  1  0
  2  3  2  0
  2  4  1  0
  4  5  1  0
  5  6  1  0
  6  7  1  0
  7  8  1  0
  8  4  1  0
  1  9  1  0
  1 10  1  0
  1 11  1  0
  4 12  1  0
  5 13  1  0
  5 14  1  0
  6 15  1  0
  6 16  1  0
  7 17  1  0
  7 18  1  0
  8 19  1  0
  8 20  1  0
M  END
