
     RDKit          3D

 23 23  0  0  0  0  0  0  0  0999 V2000
   -1.7852    1.0370    1.3404 C   0  0  0  0  0  0  0  0  0  0  0  0
   -1.6470   -0.0381    0.2996 C   0  0  0  0  0  0  0  0  0  0  0  0
   -2.6176   -0.6069   -0.1513 O   0  0  0  0  0  0  0  0  0  0  0  0
   -0.3153   -0.4363   -0.2084 C   0  0  0  0  0  0  0  0  0  0  0  0
   -0.4991   -1.5162   -1.2230 C   0  0  0  0  0  0  0  0  0  0  0  0
    0.4193   -1.0849    0.9772 C   0  0  0  0  0  0  0  0  0  0  0  0
    0.4576    0.7500   -0.7227 C   0  0  0  0  0  0  0  0  0  0  0  0
    1.8032    0.6251   -1.2791 C   0  0  0  0  0  0  0  0  0  0  0  0
    1.6167    1.2330    0.0967 C   0  0  0  0  0  0  0  0  0  0  0  0
   -0.8692    1.1201    1.9563 H   0  0  0  0  0  0  0  0  0  0  0  0
   -2.0148    2.0055    0.8126 H   0  0  0  0  0  0  0  0  0  0  0  0
   -2.6401    0.7341    2.0022 H   0  0  0  0  0  0  0  0  0  0  0  0
   -1.2822   -1.2992   -1.9786 H   0  0  0  0  0  0  0  0  0  0  0  0
    0.4413   -1.8390   -1.7081 H   0  0  0  0  0  0  0  0  0  0  0  0
   -0.8653   -2.4251   -0.6645 H   0  0  0  0  0  0  0  0  0  0  0  0
    1.3890   -1.5166    0.6564 H   0  0  0  0  0  0  0  0  0  0  0  0
    0.5226   -0.3671    1.8182 H   0  0  0  0  0  0  0  0  0  0  0  0
   -0.1838   -1.9284    1.3693 H   0  0  0  0  0  0  0  0  0  0  0  0
   -0.1875    1.5843   -1.1003 H   0  0  0  0  0  0  0  0  0  0  0  0
    2.1329    1.3655   -2.0402 H   0  0  0  0  0  0  0  0  0  0  0  0
    2.2890   -0.3608   -1.3801 H   0  0  0  0  0  0  0  0  0  0  0  0
    1.7891    2.3313    0.2254 H   0  0  0  0  0  0  0  0  0  0  0  0
    2.0464    0.6327    0.9021 H   0  0  0  0  0  0  0  0  0  0  0  0
  1  2  1  0
  2  3  2  0
  2  4  1  0
  4  5  1  0
  4  6  1  0
  4  7  1  0
  7  8  1  0
  8  9  1  0
  9  7  1  0
  1 10  1  0
  1 11  1  0
  1 12  1  0
  5 13  1  0
  5 14  1  0
  5 15  1  0
  6 16  1  0
  6 17  1  0
  6 18  1  0
  7 19  1  0
  8 20  1  0
  8 21  1  0
  9 22  1  0
  9 23  1  0
M  END
