
     RDKit          3D

 19 19  0  0  0  0  0  0  0  0999 V2000
    2.1033   -0.9582    0.5460 C   0  0  0  0  0  0  0  0  0  0  0  0
    1.3115   -0.0210   -0.2873 C   0  0  0  0  0  0  0  0  0  0  0  0
    1.8879    0.6024   -1.1581 O   0  0  0  0  0  0  0  0  0  0  0  0
   -0.1402    0.1965   -0.1170 C   0  0  0  0  0  0  0  0  0  0  0  0
   -0.5022    1.6547    0.0578 C   0  0  0  0  0  0  0  0  0  0  0  0
   -0.0410    2.1223    1.2833 O   0  0  0  0  0  0  0  0  0  0  0  0
   -1.0199   -0.4484   -1.1507 C   0  0  0  0  0  0  0  0  0  0  0  0
   -1.4509   -1.3390   -0.0045 C   0  0  0  0  0  0  0  0  0  0  0  0
   -0.7198   -0.5566    0.9016 O   0  0  0  0  0  0  0  0  0  0  0  0
    3.1220   -0.5204    0.6621 H   0  0  0  0  0  0  0  0  0  0  0  0
    1.6816   -1.0195    1.5690 H   0  0  0  0  0  0  0  0  0  0  0  0
    2.2155   -1.9561    0.0675 H   0  0  0  0  0  0  0  0  0  0  0  0
   -1.6039    1.7803    0.0194 H   0  0  0  0  0  0  0  0  0  0  0  0
   -0.0612    2.2938   -0.7310 H   0  0  0  0  0  0  0  0  0  0  0  0
   -0.7669    2.6074    1.7560 H   0  0  0  0  0  0  0  0  0  0  0  0
   -0.4970   -0.9688   -1.9713 H   0  0  0  0  0  0  0  0  0  0  0  0
   -1.8806    0.1842   -1.4824 H   0  0  0  0  0  0  0  0  0  0  0  0
   -2.5598   -1.2984    0.2030 H   0  0  0  0  0  0  0  0  0  0  0  0
   -1.0784   -2.3550   -0.1632 H   0  0  0  0  0  0  0  0  0  0  0  0
  1  2  1  0
  2  3  2  0
  2  4  1  0
  4  5  1  0
  5  6  1  0
  4  7  1  0
  7  8  1  0
  8  9  1  0
  9  4  1  0
  1 10  1  0
  1 11  1  0
  1 12  1  0
  5 13  1  0
  5 14  1  0
  6 15  1  0
  7 16  1  0
  7 17  1  0
  8 18  1  0
  8 19  1  0
M  END
