
     RDKit          3D

 17 16  0  0  0  0  0  0  0  0999 V2000
    3.6246    0.1784    0.4791 C   0  0  0  0  0  0  0  0  0  0  0  0
    2.5880   -0.6562   -0.1700 C   0  0  0  0  0  0  0  0  0  0  0  0
    2.8828   -1.8015   -0.5799 O   0  0  0  0  0  0  0  0  0  0  0  0
    1.2445   -0.2039   -0.3515 C   0  0  0  0  0  0  0  0  0  0  0  0
    0.0886    0.1750   -0.4886 C   0  0  0  0  0  0  0  0  0  0  0  0
   -1.3004    0.6036   -0.6548 C   0  0  0  0  0  0  0  0  0  0  0  0
   -2.1277   -0.3267    0.2324 C   0  0  0  0  0  0  0  0  0  0  0  0
   -3.5519    0.0387    0.1255 C   0  0  0  0  0  0  0  0  0  0  0  0
   -4.1998   -0.2725   -0.8572 O   0  0  0  0  0  0  0  0  0  0  0  0
    4.0142    0.8659   -0.3177 H   0  0  0  0  0  0  0  0  0  0  0  0
    4.4309   -0.4690    0.8860 H   0  0  0  0  0  0  0  0  0  0  0  0
    3.1219    0.7574    1.2827 H   0  0  0  0  0  0  0  0  0  0  0  0
   -1.4592    1.6481   -0.3380 H   0  0  0  0  0  0  0  0  0  0  0  0
   -1.5723    0.4956   -1.7126 H   0  0  0  0  0  0  0  0  0  0  0  0
   -1.8236   -0.2697    1.2778 H   0  0  0  0  0  0  0  0  0  0  0  0
   -1.9211   -1.3588   -0.1290 H   0  0  0  0  0  0  0  0  0  0  0  0
   -4.0395    0.5957    0.9338 H   0  0  0  0  0  0  0  0  0  0  0  0
  1  2  1  0
  2  3  2  0
  2  4  1  0
  4  5  3  0
  5  6  1  0
  6  7  1  0
  7  8  1  0
  8  9  2  0
  1 10  1  0
  1 11  1  0
  1 12  1  0
  6 13  1  0
  6 14  1  0
  7 15  1  0
  7 16  1  0
  8 17  1  0
M  END
