
     RDKit          3D

 19 20  0  0  0  0  0  0  0  0999 V2000
    2.6734    0.2004   -0.5281 C   0  0  0  0  0  0  0  0  0  0  0  0
    1.5211   -0.2765    0.3054 C   0  0  0  0  0  0  0  0  0  0  0  0
    1.8258   -0.9231    1.3008 O   0  0  0  0  0  0  0  0  0  0  0  0
    0.1390   -0.0472    0.0444 C   0  0  0  0  0  0  0  0  0  0  0  0
   -0.8048   -1.2529    0.0157 C   0  0  0  0  0  0  0  0  0  0  0  0
   -2.1055   -0.4583   -0.2143 C   0  0  0  0  0  0  0  0  0  0  0  0
   -1.4601    0.9068   -0.3521 C   0  0  0  0  0  0  0  0  0  0  0  0
   -0.6079    0.9752    0.8887 C   0  0  0  0  0  0  0  0  0  0  0  0
   -0.2632    0.6691   -1.0538 O   0  0  0  0  0  0  0  0  0  0  0  0
    2.8974   -0.5066   -1.3585 H   0  0  0  0  0  0  0  0  0  0  0  0
    3.6032    0.2712    0.0721 H   0  0  0  0  0  0  0  0  0  0  0  0
    2.4594    1.2044   -0.9777 H   0  0  0  0  0  0  0  0  0  0  0  0
   -0.8230   -1.7776    0.9725 H   0  0  0  0  0  0  0  0  0  0  0  0
   -0.5358   -1.8481   -0.8555 H   0  0  0  0  0  0  0  0  0  0  0  0
   -2.6224   -0.7897   -1.1180 H   0  0  0  0  0  0  0  0  0  0  0  0
   -2.7023   -0.5330    0.7049 H   0  0  0  0  0  0  0  0  0  0  0  0
   -2.0558    1.7377   -0.6325 H   0  0  0  0  0  0  0  0  0  0  0  0
   -1.1011    0.5559    1.7858 H   0  0  0  0  0  0  0  0  0  0  0  0
   -0.0372    1.8923    1.0280 H   0  0  0  0  0  0  0  0  0  0  0  0
  1  2  1  0
  2  3  2  0
  2  4  1  0
  4  5  1  0
  5  6  1  0
  6  7  1  0
  7  8  1  0
  7  9  1  0
  8  4  1  0
  9  4  1  0
  1 10  1  0
  1 11  1  0
  1 12  1  0
  5 13  1  0
  5 14  1  0
  6 15  1  0
  6 16  1  0
  7 17  1  0
  8 18  1  0
  8 19  1  0
M  END
