
     RDKit          3D

 13 12  0  0  0  0  0  0  0  0999 V2000
   -2.2961   -0.1368   -0.5234 C   0  0  0  0  0  0  0  0  0  0  0  0
   -1.0621   -0.3734    0.2584 C   0  0  0  0  0  0  0  0  0  0  0  0
   -1.1355   -1.0336    1.3112 O   0  0  0  0  0  0  0  0  0  0  0  0
    0.2248    0.1440   -0.1721 C   0  0  0  0  0  0  0  0  0  0  0  0
    0.3510    0.8196   -1.2333 O   0  0  0  0  0  0  0  0  0  0  0  0
    1.3924   -0.1270    0.6445 C   0  0  0  0  0  0  0  0  0  0  0  0
    1.2474   -0.8056    1.7047 O   0  0  0  0  0  0  0  0  0  0  0  0
    2.6773    0.3836    0.2242 C   0  0  0  0  0  0  0  0  0  0  0  0
    2.7514    1.0469   -0.8338 O   0  0  0  0  0  0  0  0  0  0  0  0
   -2.2682   -0.7410   -1.4553 H   0  0  0  0  0  0  0  0  0  0  0  0
   -2.2687    0.9548   -0.8135 H   0  0  0  0  0  0  0  0  0  0  0  0
   -3.1923   -0.3450    0.0975 H   0  0  0  0  0  0  0  0  0  0  0  0
    3.5786    0.2135    0.7908 H   0  0  0  0  0  0  0  0  0  0  0  0
  1  2  1  0
  2  3  2  0
  2  4  1  0
  4  5  2  0
  4  6  1  0
  6  7  2  0
  6  8  1  0
  8  9  2  0
  1 10  1  0
  1 11  1  0
  1 12  1  0
  8 13  1  0
M  END
