
     RDKit          3D

 21 21  0  0  0  0  0  0  0  0999 V2000
   -3.1208   -0.0143   -0.3090 C   0  0  0  0  0  0  0  0  0  0  0  0
   -1.8003   -0.6664   -0.5292 C   0  0  0  0  0  0  0  0  0  0  0  0
   -1.7041   -1.4821   -1.4147 O   0  0  0  0  0  0  0  0  0  0  0  0
   -0.6854   -0.2667    0.3604 C   0  0  0  0  0  0  0  0  0  0  0  0
   -0.3746    1.1774    0.2712 C   0  0  0  0  0  0  0  0  0  0  0  0
    0.9249    1.3380    0.4223 C   0  0  0  0  0  0  0  0  0  0  0  0
    1.6090    0.0319    0.6252 C   0  0  0  0  0  0  0  0  0  0  0  0
    2.8210    0.0073   -0.2986 C   0  0  0  0  0  0  0  0  0  0  0  0
    0.5839   -0.9889    0.1137 C   0  0  0  0  0  0  0  0  0  0  0  0
   -2.9870    1.0787   -0.4996 H   0  0  0  0  0  0  0  0  0  0  0  0
   -3.8988   -0.4247   -0.9921 H   0  0  0  0  0  0  0  0  0  0  0  0
   -3.4254   -0.2318    0.7333 H   0  0  0  0  0  0  0  0  0  0  0  0
   -1.0228   -0.5362    1.4041 H   0  0  0  0  0  0  0  0  0  0  0  0
   -1.0872    2.0113    0.1060 H   0  0  0  0  0  0  0  0  0  0  0  0
    1.4196    2.3310    0.3969 H   0  0  0  0  0  0  0  0  0  0  0  0
    1.8882   -0.1567    1.6716 H   0  0  0  0  0  0  0  0  0  0  0  0
    3.7682    0.0064    0.2739 H   0  0  0  0  0  0  0  0  0  0  0  0
    2.7713   -0.9193   -0.9201 H   0  0  0  0  0  0  0  0  0  0  0  0
    2.8492    0.9076   -0.9601 H   0  0  0  0  0  0  0  0  0  0  0  0
    0.6919   -1.9374    0.7128 H   0  0  0  0  0  0  0  0  0  0  0  0
    0.7793   -1.2651   -0.9332 H   0  0  0  0  0  0  0  0  0  0  0  0
  1  2  1  0
  2  3  2  0
  2  4  1  0
  4  5  1  0
  5  6  2  0
  6  7  1  0
  7  8  1  0
  7  9  1  0
  9  4  1  0
  1 10  1  0
  1 11  1  0
  1 12  1  0
  4 13  1  0
  5 14  1  0
  6 15  1  0
  7 16  1  0
  8 17  1  0
  8 18  1  0
  8 19  1  0
  9 20  1  0
  9 21  1  0
M  END
