
     RDKit          3D

 11 10  0  0  0  0  0  0  0  0999 V2000
   -1.7214   -0.0060    0.2206 C   0  0  0  0  0  0  0  0  0  0  0  0
   -0.3828    0.3407   -0.2891 C   0  0  0  0  0  0  0  0  0  0  0  0
   -0.2968    1.2289   -1.1697 O   0  0  0  0  0  0  0  0  0  0  0  0
    0.7680   -0.3629    0.2536 C   0  0  0  0  0  0  0  0  0  0  0  0
    0.6428   -1.2582    1.1461 O   0  0  0  0  0  0  0  0  0  0  0  0
    2.0715   -0.0183   -0.2496 C   0  0  0  0  0  0  0  0  0  0  0  0
    2.1843    0.8573   -1.1213 O   0  0  0  0  0  0  0  0  0  0  0  0
   -2.3098    0.9313    0.2799 H   0  0  0  0  0  0  0  0  0  0  0  0
   -2.2538   -0.7371   -0.4288 H   0  0  0  0  0  0  0  0  0  0  0  0
   -1.6360   -0.4546    1.2251 H   0  0  0  0  0  0  0  0  0  0  0  0
    2.9340   -0.5213    0.1332 H   0  0  0  0  0  0  0  0  0  0  0  0
  1  2  1  0
  2  3  2  0
  2  4  1  0
  4  5  2  0
  4  6  1  0
  6  7  2  0
  1  8  1  0
  1  9  1  0
  1 10  1  0
  6 11  1  0
M  END
