
     RDKit          3D

 21 21  0  0  0  0  0  0  0  0999 V2000
    2.7031    0.1912   -0.6623 C   0  0  0  0  0  0  0  0  0  0  0  0
    1.7962   -0.0166    0.5250 C   0  0  0  0  0  0  0  0  0  0  0  0
    2.1842    0.3829    1.5930 O   0  0  0  0  0  0  0  0  0  0  0  0
    0.4909   -0.6930    0.3188 C   0  0  0  0  0  0  0  0  0  0  0  0
   -0.1765   -0.7780    1.5383 O   0  0  0  0  0  0  0  0  0  0  0  0
   -0.3440    0.0322   -0.7201 C   0  0  0  0  0  0  0  0  0  0  0  0
   -1.6769   -0.6106   -0.9684 C   0  0  0  0  0  0  0  0  0  0  0  0
   -2.2714    0.3333    0.0605 C   0  0  0  0  0  0  0  0  0  0  0  0
   -1.0704    1.2462   -0.1893 C   0  0  0  0  0  0  0  0  0  0  0  0
    3.6981   -0.2804   -0.4892 H   0  0  0  0  0  0  0  0  0  0  0  0
    2.8961    1.2801   -0.7884 H   0  0  0  0  0  0  0  0  0  0  0  0
    2.2768   -0.2340   -1.5790 H   0  0  0  0  0  0  0  0  0  0  0  0
    0.7133   -1.7003   -0.1054 H   0  0  0  0  0  0  0  0  0  0  0  0
    0.0217   -1.6544    1.9588 H   0  0  0  0  0  0  0  0  0  0  0  0
    0.2285    0.1721   -1.6354 H   0  0  0  0  0  0  0  0  0  0  0  0
   -2.1140   -0.3741   -1.9750 H   0  0  0  0  0  0  0  0  0  0  0  0
   -1.7819   -1.6658   -0.6806 H   0  0  0  0  0  0  0  0  0  0  0  0
   -3.2472    0.7861   -0.2498 H   0  0  0  0  0  0  0  0  0  0  0  0
   -2.3541   -0.0535    1.0755 H   0  0  0  0  0  0  0  0  0  0  0  0
   -1.3146    1.9262   -1.0350 H   0  0  0  0  0  0  0  0  0  0  0  0
   -0.6578    1.7103    0.7098 H   0  0  0  0  0  0  0  0  0  0  0  0
  1  2  1  0
  2  3  2  0
  2  4  1  0
  4  5  1  0
  4  6  1  0
  6  7  1  0
  7  8  1  0
  8  9  1  0
  9  6  1  0
  1 10  1  0
  1 11  1  0
  1 12  1  0
  4 13  1  0
  5 14  1  0
  6 15  1  0
  7 16  1  0
  7 17  1  0
  8 18  1  0
  8 19  1  0
  9 20  1  0
  9 21  1  0
M  END
