
     RDKit          3D

 17 17  0  0  0  0  0  0  0  0999 V2000
   -1.7565    0.6060    0.3683 C   0  0  0  0  0  0  0  0  0  0  0  0
   -1.1011   -0.0903   -0.7884 C   0  0  0  0  0  0  0  0  0  0  0  0
   -1.7413   -0.2488   -1.8043 O   0  0  0  0  0  0  0  0  0  0  0  0
    0.3206   -0.5523   -0.6151 C   0  0  0  0  0  0  0  0  0  0  0  0
    0.6939   -1.0430    0.6124 C   0  0  0  0  0  0  0  0  0  0  0  0
    1.4873   -2.2175    0.6538 O   0  0  0  0  0  0  0  0  0  0  0  0
    1.1294    0.2600    0.2683 C   0  0  0  0  0  0  0  0  0  0  0  0
    1.0732    1.5084   -0.3621 C   0  0  0  0  0  0  0  0  0  0  0  0
    1.9953    2.3459   -0.4730 O   0  0  0  0  0  0  0  0  0  0  0  0
   -2.3648    1.4627   -0.0257 H   0  0  0  0  0  0  0  0  0  0  0  0
   -1.0183    1.0411    1.0619 H   0  0  0  0  0  0  0  0  0  0  0  0
   -2.4929   -0.0623    0.8748 H   0  0  0  0  0  0  0  0  0  0  0  0
    0.6950   -1.0534   -1.5404 H   0  0  0  0  0  0  0  0  0  0  0  0
   -0.0729   -1.1159    1.4463 H   0  0  0  0  0  0  0  0  0  0  0  0
    0.8559   -2.9655    0.4605 H   0  0  0  0  0  0  0  0  0  0  0  0
    2.1383    0.2233    0.7119 H   0  0  0  0  0  0  0  0  0  0  0  0
    0.1587    1.9017   -0.8492 H   0  0  0  0  0  0  0  0  0  0  0  0
  1  2  1  0
  2  3  2  0
  2  4  1  0
  4  5  1  0
  5  6  1  0
  5  7  1  0
  7  8  1  0
  8  9  2  0
  7  4  1  0
  1 10  1  0
  1 11  1  0
  1 12  1  0
  4 13  1  0
  5 14  1  0
  6 15  1  0
  7 16  1  0
  8 17  1  0
M  END
