
     RDKit          3D

 16 17  0  0  0  0  0  0  0  0999 V2000
    2.1859    0.0299   -0.2839 C   0  0  0  0  0  0  0  0  0  0  0  0
    0.7984    0.4018   -0.6606 C   0  0  0  0  0  0  0  0  0  0  0  0
    0.6431    1.2198   -1.5318 O   0  0  0  0  0  0  0  0  0  0  0  0
   -0.3340   -0.2231    0.0234 C   0  0  0  0  0  0  0  0  0  0  0  0
   -0.5169   -0.0851    1.5086 C   0  0  0  0  0  0  0  0  0  0  0  0
   -1.5901    0.7705    1.2306 O   0  0  0  0  0  0  0  0  0  0  0  0
   -1.6660    0.5509   -0.1262 C   0  0  0  0  0  0  0  0  0  0  0  0
   -1.4969   -0.7899   -0.7118 C   0  0  0  0  0  0  0  0  0  0  0  0
    2.7800   -0.1835   -1.1971 H   0  0  0  0  0  0  0  0  0  0  0  0
    2.1780   -0.8919    0.3281 H   0  0  0  0  0  0  0  0  0  0  0  0
    2.6520    0.8932    0.2729 H   0  0  0  0  0  0  0  0  0  0  0  0
   -0.8831   -1.0110    2.0041 H   0  0  0  0  0  0  0  0  0  0  0  0
    0.3522    0.3669    1.9843 H   0  0  0  0  0  0  0  0  0  0  0  0
   -1.6733    1.4118   -0.8178 H   0  0  0  0  0  0  0  0  0  0  0  0
   -1.3625   -0.8504   -1.8028 H   0  0  0  0  0  0  0  0  0  0  0  0
   -2.0668   -1.6099   -0.2200 H   0  0  0  0  0  0  0  0  0  0  0  0
  1  2  1  0
  2  3  2  0
  2  4  1  0
  4  5  1  0
  5  6  1  0
  6  7  1  0
  7  8  1  0
  7  4  1  0
  8  4  1  0
  1  9  1  0
  1 10  1  0
  1 11  1  0
  5 12  1  0
  5 13  1  0
  7 14  1  0
  8 15  1  0
  8 16  1  0
M  END
