
     RDKit          3D

 17 17  0  0  0  0  0  0  0  0999 V2000
    3.4876   -0.0036   -0.3261 C   0  0  0  0  0  0  0  0  0  0  0  0
    2.2041    0.4843   -0.8962 C   0  0  0  0  0  0  0  0  0  0  0  0
    2.2503    1.3086   -1.8335 O   0  0  0  0  0  0  0  0  0  0  0  0
    0.9498   -0.0051   -0.3539 C   0  0  0  0  0  0  0  0  0  0  0  0
   -0.1044   -0.4072    0.0797 C   0  0  0  0  0  0  0  0  0  0  0  0
   -1.3679   -0.9126    0.6108 C   0  0  0  0  0  0  0  0  0  0  0  0
   -2.4980   -0.0152    0.2074 C   0  0  0  0  0  0  0  0  0  0  0  0
   -2.4006    0.4813    1.6512 C   0  0  0  0  0  0  0  0  0  0  0  0
   -1.5905   -0.6168    1.9577 O   0  0  0  0  0  0  0  0  0  0  0  0
    3.3300   -0.3657    0.7286 H   0  0  0  0  0  0  0  0  0  0  0  0
    3.9388   -0.7944   -0.9631 H   0  0  0  0  0  0  0  0  0  0  0  0
    4.1929    0.8530   -0.3502 H   0  0  0  0  0  0  0  0  0  0  0  0
   -1.4941   -1.9915    0.4179 H   0  0  0  0  0  0  0  0  0  0  0  0
   -2.2842    0.7515   -0.5477 H   0  0  0  0  0  0  0  0  0  0  0  0
   -3.4346   -0.5779    0.0466 H   0  0  0  0  0  0  0  0  0  0  0  0
   -1.8269    1.4072    1.7766 H   0  0  0  0  0  0  0  0  0  0  0  0
   -3.3524    0.4042    2.2082 H   0  0  0  0  0  0  0  0  0  0  0  0
  1  2  1  0
  2  3  2  0
  2  4  1  0
  4  5  3  0
  5  6  1  0
  6  7  1  0
  7  8  1  0
  8  9  1  0
  9  6  1  0
  1 10  1  0
  1 11  1  0
  1 12  1  0
  6 13  1  0
  7 14  1  0
  7 15  1  0
  8 16  1  0
  8 17  1  0
M  END
