
     RDKit          3D

 21 21  0  0  0  0  0  0  0  0999 V2000
    3.0849    0.6192    0.1448 C   0  0  0  0  0  0  0  0  0  0  0  0
    2.4336   -0.6958   -0.0625 C   0  0  0  0  0  0  0  0  0  0  0  0
    2.9410   -1.7272    0.2479 O   0  0  0  0  0  0  0  0  0  0  0  0
    1.0727   -0.6662   -0.6974 C   0  0  0  0  0  0  0  0  0  0  0  0
    0.1077   -0.3327    0.4009 C   0  0  0  0  0  0  0  0  0  0  0  0
   -1.3264   -0.2526   -0.0298 C   0  0  0  0  0  0  0  0  0  0  0  0
   -2.2917    0.0893    1.0787 C   0  0  0  0  0  0  0  0  0  0  0  0
   -2.9575    0.7502   -0.1046 C   0  0  0  0  0  0  0  0  0  0  0  0
   -1.6906    0.9460   -0.6456 O   0  0  0  0  0  0  0  0  0  0  0  0
    2.3634    1.3183    0.6694 H   0  0  0  0  0  0  0  0  0  0  0  0
    3.9596    0.5103    0.7850 H   0  0  0  0  0  0  0  0  0  0  0  0
    3.2894    1.0669   -0.8481 H   0  0  0  0  0  0  0  0  0  0  0  0
    1.0681    0.0585   -1.5227 H   0  0  0  0  0  0  0  0  0  0  0  0
    0.8365   -1.6612   -1.1392 H   0  0  0  0  0  0  0  0  0  0  0  0
    0.1810   -1.1281    1.1706 H   0  0  0  0  0  0  0  0  0  0  0  0
    0.3691    0.6077    0.9244 H   0  0  0  0  0  0  0  0  0  0  0  0
   -1.7094   -1.1038   -0.6297 H   0  0  0  0  0  0  0  0  0  0  0  0
   -2.8028   -0.8278    1.4442 H   0  0  0  0  0  0  0  0  0  0  0  0
   -1.8936    0.7558    1.8626 H   0  0  0  0  0  0  0  0  0  0  0  0
   -3.5031    0.0007   -0.7133 H   0  0  0  0  0  0  0  0  0  0  0  0
   -3.5321    1.6724    0.1257 H   0  0  0  0  0  0  0  0  0  0  0  0
  1  2  1  0
  2  3  2  0
  2  4  1  0
  4  5  1  0
  5  6  1  0
  6  7  1  0
  7  8  1  0
  8  9  1  0
  9  6  1  0
  1 10  1  0
  1 11  1  0
  1 12  1  0
  4 13  1  0
  4 14  1  0
  5 15  1  0
  5 16  1  0
  6 17  1  0
  7 18  1  0
  7 19  1  0
  8 20  1  0
  8 21  1  0
M  END
