
     RDKit          3D

 15 14  0  0  0  0  0  0  0  0999 V2000
   -2.1016   -1.5475   -0.9558 C   0  0  0  0  0  0  0  0  0  0  0  0
   -1.1479   -1.7619    0.2167 C   0  0  0  0  0  0  0  0  0  0  0  0
   -1.2066   -2.8771    0.7753 O   0  0  0  0  0  0  0  0  0  0  0  0
   -0.2870   -0.7431    0.6028 C   0  0  0  0  0  0  0  0  0  0  0  0
    0.4935    0.1984    0.9768 C   0  0  0  0  0  0  0  0  0  0  0  0
    1.3913    1.2617    1.4260 C   0  0  0  0  0  0  0  0  0  0  0  0
    2.2726    1.4595    0.3194 O   0  0  0  0  0  0  0  0  0  0  0  0
    1.8176    1.8383   -0.9168 C   0  0  0  0  0  0  0  0  0  0  0  0
    0.5354    2.0039   -0.9688 O   0  0  0  0  0  0  0  0  0  0  0  0
   -1.6595   -2.0620   -1.8300 H   0  0  0  0  0  0  0  0  0  0  0  0
   -3.0624   -2.0333   -0.7167 H   0  0  0  0  0  0  0  0  0  0  0  0
   -2.2314   -0.4616   -1.1601 H   0  0  0  0  0  0  0  0  0  0  0  0
    1.9228    0.9553    2.3372 H   0  0  0  0  0  0  0  0  0  0  0  0
    0.8199    2.1955    1.6381 H   0  0  0  0  0  0  0  0  0  0  0  0
    2.4433    1.9755   -1.7441 H   0  0  0  0  0  0  0  0  0  0  0  0
  1  2  1  0
  2  3  2  0
  2  4  1  0
  4  5  3  0
  5  6  1  0
  6  7  1  0
  7  8  1  0
  8  9  2  0
  1 10  1  0
  1 11  1  0
  1 12  1  0
  6 13  1  0
  6 14  1  0
  8 15  1  0
M  END
