
     RDKit          3D

  9  8  0  0  0  0  0  0  0  0999 V2000
   -1.0718   -0.4353   -0.0491 C   0  0  0  0  0  0  0  0  0  0  0  0
    0.0307    0.5190   -0.2267 C   0  0  0  0  0  0  0  0  0  0  0  0
   -0.2014    1.6515   -0.7716 O   0  0  0  0  0  0  0  0  0  0  0  0
    1.3894    0.2326    0.1931 C   0  0  0  0  0  0  0  0  0  0  0  0
    1.6146   -0.8767    0.7264 O   0  0  0  0  0  0  0  0  0  0  0  0
   -0.6356   -1.4307    0.2255 H   0  0  0  0  0  0  0  0  0  0  0  0
   -1.6792   -0.0957    0.8204 H   0  0  0  0  0  0  0  0  0  0  0  0
   -1.6501   -0.4736   -0.9922 H   0  0  0  0  0  0  0  0  0  0  0  0
    2.2035    0.9088    0.0743 H   0  0  0  0  0  0  0  0  0  0  0  0
  1  2  1  0
  2  3  2  0
  2  4  1  0
  4  5  2  0
  1  6  1  0
  1  7  1  0
  1  8  1  0
  4  9  1  0
M  END
