
     RDKit          3D

 16 15  0  0  0  0  0  0  0  0999 V2000
   -1.9721   -0.8705   -0.0474 C   0  0  0  0  0  0  0  0  0  0  0  0
   -1.1338    0.3545   -0.1758 C   0  0  0  0  0  0  0  0  0  0  0  0
   -1.6372    1.2957   -0.7966 O   0  0  0  0  0  0  0  0  0  0  0  0
    0.2333    0.4461    0.4083 C   0  0  0  0  0  0  0  0  0  0  0  0
    0.7923    1.7842    0.1056 C   0  0  0  0  0  0  0  0  0  0  0  0
    1.1323    2.0038   -1.0359 O   0  0  0  0  0  0  0  0  0  0  0  0
    1.1555   -0.5789   -0.2143 C   0  0  0  0  0  0  0  0  0  0  0  0
    2.4369   -0.5066    0.3205 O   0  0  0  0  0  0  0  0  0  0  0  0
   -1.4147   -1.7471    0.2994 H   0  0  0  0  0  0  0  0  0  0  0  0
   -2.4320   -1.0369   -1.0621 H   0  0  0  0  0  0  0  0  0  0  0  0
   -2.8401   -0.6744    0.6487 H   0  0  0  0  0  0  0  0  0  0  0  0
    0.1164    0.2708    1.5020 H   0  0  0  0  0  0  0  0  0  0  0  0
    0.9027    2.5477    0.8497 H   0  0  0  0  0  0  0  0  0  0  0  0
    0.7679   -1.6038   -0.0046 H   0  0  0  0  0  0  0  0  0  0  0  0
    1.1942   -0.3730   -1.3038 H   0  0  0  0  0  0  0  0  0  0  0  0
    2.6985   -1.3115    0.8228 H   0  0  0  0  0  0  0  0  0  0  0  0
  1  2  1  0
  2  3  2  0
  2  4  1  0
  4  5  1  0
  5  6  2  0
  4  7  1  0
  7  8  1  0
  1  9  1  0
  1 10  1  0
  1 11  1  0
  4 12  1  0
  5 13  1  0
  7 14  1  0
  7 15  1  0
  8 16  1  0
M  END
