
     RDKit          3D

 21 21  0  0  0  0  0  0  0  0999 V2000
    2.1048   -0.8971   -0.6903 C   0  0  0  0  0  0  0  0  0  0  0  0
    1.4980    0.2850   -0.0611 C   0  0  0  0  0  0  0  0  0  0  0  0
    2.2540    1.1792    0.3101 O   0  0  0  0  0  0  0  0  0  0  0  0
    0.0350    0.3807    0.1117 C   0  0  0  0  0  0  0  0  0  0  0  0
   -0.3457    1.6784    0.7780 C   0  0  0  0  0  0  0  0  0  0  0  0
   -0.7667    0.2065   -1.1605 C   0  0  0  0  0  0  0  0  0  0  0  0
   -1.6839   -0.7298   -0.3645 C   0  0  0  0  0  0  0  0  0  0  0  0
   -0.5873   -0.8537    0.6534 C   0  0  0  0  0  0  0  0  0  0  0  0
   -0.9501   -0.8760    1.9703 O   0  0  0  0  0  0  0  0  0  0  0  0
    1.5311   -1.1769   -1.5985 H   0  0  0  0  0  0  0  0  0  0  0  0
    2.1365   -1.7716   -0.0020 H   0  0  0  0  0  0  0  0  0  0  0  0
    3.1525   -0.7057   -1.0308 H   0  0  0  0  0  0  0  0  0  0  0  0
    0.3219    1.8956    1.6285 H   0  0  0  0  0  0  0  0  0  0  0  0
   -0.1613    2.4812    0.0054 H   0  0  0  0  0  0  0  0  0  0  0  0
   -1.4194    1.7331    1.0212 H   0  0  0  0  0  0  0  0  0  0  0  0
   -0.2497   -0.2643   -1.9949 H   0  0  0  0  0  0  0  0  0  0  0  0
   -1.3811    1.0974   -1.4500 H   0  0  0  0  0  0  0  0  0  0  0  0
   -1.8661   -1.6454   -0.9778 H   0  0  0  0  0  0  0  0  0  0  0  0
   -2.5793   -0.2524    0.0487 H   0  0  0  0  0  0  0  0  0  0  0  0
    0.0445   -1.7550    0.4061 H   0  0  0  0  0  0  0  0  0  0  0  0
   -1.0878   -0.0092    2.3969 H   0  0  0  0  0  0  0  0  0  0  0  0
  1  2  1  0
  2  3  2  0
  2  4  1  0
  4  5  1  0
  4  6  1  0
  6  7  1  0
  7  8  1  0
  8  9  1  0
  8  4  1  0
  1 10  1  0
  1 11  1  0
  1 12  1  0
  5 13  1  0
  5 14  1  0
  5 15  1  0
  6 16  1  0
  6 17  1  0
  7 18  1  0
  7 19  1  0
  8 20  1  0
  9 21  1  0
M  END
