
     RDKit          3D

 19 19  0  0  0  0  0  0  0  0999 V2000
    2.8737    0.5315    0.4422 C   0  0  0  0  0  0  0  0  0  0  0  0
    1.6919    0.1893   -0.3707 C   0  0  0  0  0  0  0  0  0  0  0  0
    1.8020    0.0402   -1.5598 O   0  0  0  0  0  0  0  0  0  0  0  0
    0.3862    0.0344    0.2916 C   0  0  0  0  0  0  0  0  0  0  0  0
   -0.4052   -1.1733   -0.2262 C   0  0  0  0  0  0  0  0  0  0  0  0
    0.0789   -1.8694   -1.3100 O   0  0  0  0  0  0  0  0  0  0  0  0
   -0.8848    0.2488   -0.4232 C   0  0  0  0  0  0  0  0  0  0  0  0
   -2.0909    0.6324    0.3553 C   0  0  0  0  0  0  0  0  0  0  0  0
   -3.2244    0.8010   -0.4596 O   0  0  0  0  0  0  0  0  0  0  0  0
    3.7679    0.7700   -0.1678 H   0  0  0  0  0  0  0  0  0  0  0  0
    3.1374   -0.3633    1.0479 H   0  0  0  0  0  0  0  0  0  0  0  0
    2.5874    1.3663    1.1152 H   0  0  0  0  0  0  0  0  0  0  0  0
    0.3421    0.1850    1.4033 H   0  0  0  0  0  0  0  0  0  0  0  0
   -0.8898   -1.7976    0.5444 H   0  0  0  0  0  0  0  0  0  0  0  0
   -0.1128   -2.8563   -1.2424 H   0  0  0  0  0  0  0  0  0  0  0  0
   -0.8270    0.6929   -1.4357 H   0  0  0  0  0  0  0  0  0  0  0  0
   -2.3284   -0.1667    1.0835 H   0  0  0  0  0  0  0  0  0  0  0  0
   -1.9498    1.6210    0.8715 H   0  0  0  0  0  0  0  0  0  0  0  0
   -3.9543    1.1136    0.1303 H   0  0  0  0  0  0  0  0  0  0  0  0
  1  2  1  0
  2  3  2  0
  2  4  1  0
  4  5  1  0
  5  6  1  0
  5  7  1  0
  7  8  1  0
  8  9  1  0
  7  4  1  0
  1 10  1  0
  1 11  1  0
  1 12  1  0
  4 13  1  0
  5 14  1  0
  6 15  1  0
  7 16  1  0
  8 17  1  0
  8 18  1  0
  9 19  1  0
M  END
