
     RDKit          3D

 21 21  0  0  0  0  0  0  0  0999 V2000
    2.7929    0.4423   -0.2790 C   0  0  0  0  0  0  0  0  0  0  0  0
    1.6737   -0.2848    0.3578 C   0  0  0  0  0  0  0  0  0  0  0  0
    1.8920   -0.8112    1.4326 O   0  0  0  0  0  0  0  0  0  0  0  0
    0.3153   -0.4116   -0.2250 C   0  0  0  0  0  0  0  0  0  0  0  0
   -0.5568   -1.2030    0.6747 C   0  0  0  0  0  0  0  0  0  0  0  0
   -2.0108   -0.9135    0.5809 C   0  0  0  0  0  0  0  0  0  0  0  0
   -2.2974   -0.2477   -0.6334 O   0  0  0  0  0  0  0  0  0  0  0  0
   -1.7418    1.0034   -0.5066 C   0  0  0  0  0  0  0  0  0  0  0  0
   -0.2581    0.9112   -0.6488 C   0  0  0  0  0  0  0  0  0  0  0  0
    3.5289   -0.2938   -0.6673 H   0  0  0  0  0  0  0  0  0  0  0  0
    3.3058    1.0331    0.5159 H   0  0  0  0  0  0  0  0  0  0  0  0
    2.4896    1.0867   -1.1174 H   0  0  0  0  0  0  0  0  0  0  0  0
    0.4532   -1.0203   -1.1688 H   0  0  0  0  0  0  0  0  0  0  0  0
   -0.2134   -1.0585    1.7334 H   0  0  0  0  0  0  0  0  0  0  0  0
   -0.4237   -2.3103    0.4934 H   0  0  0  0  0  0  0  0  0  0  0  0
   -2.2929   -0.1620    1.3756 H   0  0  0  0  0  0  0  0  0  0  0  0
   -2.6730   -1.7836    0.6237 H   0  0  0  0  0  0  0  0  0  0  0  0
   -2.0226    1.4289    0.4986 H   0  0  0  0  0  0  0  0  0  0  0  0
   -2.1371    1.7016   -1.2715 H   0  0  0  0  0  0  0  0  0  0  0  0
    0.0033    1.1229   -1.7080 H   0  0  0  0  0  0  0  0  0  0  0  0
    0.1727    1.7704   -0.0610 H   0  0  0  0  0  0  0  0  0  0  0  0
  1  2  1  0
  2  3  2  0
  2  4  1  0
  4  5  1  0
  5  6  1  0
  6  7  1  0
  7  8  1  0
  8  9  1  0
  9  4  1  0
  1 10  1  0
  1 11  1  0
  1 12  1  0
  4 13  1  0
  5 14  1  0
  5 15  1  0
  6 16  1  0
  6 17  1  0
  8 18  1  0
  8 19  1  0
  9 20  1  0
  9 21  1  0
M  END
