
     RDKit          3D

 21 21  0  0  0  0  0  0  0  0999 V2000
   -1.9659    1.3990    0.4503 C   0  0  0  0  0  0  0  0  0  0  0  0
   -1.3099    0.1028    0.7435 C   0  0  0  0  0  0  0  0  0  0  0  0
   -1.8216   -0.6097    1.5858 O   0  0  0  0  0  0  0  0  0  0  0  0
   -0.0730   -0.3044    0.0307 C   0  0  0  0  0  0  0  0  0  0  0  0
   -0.4015   -0.3598   -1.4492 C   0  0  0  0  0  0  0  0  0  0  0  0
    0.2583   -1.7234    0.4460 C   0  0  0  0  0  0  0  0  0  0  0  0
    1.0616    0.6343    0.3206 C   0  0  0  0  0  0  0  0  0  0  0  0
    2.3653    0.4852   -0.2291 C   0  0  0  0  0  0  0  0  0  0  0  0
    2.1184   -0.0015    1.1420 O   0  0  0  0  0  0  0  0  0  0  0  0
   -2.4967    1.2617   -0.5329 H   0  0  0  0  0  0  0  0  0  0  0  0
   -2.7231    1.6589    1.1989 H   0  0  0  0  0  0  0  0  0  0  0  0
   -1.1787    2.1771    0.3764 H   0  0  0  0  0  0  0  0  0  0  0  0
   -0.2467    0.6318   -1.9412 H   0  0  0  0  0  0  0  0  0  0  0  0
   -1.4327   -0.7384   -1.5552 H   0  0  0  0  0  0  0  0  0  0  0  0
    0.3032   -1.0826   -1.9022 H   0  0  0  0  0  0  0  0  0  0  0  0
    1.2397   -2.0335   -0.0040 H   0  0  0  0  0  0  0  0  0  0  0  0
    0.4365   -1.6969    1.5426 H   0  0  0  0  0  0  0  0  0  0  0  0
   -0.5535   -2.4004    0.1567 H   0  0  0  0  0  0  0  0  0  0  0  0
    0.7459    1.6151    0.7503 H   0  0  0  0  0  0  0  0  0  0  0  0
    3.0951    1.3005   -0.1765 H   0  0  0  0  0  0  0  0  0  0  0  0
    2.5793   -0.3158   -0.9537 H   0  0  0  0  0  0  0  0  0  0  0  0
  1  2  1  0
  2  3  2  0
  2  4  1  0
  4  5  1  0
  4  6  1  0
  4  7  1  0
  7  8  1  0
  8  9  1  0
  9  7  1  0
  1 10  1  0
  1 11  1  0
  1 12  1  0
  5 13  1  0
  5 14  1  0
  5 15  1  0
  6 16  1  0
  6 17  1  0
  6 18  1  0
  7 19  1  0
  8 20  1  0
  8 21  1  0
M  END
