
     RDKit          3D

 19 19  0  0  0  0  0  0  0  0999 V2000
   -2.8543   -0.1255    1.2279 C   0  0  0  0  0  0  0  0  0  0  0  0
   -1.8618   -0.3507    0.1419 C   0  0  0  0  0  0  0  0  0  0  0  0
   -2.0996   -1.2389   -0.6580 O   0  0  0  0  0  0  0  0  0  0  0  0
   -0.6186    0.4980    0.0539 C   0  0  0  0  0  0  0  0  0  0  0  0
    0.1533    0.0244   -1.1266 C   0  0  0  0  0  0  0  0  0  0  0  0
    0.4739   -1.4272   -0.8618 O   0  0  0  0  0  0  0  0  0  0  0  0
    1.4484   -0.5028   -1.2171 C   0  0  0  0  0  0  0  0  0  0  0  0
    2.5878   -0.2345   -0.2681 C   0  0  0  0  0  0  0  0  0  0  0  0
    2.1985    0.2412    0.9638 O   0  0  0  0  0  0  0  0  0  0  0  0
   -2.4656   -0.5424    2.1993 H   0  0  0  0  0  0  0  0  0  0  0  0
   -3.8253   -0.5539    0.9716 H   0  0  0  0  0  0  0  0  0  0  0  0
   -2.9579    0.9666    1.3962 H   0  0  0  0  0  0  0  0  0  0  0  0
   -0.9708    1.5416   -0.0230 H   0  0  0  0  0  0  0  0  0  0  0  0
   -0.1028    0.4151    1.0299 H   0  0  0  0  0  0  0  0  0  0  0  0
   -0.4643    0.1021   -2.0761 H   0  0  0  0  0  0  0  0  0  0  0  0
    1.8378   -0.7400   -2.2566 H   0  0  0  0  0  0  0  0  0  0  0  0
    3.2355    0.5703   -0.7237 H   0  0  0  0  0  0  0  0  0  0  0  0
    3.2769   -1.1157   -0.1892 H   0  0  0  0  0  0  0  0  0  0  0  0
    3.0090    0.5819    1.4159 H   0  0  0  0  0  0  0  0  0  0  0  0
  1  2  1  0
  2  3  2  0
  2  4  1  0
  4  5  1  0
  5  6  1  0
  6  7  1  0
  7  8  1  0
  8  9  1  0
  7  5  1  0
  1 10  1  0
  1 11  1  0
  1 12  1  0
  4 13  1  0
  4 14  1  0
  5 15  1  0
  7 16  1  0
  8 17  1  0
  8 18  1  0
  9 19  1  0
M  END
