
     RDKit          3D

 21 21  0  0  0  0  0  0  0  0999 V2000
    2.2860    0.2930    0.8596 C   0  0  0  0  0  0  0  0  0  0  0  0
    1.7316   -0.1767   -0.4354 C   0  0  0  0  0  0  0  0  0  0  0  0
    2.3927    0.0097   -1.4398 O   0  0  0  0  0  0  0  0  0  0  0  0
    0.4049   -0.8460   -0.4320 C   0  0  0  0  0  0  0  0  0  0  0  0
    0.1169   -1.1879   -1.7727 O   0  0  0  0  0  0  0  0  0  0  0  0
   -0.6995    0.1152   -0.0132 C   0  0  0  0  0  0  0  0  0  0  0  0
   -0.8224    1.3088   -0.9244 C   0  0  0  0  0  0  0  0  0  0  0  0
   -2.0091   -0.5721    0.2911 C   0  0  0  0  0  0  0  0  0  0  0  0
   -1.2039    0.1655    1.3540 C   0  0  0  0  0  0  0  0  0  0  0  0
    3.2601    0.7894    0.7570 H   0  0  0  0  0  0  0  0  0  0  0  0
    2.3923   -0.6074    1.5339 H   0  0  0  0  0  0  0  0  0  0  0  0
    1.5481    0.9518    1.3594 H   0  0  0  0  0  0  0  0  0  0  0  0
    0.3866   -1.7832    0.1420 H   0  0  0  0  0  0  0  0  0  0  0  0
    0.2308   -2.1511   -1.9357 H   0  0  0  0  0  0  0  0  0  0  0  0
   -0.0597    2.0700   -0.7479 H   0  0  0  0  0  0  0  0  0  0  0  0
   -1.8494    1.7475   -0.8275 H   0  0  0  0  0  0  0  0  0  0  0  0
   -0.7023    0.9317   -1.9640 H   0  0  0  0  0  0  0  0  0  0  0  0
   -2.0183   -1.6858    0.3772 H   0  0  0  0  0  0  0  0  0  0  0  0
   -2.9582   -0.1131   -0.0482 H   0  0  0  0  0  0  0  0  0  0  0  0
   -0.7934   -0.4160    2.1861 H   0  0  0  0  0  0  0  0  0  0  0  0
   -1.6339    1.1567    1.6806 H   0  0  0  0  0  0  0  0  0  0  0  0
  1  2  1  0
  2  3  2  0
  2  4  1  0
  4  5  1  0
  4  6  1  0
  6  7  1  0
  6  8  1  0
  8  9  1  0
  9  6  1  0
  1 10  1  0
  1 11  1  0
  1 12  1  0
  4 13  1  0
  5 14  1  0
  7 15  1  0
  7 16  1  0
  7 17  1  0
  8 18  1  0
  8 19  1  0
  9 20  1  0
  9 21  1  0
M  END
