
     RDKit          3D

 15 15  0  0  0  0  0  0  0  0999 V2000
   -2.0945    0.2666   -0.3935 C   0  0  0  0  0  0  0  0  0  0  0  0
   -1.2019   -0.5202    0.4903 C   0  0  0  0  0  0  0  0  0  0  0  0
   -1.6596   -1.4688    1.0869 O   0  0  0  0  0  0  0  0  0  0  0  0
    0.2011   -0.1382    0.6225 C   0  0  0  0  0  0  0  0  0  0  0  0
    0.5408    0.9778   -0.1402 O   0  0  0  0  0  0  0  0  0  0  0  0
    1.9316    0.8873   -0.1393 C   0  0  0  0  0  0  0  0  0  0  0  0
    2.1024   -0.4540   -0.6235 O   0  0  0  0  0  0  0  0  0  0  0  0
    1.1179   -1.1787    0.0471 C   0  0  0  0  0  0  0  0  0  0  0  0
    1.0096   -2.4172    0.1539 O   0  0  0  0  0  0  0  0  0  0  0  0
   -2.4029   -0.3133   -1.3073 H   0  0  0  0  0  0  0  0  0  0  0  0
   -1.6434    1.2353   -0.6585 H   0  0  0  0  0  0  0  0  0  0  0  0
   -3.0709    0.5052    0.1168 H   0  0  0  0  0  0  0  0  0  0  0  0
    0.4968    0.1012    1.6731 H   0  0  0  0  0  0  0  0  0  0  0  0
    2.2512    0.8940    0.9180 H   0  0  0  0  0  0  0  0  0  0  0  0
    2.4218    1.6230   -0.7669 H   0  0  0  0  0  0  0  0  0  0  0  0
  1  2  1  0
  2  3  2  0
  2  4  1  0
  4  5  1  0
  5  6  1  0
  6  7  1  0
  7  8  1  0
  8  9  2  0
  8  4  1  0
  1 10  1  0
  1 11  1  0
  1 12  1  0
  4 13  1  0
  6 14  1  0
  6 15  1  0
M  END
