
     RDKit          3D

 19 18  0  0  0  0  0  0  0  0999 V2000
    1.4296   -1.2506    0.8886 C   0  0  0  0  0  0  0  0  0  0  0  0
    1.2115    0.1713    0.5220 C   0  0  0  0  0  0  0  0  0  0  0  0
    1.8434    0.9829    1.2183 O   0  0  0  0  0  0  0  0  0  0  0  0
    0.3413    0.6623   -0.5562 C   0  0  0  0  0  0  0  0  0  0  0  0
    0.4171    2.1485   -0.6093 C   0  0  0  0  0  0  0  0  0  0  0  0
    0.4686    2.7800    0.4272 O   0  0  0  0  0  0  0  0  0  0  0  0
   -1.0968    0.2420   -0.4566 C   0  0  0  0  0  0  0  0  0  0  0  0
   -1.2996   -1.2562   -0.4826 C   0  0  0  0  0  0  0  0  0  0  0  0
   -1.7717    0.8540    0.5789 O   0  0  0  0  0  0  0  0  0  0  0  0
    2.5257   -1.3765    1.1466 H   0  0  0  0  0  0  0  0  0  0  0  0
    0.8999   -1.5476    1.8152 H   0  0  0  0  0  0  0  0  0  0  0  0
    1.2081   -1.9248    0.0365 H   0  0  0  0  0  0  0  0  0  0  0  0
    0.7084    0.3139   -1.5662 H   0  0  0  0  0  0  0  0  0  0  0  0
    0.4287    2.7012   -1.5377 H   0  0  0  0  0  0  0  0  0  0  0  0
   -1.5841    0.6183   -1.4059 H   0  0  0  0  0  0  0  0  0  0  0  0
   -2.3972   -1.3844   -0.7357 H   0  0  0  0  0  0  0  0  0  0  0  0
   -0.7700   -1.7533   -1.2874 H   0  0  0  0  0  0  0  0  0  0  0  0
   -1.1158   -1.6337    0.5349 H   0  0  0  0  0  0  0  0  0  0  0  0
   -1.4472    0.6527    1.4695 H   0  0  0  0  0  0  0  0  0  0  0  0
  1  2  1  0
  2  3  2  0
  2  4  1  0
  4  5  1  0
  5  6  2  0
  4  7  1  0
  7  8  1  0
  7  9  1  0
  1 10  1  0
  1 11  1  0
  1 12  1  0
  4 13  1  0
  5 14  1  0
  7 15  1  0
  8 16  1  0
  8 17  1  0
  8 18  1  0
  9 19  1  0
M  END
