
     RDKit          3D

 19 19  0  0  0  0  0  0  0  0999 V2000
    3.4510    0.2728    0.4092 C   0  0  0  0  0  0  0  0  0  0  0  0
    1.9891    0.5639    0.4458 C   0  0  0  0  0  0  0  0  0  0  0  0
    1.6672    1.5709    1.0915 O   0  0  0  0  0  0  0  0  0  0  0  0
    0.9764   -0.2867   -0.2406 C   0  0  0  0  0  0  0  0  0  0  0  0
   -0.2705    0.2700   -0.0010 O   0  0  0  0  0  0  0  0  0  0  0  0
   -1.3058   -0.4290   -0.5875 C   0  0  0  0  0  0  0  0  0  0  0  0
   -2.5988    0.2153   -0.9125 C   0  0  0  0  0  0  0  0  0  0  0  0
   -2.5199   -0.6082    0.3310 C   0  0  0  0  0  0  0  0  0  0  0  0
   -2.5451    0.0960    1.5224 O   0  0  0  0  0  0  0  0  0  0  0  0
    3.9550    1.2627    0.2079 H   0  0  0  0  0  0  0  0  0  0  0  0
    3.6981   -0.3665   -0.4473 H   0  0  0  0  0  0  0  0  0  0  0  0
    3.8294   -0.0926    1.3791 H   0  0  0  0  0  0  0  0  0  0  0  0
    1.2213   -0.3439   -1.3188 H   0  0  0  0  0  0  0  0  0  0  0  0
    1.0498   -1.3358    0.1400 H   0  0  0  0  0  0  0  0  0  0  0  0
   -1.0191   -1.3188   -1.1578 H   0  0  0  0  0  0  0  0  0  0  0  0
   -3.1913   -0.2543   -1.7368 H   0  0  0  0  0  0  0  0  0  0  0  0
   -2.7441    1.3044   -0.8638 H   0  0  0  0  0  0  0  0  0  0  0  0
   -3.0095   -1.6043    0.3574 H   0  0  0  0  0  0  0  0  0  0  0  0
   -2.6332    1.0841    1.3819 H   0  0  0  0  0  0  0  0  0  0  0  0
  1  2  1  0
  2  3  2  0
  2  4  1  0
  4  5  1  0
  5  6  1  0
  6  7  1  0
  7  8  1  0
  8  9  1  0
  8  6  1  0
  1 10  1  0
  1 11  1  0
  1 12  1  0
  4 13  1  0
  4 14  1  0
  6 15  1  0
  7 16  1  0
  7 17  1  0
  8 18  1  0
  9 19  1  0
M  END
