
     RDKit          3D

 18 17  0  0  0  0  0  0  0  0999 V2000
    3.2342    0.7971   -0.2625 C   0  0  0  0  0  0  0  0  0  0  0  0
    2.5941   -0.3243    0.4551 C   0  0  0  0  0  0  0  0  0  0  0  0
    3.3180   -1.2220    0.9274 O   0  0  0  0  0  0  0  0  0  0  0  0
    1.1739   -0.3189    0.5693 C   0  0  0  0  0  0  0  0  0  0  0  0
   -0.0307   -0.2949    0.6583 C   0  0  0  0  0  0  0  0  0  0  0  0
   -1.5075   -0.2497    0.7469 C   0  0  0  0  0  0  0  0  0  0  0  0
   -2.0017    1.0394    0.1329 C   0  0  0  0  0  0  0  0  0  0  0  0
   -2.1076   -1.4048   -0.0582 C   0  0  0  0  0  0  0  0  0  0  0  0
    2.6764    1.7313    0.0195 H   0  0  0  0  0  0  0  0  0  0  0  0
    3.2229    0.6333   -1.3610 H   0  0  0  0  0  0  0  0  0  0  0  0
    4.2765    0.9150    0.0955 H   0  0  0  0  0  0  0  0  0  0  0  0
   -1.8514   -0.3219    1.7766 H   0  0  0  0  0  0  0  0  0  0  0  0
   -1.3913    1.9051    0.5162 H   0  0  0  0  0  0  0  0  0  0  0  0
   -1.9702    1.0229   -0.9683 H   0  0  0  0  0  0  0  0  0  0  0  0
   -3.0483    1.2257    0.5074 H   0  0  0  0  0  0  0  0  0  0  0  0
   -3.0861   -1.7089    0.3128 H   0  0  0  0  0  0  0  0  0  0  0  0
   -1.3723   -2.2503    0.0498 H   0  0  0  0  0  0  0  0  0  0  0  0
   -2.1290   -1.1740   -1.1415 H   0  0  0  0  0  0  0  0  0  0  0  0
  1  2  1  0
  2  3  2  0
  2  4  1  0
  4  5  3  0
  5  6  1  0
  6  7  1  0
  6  8  1  0
  1  9  1  0
  1 10  1  0
  1 11  1  0
  6 12  1  0
  7 13  1  0
  7 14  1  0
  7 15  1  0
  8 16  1  0
  8 17  1  0
  8 18  1  0
M  END
