
     RDKit          3D

 19 20  0  0  0  0  0  0  0  0999 V2000
   -2.6554   -0.1066    0.4646 C   0  0  0  0  0  0  0  0  0  0  0  0
   -1.4621    0.4013   -0.2629 C   0  0  0  0  0  0  0  0  0  0  0  0
   -1.5921    1.2830   -1.0799 O   0  0  0  0  0  0  0  0  0  0  0  0
   -0.1373   -0.1609    0.0063 C   0  0  0  0  0  0  0  0  0  0  0  0
   -0.1513   -1.1405    0.9460 O   0  0  0  0  0  0  0  0  0  0  0  0
    0.5421   -0.5161   -1.3355 C   0  0  0  0  0  0  0  0  0  0  0  0
    1.7542   -0.4808   -0.4249 C   0  0  0  0  0  0  0  0  0  0  0  0
    2.3872    0.6389    0.1768 C   0  0  0  0  0  0  0  0  0  0  0  0
    0.9891    0.8399    0.0173 C   0  0  0  0  0  0  0  0  0  0  0  0
   -3.2237   -0.8463   -0.1289 H   0  0  0  0  0  0  0  0  0  0  0  0
   -2.4001   -0.5862    1.4199 H   0  0  0  0  0  0  0  0  0  0  0  0
   -3.3504    0.7331    0.7138 H   0  0  0  0  0  0  0  0  0  0  0  0
    0.1978   -0.8612    1.8339 H   0  0  0  0  0  0  0  0  0  0  0  0
    0.3106   -1.5045   -1.7151 H   0  0  0  0  0  0  0  0  0  0  0  0
    0.4511    0.3315   -2.0277 H   0  0  0  0  0  0  0  0  0  0  0  0
    1.6291   -1.3481    0.2982 H   0  0  0  0  0  0  0  0  0  0  0  0
    3.1714    1.1576   -0.4559 H   0  0  0  0  0  0  0  0  0  0  0  0
    2.7697    0.6219    1.2428 H   0  0  0  0  0  0  0  0  0  0  0  0
    0.7702    1.5443   -0.8535 H   0  0  0  0  0  0  0  0  0  0  0  0
  1  2  1  0
  2  3  2  0
  2  4  1  0
  4  5  1  0
  4  6  1  0
  6  7  1  0
  7  8  1  0
  8  9  1  0
  9  4  1  0
  9  7  1  0
  1 10  1  0
  1 11  1  0
  1 12  1  0
  5 13  1  0
  6 14  1  0
  6 15  1  0
  7 16  1  0
  8 17  1  0
  8 18  1  0
  9 19  1  0
M  END
