
     RDKit          3D

 17 16  0  0  0  0  0  0  0  0999 V2000
    2.9168   -0.4389    0.5593 C   0  0  0  0  0  0  0  0  0  0  0  0
    1.5958    0.2145    0.6928 C   0  0  0  0  0  0  0  0  0  0  0  0
    1.4527    1.1131    1.5470 O   0  0  0  0  0  0  0  0  0  0  0  0
    0.5570   -0.1630   -0.1065 O   0  0  0  0  0  0  0  0  0  0  0  0
   -0.7292    0.4183   -0.0323 C   0  0  0  0  0  0  0  0  0  0  0  0
   -1.1794    0.9965   -1.3013 C   0  0  0  0  0  0  0  0  0  0  0  0
   -0.5187    0.9832   -2.3254 O   0  0  0  0  0  0  0  0  0  0  0  0
   -1.6623   -0.6635    0.4907 C   0  0  0  0  0  0  0  0  0  0  0  0
   -2.9563   -0.2335    0.6136 O   0  0  0  0  0  0  0  0  0  0  0  0
    3.4026   -0.4282    1.5529 H   0  0  0  0  0  0  0  0  0  0  0  0
    2.8319   -1.4645    0.1467 H   0  0  0  0  0  0  0  0  0  0  0  0
    3.4963    0.1869   -0.1778 H   0  0  0  0  0  0  0  0  0  0  0  0
   -0.6861    1.1952    0.7731 H   0  0  0  0  0  0  0  0  0  0  0  0
   -2.1544    1.4668   -1.3473 H   0  0  0  0  0  0  0  0  0  0  0  0
   -1.5889   -1.5063   -0.2098 H   0  0  0  0  0  0  0  0  0  0  0  0
   -1.2093   -1.0050    1.4587 H   0  0  0  0  0  0  0  0  0  0  0  0
   -3.5686   -0.6716   -0.0172 H   0  0  0  0  0  0  0  0  0  0  0  0
  1  2  1  0
  2  3  2  0
  2  4  1  0
  4  5  1  0
  5  6  1  0
  6  7  2  0
  5  8  1  0
  8  9  1  0
  1 10  1  0
  1 11  1  0
  1 12  1  0
  5 13  1  0
  6 14  1  0
  8 15  1  0
  8 16  1  0
  9 17  1  0
M  END
