
     RDKit          3D

 18 17  0  0  0  0  0  0  0  0999 V2000
    3.1465    0.6783   -0.0469 C   0  0  0  0  0  0  0  0  0  0  0  0
    1.9815   -0.1749   -0.3749 C   0  0  0  0  0  0  0  0  0  0  0  0
    2.1934   -1.1105   -1.2063 O   0  0  0  0  0  0  0  0  0  0  0  0
    0.7283   -0.0284    0.1416 O   0  0  0  0  0  0  0  0  0  0  0  0
   -0.2895   -0.9231   -0.2670 C   0  0  0  0  0  0  0  0  0  0  0  0
   -1.6102   -0.6246    0.3953 C   0  0  0  0  0  0  0  0  0  0  0  0
   -2.1011    0.7552    0.0807 C   0  0  0  0  0  0  0  0  0  0  0  0
   -3.3195    0.9429    0.7303 O   0  0  0  0  0  0  0  0  0  0  0  0
    3.7781    0.0888    0.6669 H   0  0  0  0  0  0  0  0  0  0  0  0
    2.8855    1.6168    0.4424 H   0  0  0  0  0  0  0  0  0  0  0  0
    3.7673    0.8491   -0.9478 H   0  0  0  0  0  0  0  0  0  0  0  0
    0.0229   -1.9372    0.0940 H   0  0  0  0  0  0  0  0  0  0  0  0
   -0.3718   -0.9042   -1.3533 H   0  0  0  0  0  0  0  0  0  0  0  0
   -2.3460   -1.3505    0.0344 H   0  0  0  0  0  0  0  0  0  0  0  0
   -1.5257   -0.7200    1.4852 H   0  0  0  0  0  0  0  0  0  0  0  0
   -2.2295    0.9014   -1.0278 H   0  0  0  0  0  0  0  0  0  0  0  0
   -1.3968    1.5473    0.4243 H   0  0  0  0  0  0  0  0  0  0  0  0
   -3.3133    0.3936    1.5446 H   0  0  0  0  0  0  0  0  0  0  0  0
  1  2  1  0
  2  3  2  0
  2  4  1  0
  4  5  1  0
  5  6  1  0
  6  7  1  0
  7  8  1  0
  1  9  1  0
  1 10  1  0
  1 11  1  0
  5 12  1  0
  5 13  1  0
  6 14  1  0
  6 15  1  0
  7 16  1  0
  7 17  1  0
  8 18  1  0
M  END
