
     RDKit          3D

 23 23  0  0  0  0  0  0  0  0999 V2000
    3.6743    0.1018    0.1847 C   0  0  0  0  0  0  0  0  0  0  0  0
    2.3621    0.5754   -0.2996 C   0  0  0  0  0  0  0  0  0  0  0  0
    2.2829    1.2252   -1.3022 O   0  0  0  0  0  0  0  0  0  0  0  0
    1.1369    0.2386    0.4688 C   0  0  0  0  0  0  0  0  0  0  0  0
   -0.1083    0.8078   -0.1787 C   0  0  0  0  0  0  0  0  0  0  0  0
   -1.2702    0.3909    0.7029 C   0  0  0  0  0  0  0  0  0  0  0  0
   -1.4064   -1.1175    0.8270 C   0  0  0  0  0  0  0  0  0  0  0  0
   -2.4673   -0.2457    0.1672 C   0  0  0  0  0  0  0  0  0  0  0  0
   -2.6947   -0.4656   -1.2956 C   0  0  0  0  0  0  0  0  0  0  0  0
    3.5962   -0.4383    1.1522 H   0  0  0  0  0  0  0  0  0  0  0  0
    4.0626   -0.6269   -0.5514 H   0  0  0  0  0  0  0  0  0  0  0  0
    4.3904    0.9659    0.2825 H   0  0  0  0  0  0  0  0  0  0  0  0
    0.9839   -0.8570    0.5369 H   0  0  0  0  0  0  0  0  0  0  0  0
    1.2145    0.6803    1.4802 H   0  0  0  0  0  0  0  0  0  0  0  0
   -0.0517    1.9047   -0.2940 H   0  0  0  0  0  0  0  0  0  0  0  0
   -0.2576    0.3994   -1.2066 H   0  0  0  0  0  0  0  0  0  0  0  0
   -1.3473    0.9847    1.6512 H   0  0  0  0  0  0  0  0  0  0  0  0
   -1.6014   -1.5639    1.8035 H   0  0  0  0  0  0  0  0  0  0  0  0
   -0.8153   -1.7664    0.1401 H   0  0  0  0  0  0  0  0  0  0  0  0
   -3.4040   -0.1262    0.7780 H   0  0  0  0  0  0  0  0  0  0  0  0
   -3.7764   -0.5045   -1.5408 H   0  0  0  0  0  0  0  0  0  0  0  0
   -2.2598   -1.4350   -1.6206 H   0  0  0  0  0  0  0  0  0  0  0  0
   -2.2434    0.3596   -1.8857 H   0  0  0  0  0  0  0  0  0  0  0  0
  1  2  1  0
  2  3  2  0
  2  4  1  0
  4  5  1  0
  5  6  1  0
  6  7  1  0
  7  8  1  0
  8  9  1  0
  8  6  1  0
  1 10  1  0
  1 11  1  0
  1 12  1  0
  4 13  1  0
  4 14  1  0
  5 15  1  0
  5 16  1  0
  6 17  1  0
  7 18  1  0
  7 19  1  0
  8 20  1  0
  9 21  1  0
  9 22  1  0
  9 23  1  0
M  END
