
     RDKit          3D

 17 18  0  0  0  0  0  0  0  0999 V2000
    2.0898   -0.0341   -0.7249 C   0  0  0  0  0  0  0  0  0  0  0  0
    1.4556   -0.3543    0.5759 C   0  0  0  0  0  0  0  0  0  0  0  0
    2.0819   -1.0648    1.3406 O   0  0  0  0  0  0  0  0  0  0  0  0
    0.1366    0.1412    0.9634 C   0  0  0  0  0  0  0  0  0  0  0  0
   -0.3401   -0.2255    2.1935 O   0  0  0  0  0  0  0  0  0  0  0  0
   -1.0166   -0.8253    1.1735 C   0  0  0  0  0  0  0  0  0  0  0  0
   -1.9669    0.0922    0.4192 C   0  0  0  0  0  0  0  0  0  0  0  0
   -0.7352    0.8634   -0.0292 C   0  0  0  0  0  0  0  0  0  0  0  0
   -0.4630    0.5454   -1.3769 O   0  0  0  0  0  0  0  0  0  0  0  0
    1.6829   -0.6942   -1.5243 H   0  0  0  0  0  0  0  0  0  0  0  0
    3.1894   -0.2188   -0.6987 H   0  0  0  0  0  0  0  0  0  0  0  0
    1.9432    1.0043   -1.0470 H   0  0  0  0  0  0  0  0  0  0  0  0
   -0.8213   -1.8285    0.8189 H   0  0  0  0  0  0  0  0  0  0  0  0
   -2.4799   -0.4642   -0.3807 H   0  0  0  0  0  0  0  0  0  0  0  0
   -2.6493    0.6613    1.0828 H   0  0  0  0  0  0  0  0  0  0  0  0
   -0.7563    1.9391    0.1415 H   0  0  0  0  0  0  0  0  0  0  0  0
   -1.3507    0.4628   -1.8130 H   0  0  0  0  0  0  0  0  0  0  0  0
  1  2  1  0
  2  3  2  0
  2  4  1  0
  4  5  1  0
  5  6  1  0
  6  7  1  0
  7  8  1  0
  8  9  1  0
  6  4  1  0
  8  4  1  0
  1 10  1  0
  1 11  1  0
  1 12  1  0
  6 13  1  0
  7 14  1  0
  7 15  1  0
  8 16  1  0
  9 17  1  0
M  END
