
     RDKit          3D

 19 20  0  0  0  0  0  0  0  0999 V2000
    2.5965   -0.4682    0.5660 C   0  0  0  0  0  0  0  0  0  0  0  0
    1.5315   -0.3988   -0.4740 C   0  0  0  0  0  0  0  0  0  0  0  0
    1.7065   -1.0417   -1.4903 O   0  0  0  0  0  0  0  0  0  0  0  0
    0.3248    0.4357   -0.2318 C   0  0  0  0  0  0  0  0  0  0  0  0
   -0.6862    0.4431   -1.3296 C   0  0  0  0  0  0  0  0  0  0  0  0
   -1.7630    0.2666   -0.2544 C   0  0  0  0  0  0  0  0  0  0  0  0
   -2.5279    1.3432    0.0996 O   0  0  0  0  0  0  0  0  0  0  0  0
   -1.7349   -1.0087    0.4548 C   0  0  0  0  0  0  0  0  0  0  0  0
   -0.6429   -0.0721    0.7749 C   0  0  0  0  0  0  0  0  0  0  0  0
    3.4479   -1.0721    0.2618 H   0  0  0  0  0  0  0  0  0  0  0  0
    2.9675    0.5757    0.7495 H   0  0  0  0  0  0  0  0  0  0  0  0
    2.1089   -0.8162    1.5014 H   0  0  0  0  0  0  0  0  0  0  0  0
    0.6621    1.4878   -0.0171 H   0  0  0  0  0  0  0  0  0  0  0  0
   -0.7675    1.3648   -1.9156 H   0  0  0  0  0  0  0  0  0  0  0  0
   -0.6218   -0.4867   -1.9368 H   0  0  0  0  0  0  0  0  0  0  0  0
   -1.8977    2.0590    0.4333 H   0  0  0  0  0  0  0  0  0  0  0  0
   -1.5530   -1.9211   -0.1757 H   0  0  0  0  0  0  0  0  0  0  0  0
   -2.4863   -1.1589    1.2564 H   0  0  0  0  0  0  0  0  0  0  0  0
   -0.6645    0.4688    1.7274 H   0  0  0  0  0  0  0  0  0  0  0  0
  1  2  1  0
  2  3  2  0
  2  4  1  0
  4  5  1  0
  5  6  1  0
  6  7  1  0
  6  8  1  0
  8  9  1  0
  9  4  1  0
  9  6  1  0
  1 10  1  0
  1 11  1  0
  1 12  1  0
  4 13  1  0
  5 14  1  0
  5 15  1  0
  7 16  1  0
  8 17  1  0
  8 18  1  0
  9 19  1  0
M  END
