
     RDKit          3D

 17 17  0  0  0  0  0  0  0  0999 V2000
    2.3862   -0.0759   -0.7409 C   0  0  0  0  0  0  0  0  0  0  0  0
    1.3001   -0.3592    0.2363 C   0  0  0  0  0  0  0  0  0  0  0  0
    1.3943   -1.1853    1.1231 O   0  0  0  0  0  0  0  0  0  0  0  0
    0.0189    0.3888    0.1529 C   0  0  0  0  0  0  0  0  0  0  0  0
   -0.6504    0.1549   -1.2013 C   0  0  0  0  0  0  0  0  0  0  0  0
   -1.9910    0.3201   -1.0040 O   0  0  0  0  0  0  0  0  0  0  0  0
   -2.2926    0.0093    0.3105 C   0  0  0  0  0  0  0  0  0  0  0  0
   -1.0243   -0.1600    1.0343 C   0  0  0  0  0  0  0  0  0  0  0  0
   -0.8627   -0.6422    2.1154 O   0  0  0  0  0  0  0  0  0  0  0  0
    2.9327   -0.9952   -1.0229 H   0  0  0  0  0  0  0  0  0  0  0  0
    1.9070    0.3364   -1.6703 H   0  0  0  0  0  0  0  0  0  0  0  0
    3.0736    0.7101   -0.3230 H   0  0  0  0  0  0  0  0  0  0  0  0
    0.2038    1.4632    0.2964 H   0  0  0  0  0  0  0  0  0  0  0  0
   -0.3458   -0.8549   -1.5244 H   0  0  0  0  0  0  0  0  0  0  0  0
   -0.1974    0.8710   -1.9103 H   0  0  0  0  0  0  0  0  0  0  0  0
   -2.9707   -0.8621    0.3820 H   0  0  0  0  0  0  0  0  0  0  0  0
   -2.8817    0.8810    0.7174 H   0  0  0  0  0  0  0  0  0  0  0  0
  1  2  1  0
  2  3  2  0
  2  4  1  0
  4  5  1  0
  5  6  1  0
  6  7  1  0
  7  8  1  0
  8  9  2  0
  8  4  1  0
  1 10  1  0
  1 11  1  0
  1 12  1  0
  4 13  1  0
  5 14  1  0
  5 15  1  0
  7 16  1  0
  7 17  1  0
M  END
