
     RDKit          3D

 19 18  0  0  0  0  0  0  0  0999 V2000
    2.9953    0.0561   -0.0896 C   0  0  0  0  0  0  0  0  0  0  0  0
    1.5712   -0.0654   -0.4907 C   0  0  0  0  0  0  0  0  0  0  0  0
    1.2008   -0.3169   -1.6468 O   0  0  0  0  0  0  0  0  0  0  0  0
    0.6111    0.1130    0.4841 O   0  0  0  0  0  0  0  0  0  0  0  0
   -0.7586    0.0376    0.2970 C   0  0  0  0  0  0  0  0  0  0  0  0
   -1.2192   -1.3149   -0.2127 C   0  0  0  0  0  0  0  0  0  0  0  0
   -1.2862    1.0768   -0.6790 C   0  0  0  0  0  0  0  0  0  0  0  0
   -1.4516    0.2892    1.5862 C   0  0  0  0  0  0  0  0  0  0  0  0
   -0.7842    0.5145    2.5778 O   0  0  0  0  0  0  0  0  0  0  0  0
    3.1307    0.9802    0.5154 H   0  0  0  0  0  0  0  0  0  0  0  0
    3.6662    0.1749   -0.9867 H   0  0  0  0  0  0  0  0  0  0  0  0
    3.3245   -0.7874    0.5582 H   0  0  0  0  0  0  0  0  0  0  0  0
   -0.3888   -1.8938   -0.6709 H   0  0  0  0  0  0  0  0  0  0  0  0
   -2.0769   -1.1988   -0.9073 H   0  0  0  0  0  0  0  0  0  0  0  0
   -1.6306   -1.9238    0.6468 H   0  0  0  0  0  0  0  0  0  0  0  0
   -0.8728    2.0510   -0.3592 H   0  0  0  0  0  0  0  0  0  0  0  0
   -1.0965    0.8212   -1.7251 H   0  0  0  0  0  0  0  0  0  0  0  0
   -2.3854    1.1162   -0.5312 H   0  0  0  0  0  0  0  0  0  0  0  0
   -2.5488    0.2701    1.6336 H   0  0  0  0  0  0  0  0  0  0  0  0
  1  2  1  0
  2  3  2  0
  2  4  1  0
  4  5  1  0
  5  6  1  0
  5  7  1  0
  5  8  1  0
  8  9  2  0
  1 10  1  0
  1 11  1  0
  1 12  1  0
  6 13  1  0
  6 14  1  0
  6 15  1  0
  7 16  1  0
  7 17  1  0
  7 18  1  0
  8 19  1  0
M  END
