
     RDKit          3D

 19 19  0  0  0  0  0  0  0  0999 V2000
    2.6235    0.1567   -0.2637 C   0  0  0  0  0  0  0  0  0  0  0  0
    1.2062   -0.0638   -0.6571 C   0  0  0  0  0  0  0  0  0  0  0  0
    0.9711   -0.3265   -1.8227 O   0  0  0  0  0  0  0  0  0  0  0  0
    0.1153    0.0294    0.3200 C   0  0  0  0  0  0  0  0  0  0  0  0
    0.5352    0.3354    1.6081 O   0  0  0  0  0  0  0  0  0  0  0  0
   -0.8735   -1.1259    0.2422 C   0  0  0  0  0  0  0  0  0  0  0  0
   -1.6491   -0.2828   -0.7528 C   0  0  0  0  0  0  0  0  0  0  0  0
   -1.0306    0.9317   -0.0682 C   0  0  0  0  0  0  0  0  0  0  0  0
   -1.7936    1.2478    1.0582 O   0  0  0  0  0  0  0  0  0  0  0  0
    2.6424    0.7221    0.6906 H   0  0  0  0  0  0  0  0  0  0  0  0
    3.1529    0.8180   -1.0054 H   0  0  0  0  0  0  0  0  0  0  0  0
    3.2111   -0.7739   -0.2273 H   0  0  0  0  0  0  0  0  0  0  0  0
    0.4627   -0.4596    2.1915 H   0  0  0  0  0  0  0  0  0  0  0  0
   -1.4856   -1.2552    1.1543 H   0  0  0  0  0  0  0  0  0  0  0  0
   -0.4442   -2.0529   -0.1776 H   0  0  0  0  0  0  0  0  0  0  0  0
   -2.7496   -0.3099   -0.6155 H   0  0  0  0  0  0  0  0  0  0  0  0
   -1.3645   -0.4369   -1.7902 H   0  0  0  0  0  0  0  0  0  0  0  0
   -0.7913    1.7654   -0.7259 H   0  0  0  0  0  0  0  0  0  0  0  0
   -2.7383    1.0811    0.8415 H   0  0  0  0  0  0  0  0  0  0  0  0
  1  2  1  0
  2  3  2  0
  2  4  1  0
  4  5  1  0
  4  6  1  0
  6  7  1  0
  7  8  1  0
  8  9  1  0
  8  4  1  0
  1 10  1  0
  1 11  1  0
  1 12  1  0
  5 13  1  0
  6 14  1  0
  6 15  1  0
  7 16  1  0
  7 17  1  0
  8 18  1  0
  9 19  1  0
M  END
