
     RDKit          3D

 17 17  0  0  0  0  0  0  0  0999 V2000
    2.7036    0.2749   -0.2034 C   0  0  0  0  0  0  0  0  0  0  0  0
    1.3882    0.0907    0.4169 C   0  0  0  0  0  0  0  0  0  0  0  0
    1.2419    0.1503    1.6208 O   0  0  0  0  0  0  0  0  0  0  0  0
    0.1919   -0.1752   -0.4150 C   0  0  0  0  0  0  0  0  0  0  0  0
   -1.0611   -0.3354    0.3931 C   0  0  0  0  0  0  0  0  0  0  0  0
   -2.2482   -0.6034   -0.4898 C   0  0  0  0  0  0  0  0  0  0  0  0
   -2.8838    0.4668    0.1594 O   0  0  0  0  0  0  0  0  0  0  0  0
   -1.7461    0.8725    0.8232 C   0  0  0  0  0  0  0  0  0  0  0  0
   -1.4646    1.8758    1.5033 O   0  0  0  0  0  0  0  0  0  0  0  0
    3.2792    1.0062    0.4305 H   0  0  0  0  0  0  0  0  0  0  0  0
    2.6332    0.7229   -1.2069 H   0  0  0  0  0  0  0  0  0  0  0  0
    3.2575   -0.7012   -0.2649 H   0  0  0  0  0  0  0  0  0  0  0  0
    0.0822    0.5489   -1.2431 H   0  0  0  0  0  0  0  0  0  0  0  0
    0.3724   -1.1723   -0.9156 H   0  0  0  0  0  0  0  0  0  0  0  0
   -0.9012   -1.0620    1.2129 H   0  0  0  0  0  0  0  0  0  0  0  0
   -2.7516   -1.5663   -0.2692 H   0  0  0  0  0  0  0  0  0  0  0  0
   -2.0933   -0.3932   -1.5523 H   0  0  0  0  0  0  0  0  0  0  0  0
  1  2  1  0
  2  3  2  0
  2  4  1  0
  4  5  1  0
  5  6  1  0
  6  7  1  0
  7  8  1  0
  8  9  2  0
  8  5  1  0
  1 10  1  0
  1 11  1  0
  1 12  1  0
  4 13  1  0
  4 14  1  0
  5 15  1  0
  6 16  1  0
  6 17  1  0
M  END
