
     RDKit          3D

 18 18  0  0  0  0  0  0  0  0999 V2000
   -2.8525    0.1921    0.3149 C   0  0  0  0  0  0  0  0  0  0  0  0
   -1.6919   -0.6945    0.0713 C   0  0  0  0  0  0  0  0  0  0  0  0
   -1.6862   -1.8604    0.4192 O   0  0  0  0  0  0  0  0  0  0  0  0
   -0.4939   -0.1538   -0.6178 C   0  0  0  0  0  0  0  0  0  0  0  0
    0.4612    0.6050    0.2951 C   0  0  0  0  0  0  0  0  0  0  0  0
    1.4119    0.0290   -0.7377 C   0  0  0  0  0  0  0  0  0  0  0  0
    2.7895   -0.2864   -0.2437 C   0  0  0  0  0  0  0  0  0  0  0  0
    0.5411   -1.0718   -0.7967 O   0  0  0  0  0  0  0  0  0  0  0  0
   -3.3110    0.0080    1.3078 H   0  0  0  0  0  0  0  0  0  0  0  0
   -2.5392    1.2646    0.3165 H   0  0  0  0  0  0  0  0  0  0  0  0
   -3.6251    0.0991   -0.5031 H   0  0  0  0  0  0  0  0  0  0  0  0
   -0.7227    0.4628   -1.4969 H   0  0  0  0  0  0  0  0  0  0  0  0
    0.2960    1.6852    0.2375 H   0  0  0  0  0  0  0  0  0  0  0  0
    0.5722    0.1719    1.3011 H   0  0  0  0  0  0  0  0  0  0  0  0
    1.3682    0.5968   -1.6704 H   0  0  0  0  0  0  0  0  0  0  0  0
    3.4326    0.5922   -0.4640 H   0  0  0  0  0  0  0  0  0  0  0  0
    3.2271   -1.1877   -0.7415 H   0  0  0  0  0  0  0  0  0  0  0  0
    2.8227   -0.4521    0.8549 H   0  0  0  0  0  0  0  0  0  0  0  0
  1  2  1  0
  2  3  2  0
  2  4  1  0
  4  5  1  0
  5  6  1  0
  6  7  1  0
  6  8  1  0
  8  4  1  0
  1  9  1  0
  1 10  1  0
  1 11  1  0
  4 12  1  0
  5 13  1  0
  5 14  1  0
  6 15  1  0
  7 16  1  0
  7 17  1  0
  7 18  1  0
M  END
