
     RDKit          3D

 17 16  0  0  0  0  0  0  0  0999 V2000
   -2.3022   -0.2804   -1.1802 C   0  0  0  0  0  0  0  0  0  0  0  0
   -1.0159    0.2711   -0.7452 C   0  0  0  0  0  0  0  0  0  0  0  0
   -0.7729    1.4453   -0.9640 O   0  0  0  0  0  0  0  0  0  0  0  0
   -0.0068   -0.5676   -0.0462 C   0  0  0  0  0  0  0  0  0  0  0  0
   -0.5592   -1.1293    1.2435 C   0  0  0  0  0  0  0  0  0  0  0  0
    1.1765    0.2209    0.3033 C   0  0  0  0  0  0  0  0  0  0  0  0
    2.1455    0.8855    0.5840 C   0  0  0  0  0  0  0  0  0  0  0  0
    3.2846    1.6878    0.9181 C   0  0  0  0  0  0  0  0  0  0  0  0
    4.4174    1.1627    0.7938 O   0  0  0  0  0  0  0  0  0  0  0  0
   -2.7727    0.3738   -1.9347 H   0  0  0  0  0  0  0  0  0  0  0  0
   -2.2257   -1.2934   -1.6241 H   0  0  0  0  0  0  0  0  0  0  0  0
   -2.9921   -0.2584   -0.2938 H   0  0  0  0  0  0  0  0  0  0  0  0
    0.3167   -1.4164   -0.6890 H   0  0  0  0  0  0  0  0  0  0  0  0
    0.3305   -1.4730    1.8396 H   0  0  0  0  0  0  0  0  0  0  0  0
   -1.0444   -0.3441    1.8365 H   0  0  0  0  0  0  0  0  0  0  0  0
   -1.2256   -1.9913    1.0356 H   0  0  0  0  0  0  0  0  0  0  0  0
    3.2463    2.7067    1.2676 H   0  0  0  0  0  0  0  0  0  0  0  0
  1  2  1  0
  2  3  2  0
  2  4  1  0
  4  5  1  0
  4  6  1  0
  6  7  3  0
  7  8  1  0
  8  9  2  0
  1 10  1  0
  1 11  1  0
  1 12  1  0
  4 13  1  0
  5 14  1  0
  5 15  1  0
  5 16  1  0
  8 17  1  0
M  END
