
     RDKit          3D

 15 15  0  0  0  0  0  0  0  0999 V2000
    2.1970   -0.2931    0.3184 C   0  0  0  0  0  0  0  0  0  0  0  0
    1.3471    0.8117   -0.1687 C   0  0  0  0  0  0  0  0  0  0  0  0
    1.7930    1.9424   -0.2232 O   0  0  0  0  0  0  0  0  0  0  0  0
   -0.0338    0.5551   -0.5881 C   0  0  0  0  0  0  0  0  0  0  0  0
   -0.3096   -0.7988   -0.4355 O   0  0  0  0  0  0  0  0  0  0  0  0
   -1.6725   -0.9006   -0.3285 C   0  0  0  0  0  0  0  0  0  0  0  0
   -2.1145    0.4281    0.1974 C   0  0  0  0  0  0  0  0  0  0  0  0
   -3.2515    0.7838    0.5741 O   0  0  0  0  0  0  0  0  0  0  0  0
   -0.9891    1.2447    0.1970 O   0  0  0  0  0  0  0  0  0  0  0  0
    1.8123   -1.2757   -0.0391 H   0  0  0  0  0  0  0  0  0  0  0  0
    2.2138   -0.3539    1.4196 H   0  0  0  0  0  0  0  0  0  0  0  0
    3.2001   -0.1781   -0.1365 H   0  0  0  0  0  0  0  0  0  0  0  0
   -0.1390    0.8353   -1.6746 H   0  0  0  0  0  0  0  0  0  0  0  0
   -2.0951   -1.0816   -1.3515 H   0  0  0  0  0  0  0  0  0  0  0  0
   -1.9584   -1.7193    0.3559 H   0  0  0  0  0  0  0  0  0  0  0  0
  1  2  1  0
  2  3  2  0
  2  4  1  0
  4  5  1  0
  5  6  1  0
  6  7  1  0
  7  8  2  0
  7  9  1  0
  9  4  1  0
  1 10  1  0
  1 11  1  0
  1 12  1  0
  4 13  1  0
  6 14  1  0
  6 15  1  0
M  END
