
     RDKit          3D

 19 19  0  0  0  0  0  0  0  0999 V2000
    3.3712   -0.1448    0.5787 C   0  0  0  0  0  0  0  0  0  0  0  0
    2.1104   -0.5263   -0.1316 C   0  0  0  0  0  0  0  0  0  0  0  0
    2.1313   -1.3519   -1.0842 O   0  0  0  0  0  0  0  0  0  0  0  0
    0.8810   -0.0044    0.2121 O   0  0  0  0  0  0  0  0  0  0  0  0
   -0.3238   -0.3611   -0.4574 C   0  0  0  0  0  0  0  0  0  0  0  0
   -1.4310   -0.7926    0.4810 C   0  0  0  0  0  0  0  0  0  0  0  0
   -2.1207    0.5287    0.3264 C   0  0  0  0  0  0  0  0  0  0  0  0
   -3.4249    0.4408   -0.1653 O   0  0  0  0  0  0  0  0  0  0  0  0
   -1.1264    0.8831   -0.7494 C   0  0  0  0  0  0  0  0  0  0  0  0
    4.2152   -0.4435   -0.0790 H   0  0  0  0  0  0  0  0  0  0  0  0
    3.5002   -0.6762    1.5266 H   0  0  0  0  0  0  0  0  0  0  0  0
    3.4499    0.9640    0.6797 H   0  0  0  0  0  0  0  0  0  0  0  0
   -0.2207   -1.0817   -1.2710 H   0  0  0  0  0  0  0  0  0  0  0  0
   -1.0940   -1.0741    1.4815 H   0  0  0  0  0  0  0  0  0  0  0  0
   -2.0758   -1.6233    0.0695 H   0  0  0  0  0  0  0  0  0  0  0  0
   -2.0628    1.1654    1.2429 H   0  0  0  0  0  0  0  0  0  0  0  0
   -3.6614    1.3716   -0.4678 H   0  0  0  0  0  0  0  0  0  0  0  0
   -1.5025    0.8801   -1.7836 H   0  0  0  0  0  0  0  0  0  0  0  0
   -0.6150    1.8462   -0.4727 H   0  0  0  0  0  0  0  0  0  0  0  0
  1  2  1  0
  2  3  2  0
  2  4  1  0
  4  5  1  0
  5  6  1  0
  6  7  1  0
  7  8  1  0
  7  9  1  0
  9  5  1  0
  1 10  1  0
  1 11  1  0
  1 12  1  0
  5 13  1  0
  6 14  1  0
  6 15  1  0
  7 16  1  0
  8 17  1  0
  9 18  1  0
  9 19  1  0
M  END
