
     RDKit          3D

 19 18  0  0  0  0  0  0  0  0999 V2000
   -2.4080   -0.7382    0.2317 C   0  0  0  0  0  0  0  0  0  0  0  0
   -0.9422   -0.6816    0.4799 C   0  0  0  0  0  0  0  0  0  0  0  0
   -0.4316   -1.5628    1.1455 O   0  0  0  0  0  0  0  0  0  0  0  0
   -0.1958    0.4617   -0.1100 C   0  0  0  0  0  0  0  0  0  0  0  0
   -0.7498    1.7546    0.4376 C   0  0  0  0  0  0  0  0  0  0  0  0
    1.2937    0.3076    0.2270 C   0  0  0  0  0  0  0  0  0  0  0  0
    1.6619   -0.9414   -0.3626 O   0  0  0  0  0  0  0  0  0  0  0  0
    2.9544   -1.4193   -0.2615 C   0  0  0  0  0  0  0  0  0  0  0  0
    3.7812   -0.7113    0.3664 O   0  0  0  0  0  0  0  0  0  0  0  0
   -2.9608   -0.0718    0.9557 H   0  0  0  0  0  0  0  0  0  0  0  0
   -2.8238   -1.7531    0.3892 H   0  0  0  0  0  0  0  0  0  0  0  0
   -2.6678   -0.3315   -0.7736 H   0  0  0  0  0  0  0  0  0  0  0  0
   -0.2665    0.3842   -1.2070 H   0  0  0  0  0  0  0  0  0  0  0  0
   -0.1695    2.1144    1.3132 H   0  0  0  0  0  0  0  0  0  0  0  0
   -0.7415    2.4863   -0.4083 H   0  0  0  0  0  0  0  0  0  0  0  0
   -1.8118    1.6249    0.7680 H   0  0  0  0  0  0  0  0  0  0  0  0
    1.4442    0.2953    1.3323 H   0  0  0  0  0  0  0  0  0  0  0  0
    1.8564    1.1503   -0.1826 H   0  0  0  0  0  0  0  0  0  0  0  0
    3.1769   -2.3684   -0.7257 H   0  0  0  0  0  0  0  0  0  0  0  0
  1  2  1  0
  2  3  2  0
  2  4  1  0
  4  5  1  0
  4  6  1  0
  6  7  1  0
  7  8  1  0
  8  9  2  0
  1 10  1  0
  1 11  1  0
  1 12  1  0
  4 13  1  0
  5 14  1  0
  5 15  1  0
  5 16  1  0
  6 17  1  0
  6 18  1  0
  8 19  1  0
M  END
