
     RDKit          3D

 16 15  0  0  0  0  0  0  0  0999 V2000
   -2.8764    0.0505   -0.0709 C   0  0  0  0  0  0  0  0  0  0  0  0
   -1.5425    0.3749   -0.6819 C   0  0  0  0  0  0  0  0  0  0  0  0
   -1.4920    0.9522   -1.7491 O   0  0  0  0  0  0  0  0  0  0  0  0
   -0.3611   -0.0474    0.0881 C   0  0  0  0  0  0  0  0  0  0  0  0
    0.8423    0.2675   -0.5040 O   0  0  0  0  0  0  0  0  0  0  0  0
    1.8524   -0.1895    0.3315 C   0  0  0  0  0  0  0  0  0  0  0  0
    3.2006    0.0759   -0.1706 C   0  0  0  0  0  0  0  0  0  0  0  0
    3.3711    0.6485   -1.2299 O   0  0  0  0  0  0  0  0  0  0  0  0
   -2.7997   -0.0274    1.0341 H   0  0  0  0  0  0  0  0  0  0  0  0
   -3.1654   -0.9409   -0.4864 H   0  0  0  0  0  0  0  0  0  0  0  0
   -3.5532    0.8625   -0.3437 H   0  0  0  0  0  0  0  0  0  0  0  0
   -0.4534    0.3988    1.1095 H   0  0  0  0  0  0  0  0  0  0  0  0
   -0.4110   -1.1601    0.2041 H   0  0  0  0  0  0  0  0  0  0  0  0
    1.6886   -1.2798    0.4629 H   0  0  0  0  0  0  0  0  0  0  0  0
    1.6537    0.2636    1.3360 H   0  0  0  0  0  0  0  0  0  0  0  0
    4.0462   -0.2493    0.4229 H   0  0  0  0  0  0  0  0  0  0  0  0
  1  2  1  0
  2  3  2  0
  2  4  1  0
  4  5  1  0
  5  6  1  0
  6  7  1  0
  7  8  2  0
  1  9  1  0
  1 10  1  0
  1 11  1  0
  4 12  1  0
  4 13  1  0
  6 14  1  0
  6 15  1  0
  7 16  1  0
M  END
