
     RDKit          3D

 23 23  0  0  0  0  0  0  0  0999 V2000
    2.4610    0.2811   -0.2829 C   0  0  0  0  0  0  0  0  0  0  0  0
    1.4649   -0.6039    0.3624 C   0  0  0  0  0  0  0  0  0  0  0  0
    1.8848   -1.6779    0.7837 O   0  0  0  0  0  0  0  0  0  0  0  0
    0.0420   -0.3046    0.5362 C   0  0  0  0  0  0  0  0  0  0  0  0
   -0.6379   -1.1463    1.6273 C   0  0  0  0  0  0  0  0  0  0  0  0
   -0.6972   -0.2247   -0.8214 C   0  0  0  0  0  0  0  0  0  0  0  0
   -1.8520   -1.1625   -0.9308 C   0  0  0  0  0  0  0  0  0  0  0  0
   -0.6447    0.8985    0.1299 C   0  0  0  0  0  0  0  0  0  0  0  0
    0.0084    2.1666   -0.3489 C   0  0  0  0  0  0  0  0  0  0  0  0
    2.4750    1.3028    0.1468 H   0  0  0  0  0  0  0  0  0  0  0  0
    2.2856    0.2695   -1.3841 H   0  0  0  0  0  0  0  0  0  0  0  0
    3.4824   -0.1179   -0.1266 H   0  0  0  0  0  0  0  0  0  0  0  0
   -0.0292   -2.0045    1.9021 H   0  0  0  0  0  0  0  0  0  0  0  0
   -0.7671   -0.5283    2.5600 H   0  0  0  0  0  0  0  0  0  0  0  0
   -1.6646   -1.4279    1.3216 H   0  0  0  0  0  0  0  0  0  0  0  0
   -0.1065   -0.1270   -1.7415 H   0  0  0  0  0  0  0  0  0  0  0  0
   -1.4935   -2.1717   -0.6262 H   0  0  0  0  0  0  0  0  0  0  0  0
   -2.7329   -0.8492   -0.3267 H   0  0  0  0  0  0  0  0  0  0  0  0
   -2.1928   -1.2754   -1.9879 H   0  0  0  0  0  0  0  0  0  0  0  0
   -1.6322    1.1117    0.6355 H   0  0  0  0  0  0  0  0  0  0  0  0
    0.6568    2.0293   -1.2274 H   0  0  0  0  0  0  0  0  0  0  0  0
   -0.8008    2.8725   -0.7083 H   0  0  0  0  0  0  0  0  0  0  0  0
    0.4906    2.6898    0.5072 H   0  0  0  0  0  0  0  0  0  0  0  0
  1  2  1  0
  2  3  2  0
  2  4  1  0
  4  5  1  0
  4  6  1  0
  6  7  1  0
  6  8  1  0
  8  9  1  0
  8  4  1  0
  1 10  1  0
  1 11  1  0
  1 12  1  0
  5 13  1  0
  5 14  1  0
  5 15  1  0
  6 16  1  0
  7 17  1  0
  7 18  1  0
  7 19  1  0
  8 20  1  0
  9 21  1  0
  9 22  1  0
  9 23  1  0
M  END
