
     RDKit          3D

 21 21  0  0  0  0  0  0  0  0999 V2000
   -2.8782    0.3338    0.2049 C   0  0  0  0  0  0  0  0  0  0  0  0
   -1.9792   -0.4495   -0.6733 C   0  0  0  0  0  0  0  0  0  0  0  0
   -2.2378   -0.5249   -1.8615 O   0  0  0  0  0  0  0  0  0  0  0  0
   -0.7779   -1.1331   -0.1055 C   0  0  0  0  0  0  0  0  0  0  0  0
    0.4222   -0.3579   -0.5534 C   0  0  0  0  0  0  0  0  0  0  0  0
    1.7610   -0.8871   -0.0826 C   0  0  0  0  0  0  0  0  0  0  0  0
    2.1876    0.5692    0.0260 C   0  0  0  0  0  0  0  0  0  0  0  0
    3.0193    0.8562    1.0877 O   0  0  0  0  0  0  0  0  0  0  0  0
    0.7068    0.8730    0.2958 C   0  0  0  0  0  0  0  0  0  0  0  0
   -3.5424   -0.3254    0.8136 H   0  0  0  0  0  0  0  0  0  0  0  0
   -2.3317    0.9990    0.8965 H   0  0  0  0  0  0  0  0  0  0  0  0
   -3.5516    0.9821   -0.3944 H   0  0  0  0  0  0  0  0  0  0  0  0
   -0.8349   -1.2751    0.9697 H   0  0  0  0  0  0  0  0  0  0  0  0
   -0.7115   -2.1442   -0.6065 H   0  0  0  0  0  0  0  0  0  0  0  0
    0.3776   -0.0701   -1.6125 H   0  0  0  0  0  0  0  0  0  0  0  0
    2.3245   -1.4790   -0.8103 H   0  0  0  0  0  0  0  0  0  0  0  0
    1.6518   -1.3287    0.9328 H   0  0  0  0  0  0  0  0  0  0  0  0
    2.4599    0.9814   -0.9534 H   0  0  0  0  0  0  0  0  0  0  0  0
    3.0523    1.8459    1.1740 H   0  0  0  0  0  0  0  0  0  0  0  0
    0.5224    0.7091    1.3784 H   0  0  0  0  0  0  0  0  0  0  0  0
    0.3599    1.8252   -0.1259 H   0  0  0  0  0  0  0  0  0  0  0  0
  1  2  1  0
  2  3  2  0
  2  4  1  0
  4  5  1  0
  5  6  1  0
  6  7  1  0
  7  8  1  0
  7  9  1  0
  9  5  1  0
  1 10  1  0
  1 11  1  0
  1 12  1  0
  4 13  1  0
  4 14  1  0
  5 15  1  0
  6 16  1  0
  6 17  1  0
  7 18  1  0
  8 19  1  0
  9 20  1  0
  9 21  1  0
M  END
