
     RDKit          3D

 21 21  0  0  0  0  0  0  0  0999 V2000
    2.3730    0.8183   -0.4279 C   0  0  0  0  0  0  0  0  0  0  0  0
    1.5067    0.5384    0.7389 C   0  0  0  0  0  0  0  0  0  0  0  0
    1.6097    1.2233    1.7298 O   0  0  0  0  0  0  0  0  0  0  0  0
    0.5435   -0.5564    0.6778 C   0  0  0  0  0  0  0  0  0  0  0  0
   -0.1816   -0.6733    1.8587 O   0  0  0  0  0  0  0  0  0  0  0  0
   -1.2511    0.0030    1.3242 C   0  0  0  0  0  0  0  0  0  0  0  0
   -0.7446   -0.3055   -0.0458 C   0  0  0  0  0  0  0  0  0  0  0  0
   -0.7900    0.8963   -0.9401 C   0  0  0  0  0  0  0  0  0  0  0  0
   -1.3459   -1.5529   -0.6082 C   0  0  0  0  0  0  0  0  0  0  0  0
    2.6443    1.8859   -0.5185 H   0  0  0  0  0  0  0  0  0  0  0  0
    3.3376    0.2776   -0.2512 H   0  0  0  0  0  0  0  0  0  0  0  0
    1.8922    0.4359   -1.3302 H   0  0  0  0  0  0  0  0  0  0  0  0
    1.0020   -1.5031    0.3182 H   0  0  0  0  0  0  0  0  0  0  0  0
   -1.3500    1.0730    1.5944 H   0  0  0  0  0  0  0  0  0  0  0  0
   -2.2207   -0.5029    1.5411 H   0  0  0  0  0  0  0  0  0  0  0  0
   -0.2535    1.7290   -0.4874 H   0  0  0  0  0  0  0  0  0  0  0  0
   -0.4084    0.6982   -1.9616 H   0  0  0  0  0  0  0  0  0  0  0  0
   -1.8717    1.1922   -1.0402 H   0  0  0  0  0  0  0  0  0  0  0  0
   -0.6903   -2.4501   -0.4054 H   0  0  0  0  0  0  0  0  0  0  0  0
   -2.2940   -1.7626   -0.0663 H   0  0  0  0  0  0  0  0  0  0  0  0
   -1.5071   -1.4642   -1.7001 H   0  0  0  0  0  0  0  0  0  0  0  0
  1  2  1  0
  2  3  2  0
  2  4  1  0
  4  5  1  0
  5  6  1  0
  6  7  1  0
  7  8  1  0
  7  9  1  0
  7  4  1  0
  1 10  1  0
  1 11  1  0
  1 12  1  0
  4 13  1  0
  6 14  1  0
  6 15  1  0
  8 16  1  0
  8 17  1  0
  8 18  1  0
  9 19  1  0
  9 20  1  0
  9 21  1  0
M  END
