
     RDKit          3D

 17 17  0  0  0  0  0  0  0  0999 V2000
    2.0385   -0.5406    0.3077 C   0  0  0  0  0  0  0  0  0  0  0  0
    1.1019    0.6035    0.3586 C   0  0  0  0  0  0  0  0  0  0  0  0
    1.2438    1.3815    1.3103 O   0  0  0  0  0  0  0  0  0  0  0  0
    0.0750    0.7823   -0.6723 C   0  0  0  0  0  0  0  0  0  0  0  0
    0.1194   -0.2528   -1.5976 O   0  0  0  0  0  0  0  0  0  0  0  0
   -0.8001   -0.9258   -0.8002 C   0  0  0  0  0  0  0  0  0  0  0  0
   -1.3317    0.4183   -0.3593 C   0  0  0  0  0  0  0  0  0  0  0  0
   -1.7689    0.4972    1.0274 C   0  0  0  0  0  0  0  0  0  0  0  0
   -2.2671   -0.4652    1.5732 O   0  0  0  0  0  0  0  0  0  0  0  0
    3.1102   -0.1952    0.4055 H   0  0  0  0  0  0  0  0  0  0  0  0
    1.8067   -1.2753    1.1297 H   0  0  0  0  0  0  0  0  0  0  0  0
    1.9712   -1.0527   -0.6574 H   0  0  0  0  0  0  0  0  0  0  0  0
    0.1896    1.8033   -1.1185 H   0  0  0  0  0  0  0  0  0  0  0  0
   -1.5351   -1.5415   -1.3638 H   0  0  0  0  0  0  0  0  0  0  0  0
   -0.2822   -1.4838   -0.0042 H   0  0  0  0  0  0  0  0  0  0  0  0
   -2.0138    0.8394   -1.1273 H   0  0  0  0  0  0  0  0  0  0  0  0
   -1.6575    1.4075    1.5882 H   0  0  0  0  0  0  0  0  0  0  0  0
  1  2  1  0
  2  3  2  0
  2  4  1  0
  4  5  1  0
  5  6  1  0
  6  7  1  0
  7  8  1  0
  8  9  2  0
  7  4  1  0
  1 10  1  0
  1 11  1  0
  1 12  1  0
  4 13  1  0
  6 14  1  0
  6 15  1  0
  7 16  1  0
  8 17  1  0
M  END
