
     RDKit          3D

 17 16  0  0  0  0  0  0  0  0999 V2000
   -1.5430   -1.5319   -0.1745 C   0  0  0  0  0  0  0  0  0  0  0  0
   -0.3112   -1.1794    0.5834 C   0  0  0  0  0  0  0  0  0  0  0  0
    0.1503   -2.0299    1.3322 O   0  0  0  0  0  0  0  0  0  0  0  0
    0.3142    0.1607    0.4188 C   0  0  0  0  0  0  0  0  0  0  0  0
    1.7381   -0.0862   -0.0694 C   0  0  0  0  0  0  0  0  0  0  0  0
    2.4302    1.0876   -0.2756 O   0  0  0  0  0  0  0  0  0  0  0  0
   -0.4301    0.9087   -0.4935 O   0  0  0  0  0  0  0  0  0  0  0  0
   -1.0738    2.1015   -0.1952 C   0  0  0  0  0  0  0  0  0  0  0  0
   -0.9775    2.5347    0.9788 O   0  0  0  0  0  0  0  0  0  0  0  0
   -1.4411   -2.5541   -0.6316 H   0  0  0  0  0  0  0  0  0  0  0  0
   -1.7339   -0.8092   -0.9964 H   0  0  0  0  0  0  0  0  0  0  0  0
   -2.3718   -1.5830    0.5574 H   0  0  0  0  0  0  0  0  0  0  0  0
    0.3361    0.6320    1.4283 H   0  0  0  0  0  0  0  0  0  0  0  0
    2.2281   -0.6883    0.7515 H   0  0  0  0  0  0  0  0  0  0  0  0
    1.6953   -0.7188   -0.9774 H   0  0  0  0  0  0  0  0  0  0  0  0
    2.6197    1.1433   -1.2649 H   0  0  0  0  0  0  0  0  0  0  0  0
   -1.6295    2.6122   -0.9718 H   0  0  0  0  0  0  0  0  0  0  0  0
  1  2  1  0
  2  3  2  0
  2  4  1  0
  4  5  1  0
  5  6  1  0
  4  7  1  0
  7  8  1  0
  8  9  2  0
  1 10  1  0
  1 11  1  0
  1 12  1  0
  4 13  1  0
  5 14  1  0
  5 15  1  0
  6 16  1  0
  8 17  1  0
M  END
