
     RDKit          3D

 15 14  0  0  0  0  0  0  0  0999 V2000
   -3.1290    0.3073    0.1732 C   0  0  0  0  0  0  0  0  0  0  0  0
   -1.9808   -0.5755   -0.1744 C   0  0  0  0  0  0  0  0  0  0  0  0
   -2.1519   -1.7215   -0.6748 O   0  0  0  0  0  0  0  0  0  0  0  0
   -0.7175   -0.1113    0.0637 O   0  0  0  0  0  0  0  0  0  0  0  0
    0.4440   -0.8941   -0.2402 C   0  0  0  0  0  0  0  0  0  0  0  0
    1.6506   -0.1480    0.1180 C   0  0  0  0  0  0  0  0  0  0  0  0
    2.6581    0.4690    0.4366 C   0  0  0  0  0  0  0  0  0  0  0  0
    3.8548    1.1765    0.7998 C   0  0  0  0  0  0  0  0  0  0  0  0
    4.2240    1.2201    2.0008 O   0  0  0  0  0  0  0  0  0  0  0  0
   -2.8235    1.3627    0.1813 H   0  0  0  0  0  0  0  0  0  0  0  0
   -3.9714    0.2125   -0.5315 H   0  0  0  0  0  0  0  0  0  0  0  0
   -3.4390    0.0276    1.2038 H   0  0  0  0  0  0  0  0  0  0  0  0
    0.4542   -1.8351    0.3338 H   0  0  0  0  0  0  0  0  0  0  0  0
    0.4563   -1.1777   -1.3171 H   0  0  0  0  0  0  0  0  0  0  0  0
    4.4711    1.6876    0.0726 H   0  0  0  0  0  0  0  0  0  0  0  0
  1  2  1  0
  2  3  2  0
  2  4  1  0
  4  5  1  0
  5  6  1  0
  6  7  3  0
  7  8  1  0
  8  9  2  0
  1 10  1  0
  1 11  1  0
  1 12  1  0
  5 13  1  0
  5 14  1  0
  8 15  1  0
M  END
