
     RDKit          3D

 15 15  0  0  0  0  0  0  0  0999 V2000
    1.6507   -0.6572   -0.1240 C   0  0  0  0  0  0  0  0  0  0  0  0
    0.8032   -0.4869    1.0699 C   0  0  0  0  0  0  0  0  0  0  0  0
    1.1860   -0.9854    2.1162 O   0  0  0  0  0  0  0  0  0  0  0  0
   -0.4764    0.2426    1.0954 C   0  0  0  0  0  0  0  0  0  0  0  0
   -1.4867   -0.3919    0.1298 C   0  0  0  0  0  0  0  0  0  0  0  0
   -2.0068    0.9154   -0.0230 O   0  0  0  0  0  0  0  0  0  0  0  0
   -0.6635    1.3465    0.0959 C   0  0  0  0  0  0  0  0  0  0  0  0
    1.3767   -1.5871   -0.7018 H   0  0  0  0  0  0  0  0  0  0  0  0
    2.7027   -0.7902    0.2016 H   0  0  0  0  0  0  0  0  0  0  0  0
    1.6611    0.2190   -0.8036 H   0  0  0  0  0  0  0  0  0  0  0  0
   -0.8960    0.4635    2.0830 H   0  0  0  0  0  0  0  0  0  0  0  0
   -0.9671   -0.6786   -0.7861 H   0  0  0  0  0  0  0  0  0  0  0  0
   -2.1672   -1.1088    0.5906 H   0  0  0  0  0  0  0  0  0  0  0  0
   -0.5583    2.3745    0.4887 H   0  0  0  0  0  0  0  0  0  0  0  0
   -0.1583    1.1245   -0.8481 H   0  0  0  0  0  0  0  0  0  0  0  0
  1  2  1  0
  2  3  2  0
  2  4  1  0
  4  5  1  0
  5  6  1  0
  6  7  1  0
  7  4  1  0
  1  8  1  0
  1  9  1  0
  1 10  1  0
  4 11  1  0
  5 12  1  0
  5 13  1  0
  7 14  1  0
  7 15  1  0
M  END
