
     RDKit          3D

 25 25  0  0  0  0  0  0  0  0999 V2000
    2.7380   -0.3090    0.8102 C   0  0  0  0  0  0  0  0  0  0  0  0
    1.8024    0.2302   -0.2511 C   0  0  0  0  0  0  0  0  0  0  0  0
    2.5290    0.3021   -1.5482 C   0  0  0  0  0  0  0  0  0  0  0  0
    0.6762   -0.5665   -0.2672 O   0  0  0  0  0  0  0  0  0  0  0  0
   -0.4856    0.0694    0.0539 C   0  0  0  0  0  0  0  0  0  0  0  0
   -1.2077   -0.5633    1.2426 C   0  0  0  0  0  0  0  0  0  0  0  0
   -2.5530    0.1692    1.1542 C   0  0  0  0  0  0  0  0  0  0  0  0
   -2.8501    0.0901   -0.3091 C   0  0  0  0  0  0  0  0  0  0  0  0
   -1.5370   -0.0959   -1.0327 C   0  0  0  0  0  0  0  0  0  0  0  0
    3.8035   -0.1353    0.5494 H   0  0  0  0  0  0  0  0  0  0  0  0
    2.6148   -1.3964    0.9421 H   0  0  0  0  0  0  0  0  0  0  0  0
    2.4841    0.1495    1.8085 H   0  0  0  0  0  0  0  0  0  0  0  0
    1.5067    1.2677    0.0335 H   0  0  0  0  0  0  0  0  0  0  0  0
    2.2470    1.2020   -2.1541 H   0  0  0  0  0  0  0  0  0  0  0  0
    3.6087    0.4313   -1.3226 H   0  0  0  0  0  0  0  0  0  0  0  0
    2.4449   -0.6158   -2.1722 H   0  0  0  0  0  0  0  0  0  0  0  0
   -0.3888    1.1377    0.2868 H   0  0  0  0  0  0  0  0  0  0  0  0
   -0.6883   -0.3521    2.1885 H   0  0  0  0  0  0  0  0  0  0  0  0
   -1.3540   -1.6570    1.0748 H   0  0  0  0  0  0  0  0  0  0  0  0
   -2.3876    1.2017    1.5144 H   0  0  0  0  0  0  0  0  0  0  0  0
   -3.3388   -0.3513    1.7030 H   0  0  0  0  0  0  0  0  0  0  0  0
   -3.4742   -0.8130   -0.5393 H   0  0  0  0  0  0  0  0  0  0  0  0
   -3.3801    1.0077   -0.6731 H   0  0  0  0  0  0  0  0  0  0  0  0
   -1.3528    0.6942   -1.7709 H   0  0  0  0  0  0  0  0  0  0  0  0
   -1.4574   -1.0971   -1.5071 H   0  0  0  0  0  0  0  0  0  0  0  0
  1  2  1  0
  2  3  1  0
  2  4  1  0
  4  5  1  0
  5  6  1  0
  6  7  1  0
  7  8  1  0
  8  9  1  0
  9  5  1  0
  1 10  1  0
  1 11  1  0
  1 12  1  0
  2 13  1  0
  3 14  1  0
  3 15  1  0
  3 16  1  0
  5 17  1  0
  6 18  1  0
  6 19  1  0
  7 20  1  0
  7 21  1  0
  8 22  1  0
  8 23  1  0
  9 24  1  0
  9 25  1  0
M  END
