
     RDKit          3D

 19 18  0  0  0  0  0  0  0  0999 V2000
   -1.8795   -0.6919   -0.1807 C   0  0  0  0  0  0  0  0  0  0  0  0
   -0.6131   -0.0077    0.3255 C   0  0  0  0  0  0  0  0  0  0  0  0
   -1.0361    1.3892    0.7818 C   0  0  0  0  0  0  0  0  0  0  0  0
   -0.1817   -0.7132    1.4322 O   0  0  0  0  0  0  0  0  0  0  0  0
    0.3332    0.0184   -0.8060 C   0  0  0  0  0  0  0  0  0  0  0  0
    0.0236    0.6436   -1.8035 O   0  0  0  0  0  0  0  0  0  0  0  0
    1.6493   -0.6805   -0.7899 C   0  0  0  0  0  0  0  0  0  0  0  0
    2.6980    0.2037   -0.2434 C   0  0  0  0  0  0  0  0  0  0  0  0
    3.2190   -0.0034    0.8348 O   0  0  0  0  0  0  0  0  0  0  0  0
   -2.7322   -0.5756    0.5243 H   0  0  0  0  0  0  0  0  0  0  0  0
   -1.6739   -1.7455   -0.4368 H   0  0  0  0  0  0  0  0  0  0  0  0
   -2.1535   -0.1696   -1.1247 H   0  0  0  0  0  0  0  0  0  0  0  0
   -2.0174    1.6995    0.3607 H   0  0  0  0  0  0  0  0  0  0  0  0
   -0.2739    2.0874    0.3417 H   0  0  0  0  0  0  0  0  0  0  0  0
   -1.0916    1.4783    1.8662 H   0  0  0  0  0  0  0  0  0  0  0  0
   -0.7805   -1.4203    1.7403 H   0  0  0  0  0  0  0  0  0  0  0  0
    1.5385   -1.6178   -0.2121 H   0  0  0  0  0  0  0  0  0  0  0  0
    1.9355   -0.9746   -1.8051 H   0  0  0  0  0  0  0  0  0  0  0  0
    3.0363    1.0799   -0.8052 H   0  0  0  0  0  0  0  0  0  0  0  0
  1  2  1  0
  2  3  1  0
  2  4  1  0
  2  5  1  0
  5  6  2  0
  5  7  1  0
  7  8  1  0
  8  9  2  0
  1 10  1  0
  1 11  1  0
  1 12  1  0
  3 13  1  0
  3 14  1  0
  3 15  1  0
  4 16  1  0
  7 17  1  0
  7 18  1  0
  8 19  1  0
M  END
