
     RDKit          3D

 25 25  0  0  0  0  0  0  0  0999 V2000
    1.8362    0.9466    1.0662 C   0  0  0  0  0  0  0  0  0  0  0  0
    1.3484   -0.3395    0.4507 C   0  0  0  0  0  0  0  0  0  0  0  0
    2.1564   -0.5727   -0.7984 C   0  0  0  0  0  0  0  0  0  0  0  0
   -0.1298   -0.3588    0.2151 C   0  0  0  0  0  0  0  0  0  0  0  0
   -0.6134   -1.6611   -0.4095 C   0  0  0  0  0  0  0  0  0  0  0  0
   -0.8406    0.8951   -0.0176 C   0  0  0  0  0  0  0  0  0  0  0  0
   -2.1644    0.9626   -0.7388 C   0  0  0  0  0  0  0  0  0  0  0  0
   -0.9639    0.1978    1.3432 C   0  0  0  0  0  0  0  0  0  0  0  0
   -2.1334   -0.5134    1.6169 O   0  0  0  0  0  0  0  0  0  0  0  0
    2.9560    0.8507    1.1264 H   0  0  0  0  0  0  0  0  0  0  0  0
    1.4377    1.0848    2.0752 H   0  0  0  0  0  0  0  0  0  0  0  0
    1.6606    1.7925    0.3713 H   0  0  0  0  0  0  0  0  0  0  0  0
    1.6610   -1.1513    1.1726 H   0  0  0  0  0  0  0  0  0  0  0  0
    2.0333    0.3239   -1.4455 H   0  0  0  0  0  0  0  0  0  0  0  0
    1.9146   -1.5058   -1.3120 H   0  0  0  0  0  0  0  0  0  0  0  0
    3.2323   -0.5580   -0.4840 H   0  0  0  0  0  0  0  0  0  0  0  0
   -0.1793   -1.7287   -1.4269 H   0  0  0  0  0  0  0  0  0  0  0  0
   -0.2350   -2.4875    0.2606 H   0  0  0  0  0  0  0  0  0  0  0  0
   -1.7013   -1.7416   -0.4233 H   0  0  0  0  0  0  0  0  0  0  0  0
   -0.3093    1.8682   -0.0501 H   0  0  0  0  0  0  0  0  0  0  0  0
   -2.0880    1.6012   -1.6622 H   0  0  0  0  0  0  0  0  0  0  0  0
   -2.8785    1.5036   -0.0707 H   0  0  0  0  0  0  0  0  0  0  0  0
   -2.5701    0.0011   -1.0309 H   0  0  0  0  0  0  0  0  0  0  0  0
   -0.5470    0.7701    2.1652 H   0  0  0  0  0  0  0  0  0  0  0  0
   -2.8822   -0.1799    1.0971 H   0  0  0  0  0  0  0  0  0  0  0  0
  1  2  1  0
  2  3  1  0
  2  4  1  0
  4  5  1  0
  4  6  1  0
  6  7  1  0
  6  8  1  0
  8  9  1  0
  8  4  1  0
  1 10  1  0
  1 11  1  0
  1 12  1  0
  2 13  1  0
  3 14  1  0
  3 15  1  0
  3 16  1  0
  5 17  1  0
  5 18  1  0
  5 19  1  0
  6 20  1  0
  7 21  1  0
  7 22  1  0
  7 23  1  0
  8 24  1  0
  9 25  1  0
M  END
