
     RDKit          3D

 23 22  0  0  0  0  0  0  0  0999 V2000
    2.3159    0.3701    1.2373 C   0  0  0  0  0  0  0  0  0  0  0  0
    1.2234   -0.3882    0.4937 C   0  0  0  0  0  0  0  0  0  0  0  0
    1.8870   -1.0481   -0.6694 C   0  0  0  0  0  0  0  0  0  0  0  0
    2.8023   -0.4619   -1.2154 O   0  0  0  0  0  0  0  0  0  0  0  0
    0.2297    0.6270   -0.0025 C   0  0  0  0  0  0  0  0  0  0  0  0
   -0.9074    0.0292   -0.7563 C   0  0  0  0  0  0  0  0  0  0  0  0
   -1.8198    1.1719   -1.1895 C   0  0  0  0  0  0  0  0  0  0  0  0
   -1.7351   -0.9196    0.0822 C   0  0  0  0  0  0  0  0  0  0  0  0
   -2.2882   -0.3071    1.1802 O   0  0  0  0  0  0  0  0  0  0  0  0
    1.9923    0.6872    2.2341 H   0  0  0  0  0  0  0  0  0  0  0  0
    3.2027   -0.2996    1.3271 H   0  0  0  0  0  0  0  0  0  0  0  0
    2.6113    1.2667    0.6671 H   0  0  0  0  0  0  0  0  0  0  0  0
    0.7205   -1.1127    1.1357 H   0  0  0  0  0  0  0  0  0  0  0  0
    1.5832   -2.0171   -1.0356 H   0  0  0  0  0  0  0  0  0  0  0  0
    0.7746    1.3060   -0.6902 H   0  0  0  0  0  0  0  0  0  0  0  0
   -0.1250    1.2473    0.8395 H   0  0  0  0  0  0  0  0  0  0  0  0
   -0.5587   -0.4599   -1.6750 H   0  0  0  0  0  0  0  0  0  0  0  0
   -2.1966    1.6808   -0.2619 H   0  0  0  0  0  0  0  0  0  0  0  0
   -2.6354    0.7625   -1.8037 H   0  0  0  0  0  0  0  0  0  0  0  0
   -1.1879    1.9007   -1.7384 H   0  0  0  0  0  0  0  0  0  0  0  0
   -2.5599   -1.3477   -0.5242 H   0  0  0  0  0  0  0  0  0  0  0  0
   -1.1177   -1.7963    0.4020 H   0  0  0  0  0  0  0  0  0  0  0  0
   -2.2110   -0.8913    1.9629 H   0  0  0  0  0  0  0  0  0  0  0  0
  1  2  1  0
  2  3  1  0
  3  4  2  0
  2  5  1  0
  5  6  1  0
  6  7  1  0
  6  8  1  0
  8  9  1  0
  1 10  1  0
  1 11  1  0
  1 12  1  0
  2 13  1  0
  3 14  1  0
  5 15  1  0
  5 16  1  0
  6 17  1  0
  7 18  1  0
  7 19  1  0
  7 20  1  0
  8 21  1  0
  8 22  1  0
  9 23  1  0
M  END
