
     RDKit          3D

 22 21  0  0  0  0  0  0  0  0999 V2000
    2.4194   -0.7179   -0.5635 C   0  0  0  0  0  0  0  0  0  0  0  0
    1.2184   -0.3148    0.3009 C   0  0  0  0  0  0  0  0  0  0  0  0
    1.6652    0.9303    1.0525 C   0  0  0  0  0  0  0  0  0  0  0  0
    0.0769   -0.0672   -0.5877 C   0  0  0  0  0  0  0  0  0  0  0  0
    0.1586   -0.1861   -1.7997 O   0  0  0  0  0  0  0  0  0  0  0  0
   -1.2484    0.3454   -0.0429 C   0  0  0  0  0  0  0  0  0  0  0  0
   -2.2725    0.5441   -1.1354 C   0  0  0  0  0  0  0  0  0  0  0  0
   -1.8187   -0.7346    0.8839 C   0  0  0  0  0  0  0  0  0  0  0  0
    2.2040   -1.7338   -0.9813 H   0  0  0  0  0  0  0  0  0  0  0  0
    3.3463   -0.6924    0.0284 H   0  0  0  0  0  0  0  0  0  0  0  0
    2.4201    0.0079   -1.4094 H   0  0  0  0  0  0  0  0  0  0  0  0
    1.0732   -1.1557    0.9996 H   0  0  0  0  0  0  0  0  0  0  0  0
    0.8473    1.5843    1.3342 H   0  0  0  0  0  0  0  0  0  0  0  0
    2.2634    0.6291    1.9397 H   0  0  0  0  0  0  0  0  0  0  0  0
    2.3620    1.5160    0.3971 H   0  0  0  0  0  0  0  0  0  0  0  0
   -1.1789    1.2716    0.5553 H   0  0  0  0  0  0  0  0  0  0  0  0
   -2.0714    1.4771   -1.7084 H   0  0  0  0  0  0  0  0  0  0  0  0
   -2.1471   -0.3059   -1.8527 H   0  0  0  0  0  0  0  0  0  0  0  0
   -3.2874    0.5151   -0.7028 H   0  0  0  0  0  0  0  0  0  0  0  0
   -2.8798   -0.4458    1.0461 H   0  0  0  0  0  0  0  0  0  0  0  0
   -1.8213   -1.7297    0.3811 H   0  0  0  0  0  0  0  0  0  0  0  0
   -1.3293   -0.7368    1.8651 H   0  0  0  0  0  0  0  0  0  0  0  0
  1  2  1  0
  2  3  1  0
  2  4  1  0
  4  5  2  0
  4  6  1  0
  6  7  1  0
  6  8  1  0
  1  9  1  0
  1 10  1  0
  1 11  1  0
  2 12  1  0
  3 13  1  0
  3 14  1  0
  3 15  1  0
  6 16  1  0
  7 17  1  0
  7 18  1  0
  7 19  1  0
  8 20  1  0
  8 21  1  0
  8 22  1  0
M  END
