
     RDKit          3D

 19 18  0  0  0  0  0  0  0  0999 V2000
   -0.9150   -0.8753    0.8407 C   0  0  0  0  0  0  0  0  0  0  0  0
   -0.6279   -0.0371   -0.4123 C   0  0  0  0  0  0  0  0  0  0  0  0
   -1.5371   -0.6420   -1.4895 C   0  0  0  0  0  0  0  0  0  0  0  0
   -1.0031    1.3876   -0.2222 C   0  0  0  0  0  0  0  0  0  0  0  0
   -2.1422    1.6476    0.1209 O   0  0  0  0  0  0  0  0  0  0  0  0
    0.6906   -0.1105   -0.7906 O   0  0  0  0  0  0  0  0  0  0  0  0
    1.5130    0.3437    0.2156 C   0  0  0  0  0  0  0  0  0  0  0  0
    2.9332    0.2503   -0.2254 C   0  0  0  0  0  0  0  0  0  0  0  0
    3.2058   -0.1784   -1.3297 O   0  0  0  0  0  0  0  0  0  0  0  0
   -2.0212   -1.0161    0.8517 H   0  0  0  0  0  0  0  0  0  0  0  0
   -0.5864   -0.3726    1.7550 H   0  0  0  0  0  0  0  0  0  0  0  0
   -0.4072   -1.8466    0.6646 H   0  0  0  0  0  0  0  0  0  0  0  0
   -2.5089   -0.8718   -1.0054 H   0  0  0  0  0  0  0  0  0  0  0  0
   -1.6163   -0.0036   -2.3703 H   0  0  0  0  0  0  0  0  0  0  0  0
   -1.0734   -1.6419   -1.7116 H   0  0  0  0  0  0  0  0  0  0  0  0
   -0.3381    2.2308   -0.3653 H   0  0  0  0  0  0  0  0  0  0  0  0
    1.3631   -0.2238    1.1719 H   0  0  0  0  0  0  0  0  0  0  0  0
    1.3117    1.4060    0.4852 H   0  0  0  0  0  0  0  0  0  0  0  0
    3.7595    0.5537    0.4057 H   0  0  0  0  0  0  0  0  0  0  0  0
  1  2  1  0
  2  3  1  0
  2  4  1  0
  4  5  2  0
  2  6  1  0
  6  7  1  0
  7  8  1  0
  8  9  2  0
  1 10  1  0
  1 11  1  0
  1 12  1  0
  3 13  1  0
  3 14  1  0
  3 15  1  0
  4 16  1  0
  7 17  1  0
  7 18  1  0
  8 19  1  0
M  END
