
     RDKit          3D

 23 23  0  0  0  0  0  0  0  0999 V2000
   -1.4872   -0.5650   -1.2584 C   0  0  0  0  0  0  0  0  0  0  0  0
   -1.3085   -0.4021    0.2335 C   0  0  0  0  0  0  0  0  0  0  0  0
   -2.2993    0.6008    0.7605 C   0  0  0  0  0  0  0  0  0  0  0  0
    0.1012   -0.0811    0.5923 C   0  0  0  0  0  0  0  0  0  0  0  0
    1.1237   -1.1348    0.1760 C   0  0  0  0  0  0  0  0  0  0  0  0
    1.9957   -1.5193    1.1898 O   0  0  0  0  0  0  0  0  0  0  0  0
    1.1435    0.2426   -0.3708 C   0  0  0  0  0  0  0  0  0  0  0  0
    2.2620    1.1736    0.1143 C   0  0  0  0  0  0  0  0  0  0  0  0
    0.9357    0.3534   -1.7316 O   0  0  0  0  0  0  0  0  0  0  0  0
   -1.4003    0.4122   -1.7790 H   0  0  0  0  0  0  0  0  0  0  0  0
   -2.4859   -0.9606   -1.5064 H   0  0  0  0  0  0  0  0  0  0  0  0
   -0.7291   -1.2822   -1.6097 H   0  0  0  0  0  0  0  0  0  0  0  0
   -1.5722   -1.3958    0.7018 H   0  0  0  0  0  0  0  0  0  0  0  0
   -3.3250    0.1590    0.7385 H   0  0  0  0  0  0  0  0  0  0  0  0
   -2.0847    0.8001    1.8372 H   0  0  0  0  0  0  0  0  0  0  0  0
   -2.2240    1.5173    0.1548 H   0  0  0  0  0  0  0  0  0  0  0  0
    0.2052    0.3460    1.6335 H   0  0  0  0  0  0  0  0  0  0  0  0
    0.7817   -1.9921   -0.4399 H   0  0  0  0  0  0  0  0  0  0  0  0
    1.4364   -1.5670    2.0300 H   0  0  0  0  0  0  0  0  0  0  0  0
    2.1233    2.1386   -0.4227 H   0  0  0  0  0  0  0  0  0  0  0  0
    3.2302    0.6978   -0.0640 H   0  0  0  0  0  0  0  0  0  0  0  0
    2.1291    1.4049    1.1931 H   0  0  0  0  0  0  0  0  0  0  0  0
    1.4484    1.0540   -2.1727 H   0  0  0  0  0  0  0  0  0  0  0  0
  1  2  1  0
  2  3  1  0
  2  4  1  0
  4  5  1  0
  5  6  1  0
  5  7  1  0
  7  8  1  0
  7  9  1  0
  7  4  1  0
  1 10  1  0
  1 11  1  0
  1 12  1  0
  2 13  1  0
  3 14  1  0
  3 15  1  0
  3 16  1  0
  4 17  1  0
  5 18  1  0
  6 19  1  0
  8 20  1  0
  8 21  1  0
  8 22  1  0
  9 23  1  0
M  END
