
     RDKit          3D

 25 25  0  0  0  0  0  0  0  0999 V2000
   -1.9844   -0.9334   -0.5917 C   0  0  0  0  0  0  0  0  0  0  0  0
   -1.2160    0.2971   -0.2067 C   0  0  0  0  0  0  0  0  0  0  0  0
   -1.9854    0.9862    0.9011 C   0  0  0  0  0  0  0  0  0  0  0  0
    0.1739    0.0137    0.2760 C   0  0  0  0  0  0  0  0  0  0  0  0
    0.8489    1.3032    0.6319 C   0  0  0  0  0  0  0  0  0  0  0  0
    2.1021    1.2977   -0.2000 C   0  0  0  0  0  0  0  0  0  0  0  0
    2.2505    0.0717   -0.7691 O   0  0  0  0  0  0  0  0  0  0  0  0
    1.0681   -0.6165   -0.7218 C   0  0  0  0  0  0  0  0  0  0  0  0
    1.4114   -2.0374   -0.2519 C   0  0  0  0  0  0  0  0  0  0  0  0
   -2.0104   -0.9910   -1.7178 H   0  0  0  0  0  0  0  0  0  0  0  0
   -3.0484   -0.8334   -0.2895 H   0  0  0  0  0  0  0  0  0  0  0  0
   -1.6119   -1.8603   -0.1345 H   0  0  0  0  0  0  0  0  0  0  0  0
   -1.1787    1.0025   -1.0614 H   0  0  0  0  0  0  0  0  0  0  0  0
   -1.9285    0.4219    1.8465 H   0  0  0  0  0  0  0  0  0  0  0  0
   -1.6192    2.0113    1.1050 H   0  0  0  0  0  0  0  0  0  0  0  0
   -3.0709    1.0938    0.6102 H   0  0  0  0  0  0  0  0  0  0  0  0
    0.1303   -0.6008    1.2144 H   0  0  0  0  0  0  0  0  0  0  0  0
    0.2532    2.1852    0.3155 H   0  0  0  0  0  0  0  0  0  0  0  0
    1.0626    1.3954    1.7204 H   0  0  0  0  0  0  0  0  0  0  0  0
    2.9815    1.4712    0.4709 H   0  0  0  0  0  0  0  0  0  0  0  0
    2.0905    2.0807   -1.0032 H   0  0  0  0  0  0  0  0  0  0  0  0
    0.6608   -0.6674   -1.7516 H   0  0  0  0  0  0  0  0  0  0  0  0
    2.4113   -2.3210   -0.6751 H   0  0  0  0  0  0  0  0  0  0  0  0
    1.5576   -2.0058    0.8458 H   0  0  0  0  0  0  0  0  0  0  0  0
    0.6511   -2.7649   -0.5635 H   0  0  0  0  0  0  0  0  0  0  0  0
  1  2  1  0
  2  3  1  0
  2  4  1  0
  4  5  1  0
  5  6  1  0
  6  7  1  0
  7  8  1  0
  8  9  1  0
  8  4  1  0
  1 10  1  0
  1 11  1  0
  1 12  1  0
  2 13  1  0
  3 14  1  0
  3 15  1  0
  3 16  1  0
  4 17  1  0
  5 18  1  0
  5 19  1  0
  6 20  1  0
  6 21  1  0
  8 22  1  0
  9 23  1  0
  9 24  1  0
  9 25  1  0
M  END
