
     RDKit          3D

 23 23  0  0  0  0  0  0  0  0999 V2000
   -0.2945   -1.1455   -0.9701 C   0  0  0  0  0  0  0  0  0  0  0  0
   -0.2940    0.2078   -0.3454 C   0  0  0  0  0  0  0  0  0  0  0  0
   -1.1205    0.1213    0.9424 C   0  0  0  0  0  0  0  0  0  0  0  0
   -2.5181   -0.3105    0.5248 C   0  0  0  0  0  0  0  0  0  0  0  0
   -3.0001    0.6596   -0.3417 O   0  0  0  0  0  0  0  0  0  0  0  0
    1.0719    0.6902    0.0530 C   0  0  0  0  0  0  0  0  0  0  0  0
    2.1511    0.8543   -0.9522 C   0  0  0  0  0  0  0  0  0  0  0  0
    2.2333   -0.1916    0.1508 C   0  0  0  0  0  0  0  0  0  0  0  0
    3.1741    0.0296    1.1810 O   0  0  0  0  0  0  0  0  0  0  0  0
   -1.2028   -1.2227   -1.6214 H   0  0  0  0  0  0  0  0  0  0  0  0
   -0.3927   -1.9698   -0.2209 H   0  0  0  0  0  0  0  0  0  0  0  0
    0.5663   -1.3156   -1.6557 H   0  0  0  0  0  0  0  0  0  0  0  0
   -0.7633    0.9149   -1.0572 H   0  0  0  0  0  0  0  0  0  0  0  0
   -0.7373   -0.6624    1.6079 H   0  0  0  0  0  0  0  0  0  0  0  0
   -1.1972    1.0774    1.4566 H   0  0  0  0  0  0  0  0  0  0  0  0
   -3.1887   -0.3887    1.4134 H   0  0  0  0  0  0  0  0  0  0  0  0
   -2.4458   -1.2607   -0.0045 H   0  0  0  0  0  0  0  0  0  0  0  0
   -2.9718    1.5725    0.0449 H   0  0  0  0  0  0  0  0  0  0  0  0
    1.0267    1.5132    0.8260 H   0  0  0  0  0  0  0  0  0  0  0  0
    2.9074    1.6697   -0.8554 H   0  0  0  0  0  0  0  0  0  0  0  0
    2.0229    0.4972   -1.9983 H   0  0  0  0  0  0  0  0  0  0  0  0
    2.2601   -1.2244   -0.2165 H   0  0  0  0  0  0  0  0  0  0  0  0
    2.7131   -0.1161    2.0387 H   0  0  0  0  0  0  0  0  0  0  0  0
  1  2  1  0
  2  3  1  0
  3  4  1  0
  4  5  1  0
  2  6  1  0
  6  7  1  0
  7  8  1  0
  8  9  1  0
  8  6  1  0
  1 10  1  0
  1 11  1  0
  1 12  1  0
  2 13  1  0
  3 14  1  0
  3 15  1  0
  4 16  1  0
  4 17  1  0
  5 18  1  0
  6 19  1  0
  7 20  1  0
  7 21  1  0
  8 22  1  0
  9 23  1  0
M  END
