
     RDKit          3D

 25 25  0  0  0  0  0  0  0  0999 V2000
   -2.6785    0.2020    0.8412 C   0  0  0  0  0  0  0  0  0  0  0  0
   -1.1886    0.4013    0.5267 C   0  0  0  0  0  0  0  0  0  0  0  0
   -1.0243    1.6997   -0.2766 C   0  0  0  0  0  0  0  0  0  0  0  0
   -0.8313   -0.7717   -0.3578 C   0  0  0  0  0  0  0  0  0  0  0  0
   -1.6468   -0.6815   -1.4859 O   0  0  0  0  0  0  0  0  0  0  0  0
    0.6075   -0.7501   -0.8083 C   0  0  0  0  0  0  0  0  0  0  0  0
    1.5639   -0.7895    0.3558 C   0  0  0  0  0  0  0  0  0  0  0  0
    3.0160   -0.7735    0.0559 C   0  0  0  0  0  0  0  0  0  0  0  0
    2.3541    0.4238    0.6595 C   0  0  0  0  0  0  0  0  0  0  0  0
   -3.1049    1.0549    1.3611 H   0  0  0  0  0  0  0  0  0  0  0  0
   -2.7290   -0.7581    1.4004 H   0  0  0  0  0  0  0  0  0  0  0  0
   -3.1583   -0.0034   -0.1494 H   0  0  0  0  0  0  0  0  0  0  0  0
   -0.5836    0.4529    1.4483 H   0  0  0  0  0  0  0  0  0  0  0  0
   -1.7692    1.7248   -1.0970 H   0  0  0  0  0  0  0  0  0  0  0  0
   -1.1996    2.5665    0.4006 H   0  0  0  0  0  0  0  0  0  0  0  0
   -0.0213    1.8030   -0.6788 H   0  0  0  0  0  0  0  0  0  0  0  0
   -1.0846   -1.6913    0.1872 H   0  0  0  0  0  0  0  0  0  0  0  0
   -1.1662   -1.0485   -2.2696 H   0  0  0  0  0  0  0  0  0  0  0  0
    0.7483   -1.6790   -1.4212 H   0  0  0  0  0  0  0  0  0  0  0  0
    0.8393    0.1143   -1.4237 H   0  0  0  0  0  0  0  0  0  0  0  0
    1.2044   -1.3437    1.2707 H   0  0  0  0  0  0  0  0  0  0  0  0
    3.3406   -0.7616   -1.0110 H   0  0  0  0  0  0  0  0  0  0  0  0
    3.6707   -1.3850    0.6915 H   0  0  0  0  0  0  0  0  0  0  0  0
    2.2172    1.3388    0.0501 H   0  0  0  0  0  0  0  0  0  0  0  0
    2.6241    0.6549    1.7302 H   0  0  0  0  0  0  0  0  0  0  0  0
  1  2  1  0
  2  3  1  0
  2  4  1  0
  4  5  1  0
  4  6  1  0
  6  7  1  0
  7  8  1  0
  8  9  1  0
  9  7  1  0
  1 10  1  0
  1 11  1  0
  1 12  1  0
  2 13  1  0
  3 14  1  0
  3 15  1  0
  3 16  1  0
  4 17  1  0
  5 18  1  0
  6 19  1  0
  6 20  1  0
  7 21  1  0
  8 22  1  0
  8 23  1  0
  9 24  1  0
  9 25  1  0
M  END
