
     RDKit          3D

 25 25  0  0  0  0  0  0  0  0999 V2000
   -2.3515    1.3725    0.0627 C   0  0  0  0  0  0  0  0  0  0  0  0
   -1.8337   -0.0206    0.3532 C   0  0  0  0  0  0  0  0  0  0  0  0
   -1.8333   -0.7972   -0.9165 C   0  0  0  0  0  0  0  0  0  0  0  0
   -0.4807    0.1242    0.9813 C   0  0  0  0  0  0  0  0  0  0  0  0
    0.5602    0.8304    0.1373 C   0  0  0  0  0  0  0  0  0  0  0  0
    1.5797   -0.0909    0.8132 C   0  0  0  0  0  0  0  0  0  0  0  0
    2.6976   -0.5190   -0.0948 C   0  0  0  0  0  0  0  0  0  0  0  0
    3.4115    0.5816   -0.5662 O   0  0  0  0  0  0  0  0  0  0  0  0
    0.4188   -1.0965    0.8835 C   0  0  0  0  0  0  0  0  0  0  0  0
   -2.1601    2.0268    0.9346 H   0  0  0  0  0  0  0  0  0  0  0  0
   -3.4517    1.3079   -0.0481 H   0  0  0  0  0  0  0  0  0  0  0  0
   -1.8731    1.7200   -0.8634 H   0  0  0  0  0  0  0  0  0  0  0  0
   -2.4797   -0.5518    1.0933 H   0  0  0  0  0  0  0  0  0  0  0  0
   -1.5444   -1.8596   -0.7913 H   0  0  0  0  0  0  0  0  0  0  0  0
   -2.8939   -0.8122   -1.2911 H   0  0  0  0  0  0  0  0  0  0  0  0
   -1.2260   -0.2777   -1.6755 H   0  0  0  0  0  0  0  0  0  0  0  0
   -0.4920    0.4693    2.0341 H   0  0  0  0  0  0  0  0  0  0  0  0
    0.4716    0.5524   -0.9088 H   0  0  0  0  0  0  0  0  0  0  0  0
    0.7002    1.8975    0.3721 H   0  0  0  0  0  0  0  0  0  0  0  0
    1.8638    0.2532    1.8206 H   0  0  0  0  0  0  0  0  0  0  0  0
    2.3289   -1.1737   -0.8892 H   0  0  0  0  0  0  0  0  0  0  0  0
    3.4074   -1.1109    0.5189 H   0  0  0  0  0  0  0  0  0  0  0  0
    4.3833    0.5252   -0.3612 H   0  0  0  0  0  0  0  0  0  0  0  0
    0.3576   -1.6062   -0.1004 H   0  0  0  0  0  0  0  0  0  0  0  0
    0.4395   -1.7445    1.7663 H   0  0  0  0  0  0  0  0  0  0  0  0
  1  2  1  0
  2  3  1  0
  2  4  1  0
  4  5  1  0
  5  6  1  0
  6  7  1  0
  7  8  1  0
  6  9  1  0
  9  4  1  0
  1 10  1  0
  1 11  1  0
  1 12  1  0
  2 13  1  0
  3 14  1  0
  3 15  1  0
  3 16  1  0
  4 17  1  0
  5 18  1  0
  5 19  1  0
  6 20  1  0
  7 21  1  0
  7 22  1  0
  8 23  1  0
  9 24  1  0
  9 25  1  0
M  END
