
     RDKit          3D

 21 21  0  0  0  0  0  0  0  0999 V2000
    1.7982    1.2587    0.1577 C   0  0  0  0  0  0  0  0  0  0  0  0
    0.9309    0.1398   -0.3373 C   0  0  0  0  0  0  0  0  0  0  0  0
    1.7728   -1.1320   -0.2920 C   0  0  0  0  0  0  0  0  0  0  0  0
   -0.2807   -0.0966    0.5227 C   0  0  0  0  0  0  0  0  0  0  0  0
   -1.2110    1.0416    0.6553 C   0  0  0  0  0  0  0  0  0  0  0  0
   -1.2362    2.2429    0.7683 O   0  0  0  0  0  0  0  0  0  0  0  0
   -2.3359    0.0371    0.5932 C   0  0  0  0  0  0  0  0  0  0  0  0
   -1.3943   -0.8139   -0.2540 C   0  0  0  0  0  0  0  0  0  0  0  0
   -1.3760   -0.3651   -1.5653 O   0  0  0  0  0  0  0  0  0  0  0  0
    1.7853    2.0721   -0.6110 H   0  0  0  0  0  0  0  0  0  0  0  0
    1.5002    1.6439    1.1565 H   0  0  0  0  0  0  0  0  0  0  0  0
    2.8688    0.9648    0.2526 H   0  0  0  0  0  0  0  0  0  0  0  0
    0.5916    0.2930   -1.3818 H   0  0  0  0  0  0  0  0  0  0  0  0
    2.0328   -1.3511    0.7757 H   0  0  0  0  0  0  0  0  0  0  0  0
    1.2520   -1.9853   -0.7681 H   0  0  0  0  0  0  0  0  0  0  0  0
    2.7354   -0.8775   -0.7814 H   0  0  0  0  0  0  0  0  0  0  0  0
   -0.0435   -0.5456    1.4833 H   0  0  0  0  0  0  0  0  0  0  0  0
   -3.2383    0.3825    0.0961 H   0  0  0  0  0  0  0  0  0  0  0  0
   -2.4797   -0.3914    1.6092 H   0  0  0  0  0  0  0  0  0  0  0  0
   -1.4513   -1.8866   -0.0914 H   0  0  0  0  0  0  0  0  0  0  0  0
   -2.2211   -0.6315   -1.9881 H   0  0  0  0  0  0  0  0  0  0  0  0
  1  2  1  0
  2  3  1  0
  2  4  1  0
  4  5  1  0
  5  6  2  0
  5  7  1  0
  7  8  1  0
  8  9  1  0
  8  4  1  0
  1 10  1  0
  1 11  1  0
  1 12  1  0
  2 13  1  0
  3 14  1  0
  3 15  1  0
  3 16  1  0
  4 17  1  0
  7 18  1  0
  7 19  1  0
  8 20  1  0
  9 21  1  0
M  END
