
     RDKit          3D

 23 24  0  0  0  0  0  0  0  0999 V2000
    0.9861   -1.5670   -0.2669 C   0  0  0  0  0  0  0  0  0  0  0  0
    0.9497   -0.1209   -0.3865 C   0  0  0  0  0  0  0  0  0  0  0  0
    2.1900    0.3875    0.3773 C   0  0  0  0  0  0  0  0  0  0  0  0
   -0.2466    0.6375    0.1641 C   0  0  0  0  0  0  0  0  0  0  0  0
   -0.0688    2.0725   -0.0645 C   0  0  0  0  0  0  0  0  0  0  0  0
   -1.0100    1.4542   -0.9538 C   0  0  0  0  0  0  0  0  0  0  0  0
   -1.2569    0.1363   -1.3151 O   0  0  0  0  0  0  0  0  0  0  0  0
   -1.6105    0.0069    0.0532 C   0  0  0  0  0  0  0  0  0  0  0  0
   -1.8686   -1.3269    0.5603 C   0  0  0  0  0  0  0  0  0  0  0  0
    0.2014   -2.1789   -0.6533 H   0  0  0  0  0  0  0  0  0  0  0  0
    1.9227   -1.8999   -0.8165 H   0  0  0  0  0  0  0  0  0  0  0  0
    1.2026   -1.9177    0.7867 H   0  0  0  0  0  0  0  0  0  0  0  0
    1.1608    0.1951   -1.4520 H   0  0  0  0  0  0  0  0  0  0  0  0
    3.0096   -0.3416    0.3398 H   0  0  0  0  0  0  0  0  0  0  0  0
    2.5497    1.3294   -0.0329 H   0  0  0  0  0  0  0  0  0  0  0  0
    1.8646    0.4465    1.4374 H   0  0  0  0  0  0  0  0  0  0  0  0
    0.8235    2.5333   -0.5653 H   0  0  0  0  0  0  0  0  0  0  0  0
   -0.3263    2.6962    0.8447 H   0  0  0  0  0  0  0  0  0  0  0  0
   -2.0256    1.8724   -0.7277 H   0  0  0  0  0  0  0  0  0  0  0  0
   -2.3635    0.7469    0.4130 H   0  0  0  0  0  0  0  0  0  0  0  0
   -2.1432   -2.0948   -0.2242 H   0  0  0  0  0  0  0  0  0  0  0  0
   -2.8153   -1.3211    1.1902 H   0  0  0  0  0  0  0  0  0  0  0  0
   -1.1252   -1.7460    1.2920 H   0  0  0  0  0  0  0  0  0  0  0  0
  1  2  1  0
  2  3  1  0
  2  4  1  0
  4  5  1  0
  5  6  1  0
  6  7  1  0
  7  8  1  0
  8  9  1  0
  6  4  1  0
  8  4  1  0
  1 10  1  0
  1 11  1  0
  1 12  1  0
  2 13  1  0
  3 14  1  0
  3 15  1  0
  3 16  1  0
  5 17  1  0
  5 18  1  0
  6 19  1  0
  8 20  1  0
  9 21  1  0
  9 22  1  0
  9 23  1  0
M  END
