
     RDKit          3D

 25 25  0  0  0  0  0  0  0  0999 V2000
   -0.7841    1.5815    1.0544 C   0  0  0  0  0  0  0  0  0  0  0  0
   -0.7298    0.6730   -0.1712 C   0  0  0  0  0  0  0  0  0  0  0  0
   -2.1553    0.4102   -0.6123 C   0  0  0  0  0  0  0  0  0  0  0  0
   -0.0461   -0.6289    0.1271 C   0  0  0  0  0  0  0  0  0  0  0  0
   -0.7323   -1.4282    1.2164 C   0  0  0  0  0  0  0  0  0  0  0  0
    0.4391   -1.3347   -1.1121 C   0  0  0  0  0  0  0  0  0  0  0  0
    1.3855   -0.8612   -0.0603 C   0  0  0  0  0  0  0  0  0  0  0  0
    2.3777    0.2248   -0.3271 C   0  0  0  0  0  0  0  0  0  0  0  0
    2.1366    0.9481   -1.4742 O   0  0  0  0  0  0  0  0  0  0  0  0
   -0.6688    2.6513    0.7726 H   0  0  0  0  0  0  0  0  0  0  0  0
   -1.7374    1.4260    1.6016 H   0  0  0  0  0  0  0  0  0  0  0  0
    0.0435    1.3144    1.7253 H   0  0  0  0  0  0  0  0  0  0  0  0
   -0.2523    1.2545   -0.9697 H   0  0  0  0  0  0  0  0  0  0  0  0
   -2.8942    0.7641    0.1357 H   0  0  0  0  0  0  0  0  0  0  0  0
   -2.4023    0.9199   -1.5654 H   0  0  0  0  0  0  0  0  0  0  0  0
   -2.2788   -0.6792   -0.8052 H   0  0  0  0  0  0  0  0  0  0  0  0
   -0.3744   -0.9873    2.1861 H   0  0  0  0  0  0  0  0  0  0  0  0
   -1.8343   -1.3703    1.1449 H   0  0  0  0  0  0  0  0  0  0  0  0
   -0.3325   -2.4498    1.1812 H   0  0  0  0  0  0  0  0  0  0  0  0
    0.1384   -2.4009   -1.1657 H   0  0  0  0  0  0  0  0  0  0  0  0
    0.4722   -0.8087   -2.0723 H   0  0  0  0  0  0  0  0  0  0  0  0
    1.8343   -1.6984    0.5182 H   0  0  0  0  0  0  0  0  0  0  0  0
    2.3636    0.9200    0.5397 H   0  0  0  0  0  0  0  0  0  0  0  0
    3.3814   -0.2230   -0.4389 H   0  0  0  0  0  0  0  0  0  0  0  0
    2.6503    1.7830   -1.4291 H   0  0  0  0  0  0  0  0  0  0  0  0
  1  2  1  0
  2  3  1  0
  2  4  1  0
  4  5  1  0
  4  6  1  0
  6  7  1  0
  7  8  1  0
  8  9  1  0
  7  4  1  0
  1 10  1  0
  1 11  1  0
  1 12  1  0
  2 13  1  0
  3 14  1  0
  3 15  1  0
  3 16  1  0
  5 17  1  0
  5 18  1  0
  5 19  1  0
  6 20  1  0
  6 21  1  0
  7 22  1  0
  8 23  1  0
  8 24  1  0
  9 25  1  0
M  END
