
     RDKit          3D

 21 21  0  0  0  0  0  0  0  0999 V2000
    0.9867   -0.1246    1.3893 C   0  0  0  0  0  0  0  0  0  0  0  0
    0.6945   -0.0618   -0.0752 C   0  0  0  0  0  0  0  0  0  0  0  0
    1.0817    1.3364   -0.5535 C   0  0  0  0  0  0  0  0  0  0  0  0
    1.4605   -1.0960   -0.8081 C   0  0  0  0  0  0  0  0  0  0  0  0
    1.5156   -2.2332   -0.4093 O   0  0  0  0  0  0  0  0  0  0  0  0
   -0.7592   -0.2490   -0.4145 C   0  0  0  0  0  0  0  0  0  0  0  0
   -0.9663   -0.1785   -1.8151 O   0  0  0  0  0  0  0  0  0  0  0  0
   -1.8070    0.4482    0.3860 C   0  0  0  0  0  0  0  0  0  0  0  0
   -1.6663   -1.0627    0.3943 C   0  0  0  0  0  0  0  0  0  0  0  0
    0.5246    0.7576    1.8899 H   0  0  0  0  0  0  0  0  0  0  0  0
    2.0848   -0.0004    1.5029 H   0  0  0  0  0  0  0  0  0  0  0  0
    0.6620   -1.0824    1.8546 H   0  0  0  0  0  0  0  0  0  0  0  0
    0.4395    1.6561   -1.3967 H   0  0  0  0  0  0  0  0  0  0  0  0
    2.1375    1.3173   -0.8203 H   0  0  0  0  0  0  0  0  0  0  0  0
    0.8532    2.0362    0.2966 H   0  0  0  0  0  0  0  0  0  0  0  0
    1.9843   -0.8429   -1.7172 H   0  0  0  0  0  0  0  0  0  0  0  0
   -1.2795    0.7257   -2.0766 H   0  0  0  0  0  0  0  0  0  0  0  0
   -1.5388    0.9555    1.3421 H   0  0  0  0  0  0  0  0  0  0  0  0
   -2.6743    0.8892   -0.1335 H   0  0  0  0  0  0  0  0  0  0  0  0
   -2.4531   -1.6410   -0.1443 H   0  0  0  0  0  0  0  0  0  0  0  0
   -1.2804   -1.5496    1.3087 H   0  0  0  0  0  0  0  0  0  0  0  0
  1  2  1  0
  2  3  1  0
  2  4  1  0
  4  5  2  0
  2  6  1  0
  6  7  1  0
  6  8  1  0
  8  9  1  0
  9  6  1  0
  1 10  1  0
  1 11  1  0
  1 12  1  0
  3 13  1  0
  3 14  1  0
  3 15  1  0
  4 16  1  0
  7 17  1  0
  8 18  1  0
  8 19  1  0
  9 20  1  0
  9 21  1  0
M  END
