
     RDKit          3D

 18 17  0  0  0  0  0  0  0  0999 V2000
   -1.4039    0.7536   -0.7506 C   0  0  0  0  0  0  0  0  0  0  0  0
   -0.2323    0.1069   -0.0521 C   0  0  0  0  0  0  0  0  0  0  0  0
   -0.2267    0.5506    1.3783 C   0  0  0  0  0  0  0  0  0  0  0  0
   -0.5194   -1.4005   -0.0453 C   0  0  0  0  0  0  0  0  0  0  0  0
    1.0403    0.3410   -0.7543 C   0  0  0  0  0  0  0  0  0  0  0  0
    1.0076    1.0242   -1.8115 O   0  0  0  0  0  0  0  0  0  0  0  0
    2.3160   -0.1591   -0.3120 C   0  0  0  0  0  0  0  0  0  0  0  0
    2.4241   -0.8586    0.7504 O   0  0  0  0  0  0  0  0  0  0  0  0
   -1.1787    0.8917   -1.8197 H   0  0  0  0  0  0  0  0  0  0  0  0
   -1.5742    1.7757   -0.3042 H   0  0  0  0  0  0  0  0  0  0  0  0
   -2.3587    0.1999   -0.5885 H   0  0  0  0  0  0  0  0  0  0  0  0
    0.2020    1.5583    1.5172 H   0  0  0  0  0  0  0  0  0  0  0  0
    0.2142   -0.2055    2.0731 H   0  0  0  0  0  0  0  0  0  0  0  0
   -1.3050    0.6405    1.6951 H   0  0  0  0  0  0  0  0  0  0  0  0
   -1.5486   -1.5674    0.3159 H   0  0  0  0  0  0  0  0  0  0  0  0
   -0.3583   -1.8259   -1.0621 H   0  0  0  0  0  0  0  0  0  0  0  0
    0.2570   -1.8435    0.6047 H   0  0  0  0  0  0  0  0  0  0  0  0
    3.2445    0.0182   -0.8344 H   0  0  0  0  0  0  0  0  0  0  0  0
  1  2  1  0
  2  3  1  0
  2  4  1  0
  2  5  1  0
  5  6  2  0
  5  7  1  0
  7  8  2  0
  1  9  1  0
  1 10  1  0
  1 11  1  0
  3 12  1  0
  3 13  1  0
  3 14  1  0
  4 15  1  0
  4 16  1  0
  4 17  1  0
  7 18  1  0
M  END
