
     RDKit          3D

 25 25  0  0  0  0  0  0  0  0999 V2000
    2.2939    0.5762    1.4560 C   0  0  0  0  0  0  0  0  0  0  0  0
    1.2546    0.4108    0.3838 C   0  0  0  0  0  0  0  0  0  0  0  0
    2.0250    0.1450   -0.9169 C   0  0  0  0  0  0  0  0  0  0  0  0
    0.3688   -0.7816    0.6043 C   0  0  0  0  0  0  0  0  0  0  0  0
   -0.6398   -0.8859   -0.4968 C   0  0  0  0  0  0  0  0  0  0  0  0
   -1.6224    0.1522   -0.7993 C   0  0  0  0  0  0  0  0  0  0  0  0
   -1.8855    1.3414    0.0722 C   0  0  0  0  0  0  0  0  0  0  0  0
   -2.0465   -1.1694   -0.1449 C   0  0  0  0  0  0  0  0  0  0  0  0
   -2.8685   -1.9425   -0.9232 O   0  0  0  0  0  0  0  0  0  0  0  0
    1.9230    1.1605    2.3256 H   0  0  0  0  0  0  0  0  0  0  0  0
    3.1827    1.0704    0.9955 H   0  0  0  0  0  0  0  0  0  0  0  0
    2.6256   -0.4098    1.8429 H   0  0  0  0  0  0  0  0  0  0  0  0
    0.6762    1.3354    0.2230 H   0  0  0  0  0  0  0  0  0  0  0  0
    2.8501    0.8930   -0.9786 H   0  0  0  0  0  0  0  0  0  0  0  0
    1.3611    0.1547   -1.7820 H   0  0  0  0  0  0  0  0  0  0  0  0
    2.4905   -0.8730   -0.7876 H   0  0  0  0  0  0  0  0  0  0  0  0
    1.0168   -1.6803    0.5962 H   0  0  0  0  0  0  0  0  0  0  0  0
   -0.1287   -0.7702    1.5936 H   0  0  0  0  0  0  0  0  0  0  0  0
   -0.2341   -1.4333   -1.4000 H   0  0  0  0  0  0  0  0  0  0  0  0
   -1.9350    0.3183   -1.8664 H   0  0  0  0  0  0  0  0  0  0  0  0
   -1.4488    2.2497   -0.4105 H   0  0  0  0  0  0  0  0  0  0  0  0
   -1.5509    1.2219    1.1060 H   0  0  0  0  0  0  0  0  0  0  0  0
   -3.0009    1.5208    0.0298 H   0  0  0  0  0  0  0  0  0  0  0  0
   -2.2904   -1.1728    0.9287 H   0  0  0  0  0  0  0  0  0  0  0  0
   -2.4167   -2.4276   -1.6514 H   0  0  0  0  0  0  0  0  0  0  0  0
  1  2  1  0
  2  3  1  0
  2  4  1  0
  4  5  1  0
  5  6  1  0
  6  7  1  0
  6  8  1  0
  8  9  1  0
  8  5  1  0
  1 10  1  0
  1 11  1  0
  1 12  1  0
  2 13  1  0
  3 14  1  0
  3 15  1  0
  3 16  1  0
  4 17  1  0
  4 18  1  0
  5 19  1  0
  6 20  1  0
  7 21  1  0
  7 22  1  0
  7 23  1  0
  8 24  1  0
  9 25  1  0
M  END
