
     RDKit          3D

 23 23  0  0  0  0  0  0  0  0999 V2000
    1.4608   -1.6686    0.4045 C   0  0  0  0  0  0  0  0  0  0  0  0
    1.2242   -0.1612    0.3830 C   0  0  0  0  0  0  0  0  0  0  0  0
    2.1221    0.4793   -0.6528 C   0  0  0  0  0  0  0  0  0  0  0  0
    1.9238    1.8565   -0.6889 O   0  0  0  0  0  0  0  0  0  0  0  0
   -0.1929    0.1478    0.1582 C   0  0  0  0  0  0  0  0  0  0  0  0
   -0.7427    0.8828   -0.7978 C   0  0  0  0  0  0  0  0  0  0  0  0
   -2.2166    0.9211   -0.6317 C   0  0  0  0  0  0  0  0  0  0  0  0
   -2.4524   -0.3761    0.1031 C   0  0  0  0  0  0  0  0  0  0  0  0
   -1.2747   -0.3816    1.0672 C   0  0  0  0  0  0  0  0  0  0  0  0
    0.8400   -2.0839    1.2024 H   0  0  0  0  0  0  0  0  0  0  0  0
    1.2583   -2.1380   -0.5707 H   0  0  0  0  0  0  0  0  0  0  0  0
    2.5306   -1.8304    0.7239 H   0  0  0  0  0  0  0  0  0  0  0  0
    1.5170    0.2199    1.3829 H   0  0  0  0  0  0  0  0  0  0  0  0
    1.8548    0.1033   -1.6734 H   0  0  0  0  0  0  0  0  0  0  0  0
    3.1856    0.2034   -0.5040 H   0  0  0  0  0  0  0  0  0  0  0  0
    2.5630    2.3499   -0.1199 H   0  0  0  0  0  0  0  0  0  0  0  0
   -0.1797    1.3728   -1.5744 H   0  0  0  0  0  0  0  0  0  0  0  0
   -2.4413    1.8088    0.0258 H   0  0  0  0  0  0  0  0  0  0  0  0
   -2.7650    0.9650   -1.5851 H   0  0  0  0  0  0  0  0  0  0  0  0
   -2.2836   -1.1967   -0.6065 H   0  0  0  0  0  0  0  0  0  0  0  0
   -3.4201   -0.4107    0.6253 H   0  0  0  0  0  0  0  0  0  0  0  0
   -1.0643   -1.3872    1.4259 H   0  0  0  0  0  0  0  0  0  0  0  0
   -1.4468    0.3240    1.9029 H   0  0  0  0  0  0  0  0  0  0  0  0
  1  2  1  0
  2  3  1  0
  3  4  1  0
  2  5  1  0
  5  6  2  0
  6  7  1  0
  7  8  1  0
  8  9  1  0
  9  5  1  0
  1 10  1  0
  1 11  1  0
  1 12  1  0
  2 13  1  0
  3 14  1  0
  3 15  1  0
  4 16  1  0
  6 17  1  0
  7 18  1  0
  7 19  1  0
  8 20  1  0
  8 21  1  0
  9 22  1  0
  9 23  1  0
M  END
