
     RDKit          3D

 21 21  0  0  0  0  0  0  0  0999 V2000
   -2.0898   -0.1157    1.2668 C   0  0  0  0  0  0  0  0  0  0  0  0
   -0.8815   -0.4996    0.4010 C   0  0  0  0  0  0  0  0  0  0  0  0
   -1.4068   -0.6138   -1.0117 C   0  0  0  0  0  0  0  0  0  0  0  0
    0.1016    0.6454    0.5360 C   0  0  0  0  0  0  0  0  0  0  0  0
    1.3513    0.4146   -0.2633 C   0  0  0  0  0  0  0  0  0  0  0  0
    2.4035    1.4603   -0.2225 C   0  0  0  0  0  0  0  0  0  0  0  0
    3.4515    1.3794   -0.8279 O   0  0  0  0  0  0  0  0  0  0  0  0
    1.8214   -0.9611   -0.5649 C   0  0  0  0  0  0  0  0  0  0  0  0
    1.1097   -0.2245   -1.4925 O   0  0  0  0  0  0  0  0  0  0  0  0
   -2.9268   -0.7276    0.9015 H   0  0  0  0  0  0  0  0  0  0  0  0
   -1.8397   -0.2453    2.3212 H   0  0  0  0  0  0  0  0  0  0  0  0
   -2.2804    0.9677    1.0291 H   0  0  0  0  0  0  0  0  0  0  0  0
   -0.4552   -1.4303    0.7906 H   0  0  0  0  0  0  0  0  0  0  0  0
   -1.3761    0.3781   -1.5128 H   0  0  0  0  0  0  0  0  0  0  0  0
   -0.9063   -1.4111   -1.5900 H   0  0  0  0  0  0  0  0  0  0  0  0
   -2.4969   -0.9018   -0.9895 H   0  0  0  0  0  0  0  0  0  0  0  0
   -0.3905    1.5768    0.1355 H   0  0  0  0  0  0  0  0  0  0  0  0
    0.3272    0.8729    1.5943 H   0  0  0  0  0  0  0  0  0  0  0  0
    2.2310    2.3427    0.3775 H   0  0  0  0  0  0  0  0  0  0  0  0
    2.8881   -1.0978   -0.8316 H   0  0  0  0  0  0  0  0  0  0  0  0
    1.3647   -1.8095   -0.0468 H   0  0  0  0  0  0  0  0  0  0  0  0
  1  2  1  0
  2  3  1  0
  2  4  1  0
  4  5  1  0
  5  6  1  0
  6  7  2  0
  5  8  1  0
  8  9  1  0
  9  5  1  0
  1 10  1  0
  1 11  1  0
  1 12  1  0
  2 13  1  0
  3 14  1  0
  3 15  1  0
  3 16  1  0
  4 17  1  0
  4 18  1  0
  6 19  1  0
  8 20  1  0
  8 21  1  0
M  END
