
     RDKit          3D

 26 25  0  0  0  0  0  0  0  0999 V2000
    1.4911   -0.6786    1.5877 C   0  0  0  0  0  0  0  0  0  0  0  0
    1.4750    0.3133    0.4848 C   0  0  0  0  0  0  0  0  0  0  0  0
    2.2977   -0.1305   -0.7227 C   0  0  0  0  0  0  0  0  0  0  0  0
    0.1966    0.9473    0.1467 C   0  0  0  0  0  0  0  0  0  0  0  0
   -0.9581    0.1787   -0.2884 C   0  0  0  0  0  0  0  0  0  0  0  0
   -2.1026    1.1820   -0.5533 C   0  0  0  0  0  0  0  0  0  0  0  0
   -0.8622   -0.6863   -1.4865 C   0  0  0  0  0  0  0  0  0  0  0  0
   -1.5176   -0.6978    0.8250 C   0  0  0  0  0  0  0  0  0  0  0  0
    1.2913   -1.7206    1.2829 H   0  0  0  0  0  0  0  0  0  0  0  0
    2.5538   -0.7291    1.9780 H   0  0  0  0  0  0  0  0  0  0  0  0
    0.8942   -0.3095    2.4185 H   0  0  0  0  0  0  0  0  0  0  0  0
    2.1319    1.1601    0.8788 H   0  0  0  0  0  0  0  0  0  0  0  0
    3.2935   -0.4395   -0.3379 H   0  0  0  0  0  0  0  0  0  0  0  0
    2.4620    0.7519   -1.3575 H   0  0  0  0  0  0  0  0  0  0  0  0
    1.8765   -0.9835   -1.2463 H   0  0  0  0  0  0  0  0  0  0  0  0
   -0.1237    1.5800    1.0250 H   0  0  0  0  0  0  0  0  0  0  0  0
    0.4354    1.7339   -0.6348 H   0  0  0  0  0  0  0  0  0  0  0  0
   -1.8222    1.7948   -1.4102 H   0  0  0  0  0  0  0  0  0  0  0  0
   -3.0156    0.5698   -0.7208 H   0  0  0  0  0  0  0  0  0  0  0  0
   -2.2513    1.7834    0.3707 H   0  0  0  0  0  0  0  0  0  0  0  0
   -1.8737   -0.7864   -1.9424 H   0  0  0  0  0  0  0  0  0  0  0  0
   -0.6062   -1.7371   -1.1731 H   0  0  0  0  0  0  0  0  0  0  0  0
   -0.2189   -0.3228   -2.2935 H   0  0  0  0  0  0  0  0  0  0  0  0
   -2.5877   -0.8814    0.5718 H   0  0  0  0  0  0  0  0  0  0  0  0
   -1.4111   -0.1740    1.7795 H   0  0  0  0  0  0  0  0  0  0  0  0
   -1.0483   -1.7179    0.8180 H   0  0  0  0  0  0  0  0  0  0  0  0
  1  2  1  0
  2  3  1  0
  2  4  1  0
  4  5  1  0
  5  6  1  0
  5  7  1  0
  5  8  1  0
  1  9  1  0
  1 10  1  0
  1 11  1  0
  2 12  1  0
  3 13  1  0
  3 14  1  0
  3 15  1  0
  4 16  1  0
  4 17  1  0
  6 18  1  0
  6 19  1  0
  6 20  1  0
  7 21  1  0
  7 22  1  0
  7 23  1  0
  8 24  1  0
  8 25  1  0
  8 26  1  0
M  END
