
     RDKit          3D

 19 18  0  0  0  0  0  0  0  0999 V2000
   -1.9887    1.1349    0.8566 C   0  0  0  0  0  0  0  0  0  0  0  0
   -0.8171    0.6826    0.0503 C   0  0  0  0  0  0  0  0  0  0  0  0
   -1.2627   -0.2184   -1.1022 C   0  0  0  0  0  0  0  0  0  0  0  0
    0.1587   -0.1525    0.8747 C   0  0  0  0  0  0  0  0  0  0  0  0
    0.6392    0.5873    1.9382 O   0  0  0  0  0  0  0  0  0  0  0  0
    1.3099   -0.5371    0.0561 C   0  0  0  0  0  0  0  0  0  0  0  0
    2.2762   -0.8445   -0.6094 C   0  0  0  0  0  0  0  0  0  0  0  0
    3.4279   -1.2233   -1.3785 C   0  0  0  0  0  0  0  0  0  0  0  0
    4.4700   -1.5816   -0.7743 O   0  0  0  0  0  0  0  0  0  0  0  0
   -1.7393    1.4653    1.8643 H   0  0  0  0  0  0  0  0  0  0  0  0
   -2.5548    1.8917    0.2866 H   0  0  0  0  0  0  0  0  0  0  0  0
   -2.6592    0.2349    0.9835 H   0  0  0  0  0  0  0  0  0  0  0  0
   -0.2403    1.5217   -0.3627 H   0  0  0  0  0  0  0  0  0  0  0  0
   -0.4146   -0.8276   -1.4505 H   0  0  0  0  0  0  0  0  0  0  0  0
   -2.0841   -0.8586   -0.6890 H   0  0  0  0  0  0  0  0  0  0  0  0
   -1.6253    0.4032   -1.9451 H   0  0  0  0  0  0  0  0  0  0  0  0
   -0.3152   -1.0929    1.2164 H   0  0  0  0  0  0  0  0  0  0  0  0
   -0.0456    0.6374    2.6423 H   0  0  0  0  0  0  0  0  0  0  0  0
    3.4649   -1.2226   -2.4572 H   0  0  0  0  0  0  0  0  0  0  0  0
  1  2  1  0
  2  3  1  0
  2  4  1  0
  4  5  1  0
  4  6  1  0
  6  7  3  0
  7  8  1  0
  8  9  2  0
  1 10  1  0
  1 11  1  0
  1 12  1  0
  2 13  1  0
  3 14  1  0
  3 15  1  0
  3 16  1  0
  4 17  1  0
  5 18  1  0
  8 19  1  0
M  END
