
     RDKit          3D

 21 20  0  0  0  0  0  0  0  0999 V2000
   -1.9131   -0.7550    0.0251 C   0  0  0  0  0  0  0  0  0  0  0  0
   -0.6475    0.0924    0.2255 C   0  0  0  0  0  0  0  0  0  0  0  0
   -1.0337    1.5034   -0.1355 C   0  0  0  0  0  0  0  0  0  0  0  0
   -0.3369    0.0653    1.5627 O   0  0  0  0  0  0  0  0  0  0  0  0
    0.4128   -0.5002   -0.6132 C   0  0  0  0  0  0  0  0  0  0  0  0
    0.5803   -1.8358   -0.2112 O   0  0  0  0  0  0  0  0  0  0  0  0
    1.7367    0.1676   -0.5971 C   0  0  0  0  0  0  0  0  0  0  0  0
    2.3856    0.2295    0.7346 C   0  0  0  0  0  0  0  0  0  0  0  0
    3.4696    0.7784    0.8020 O   0  0  0  0  0  0  0  0  0  0  0  0
   -1.8762   -1.2235   -0.9847 H   0  0  0  0  0  0  0  0  0  0  0  0
   -1.9255   -1.5732    0.7700 H   0  0  0  0  0  0  0  0  0  0  0  0
   -2.8154   -0.1387    0.1864 H   0  0  0  0  0  0  0  0  0  0  0  0
   -0.3259    2.2532    0.2805 H   0  0  0  0  0  0  0  0  0  0  0  0
   -2.0134    1.6915    0.3576 H   0  0  0  0  0  0  0  0  0  0  0  0
   -1.1647    1.6664   -1.2023 H   0  0  0  0  0  0  0  0  0  0  0  0
   -1.1894   -0.0019    2.0741 H   0  0  0  0  0  0  0  0  0  0  0  0
    0.0675   -0.5305   -1.6849 H   0  0  0  0  0  0  0  0  0  0  0  0
    0.4839   -2.4646   -0.9716 H   0  0  0  0  0  0  0  0  0  0  0  0
    1.7079    1.1951   -1.0163 H   0  0  0  0  0  0  0  0  0  0  0  0
    2.4200   -0.4476   -1.2527 H   0  0  0  0  0  0  0  0  0  0  0  0
    1.9775   -0.1718    1.6509 H   0  0  0  0  0  0  0  0  0  0  0  0
  1  2  1  0
  2  3  1  0
  2  4  1  0
  2  5  1  0
  5  6  1  0
  5  7  1  0
  7  8  1  0
  8  9  2  0
  1 10  1  0
  1 11  1  0
  1 12  1  0
  3 13  1  0
  3 14  1  0
  3 15  1  0
  4 16  1  0
  5 17  1  0
  6 18  1  0
  7 19  1  0
  7 20  1  0
  8 21  1  0
M  END
