
     RDKit          3D

 23 23  0  0  0  0  0  0  0  0999 V2000
   -2.2280   -0.8105    0.6373 C   0  0  0  0  0  0  0  0  0  0  0  0
   -1.3138   -0.3110   -0.4280 C   0  0  0  0  0  0  0  0  0  0  0  0
   -1.9210    0.9474   -1.0575 C   0  0  0  0  0  0  0  0  0  0  0  0
    0.0512    0.0881    0.0801 C   0  0  0  0  0  0  0  0  0  0  0  0
    0.7706   -1.0450    0.7278 C   0  0  0  0  0  0  0  0  0  0  0  0
    2.1181   -0.9394    0.7946 O   0  0  0  0  0  0  0  0  0  0  0  0
    2.7366   -0.1382   -0.1091 C   0  0  0  0  0  0  0  0  0  0  0  0
    1.9582    1.0863   -0.5089 C   0  0  0  0  0  0  0  0  0  0  0  0
    0.7355    0.6582   -0.9850 O   0  0  0  0  0  0  0  0  0  0  0  0
   -2.9751   -0.0453    0.9445 H   0  0  0  0  0  0  0  0  0  0  0  0
   -1.7213   -1.2700    1.5040 H   0  0  0  0  0  0  0  0  0  0  0  0
   -2.8433   -1.6411    0.1818 H   0  0  0  0  0  0  0  0  0  0  0  0
   -1.1580   -1.0185   -1.2574 H   0  0  0  0  0  0  0  0  0  0  0  0
   -1.2626    1.2336   -1.9116 H   0  0  0  0  0  0  0  0  0  0  0  0
   -2.9620    0.7988   -1.3387 H   0  0  0  0  0  0  0  0  0  0  0  0
   -1.7718    1.7549   -0.2910 H   0  0  0  0  0  0  0  0  0  0  0  0
   -0.0804    0.9004    0.8376 H   0  0  0  0  0  0  0  0  0  0  0  0
    0.3744   -1.1240    1.7830 H   0  0  0  0  0  0  0  0  0  0  0  0
    0.4827   -2.0232    0.2596 H   0  0  0  0  0  0  0  0  0  0  0  0
    3.7027    0.2220    0.3207 H   0  0  0  0  0  0  0  0  0  0  0  0
    2.9516   -0.7111   -1.0371 H   0  0  0  0  0  0  0  0  0  0  0  0
    1.8551    1.8275    0.2953 H   0  0  0  0  0  0  0  0  0  0  0  0
    2.5006    1.5603   -1.3542 H   0  0  0  0  0  0  0  0  0  0  0  0
  1  2  1  0
  2  3  1  0
  2  4  1  0
  4  5  1  0
  5  6  1  0
  6  7  1  0
  7  8  1  0
  8  9  1  0
  9  4  1  0
  1 10  1  0
  1 11  1  0
  1 12  1  0
  2 13  1  0
  3 14  1  0
  3 15  1  0
  3 16  1  0
  4 17  1  0
  5 18  1  0
  5 19  1  0
  7 20  1  0
  7 21  1  0
  8 22  1  0
  8 23  1  0
M  END
