
     RDKit          3D

 21 22  0  0  0  0  0  0  0  0999 V2000
   -1.7705   -1.2242   -0.2699 C   0  0  0  0  0  0  0  0  0  0  0  0
   -0.9635   -0.0486    0.2284 C   0  0  0  0  0  0  0  0  0  0  0  0
   -1.3126    1.1523   -0.5780 C   0  0  0  0  0  0  0  0  0  0  0  0
   -1.4042    0.1927    1.5506 O   0  0  0  0  0  0  0  0  0  0  0  0
    0.4639   -0.4041    0.2800 C   0  0  0  0  0  0  0  0  0  0  0  0
    1.4352    0.6215    0.7470 C   0  0  0  0  0  0  0  0  0  0  0  0
    2.5045   -0.1872    0.0791 C   0  0  0  0  0  0  0  0  0  0  0  0
    1.3412   -0.0736   -0.8686 C   0  0  0  0  0  0  0  0  0  0  0  0
    1.2663    1.2503   -0.4748 O   0  0  0  0  0  0  0  0  0  0  0  0
   -2.3349   -0.9496   -1.2067 H   0  0  0  0  0  0  0  0  0  0  0  0
   -1.0881   -2.0464   -0.5870 H   0  0  0  0  0  0  0  0  0  0  0  0
   -2.5202   -1.5775    0.4420 H   0  0  0  0  0  0  0  0  0  0  0  0
   -2.4364    1.1515   -0.7011 H   0  0  0  0  0  0  0  0  0  0  0  0
   -1.1013    2.1135   -0.0315 H   0  0  0  0  0  0  0  0  0  0  0  0
   -0.8976    1.1700   -1.5866 H   0  0  0  0  0  0  0  0  0  0  0  0
   -0.6294    0.4967    2.0819 H   0  0  0  0  0  0  0  0  0  0  0  0
    0.6466   -1.3848    0.7102 H   0  0  0  0  0  0  0  0  0  0  0  0
    1.4865    1.0612    1.6525 H   0  0  0  0  0  0  0  0  0  0  0  0
    3.4274    0.3110   -0.1977 H   0  0  0  0  0  0  0  0  0  0  0  0
    2.5813   -1.1931    0.5410 H   0  0  0  0  0  0  0  0  0  0  0  0
    1.3059   -0.4313   -1.8108 H   0  0  0  0  0  0  0  0  0  0  0  0
  1  2  1  0
  2  3  1  0
  2  4  1  0
  2  5  1  0
  5  6  1  0
  6  7  1  0
  7  8  1  0
  8  9  1  0
  8  5  1  0
  9  6  1  0
  1 10  1  0
  1 11  1  0
  1 12  1  0
  3 13  1  0
  3 14  1  0
  3 15  1  0
  4 16  1  0
  5 17  1  0
  6 18  1  0
  7 19  1  0
  7 20  1  0
  8 21  1  0
M  END
