
     RDKit          3D

 23 23  0  0  0  0  0  0  0  0999 V2000
   -1.5727    1.6228   -0.3181 C   0  0  0  0  0  0  0  0  0  0  0  0
   -0.9516    0.4041    0.3088 C   0  0  0  0  0  0  0  0  0  0  0  0
   -2.0375   -0.6012    0.6656 C   0  0  0  0  0  0  0  0  0  0  0  0
    0.0258   -0.2907   -0.5846 C   0  0  0  0  0  0  0  0  0  0  0  0
    1.1850    0.5703   -0.9974 C   0  0  0  0  0  0  0  0  0  0  0  0
    1.8616    0.9507    0.1534 O   0  0  0  0  0  0  0  0  0  0  0  0
    2.5296   -0.2105    0.6094 C   0  0  0  0  0  0  0  0  0  0  0  0
    1.9891   -1.3604    0.0868 O   0  0  0  0  0  0  0  0  0  0  0  0
    0.6131   -1.4509    0.2306 C   0  0  0  0  0  0  0  0  0  0  0  0
   -2.4872    1.2803   -0.8580 H   0  0  0  0  0  0  0  0  0  0  0  0
   -1.9618    2.2507    0.5358 H   0  0  0  0  0  0  0  0  0  0  0  0
   -0.8856    2.2061   -0.9424 H   0  0  0  0  0  0  0  0  0  0  0  0
   -0.4527    0.6911    1.2495 H   0  0  0  0  0  0  0  0  0  0  0  0
   -1.8837   -1.5771    0.1605 H   0  0  0  0  0  0  0  0  0  0  0  0
   -2.0929   -0.7976    1.7404 H   0  0  0  0  0  0  0  0  0  0  0  0
   -3.0262   -0.2311    0.3238 H   0  0  0  0  0  0  0  0  0  0  0  0
   -0.4621   -0.6699   -1.5080 H   0  0  0  0  0  0  0  0  0  0  0  0
    1.8950   -0.1017   -1.5548 H   0  0  0  0  0  0  0  0  0  0  0  0
    0.9308    1.3916   -1.6623 H   0  0  0  0  0  0  0  0  0  0  0  0
    3.5737   -0.1326    0.1870 H   0  0  0  0  0  0  0  0  0  0  0  0
    2.5382   -0.1734    1.7074 H   0  0  0  0  0  0  0  0  0  0  0  0
    0.3829   -1.3584    1.2968 H   0  0  0  0  0  0  0  0  0  0  0  0
    0.2892   -2.4123   -0.1912 H   0  0  0  0  0  0  0  0  0  0  0  0
  1  2  1  0
  2  3  1  0
  2  4  1  0
  4  5  1  0
  5  6  1  0
  6  7  1  0
  7  8  1  0
  8  9  1  0
  9  4  1  0
  1 10  1  0
  1 11  1  0
  1 12  1  0
  2 13  1  0
  3 14  1  0
  3 15  1  0
  3 16  1  0
  4 17  1  0
  5 18  1  0
  5 19  1  0
  7 20  1  0
  7 21  1  0
  9 22  1  0
  9 23  1  0
M  END
