
     RDKit          3D

 21 21  0  0  0  0  0  0  0  0999 V2000
   -1.6814    1.0859   -0.1767 C   0  0  0  0  0  0  0  0  0  0  0  0
   -0.7398   -0.1072   -0.2219 C   0  0  0  0  0  0  0  0  0  0  0  0
   -0.7410   -0.8369    1.0914 C   0  0  0  0  0  0  0  0  0  0  0  0
   -2.0812   -1.2555    1.2912 O   0  0  0  0  0  0  0  0  0  0  0  0
    0.5788    0.3761   -0.6957 C   0  0  0  0  0  0  0  0  0  0  0  0
    0.5042    0.9565   -1.9854 O   0  0  0  0  0  0  0  0  0  0  0  0
    1.7242   -0.6336   -0.5453 C   0  0  0  0  0  0  0  0  0  0  0  0
    1.7022    0.7454    0.1317 C   0  0  0  0  0  0  0  0  0  0  0  0
    1.7282    0.7108    1.5032 O   0  0  0  0  0  0  0  0  0  0  0  0
   -1.0836    2.0185   -0.0669 H   0  0  0  0  0  0  0  0  0  0  0  0
   -2.3748    1.0310    0.6713 H   0  0  0  0  0  0  0  0  0  0  0  0
   -2.3064    1.1365   -1.1053 H   0  0  0  0  0  0  0  0  0  0  0  0
   -1.1443   -0.8038   -0.9861 H   0  0  0  0  0  0  0  0  0  0  0  0
   -0.1704   -1.7677    1.0082 H   0  0  0  0  0  0  0  0  0  0  0  0
   -0.4956   -0.2097    1.9544 H   0  0  0  0  0  0  0  0  0  0  0  0
   -2.4015   -1.8040    0.5563 H   0  0  0  0  0  0  0  0  0  0  0  0
    0.2096    0.2137   -2.5782 H   0  0  0  0  0  0  0  0  0  0  0  0
    1.6139   -1.5049    0.1070 H   0  0  0  0  0  0  0  0  0  0  0  0
    2.4132   -0.7498   -1.4191 H   0  0  0  0  0  0  0  0  0  0  0  0
    2.4489    1.4710   -0.3021 H   0  0  0  0  0  0  0  0  0  0  0  0
    2.2968   -0.0720    1.7680 H   0  0  0  0  0  0  0  0  0  0  0  0
  1  2  1  0
  2  3  1  0
  3  4  1  0
  2  5  1  0
  5  6  1  0
  5  7  1  0
  7  8  1  0
  8  9  1  0
  8  5  1  0
  1 10  1  0
  1 11  1  0
  1 12  1  0
  2 13  1  0
  3 14  1  0
  3 15  1  0
  4 16  1  0
  6 17  1  0
  7 18  1  0
  7 19  1  0
  8 20  1  0
  9 21  1  0
M  END
