
     RDKit          3D

 21 21  0  0  0  0  0  0  0  0999 V2000
   -1.2629    1.2430    0.3744 C   0  0  0  0  0  0  0  0  0  0  0  0
   -1.0025   -0.1984   -0.0091 C   0  0  0  0  0  0  0  0  0  0  0  0
   -1.9987   -1.1404    0.6588 C   0  0  0  0  0  0  0  0  0  0  0  0
   -1.1780   -0.2850   -1.5004 C   0  0  0  0  0  0  0  0  0  0  0  0
   -2.2242    0.0328   -2.0353 O   0  0  0  0  0  0  0  0  0  0  0  0
    0.2567   -0.6086    0.3573 O   0  0  0  0  0  0  0  0  0  0  0  0
    1.2852    0.1079   -0.2076 C   0  0  0  0  0  0  0  0  0  0  0  0
    2.4169    0.4146    0.7795 C   0  0  0  0  0  0  0  0  0  0  0  0
    2.6273   -0.4764   -0.4165 C   0  0  0  0  0  0  0  0  0  0  0  0
   -1.7414    1.8205   -0.4521 H   0  0  0  0  0  0  0  0  0  0  0  0
   -0.3016    1.7712    0.6367 H   0  0  0  0  0  0  0  0  0  0  0  0
   -1.9804    1.3163    1.2343 H   0  0  0  0  0  0  0  0  0  0  0  0
   -2.4314   -1.8344   -0.0870 H   0  0  0  0  0  0  0  0  0  0  0  0
   -2.7717   -0.5354    1.1279 H   0  0  0  0  0  0  0  0  0  0  0  0
   -1.5169   -1.7472    1.4449 H   0  0  0  0  0  0  0  0  0  0  0  0
   -0.3790   -0.6297   -2.1146 H   0  0  0  0  0  0  0  0  0  0  0  0
    0.9737    0.9275   -0.8886 H   0  0  0  0  0  0  0  0  0  0  0  0
    2.3954   -0.0463    1.7705 H   0  0  0  0  0  0  0  0  0  0  0  0
    2.7558    1.4642    0.7610 H   0  0  0  0  0  0  0  0  0  0  0  0
    3.2720   -0.0401   -1.1964 H   0  0  0  0  0  0  0  0  0  0  0  0
    2.8058   -1.5562   -0.2377 H   0  0  0  0  0  0  0  0  0  0  0  0
  1  2  1  0
  2  3  1  0
  2  4  1  0
  4  5  2  0
  2  6  1  0
  6  7  1  0
  7  8  1  0
  8  9  1  0
  9  7  1  0
  1 10  1  0
  1 11  1  0
  1 12  1  0
  3 13  1  0
  3 14  1  0
  3 15  1  0
  4 16  1  0
  7 17  1  0
  8 18  1  0
  8 19  1  0
  9 20  1  0
  9 21  1  0
M  END
