
     RDKit          3D

 21 21  0  0  0  0  0  0  0  0999 V2000
    1.2811   -0.2180    1.3912 C   0  0  0  0  0  0  0  0  0  0  0  0
    0.8430    0.1022    0.0057 C   0  0  0  0  0  0  0  0  0  0  0  0
    1.2534   -0.9671   -0.9611 C   0  0  0  0  0  0  0  0  0  0  0  0
    1.4395    1.3042   -0.3881 O   0  0  0  0  0  0  0  0  0  0  0  0
   -0.6492    0.3547    0.0235 C   0  0  0  0  0  0  0  0  0  0  0  0
   -1.0376    1.4858    0.9038 C   0  0  0  0  0  0  0  0  0  0  0  0
   -0.2180    2.2941    1.3201 O   0  0  0  0  0  0  0  0  0  0  0  0
   -1.5883   -0.8243    0.0399 C   0  0  0  0  0  0  0  0  0  0  0  0
   -1.5049    0.0701   -1.1385 C   0  0  0  0  0  0  0  0  0  0  0  0
    1.2690   -1.3194    1.5515 H   0  0  0  0  0  0  0  0  0  0  0  0
    0.6081    0.2644    2.1513 H   0  0  0  0  0  0  0  0  0  0  0  0
    2.3233    0.1160    1.5846 H   0  0  0  0  0  0  0  0  0  0  0  0
    0.9719   -0.7177   -2.0017 H   0  0  0  0  0  0  0  0  0  0  0  0
    2.3839   -0.9727   -0.9624 H   0  0  0  0  0  0  0  0  0  0  0  0
    0.9367   -1.9777   -0.6555 H   0  0  0  0  0  0  0  0  0  0  0  0
    0.9481    1.5975   -1.2235 H   0  0  0  0  0  0  0  0  0  0  0  0
   -2.0630    1.6122    1.1949 H   0  0  0  0  0  0  0  0  0  0  0  0
   -2.5355   -0.7422    0.6406 H   0  0  0  0  0  0  0  0  0  0  0  0
   -1.2117   -1.8464   -0.0400 H   0  0  0  0  0  0  0  0  0  0  0  0
   -2.3353    0.7854   -1.3610 H   0  0  0  0  0  0  0  0  0  0  0  0
   -1.1146   -0.4010   -2.0752 H   0  0  0  0  0  0  0  0  0  0  0  0
  1  2  1  0
  2  3  1  0
  2  4  1  0
  2  5  1  0
  5  6  1  0
  6  7  2  0
  5  8  1  0
  8  9  1  0
  9  5  1  0
  1 10  1  0
  1 11  1  0
  1 12  1  0
  3 13  1  0
  3 14  1  0
  3 15  1  0
  4 16  1  0
  6 17  1  0
  8 18  1  0
  8 19  1  0
  9 20  1  0
  9 21  1  0
M  END
