
     RDKit          3D

 25 26  0  0  0  0  0  0  0  0999 V2000
   -3.0235   -0.3968    0.2881 C   0  0  0  0  0  0  0  0  0  0  0  0
   -1.8405    0.4877    0.0059 C   0  0  0  0  0  0  0  0  0  0  0  0
   -1.6337    0.5992   -1.4939 C   0  0  0  0  0  0  0  0  0  0  0  0
   -0.5863    0.0276    0.7026 C   0  0  0  0  0  0  0  0  0  0  0  0
    0.0136   -1.2824    0.4740 C   0  0  0  0  0  0  0  0  0  0  0  0
    0.6579   -0.1521   -0.1775 C   0  0  0  0  0  0  0  0  0  0  0  0
    1.8794    0.5355    0.3622 C   0  0  0  0  0  0  0  0  0  0  0  0
    3.1765    0.4489   -0.3903 C   0  0  0  0  0  0  0  0  0  0  0  0
    3.0084   -0.1783    0.9525 C   0  0  0  0  0  0  0  0  0  0  0  0
   -2.8081   -1.1765    1.0428 H   0  0  0  0  0  0  0  0  0  0  0  0
   -3.9107    0.1797    0.6200 H   0  0  0  0  0  0  0  0  0  0  0  0
   -3.3213   -0.9119   -0.6450 H   0  0  0  0  0  0  0  0  0  0  0  0
   -2.1097    1.5096    0.3543 H   0  0  0  0  0  0  0  0  0  0  0  0
   -2.6193    0.9481   -1.9115 H   0  0  0  0  0  0  0  0  0  0  0  0
   -0.8712    1.3952   -1.6486 H   0  0  0  0  0  0  0  0  0  0  0  0
   -1.3871   -0.3480   -1.9725 H   0  0  0  0  0  0  0  0  0  0  0  0
   -0.4443    0.4706    1.7129 H   0  0  0  0  0  0  0  0  0  0  0  0
    0.5583   -1.7865    1.3025 H   0  0  0  0  0  0  0  0  0  0  0  0
   -0.5181   -2.0324   -0.1713 H   0  0  0  0  0  0  0  0  0  0  0  0
    0.5305   -0.0441   -1.2762 H   0  0  0  0  0  0  0  0  0  0  0  0
    1.6331    1.5352    0.8210 H   0  0  0  0  0  0  0  0  0  0  0  0
    3.2612   -0.2671   -1.2295 H   0  0  0  0  0  0  0  0  0  0  0  0
    3.7122    1.3924   -0.5349 H   0  0  0  0  0  0  0  0  0  0  0  0
    3.0467   -1.2827    1.0439 H   0  0  0  0  0  0  0  0  0  0  0  0
    3.5961    0.3291    1.7684 H   0  0  0  0  0  0  0  0  0  0  0  0
  1  2  1  0
  2  3  1  0
  2  4  1  0
  4  5  1  0
  5  6  1  0
  6  7  1  0
  7  8  1  0
  8  9  1  0
  6  4  1  0
  9  7  1  0
  1 10  1  0
  1 11  1  0
  1 12  1  0
  2 13  1  0
  3 14  1  0
  3 15  1  0
  3 16  1  0
  4 17  1  0
  5 18  1  0
  5 19  1  0
  6 20  1  0
  7 21  1  0
  8 22  1  0
  8 23  1  0
  9 24  1  0
  9 25  1  0
M  END
