
     RDKit          3D

 25 24  0  0  0  0  0  0  0  0999 V2000
   -0.8471    1.4871    0.0914 C   0  0  0  0  0  0  0  0  0  0  0  0
   -1.0850    0.0071    0.0896 C   0  0  0  0  0  0  0  0  0  0  0  0
   -2.3231   -0.2330    0.9954 C   0  0  0  0  0  0  0  0  0  0  0  0
   -1.4928   -0.3602   -1.3362 C   0  0  0  0  0  0  0  0  0  0  0  0
   -0.0383   -0.8653    0.6364 C   0  0  0  0  0  0  0  0  0  0  0  0
    1.3073   -0.9414    0.0603 C   0  0  0  0  0  0  0  0  0  0  0  0
    2.0336    0.3718    0.0842 C   0  0  0  0  0  0  0  0  0  0  0  0
    3.4239    0.2324   -0.4569 C   0  0  0  0  0  0  0  0  0  0  0  0
    3.5830    0.1593   -1.6413 O   0  0  0  0  0  0  0  0  0  0  0  0
   -1.8415    1.9779    0.4036 H   0  0  0  0  0  0  0  0  0  0  0  0
   -0.1453    1.8075    0.8801 H   0  0  0  0  0  0  0  0  0  0  0  0
   -0.6465    1.9156   -0.9171 H   0  0  0  0  0  0  0  0  0  0  0  0
   -3.1550    0.2207    0.4503 H   0  0  0  0  0  0  0  0  0  0  0  0
   -2.4207   -1.2968    1.2186 H   0  0  0  0  0  0  0  0  0  0  0  0
   -2.0596    0.3279    1.9378 H   0  0  0  0  0  0  0  0  0  0  0  0
   -2.5417    0.0220   -1.4468 H   0  0  0  0  0  0  0  0  0  0  0  0
   -1.4535   -1.4402   -1.5175 H   0  0  0  0  0  0  0  0  0  0  0  0
   -0.8834    0.1843   -2.0723 H   0  0  0  0  0  0  0  0  0  0  0  0
   -0.4148   -1.9503    0.6954 H   0  0  0  0  0  0  0  0  0  0  0  0
   -0.0028   -0.6124    1.7583 H   0  0  0  0  0  0  0  0  0  0  0  0
    1.3319   -1.3997   -0.9643 H   0  0  0  0  0  0  0  0  0  0  0  0
    1.9847   -1.6471    0.6470 H   0  0  0  0  0  0  0  0  0  0  0  0
    1.4491    1.0433   -0.6126 H   0  0  0  0  0  0  0  0  0  0  0  0
    2.0013    0.7880    1.1005 H   0  0  0  0  0  0  0  0  0  0  0  0
    4.2361    0.2016    0.2308 H   0  0  0  0  0  0  0  0  0  0  0  0
  1  2  1  0
  2  3  1  0
  2  4  1  0
  2  5  1  0
  5  6  1  0
  6  7  1  0
  7  8  1  0
  8  9  2  0
  1 10  1  0
  1 11  1  0
  1 12  1  0
  3 13  1  0
  3 14  1  0
  3 15  1  0
  4 16  1  0
  4 17  1  0
  4 18  1  0
  5 19  1  0
  5 20  1  0
  6 21  1  0
  6 22  1  0
  7 23  1  0
  7 24  1  0
  8 25  1  0
M  END
