
     RDKit          3D

 23 23  0  0  0  0  0  0  0  0999 V2000
   -2.1142    0.4504   -1.0323 C   0  0  0  0  0  0  0  0  0  0  0  0
   -1.3859    0.3456    0.3120 C   0  0  0  0  0  0  0  0  0  0  0  0
   -1.8827   -0.8853    1.0108 C   0  0  0  0  0  0  0  0  0  0  0  0
    0.0640    0.3121    0.0386 C   0  0  0  0  0  0  0  0  0  0  0  0
    0.8868    1.2353    0.5395 C   0  0  0  0  0  0  0  0  0  0  0  0
    2.3271    1.1862    0.2568 C   0  0  0  0  0  0  0  0  0  0  0  0
    2.8652   -0.0536    0.0929 O   0  0  0  0  0  0  0  0  0  0  0  0
    2.0064   -1.0980   -0.0889 C   0  0  0  0  0  0  0  0  0  0  0  0
    0.7218   -0.7375   -0.8050 C   0  0  0  0  0  0  0  0  0  0  0  0
   -3.1674    0.2028   -0.8204 H   0  0  0  0  0  0  0  0  0  0  0  0
   -1.6738   -0.2174   -1.7797 H   0  0  0  0  0  0  0  0  0  0  0  0
   -2.0624    1.5240   -1.3214 H   0  0  0  0  0  0  0  0  0  0  0  0
   -1.6113    1.2566    0.8892 H   0  0  0  0  0  0  0  0  0  0  0  0
   -2.2267   -1.6515    0.2644 H   0  0  0  0  0  0  0  0  0  0  0  0
   -2.7895   -0.5942    1.5877 H   0  0  0  0  0  0  0  0  0  0  0  0
   -1.1654   -1.2980    1.7402 H   0  0  0  0  0  0  0  0  0  0  0  0
    0.4218    2.0045    1.1556 H   0  0  0  0  0  0  0  0  0  0  0  0
    2.8440    1.7448    1.0856 H   0  0  0  0  0  0  0  0  0  0  0  0
    2.5747    1.7860   -0.6654 H   0  0  0  0  0  0  0  0  0  0  0  0
    2.5150   -1.8575   -0.7415 H   0  0  0  0  0  0  0  0  0  0  0  0
    1.8005   -1.6557    0.8707 H   0  0  0  0  0  0  0  0  0  0  0  0
    0.9845   -0.3785   -1.8028 H   0  0  0  0  0  0  0  0  0  0  0  0
    0.0674   -1.6210   -0.7870 H   0  0  0  0  0  0  0  0  0  0  0  0
  1  2  1  0
  2  3  1  0
  2  4  1  0
  4  5  2  0
  5  6  1  0
  6  7  1  0
  7  8  1  0
  8  9  1  0
  9  4  1  0
  1 10  1  0
  1 11  1  0
  1 12  1  0
  2 13  1  0
  3 14  1  0
  3 15  1  0
  3 16  1  0
  5 17  1  0
  6 18  1  0
  6 19  1  0
  8 20  1  0
  8 21  1  0
  9 22  1  0
  9 23  1  0
M  END
