
     RDKit          3D

 21 20  0  0  0  0  0  0  0  0999 V2000
   -2.5074   -0.9386    0.7901 C   0  0  0  0  0  0  0  0  0  0  0  0
   -1.6337    0.1243    0.1808 C   0  0  0  0  0  0  0  0  0  0  0  0
   -2.4337    0.7532   -0.9488 C   0  0  0  0  0  0  0  0  0  0  0  0
   -0.4517   -0.3296   -0.3167 O   0  0  0  0  0  0  0  0  0  0  0  0
    0.6781    0.1991    0.2454 C   0  0  0  0  0  0  0  0  0  0  0  0
    1.8838   -0.3844   -0.3919 C   0  0  0  0  0  0  0  0  0  0  0  0
    1.7557   -1.2088   -1.2798 O   0  0  0  0  0  0  0  0  0  0  0  0
    3.2351    0.0708    0.0894 C   0  0  0  0  0  0  0  0  0  0  0  0
    4.2543   -0.5510   -0.5877 O   0  0  0  0  0  0  0  0  0  0  0  0
   -2.9363   -1.5958   -0.0023 H   0  0  0  0  0  0  0  0  0  0  0  0
   -1.9904   -1.5656    1.5343 H   0  0  0  0  0  0  0  0  0  0  0  0
   -3.3323   -0.4223    1.3233 H   0  0  0  0  0  0  0  0  0  0  0  0
   -1.4108    0.8702    0.9833 H   0  0  0  0  0  0  0  0  0  0  0  0
   -3.5316    0.6906   -0.7087 H   0  0  0  0  0  0  0  0  0  0  0  0
   -2.1609    1.8082   -1.0801 H   0  0  0  0  0  0  0  0  0  0  0  0
   -2.2931    0.1554   -1.8753 H   0  0  0  0  0  0  0  0  0  0  0  0
    0.6508   -0.0594    1.3454 H   0  0  0  0  0  0  0  0  0  0  0  0
    0.6873    1.3083    0.1121 H   0  0  0  0  0  0  0  0  0  0  0  0
    3.2632   -0.1517    1.1877 H   0  0  0  0  0  0  0  0  0  0  0  0
    3.2340    1.1750   -0.0106 H   0  0  0  0  0  0  0  0  0  0  0  0
    5.0397    0.0523   -0.5899 H   0  0  0  0  0  0  0  0  0  0  0  0
  1  2  1  0
  2  3  1  0
  2  4  1  0
  4  5  1  0
  5  6  1  0
  6  7  2  0
  6  8  1  0
  8  9  1  0
  1 10  1  0
  1 11  1  0
  1 12  1  0
  2 13  1  0
  3 14  1  0
  3 15  1  0
  3 16  1  0
  5 17  1  0
  5 18  1  0
  8 19  1  0
  8 20  1  0
  9 21  1  0
M  END
