
     RDKit          3D

 20 20  0  0  0  0  0  0  0  0999 V2000
   -1.7420    0.7784    0.8257 C   0  0  0  0  0  0  0  0  0  0  0  0
   -0.7840   -0.2520    0.2794 C   0  0  0  0  0  0  0  0  0  0  0  0
   -1.5131   -1.0670   -0.7576 C   0  0  0  0  0  0  0  0  0  0  0  0
    0.4024    0.4721   -0.2573 C   0  0  0  0  0  0  0  0  0  0  0  0
    1.5487   -0.2280   -0.8723 C   0  0  0  0  0  0  0  0  0  0  0  0
    1.5950   -1.6124   -0.9733 O   0  0  0  0  0  0  0  0  0  0  0  0
    1.6641    0.3412    0.5620 C   0  0  0  0  0  0  0  0  0  0  0  0
    2.4794    1.4471    0.7414 O   0  0  0  0  0  0  0  0  0  0  0  0
   -1.6129    1.7789    0.3590 H   0  0  0  0  0  0  0  0  0  0  0  0
   -2.8020    0.4974    0.6780 H   0  0  0  0  0  0  0  0  0  0  0  0
   -1.5466    0.9200    1.9112 H   0  0  0  0  0  0  0  0  0  0  0  0
   -0.5232   -0.9646    1.1133 H   0  0  0  0  0  0  0  0  0  0  0  0
   -2.2316   -1.7218   -0.2147 H   0  0  0  0  0  0  0  0  0  0  0  0
   -2.1588   -0.4081   -1.4016 H   0  0  0  0  0  0  0  0  0  0  0  0
   -0.8635   -1.7195   -1.3510 H   0  0  0  0  0  0  0  0  0  0  0  0
    0.1611    1.4929   -0.6660 H   0  0  0  0  0  0  0  0  0  0  0  0
    2.1019    0.3247   -1.6582 H   0  0  0  0  0  0  0  0  0  0  0  0
    2.0801   -1.9801   -0.1690 H   0  0  0  0  0  0  0  0  0  0  0  0
    1.7084   -0.4021    1.3792 H   0  0  0  0  0  0  0  0  0  0  0  0
    2.0364    2.3028    0.4719 H   0  0  0  0  0  0  0  0  0  0  0  0
  1  2  1  0
  2  3  1  0
  2  4  1  0
  4  5  1  0
  5  6  1  0
  5  7  1  0
  7  8  1  0
  7  4  1  0
  1  9  1  0
  1 10  1  0
  1 11  1  0
  2 12  1  0
  3 13  1  0
  3 14  1  0
  3 15  1  0
  4 16  1  0
  5 17  1  0
  6 18  1  0
  7 19  1  0
  8 20  1  0
M  END
