
     RDKit          3D

 15 14  0  0  0  0  0  0  0  0999 V2000
   -1.0104   -0.3874    0.9360 C   0  0  0  0  0  0  0  0  0  0  0  0
    0.0973    0.1424    0.0368 C   0  0  0  0  0  0  0  0  0  0  0  0
   -0.0458   -0.6230   -1.2862 C   0  0  0  0  0  0  0  0  0  0  0  0
    0.0239    1.5955   -0.1577 C   0  0  0  0  0  0  0  0  0  0  0  0
   -0.9195    2.0748   -0.7562 O   0  0  0  0  0  0  0  0  0  0  0  0
    1.3804   -0.2820    0.6295 C   0  0  0  0  0  0  0  0  0  0  0  0
    2.2912    0.5017    0.7320 O   0  0  0  0  0  0  0  0  0  0  0  0
   -0.9427   -1.4959    0.8799 H   0  0  0  0  0  0  0  0  0  0  0  0
   -1.9796   -0.0112    0.5184 H   0  0  0  0  0  0  0  0  0  0  0  0
   -0.8595   -0.0110    1.9462 H   0  0  0  0  0  0  0  0  0  0  0  0
    0.6745   -0.2634   -2.0311 H   0  0  0  0  0  0  0  0  0  0  0  0
   -1.1021   -0.5373   -1.6136 H   0  0  0  0  0  0  0  0  0  0  0  0
    0.1031   -1.6920   -1.0175 H   0  0  0  0  0  0  0  0  0  0  0  0
    0.7831    2.2811    0.2120 H   0  0  0  0  0  0  0  0  0  0  0  0
    1.5060   -1.2923    0.9715 H   0  0  0  0  0  0  0  0  0  0  0  0
  1  2  1  0
  2  3  1  0
  2  4  1  0
  4  5  2  0
  2  6  1  0
  6  7  2  0
  1  8  1  0
  1  9  1  0
  1 10  1  0
  3 11  1  0
  3 12  1  0
  3 13  1  0
  4 14  1  0
  6 15  1  0
M  END
