
     RDKit          3D

 21 21  0  0  0  0  0  0  0  0999 V2000
    1.6991    0.9739    0.4675 C   0  0  0  0  0  0  0  0  0  0  0  0
    1.1998    0.1728   -0.7013 C   0  0  0  0  0  0  0  0  0  0  0  0
    2.3181   -0.7654   -1.0889 C   0  0  0  0  0  0  0  0  0  0  0  0
    2.5001   -1.7130   -0.3572 O   0  0  0  0  0  0  0  0  0  0  0  0
    0.0156   -0.6451   -0.3559 C   0  0  0  0  0  0  0  0  0  0  0  0
   -1.2251    0.0122    0.0874 C   0  0  0  0  0  0  0  0  0  0  0  0
   -2.3277   -1.0436    0.4067 C   0  0  0  0  0  0  0  0  0  0  0  0
   -1.4324    1.3003    0.6588 C   0  0  0  0  0  0  0  0  0  0  0  0
   -1.7046    1.0670   -0.7191 O   0  0  0  0  0  0  0  0  0  0  0  0
    1.2198    0.6455    1.3869 H   0  0  0  0  0  0  0  0  0  0  0  0
    2.8047    0.7883    0.6272 H   0  0  0  0  0  0  0  0  0  0  0  0
    1.6417    2.0696    0.3392 H   0  0  0  0  0  0  0  0  0  0  0  0
    1.0262    0.8384   -1.5897 H   0  0  0  0  0  0  0  0  0  0  0  0
    2.9377   -0.6404   -1.9485 H   0  0  0  0  0  0  0  0  0  0  0  0
    0.2775   -1.4018    0.4528 H   0  0  0  0  0  0  0  0  0  0  0  0
   -0.2562   -1.2995   -1.2497 H   0  0  0  0  0  0  0  0  0  0  0  0
   -2.0740   -1.4692    1.3963 H   0  0  0  0  0  0  0  0  0  0  0  0
   -2.2933   -1.8338   -0.3720 H   0  0  0  0  0  0  0  0  0  0  0  0
   -3.2987   -0.5554    0.4838 H   0  0  0  0  0  0  0  0  0  0  0  0
   -2.4104    1.5060    1.1871 H   0  0  0  0  0  0  0  0  0  0  0  0
   -0.6177    1.9933    0.8888 H   0  0  0  0  0  0  0  0  0  0  0  0
  1  2  1  0
  2  3  1  0
  3  4  2  0
  2  5  1  0
  5  6  1  0
  6  7  1  0
  6  8  1  0
  8  9  1  0
  9  6  1  0
  1 10  1  0
  1 11  1  0
  1 12  1  0
  2 13  1  0
  3 14  1  0
  5 15  1  0
  5 16  1  0
  7 17  1  0
  7 18  1  0
  7 19  1  0
  8 20  1  0
  8 21  1  0
M  END
