
     RDKit          3D

 23 22  0  0  0  0  0  0  0  0999 V2000
   -1.6624    0.0150   -1.0706 C   0  0  0  0  0  0  0  0  0  0  0  0
   -1.0325   -0.1077    0.2840 C   0  0  0  0  0  0  0  0  0  0  0  0
   -1.2289    1.2293    0.9918 C   0  0  0  0  0  0  0  0  0  0  0  0
   -1.8149   -1.1122    1.0509 C   0  0  0  0  0  0  0  0  0  0  0  0
   -2.6485   -0.8017    1.8970 O   0  0  0  0  0  0  0  0  0  0  0  0
    0.4228   -0.4961    0.2388 C   0  0  0  0  0  0  0  0  0  0  0  0
    1.2614    0.4995   -0.5082 C   0  0  0  0  0  0  0  0  0  0  0  0
    2.7026   -0.0169   -0.4740 C   0  0  0  0  0  0  0  0  0  0  0  0
    2.8224   -1.2501   -1.0627 O   0  0  0  0  0  0  0  0  0  0  0  0
   -2.1974   -0.9329   -1.3719 H   0  0  0  0  0  0  0  0  0  0  0  0
   -0.9943    0.3504   -1.8690 H   0  0  0  0  0  0  0  0  0  0  0  0
   -2.4939    0.7786   -1.0213 H   0  0  0  0  0  0  0  0  0  0  0  0
   -0.9337    2.0252    0.2799 H   0  0  0  0  0  0  0  0  0  0  0  0
   -0.6750    1.2339    1.9314 H   0  0  0  0  0  0  0  0  0  0  0  0
   -2.3154    1.2795    1.2399 H   0  0  0  0  0  0  0  0  0  0  0  0
   -1.6542   -2.1528    0.8672 H   0  0  0  0  0  0  0  0  0  0  0  0
    0.8056   -0.5369    1.2793 H   0  0  0  0  0  0  0  0  0  0  0  0
    0.5103   -1.4833   -0.2179 H   0  0  0  0  0  0  0  0  0  0  0  0
    0.9974    0.6309   -1.5586 H   0  0  0  0  0  0  0  0  0  0  0  0
    1.2915    1.4929   -0.0292 H   0  0  0  0  0  0  0  0  0  0  0  0
    3.3981    0.7493   -0.8825 H   0  0  0  0  0  0  0  0  0  0  0  0
    2.9684   -0.1258    0.5977 H   0  0  0  0  0  0  0  0  0  0  0  0
    2.4708   -1.2681   -1.9996 H   0  0  0  0  0  0  0  0  0  0  0  0
  1  2  1  0
  2  3  1  0
  2  4  1  0
  4  5  2  0
  2  6  1  0
  6  7  1  0
  7  8  1  0
  8  9  1  0
  1 10  1  0
  1 11  1  0
  1 12  1  0
  3 13  1  0
  3 14  1  0
  3 15  1  0
  4 16  1  0
  6 17  1  0
  6 18  1  0
  7 19  1  0
  7 20  1  0
  8 21  1  0
  8 22  1  0
  9 23  1  0
M  END
