
     RDKit          3D

 27 27  0  0  0  0  0  0  0  0999 V2000
   -2.7835    1.6479   -0.0800 C   0  0  0  0  0  0  0  0  0  0  0  0
   -2.0612    0.3821   -0.4879 C   0  0  0  0  0  0  0  0  0  0  0  0
   -2.7056   -0.7724    0.2436 C   0  0  0  0  0  0  0  0  0  0  0  0
   -0.6007    0.4302   -0.0742 C   0  0  0  0  0  0  0  0  0  0  0  0
    0.0259   -0.8487   -0.5138 C   0  0  0  0  0  0  0  0  0  0  0  0
    1.4679   -0.9911   -0.1955 C   0  0  0  0  0  0  0  0  0  0  0  0
    1.9133   -0.9447    1.2107 C   0  0  0  0  0  0  0  0  0  0  0  0
    2.2332    0.2028    0.2399 C   0  0  0  0  0  0  0  0  0  0  0  0
    3.7062    0.3283   -0.0712 C   0  0  0  0  0  0  0  0  0  0  0  0
   -2.3107    2.5523   -0.4857 H   0  0  0  0  0  0  0  0  0  0  0  0
   -2.8941    1.6331    1.0078 H   0  0  0  0  0  0  0  0  0  0  0  0
   -3.8188    1.5596   -0.5101 H   0  0  0  0  0  0  0  0  0  0  0  0
   -2.1655    0.2236   -1.5778 H   0  0  0  0  0  0  0  0  0  0  0  0
   -2.6040   -1.7165   -0.3496 H   0  0  0  0  0  0  0  0  0  0  0  0
   -3.7747   -0.5186    0.3933 H   0  0  0  0  0  0  0  0  0  0  0  0
   -2.1901   -0.8491    1.2325 H   0  0  0  0  0  0  0  0  0  0  0  0
   -0.1122    1.2968   -0.5659 H   0  0  0  0  0  0  0  0  0  0  0  0
   -0.5750    0.5988    1.0120 H   0  0  0  0  0  0  0  0  0  0  0  0
   -0.1054   -0.9332   -1.6132 H   0  0  0  0  0  0  0  0  0  0  0  0
   -0.5734   -1.7006   -0.0841 H   0  0  0  0  0  0  0  0  0  0  0  0
    2.0264   -1.6758   -0.8760 H   0  0  0  0  0  0  0  0  0  0  0  0
    1.2527   -0.6313    2.0349 H   0  0  0  0  0  0  0  0  0  0  0  0
    2.7250   -1.6145    1.5108 H   0  0  0  0  0  0  0  0  0  0  0  0
    1.7074    1.1455    0.3443 H   0  0  0  0  0  0  0  0  0  0  0  0
    4.2887   -0.5544    0.2561 H   0  0  0  0  0  0  0  0  0  0  0  0
    3.8495    0.5197   -1.1627 H   0  0  0  0  0  0  0  0  0  0  0  0
    4.0788    1.2303    0.4550 H   0  0  0  0  0  0  0  0  0  0  0  0
  1  2  1  0
  2  3  1  0
  2  4  1  0
  4  5  1  0
  5  6  1  0
  6  7  1  0
  7  8  1  0
  8  9  1  0
  8  6  1  0
  1 10  1  0
  1 11  1  0
  1 12  1  0
  2 13  1  0
  3 14  1  0
  3 15  1  0
  3 16  1  0
  4 17  1  0
  4 18  1  0
  5 19  1  0
  5 20  1  0
  6 21  1  0
  7 22  1  0
  7 23  1  0
  8 24  1  0
  9 25  1  0
  9 26  1  0
  9 27  1  0
M  END
