
     RDKit          3D

 23 23  0  0  0  0  0  0  0  0999 V2000
   -2.1028   -1.1951    0.8369 C   0  0  0  0  0  0  0  0  0  0  0  0
   -1.2335    0.0393    0.7371 C   0  0  0  0  0  0  0  0  0  0  0  0
   -2.0916    1.1036    0.0763 C   0  0  0  0  0  0  0  0  0  0  0  0
    0.0047   -0.2067   -0.0927 C   0  0  0  0  0  0  0  0  0  0  0  0
    0.9119    0.9952   -0.2264 C   0  0  0  0  0  0  0  0  0  0  0  0
    1.9790    0.2786    0.5721 C   0  0  0  0  0  0  0  0  0  0  0  0
    3.2332    0.0131   -0.1472 C   0  0  0  0  0  0  0  0  0  0  0  0
    3.2214   -0.3093   -1.3116 O   0  0  0  0  0  0  0  0  0  0  0  0
    1.0988   -0.9702    0.5436 C   0  0  0  0  0  0  0  0  0  0  0  0
   -1.6374   -2.0148    1.3855 H   0  0  0  0  0  0  0  0  0  0  0  0
   -2.4709   -1.5010   -0.1777 H   0  0  0  0  0  0  0  0  0  0  0  0
   -3.0065   -0.8915    1.4198 H   0  0  0  0  0  0  0  0  0  0  0  0
   -0.9859    0.3596    1.7663 H   0  0  0  0  0  0  0  0  0  0  0  0
   -2.4383    0.7262   -0.9082 H   0  0  0  0  0  0  0  0  0  0  0  0
   -1.5857    2.0783    0.0132 H   0  0  0  0  0  0  0  0  0  0  0  0
   -3.0034    1.2099    0.7061 H   0  0  0  0  0  0  0  0  0  0  0  0
   -0.3125   -0.5423   -1.1135 H   0  0  0  0  0  0  0  0  0  0  0  0
    1.2759    1.2088   -1.2400 H   0  0  0  0  0  0  0  0  0  0  0  0
    0.4610    1.8757    0.2871 H   0  0  0  0  0  0  0  0  0  0  0  0
    2.0718    0.7426    1.5617 H   0  0  0  0  0  0  0  0  0  0  0  0
    4.1725    0.1055    0.3639 H   0  0  0  0  0  0  0  0  0  0  0  0
    1.4696   -1.7754   -0.1212 H   0  0  0  0  0  0  0  0  0  0  0  0
    0.9687   -1.3299    1.5705 H   0  0  0  0  0  0  0  0  0  0  0  0
  1  2  1  0
  2  3  1  0
  2  4  1  0
  4  5  1  0
  5  6  1  0
  6  7  1  0
  7  8  2  0
  6  9  1  0
  9  4  1  0
  1 10  1  0
  1 11  1  0
  1 12  1  0
  2 13  1  0
  3 14  1  0
  3 15  1  0
  3 16  1  0
  4 17  1  0
  5 18  1  0
  5 19  1  0
  6 20  1  0
  7 21  1  0
  9 22  1  0
  9 23  1  0
M  END
