
     RDKit          3D

 25 26  0  0  0  0  0  0  0  0999 V2000
    1.6024    0.9886    1.1051 C   0  0  0  0  0  0  0  0  0  0  0  0
    1.1067   -0.1589    0.2604 C   0  0  0  0  0  0  0  0  0  0  0  0
    2.2848   -0.7573   -0.5219 C   0  0  0  0  0  0  0  0  0  0  0  0
    0.0539    0.2282   -0.7155 C   0  0  0  0  0  0  0  0  0  0  0  0
   -1.2269    0.7953   -0.2520 C   0  0  0  0  0  0  0  0  0  0  0  0
   -1.3567    1.3111    1.1448 C   0  0  0  0  0  0  0  0  0  0  0  0
   -1.9855   -0.4639   -0.5592 C   0  0  0  0  0  0  0  0  0  0  0  0
   -1.4395   -1.8013   -0.3219 C   0  0  0  0  0  0  0  0  0  0  0  0
   -0.6968   -0.9592   -1.2507 C   0  0  0  0  0  0  0  0  0  0  0  0
    2.6846    1.1959    0.8404 H   0  0  0  0  0  0  0  0  0  0  0  0
    1.5876    0.6527    2.1703 H   0  0  0  0  0  0  0  0  0  0  0  0
    1.0848    1.9423    0.9297 H   0  0  0  0  0  0  0  0  0  0  0  0
    0.6666   -0.9636    0.9121 H   0  0  0  0  0  0  0  0  0  0  0  0
    3.1836   -0.1197   -0.4386 H   0  0  0  0  0  0  0  0  0  0  0  0
    2.5731   -1.7521   -0.0888 H   0  0  0  0  0  0  0  0  0  0  0  0
    2.0457   -0.8391   -1.6011 H   0  0  0  0  0  0  0  0  0  0  0  0
    0.5370    0.8217   -1.5554 H   0  0  0  0  0  0  0  0  0  0  0  0
   -1.5649    1.6137   -0.9582 H   0  0  0  0  0  0  0  0  0  0  0  0
   -1.2342    2.4274    1.1623 H   0  0  0  0  0  0  0  0  0  0  0  0
   -0.7753    0.7940    1.9039 H   0  0  0  0  0  0  0  0  0  0  0  0
   -2.4366    1.1843    1.4718 H   0  0  0  0  0  0  0  0  0  0  0  0
   -2.8956   -0.3748   -1.1682 H   0  0  0  0  0  0  0  0  0  0  0  0
   -1.0209   -2.0729    0.6600 H   0  0  0  0  0  0  0  0  0  0  0  0
   -2.0015   -2.6533   -0.7791 H   0  0  0  0  0  0  0  0  0  0  0  0
   -0.7766   -1.0391   -2.3505 H   0  0  0  0  0  0  0  0  0  0  0  0
  1  2  1  0
  2  3  1  0
  2  4  1  0
  4  5  1  0
  5  6  1  0
  5  7  1  0
  7  8  1  0
  8  9  1  0
  9  4  1  0
  9  7  1  0
  1 10  1  0
  1 11  1  0
  1 12  1  0
  2 13  1  0
  3 14  1  0
  3 15  1  0
  3 16  1  0
  4 17  1  0
  5 18  1  0
  6 19  1  0
  6 20  1  0
  6 21  1  0
  7 22  1  0
  8 23  1  0
  8 24  1  0
  9 25  1  0
M  END
