
     RDKit          3D

 19 18  0  0  0  0  0  0  0  0999 V2000
   -2.4124    0.5335   -0.3239 C   0  0  0  0  0  0  0  0  0  0  0  0
   -1.5574    0.1550    0.8679 C   0  0  0  0  0  0  0  0  0  0  0  0
   -1.7990   -1.2634    1.2990 C   0  0  0  0  0  0  0  0  0  0  0  0
   -0.1582    0.3299    0.4409 C   0  0  0  0  0  0  0  0  0  0  0  0
    0.9831    0.4799    0.0741 C   0  0  0  0  0  0  0  0  0  0  0  0
    2.3854    0.6799   -0.3558 C   0  0  0  0  0  0  0  0  0  0  0  0
    2.3271    1.5245   -1.4636 O   0  0  0  0  0  0  0  0  0  0  0  0
    2.9892   -0.6064   -0.8062 C   0  0  0  0  0  0  0  0  0  0  0  0
    3.3468   -0.8192   -1.9506 O   0  0  0  0  0  0  0  0  0  0  0  0
   -3.4902    0.4280   -0.0817 H   0  0  0  0  0  0  0  0  0  0  0  0
   -2.1401   -0.1181   -1.1972 H   0  0  0  0  0  0  0  0  0  0  0  0
   -2.2206    1.5604   -0.6178 H   0  0  0  0  0  0  0  0  0  0  0  0
   -1.8275    0.8509    1.6816 H   0  0  0  0  0  0  0  0  0  0  0  0
   -2.1229   -1.8568    0.4027 H   0  0  0  0  0  0  0  0  0  0  0  0
   -0.8720   -1.7474    1.6775 H   0  0  0  0  0  0  0  0  0  0  0  0
   -2.6267   -1.3204    2.0427 H   0  0  0  0  0  0  0  0  0  0  0  0
    2.9766    1.1538    0.4672 H   0  0  0  0  0  0  0  0  0  0  0  0
    3.0902    1.4492   -2.0619 H   0  0  0  0  0  0  0  0  0  0  0  0
    3.1286   -1.4134   -0.0950 H   0  0  0  0  0  0  0  0  0  0  0  0
  1  2  1  0
  2  3  1  0
  2  4  1  0
  4  5  3  0
  5  6  1  0
  6  7  1  0
  6  8  1  0
  8  9  2  0
  1 10  1  0
  1 11  1  0
  1 12  1  0
  2 13  1  0
  3 14  1  0
  3 15  1  0
  3 16  1  0
  6 17  1  0
  7 18  1  0
  8 19  1  0
M  END
