
     RDKit          3D

 23 22  0  0  0  0  0  0  0  0999 V2000
   -2.0339    0.1680    1.2851 C   0  0  0  0  0  0  0  0  0  0  0  0
   -1.0207    0.0343    0.1655 C   0  0  0  0  0  0  0  0  0  0  0  0
   -1.2317    1.2343   -0.7491 C   0  0  0  0  0  0  0  0  0  0  0  0
   -1.3072   -1.2032   -0.6396 C   0  0  0  0  0  0  0  0  0  0  0  0
    0.3426    0.0354    0.7837 C   0  0  0  0  0  0  0  0  0  0  0  0
    1.4499   -0.0935   -0.2382 C   0  0  0  0  0  0  0  0  0  0  0  0
    2.6827   -0.0792    0.4755 O   0  0  0  0  0  0  0  0  0  0  0  0
    3.8780   -0.1826   -0.2077 C   0  0  0  0  0  0  0  0  0  0  0  0
    3.8359   -0.2873   -1.4552 O   0  0  0  0  0  0  0  0  0  0  0  0
   -2.9911    0.4518    0.8252 H   0  0  0  0  0  0  0  0  0  0  0  0
   -2.0721   -0.8077    1.8175 H   0  0  0  0  0  0  0  0  0  0  0  0
   -1.6352    0.9430    1.9770 H   0  0  0  0  0  0  0  0  0  0  0  0
   -2.3513    1.3255   -0.8691 H   0  0  0  0  0  0  0  0  0  0  0  0
   -0.8752    2.1568   -0.2563 H   0  0  0  0  0  0  0  0  0  0  0  0
   -0.8105    1.0867   -1.7471 H   0  0  0  0  0  0  0  0  0  0  0  0
   -1.2617   -2.1317   -0.0655 H   0  0  0  0  0  0  0  0  0  0  0  0
   -0.6551   -1.2003   -1.5431 H   0  0  0  0  0  0  0  0  0  0  0  0
   -2.3526   -1.0885   -1.0333 H   0  0  0  0  0  0  0  0  0  0  0  0
    0.4439    0.9713    1.3698 H   0  0  0  0  0  0  0  0  0  0  0  0
    0.4033   -0.7968    1.4912 H   0  0  0  0  0  0  0  0  0  0  0  0
    1.3684   -1.0698   -0.7569 H   0  0  0  0  0  0  0  0  0  0  0  0
    1.3810    0.7030   -0.9876 H   0  0  0  0  0  0  0  0  0  0  0  0
    4.8126   -0.1696    0.3582 H   0  0  0  0  0  0  0  0  0  0  0  0
  1  2  1  0
  2  3  1  0
  2  4  1  0
  2  5  1  0
  5  6  1  0
  6  7  1  0
  7  8  1  0
  8  9  2  0
  1 10  1  0
  1 11  1  0
  1 12  1  0
  3 13  1  0
  3 14  1  0
  3 15  1  0
  4 16  1  0
  4 17  1  0
  4 18  1  0
  5 19  1  0
  5 20  1  0
  6 21  1  0
  6 22  1  0
  8 23  1  0
M  END
