
     RDKit          3D

 21 21  0  0  0  0  0  0  0  0999 V2000
   -1.5389   -1.3993   -0.0802 C   0  0  0  0  0  0  0  0  0  0  0  0
   -0.8633   -0.0970   -0.4725 C   0  0  0  0  0  0  0  0  0  0  0  0
   -1.6037    1.0992    0.1114 C   0  0  0  0  0  0  0  0  0  0  0  0
   -2.9106    1.1473   -0.3406 O   0  0  0  0  0  0  0  0  0  0  0  0
    0.5598   -0.0755   -0.0359 C   0  0  0  0  0  0  0  0  0  0  0  0
    1.5805   -0.0106   -0.8962 C   0  0  0  0  0  0  0  0  0  0  0  0
    2.8527   -0.0062   -0.1542 C   0  0  0  0  0  0  0  0  0  0  0  0
    2.4910   -0.3573    1.1150 O   0  0  0  0  0  0  0  0  0  0  0  0
    1.1551   -0.1150    1.2985 C   0  0  0  0  0  0  0  0  0  0  0  0
   -0.7934   -2.1168    0.3338 H   0  0  0  0  0  0  0  0  0  0  0  0
   -2.0059   -1.9070   -0.9560 H   0  0  0  0  0  0  0  0  0  0  0  0
   -2.3580   -1.2280    0.6535 H   0  0  0  0  0  0  0  0  0  0  0  0
   -0.9633   -0.0057   -1.5727 H   0  0  0  0  0  0  0  0  0  0  0  0
   -1.5890    1.0812    1.2223 H   0  0  0  0  0  0  0  0  0  0  0  0
   -1.0864    2.0026   -0.2217 H   0  0  0  0  0  0  0  0  0  0  0  0
   -3.0685    1.9018   -0.9874 H   0  0  0  0  0  0  0  0  0  0  0  0
    1.5109    0.0337   -1.9920 H   0  0  0  0  0  0  0  0  0  0  0  0
    3.4863   -0.8193   -0.5760 H   0  0  0  0  0  0  0  0  0  0  0  0
    3.3240    0.9937   -0.2463 H   0  0  0  0  0  0  0  0  0  0  0  0
    0.7594   -0.9621    1.9312 H   0  0  0  0  0  0  0  0  0  0  0  0
    1.0613    0.8402    1.8660 H   0  0  0  0  0  0  0  0  0  0  0  0
  1  2  1  0
  2  3  1  0
  3  4  1  0
  2  5  1  0
  5  6  2  0
  6  7  1  0
  7  8  1  0
  8  9  1  0
  9  5  1  0
  1 10  1  0
  1 11  1  0
  1 12  1  0
  2 13  1  0
  3 14  1  0
  3 15  1  0
  4 16  1  0
  6 17  1  0
  7 18  1  0
  7 19  1  0
  9 20  1  0
  9 21  1  0
M  END
