
     RDKit          3D

 21 22  0  0  0  0  0  0  0  0999 V2000
   -1.9280    0.6610   -0.6386 C   0  0  0  0  0  0  0  0  0  0  0  0
   -1.0378    0.1608    0.4940 C   0  0  0  0  0  0  0  0  0  0  0  0
   -1.6321   -1.1156    0.9755 C   0  0  0  0  0  0  0  0  0  0  0  0
   -2.7409   -1.5179    0.6846 O   0  0  0  0  0  0  0  0  0  0  0  0
    0.2721    0.0612    0.1251 C   0  0  0  0  0  0  0  0  0  0  0  0
    1.1684    1.1801   -0.3672 C   0  0  0  0  0  0  0  0  0  0  0  0
    2.0762   -0.0436   -0.3158 C   0  0  0  0  0  0  0  0  0  0  0  0
    0.9135   -0.7842   -0.9101 C   0  0  0  0  0  0  0  0  0  0  0  0
    1.4429   -0.3107    1.0164 C   0  0  0  0  0  0  0  0  0  0  0  0
   -1.2772    0.9072   -1.5264 H   0  0  0  0  0  0  0  0  0  0  0  0
   -2.4657    1.5807   -0.3996 H   0  0  0  0  0  0  0  0  0  0  0  0
   -2.6843   -0.0937   -0.9336 H   0  0  0  0  0  0  0  0  0  0  0  0
   -1.2153    0.8930    1.3381 H   0  0  0  0  0  0  0  0  0  0  0  0
   -1.0329   -1.7294    1.6322 H   0  0  0  0  0  0  0  0  0  0  0  0
    1.4111    1.9580    0.3746 H   0  0  0  0  0  0  0  0  0  0  0  0
    0.9897    1.5087   -1.3960 H   0  0  0  0  0  0  0  0  0  0  0  0
    3.0369   -0.0742   -0.5744 H   0  0  0  0  0  0  0  0  0  0  0  0
    0.7604   -0.5096   -1.9683 H   0  0  0  0  0  0  0  0  0  0  0  0
    0.8956   -1.8812   -0.7481 H   0  0  0  0  0  0  0  0  0  0  0  0
    1.4494   -1.3397    1.3721 H   0  0  0  0  0  0  0  0  0  0  0  0
    1.5981    0.4889    1.7656 H   0  0  0  0  0  0  0  0  0  0  0  0
  1  2  1  0
  2  3  1  0
  3  4  2  0
  2  5  1  0
  5  6  1  0
  6  7  1  0
  7  8  1  0
  7  9  1  0
  8  5  1  0
  9  5  1  0
  1 10  1  0
  1 11  1  0
  1 12  1  0
  2 13  1  0
  3 14  1  0
  6 15  1  0
  6 16  1  0
  7 17  1  0
  8 18  1  0
  8 19  1  0
  9 20  1  0
  9 21  1  0
M  END
