
     RDKit          3D

 23 23  0  0  0  0  0  0  0  0999 V2000
   -1.6161   -1.3276    0.3052 C   0  0  0  0  0  0  0  0  0  0  0  0
   -0.6656   -0.1091    0.2684 C   0  0  0  0  0  0  0  0  0  0  0  0
   -1.6600    1.0298   -0.0559 C   0  0  0  0  0  0  0  0  0  0  0  0
   -1.0396    2.2309   -0.1446 O   0  0  0  0  0  0  0  0  0  0  0  0
    0.2766   -0.2172   -0.8745 C   0  0  0  0  0  0  0  0  0  0  0  0
    1.0605   -1.5499   -0.7990 C   0  0  0  0  0  0  0  0  0  0  0  0
    1.3998    0.8090   -0.6914 C   0  0  0  0  0  0  0  0  0  0  0  0
    2.2708    0.7180    0.4611 C   0  0  0  0  0  0  0  0  0  0  0  0
    1.2401    1.6793    0.4479 O   0  0  0  0  0  0  0  0  0  0  0  0
   -1.0757   -2.2645    0.1852 H   0  0  0  0  0  0  0  0  0  0  0  0
   -2.3930   -1.2374   -0.4811 H   0  0  0  0  0  0  0  0  0  0  0  0
   -2.1429   -1.3085    1.2790 H   0  0  0  0  0  0  0  0  0  0  0  0
   -0.2420    0.1039    1.2444 H   0  0  0  0  0  0  0  0  0  0  0  0
   -2.0804    0.7216   -1.0593 H   0  0  0  0  0  0  0  0  0  0  0  0
   -2.4961    0.9940    0.6754 H   0  0  0  0  0  0  0  0  0  0  0  0
   -1.6128    2.9897    0.1262 H   0  0  0  0  0  0  0  0  0  0  0  0
   -0.1984   -0.1634   -1.8246 H   0  0  0  0  0  0  0  0  0  0  0  0
    0.4451   -2.3836   -1.1690 H   0  0  0  0  0  0  0  0  0  0  0  0
    1.9066   -1.4161   -1.5043 H   0  0  0  0  0  0  0  0  0  0  0  0
    1.4861   -1.7003    0.2014 H   0  0  0  0  0  0  0  0  0  0  0  0
    1.7404    1.2508   -1.6259 H   0  0  0  0  0  0  0  0  0  0  0  0
    2.1210   -0.0314    1.2605 H   0  0  0  0  0  0  0  0  0  0  0  0
    3.2758    1.1818    0.3896 H   0  0  0  0  0  0  0  0  0  0  0  0
  1  2  1  0
  2  3  1  0
  3  4  1  0
  2  5  1  0
  5  6  1  0
  5  7  1  0
  7  8  1  0
  8  9  1  0
  9  7  1  0
  1 10  1  0
  1 11  1  0
  1 12  1  0
  2 13  1  0
  3 14  1  0
  3 15  1  0
  4 16  1  0
  5 17  1  0
  6 18  1  0
  6 19  1  0
  6 20  1  0
  7 21  1  0
  8 22  1  0
  8 23  1  0
M  END
