
     RDKit          3D

 27 27  0  0  0  0  0  0  0  0999 V2000
   -1.5978    1.0808   -0.4314 C   0  0  0  0  0  0  0  0  0  0  0  0
   -0.9054   -0.2030    0.0535 C   0  0  0  0  0  0  0  0  0  0  0  0
   -1.5508   -0.5220    1.3962 C   0  0  0  0  0  0  0  0  0  0  0  0
   -1.2507   -1.2724   -0.9294 C   0  0  0  0  0  0  0  0  0  0  0  0
    0.5348    0.1204    0.1676 C   0  0  0  0  0  0  0  0  0  0  0  0
    0.7666    1.2421    1.1503 C   0  0  0  0  0  0  0  0  0  0  0  0
    1.1266    0.4321   -1.1930 C   0  0  0  0  0  0  0  0  0  0  0  0
    2.4380   -0.1561   -0.6513 C   0  0  0  0  0  0  0  0  0  0  0  0
    1.5200   -0.9866    0.2617 C   0  0  0  0  0  0  0  0  0  0  0  0
   -2.6901    0.8887   -0.4400 H   0  0  0  0  0  0  0  0  0  0  0  0
   -1.2379    1.3430   -1.4361 H   0  0  0  0  0  0  0  0  0  0  0  0
   -1.3585    1.8544    0.3209 H   0  0  0  0  0  0  0  0  0  0  0  0
   -1.7958    0.3996    1.9260 H   0  0  0  0  0  0  0  0  0  0  0  0
   -0.9830   -1.2628    1.9641 H   0  0  0  0  0  0  0  0  0  0  0  0
   -2.5392   -1.0026    1.1371 H   0  0  0  0  0  0  0  0  0  0  0  0
   -2.3485   -1.4969   -0.7857 H   0  0  0  0  0  0  0  0  0  0  0  0
   -1.1974   -0.8449   -1.9620 H   0  0  0  0  0  0  0  0  0  0  0  0
   -0.7053   -2.2063   -0.8256 H   0  0  0  0  0  0  0  0  0  0  0  0
    0.1144    1.1086    2.0331 H   0  0  0  0  0  0  0  0  0  0  0  0
    1.8154    1.2476    1.5336 H   0  0  0  0  0  0  0  0  0  0  0  0
    0.6251    2.2144    0.6381 H   0  0  0  0  0  0  0  0  0  0  0  0
    1.1916    1.5045   -1.4358 H   0  0  0  0  0  0  0  0  0  0  0  0
    0.7474   -0.2331   -1.9692 H   0  0  0  0  0  0  0  0  0  0  0  0
    3.0646    0.5685   -0.1188 H   0  0  0  0  0  0  0  0  0  0  0  0
    3.0091   -0.7433   -1.3708 H   0  0  0  0  0  0  0  0  0  0  0  0
    1.2380   -1.8994   -0.2947 H   0  0  0  0  0  0  0  0  0  0  0  0
    1.9687   -1.1754    1.2615 H   0  0  0  0  0  0  0  0  0  0  0  0
  1  2  1  0
  2  3  1  0
  2  4  1  0
  2  5  1  0
  5  6  1  0
  5  7  1  0
  7  8  1  0
  8  9  1  0
  9  5  1  0
  1 10  1  0
  1 11  1  0
  1 12  1  0
  3 13  1  0
  3 14  1  0
  3 15  1  0
  4 16  1  0
  4 17  1  0
  4 18  1  0
  6 19  1  0
  6 20  1  0
  6 21  1  0
  7 22  1  0
  7 23  1  0
  8 24  1  0
  8 25  1  0
  9 26  1  0
  9 27  1  0
M  END
