
     RDKit          3D

 21 20  0  0  0  0  0  0  0  0999 V2000
   -1.8110    0.7946   -0.6650 C   0  0  0  0  0  0  0  0  0  0  0  0
   -0.7207   -0.2487   -0.6335 C   0  0  0  0  0  0  0  0  0  0  0  0
   -1.1361   -1.4116    0.1897 C   0  0  0  0  0  0  0  0  0  0  0  0
    0.5922    0.3660   -0.2186 C   0  0  0  0  0  0  0  0  0  0  0  0
    0.5532    0.9905    1.1381 C   0  0  0  0  0  0  0  0  0  0  0  0
    1.7438   -0.5908   -0.4113 C   0  0  0  0  0  0  0  0  0  0  0  0
    2.9158    0.0260   -0.0157 O   0  0  0  0  0  0  0  0  0  0  0  0
   -2.6491    0.3406   -1.2675 H   0  0  0  0  0  0  0  0  0  0  0  0
   -1.4678    1.7473   -1.1242 H   0  0  0  0  0  0  0  0  0  0  0  0
   -2.2301    1.0035    0.3475 H   0  0  0  0  0  0  0  0  0  0  0  0
   -0.5854   -0.5927   -1.6913 H   0  0  0  0  0  0  0  0  0  0  0  0
   -0.3404   -1.8351    0.8253 H   0  0  0  0  0  0  0  0  0  0  0  0
   -1.9979   -1.1601    0.8528 H   0  0  0  0  0  0  0  0  0  0  0  0
   -1.5059   -2.2665   -0.4448 H   0  0  0  0  0  0  0  0  0  0  0  0
    0.7791    1.2065   -0.9522 H   0  0  0  0  0  0  0  0  0  0  0  0
    1.0610    0.2743    1.8458 H   0  0  0  0  0  0  0  0  0  0  0  0
    1.1414    1.9353    1.2105 H   0  0  0  0  0  0  0  0  0  0  0  0
   -0.4910    1.1980    1.4430 H   0  0  0  0  0  0  0  0  0  0  0  0
    1.7692   -0.8544   -1.4874 H   0  0  0  0  0  0  0  0  0  0  0  0
    1.5778   -1.4517    0.2463 H   0  0  0  0  0  0  0  0  0  0  0  0
    2.8019    0.5292    0.8126 H   0  0  0  0  0  0  0  0  0  0  0  0
  1  2  1  0
  2  3  1  0
  2  4  1  0
  4  5  1  0
  4  6  1  0
  6  7  1  0
  1  8  1  0
  1  9  1  0
  1 10  1  0
  2 11  1  0
  3 12  1  0
  3 13  1  0
  3 14  1  0
  4 15  1  0
  5 16  1  0
  5 17  1  0
  5 18  1  0
  6 19  1  0
  6 20  1  0
  7 21  1  0
M  END
