
     RDKit          3D

 23 22  0  0  0  0  0  0  0  0999 V2000
   -0.8246    1.2533    0.0698 C   0  0  0  0  0  0  0  0  0  0  0  0
   -0.7433   -0.2448   -0.0235 C   0  0  0  0  0  0  0  0  0  0  0  0
   -1.9993   -0.7094   -0.7709 C   0  0  0  0  0  0  0  0  0  0  0  0
   -0.8468   -0.8030    1.3690 C   0  0  0  0  0  0  0  0  0  0  0  0
    0.4268   -0.7370   -0.7934 C   0  0  0  0  0  0  0  0  0  0  0  0
    1.7601   -0.3365   -0.2489 C   0  0  0  0  0  0  0  0  0  0  0  0
    1.9735   -0.7998    1.0550 O   0  0  0  0  0  0  0  0  0  0  0  0
    2.0595    1.0984   -0.3640 C   0  0  0  0  0  0  0  0  0  0  0  0
    2.4370    1.7250    0.5957 O   0  0  0  0  0  0  0  0  0  0  0  0
   -0.2877    1.6634    0.9609 H   0  0  0  0  0  0  0  0  0  0  0  0
   -1.8903    1.6012    0.2080 H   0  0  0  0  0  0  0  0  0  0  0  0
   -0.4052    1.7645   -0.8352 H   0  0  0  0  0  0  0  0  0  0  0  0
   -1.7774   -1.5929   -1.4039 H   0  0  0  0  0  0  0  0  0  0  0  0
   -2.7892   -1.0189   -0.0663 H   0  0  0  0  0  0  0  0  0  0  0  0
   -2.4185    0.0966   -1.3956 H   0  0  0  0  0  0  0  0  0  0  0  0
   -0.5590   -1.8607    1.4416 H   0  0  0  0  0  0  0  0  0  0  0  0
   -1.9180   -0.7519    1.6604 H   0  0  0  0  0  0  0  0  0  0  0  0
   -0.3017   -0.1394    2.0703 H   0  0  0  0  0  0  0  0  0  0  0  0
    0.3877   -1.8448   -0.8141 H   0  0  0  0  0  0  0  0  0  0  0  0
    0.3541   -0.3632   -1.8259 H   0  0  0  0  0  0  0  0  0  0  0  0
    2.5322   -0.8751   -0.8739 H   0  0  0  0  0  0  0  0  0  0  0  0
    2.8909   -0.4875    1.2970 H   0  0  0  0  0  0  0  0  0  0  0  0
    1.9394    1.5863   -1.3122 H   0  0  0  0  0  0  0  0  0  0  0  0
  1  2  1  0
  2  3  1  0
  2  4  1  0
  2  5  1  0
  5  6  1  0
  6  7  1  0
  6  8  1  0
  8  9  2  0
  1 10  1  0
  1 11  1  0
  1 12  1  0
  3 13  1  0
  3 14  1  0
  3 15  1  0
  4 16  1  0
  4 17  1  0
  4 18  1  0
  5 19  1  0
  5 20  1  0
  6 21  1  0
  7 22  1  0
  8 23  1  0
M  END
