
     RDKit          3D

 22 22  0  0  0  0  0  0  0  0999 V2000
    2.1822   -0.3832    0.2952 C   0  0  0  0  0  0  0  0  0  0  0  0
    0.7730    0.1698    0.5222 C   0  0  0  0  0  0  0  0  0  0  0  0
    0.6896    1.5337   -0.1231 C   0  0  0  0  0  0  0  0  0  0  0  0
   -0.1776   -0.7402   -0.1970 C   0  0  0  0  0  0  0  0  0  0  0  0
    0.0587   -0.8394   -1.6820 C   0  0  0  0  0  0  0  0  0  0  0  0
   -0.7851   -1.7406    0.5000 O   0  0  0  0  0  0  0  0  0  0  0  0
   -1.6520   -0.7260    0.1791 C   0  0  0  0  0  0  0  0  0  0  0  0
   -2.1521    0.2426    1.1957 C   0  0  0  0  0  0  0  0  0  0  0  0
    2.6228    0.1293   -0.5965 H   0  0  0  0  0  0  0  0  0  0  0  0
    2.8540   -0.1432    1.1444 H   0  0  0  0  0  0  0  0  0  0  0  0
    2.1747   -1.4645    0.0936 H   0  0  0  0  0  0  0  0  0  0  0  0
    0.5750    0.2629    1.6046 H   0  0  0  0  0  0  0  0  0  0  0  0
   -0.3432    1.9087    0.0698 H   0  0  0  0  0  0  0  0  0  0  0  0
    0.7604    1.4078   -1.2230 H   0  0  0  0  0  0  0  0  0  0  0  0
    1.4495    2.2292    0.2867 H   0  0  0  0  0  0  0  0  0  0  0  0
   -0.2345   -1.7942   -2.1198 H   0  0  0  0  0  0  0  0  0  0  0  0
    1.1376   -0.6116   -1.9051 H   0  0  0  0  0  0  0  0  0  0  0  0
   -0.5152   -0.0111   -2.1575 H   0  0  0  0  0  0  0  0  0  0  0  0
   -2.3966   -0.9950   -0.5992 H   0  0  0  0  0  0  0  0  0  0  0  0
   -2.9911   -0.1672    1.8128 H   0  0  0  0  0  0  0  0  0  0  0  0
   -2.6194    1.1005    0.6299 H   0  0  0  0  0  0  0  0  0  0  0  0
   -1.4109    0.6316    1.8871 H   0  0  0  0  0  0  0  0  0  0  0  0
  1  2  1  0
  2  3  1  0
  2  4  1  0
  4  5  1  0
  4  6  1  0
  6  7  1  0
  7  8  1  0
  7  4  1  0
  1  9  1  0
  1 10  1  0
  1 11  1  0
  2 12  1  0
  3 13  1  0
  3 14  1  0
  3 15  1  0
  5 16  1  0
  5 17  1  0
  5 18  1  0
  7 19  1  0
  8 20  1  0
  8 21  1  0
  8 22  1  0
M  END
