
     RDKit          3D

 21 20  0  0  0  0  0  0  0  0999 V2000
   -1.2661   -1.0361    1.3384 C   0  0  0  0  0  0  0  0  0  0  0  0
   -0.5757    0.0685    0.5767 C   0  0  0  0  0  0  0  0  0  0  0  0
   -1.5234    0.7828   -0.3267 C   0  0  0  0  0  0  0  0  0  0  0  0
    0.6255   -0.5035   -0.1161 C   0  0  0  0  0  0  0  0  0  0  0  0
    0.3422   -1.5708   -1.0744 C   0  0  0  0  0  0  0  0  0  0  0  0
   -0.4444   -1.5104   -2.0043 O   0  0  0  0  0  0  0  0  0  0  0  0
    1.4203    0.6151   -0.7974 C   0  0  0  0  0  0  0  0  0  0  0  0
    1.8891    1.6215    0.1784 C   0  0  0  0  0  0  0  0  0  0  0  0
    2.7831    1.3376    0.9398 O   0  0  0  0  0  0  0  0  0  0  0  0
   -2.3525   -0.8346    1.2962 H   0  0  0  0  0  0  0  0  0  0  0  0
   -0.9054   -1.0827    2.4067 H   0  0  0  0  0  0  0  0  0  0  0  0
   -1.0502   -1.9908    0.8047 H   0  0  0  0  0  0  0  0  0  0  0  0
   -0.1836    0.7793    1.3405 H   0  0  0  0  0  0  0  0  0  0  0  0
   -1.4605    0.5134   -1.3748 H   0  0  0  0  0  0  0  0  0  0  0  0
   -1.4525    1.8843   -0.1976 H   0  0  0  0  0  0  0  0  0  0  0  0
   -2.5714    0.5254    0.0087 H   0  0  0  0  0  0  0  0  0  0  0  0
    1.2842   -0.8885    0.6872 H   0  0  0  0  0  0  0  0  0  0  0  0
    0.8470   -2.5286   -1.0042 H   0  0  0  0  0  0  0  0  0  0  0  0
    2.3202    0.1485   -1.2778 H   0  0  0  0  0  0  0  0  0  0  0  0
    0.8339    1.0734   -1.6159 H   0  0  0  0  0  0  0  0  0  0  0  0
    1.4402    2.5962    0.2119 H   0  0  0  0  0  0  0  0  0  0  0  0
  1  2  1  0
  2  3  1  0
  2  4  1  0
  4  5  1  0
  5  6  2  0
  4  7  1  0
  7  8  1  0
  8  9  2  0
  1 10  1  0
  1 11  1  0
  1 12  1  0
  2 13  1  0
  3 14  1  0
  3 15  1  0
  3 16  1  0
  4 17  1  0
  5 18  1  0
  7 19  1  0
  7 20  1  0
  8 21  1  0
M  END
