
     RDKit          3D

 19 19  0  0  0  0  0  0  0  0999 V2000
   -2.0293   -0.3111    1.0303 C   0  0  0  0  0  0  0  0  0  0  0  0
   -1.0576   -0.2401   -0.1357 C   0  0  0  0  0  0  0  0  0  0  0  0
   -1.7318    0.6110   -1.1986 C   0  0  0  0  0  0  0  0  0  0  0  0
    0.1299    0.3877    0.2025 O   0  0  0  0  0  0  0  0  0  0  0  0
    1.2493   -0.3595   -0.0617 C   0  0  0  0  0  0  0  0  0  0  0  0
    2.5389    0.3209   -0.4751 C   0  0  0  0  0  0  0  0  0  0  0  0
    2.3996   -0.1423    0.9222 C   0  0  0  0  0  0  0  0  0  0  0  0
   -2.1035    0.7059    1.4629 H   0  0  0  0  0  0  0  0  0  0  0  0
   -3.0276   -0.5274    0.5786 H   0  0  0  0  0  0  0  0  0  0  0  0
   -1.7419   -1.0852    1.7648 H   0  0  0  0  0  0  0  0  0  0  0  0
   -0.8611   -1.2377   -0.5594 H   0  0  0  0  0  0  0  0  0  0  0  0
   -1.0126    0.7247   -2.0255 H   0  0  0  0  0  0  0  0  0  0  0  0
   -1.9832    1.5983   -0.7161 H   0  0  0  0  0  0  0  0  0  0  0  0
   -2.7044    0.1831   -1.5228 H   0  0  0  0  0  0  0  0  0  0  0  0
    1.1453   -1.3750   -0.5095 H   0  0  0  0  0  0  0  0  0  0  0  0
    3.2503   -0.1966   -1.1320 H   0  0  0  0  0  0  0  0  0  0  0  0
    2.4299    1.4215   -0.6322 H   0  0  0  0  0  0  0  0  0  0  0  0
    2.2573    0.6080    1.7237 H   0  0  0  0  0  0  0  0  0  0  0  0
    2.8525   -1.0863    1.2838 H   0  0  0  0  0  0  0  0  0  0  0  0
  1  2  1  0
  2  3  1  0
  2  4  1  0
  4  5  1  0
  5  6  1  0
  6  7  1  0
  7  5  1  0
  1  8  1  0
  1  9  1  0
  1 10  1  0
  2 11  1  0
  3 12  1  0
  3 13  1  0
  3 14  1  0
  5 15  1  0
  6 16  1  0
  6 17  1  0
  7 18  1  0
  7 19  1  0
M  END
