
     RDKit          3D

 27 26  0  0  0  0  0  0  0  0999 V2000
   -2.2843    0.8485    0.7312 C   0  0  0  0  0  0  0  0  0  0  0  0
   -1.9673    0.4429   -0.6833 C   0  0  0  0  0  0  0  0  0  0  0  0
   -2.6573   -0.8509   -1.0700 C   0  0  0  0  0  0  0  0  0  0  0  0
   -0.5464    0.5041   -1.0278 C   0  0  0  0  0  0  0  0  0  0  0  0
    0.4538   -0.3079   -0.3207 C   0  0  0  0  0  0  0  0  0  0  0  0
    0.6343   -0.1403    1.1332 C   0  0  0  0  0  0  0  0  0  0  0  0
    1.7903    0.0539   -0.9915 C   0  0  0  0  0  0  0  0  0  0  0  0
    2.9527   -0.6649   -0.4169 C   0  0  0  0  0  0  0  0  0  0  0  0
    4.0916   -0.2669   -1.1282 O   0  0  0  0  0  0  0  0  0  0  0  0
   -2.4890   -0.0090    1.4017 H   0  0  0  0  0  0  0  0  0  0  0  0
   -1.4625    1.4550    1.1200 H   0  0  0  0  0  0  0  0  0  0  0  0
   -3.2487    1.4317    0.7109 H   0  0  0  0  0  0  0  0  0  0  0  0
   -2.4869    1.2169   -1.3343 H   0  0  0  0  0  0  0  0  0  0  0  0
   -3.0630   -0.8226   -2.1036 H   0  0  0  0  0  0  0  0  0  0  0  0
   -1.9623   -1.7165   -1.0419 H   0  0  0  0  0  0  0  0  0  0  0  0
   -3.5280   -0.9687   -0.3946 H   0  0  0  0  0  0  0  0  0  0  0  0
   -0.3988    0.2752   -2.1303 H   0  0  0  0  0  0  0  0  0  0  0  0
   -0.2153    1.5893   -0.9779 H   0  0  0  0  0  0  0  0  0  0  0  0
    0.3290   -1.3931   -0.5938 H   0  0  0  0  0  0  0  0  0  0  0  0
    1.0435    0.8476    1.3885 H   0  0  0  0  0  0  0  0  0  0  0  0
   -0.2160   -0.4356    1.7785 H   0  0  0  0  0  0  0  0  0  0  0  0
    1.4437   -0.8820    1.4376 H   0  0  0  0  0  0  0  0  0  0  0  0
    1.6950   -0.0166   -2.0850 H   0  0  0  0  0  0  0  0  0  0  0  0
    1.9223    1.1491   -0.7700 H   0  0  0  0  0  0  0  0  0  0  0  0
    2.7755   -1.7428   -0.4353 H   0  0  0  0  0  0  0  0  0  0  0  0
    3.1260   -0.2655    0.6239 H   0  0  0  0  0  0  0  0  0  0  0  0
    4.2679    0.6692   -0.9072 H   0  0  0  0  0  0  0  0  0  0  0  0
  1  2  1  0
  2  3  1  0
  2  4  1  0
  4  5  1  0
  5  6  1  0
  5  7  1  0
  7  8  1  0
  8  9  1  0
  1 10  1  0
  1 11  1  0
  1 12  1  0
  2 13  1  0
  3 14  1  0
  3 15  1  0
  3 16  1  0
  4 17  1  0
  4 18  1  0
  5 19  1  0
  6 20  1  0
  6 21  1  0
  6 22  1  0
  7 23  1  0
  7 24  1  0
  8 25  1  0
  8 26  1  0
  9 27  1  0
M  END
