
     RDKit          3D

 27 27  0  0  0  0  0  0  0  0999 V2000
    2.9110   -1.3667    0.5820 C   0  0  0  0  0  0  0  0  0  0  0  0
    1.9678   -0.1986    0.2942 C   0  0  0  0  0  0  0  0  0  0  0  0
    2.0783    0.2214   -1.1454 C   0  0  0  0  0  0  0  0  0  0  0  0
    0.5858   -0.4967    0.7746 C   0  0  0  0  0  0  0  0  0  0  0  0
   -0.4018    0.5749    0.5564 C   0  0  0  0  0  0  0  0  0  0  0  0
   -0.7264    1.0063   -0.8653 C   0  0  0  0  0  0  0  0  0  0  0  0
   -1.7832    0.4098    0.1086 C   0  0  0  0  0  0  0  0  0  0  0  0
   -2.8317    1.4218    0.5328 C   0  0  0  0  0  0  0  0  0  0  0  0
   -2.3570   -0.9042   -0.3043 C   0  0  0  0  0  0  0  0  0  0  0  0
    3.7495   -1.3982   -0.1400 H   0  0  0  0  0  0  0  0  0  0  0  0
    2.3470   -2.3187    0.4594 H   0  0  0  0  0  0  0  0  0  0  0  0
    3.2649   -1.3424    1.6430 H   0  0  0  0  0  0  0  0  0  0  0  0
    2.3757    0.6475    0.9214 H   0  0  0  0  0  0  0  0  0  0  0  0
    1.6480    1.2072   -1.3629 H   0  0  0  0  0  0  0  0  0  0  0  0
    1.6124   -0.5370   -1.8072 H   0  0  0  0  0  0  0  0  0  0  0  0
    3.1709    0.1960   -1.4673 H   0  0  0  0  0  0  0  0  0  0  0  0
    0.6120   -0.8492    1.8534 H   0  0  0  0  0  0  0  0  0  0  0  0
    0.2810   -1.4504    0.2250 H   0  0  0  0  0  0  0  0  0  0  0  0
   -0.2510    1.4527    1.2703 H   0  0  0  0  0  0  0  0  0  0  0  0
   -0.5103    0.3750   -1.7306 H   0  0  0  0  0  0  0  0  0  0  0  0
   -0.8015    2.1178   -1.0534 H   0  0  0  0  0  0  0  0  0  0  0  0
   -2.3692    2.3683    0.8886 H   0  0  0  0  0  0  0  0  0  0  0  0
   -3.5098    1.5936   -0.3378 H   0  0  0  0  0  0  0  0  0  0  0  0
   -3.4052    0.9545    1.3526 H   0  0  0  0  0  0  0  0  0  0  0  0
   -2.7069   -1.4701    0.5932 H   0  0  0  0  0  0  0  0  0  0  0  0
   -3.2695   -0.7050   -0.9037 H   0  0  0  0  0  0  0  0  0  0  0  0
   -1.6809   -1.5097   -0.9376 H   0  0  0  0  0  0  0  0  0  0  0  0
  1  2  1  0
  2  3  1  0
  2  4  1  0
  4  5  1  0
  5  6  1  0
  6  7  1  0
  7  8  1  0
  7  9  1  0
  7  5  1  0
  1 10  1  0
  1 11  1  0
  1 12  1  0
  2 13  1  0
  3 14  1  0
  3 15  1  0
  3 16  1  0
  4 17  1  0
  4 18  1  0
  5 19  1  0
  6 20  1  0
  6 21  1  0
  8 22  1  0
  8 23  1  0
  8 24  1  0
  9 25  1  0
  9 26  1  0
  9 27  1  0
M  END
