
     RDKit          3D

 23 23  0  0  0  0  0  0  0  0999 V2000
   -1.6516    1.3681   -0.2450 C   0  0  0  0  0  0  0  0  0  0  0  0
   -1.1722   -0.0517   -0.2830 C   0  0  0  0  0  0  0  0  0  0  0  0
   -2.3599   -0.9197    0.1563 C   0  0  0  0  0  0  0  0  0  0  0  0
   -0.8554   -0.3828   -1.5925 O   0  0  0  0  0  0  0  0  0  0  0  0
   -0.0570   -0.3325    0.6766 C   0  0  0  0  0  0  0  0  0  0  0  0
    1.1696    0.4836    0.4536 C   0  0  0  0  0  0  0  0  0  0  0  0
    1.9433    0.4634   -0.7951 C   0  0  0  0  0  0  0  0  0  0  0  0
    2.4524   -0.3733    0.3240 C   0  0  0  0  0  0  0  0  0  0  0  0
    3.5222    0.0347    1.1006 O   0  0  0  0  0  0  0  0  0  0  0  0
   -1.6538    1.8045    0.7590 H   0  0  0  0  0  0  0  0  0  0  0  0
   -2.7214    1.3520   -0.6083 H   0  0  0  0  0  0  0  0  0  0  0  0
   -1.1234    2.0211   -0.9879 H   0  0  0  0  0  0  0  0  0  0  0  0
   -1.9801   -1.9029    0.5208 H   0  0  0  0  0  0  0  0  0  0  0  0
   -3.1056   -1.0245   -0.6394 H   0  0  0  0  0  0  0  0  0  0  0  0
   -2.7726   -0.4052    1.0682 H   0  0  0  0  0  0  0  0  0  0  0  0
   -1.2653   -1.2582   -1.8429 H   0  0  0  0  0  0  0  0  0  0  0  0
   -0.4376   -0.1250    1.7008 H   0  0  0  0  0  0  0  0  0  0  0  0
    0.1280   -1.4348    0.6500 H   0  0  0  0  0  0  0  0  0  0  0  0
    1.2795    1.3981    1.1051 H   0  0  0  0  0  0  0  0  0  0  0  0
    2.5754    1.3588   -1.0166 H   0  0  0  0  0  0  0  0  0  0  0  0
    1.4709   -0.0629   -1.6633 H   0  0  0  0  0  0  0  0  0  0  0  0
    2.3426   -1.4503    0.2068 H   0  0  0  0  0  0  0  0  0  0  0  0
    4.2719   -0.5605    0.9522 H   0  0  0  0  0  0  0  0  0  0  0  0
  1  2  1  0
  2  3  1  0
  2  4  1  0
  2  5  1  0
  5  6  1  0
  6  7  1  0
  7  8  1  0
  8  9  1  0
  8  6  1  0
  1 10  1  0
  1 11  1  0
  1 12  1  0
  3 13  1  0
  3 14  1  0
  3 15  1  0
  4 16  1  0
  5 17  1  0
  5 18  1  0
  6 19  1  0
  7 20  1  0
  7 21  1  0
  8 22  1  0
  9 23  1  0
M  END
