
     RDKit          3D

 27 26  0  0  0  0  0  0  0  0999 V2000
    2.5204    0.9994   -0.3787 C   0  0  0  0  0  0  0  0  0  0  0  0
    1.8358   -0.1432    0.3693 C   0  0  0  0  0  0  0  0  0  0  0  0
    2.7823   -1.3076    0.3682 C   0  0  0  0  0  0  0  0  0  0  0  0
    0.6375   -0.3765   -0.2420 O   0  0  0  0  0  0  0  0  0  0  0  0
   -0.4795   -0.1532    0.5243 C   0  0  0  0  0  0  0  0  0  0  0  0
   -1.2479   -1.4626    0.6065 C   0  0  0  0  0  0  0  0  0  0  0  0
   -1.3471    0.8229   -0.2405 C   0  0  0  0  0  0  0  0  0  0  0  0
   -1.7055    0.1932   -1.5686 C   0  0  0  0  0  0  0  0  0  0  0  0
   -2.5615    1.2467    0.5058 C   0  0  0  0  0  0  0  0  0  0  0  0
    3.0400    0.5590   -1.2618 H   0  0  0  0  0  0  0  0  0  0  0  0
    3.2560    1.4625    0.3188 H   0  0  0  0  0  0  0  0  0  0  0  0
    1.7270    1.6900   -0.6934 H   0  0  0  0  0  0  0  0  0  0  0  0
    1.7200    0.1995    1.4174 H   0  0  0  0  0  0  0  0  0  0  0  0
    2.8120   -1.8245   -0.6130 H   0  0  0  0  0  0  0  0  0  0  0  0
    2.6492   -1.9928    1.2186 H   0  0  0  0  0  0  0  0  0  0  0  0
    3.8176   -0.8731    0.4959 H   0  0  0  0  0  0  0  0  0  0  0  0
   -0.2664    0.1902    1.5479 H   0  0  0  0  0  0  0  0  0  0  0  0
   -1.2745   -1.9663   -0.3825 H   0  0  0  0  0  0  0  0  0  0  0  0
   -2.2966   -1.3081    0.9111 H   0  0  0  0  0  0  0  0  0  0  0  0
   -0.7799   -2.1554    1.3329 H   0  0  0  0  0  0  0  0  0  0  0  0
   -0.7280    1.7234   -0.4406 H   0  0  0  0  0  0  0  0  0  0  0  0
   -2.4150   -0.6293   -1.4781 H   0  0  0  0  0  0  0  0  0  0  0  0
   -2.2102    0.9905   -2.1843 H   0  0  0  0  0  0  0  0  0  0  0  0
   -0.8237   -0.1338   -2.1342 H   0  0  0  0  0  0  0  0  0  0  0  0
   -2.9280    2.1980    0.0268 H   0  0  0  0  0  0  0  0  0  0  0  0
   -3.4102    0.5404    0.4255 H   0  0  0  0  0  0  0  0  0  0  0  0
   -2.3237    1.5102    1.5485 H   0  0  0  0  0  0  0  0  0  0  0  0
  1  2  1  0
  2  3  1  0
  2  4  1  0
  4  5  1  0
  5  6  1  0
  5  7  1  0
  7  8  1  0
  7  9  1  0
  1 10  1  0
  1 11  1  0
  1 12  1  0
  2 13  1  0
  3 14  1  0
  3 15  1  0
  3 16  1  0
  5 17  1  0
  6 18  1  0
  6 19  1  0
  6 20  1  0
  7 21  1  0
  8 22  1  0
  8 23  1  0
  8 24  1  0
  9 25  1  0
  9 26  1  0
  9 27  1  0
M  END
