
     RDKit          3D

 21 22  0  0  0  0  0  0  0  0999 V2000
    0.0307    1.6510   -0.5182 C   0  0  0  0  0  0  0  0  0  0  0  0
    0.2957    0.4163    0.3368 C   0  0  0  0  0  0  0  0  0  0  0  0
   -0.6987   -0.6645    0.0634 C   0  0  0  0  0  0  0  0  0  0  0  0
   -2.1026   -0.1820    0.3682 C   0  0  0  0  0  0  0  0  0  0  0  0
   -2.5283   -1.1178   -0.6065 O   0  0  0  0  0  0  0  0  0  0  0  0
   -1.3220   -0.7741   -1.2725 C   0  0  0  0  0  0  0  0  0  0  0  0
    1.7107    0.0432    0.2462 C   0  0  0  0  0  0  0  0  0  0  0  0
    2.3894   -1.0307    0.8743 C   0  0  0  0  0  0  0  0  0  0  0  0
    2.4323    0.2697    1.5224 O   0  0  0  0  0  0  0  0  0  0  0  0
    0.8754    2.3566   -0.2512 H   0  0  0  0  0  0  0  0  0  0  0  0
   -0.8783    2.1859   -0.2079 H   0  0  0  0  0  0  0  0  0  0  0  0
    0.0777    1.3902   -1.5858 H   0  0  0  0  0  0  0  0  0  0  0  0
    0.0682    0.7653    1.3703 H   0  0  0  0  0  0  0  0  0  0  0  0
   -0.5230   -1.6281    0.5388 H   0  0  0  0  0  0  0  0  0  0  0  0
   -2.4655   -0.4175    1.3846 H   0  0  0  0  0  0  0  0  0  0  0  0
   -2.3698    0.8224   -0.0196 H   0  0  0  0  0  0  0  0  0  0  0  0
   -1.5013    0.1366   -1.8375 H   0  0  0  0  0  0  0  0  0  0  0  0
   -1.0547   -1.6845   -1.8747 H   0  0  0  0  0  0  0  0  0  0  0  0
    2.2831    0.6078   -0.5441 H   0  0  0  0  0  0  0  0  0  0  0  0
    1.9246   -1.7642    1.5528 H   0  0  0  0  0  0  0  0  0  0  0  0
    3.3563   -1.3814    0.4602 H   0  0  0  0  0  0  0  0  0  0  0  0
  1  2  1  0
  2  3  1  0
  3  4  1  0
  4  5  1  0
  5  6  1  0
  2  7  1  0
  7  8  1  0
  8  9  1  0
  6  3  1  0
  9  7  1  0
  1 10  1  0
  1 11  1  0
  1 12  1  0
  2 13  1  0
  3 14  1  0
  4 15  1  0
  4 16  1  0
  6 17  1  0
  6 18  1  0
  7 19  1  0
  8 20  1  0
  8 21  1  0
M  END
