
     RDKit          3D

 23 22  0  0  0  0  0  0  0  0999 V2000
    0.0322   -0.3464   -1.5228 C   0  0  0  0  0  0  0  0  0  0  0  0
   -0.1127   -0.4392   -0.0407 C   0  0  0  0  0  0  0  0  0  0  0  0
   -1.3550    0.2630    0.4693 C   0  0  0  0  0  0  0  0  0  0  0  0
   -2.6143   -0.3078   -0.1115 C   0  0  0  0  0  0  0  0  0  0  0  0
   -3.6907    0.4033    0.4183 O   0  0  0  0  0  0  0  0  0  0  0  0
    1.1030    0.2037    0.5945 C   0  0  0  0  0  0  0  0  0  0  0  0
    1.2298    1.5412    0.2374 O   0  0  0  0  0  0  0  0  0  0  0  0
    2.3217   -0.6105    0.2537 C   0  0  0  0  0  0  0  0  0  0  0  0
    3.4495   -0.1225    0.9090 O   0  0  0  0  0  0  0  0  0  0  0  0
   -0.0720   -1.3076   -2.0342 H   0  0  0  0  0  0  0  0  0  0  0  0
   -0.7969    0.3127   -1.9093 H   0  0  0  0  0  0  0  0  0  0  0  0
    0.9674    0.1679   -1.8423 H   0  0  0  0  0  0  0  0  0  0  0  0
   -0.1579   -1.4776    0.3402 H   0  0  0  0  0  0  0  0  0  0  0  0
   -1.2822    1.3177    0.1288 H   0  0  0  0  0  0  0  0  0  0  0  0
   -1.4088    0.2179    1.5622 H   0  0  0  0  0  0  0  0  0  0  0  0
   -2.6604   -0.1569   -1.2222 H   0  0  0  0  0  0  0  0  0  0  0  0
   -2.7768   -1.3700    0.1712 H   0  0  0  0  0  0  0  0  0  0  0  0
   -3.3940    1.2291    0.8369 H   0  0  0  0  0  0  0  0  0  0  0  0
    0.9407    0.1678    1.6886 H   0  0  0  0  0  0  0  0  0  0  0  0
    1.7636    2.0317    0.9169 H   0  0  0  0  0  0  0  0  0  0  0  0
    2.1462   -1.6353    0.6397 H   0  0  0  0  0  0  0  0  0  0  0  0
    2.5270   -0.6517   -0.8140 H   0  0  0  0  0  0  0  0  0  0  0  0
    3.8406    0.5693    0.3301 H   0  0  0  0  0  0  0  0  0  0  0  0
  1  2  1  0
  2  3  1  0
  3  4  1  0
  4  5  1  0
  2  6  1  0
  6  7  1  0
  6  8  1  0
  8  9  1  0
  1 10  1  0
  1 11  1  0
  1 12  1  0
  2 13  1  0
  3 14  1  0
  3 15  1  0
  4 16  1  0
  4 17  1  0
  5 18  1  0
  6 19  1  0
  7 20  1  0
  8 21  1  0
  8 22  1  0
  9 23  1  0
M  END
