
     RDKit          3D

 25 24  0  0  0  0  0  0  0  0999 V2000
   -2.2263    0.8769    1.1452 C   0  0  0  0  0  0  0  0  0  0  0  0
   -1.9871   -0.4823    0.4915 C   0  0  0  0  0  0  0  0  0  0  0  0
   -3.2236   -0.7924   -0.3306 C   0  0  0  0  0  0  0  0  0  0  0  0
   -0.8351   -0.3528   -0.4770 C   0  0  0  0  0  0  0  0  0  0  0  0
    0.3439    0.0502    0.1489 O   0  0  0  0  0  0  0  0  0  0  0  0
    1.3181    0.1303   -0.8454 C   0  0  0  0  0  0  0  0  0  0  0  0
    2.6563    0.5613   -0.2936 C   0  0  0  0  0  0  0  0  0  0  0  0
    3.2680   -0.5067    0.5844 C   0  0  0  0  0  0  0  0  0  0  0  0
    2.6058    1.8032    0.3090 O   0  0  0  0  0  0  0  0  0  0  0  0
   -3.2922    0.8496    1.5129 H   0  0  0  0  0  0  0  0  0  0  0  0
   -2.1680    1.6302    0.3218 H   0  0  0  0  0  0  0  0  0  0  0  0
   -1.5339    1.0720    1.9686 H   0  0  0  0  0  0  0  0  0  0  0  0
   -1.8505   -1.2793    1.2211 H   0  0  0  0  0  0  0  0  0  0  0  0
   -3.6924   -1.7544    0.0111 H   0  0  0  0  0  0  0  0  0  0  0  0
   -3.9907    0.0038   -0.2621 H   0  0  0  0  0  0  0  0  0  0  0  0
   -2.9971   -0.9091   -1.4105 H   0  0  0  0  0  0  0  0  0  0  0  0
   -1.0656    0.3773   -1.2570 H   0  0  0  0  0  0  0  0  0  0  0  0
   -0.6518   -1.3751   -0.8899 H   0  0  0  0  0  0  0  0  0  0  0  0
    1.4272   -0.9060   -1.2474 H   0  0  0  0  0  0  0  0  0  0  0  0
    0.9942    0.7650   -1.6898 H   0  0  0  0  0  0  0  0  0  0  0  0
    3.3393    0.6655   -1.1771 H   0  0  0  0  0  0  0  0  0  0  0  0
    3.0362   -0.3537    1.6643 H   0  0  0  0  0  0  0  0  0  0  0  0
    4.3896   -0.5081    0.5087 H   0  0  0  0  0  0  0  0  0  0  0  0
    2.8493   -1.4825    0.2486 H   0  0  0  0  0  0  0  0  0  0  0  0
    3.2865    1.9170    1.0190 H   0  0  0  0  0  0  0  0  0  0  0  0
  1  2  1  0
  2  3  1  0
  2  4  1  0
  4  5  1  0
  5  6  1  0
  6  7  1  0
  7  8  1  0
  7  9  1  0
  1 10  1  0
  1 11  1  0
  1 12  1  0
  2 13  1  0
  3 14  1  0
  3 15  1  0
  3 16  1  0
  4 17  1  0
  4 18  1  0
  6 19  1  0
  6 20  1  0
  7 21  1  0
  8 22  1  0
  8 23  1  0
  8 24  1  0
  9 25  1  0
M  END
