
     RDKit          3D

 19 18  0  0  0  0  0  0  0  0999 V2000
   -1.9912   -0.8760   -0.8663 C   0  0  0  0  0  0  0  0  0  0  0  0
   -0.7586   -0.3800   -0.0991 C   0  0  0  0  0  0  0  0  0  0  0  0
   -1.3214    0.3158    1.1441 C   0  0  0  0  0  0  0  0  0  0  0  0
   -0.0839    0.5765   -0.8100 O   0  0  0  0  0  0  0  0  0  0  0  0
    1.2332    0.3077   -1.0712 C   0  0  0  0  0  0  0  0  0  0  0  0
    2.0290    0.1364    0.2196 C   0  0  0  0  0  0  0  0  0  0  0  0
    1.9073    1.3529    0.9179 O   0  0  0  0  0  0  0  0  0  0  0  0
   -2.7152   -1.3101   -0.1633 H   0  0  0  0  0  0  0  0  0  0  0  0
   -1.7007   -1.5941   -1.6453 H   0  0  0  0  0  0  0  0  0  0  0  0
   -2.4740    0.0404   -1.2851 H   0  0  0  0  0  0  0  0  0  0  0  0
   -0.1536   -1.2640    0.1818 H   0  0  0  0  0  0  0  0  0  0  0  0
   -2.1525   -0.2694    1.5853 H   0  0  0  0  0  0  0  0  0  0  0  0
   -0.4807    0.3721    1.8639 H   0  0  0  0  0  0  0  0  0  0  0  0
   -1.6534    1.3182    0.7938 H   0  0  0  0  0  0  0  0  0  0  0  0
    1.3966   -0.5471   -1.7579 H   0  0  0  0  0  0  0  0  0  0  0  0
    1.6679    1.1959   -1.5754 H   0  0  0  0  0  0  0  0  0  0  0  0
    3.1100    0.0155    0.0011 H   0  0  0  0  0  0  0  0  0  0  0  0
    1.7094   -0.7262    0.8091 H   0  0  0  0  0  0  0  0  0  0  0  0
    2.4316    1.3354    1.7571 H   0  0  0  0  0  0  0  0  0  0  0  0
  1  2  1  0
  2  3  1  0
  2  4  1  0
  4  5  1  0
  5  6  1  0
  6  7  1  0
  1  8  1  0
  1  9  1  0
  1 10  1  0
  2 11  1  0
  3 12  1  0
  3 13  1  0
  3 14  1  0
  5 15  1  0
  5 16  1  0
  6 17  1  0
  6 18  1  0
  7 19  1  0
M  END
