
     RDKit          3D

 23 23  0  0  0  0  0  0  0  0999 V2000
   -1.3405    0.9861   -1.0047 C   0  0  0  0  0  0  0  0  0  0  0  0
   -0.6129   -0.0211   -0.1753 C   0  0  0  0  0  0  0  0  0  0  0  0
   -1.1945   -0.0452    1.2036 C   0  0  0  0  0  0  0  0  0  0  0  0
   -0.9150   -1.3961   -0.7953 C   0  0  0  0  0  0  0  0  0  0  0  0
    0.8740    0.1346   -0.2036 C   0  0  0  0  0  0  0  0  0  0  0  0
    1.4457    0.0162   -1.4686 O   0  0  0  0  0  0  0  0  0  0  0  0
    1.4656    1.2918    0.5210 C   0  0  0  0  0  0  0  0  0  0  0  0
    2.5851    0.4631    0.7839 O   0  0  0  0  0  0  0  0  0  0  0  0
    1.6515   -0.6015    0.8340 C   0  0  0  0  0  0  0  0  0  0  0  0
   -2.0315    0.5218   -1.7601 H   0  0  0  0  0  0  0  0  0  0  0  0
   -1.9838    1.6508   -0.3923 H   0  0  0  0  0  0  0  0  0  0  0  0
   -0.6373    1.6495   -1.5494 H   0  0  0  0  0  0  0  0  0  0  0  0
   -2.2522    0.3525    1.2149 H   0  0  0  0  0  0  0  0  0  0  0  0
   -1.2286   -1.0679    1.6316 H   0  0  0  0  0  0  0  0  0  0  0  0
   -0.6528    0.5805    1.9413 H   0  0  0  0  0  0  0  0  0  0  0  0
   -0.5715   -2.1738   -0.1173 H   0  0  0  0  0  0  0  0  0  0  0  0
   -0.3343   -1.4356   -1.7230 H   0  0  0  0  0  0  0  0  0  0  0  0
   -2.0078   -1.5135   -0.9512 H   0  0  0  0  0  0  0  0  0  0  0  0
    1.6465   -0.9375   -1.6354 H   0  0  0  0  0  0  0  0  0  0  0  0
    1.8134    2.1377   -0.1404 H   0  0  0  0  0  0  0  0  0  0  0  0
    1.0454    1.6001    1.4728 H   0  0  0  0  0  0  0  0  0  0  0  0
    1.1068   -0.6447    1.7948 H   0  0  0  0  0  0  0  0  0  0  0  0
    2.1289   -1.5477    0.5187 H   0  0  0  0  0  0  0  0  0  0  0  0
  1  2  1  0
  2  3  1  0
  2  4  1  0
  2  5  1  0
  5  6  1  0
  5  7  1  0
  7  8  1  0
  8  9  1  0
  9  5  1  0
  1 10  1  0
  1 11  1  0
  1 12  1  0
  3 13  1  0
  3 14  1  0
  3 15  1  0
  4 16  1  0
  4 17  1  0
  4 18  1  0
  6 19  1  0
  7 20  1  0
  7 21  1  0
  9 22  1  0
  9 23  1  0
M  END
