
     RDKit          3D

 23 24  0  0  0  0  0  0  0  0999 V2000
   -2.4700   -0.9964   -0.6141 C   0  0  0  0  0  0  0  0  0  0  0  0
   -1.4988    0.1492   -0.7117 C   0  0  0  0  0  0  0  0  0  0  0  0
   -2.1579    1.3916   -0.1508 C   0  0  0  0  0  0  0  0  0  0  0  0
   -0.2565   -0.2195    0.0624 C   0  0  0  0  0  0  0  0  0  0  0  0
    0.8128    0.8813    0.0344 C   0  0  0  0  0  0  0  0  0  0  0  0
    1.6557   -0.3234   -0.1090 C   0  0  0  0  0  0  0  0  0  0  0  0
    3.0384   -0.3304   -0.5585 C   0  0  0  0  0  0  0  0  0  0  0  0
    2.6227   -0.7933    0.8740 C   0  0  0  0  0  0  0  0  0  0  0  0
    0.6311   -1.0515   -0.6189 O   0  0  0  0  0  0  0  0  0  0  0  0
   -3.3288   -0.7350    0.0684 H   0  0  0  0  0  0  0  0  0  0  0  0
   -1.9935   -1.8941   -0.1392 H   0  0  0  0  0  0  0  0  0  0  0  0
   -2.8691   -1.3006   -1.6007 H   0  0  0  0  0  0  0  0  0  0  0  0
   -1.1999    0.3070   -1.7665 H   0  0  0  0  0  0  0  0  0  0  0  0
   -2.8454    1.1068    0.6931 H   0  0  0  0  0  0  0  0  0  0  0  0
   -1.4385    2.1352    0.2191 H   0  0  0  0  0  0  0  0  0  0  0  0
   -2.7325    1.8455   -0.9837 H   0  0  0  0  0  0  0  0  0  0  0  0
   -0.4239   -0.5660    1.0806 H   0  0  0  0  0  0  0  0  0  0  0  0
    0.7936    1.5150   -0.8564 H   0  0  0  0  0  0  0  0  0  0  0  0
    0.8829    1.4060    1.0098 H   0  0  0  0  0  0  0  0  0  0  0  0
    3.5683    0.6601   -0.5855 H   0  0  0  0  0  0  0  0  0  0  0  0
    3.5017   -1.1166   -1.1577 H   0  0  0  0  0  0  0  0  0  0  0  0
    2.6962   -1.8836    1.0669 H   0  0  0  0  0  0  0  0  0  0  0  0
    3.0113   -0.1873    1.7115 H   0  0  0  0  0  0  0  0  0  0  0  0
  1  2  1  0
  2  3  1  0
  2  4  1  0
  4  5  1  0
  5  6  1  0
  6  7  1  0
  7  8  1  0
  6  9  1  0
  9  4  1  0
  8  6  1  0
  1 10  1  0
  1 11  1  0
  1 12  1  0
  2 13  1  0
  3 14  1  0
  3 15  1  0
  3 16  1  0
  4 17  1  0
  5 18  1  0
  5 19  1  0
  7 20  1  0
  7 21  1  0
  8 22  1  0
  8 23  1  0
M  END
