
     RDKit          3D

 23 23  0  0  0  0  0  0  0  0999 V2000
   -1.3213   -1.6303   -0.4840 C   0  0  0  0  0  0  0  0  0  0  0  0
   -1.0699   -0.1525   -0.1429 C   0  0  0  0  0  0  0  0  0  0  0  0
   -2.1564    0.3108    0.7454 C   0  0  0  0  0  0  0  0  0  0  0  0
   -2.0031    1.6462    1.1024 O   0  0  0  0  0  0  0  0  0  0  0  0
    0.3097   -0.0627    0.3945 C   0  0  0  0  0  0  0  0  0  0  0  0
    0.7852    1.2476    0.7912 C   0  0  0  0  0  0  0  0  0  0  0  0
    2.1085    1.2553    0.6785 C   0  0  0  0  0  0  0  0  0  0  0  0
    2.6038   -0.0649    0.1928 C   0  0  0  0  0  0  0  0  0  0  0  0
    1.3596   -0.5122   -0.5991 C   0  0  0  0  0  0  0  0  0  0  0  0
   -1.0393   -2.2054    0.4248 H   0  0  0  0  0  0  0  0  0  0  0  0
   -2.3547   -1.7979   -0.8088 H   0  0  0  0  0  0  0  0  0  0  0  0
   -0.6516   -1.8827   -1.3175 H   0  0  0  0  0  0  0  0  0  0  0  0
   -1.1073    0.3885   -1.1091 H   0  0  0  0  0  0  0  0  0  0  0  0
   -3.1364    0.2667    0.1879 H   0  0  0  0  0  0  0  0  0  0  0  0
   -2.3186   -0.3119    1.6447 H   0  0  0  0  0  0  0  0  0  0  0  0
   -2.2849    2.2759    0.4030 H   0  0  0  0  0  0  0  0  0  0  0  0
    0.4419   -0.7495    1.2844 H   0  0  0  0  0  0  0  0  0  0  0  0
    0.2710    2.1500    1.1378 H   0  0  0  0  0  0  0  0  0  0  0  0
    2.7921    2.0810    0.8957 H   0  0  0  0  0  0  0  0  0  0  0  0
    2.6884   -0.7883    1.0308 H   0  0  0  0  0  0  0  0  0  0  0  0
    3.4875    0.0031   -0.4406 H   0  0  0  0  0  0  0  0  0  0  0  0
    1.3633   -1.5834   -0.7871 H   0  0  0  0  0  0  0  0  0  0  0  0
    1.2325    0.1168   -1.5057 H   0  0  0  0  0  0  0  0  0  0  0  0
  1  2  1  0
  2  3  1  0
  3  4  1  0
  2  5  1  0
  5  6  1  0
  6  7  2  0
  7  8  1  0
  8  9  1  0
  9  5  1  0
  1 10  1  0
  1 11  1  0
  1 12  1  0
  2 13  1  0
  3 14  1  0
  3 15  1  0
  4 16  1  0
  5 17  1  0
  6 18  1  0
  7 19  1  0
  8 20  1  0
  8 21  1  0
  9 22  1  0
  9 23  1  0
M  END
