
     RDKit          3D

 25 24  0  0  0  0  0  0  0  0999 V2000
   -1.5619   -1.1041   -0.7043 C   0  0  0  0  0  0  0  0  0  0  0  0
   -1.2679    0.3204   -0.2329 C   0  0  0  0  0  0  0  0  0  0  0  0
   -2.6221    1.0038   -0.0078 C   0  0  0  0  0  0  0  0  0  0  0  0
   -3.3607    1.0309   -1.1882 O   0  0  0  0  0  0  0  0  0  0  0  0
   -0.4877    0.3043    1.0493 C   0  0  0  0  0  0  0  0  0  0  0  0
    0.8303   -0.3971    0.9251 C   0  0  0  0  0  0  0  0  0  0  0  0
    1.6905    0.2791   -0.1076 C   0  0  0  0  0  0  0  0  0  0  0  0
    3.0318   -0.3938   -0.2661 C   0  0  0  0  0  0  0  0  0  0  0  0
    3.7687   -0.4041    0.8995 O   0  0  0  0  0  0  0  0  0  0  0  0
   -2.6513   -1.2249   -0.9517 H   0  0  0  0  0  0  0  0  0  0  0  0
   -0.9649   -1.2903   -1.6201 H   0  0  0  0  0  0  0  0  0  0  0  0
   -1.3417   -1.7871    0.1237 H   0  0  0  0  0  0  0  0  0  0  0  0
   -0.7399    0.9042   -1.0126 H   0  0  0  0  0  0  0  0  0  0  0  0
   -3.1746    0.3092    0.6841 H   0  0  0  0  0  0  0  0  0  0  0  0
   -2.4809    1.9927    0.4429 H   0  0  0  0  0  0  0  0  0  0  0  0
   -3.2584    1.9178   -1.6197 H   0  0  0  0  0  0  0  0  0  0  0  0
   -1.1157   -0.1452    1.8350 H   0  0  0  0  0  0  0  0  0  0  0  0
   -0.3103    1.3602    1.3418 H   0  0  0  0  0  0  0  0  0  0  0  0
    1.3176   -0.4669    1.9125 H   0  0  0  0  0  0  0  0  0  0  0  0
    0.6096   -1.4532    0.6254 H   0  0  0  0  0  0  0  0  0  0  0  0
    1.1751    0.2183   -1.0866 H   0  0  0  0  0  0  0  0  0  0  0  0
    1.8229    1.3500    0.1335 H   0  0  0  0  0  0  0  0  0  0  0  0
    3.6378    0.1058   -1.0458 H   0  0  0  0  0  0  0  0  0  0  0  0
    2.8956   -1.4440   -0.5948 H   0  0  0  0  0  0  0  0  0  0  0  0
    4.5579   -0.9862    0.7384 H   0  0  0  0  0  0  0  0  0  0  0  0
  1  2  1  0
  2  3  1  0
  3  4  1  0
  2  5  1  0
  5  6  1  0
  6  7  1  0
  7  8  1  0
  8  9  1  0
  1 10  1  0
  1 11  1  0
  1 12  1  0
  2 13  1  0
  3 14  1  0
  3 15  1  0
  4 16  1  0
  5 17  1  0
  5 18  1  0
  6 19  1  0
  6 20  1  0
  7 21  1  0
  7 22  1  0
  8 23  1  0
  8 24  1  0
  9 25  1  0
M  END
