
     RDKit          3D

 27 27  0  0  0  0  0  0  0  0999 V2000
    1.5824    1.3139   -0.6350 C   0  0  0  0  0  0  0  0  0  0  0  0
    1.2926    0.3196    0.4213 C   0  0  0  0  0  0  0  0  0  0  0  0
    2.5152   -0.5927    0.5531 C   0  0  0  0  0  0  0  0  0  0  0  0
    0.1101   -0.5530    0.2107 C   0  0  0  0  0  0  0  0  0  0  0  0
    0.2365   -1.3805   -1.0640 C   0  0  0  0  0  0  0  0  0  0  0  0
   -1.2153    0.1331    0.2279 C   0  0  0  0  0  0  0  0  0  0  0  0
   -1.4805    1.2118   -0.7841 C   0  0  0  0  0  0  0  0  0  0  0  0
   -2.4125   -0.8152    0.5434 C   0  0  0  0  0  0  0  0  0  0  0  0
   -2.0158    0.2357    1.4828 C   0  0  0  0  0  0  0  0  0  0  0  0
    2.6558    1.6435   -0.4973 H   0  0  0  0  0  0  0  0  0  0  0  0
    1.5428    0.9287   -1.6693 H   0  0  0  0  0  0  0  0  0  0  0  0
    0.9977    2.2546   -0.5471 H   0  0  0  0  0  0  0  0  0  0  0  0
    1.1805    0.8466    1.3859 H   0  0  0  0  0  0  0  0  0  0  0  0
    2.2137   -1.6305    0.7897 H   0  0  0  0  0  0  0  0  0  0  0  0
    3.2225   -0.1752    1.3083 H   0  0  0  0  0  0  0  0  0  0  0  0
    3.0776   -0.6104   -0.4047 H   0  0  0  0  0  0  0  0  0  0  0  0
    0.1338   -1.3233    1.0406 H   0  0  0  0  0  0  0  0  0  0  0  0
    0.4176   -0.7717   -1.9479 H   0  0  0  0  0  0  0  0  0  0  0  0
   -0.6956   -1.9656   -1.1668 H   0  0  0  0  0  0  0  0  0  0  0  0
    1.0704   -2.0951   -0.9226 H   0  0  0  0  0  0  0  0  0  0  0  0
   -0.8397    1.1894   -1.6623 H   0  0  0  0  0  0  0  0  0  0  0  0
   -2.5316    1.1266   -1.1330 H   0  0  0  0  0  0  0  0  0  0  0  0
   -1.3826    2.2004   -0.2676 H   0  0  0  0  0  0  0  0  0  0  0  0
   -2.1665   -1.8493    0.8141 H   0  0  0  0  0  0  0  0  0  0  0  0
   -3.2986   -0.7212   -0.1003 H   0  0  0  0  0  0  0  0  0  0  0  0
   -1.4920   -0.0062    2.4280 H   0  0  0  0  0  0  0  0  0  0  0  0
   -2.7185    1.0860    1.5963 H   0  0  0  0  0  0  0  0  0  0  0  0
  1  2  1  0
  2  3  1  0
  2  4  1  0
  4  5  1  0
  4  6  1  0
  6  7  1  0
  6  8  1  0
  8  9  1  0
  9  6  1  0
  1 10  1  0
  1 11  1  0
  1 12  1  0
  2 13  1  0
  3 14  1  0
  3 15  1  0
  3 16  1  0
  4 17  1  0
  5 18  1  0
  5 19  1  0
  5 20  1  0
  7 21  1  0
  7 22  1  0
  7 23  1  0
  8 24  1  0
  8 25  1  0
  9 26  1  0
  9 27  1  0
M  END
