
     RDKit          3D

 19 18  0  0  0  0  0  0  0  0999 V2000
   -1.2731    1.8914   -0.0071 C   0  0  0  0  0  0  0  0  0  0  0  0
   -1.2145    0.5251    0.6597 C   0  0  0  0  0  0  0  0  0  0  0  0
    0.0866   -0.0559    0.3286 C   0  0  0  0  0  0  0  0  0  0  0  0
    1.1512   -0.5403    0.0370 C   0  0  0  0  0  0  0  0  0  0  0  0
    2.4313   -1.1429   -0.3341 C   0  0  0  0  0  0  0  0  0  0  0  0
    3.5611   -0.2520    0.0030 C   0  0  0  0  0  0  0  0  0  0  0  0
    3.3335    0.8165    0.5181 O   0  0  0  0  0  0  0  0  0  0  0  0
   -2.3373   -0.3149    0.0529 C   0  0  0  0  0  0  0  0  0  0  0  0
   -2.3629   -1.5905    0.6050 O   0  0  0  0  0  0  0  0  0  0  0  0
   -1.4571    1.6827   -1.0940 H   0  0  0  0  0  0  0  0  0  0  0  0
   -2.0594    2.5358    0.4148 H   0  0  0  0  0  0  0  0  0  0  0  0
   -0.2718    2.3615    0.1241 H   0  0  0  0  0  0  0  0  0  0  0  0
   -1.3604    0.6284    1.7545 H   0  0  0  0  0  0  0  0  0  0  0  0
    2.6039   -2.1078    0.2204 H   0  0  0  0  0  0  0  0  0  0  0  0
    2.3800   -1.3407   -1.4311 H   0  0  0  0  0  0  0  0  0  0  0  0
    4.5718   -0.5422   -0.2033 H   0  0  0  0  0  0  0  0  0  0  0  0
   -2.1704   -0.4119   -1.0248 H   0  0  0  0  0  0  0  0  0  0  0  0
   -3.3040    0.1539    0.2602 H   0  0  0  0  0  0  0  0  0  0  0  0
   -2.3083   -2.2959   -0.0662 H   0  0  0  0  0  0  0  0  0  0  0  0
  1  2  1  0
  2  3  1  0
  3  4  3  0
  4  5  1  0
  5  6  1  0
  6  7  2  0
  2  8  1  0
  8  9  1  0
  1 10  1  0
  1 11  1  0
  1 12  1  0
  2 13  1  0
  5 14  1  0
  5 15  1  0
  6 16  1  0
  8 17  1  0
  8 18  1  0
  9 19  1  0
M  END
