
     RDKit          3D

 24 23  0  0  0  0  0  0  0  0999 V2000
    1.5753   -1.1242    0.7232 C   0  0  0  0  0  0  0  0  0  0  0  0
    1.2337   -0.1465   -0.3368 C   0  0  0  0  0  0  0  0  0  0  0  0
    2.3937    0.8543   -0.4175 C   0  0  0  0  0  0  0  0  0  0  0  0
   -0.0230    0.6265   -0.1994 C   0  0  0  0  0  0  0  0  0  0  0  0
   -0.0599    1.4796   -1.3451 O   0  0  0  0  0  0  0  0  0  0  0  0
   -1.2911   -0.1693   -0.2537 C   0  0  0  0  0  0  0  0  0  0  0  0
   -2.5000    0.7828   -0.1131 C   0  0  0  0  0  0  0  0  0  0  0  0
   -1.4354   -1.1403    0.8858 C   0  0  0  0  0  0  0  0  0  0  0  0
    1.0296   -2.0667    0.7339 H   0  0  0  0  0  0  0  0  0  0  0  0
    1.5484   -0.6873    1.7524 H   0  0  0  0  0  0  0  0  0  0  0  0
    2.6831   -1.3551    0.5722 H   0  0  0  0  0  0  0  0  0  0  0  0
    1.1873   -0.6348   -1.3577 H   0  0  0  0  0  0  0  0  0  0  0  0
    2.2956    1.6216    0.3842 H   0  0  0  0  0  0  0  0  0  0  0  0
    3.3674    0.3476   -0.2228 H   0  0  0  0  0  0  0  0  0  0  0  0
    2.4343    1.2992   -1.4300 H   0  0  0  0  0  0  0  0  0  0  0  0
   -0.0584    1.3027    0.6701 H   0  0  0  0  0  0  0  0  0  0  0  0
   -0.0260    0.9230   -2.1749 H   0  0  0  0  0  0  0  0  0  0  0  0
   -1.4395   -0.6570   -1.2488 H   0  0  0  0  0  0  0  0  0  0  0  0
   -3.4238    0.1906    0.0459 H   0  0  0  0  0  0  0  0  0  0  0  0
   -2.5835    1.4323   -1.0127 H   0  0  0  0  0  0  0  0  0  0  0  0
   -2.3020    1.3567    0.8155 H   0  0  0  0  0  0  0  0  0  0  0  0
   -2.4910   -1.1491    1.2952 H   0  0  0  0  0  0  0  0  0  0  0  0
   -0.8020   -0.9116    1.7382 H   0  0  0  0  0  0  0  0  0  0  0  0
   -1.3130   -2.1749    0.4960 H   0  0  0  0  0  0  0  0  0  0  0  0
  1  2  1  0
  2  3  1  0
  2  4  1  0
  4  5  1  0
  4  6  1  0
  6  7  1  0
  6  8  1  0
  1  9  1  0
  1 10  1  0
  1 11  1  0
  2 12  1  0
  3 13  1  0
  3 14  1  0
  3 15  1  0
  4 16  1  0
  5 17  1  0
  6 18  1  0
  7 19  1  0
  7 20  1  0
  7 21  1  0
  8 22  1  0
  8 23  1  0
  8 24  1  0
M  END
