
     RDKit          3D

 23 24  0  0  0  0  0  0  0  0999 V2000
    2.1987   -0.9621   -0.5322 C   0  0  0  0  0  0  0  0  0  0  0  0
    1.2094    0.1448   -0.4153 C   0  0  0  0  0  0  0  0  0  0  0  0
    1.8862    1.5055   -0.3282 C   0  0  0  0  0  0  0  0  0  0  0  0
    0.2996   -0.0835    0.7850 C   0  0  0  0  0  0  0  0  0  0  0  0
   -0.7773    0.9956    1.0225 C   0  0  0  0  0  0  0  0  0  0  0  0
   -1.0798   -0.3481    0.5430 C   0  0  0  0  0  0  0  0  0  0  0  0
   -1.7291   -0.6541   -0.7565 C   0  0  0  0  0  0  0  0  0  0  0  0
   -2.8858   -0.8747    0.2265 C   0  0  0  0  0  0  0  0  0  0  0  0
   -1.9012   -1.2413    1.1633 O   0  0  0  0  0  0  0  0  0  0  0  0
    1.6573   -1.9247   -0.4141 H   0  0  0  0  0  0  0  0  0  0  0  0
    2.6320   -0.9219   -1.5684 H   0  0  0  0  0  0  0  0  0  0  0  0
    3.0130   -0.8949    0.2241 H   0  0  0  0  0  0  0  0  0  0  0  0
    0.5945    0.1625   -1.3295 H   0  0  0  0  0  0  0  0  0  0  0  0
    2.7493    1.4688   -1.0167 H   0  0  0  0  0  0  0  0  0  0  0  0
    1.1864    2.2863   -0.7461 H   0  0  0  0  0  0  0  0  0  0  0  0
    2.1940    1.7672    0.6877 H   0  0  0  0  0  0  0  0  0  0  0  0
    0.7989   -0.4699    1.7104 H   0  0  0  0  0  0  0  0  0  0  0  0
   -1.0269    1.2048    2.0962 H   0  0  0  0  0  0  0  0  0  0  0  0
   -0.7940    1.8635    0.3532 H   0  0  0  0  0  0  0  0  0  0  0  0
   -1.8909    0.1602   -1.4655 H   0  0  0  0  0  0  0  0  0  0  0  0
   -1.4213   -1.6198   -1.2084 H   0  0  0  0  0  0  0  0  0  0  0  0
   -3.5733   -1.6749   -0.0540 H   0  0  0  0  0  0  0  0  0  0  0  0
   -3.3395    0.1107    0.4823 H   0  0  0  0  0  0  0  0  0  0  0  0
  1  2  1  0
  2  3  1  0
  2  4  1  0
  4  5  1  0
  5  6  1  0
  6  7  1  0
  7  8  1  0
  8  9  1  0
  6  4  1  0
  9  6  1  0
  1 10  1  0
  1 11  1  0
  1 12  1  0
  2 13  1  0
  3 14  1  0
  3 15  1  0
  3 16  1  0
  4 17  1  0
  5 18  1  0
  5 19  1  0
  7 20  1  0
  7 21  1  0
  8 22  1  0
  8 23  1  0
M  END
