
     RDKit          3D

 25 25  0  0  0  0  0  0  0  0999 V2000
   -1.9745   -1.0103   -0.0155 C   0  0  0  0  0  0  0  0  0  0  0  0
   -1.0190    0.1652   -0.0616 C   0  0  0  0  0  0  0  0  0  0  0  0
   -1.5591    1.1105   -1.1428 C   0  0  0  0  0  0  0  0  0  0  0  0
   -1.0923    0.8861    1.2344 C   0  0  0  0  0  0  0  0  0  0  0  0
    0.3191   -0.3216   -0.4711 C   0  0  0  0  0  0  0  0  0  0  0  0
    0.9064   -1.3733    0.4951 C   0  0  0  0  0  0  0  0  0  0  0  0
    1.5764   -0.0811    0.2298 C   0  0  0  0  0  0  0  0  0  0  0  0
    2.8557   -0.1656   -0.5817 C   0  0  0  0  0  0  0  0  0  0  0  0
    1.6848    0.7747    1.3198 O   0  0  0  0  0  0  0  0  0  0  0  0
   -2.3227   -1.1998    1.0360 H   0  0  0  0  0  0  0  0  0  0  0  0
   -2.8981   -0.8320   -0.6019 H   0  0  0  0  0  0  0  0  0  0  0  0
   -1.5111   -1.9264   -0.4316 H   0  0  0  0  0  0  0  0  0  0  0  0
   -0.6621    1.5484   -1.6536 H   0  0  0  0  0  0  0  0  0  0  0  0
   -2.0863    0.5105   -1.9120 H   0  0  0  0  0  0  0  0  0  0  0  0
   -2.1704    1.9091   -0.7096 H   0  0  0  0  0  0  0  0  0  0  0  0
   -0.8626    1.9868    1.1360 H   0  0  0  0  0  0  0  0  0  0  0  0
   -2.1824    0.8794    1.5375 H   0  0  0  0  0  0  0  0  0  0  0  0
   -0.5542    0.4241    2.0674 H   0  0  0  0  0  0  0  0  0  0  0  0
    0.3853   -0.6145   -1.5444 H   0  0  0  0  0  0  0  0  0  0  0  0
    0.4188   -1.5191    1.4620 H   0  0  0  0  0  0  0  0  0  0  0  0
    1.2681   -2.3188    0.0363 H   0  0  0  0  0  0  0  0  0  0  0  0
    3.6420    0.5118   -0.2191 H   0  0  0  0  0  0  0  0  0  0  0  0
    2.6286    0.1720   -1.6324 H   0  0  0  0  0  0  0  0  0  0  0  0
    3.2770   -1.1849   -0.6090 H   0  0  0  0  0  0  0  0  0  0  0  0
    1.9327    1.6688    1.0321 H   0  0  0  0  0  0  0  0  0  0  0  0
  1  2  1  0
  2  3  1  0
  2  4  1  0
  2  5  1  0
  5  6  1  0
  6  7  1  0
  7  8  1  0
  7  9  1  0
  7  5  1  0
  1 10  1  0
  1 11  1  0
  1 12  1  0
  3 13  1  0
  3 14  1  0
  3 15  1  0
  4 16  1  0
  4 17  1  0
  4 18  1  0
  5 19  1  0
  6 20  1  0
  6 21  1  0
  8 22  1  0
  8 23  1  0
  8 24  1  0
  9 25  1  0
M  END
