
     RDKit          3D

 21 20  0  0  0  0  0  0  0  0999 V2000
    1.3149    0.8334    1.1256 C   0  0  0  0  0  0  0  0  0  0  0  0
    0.8935   -0.3007    0.2440 C   0  0  0  0  0  0  0  0  0  0  0  0
    1.7920   -0.3303   -0.9309 C   0  0  0  0  0  0  0  0  0  0  0  0
    2.9872   -0.2131   -0.7418 O   0  0  0  0  0  0  0  0  0  0  0  0
   -0.5627   -0.2373   -0.1435 C   0  0  0  0  0  0  0  0  0  0  0  0
   -1.4074   -0.2834    1.1123 C   0  0  0  0  0  0  0  0  0  0  0  0
   -0.9067    1.0361   -0.8690 C   0  0  0  0  0  0  0  0  0  0  0  0
   -0.9169   -1.4359   -0.9488 C   0  0  0  0  0  0  0  0  0  0  0  0
   -0.9726   -1.3473   -2.1635 O   0  0  0  0  0  0  0  0  0  0  0  0
    2.2668    0.5168    1.6293 H   0  0  0  0  0  0  0  0  0  0  0  0
    0.6039    1.0801    1.9256 H   0  0  0  0  0  0  0  0  0  0  0  0
    1.6102    1.7516    0.5388 H   0  0  0  0  0  0  0  0  0  0  0  0
    1.0697   -1.2412    0.8076 H   0  0  0  0  0  0  0  0  0  0  0  0
    1.4131   -0.4499   -1.9138 H   0  0  0  0  0  0  0  0  0  0  0  0
   -2.4614   -0.4699    0.7707 H   0  0  0  0  0  0  0  0  0  0  0  0
   -1.4009    0.6503    1.6743 H   0  0  0  0  0  0  0  0  0  0  0  0
   -1.1534   -1.1826    1.7414 H   0  0  0  0  0  0  0  0  0  0  0  0
   -1.3874    0.7481   -1.8480 H   0  0  0  0  0  0  0  0  0  0  0  0
   -0.0082    1.6202   -1.1521 H   0  0  0  0  0  0  0  0  0  0  0  0
   -1.6397    1.6619   -0.3415 H   0  0  0  0  0  0  0  0  0  0  0  0
   -1.1342   -2.4067   -0.5170 H   0  0  0  0  0  0  0  0  0  0  0  0
  1  2  1  0
  2  3  1  0
  3  4  2  0
  2  5  1  0
  5  6  1  0
  5  7  1  0
  5  8  1  0
  8  9  2  0
  1 10  1  0
  1 11  1  0
  1 12  1  0
  2 13  1  0
  3 14  1  0
  6 15  1  0
  6 16  1  0
  6 17  1  0
  7 18  1  0
  7 19  1  0
  7 20  1  0
  8 21  1  0
M  END
