
     RDKit          3D

 23 23  0  0  0  0  0  0  0  0999 V2000
    2.3883   -0.5747    0.0147 C   0  0  0  0  0  0  0  0  0  0  0  0
    1.2099    0.2769   -0.4224 C   0  0  0  0  0  0  0  0  0  0  0  0
    1.0451    1.3763    0.5679 C   0  0  0  0  0  0  0  0  0  0  0  0
   -0.0407   -0.5396   -0.5771 C   0  0  0  0  0  0  0  0  0  0  0  0
   -0.4405   -1.2058    0.6874 C   0  0  0  0  0  0  0  0  0  0  0  0
   -1.5734   -0.7088    1.1683 C   0  0  0  0  0  0  0  0  0  0  0  0
   -2.1019    0.3756    0.2836 C   0  0  0  0  0  0  0  0  0  0  0  0
   -1.1931    0.3461   -0.9104 C   0  0  0  0  0  0  0  0  0  0  0  0
   -1.9421   -0.1931   -1.9801 O   0  0  0  0  0  0  0  0  0  0  0  0
    3.1518    0.1245    0.4244 H   0  0  0  0  0  0  0  0  0  0  0  0
    2.1011   -1.2406    0.8642 H   0  0  0  0  0  0  0  0  0  0  0  0
    2.8562   -1.1180   -0.8126 H   0  0  0  0  0  0  0  0  0  0  0  0
    1.4859    0.7063   -1.4066 H   0  0  0  0  0  0  0  0  0  0  0  0
    0.1477    1.9820    0.3859 H   0  0  0  0  0  0  0  0  0  0  0  0
    1.1142    0.9891    1.6019 H   0  0  0  0  0  0  0  0  0  0  0  0
    1.9221    2.0721    0.4383 H   0  0  0  0  0  0  0  0  0  0  0  0
    0.0874   -1.2980   -1.3587 H   0  0  0  0  0  0  0  0  0  0  0  0
    0.1002   -2.0040    1.1876 H   0  0  0  0  0  0  0  0  0  0  0  0
   -2.0554   -1.0388    2.0773 H   0  0  0  0  0  0  0  0  0  0  0  0
   -2.1327    1.3538    0.7914 H   0  0  0  0  0  0  0  0  0  0  0  0
   -3.1639    0.1240    0.0197 H   0  0  0  0  0  0  0  0  0  0  0  0
   -0.8901    1.3636   -1.2576 H   0  0  0  0  0  0  0  0  0  0  0  0
   -2.0762   -1.1688   -1.7869 H   0  0  0  0  0  0  0  0  0  0  0  0
  1  2  1  0
  2  3  1  0
  2  4  1  0
  4  5  1  0
  5  6  2  0
  6  7  1  0
  7  8  1  0
  8  9  1  0
  8  4  1  0
  1 10  1  0
  1 11  1  0
  1 12  1  0
  2 13  1  0
  3 14  1  0
  3 15  1  0
  3 16  1  0
  4 17  1  0
  5 18  1  0
  6 19  1  0
  7 20  1  0
  7 21  1  0
  8 22  1  0
  9 23  1  0
M  END
