
     RDKit          3D

 23 24  0  0  0  0  0  0  0  0999 V2000
   -1.1397   -2.1867   -0.0630 C   0  0  0  0  0  0  0  0  0  0  0  0
   -0.8959   -0.6721    0.2922 C   0  0  0  0  0  0  0  0  0  0  0  0
    0.5734   -0.5240    0.1960 C   0  0  0  0  0  0  0  0  0  0  0  0
    1.1955    0.7877    0.4894 C   0  0  0  0  0  0  0  0  0  0  0  0
    2.6855    0.8293    0.3710 C   0  0  0  0  0  0  0  0  0  0  0  0
    2.0344    0.9479    1.7367 C   0  0  0  0  0  0  0  0  0  0  0  0
   -1.7518    0.0701   -0.6522 C   0  0  0  0  0  0  0  0  0  0  0  0
   -1.9825    1.4574   -0.7979 C   0  0  0  0  0  0  0  0  0  0  0  0
   -2.8414    0.7509    0.0821 O   0  0  0  0  0  0  0  0  0  0  0  0
   -2.2132   -2.3811   -0.1137 H   0  0  0  0  0  0  0  0  0  0  0  0
   -0.7178   -2.3175   -1.0783 H   0  0  0  0  0  0  0  0  0  0  0  0
   -0.6352   -2.7725    0.7143 H   0  0  0  0  0  0  0  0  0  0  0  0
   -1.2581   -0.5968    1.3321 H   0  0  0  0  0  0  0  0  0  0  0  0
    0.9365   -0.8709   -0.8249 H   0  0  0  0  0  0  0  0  0  0  0  0
    1.0374   -1.3094    0.8723 H   0  0  0  0  0  0  0  0  0  0  0  0
    0.6552    1.7044    0.1784 H   0  0  0  0  0  0  0  0  0  0  0  0
    3.2303   -0.1120    0.1431 H   0  0  0  0  0  0  0  0  0  0  0  0
    3.2050    1.7325    0.0110 H   0  0  0  0  0  0  0  0  0  0  0  0
    2.0146    1.9345    2.2354 H   0  0  0  0  0  0  0  0  0  0  0  0
    2.1674    0.0517    2.4069 H   0  0  0  0  0  0  0  0  0  0  0  0
   -2.2778   -0.6053   -1.4078 H   0  0  0  0  0  0  0  0  0  0  0  0
   -1.4343    2.2924   -0.3599 H   0  0  0  0  0  0  0  0  0  0  0  0
   -2.5878    1.7895   -1.6995 H   0  0  0  0  0  0  0  0  0  0  0  0
  1  2  1  0
  2  3  1  0
  3  4  1  0
  4  5  1  0
  5  6  1  0
  2  7  1  0
  7  8  1  0
  8  9  1  0
  6  4  1  0
  9  7  1  0
  1 10  1  0
  1 11  1  0
  1 12  1  0
  2 13  1  0
  3 14  1  0
  3 15  1  0
  4 16  1  0
  5 17  1  0
  5 18  1  0
  6 19  1  0
  6 20  1  0
  7 21  1  0
  8 22  1  0
  8 23  1  0
M  END
