
     RDKit          3D

 25 24  0  0  0  0  0  0  0  0999 V2000
    1.9558    1.3179    0.1026 C   0  0  0  0  0  0  0  0  0  0  0  0
    1.0467    0.3011   -0.5640 C   0  0  0  0  0  0  0  0  0  0  0  0
    1.9786   -0.7964   -1.1001 C   0  0  0  0  0  0  0  0  0  0  0  0
    2.6116   -1.3250    0.0381 O   0  0  0  0  0  0  0  0  0  0  0  0
    0.1739   -0.3021    0.2916 O   0  0  0  0  0  0  0  0  0  0  0  0
   -1.1546   -0.1583   -0.0072 C   0  0  0  0  0  0  0  0  0  0  0  0
   -1.5485   -0.7097   -1.3488 C   0  0  0  0  0  0  0  0  0  0  0  0
   -1.9461   -0.9278    1.0461 C   0  0  0  0  0  0  0  0  0  0  0  0
   -1.5342    1.3059    0.0132 C   0  0  0  0  0  0  0  0  0  0  0  0
    2.3559    2.0116   -0.6950 H   0  0  0  0  0  0  0  0  0  0  0  0
    2.8785    0.8153    0.5033 H   0  0  0  0  0  0  0  0  0  0  0  0
    1.4660    1.8561    0.9197 H   0  0  0  0  0  0  0  0  0  0  0  0
    0.5623    0.8381   -1.4034 H   0  0  0  0  0  0  0  0  0  0  0  0
    2.7100   -0.3079   -1.7546 H   0  0  0  0  0  0  0  0  0  0  0  0
    1.3631   -1.5602   -1.6044 H   0  0  0  0  0  0  0  0  0  0  0  0
    3.5562   -1.5208   -0.1589 H   0  0  0  0  0  0  0  0  0  0  0  0
   -2.6581   -0.5704   -1.4329 H   0  0  0  0  0  0  0  0  0  0  0  0
   -1.3972   -1.8165   -1.4035 H   0  0  0  0  0  0  0  0  0  0  0  0
   -1.1004   -0.1973   -2.1976 H   0  0  0  0  0  0  0  0  0  0  0  0
   -2.5803   -1.7158    0.5950 H   0  0  0  0  0  0  0  0  0  0  0  0
   -2.5636   -0.2209    1.6641 H   0  0  0  0  0  0  0  0  0  0  0  0
   -1.2818   -1.4397    1.7695 H   0  0  0  0  0  0  0  0  0  0  0  0
   -1.9601    1.6075    1.0112 H   0  0  0  0  0  0  0  0  0  0  0  0
   -2.2675    1.5448   -0.8089 H   0  0  0  0  0  0  0  0  0  0  0  0
   -0.6658    1.9708   -0.1772 H   0  0  0  0  0  0  0  0  0  0  0  0
  1  2  1  0
  2  3  1  0
  3  4  1  0
  2  5  1  0
  5  6  1  0
  6  7  1  0
  6  8  1  0
  6  9  1  0
  1 10  1  0
  1 11  1  0
  1 12  1  0
  2 13  1  0
  3 14  1  0
  3 15  1  0
  4 16  1  0
  7 17  1  0
  7 18  1  0
  7 19  1  0
  8 20  1  0
  8 21  1  0
  8 22  1  0
  9 23  1  0
  9 24  1  0
  9 25  1  0
M  END
