
     RDKit          3D

 19 19  0  0  0  0  0  0  0  0999 V2000
   -1.2283   -0.2062    1.3324 C   0  0  0  0  0  0  0  0  0  0  0  0
   -0.5562   -0.5644    0.0474 C   0  0  0  0  0  0  0  0  0  0  0  0
   -1.1429    0.2250   -1.0979 C   0  0  0  0  0  0  0  0  0  0  0  0
   -2.4986   -0.0365   -1.2287 O   0  0  0  0  0  0  0  0  0  0  0  0
    0.9212   -0.4559    0.1228 C   0  0  0  0  0  0  0  0  0  0  0  0
    1.5261    0.8588    0.4475 C   0  0  0  0  0  0  0  0  0  0  0  0
    2.5998    0.3127   -0.4236 C   0  0  0  0  0  0  0  0  0  0  0  0
    3.8419    0.3404   -0.5707 O   0  0  0  0  0  0  0  0  0  0  0  0
    1.5912   -0.3362   -1.1216 O   0  0  0  0  0  0  0  0  0  0  0  0
   -1.0266    0.8482    1.6024 H   0  0  0  0  0  0  0  0  0  0  0  0
   -0.8916   -0.9153    2.1251 H   0  0  0  0  0  0  0  0  0  0  0  0
   -2.3245   -0.2948    1.1856 H   0  0  0  0  0  0  0  0  0  0  0  0
   -0.7986   -1.6397   -0.1618 H   0  0  0  0  0  0  0  0  0  0  0  0
   -1.0555    1.3111   -0.8493 H   0  0  0  0  0  0  0  0  0  0  0  0
   -0.5933    0.0613   -2.0355 H   0  0  0  0  0  0  0  0  0  0  0  0
   -2.6439   -0.9839   -1.5311 H   0  0  0  0  0  0  0  0  0  0  0  0
    1.3729   -1.2797    0.7016 H   0  0  0  0  0  0  0  0  0  0  0  0
    1.8334    1.0203    1.4989 H   0  0  0  0  0  0  0  0  0  0  0  0
    1.0734    1.7348   -0.0436 H   0  0  0  0  0  0  0  0  0  0  0  0
  1  2  1  0
  2  3  1  0
  3  4  1  0
  2  5  1  0
  5  6  1  0
  6  7  1  0
  7  8  2  0
  7  9  1  0
  9  5  1  0
  1 10  1  0
  1 11  1  0
  1 12  1  0
  2 13  1  0
  3 14  1  0
  3 15  1  0
  4 16  1  0
  5 17  1  0
  6 18  1  0
  6 19  1  0
M  END
