
     RDKit          3D

 17 16  0  0  0  0  0  0  0  0999 V2000
   -0.7190    1.3010    0.2133 C   0  0  0  0  0  0  0  0  0  0  0  0
   -0.2060   -0.0864   -0.0131 C   0  0  0  0  0  0  0  0  0  0  0  0
   -0.4490   -0.8811    1.2532 C   0  0  0  0  0  0  0  0  0  0  0  0
   -0.8936   -0.7862   -1.1292 C   0  0  0  0  0  0  0  0  0  0  0  0
   -1.3733   -0.2112   -2.0917 O   0  0  0  0  0  0  0  0  0  0  0  0
    1.2766   -0.1105   -0.3225 C   0  0  0  0  0  0  0  0  0  0  0  0
    1.5815    0.6151   -1.4634 O   0  0  0  0  0  0  0  0  0  0  0  0
   -0.0565    1.7852    0.9593 H   0  0  0  0  0  0  0  0  0  0  0  0
   -0.7747    1.8730   -0.7333 H   0  0  0  0  0  0  0  0  0  0  0  0
   -1.7197    1.2064    0.7121 H   0  0  0  0  0  0  0  0  0  0  0  0
    0.4484   -1.4855    1.5137 H   0  0  0  0  0  0  0  0  0  0  0  0
   -0.6017   -0.1936    2.1337 H   0  0  0  0  0  0  0  0  0  0  0  0
   -1.3672   -1.5040    1.1841 H   0  0  0  0  0  0  0  0  0  0  0  0
   -0.9695   -1.8747   -1.0774 H   0  0  0  0  0  0  0  0  0  0  0  0
    1.6468   -1.1437   -0.4768 H   0  0  0  0  0  0  0  0  0  0  0  0
    1.8339    0.2828    0.5751 H   0  0  0  0  0  0  0  0  0  0  0  0
    2.3428    1.2134   -1.2371 H   0  0  0  0  0  0  0  0  0  0  0  0
  1  2  1  0
  2  3  1  0
  2  4  1  0
  4  5  2  0
  2  6  1  0
  6  7  1  0
  1  8  1  0
  1  9  1  0
  1 10  1  0
  3 11  1  0
  3 12  1  0
  3 13  1  0
  4 14  1  0
  6 15  1  0
  6 16  1  0
  7 17  1  0
M  END
