
     RDKit          3D

 23 23  0  0  0  0  0  0  0  0999 V2000
   -0.9447   -1.5282    1.1317 C   0  0  0  0  0  0  0  0  0  0  0  0
   -0.3718   -0.8478   -0.0653 C   0  0  0  0  0  0  0  0  0  0  0  0
   -1.3978   -0.4786   -1.1058 C   0  0  0  0  0  0  0  0  0  0  0  0
   -2.4508    0.4567   -0.5884 C   0  0  0  0  0  0  0  0  0  0  0  0
   -1.9239    1.6587   -0.1325 O   0  0  0  0  0  0  0  0  0  0  0  0
    0.4022    0.2553    0.2798 O   0  0  0  0  0  0  0  0  0  0  0  0
    1.7405    0.1005   -0.0882 C   0  0  0  0  0  0  0  0  0  0  0  0
    2.8125    0.6636    0.8086 C   0  0  0  0  0  0  0  0  0  0  0  0
    2.5327    1.2787   -0.5353 C   0  0  0  0  0  0  0  0  0  0  0  0
   -0.0904   -1.9968    1.6886 H   0  0  0  0  0  0  0  0  0  0  0  0
   -1.4403   -0.8572    1.8498 H   0  0  0  0  0  0  0  0  0  0  0  0
   -1.5880   -2.3609    0.8119 H   0  0  0  0  0  0  0  0  0  0  0  0
    0.3240   -1.5768   -0.5598 H   0  0  0  0  0  0  0  0  0  0  0  0
   -1.8759   -1.3605   -1.5306 H   0  0  0  0  0  0  0  0  0  0  0  0
   -0.8489    0.0603   -1.9112 H   0  0  0  0  0  0  0  0  0  0  0  0
   -3.0489    0.0258    0.2378 H   0  0  0  0  0  0  0  0  0  0  0  0
   -3.1177    0.7037   -1.4403 H   0  0  0  0  0  0  0  0  0  0  0  0
   -2.3174    1.9459    0.7246 H   0  0  0  0  0  0  0  0  0  0  0  0
    1.9813   -0.8510   -0.5863 H   0  0  0  0  0  0  0  0  0  0  0  0
    3.7602    0.0852    0.9527 H   0  0  0  0  0  0  0  0  0  0  0  0
    2.5285    1.2473    1.7055 H   0  0  0  0  0  0  0  0  0  0  0  0
    2.0163    2.2547   -0.5790 H   0  0  0  0  0  0  0  0  0  0  0  0
    3.3183    1.1214   -1.3021 H   0  0  0  0  0  0  0  0  0  0  0  0
  1  2  1  0
  2  3  1  0
  3  4  1  0
  4  5  1  0
  2  6  1  0
  6  7  1  0
  7  8  1  0
  8  9  1  0
  9  7  1  0
  1 10  1  0
  1 11  1  0
  1 12  1  0
  2 13  1  0
  3 14  1  0
  3 15  1  0
  4 16  1  0
  4 17  1  0
  5 18  1  0
  7 19  1  0
  8 20  1  0
  8 21  1  0
  9 22  1  0
  9 23  1  0
M  END
