
     RDKit          3D

 23 22  0  0  0  0  0  0  0  0999 V2000
   -1.0642   -0.4499   -1.4017 C   0  0  0  0  0  0  0  0  0  0  0  0
   -0.8151   -0.0615    0.0602 C   0  0  0  0  0  0  0  0  0  0  0  0
   -0.9993    1.4297    0.1725 C   0  0  0  0  0  0  0  0  0  0  0  0
   -1.7954   -0.7259    0.9771 C   0  0  0  0  0  0  0  0  0  0  0  0
    0.6243   -0.4626    0.3797 C   0  0  0  0  0  0  0  0  0  0  0  0
    0.8509   -0.1098    1.7086 O   0  0  0  0  0  0  0  0  0  0  0  0
    1.5123    0.3391   -0.5413 C   0  0  0  0  0  0  0  0  0  0  0  0
    2.9520    0.0343   -0.3244 C   0  0  0  0  0  0  0  0  0  0  0  0
    3.3671   -0.7520    0.4824 O   0  0  0  0  0  0  0  0  0  0  0  0
   -2.1841   -0.4216   -1.5120 H   0  0  0  0  0  0  0  0  0  0  0  0
   -0.6740    0.3127   -2.0772 H   0  0  0  0  0  0  0  0  0  0  0  0
   -0.7258   -1.4789   -1.6115 H   0  0  0  0  0  0  0  0  0  0  0  0
   -0.6718    1.9834   -0.7203 H   0  0  0  0  0  0  0  0  0  0  0  0
   -2.1012    1.5928    0.3448 H   0  0  0  0  0  0  0  0  0  0  0  0
   -0.5085    1.8015    1.1076 H   0  0  0  0  0  0  0  0  0  0  0  0
   -2.2280   -0.0186    1.7208 H   0  0  0  0  0  0  0  0  0  0  0  0
   -2.6238   -1.1475    0.3643 H   0  0  0  0  0  0  0  0  0  0  0  0
   -1.3371   -1.5512    1.5744 H   0  0  0  0  0  0  0  0  0  0  0  0
    0.7882   -1.5237    0.1675 H   0  0  0  0  0  0  0  0  0  0  0  0
    1.4048   -0.7862    2.1292 H   0  0  0  0  0  0  0  0  0  0  0  0
    1.2824    1.4173   -0.4692 H   0  0  0  0  0  0  0  0  0  0  0  0
    1.2845    0.0155   -1.5901 H   0  0  0  0  0  0  0  0  0  0  0  0
    3.6618    0.5632   -0.9414 H   0  0  0  0  0  0  0  0  0  0  0  0
  1  2  1  0
  2  3  1  0
  2  4  1  0
  2  5  1  0
  5  6  1  0
  5  7  1  0
  7  8  1  0
  8  9  2  0
  1 10  1  0
  1 11  1  0
  1 12  1  0
  3 13  1  0
  3 14  1  0
  3 15  1  0
  4 16  1  0
  4 17  1  0
  4 18  1  0
  5 19  1  0
  6 20  1  0
  7 21  1  0
  7 22  1  0
  8 23  1  0
M  END
