
     RDKit          3D

 23 24  0  0  0  0  0  0  0  0999 V2000
    1.8002   -0.7030    1.0396 C   0  0  0  0  0  0  0  0  0  0  0  0
    0.9048    0.4240    0.5432 C   0  0  0  0  0  0  0  0  0  0  0  0
    1.8576    1.4413   -0.1005 C   0  0  0  0  0  0  0  0  0  0  0  0
    0.0250   -0.0823   -0.5540 C   0  0  0  0  0  0  0  0  0  0  0  0
    0.6276   -0.5786   -1.6740 O   0  0  0  0  0  0  0  0  0  0  0  0
   -0.1850   -1.4123   -0.9372 C   0  0  0  0  0  0  0  0  0  0  0  0
   -1.6824   -1.2244   -0.9449 C   0  0  0  0  0  0  0  0  0  0  0  0
   -1.4132    0.2584   -0.6433 C   0  0  0  0  0  0  0  0  0  0  0  0
   -2.1033    0.7344    0.5896 C   0  0  0  0  0  0  0  0  0  0  0  0
    2.4206   -0.3352    1.8965 H   0  0  0  0  0  0  0  0  0  0  0  0
    2.5058   -0.9956    0.2448 H   0  0  0  0  0  0  0  0  0  0  0  0
    1.2373   -1.5711    1.3941 H   0  0  0  0  0  0  0  0  0  0  0  0
    0.3943    0.9500    1.3460 H   0  0  0  0  0  0  0  0  0  0  0  0
    1.2730    2.1802   -0.6749 H   0  0  0  0  0  0  0  0  0  0  0  0
    2.4544    1.8589    0.7071 H   0  0  0  0  0  0  0  0  0  0  0  0
    2.5609    0.8911   -0.7734 H   0  0  0  0  0  0  0  0  0  0  0  0
    0.2703   -2.3316   -0.5786 H   0  0  0  0  0  0  0  0  0  0  0  0
   -2.1447   -1.7247   -0.0847 H   0  0  0  0  0  0  0  0  0  0  0  0
   -2.1914   -1.3304   -1.8986 H   0  0  0  0  0  0  0  0  0  0  0  0
   -1.6585    0.9251   -1.5022 H   0  0  0  0  0  0  0  0  0  0  0  0
   -1.7405    1.7667    0.8038 H   0  0  0  0  0  0  0  0  0  0  0  0
   -2.0078    0.0733    1.4531 H   0  0  0  0  0  0  0  0  0  0  0  0
   -3.2053    0.7858    0.3486 H   0  0  0  0  0  0  0  0  0  0  0  0
  1  2  1  0
  2  3  1  0
  2  4  1  0
  4  5  1  0
  5  6  1  0
  6  7  1  0
  7  8  1  0
  8  9  1  0
  6  4  1  0
  8  4  1  0
  1 10  1  0
  1 11  1  0
  1 12  1  0
  2 13  1  0
  3 14  1  0
  3 15  1  0
  3 16  1  0
  6 17  1  0
  7 18  1  0
  7 19  1  0
  8 20  1  0
  9 21  1  0
  9 22  1  0
  9 23  1  0
M  END
