
     RDKit          3D

 23 24  0  0  0  0  0  0  0  0999 V2000
    1.9960    1.1069   -0.4250 C   0  0  0  0  0  0  0  0  0  0  0  0
    1.0111    0.3470    0.4531 C   0  0  0  0  0  0  0  0  0  0  0  0
    1.8422   -0.7519    1.1329 C   0  0  0  0  0  0  0  0  0  0  0  0
   -0.0455   -0.3313   -0.3305 C   0  0  0  0  0  0  0  0  0  0  0  0
   -1.0880   -1.1170    0.3466 C   0  0  0  0  0  0  0  0  0  0  0  0
   -1.8725   -0.9583   -0.9452 C   0  0  0  0  0  0  0  0  0  0  0  0
   -1.2996    0.4251   -0.6685 C   0  0  0  0  0  0  0  0  0  0  0  0
   -1.4321    1.4409   -1.3818 O   0  0  0  0  0  0  0  0  0  0  0  0
   -1.7365    0.1799    0.7356 C   0  0  0  0  0  0  0  0  0  0  0  0
    1.7777    2.2090   -0.3482 H   0  0  0  0  0  0  0  0  0  0  0  0
    3.0485    0.9275   -0.1227 H   0  0  0  0  0  0  0  0  0  0  0  0
    1.8987    0.7397   -1.4694 H   0  0  0  0  0  0  0  0  0  0  0  0
    0.6769    1.0034    1.2549 H   0  0  0  0  0  0  0  0  0  0  0  0
    2.1882   -1.4110    0.3089 H   0  0  0  0  0  0  0  0  0  0  0  0
    2.7340   -0.3104    1.6423 H   0  0  0  0  0  0  0  0  0  0  0  0
    1.2188   -1.2956    1.8679 H   0  0  0  0  0  0  0  0  0  0  0  0
    0.3417   -0.8080   -1.2639 H   0  0  0  0  0  0  0  0  0  0  0  0
   -1.0315   -1.9549    0.8885 H   0  0  0  0  0  0  0  0  0  0  0  0
   -1.3801   -1.4485   -1.7852 H   0  0  0  0  0  0  0  0  0  0  0  0
   -2.9492   -1.0621   -0.8271 H   0  0  0  0  0  0  0  0  0  0  0  0
   -1.7446    2.2918   -0.9378 H   0  0  0  0  0  0  0  0  0  0  0  0
   -1.3043    0.7713    1.5331 H   0  0  0  0  0  0  0  0  0  0  0  0
   -2.8499    0.0065    0.8356 H   0  0  0  0  0  0  0  0  0  0  0  0
  1  2  1  0
  2  3  1  0
  2  4  1  0
  4  5  1  0
  5  6  1  0
  6  7  1  0
  7  8  1  0
  7  9  1  0
  7  4  1  0
  9  5  1  0
  1 10  1  0
  1 11  1  0
  1 12  1  0
  2 13  1  0
  3 14  1  0
  3 15  1  0
  3 16  1  0
  4 17  1  0
  5 18  1  0
  6 19  1  0
  6 20  1  0
  8 21  1  0
  9 22  1  0
  9 23  1  0
M  END
