
     RDKit          3D

 17 16  0  0  0  0  0  0  0  0999 V2000
   -1.1267    1.2398   -0.4670 C   0  0  0  0  0  0  0  0  0  0  0  0
   -0.5059   -0.0779   -0.0668 C   0  0  0  0  0  0  0  0  0  0  0  0
   -1.6707   -1.0530    0.1373 C   0  0  0  0  0  0  0  0  0  0  0  0
    0.4023   -0.5518   -0.9862 O   0  0  0  0  0  0  0  0  0  0  0  0
    1.6449   -0.7049   -0.4086 C   0  0  0  0  0  0  0  0  0  0  0  0
    2.1855    0.5697    0.1273 C   0  0  0  0  0  0  0  0  0  0  0  0
    3.2585    0.6735    0.6761 O   0  0  0  0  0  0  0  0  0  0  0  0
   -0.4933    1.8498   -1.1132 H   0  0  0  0  0  0  0  0  0  0  0  0
   -1.3823    1.8016    0.4776 H   0  0  0  0  0  0  0  0  0  0  0  0
   -2.1093    1.0845   -0.9707 H   0  0  0  0  0  0  0  0  0  0  0  0
   -0.0057    0.0592    0.9013 H   0  0  0  0  0  0  0  0  0  0  0  0
   -2.0037   -1.4884   -0.8045 H   0  0  0  0  0  0  0  0  0  0  0  0
   -1.2941   -1.8349    0.8222 H   0  0  0  0  0  0  0  0  0  0  0  0
   -2.5284   -0.5004    0.5851 H   0  0  0  0  0  0  0  0  0  0  0  0
    2.3918   -1.1023   -1.1386 H   0  0  0  0  0  0  0  0  0  0  0  0
    1.6486   -1.4287    0.4342 H   0  0  0  0  0  0  0  0  0  0  0  0
    1.5883    1.4644    0.0240 H   0  0  0  0  0  0  0  0  0  0  0  0
  1  2  1  0
  2  3  1  0
  2  4  1  0
  4  5  1  0
  5  6  1  0
  6  7  2  0
  1  8  1  0
  1  9  1  0
  1 10  1  0
  2 11  1  0
  3 12  1  0
  3 13  1  0
  3 14  1  0
  5 15  1  0
  5 16  1  0
  6 17  1  0
M  END
