
     RDKit          3D

 19 18  0  0  0  0  0  0  0  0999 V2000
    0.3435    1.7667   -0.3323 C   0  0  0  0  0  0  0  0  0  0  0  0
   -0.0091    0.3155    0.0329 C   0  0  0  0  0  0  0  0  0  0  0  0
   -0.3722    0.3286    1.5008 C   0  0  0  0  0  0  0  0  0  0  0  0
    1.2810   -0.4552   -0.1324 C   0  0  0  0  0  0  0  0  0  0  0  0
    1.1951   -1.7924    0.1476 O   0  0  0  0  0  0  0  0  0  0  0  0
   -1.0962   -0.1197   -0.8387 C   0  0  0  0  0  0  0  0  0  0  0  0
   -1.5505    0.6597   -1.7144 O   0  0  0  0  0  0  0  0  0  0  0  0
   -1.7151   -1.4404   -0.7646 C   0  0  0  0  0  0  0  0  0  0  0  0
   -1.3629   -2.3232    0.0729 O   0  0  0  0  0  0  0  0  0  0  0  0
    1.3185    1.9566    0.1685 H   0  0  0  0  0  0  0  0  0  0  0  0
   -0.3859    2.4712    0.0646 H   0  0  0  0  0  0  0  0  0  0  0  0
    0.4781    1.7955   -1.4218 H   0  0  0  0  0  0  0  0  0  0  0  0
   -1.3403    0.8276    1.6209 H   0  0  0  0  0  0  0  0  0  0  0  0
   -0.3347   -0.6777    1.9558 H   0  0  0  0  0  0  0  0  0  0  0  0
    0.4160    0.9345    2.0101 H   0  0  0  0  0  0  0  0  0  0  0  0
    1.6690   -0.2833   -1.1788 H   0  0  0  0  0  0  0  0  0  0  0  0
    2.0256    0.0267    0.5348 H   0  0  0  0  0  0  0  0  0  0  0  0
    1.9569   -2.2452   -0.3008 H   0  0  0  0  0  0  0  0  0  0  0  0
   -2.5168   -1.7454   -1.4252 H   0  0  0  0  0  0  0  0  0  0  0  0
  1  2  1  0
  2  3  1  0
  2  4  1  0
  4  5  1  0
  2  6  1  0
  6  7  2  0
  6  8  1  0
  8  9  2  0
  1 10  1  0
  1 11  1  0
  1 12  1  0
  3 13  1  0
  3 14  1  0
  3 15  1  0
  4 16  1  0
  4 17  1  0
  5 18  1  0
  8 19  1  0
M  END
