
     RDKit          3D

 23 24  0  0  0  0  0  0  0  0999 V2000
   -1.6517    0.8911    0.6758 C   0  0  0  0  0  0  0  0  0  0  0  0
   -0.8566   -0.1438   -0.0879 C   0  0  0  0  0  0  0  0  0  0  0  0
   -0.3625    0.5166   -1.3495 C   0  0  0  0  0  0  0  0  0  0  0  0
   -1.7266   -1.3043   -0.4746 C   0  0  0  0  0  0  0  0  0  0  0  0
    0.2558   -0.6513    0.7842 C   0  0  0  0  0  0  0  0  0  0  0  0
    1.2974    0.2471    1.3182 C   0  0  0  0  0  0  0  0  0  0  0  0
    2.3070    0.9364    0.4680 C   0  0  0  0  0  0  0  0  0  0  0  0
    2.0525    0.1424   -0.6388 O   0  0  0  0  0  0  0  0  0  0  0  0
    1.6121   -0.8381    0.2635 C   0  0  0  0  0  0  0  0  0  0  0  0
   -2.2443    0.3225    1.4461 H   0  0  0  0  0  0  0  0  0  0  0  0
   -2.3199    1.4807    0.0287 H   0  0  0  0  0  0  0  0  0  0  0  0
   -0.9473    1.5313    1.2460 H   0  0  0  0  0  0  0  0  0  0  0  0
    0.1765    1.4545   -1.1792 H   0  0  0  0  0  0  0  0  0  0  0  0
   -1.2865    0.7925   -1.9293 H   0  0  0  0  0  0  0  0  0  0  0  0
    0.1771   -0.2061   -1.9979 H   0  0  0  0  0  0  0  0  0  0  0  0
   -2.0477   -1.8955    0.3994 H   0  0  0  0  0  0  0  0  0  0  0  0
   -1.1594   -1.9872   -1.1337 H   0  0  0  0  0  0  0  0  0  0  0  0
   -2.6533   -0.9924   -1.0004 H   0  0  0  0  0  0  0  0  0  0  0  0
   -0.1065   -1.4790    1.4625 H   0  0  0  0  0  0  0  0  0  0  0  0
    1.6297    0.0480    2.3577 H   0  0  0  0  0  0  0  0  0  0  0  0
    2.1897    2.0246    0.3173 H   0  0  0  0  0  0  0  0  0  0  0  0
    3.3678    0.7398    0.8032 H   0  0  0  0  0  0  0  0  0  0  0  0
    2.2969   -1.6296    0.5717 H   0  0  0  0  0  0  0  0  0  0  0  0
  1  2  1  0
  2  3  1  0
  2  4  1  0
  2  5  1  0
  5  6  1  0
  6  7  1  0
  7  8  1  0
  8  9  1  0
  9  5  1  0
  9  6  1  0
  1 10  1  0
  1 11  1  0
  1 12  1  0
  3 13  1  0
  3 14  1  0
  3 15  1  0
  4 16  1  0
  4 17  1  0
  4 18  1  0
  5 19  1  0
  6 20  1  0
  7 21  1  0
  7 22  1  0
  9 23  1  0
M  END
