
     RDKit          3D

 20 19  0  0  0  0  0  0  0  0999 V2000
   -1.5233   -1.0273    2.0126 C   0  0  0  0  0  0  0  0  0  0  0  0
   -0.9391    0.3290    1.7492 C   0  0  0  0  0  0  0  0  0  0  0  0
   -2.0762    1.3145    1.5732 C   0  0  0  0  0  0  0  0  0  0  0  0
   -0.0586    0.3101    0.5728 C   0  0  0  0  0  0  0  0  0  0  0  0
    0.6593    0.2863   -0.4172 C   0  0  0  0  0  0  0  0  0  0  0  0
    1.5343    0.2446   -1.5867 C   0  0  0  0  0  0  0  0  0  0  0  0
    2.4696   -0.9038   -1.4317 C   0  0  0  0  0  0  0  0  0  0  0  0
    0.7873    0.0974   -2.7730 O   0  0  0  0  0  0  0  0  0  0  0  0
   -2.1292   -1.3513    1.1697 H   0  0  0  0  0  0  0  0  0  0  0  0
   -2.2304   -0.9015    2.8807 H   0  0  0  0  0  0  0  0  0  0  0  0
   -0.7909   -1.7883    2.3157 H   0  0  0  0  0  0  0  0  0  0  0  0
   -0.3061    0.5885    2.6251 H   0  0  0  0  0  0  0  0  0  0  0  0
   -2.8496    0.9003    0.9256 H   0  0  0  0  0  0  0  0  0  0  0  0
   -1.6932    2.3154    1.2532 H   0  0  0  0  0  0  0  0  0  0  0  0
   -2.5266    1.5011    2.5915 H   0  0  0  0  0  0  0  0  0  0  0  0
    2.1026    1.1986   -1.7032 H   0  0  0  0  0  0  0  0  0  0  0  0
    2.4647   -1.2810   -0.3888 H   0  0  0  0  0  0  0  0  0  0  0  0
    2.2467   -1.7564   -2.1053 H   0  0  0  0  0  0  0  0  0  0  0  0
    3.5142   -0.5468   -1.6092 H   0  0  0  0  0  0  0  0  0  0  0  0
    1.3446    0.4707   -3.4984 H   0  0  0  0  0  0  0  0  0  0  0  0
  1  2  1  0
  2  3  1  0
  2  4  1  0
  4  5  3  0
  5  6  1  0
  6  7  1  0
  6  8  1  0
  1  9  1  0
  1 10  1  0
  1 11  1  0
  2 12  1  0
  3 13  1  0
  3 14  1  0
  3 15  1  0
  6 16  1  0
  7 17  1  0
  7 18  1  0
  7 19  1  0
  8 20  1  0
M  END
