
     RDKit          3D

 19 20  0  0  0  0  0  0  0  0999 V2000
   -1.5058    1.0574    0.9094 C   0  0  0  0  0  0  0  0  0  0  0  0
   -0.7519    0.2809   -0.1667 C   0  0  0  0  0  0  0  0  0  0  0  0
   -1.5949   -0.8947   -0.5580 C   0  0  0  0  0  0  0  0  0  0  0  0
    0.5863   -0.1186    0.3904 C   0  0  0  0  0  0  0  0  0  0  0  0
    1.3857   -0.8858   -0.6088 C   0  0  0  0  0  0  0  0  0  0  0  0
    1.3831    0.2988   -1.3518 O   0  0  0  0  0  0  0  0  0  0  0  0
    1.6998    0.7582   -0.0737 C   0  0  0  0  0  0  0  0  0  0  0  0
    2.5784   -0.3793    0.0085 C   0  0  0  0  0  0  0  0  0  0  0  0
    3.6482   -0.7040    0.3701 O   0  0  0  0  0  0  0  0  0  0  0  0
   -2.4151    1.5296    0.4901 H   0  0  0  0  0  0  0  0  0  0  0  0
   -0.8131    1.8411    1.2775 H   0  0  0  0  0  0  0  0  0  0  0  0
   -1.7158    0.3530    1.7188 H   0  0  0  0  0  0  0  0  0  0  0  0
   -0.6665    0.9446   -1.0471 H   0  0  0  0  0  0  0  0  0  0  0  0
   -2.0121   -1.3432    0.3584 H   0  0  0  0  0  0  0  0  0  0  0  0
   -2.4100   -0.5437   -1.2198 H   0  0  0  0  0  0  0  0  0  0  0  0
   -1.0186   -1.6612   -1.1058 H   0  0  0  0  0  0  0  0  0  0  0  0
    0.5836   -0.4586    1.4214 H   0  0  0  0  0  0  0  0  0  0  0  0
    1.1784   -1.7981   -0.9860 H   0  0  0  0  0  0  0  0  0  0  0  0
    1.8603    1.7235    0.1730 H   0  0  0  0  0  0  0  0  0  0  0  0
  1  2  1  0
  2  3  1  0
  2  4  1  0
  4  5  1  0
  5  6  1  0
  6  7  1  0
  7  8  1  0
  8  9  2  0
  7  4  1  0
  8  5  1  0
  1 10  1  0
  1 11  1  0
  1 12  1  0
  2 13  1  0
  3 14  1  0
  3 15  1  0
  3 16  1  0
  4 17  1  0
  5 18  1  0
  7 19  1  0
M  END
