
     RDKit          3D

 19 19  0  0  0  0  0  0  0  0999 V2000
    1.7261   -0.7732    0.0960 C   0  0  0  0  0  0  0  0  0  0  0  0
    0.6424   -0.0763   -0.7101 C   0  0  0  0  0  0  0  0  0  0  0  0
    1.1494    1.2898   -1.0444 C   0  0  0  0  0  0  0  0  0  0  0  0
    1.8875    1.8304   -0.2416 O   0  0  0  0  0  0  0  0  0  0  0  0
   -0.5554    0.0735    0.1595 C   0  0  0  0  0  0  0  0  0  0  0  0
   -0.3991    0.8543    1.4014 C   0  0  0  0  0  0  0  0  0  0  0  0
   -1.3399    1.0296    2.1824 O   0  0  0  0  0  0  0  0  0  0  0  0
   -1.4449   -1.1739    0.2018 C   0  0  0  0  0  0  0  0  0  0  0  0
   -1.9347    0.0924   -0.4262 C   0  0  0  0  0  0  0  0  0  0  0  0
    2.4082   -0.0316    0.5796 H   0  0  0  0  0  0  0  0  0  0  0  0
    1.2920   -1.3712    0.9390 H   0  0  0  0  0  0  0  0  0  0  0  0
    2.2968   -1.4963   -0.5216 H   0  0  0  0  0  0  0  0  0  0  0  0
    0.4862   -0.6490   -1.6217 H   0  0  0  0  0  0  0  0  0  0  0  0
    0.8922    1.8075   -1.9532 H   0  0  0  0  0  0  0  0  0  0  0  0
    0.5713    1.2797    1.6226 H   0  0  0  0  0  0  0  0  0  0  0  0
   -1.7708   -1.4300    1.2166 H   0  0  0  0  0  0  0  0  0  0  0  0
   -1.2064   -2.0104   -0.4898 H   0  0  0  0  0  0  0  0  0  0  0  0
   -2.7443    0.5945    0.1404 H   0  0  0  0  0  0  0  0  0  0  0  0
   -1.9566    0.1605   -1.5305 H   0  0  0  0  0  0  0  0  0  0  0  0
  1  2  1  0
  2  3  1  0
  3  4  2  0
  2  5  1  0
  5  6  1  0
  6  7  2  0
  5  8  1  0
  8  9  1  0
  9  5  1  0
  1 10  1  0
  1 11  1  0
  1 12  1  0
  2 13  1  0
  3 14  1  0
  6 15  1  0
  8 16  1  0
  8 17  1  0
  9 18  1  0
  9 19  1  0
M  END
