
     RDKit          3D

 25 24  0  0  0  0  0  0  0  0999 V2000
   -1.6859   -1.1916    0.3458 C   0  0  0  0  0  0  0  0  0  0  0  0
   -1.2754    0.2666    0.4295 C   0  0  0  0  0  0  0  0  0  0  0  0
   -2.4678    1.0664   -0.1089 C   0  0  0  0  0  0  0  0  0  0  0  0
   -0.1169    0.5567   -0.4744 C   0  0  0  0  0  0  0  0  0  0  0  0
   -0.4753    0.2698   -1.7855 O   0  0  0  0  0  0  0  0  0  0  0  0
    1.1050   -0.2565   -0.1499 C   0  0  0  0  0  0  0  0  0  0  0  0
    2.1796    0.1484   -1.1432 C   0  0  0  0  0  0  0  0  0  0  0  0
    1.6191    0.0592    1.2299 C   0  0  0  0  0  0  0  0  0  0  0  0
    2.7426   -0.6976    1.5112 O   0  0  0  0  0  0  0  0  0  0  0  0
   -2.0023   -1.3762   -0.7027 H   0  0  0  0  0  0  0  0  0  0  0  0
   -2.5207   -1.3340    1.0664 H   0  0  0  0  0  0  0  0  0  0  0  0
   -0.8468   -1.8655    0.6556 H   0  0  0  0  0  0  0  0  0  0  0  0
   -1.1161    0.6033    1.4629 H   0  0  0  0  0  0  0  0  0  0  0  0
   -2.4383    2.0920    0.3122 H   0  0  0  0  0  0  0  0  0  0  0  0
   -3.4269    0.5699    0.1624 H   0  0  0  0  0  0  0  0  0  0  0  0
   -2.3519    1.1606   -1.2194 H   0  0  0  0  0  0  0  0  0  0  0  0
    0.1453    1.6147   -0.3865 H   0  0  0  0  0  0  0  0  0  0  0  0
   -0.5303   -0.7096   -1.9477 H   0  0  0  0  0  0  0  0  0  0  0  0
    0.9093   -1.3607   -0.2509 H   0  0  0  0  0  0  0  0  0  0  0  0
    1.9093   -0.1640   -2.1811 H   0  0  0  0  0  0  0  0  0  0  0  0
    3.1871   -0.1700   -0.8405 H   0  0  0  0  0  0  0  0  0  0  0  0
    2.1617    1.2770   -1.1809 H   0  0  0  0  0  0  0  0  0  0  0  0
    1.9165    1.1310    1.2444 H   0  0  0  0  0  0  0  0  0  0  0  0
    0.8427   -0.1232    2.0137 H   0  0  0  0  0  0  0  0  0  0  0  0
    2.5363   -1.5666    1.9377 H   0  0  0  0  0  0  0  0  0  0  0  0
  1  2  1  0
  2  3  1  0
  2  4  1  0
  4  5  1  0
  4  6  1  0
  6  7  1  0
  6  8  1  0
  8  9  1  0
  1 10  1  0
  1 11  1  0
  1 12  1  0
  2 13  1  0
  3 14  1  0
  3 15  1  0
  3 16  1  0
  4 17  1  0
  5 18  1  0
  6 19  1  0
  7 20  1  0
  7 21  1  0
  7 22  1  0
  8 23  1  0
  8 24  1  0
  9 25  1  0
M  END
