
     RDKit          3D

 23 23  0  0  0  0  0  0  0  0999 V2000
   -1.1662   -1.3040   -0.5200 C   0  0  0  0  0  0  0  0  0  0  0  0
   -0.6004   -0.0691    0.1487 C   0  0  0  0  0  0  0  0  0  0  0  0
   -1.5103    0.2822    1.2929 C   0  0  0  0  0  0  0  0  0  0  0  0
   -0.5468    1.1126   -0.7832 C   0  0  0  0  0  0  0  0  0  0  0  0
   -1.8284    1.3917   -1.2085 O   0  0  0  0  0  0  0  0  0  0  0  0
    0.7624   -0.4140    0.6682 C   0  0  0  0  0  0  0  0  0  0  0  0
    1.7654   -0.8577   -0.3446 C   0  0  0  0  0  0  0  0  0  0  0  0
    2.5195    0.4114    0.0233 C   0  0  0  0  0  0  0  0  0  0  0  0
    1.4958    0.7290    0.9293 O   0  0  0  0  0  0  0  0  0  0  0  0
   -1.9256   -1.0411   -1.2822 H   0  0  0  0  0  0  0  0  0  0  0  0
   -0.3808   -1.9312   -0.9768 H   0  0  0  0  0  0  0  0  0  0  0  0
   -1.6768   -1.9316    0.2623 H   0  0  0  0  0  0  0  0  0  0  0  0
   -1.1985    1.1574    1.8554 H   0  0  0  0  0  0  0  0  0  0  0  0
   -1.5818   -0.6174    1.9585 H   0  0  0  0  0  0  0  0  0  0  0  0
   -2.5293    0.4464    0.8924 H   0  0  0  0  0  0  0  0  0  0  0  0
   -0.1804    1.9772   -0.1929 H   0  0  0  0  0  0  0  0  0  0  0  0
    0.1704    0.9451   -1.6107 H   0  0  0  0  0  0  0  0  0  0  0  0
   -2.2235    2.1326   -0.6705 H   0  0  0  0  0  0  0  0  0  0  0  0
    0.6840   -1.1424    1.4955 H   0  0  0  0  0  0  0  0  0  0  0  0
    2.3846   -1.7434   -0.0448 H   0  0  0  0  0  0  0  0  0  0  0  0
    1.4507   -0.8814   -1.3976 H   0  0  0  0  0  0  0  0  0  0  0  0
    2.6317    1.1035   -0.8226 H   0  0  0  0  0  0  0  0  0  0  0  0
    3.4846    0.2442    0.5392 H   0  0  0  0  0  0  0  0  0  0  0  0
  1  2  1  0
  2  3  1  0
  2  4  1  0
  4  5  1  0
  2  6  1  0
  6  7  1  0
  7  8  1  0
  8  9  1  0
  9  6  1  0
  1 10  1  0
  1 11  1  0
  1 12  1  0
  3 13  1  0
  3 14  1  0
  3 15  1  0
  4 16  1  0
  4 17  1  0
  5 18  1  0
  6 19  1  0
  7 20  1  0
  7 21  1  0
  8 22  1  0
  8 23  1  0
M  END
