
     RDKit          3D

 19 19  0  0  0  0  0  0  0  0999 V2000
    2.0479    0.8807   -0.8335 C   0  0  0  0  0  0  0  0  0  0  0  0
    1.2041   -0.1767   -0.1715 C   0  0  0  0  0  0  0  0  0  0  0  0
    1.9720   -0.9363    0.8457 C   0  0  0  0  0  0  0  0  0  0  0  0
    3.0582   -1.4289    0.5534 O   0  0  0  0  0  0  0  0  0  0  0  0
    0.0491    0.2689    0.3720 O   0  0  0  0  0  0  0  0  0  0  0  0
   -1.1147   -0.2246   -0.1278 C   0  0  0  0  0  0  0  0  0  0  0  0
   -2.0432   -0.6482    1.0139 C   0  0  0  0  0  0  0  0  0  0  0  0
   -2.9364    0.3453    0.6035 O   0  0  0  0  0  0  0  0  0  0  0  0
   -2.1146    0.8825   -0.3885 C   0  0  0  0  0  0  0  0  0  0  0  0
    3.0937    0.4674   -0.8731 H   0  0  0  0  0  0  0  0  0  0  0  0
    1.7285    1.0018   -1.8894 H   0  0  0  0  0  0  0  0  0  0  0  0
    2.0417    1.8388   -0.3263 H   0  0  0  0  0  0  0  0  0  0  0  0
    0.9466   -0.9168   -0.9833 H   0  0  0  0  0  0  0  0  0  0  0  0
    1.5595   -1.0458    1.8389 H   0  0  0  0  0  0  0  0  0  0  0  0
   -1.0579   -0.9628   -0.9506 H   0  0  0  0  0  0  0  0  0  0  0  0
   -2.3827   -1.6836    0.8513 H   0  0  0  0  0  0  0  0  0  0  0  0
   -1.6706   -0.4113    2.0163 H   0  0  0  0  0  0  0  0  0  0  0  0
   -1.7689    1.9017   -0.1760 H   0  0  0  0  0  0  0  0  0  0  0  0
   -2.6123    0.8478   -1.3752 H   0  0  0  0  0  0  0  0  0  0  0  0
  1  2  1  0
  2  3  1  0
  3  4  2  0
  2  5  1  0
  5  6  1  0
  6  7  1  0
  7  8  1  0
  8  9  1  0
  9  6  1  0
  1 10  1  0
  1 11  1  0
  1 12  1  0
  2 13  1  0
  3 14  1  0
  6 15  1  0
  7 16  1  0
  7 17  1  0
  9 18  1  0
  9 19  1  0
M  END
