
     RDKit          3D

 17 16  0  0  0  0  0  0  0  0999 V2000
   -0.9495    1.2564    0.2286 C   0  0  0  0  0  0  0  0  0  0  0  0
   -0.4428   -0.1449    0.3006 C   0  0  0  0  0  0  0  0  0  0  0  0
   -0.7409   -0.8338   -1.0077 C   0  0  0  0  0  0  0  0  0  0  0  0
   -1.1269   -0.8700    1.3014 O   0  0  0  0  0  0  0  0  0  0  0  0
    1.0289   -0.2323    0.6631 C   0  0  0  0  0  0  0  0  0  0  0  0
    1.8731    0.4646   -0.3240 C   0  0  0  0  0  0  0  0  0  0  0  0
    1.3830    1.0208   -1.2880 O   0  0  0  0  0  0  0  0  0  0  0  0
   -0.4838    1.9464    0.9566 H   0  0  0  0  0  0  0  0  0  0  0  0
   -2.0523    1.2171    0.4677 H   0  0  0  0  0  0  0  0  0  0  0  0
   -0.8081    1.6628   -0.7847 H   0  0  0  0  0  0  0  0  0  0  0  0
   -1.7109   -1.3716   -0.9529 H   0  0  0  0  0  0  0  0  0  0  0  0
    0.0465   -1.5781   -1.2695 H   0  0  0  0  0  0  0  0  0  0  0  0
   -0.8038   -0.1351   -1.8645 H   0  0  0  0  0  0  0  0  0  0  0  0
   -0.6080   -1.7320    1.3810 H   0  0  0  0  0  0  0  0  0  0  0  0
    1.1784    0.1767    1.6831 H   0  0  0  0  0  0  0  0  0  0  0  0
    1.2697   -1.3268    0.6952 H   0  0  0  0  0  0  0  0  0  0  0  0
    2.9473    0.4799   -0.1860 H   0  0  0  0  0  0  0  0  0  0  0  0
  1  2  1  0
  2  3  1  0
  2  4  1  0
  2  5  1  0
  5  6  1  0
  6  7  2  0
  1  8  1  0
  1  9  1  0
  1 10  1  0
  3 11  1  0
  3 12  1  0
  3 13  1  0
  4 14  1  0
  5 15  1  0
  5 16  1  0
  6 17  1  0
M  END
