
     RDKit          3D

 19 18  0  0  0  0  0  0  0  0999 V2000
   -1.0569    0.3648    0.9171 C   0  0  0  0  0  0  0  0  0  0  0  0
   -0.8795    0.3007   -0.5844 C   0  0  0  0  0  0  0  0  0  0  0  0
   -2.2467   -0.0860   -1.1579 C   0  0  0  0  0  0  0  0  0  0  0  0
   -0.5227    1.4895   -1.1559 O   0  0  0  0  0  0  0  0  0  0  0  0
    0.0550   -0.8361   -0.9196 C   0  0  0  0  0  0  0  0  0  0  0  0
    1.3278   -0.5508   -0.2518 C   0  0  0  0  0  0  0  0  0  0  0  0
    2.3761   -0.3157    0.3221 C   0  0  0  0  0  0  0  0  0  0  0  0
    3.6158   -0.0162    0.9881 C   0  0  0  0  0  0  0  0  0  0  0  0
    4.1692    1.1098    0.9158 O   0  0  0  0  0  0  0  0  0  0  0  0
   -0.4832    1.2075    1.3576 H   0  0  0  0  0  0  0  0  0  0  0  0
   -0.7350   -0.6001    1.3608 H   0  0  0  0  0  0  0  0  0  0  0  0
   -2.1439    0.4627    1.1967 H   0  0  0  0  0  0  0  0  0  0  0  0
   -2.8046    0.8295   -1.4840 H   0  0  0  0  0  0  0  0  0  0  0  0
   -2.1205   -0.7940   -2.0201 H   0  0  0  0  0  0  0  0  0  0  0  0
   -2.8787   -0.5864   -0.3998 H   0  0  0  0  0  0  0  0  0  0  0  0
    0.3322    1.4773   -1.6465 H   0  0  0  0  0  0  0  0  0  0  0  0
   -0.3714   -1.8162   -0.6362 H   0  0  0  0  0  0  0  0  0  0  0  0
    0.2275   -0.8812   -2.0204 H   0  0  0  0  0  0  0  0  0  0  0  0
    4.1397   -0.7590    1.5933 H   0  0  0  0  0  0  0  0  0  0  0  0
  1  2  1  0
  2  3  1  0
  2  4  1  0
  2  5  1  0
  5  6  1  0
  6  7  3  0
  7  8  1  0
  8  9  2  0
  1 10  1  0
  1 11  1  0
  1 12  1  0
  3 13  1  0
  3 14  1  0
  3 15  1  0
  4 16  1  0
  5 17  1  0
  5 18  1  0
  8 19  1  0
M  END
