
     RDKit          3D

 21 22  0  0  0  0  0  0  0  0999 V2000
   -2.0964   -0.5916   -0.4145 C   0  0  0  0  0  0  0  0  0  0  0  0
   -0.9844    0.0277    0.4280 C   0  0  0  0  0  0  0  0  0  0  0  0
   -1.1628    1.5406    0.2387 C   0  0  0  0  0  0  0  0  0  0  0  0
    0.3776   -0.3112   -0.0936 C   0  0  0  0  0  0  0  0  0  0  0  0
    0.7518   -1.7802   -0.1606 C   0  0  0  0  0  0  0  0  0  0  0  0
    1.4476   -0.8355    0.7694 C   0  0  0  0  0  0  0  0  0  0  0  0
    2.6143   -0.2501    0.2832 O   0  0  0  0  0  0  0  0  0  0  0  0
    2.2187    0.8734   -0.4349 C   0  0  0  0  0  0  0  0  0  0  0  0
    0.9757    0.5751   -0.9837 O   0  0  0  0  0  0  0  0  0  0  0  0
   -3.0030    0.0338   -0.2190 H   0  0  0  0  0  0  0  0  0  0  0  0
   -2.2735   -1.6511   -0.1264 H   0  0  0  0  0  0  0  0  0  0  0  0
   -1.8197   -0.4785   -1.4809 H   0  0  0  0  0  0  0  0  0  0  0  0
   -1.1228   -0.2121    1.4999 H   0  0  0  0  0  0  0  0  0  0  0  0
   -2.1081    1.8968    0.6752 H   0  0  0  0  0  0  0  0  0  0  0  0
   -1.2680    1.6709   -0.8760 H   0  0  0  0  0  0  0  0  0  0  0  0
   -0.2737    2.0982    0.5275 H   0  0  0  0  0  0  0  0  0  0  0  0
    1.2376   -2.0477   -1.1282 H   0  0  0  0  0  0  0  0  0  0  0  0
    0.0709   -2.4889    0.3107 H   0  0  0  0  0  0  0  0  0  0  0  0
    1.3861   -0.9288    1.8477 H   0  0  0  0  0  0  0  0  0  0  0  0
    2.1130    1.7241    0.2647 H   0  0  0  0  0  0  0  0  0  0  0  0
    2.9192    1.1351   -1.2530 H   0  0  0  0  0  0  0  0  0  0  0  0
  1  2  1  0
  2  3  1  0
  2  4  1  0
  4  5  1  0
  5  6  1  0
  6  7  1  0
  7  8  1  0
  8  9  1  0
  6  4  1  0
  9  4  1  0
  1 10  1  0
  1 11  1  0
  1 12  1  0
  2 13  1  0
  3 14  1  0
  3 15  1  0
  3 16  1  0
  5 17  1  0
  5 18  1  0
  6 19  1  0
  8 20  1  0
  8 21  1  0
M  END
