
     RDKit          3D

 21 20  0  0  0  0  0  0  0  0999 V2000
   -2.3952   -0.2763    0.7615 C   0  0  0  0  0  0  0  0  0  0  0  0
   -1.2845   -0.3092   -0.2649 C   0  0  0  0  0  0  0  0  0  0  0  0
   -1.4803    0.9258   -1.1449 C   0  0  0  0  0  0  0  0  0  0  0  0
   -1.3543   -1.4740   -1.0246 O   0  0  0  0  0  0  0  0  0  0  0  0
    0.0746   -0.1488    0.3873 C   0  0  0  0  0  0  0  0  0  0  0  0
    1.0815   -0.0870   -0.5751 O   0  0  0  0  0  0  0  0  0  0  0  0
    2.2731    0.0576    0.0962 C   0  0  0  0  0  0  0  0  0  0  0  0
    3.4491    0.1387   -0.8000 C   0  0  0  0  0  0  0  0  0  0  0  0
    4.5452    0.2679   -0.2810 O   0  0  0  0  0  0  0  0  0  0  0  0
   -2.6747   -1.2810    1.1172 H   0  0  0  0  0  0  0  0  0  0  0  0
   -3.3084    0.2340    0.3524 H   0  0  0  0  0  0  0  0  0  0  0  0
   -2.0996    0.3393    1.6567 H   0  0  0  0  0  0  0  0  0  0  0  0
   -1.6688    1.7719   -0.4274 H   0  0  0  0  0  0  0  0  0  0  0  0
   -2.4068    0.8375   -1.7440 H   0  0  0  0  0  0  0  0  0  0  0  0
   -0.5812    1.1319   -1.7553 H   0  0  0  0  0  0  0  0  0  0  0  0
   -0.5674   -2.0293   -0.7868 H   0  0  0  0  0  0  0  0  0  0  0  0
    0.2946   -1.0010    1.0776 H   0  0  0  0  0  0  0  0  0  0  0  0
    0.0929    0.7645    1.0159 H   0  0  0  0  0  0  0  0  0  0  0  0
    2.4097   -0.8623    0.7282 H   0  0  0  0  0  0  0  0  0  0  0  0
    2.1962    0.9082    0.7987 H   0  0  0  0  0  0  0  0  0  0  0  0
    3.4044    0.0915   -1.8811 H   0  0  0  0  0  0  0  0  0  0  0  0
  1  2  1  0
  2  3  1  0
  2  4  1  0
  2  5  1  0
  5  6  1  0
  6  7  1  0
  7  8  1  0
  8  9  2  0
  1 10  1  0
  1 11  1  0
  1 12  1  0
  3 13  1  0
  3 14  1  0
  3 15  1  0
  4 16  1  0
  5 17  1  0
  5 18  1  0
  7 19  1  0
  7 20  1  0
  8 21  1  0
M  END
