
     RDKit          3D

 20 19  0  0  0  0  0  0  0  0999 V2000
   -2.3801   -0.9748    0.0499 C   0  0  0  0  0  0  0  0  0  0  0  0
   -1.2426   -0.0797    0.5210 C   0  0  0  0  0  0  0  0  0  0  0  0
   -1.5310    1.3660    0.2537 C   0  0  0  0  0  0  0  0  0  0  0  0
    0.0098   -0.5530   -0.1952 C   0  0  0  0  0  0  0  0  0  0  0  0
    1.1076    0.2279    0.1885 O   0  0  0  0  0  0  0  0  0  0  0  0
    2.2307   -0.2280   -0.4804 C   0  0  0  0  0  0  0  0  0  0  0  0
    3.3931    0.5794   -0.0907 C   0  0  0  0  0  0  0  0  0  0  0  0
    3.2865    1.4907    0.7071 O   0  0  0  0  0  0  0  0  0  0  0  0
   -2.1871   -1.9797    0.4788 H   0  0  0  0  0  0  0  0  0  0  0  0
   -3.3657   -0.5883    0.3458 H   0  0  0  0  0  0  0  0  0  0  0  0
   -2.2811   -1.0569   -1.0439 H   0  0  0  0  0  0  0  0  0  0  0  0
   -1.1569   -0.2503    1.6133 H   0  0  0  0  0  0  0  0  0  0  0  0
   -2.1083    1.7517    1.1409 H   0  0  0  0  0  0  0  0  0  0  0  0
   -2.2407    1.5092   -0.6116 H   0  0  0  0  0  0  0  0  0  0  0  0
   -0.6335    1.9799    0.0724 H   0  0  0  0  0  0  0  0  0  0  0  0
   -0.1150   -0.5516   -1.2882 H   0  0  0  0  0  0  0  0  0  0  0  0
    0.2633   -1.5926    0.0948 H   0  0  0  0  0  0  0  0  0  0  0  0
    2.4288   -1.3138   -0.3039 H   0  0  0  0  0  0  0  0  0  0  0  0
    2.1183   -0.1375   -1.5925 H   0  0  0  0  0  0  0  0  0  0  0  0
    4.4040    0.4013   -0.4962 H   0  0  0  0  0  0  0  0  0  0  0  0
  1  2  1  0
  2  3  1  0
  2  4  1  0
  4  5  1  0
  5  6  1  0
  6  7  1  0
  7  8  2  0
  1  9  1  0
  1 10  1  0
  1 11  1  0
  2 12  1  0
  3 13  1  0
  3 14  1  0
  3 15  1  0
  4 16  1  0
  4 17  1  0
  6 18  1  0
  6 19  1  0
  7 20  1  0
M  END
