
     RDKit          3D

 23 24  0  0  0  0  0  0  0  0999 V2000
   -2.1015   -1.1870   -0.2403 C   0  0  0  0  0  0  0  0  0  0  0  0
   -1.2121   -0.1970    0.5286 C   0  0  0  0  0  0  0  0  0  0  0  0
   -1.6542    1.1893    0.1984 C   0  0  0  0  0  0  0  0  0  0  0  0
    0.1888   -0.5112    0.1717 C   0  0  0  0  0  0  0  0  0  0  0  0
    1.1529    0.4469    0.9127 C   0  0  0  0  0  0  0  0  0  0  0  0
    1.4031   -0.0275    2.1651 O   0  0  0  0  0  0  0  0  0  0  0  0
    2.0740   -0.0935   -0.1669 C   0  0  0  0  0  0  0  0  0  0  0  0
    2.0684    0.1900   -1.5589 C   0  0  0  0  0  0  0  0  0  0  0  0
    0.7665    0.2562   -1.0022 C   0  0  0  0  0  0  0  0  0  0  0  0
   -3.0948   -0.7374   -0.4459 H   0  0  0  0  0  0  0  0  0  0  0  0
   -1.5816   -1.4539   -1.1823 H   0  0  0  0  0  0  0  0  0  0  0  0
   -2.2159   -2.1306    0.3361 H   0  0  0  0  0  0  0  0  0  0  0  0
   -1.4191   -0.3582    1.6195 H   0  0  0  0  0  0  0  0  0  0  0  0
   -1.1319    1.9631    0.7665 H   0  0  0  0  0  0  0  0  0  0  0  0
   -1.6157    1.3729   -0.9134 H   0  0  0  0  0  0  0  0  0  0  0  0
   -2.7385    1.2675    0.4959 H   0  0  0  0  0  0  0  0  0  0  0  0
    0.5510   -1.5231    0.3068 H   0  0  0  0  0  0  0  0  0  0  0  0
    0.8388    1.4791    0.7925 H   0  0  0  0  0  0  0  0  0  0  0  0
    2.2301   -0.5665    2.2210 H   0  0  0  0  0  0  0  0  0  0  0  0
    2.1810   -1.2056    0.0569 H   0  0  0  0  0  0  0  0  0  0  0  0
    2.6471    1.1101   -1.8772 H   0  0  0  0  0  0  0  0  0  0  0  0
    2.2480   -0.6132   -2.3365 H   0  0  0  0  0  0  0  0  0  0  0  0
    0.4156    1.3295   -0.8485 H   0  0  0  0  0  0  0  0  0  0  0  0
  1  2  1  0
  2  3  1  0
  2  4  1  0
  4  5  1  0
  5  6  1  0
  5  7  1  0
  7  8  1  0
  8  9  1  0
  9  4  1  0
  9  7  1  0
  1 10  1  0
  1 11  1  0
  1 12  1  0
  2 13  1  0
  3 14  1  0
  3 15  1  0
  3 16  1  0
  4 17  1  0
  5 18  1  0
  6 19  1  0
  7 20  1  0
  8 21  1  0
  8 22  1  0
  9 23  1  0
M  END
