
     RDKit          3D

 25 25  0  0  0  0  0  0  0  0999 V2000
    1.5089   -1.1166    0.8446 C   0  0  0  0  0  0  0  0  0  0  0  0
    1.1969    0.2811    0.4354 C   0  0  0  0  0  0  0  0  0  0  0  0
    2.0299    0.5712   -0.8225 C   0  0  0  0  0  0  0  0  0  0  0  0
    3.3595    0.4274   -0.4978 O   0  0  0  0  0  0  0  0  0  0  0  0
   -0.2352    0.4987    0.0491 C   0  0  0  0  0  0  0  0  0  0  0  0
   -0.6863   -0.3374   -1.1014 C   0  0  0  0  0  0  0  0  0  0  0  0
   -2.2027   -0.0841   -1.0724 C   0  0  0  0  0  0  0  0  0  0  0  0
   -2.5289    0.2188    0.3752 C   0  0  0  0  0  0  0  0  0  0  0  0
   -1.2071    0.0633    1.1320 C   0  0  0  0  0  0  0  0  0  0  0  0
    2.5913   -1.3663    0.6488 H   0  0  0  0  0  0  0  0  0  0  0  0
    1.4070   -1.2248    1.9631 H   0  0  0  0  0  0  0  0  0  0  0  0
    0.9152   -1.9049    0.3657 H   0  0  0  0  0  0  0  0  0  0  0  0
    1.5587    0.9884    1.1956 H   0  0  0  0  0  0  0  0  0  0  0  0
    1.7907    1.6271   -1.0967 H   0  0  0  0  0  0  0  0  0  0  0  0
    1.7399   -0.1094   -1.6454 H   0  0  0  0  0  0  0  0  0  0  0  0
    3.5563    0.9460    0.3083 H   0  0  0  0  0  0  0  0  0  0  0  0
   -0.4529    1.5564   -0.1655 H   0  0  0  0  0  0  0  0  0  0  0  0
   -0.5601   -1.4061   -0.9392 H   0  0  0  0  0  0  0  0  0  0  0  0
   -0.2579   -0.0089   -2.0731 H   0  0  0  0  0  0  0  0  0  0  0  0
   -2.4304    0.8009   -1.7095 H   0  0  0  0  0  0  0  0  0  0  0  0
   -2.7525   -0.9745   -1.4286 H   0  0  0  0  0  0  0  0  0  0  0  0
   -3.3171   -0.4288    0.7859 H   0  0  0  0  0  0  0  0  0  0  0  0
   -2.7971    1.3058    0.4937 H   0  0  0  0  0  0  0  0  0  0  0  0
   -1.1822    0.6956    2.0180 H   0  0  0  0  0  0  0  0  0  0  0  0
   -1.0439   -1.0188    1.3646 H   0  0  0  0  0  0  0  0  0  0  0  0
  1  2  1  0
  2  3  1  0
  3  4  1  0
  2  5  1  0
  5  6  1  0
  6  7  1  0
  7  8  1  0
  8  9  1  0
  9  5  1  0
  1 10  1  0
  1 11  1  0
  1 12  1  0
  2 13  1  0
  3 14  1  0
  3 15  1  0
  4 16  1  0
  5 17  1  0
  6 18  1  0
  6 19  1  0
  7 20  1  0
  7 21  1  0
  8 22  1  0
  8 23  1  0
  9 24  1  0
  9 25  1  0
M  END
