
     RDKit          3D

 23 23  0  0  0  0  0  0  0  0999 V2000
   -2.0800   -1.3492    0.5996 C   0  0  0  0  0  0  0  0  0  0  0  0
   -1.4811   -0.2679   -0.2885 C   0  0  0  0  0  0  0  0  0  0  0  0
   -2.3481    0.9437   -0.3775 C   0  0  0  0  0  0  0  0  0  0  0  0
   -0.0788    0.0813    0.2344 C   0  0  0  0  0  0  0  0  0  0  0  0
    0.4084    1.0394   -0.5817 O   0  0  0  0  0  0  0  0  0  0  0  0
    1.7518    1.2582   -0.5949 C   0  0  0  0  0  0  0  0  0  0  0  0
    2.5458    0.3343    0.2913 C   0  0  0  0  0  0  0  0  0  0  0  0
    1.9527   -1.0356    0.1304 C   0  0  0  0  0  0  0  0  0  0  0  0
    0.6228   -1.0545    0.4055 O   0  0  0  0  0  0  0  0  0  0  0  0
   -1.8240   -1.2082    1.6581 H   0  0  0  0  0  0  0  0  0  0  0  0
   -3.1681   -1.3962    0.5062 H   0  0  0  0  0  0  0  0  0  0  0  0
   -1.6844   -2.3331    0.2362 H   0  0  0  0  0  0  0  0  0  0  0  0
   -1.4101   -0.7105   -1.3081 H   0  0  0  0  0  0  0  0  0  0  0  0
   -1.7373    1.8826   -0.3292 H   0  0  0  0  0  0  0  0  0  0  0  0
   -2.8962    0.9994   -1.3596 H   0  0  0  0  0  0  0  0  0  0  0  0
   -3.1367    0.9794    0.3980 H   0  0  0  0  0  0  0  0  0  0  0  0
   -0.2700    0.5442    1.2473 H   0  0  0  0  0  0  0  0  0  0  0  0
    2.1103    1.0805   -1.6463 H   0  0  0  0  0  0  0  0  0  0  0  0
    1.9802    2.3163   -0.3560 H   0  0  0  0  0  0  0  0  0  0  0  0
    3.6027    0.2860   -0.0466 H   0  0  0  0  0  0  0  0  0  0  0  0
    2.5606    0.6832    1.3308 H   0  0  0  0  0  0  0  0  0  0  0  0
    2.0934   -1.3222   -0.9499 H   0  0  0  0  0  0  0  0  0  0  0  0
    2.4860   -1.7511    0.8006 H   0  0  0  0  0  0  0  0  0  0  0  0
  1  2  1  0
  2  3  1  0
  2  4  1  0
  4  5  1  0
  5  6  1  0
  6  7  1  0
  7  8  1  0
  8  9  1  0
  9  4  1  0
  1 10  1  0
  1 11  1  0
  1 12  1  0
  2 13  1  0
  3 14  1  0
  3 15  1  0
  3 16  1  0
  4 17  1  0
  6 18  1  0
  6 19  1  0
  7 20  1  0
  7 21  1  0
  8 22  1  0
  8 23  1  0
M  END
