
     RDKit          3D

 22 22  0  0  0  0  0  0  0  0999 V2000
    1.7011    0.2837   -0.8263 C   0  0  0  0  0  0  0  0  0  0  0  0
    0.5751   -0.6430   -0.4288 C   0  0  0  0  0  0  0  0  0  0  0  0
    1.1370   -1.6910    0.4717 C   0  0  0  0  0  0  0  0  0  0  0  0
   -0.6370    0.0510    0.0815 C   0  0  0  0  0  0  0  0  0  0  0  0
   -1.7731   -0.8934    0.4833 C   0  0  0  0  0  0  0  0  0  0  0  0
   -1.1004    1.2004   -0.8409 C   0  0  0  0  0  0  0  0  0  0  0  0
   -0.6899    1.4151    0.5715 C   0  0  0  0  0  0  0  0  0  0  0  0
    0.3931    2.2366    0.7713 O   0  0  0  0  0  0  0  0  0  0  0  0
    2.5459   -0.4006   -1.1411 H   0  0  0  0  0  0  0  0  0  0  0  0
    1.4820    0.9033   -1.7064 H   0  0  0  0  0  0  0  0  0  0  0  0
    2.1161    0.8472    0.0345 H   0  0  0  0  0  0  0  0  0  0  0  0
    0.2722   -1.1676   -1.3840 H   0  0  0  0  0  0  0  0  0  0  0  0
    1.7763   -2.3734   -0.1625 H   0  0  0  0  0  0  0  0  0  0  0  0
    0.3959   -2.3261    0.9670 H   0  0  0  0  0  0  0  0  0  0  0  0
    1.8493   -1.2180    1.1828 H   0  0  0  0  0  0  0  0  0  0  0  0
   -1.7662   -1.0351    1.5905 H   0  0  0  0  0  0  0  0  0  0  0  0
   -1.7241   -1.8504   -0.0631 H   0  0  0  0  0  0  0  0  0  0  0  0
   -2.7552   -0.4356    0.2401 H   0  0  0  0  0  0  0  0  0  0  0  0
   -2.1810    1.2148   -1.1275 H   0  0  0  0  0  0  0  0  0  0  0  0
   -0.4446    1.5484   -1.6305 H   0  0  0  0  0  0  0  0  0  0  0  0
   -1.5519    1.6678    1.2534 H   0  0  0  0  0  0  0  0  0  0  0  0
    0.3793    2.6660    1.6636 H   0  0  0  0  0  0  0  0  0  0  0  0
  1  2  1  0
  2  3  1  0
  2  4  1  0
  4  5  1  0
  4  6  1  0
  6  7  1  0
  7  8  1  0
  7  4  1  0
  1  9  1  0
  1 10  1  0
  1 11  1  0
  2 12  1  0
  3 13  1  0
  3 14  1  0
  3 15  1  0
  5 16  1  0
  5 17  1  0
  5 18  1  0
  6 19  1  0
  6 20  1  0
  7 21  1  0
  8 22  1  0
M  END
