
     RDKit          3D

 23 22  0  0  0  0  0  0  0  0999 V2000
    2.3316   -0.7561   -0.4837 C   0  0  0  0  0  0  0  0  0  0  0  0
    1.0805   -0.3150    0.3703 C   0  0  0  0  0  0  0  0  0  0  0  0
    1.2009    1.1902    0.3194 C   0  0  0  0  0  0  0  0  0  0  0  0
    2.4629    1.5754    0.8724 O   0  0  0  0  0  0  0  0  0  0  0  0
   -0.0896   -0.9157   -0.2860 C   0  0  0  0  0  0  0  0  0  0  0  0
   -1.4538   -0.7275    0.2947 C   0  0  0  0  0  0  0  0  0  0  0  0
   -2.3824   -1.4479   -0.5645 O   0  0  0  0  0  0  0  0  0  0  0  0
   -1.9984    0.6655    0.3009 C   0  0  0  0  0  0  0  0  0  0  0  0
   -1.9685    1.2650   -0.9342 O   0  0  0  0  0  0  0  0  0  0  0  0
    2.1099   -1.7587   -0.8476 H   0  0  0  0  0  0  0  0  0  0  0  0
    2.4235   -0.0700   -1.3455 H   0  0  0  0  0  0  0  0  0  0  0  0
    3.1872   -0.6708    0.1923 H   0  0  0  0  0  0  0  0  0  0  0  0
    1.2417   -0.7425    1.3676 H   0  0  0  0  0  0  0  0  0  0  0  0
    1.1544    1.6028   -0.6800 H   0  0  0  0  0  0  0  0  0  0  0  0
    0.4501    1.6400    0.9735 H   0  0  0  0  0  0  0  0  0  0  0  0
    2.6613    0.9627    1.6444 H   0  0  0  0  0  0  0  0  0  0  0  0
   -0.0883   -0.7000   -1.3956 H   0  0  0  0  0  0  0  0  0  0  0  0
    0.0870   -2.0464   -0.2603 H   0  0  0  0  0  0  0  0  0  0  0  0
   -1.5300   -1.2068    1.2858 H   0  0  0  0  0  0  0  0  0  0  0  0
   -3.2969   -1.1590   -0.3168 H   0  0  0  0  0  0  0  0  0  0  0  0
   -3.1486    0.5264    0.4755 H   0  0  0  0  0  0  0  0  0  0  0  0
   -1.6949    1.2431    1.1627 H   0  0  0  0  0  0  0  0  0  0  0  0
   -2.7397    1.8454   -1.1150 H   0  0  0  0  0  0  0  0  0  0  0  0
  1  2  1  0
  2  3  1  0
  3  4  1  0
  2  5  1  0
  5  6  1  0
  6  7  1  0
  6  8  1  0
  8  9  1  0
  1 10  1  0
  1 11  1  0
  1 12  1  0
  2 13  1  0
  3 14  1  0
  3 15  1  0
  4 16  1  0
  5 17  1  0
  5 18  1  0
  6 19  1  0
  7 20  1  0
  8 21  1  0
  8 22  1  0
  9 23  1  0
M  END
