
     RDKit          3D

 25 25  0  0  0  0  0  0  0  0999 V2000
   -1.6305    0.7674   -1.1850 C   0  0  0  0  0  0  0  0  0  0  0  0
   -0.9258    0.1340   -0.0059 C   0  0  0  0  0  0  0  0  0  0  0  0
   -1.3494    0.9474    1.2248 C   0  0  0  0  0  0  0  0  0  0  0  0
   -1.3758   -1.2573    0.2011 C   0  0  0  0  0  0  0  0  0  0  0  0
    0.5337    0.3409   -0.1648 C   0  0  0  0  0  0  0  0  0  0  0  0
    1.3578   -0.2494    0.9563 C   0  0  0  0  0  0  0  0  0  0  0  0
    2.7108   -0.3031    0.2794 C   0  0  0  0  0  0  0  0  0  0  0  0
    2.5175   -0.3299   -1.0700 O   0  0  0  0  0  0  0  0  0  0  0  0
    1.1688   -0.2937   -1.3471 C   0  0  0  0  0  0  0  0  0  0  0  0
   -2.7145    0.9434   -0.9679 H   0  0  0  0  0  0  0  0  0  0  0  0
   -1.4780    0.2021   -2.1196 H   0  0  0  0  0  0  0  0  0  0  0  0
   -1.1706    1.7802   -1.3502 H   0  0  0  0  0  0  0  0  0  0  0  0
   -2.4173    1.1820    1.0671 H   0  0  0  0  0  0  0  0  0  0  0  0
   -1.2884    0.3312    2.1468 H   0  0  0  0  0  0  0  0  0  0  0  0
   -0.7102    1.8536    1.2653 H   0  0  0  0  0  0  0  0  0  0  0  0
   -2.3141   -1.4331   -0.3843 H   0  0  0  0  0  0  0  0  0  0  0  0
   -1.6467   -1.4810    1.2731 H   0  0  0  0  0  0  0  0  0  0  0  0
   -0.6711   -2.0429   -0.0968 H   0  0  0  0  0  0  0  0  0  0  0  0
    0.7328    1.4335   -0.1796 H   0  0  0  0  0  0  0  0  0  0  0  0
    0.9679   -1.2829    1.1474 H   0  0  0  0  0  0  0  0  0  0  0  0
    1.3584    0.3640    1.8631 H   0  0  0  0  0  0  0  0  0  0  0  0
    3.2056    0.6832    0.5249 H   0  0  0  0  0  0  0  0  0  0  0  0
    3.3484   -1.1246    0.6710 H   0  0  0  0  0  0  0  0  0  0  0  0
    0.9482    0.2056   -2.3134 H   0  0  0  0  0  0  0  0  0  0  0  0
    0.8423   -1.3705   -1.4356 H   0  0  0  0  0  0  0  0  0  0  0  0
  1  2  1  0
  2  3  1  0
  2  4  1  0
  2  5  1  0
  5  6  1  0
  6  7  1  0
  7  8  1  0
  8  9  1  0
  9  5  1  0
  1 10  1  0
  1 11  1  0
  1 12  1  0
  3 13  1  0
  3 14  1  0
  3 15  1  0
  4 16  1  0
  4 17  1  0
  4 18  1  0
  5 19  1  0
  6 20  1  0
  6 21  1  0
  7 22  1  0
  7 23  1  0
  9 24  1  0
  9 25  1  0
M  END
