
     RDKit          3D

 19 19  0  0  0  0  0  0  0  0999 V2000
   -2.0041   -0.7941    0.6076 C   0  0  0  0  0  0  0  0  0  0  0  0
   -0.8368   -0.4711   -0.3317 C   0  0  0  0  0  0  0  0  0  0  0  0
   -1.2264    0.7006   -1.1749 C   0  0  0  0  0  0  0  0  0  0  0  0
    0.3790   -0.1864    0.5297 C   0  0  0  0  0  0  0  0  0  0  0  0
    1.5435    0.1341   -0.3554 C   0  0  0  0  0  0  0  0  0  0  0  0
    2.8257    0.4380    0.4216 C   0  0  0  0  0  0  0  0  0  0  0  0
    2.6628   -0.6874   -0.3688 O   0  0  0  0  0  0  0  0  0  0  0  0
   -2.1074   -0.0397    1.3932 H   0  0  0  0  0  0  0  0  0  0  0  0
   -1.7826   -1.7641    1.0939 H   0  0  0  0  0  0  0  0  0  0  0  0
   -2.9105   -0.8414   -0.0332 H   0  0  0  0  0  0  0  0  0  0  0  0
   -0.6917   -1.3636   -0.9546 H   0  0  0  0  0  0  0  0  0  0  0  0
   -2.2185    0.4689   -1.6276 H   0  0  0  0  0  0  0  0  0  0  0  0
   -1.4006    1.5699   -0.4989 H   0  0  0  0  0  0  0  0  0  0  0  0
   -0.5414    0.9091   -1.9987 H   0  0  0  0  0  0  0  0  0  0  0  0
    0.0916    0.6947    1.1759 H   0  0  0  0  0  0  0  0  0  0  0  0
    0.6111   -1.0169    1.2078 H   0  0  0  0  0  0  0  0  0  0  0  0
    1.3565    0.6810   -1.2861 H   0  0  0  0  0  0  0  0  0  0  0  0
    3.3993    1.3024    0.0380 H   0  0  0  0  0  0  0  0  0  0  0  0
    2.8506    0.2660    1.4972 H   0  0  0  0  0  0  0  0  0  0  0  0
  1  2  1  0
  2  3  1  0
  2  4  1  0
  4  5  1  0
  5  6  1  0
  6  7  1  0
  7  5  1  0
  1  8  1  0
  1  9  1  0
  1 10  1  0
  2 11  1  0
  3 12  1  0
  3 13  1  0
  3 14  1  0
  4 15  1  0
  4 16  1  0
  5 17  1  0
  6 18  1  0
  6 19  1  0
M  END
