
     RDKit          3D

 19 18  0  0  0  0  0  0  0  0999 V2000
    1.0634    0.2485   -1.3085 C   0  0  0  0  0  0  0  0  0  0  0  0
    0.3212    0.5551   -0.0105 C   0  0  0  0  0  0  0  0  0  0  0  0
    1.1395   -0.0204    1.1560 C   0  0  0  0  0  0  0  0  0  0  0  0
    2.3988    0.5507    1.1962 O   0  0  0  0  0  0  0  0  0  0  0  0
   -0.9586   -0.2192   -0.0593 C   0  0  0  0  0  0  0  0  0  0  0  0
   -1.8074    0.1584   -1.2171 C   0  0  0  0  0  0  0  0  0  0  0  0
   -3.0199    0.2653   -1.0984 O   0  0  0  0  0  0  0  0  0  0  0  0
   -1.7436   -0.0980    1.2048 C   0  0  0  0  0  0  0  0  0  0  0  0
   -2.8118   -0.7014    1.2239 O   0  0  0  0  0  0  0  0  0  0  0  0
    2.1357    0.0465   -1.1313 H   0  0  0  0  0  0  0  0  0  0  0  0
    0.6421   -0.6296   -1.8302 H   0  0  0  0  0  0  0  0  0  0  0  0
    0.9521    1.1106   -2.0192 H   0  0  0  0  0  0  0  0  0  0  0  0
    0.2108    1.6320    0.0892 H   0  0  0  0  0  0  0  0  0  0  0  0
    0.5753    0.0668    2.0910 H   0  0  0  0  0  0  0  0  0  0  0  0
    1.2484   -1.1186    0.9445 H   0  0  0  0  0  0  0  0  0  0  0  0
    3.1258   -0.1137    1.0688 H   0  0  0  0  0  0  0  0  0  0  0  0
   -0.6856   -1.2907   -0.1711 H   0  0  0  0  0  0  0  0  0  0  0  0
   -1.3625    0.3459   -2.1894 H   0  0  0  0  0  0  0  0  0  0  0  0
   -1.4236    0.4720    2.0605 H   0  0  0  0  0  0  0  0  0  0  0  0
  1  2  1  0
  2  3  1  0
  3  4  1  0
  2  5  1  0
  5  6  1  0
  6  7  2  0
  5  8  1  0
  8  9  2  0
  1 10  1  0
  1 11  1  0
  1 12  1  0
  2 13  1  0
  3 14  1  0
  3 15  1  0
  4 16  1  0
  5 17  1  0
  6 18  1  0
  8 19  1  0
M  END
