
     RDKit          3D

 22 21  0  0  0  0  0  0  0  0999 V2000
   -0.3023   -1.5222    0.9763 C   0  0  0  0  0  0  0  0  0  0  0  0
    0.0633   -0.5998   -0.1772 C   0  0  0  0  0  0  0  0  0  0  0  0
   -0.8412    0.5909   -0.2576 C   0  0  0  0  0  0  0  0  0  0  0  0
   -2.2858    0.2392   -0.4571 C   0  0  0  0  0  0  0  0  0  0  0  0
   -3.0419    1.4025   -0.5189 O   0  0  0  0  0  0  0  0  0  0  0  0
    1.4813   -0.1454    0.0882 C   0  0  0  0  0  0  0  0  0  0  0  0
    2.0180    0.7896   -0.9704 C   0  0  0  0  0  0  0  0  0  0  0  0
    3.3356    1.1005   -0.5592 O   0  0  0  0  0  0  0  0  0  0  0  0
    0.5991   -2.0068    1.4192 H   0  0  0  0  0  0  0  0  0  0  0  0
   -0.8175   -1.0054    1.7897 H   0  0  0  0  0  0  0  0  0  0  0  0
   -0.9381   -2.3709    0.6036 H   0  0  0  0  0  0  0  0  0  0  0  0
    0.0126   -1.2016   -1.1089 H   0  0  0  0  0  0  0  0  0  0  0  0
   -0.7368    1.2195    0.6488 H   0  0  0  0  0  0  0  0  0  0  0  0
   -0.5057    1.2168   -1.1087 H   0  0  0  0  0  0  0  0  0  0  0  0
   -2.4951   -0.3484   -1.3416 H   0  0  0  0  0  0  0  0  0  0  0  0
   -2.6413   -0.3290    0.4410 H   0  0  0  0  0  0  0  0  0  0  0  0
   -3.7614    1.4304    0.1615 H   0  0  0  0  0  0  0  0  0  0  0  0
    2.1168   -1.0451    0.1830 H   0  0  0  0  0  0  0  0  0  0  0  0
    1.4553    0.3663    1.0912 H   0  0  0  0  0  0  0  0  0  0  0  0
    2.1099    0.2123   -1.9091 H   0  0  0  0  0  0  0  0  0  0  0  0
    1.4620    1.7199   -1.0481 H   0  0  0  0  0  0  0  0  0  0  0  0
    3.7132    0.2868   -0.1615 H   0  0  0  0  0  0  0  0  0  0  0  0
  1  2  1  0
  2  3  1  0
  3  4  1  0
  4  5  1  0
  2  6  1  0
  6  7  1  0
  7  8  1  0
  1  9  1  0
  1 10  1  0
  1 11  1  0
  2 12  1  0
  3 13  1  0
  3 14  1  0
  4 15  1  0
  4 16  1  0
  5 17  1  0
  6 18  1  0
  6 19  1  0
  7 20  1  0
  7 21  1  0
  8 22  1  0
M  END
