
     RDKit          3D

 21 20  0  0  0  0  0  0  0  0999 V2000
   -0.3962   -1.4488   -0.9293 C   0  0  0  0  0  0  0  0  0  0  0  0
   -0.6081    0.0086   -0.5818 C   0  0  0  0  0  0  0  0  0  0  0  0
   -1.5665    0.0912    0.6105 C   0  0  0  0  0  0  0  0  0  0  0  0
   -2.7602   -0.4993    0.2436 O   0  0  0  0  0  0  0  0  0  0  0  0
    0.7601    0.5664   -0.1601 C   0  0  0  0  0  0  0  0  0  0  0  0
    0.5599    1.9983    0.1828 C   0  0  0  0  0  0  0  0  0  0  0  0
    1.2628   -0.2679    0.7862 O   0  0  0  0  0  0  0  0  0  0  0  0
    2.3846   -1.0405    0.5747 C   0  0  0  0  0  0  0  0  0  0  0  0
    2.8906   -0.8998   -0.5636 O   0  0  0  0  0  0  0  0  0  0  0  0
    0.3342   -1.5070   -1.7632 H   0  0  0  0  0  0  0  0  0  0  0  0
   -1.3203   -1.9795   -1.1640 H   0  0  0  0  0  0  0  0  0  0  0  0
    0.0831   -1.9315   -0.0419 H   0  0  0  0  0  0  0  0  0  0  0  0
   -0.9510    0.6174   -1.4173 H   0  0  0  0  0  0  0  0  0  0  0  0
   -1.1338   -0.3647    1.5047 H   0  0  0  0  0  0  0  0  0  0  0  0
   -1.7474    1.1784    0.8325 H   0  0  0  0  0  0  0  0  0  0  0  0
   -3.3975   -0.5215    0.9797 H   0  0  0  0  0  0  0  0  0  0  0  0
    1.3755    0.5257   -1.0930 H   0  0  0  0  0  0  0  0  0  0  0  0
   -0.2416    2.3981   -0.4778 H   0  0  0  0  0  0  0  0  0  0  0  0
    0.2081    2.1534    1.2240 H   0  0  0  0  0  0  0  0  0  0  0  0
    1.4511    2.6393   -0.0537 H   0  0  0  0  0  0  0  0  0  0  0  0
    2.8127   -1.7165    1.3071 H   0  0  0  0  0  0  0  0  0  0  0  0
  1  2  1  0
  2  3  1  0
  3  4  1  0
  2  5  1  0
  5  6  1  0
  5  7  1  0
  7  8  1  0
  8  9  2  0
  1 10  1  0
  1 11  1  0
  1 12  1  0
  2 13  1  0
  3 14  1  0
  3 15  1  0
  4 16  1  0
  5 17  1  0
  6 18  1  0
  6 19  1  0
  6 20  1  0
  8 21  1  0
M  END
