
     RDKit          3D

 23 23  0  0  0  0  0  0  0  0999 V2000
   -1.7212   -0.6708   -0.9420 C   0  0  0  0  0  0  0  0  0  0  0  0
   -1.2610   -0.6843    0.4931 C   0  0  0  0  0  0  0  0  0  0  0  0
   -2.4870   -0.3944    1.3324 C   0  0  0  0  0  0  0  0  0  0  0  0
   -2.9777    0.7099    1.1706 O   0  0  0  0  0  0  0  0  0  0  0  0
   -0.3029    0.4071    0.7731 C   0  0  0  0  0  0  0  0  0  0  0  0
    0.9811    0.4426    0.0449 C   0  0  0  0  0  0  0  0  0  0  0  0
    1.8337    1.6722    0.4665 C   0  0  0  0  0  0  0  0  0  0  0  0
    1.8333   -0.8330    0.1782 C   0  0  0  0  0  0  0  0  0  0  0  0
    1.3659   -0.2610   -1.1625 C   0  0  0  0  0  0  0  0  0  0  0  0
   -1.2948    0.1856   -1.5107 H   0  0  0  0  0  0  0  0  0  0  0  0
   -2.8598   -0.6122   -0.9922 H   0  0  0  0  0  0  0  0  0  0  0  0
   -1.4919   -1.5897   -1.5064 H   0  0  0  0  0  0  0  0  0  0  0  0
   -0.8963   -1.6919    0.8016 H   0  0  0  0  0  0  0  0  0  0  0  0
   -2.8915   -1.1172    2.0213 H   0  0  0  0  0  0  0  0  0  0  0  0
   -0.8440    1.3740    0.5130 H   0  0  0  0  0  0  0  0  0  0  0  0
   -0.1616    0.5300    1.8960 H   0  0  0  0  0  0  0  0  0  0  0  0
    2.7495    1.7129   -0.1191 H   0  0  0  0  0  0  0  0  0  0  0  0
    2.0704    1.4767    1.5338 H   0  0  0  0  0  0  0  0  0  0  0  0
    1.2110    2.5850    0.3820 H   0  0  0  0  0  0  0  0  0  0  0  0
    1.3033   -1.7369    0.5635 H   0  0  0  0  0  0  0  0  0  0  0  0
    2.9171   -0.7382    0.3687 H   0  0  0  0  0  0  0  0  0  0  0  0
    2.1799    0.1816   -1.8100 H   0  0  0  0  0  0  0  0  0  0  0  0
    0.7447   -0.9482   -1.7217 H   0  0  0  0  0  0  0  0  0  0  0  0
  1  2  1  0
  2  3  1  0
  3  4  2  0
  2  5  1  0
  5  6  1  0
  6  7  1  0
  6  8  1  0
  8  9  1  0
  9  6  1  0
  1 10  1  0
  1 11  1  0
  1 12  1  0
  2 13  1  0
  3 14  1  0
  5 15  1  0
  5 16  1  0
  7 17  1  0
  7 18  1  0
  7 19  1  0
  8 20  1  0
  8 21  1  0
  9 22  1  0
  9 23  1  0
M  END
