
     RDKit          3D

 23 23  0  0  0  0  0  0  0  0999 V2000
    2.7927    0.8723    0.9269 C   0  0  0  0  0  0  0  0  0  0  0  0
    2.3009   -0.0083   -0.1793 C   0  0  0  0  0  0  0  0  0  0  0  0
    2.6763   -1.4598    0.0140 C   0  0  0  0  0  0  0  0  0  0  0  0
    0.8305    0.0692   -0.1940 C   0  0  0  0  0  0  0  0  0  0  0  0
   -0.3791    0.1472   -0.2160 C   0  0  0  0  0  0  0  0  0  0  0  0
   -1.8393    0.2641   -0.2497 C   0  0  0  0  0  0  0  0  0  0  0  0
   -2.4210    1.5216   -0.9012 C   0  0  0  0  0  0  0  0  0  0  0  0
   -2.5896   -0.3796    0.8261 C   0  0  0  0  0  0  0  0  0  0  0  0
   -2.6117   -1.0470   -0.5041 C   0  0  0  0  0  0  0  0  0  0  0  0
    2.0054    1.5890    1.2453 H   0  0  0  0  0  0  0  0  0  0  0  0
    3.1949    0.2959    1.8020 H   0  0  0  0  0  0  0  0  0  0  0  0
    3.6430    1.4899    0.5708 H   0  0  0  0  0  0  0  0  0  0  0  0
    2.7340    0.3391   -1.1418 H   0  0  0  0  0  0  0  0  0  0  0  0
    3.5791   -1.5041    0.6659 H   0  0  0  0  0  0  0  0  0  0  0  0
    2.9757   -1.9237   -0.9492 H   0  0  0  0  0  0  0  0  0  0  0  0
    1.8329   -2.0346    0.4188 H   0  0  0  0  0  0  0  0  0  0  0  0
   -1.8682    2.3708   -0.4429 H   0  0  0  0  0  0  0  0  0  0  0  0
   -3.4838    1.5988   -0.6807 H   0  0  0  0  0  0  0  0  0  0  0  0
   -2.1821    1.5328   -1.9885 H   0  0  0  0  0  0  0  0  0  0  0  0
   -2.1333   -0.9209    1.6614 H   0  0  0  0  0  0  0  0  0  0  0  0
   -3.5741    0.0949    1.1049 H   0  0  0  0  0  0  0  0  0  0  0  0
   -3.5003   -0.9515   -1.1747 H   0  0  0  0  0  0  0  0  0  0  0  0
   -1.9829   -1.9562   -0.6140 H   0  0  0  0  0  0  0  0  0  0  0  0
  1  2  1  0
  2  3  1  0
  2  4  1  0
  4  5  3  0
  5  6  1  0
  6  7  1  0
  6  8  1  0
  8  9  1  0
  9  6  1  0
  1 10  1  0
  1 11  1  0
  1 12  1  0
  2 13  1  0
  3 14  1  0
  3 15  1  0
  3 16  1  0
  7 17  1  0
  7 18  1  0
  7 19  1  0
  8 20  1  0
  8 21  1  0
  9 22  1  0
  9 23  1  0
M  END
