
     RDKit          3D

 23 23  0  0  0  0  0  0  0  0999 V2000
   -2.1444   -0.5569    1.1740 C   0  0  0  0  0  0  0  0  0  0  0  0
   -1.4335   -0.5134   -0.1577 C   0  0  0  0  0  0  0  0  0  0  0  0
   -2.0609    0.5617   -1.0038 C   0  0  0  0  0  0  0  0  0  0  0  0
    0.0299   -0.3180    0.0553 C   0  0  0  0  0  0  0  0  0  0  0  0
    0.7451   -0.2738   -1.2718 C   0  0  0  0  0  0  0  0  0  0  0  0
    2.0704   -0.1637   -1.1372 C   0  0  0  0  0  0  0  0  0  0  0  0
    2.5422   -0.1096    0.2801 C   0  0  0  0  0  0  0  0  0  0  0  0
    1.6950    0.9461    0.9598 C   0  0  0  0  0  0  0  0  0  0  0  0
    0.3557    0.8346    0.7215 O   0  0  0  0  0  0  0  0  0  0  0  0
   -1.4497   -0.2271    1.9748 H   0  0  0  0  0  0  0  0  0  0  0  0
   -2.4549   -1.6033    1.4226 H   0  0  0  0  0  0  0  0  0  0  0  0
   -3.0128    0.1121    1.1911 H   0  0  0  0  0  0  0  0  0  0  0  0
   -1.5645   -1.5105   -0.6580 H   0  0  0  0  0  0  0  0  0  0  0  0
   -1.4754    0.7723   -1.9196 H   0  0  0  0  0  0  0  0  0  0  0  0
   -3.0585    0.1888   -1.3253 H   0  0  0  0  0  0  0  0  0  0  0  0
   -2.1754    1.4867   -0.4111 H   0  0  0  0  0  0  0  0  0  0  0  0
    0.4072   -1.1756    0.6457 H   0  0  0  0  0  0  0  0  0  0  0  0
    0.2409   -0.3255   -2.2147 H   0  0  0  0  0  0  0  0  0  0  0  0
    2.6972   -0.1217   -1.9952 H   0  0  0  0  0  0  0  0  0  0  0  0
    2.4570   -1.0947    0.7774 H   0  0  0  0  0  0  0  0  0  0  0  0
    3.6042    0.2527    0.3358 H   0  0  0  0  0  0  0  0  0  0  0  0
    2.0320    1.9293    0.5188 H   0  0  0  0  0  0  0  0  0  0  0  0
    1.9532    0.9095    2.0373 H   0  0  0  0  0  0  0  0  0  0  0  0
  1  2  1  0
  2  3  1  0
  2  4  1  0
  4  5  1  0
  5  6  2  0
  6  7  1  0
  7  8  1  0
  8  9  1  0
  9  4  1  0
  1 10  1  0
  1 11  1  0
  1 12  1  0
  2 13  1  0
  3 14  1  0
  3 15  1  0
  3 16  1  0
  4 17  1  0
  5 18  1  0
  6 19  1  0
  7 20  1  0
  7 21  1  0
  8 22  1  0
  8 23  1  0
M  END
