
     RDKit          3D

 21 22  0  0  0  0  0  0  0  0999 V2000
   -1.5091    1.1323   -0.6807 C   0  0  0  0  0  0  0  0  0  0  0  0
   -0.8262    0.1332    0.2580 C   0  0  0  0  0  0  0  0  0  0  0  0
   -1.6824   -1.1226    0.2378 C   0  0  0  0  0  0  0  0  0  0  0  0
   -0.9285    0.6674    1.5300 O   0  0  0  0  0  0  0  0  0  0  0  0
    0.4751   -0.1164   -0.1220 C   0  0  0  0  0  0  0  0  0  0  0  0
    1.5726    0.8759   -0.3231 C   0  0  0  0  0  0  0  0  0  0  0  0
    2.0837   -0.4701   -0.7474 C   0  0  0  0  0  0  0  0  0  0  0  0
    1.4607   -1.0286    0.4935 C   0  0  0  0  0  0  0  0  0  0  0  0
    0.8552   -0.6572   -1.3615 O   0  0  0  0  0  0  0  0  0  0  0  0
   -1.0131    1.0649   -1.6669 H   0  0  0  0  0  0  0  0  0  0  0  0
   -1.3609    2.1747   -0.2922 H   0  0  0  0  0  0  0  0  0  0  0  0
   -2.5679    0.9118   -0.8275 H   0  0  0  0  0  0  0  0  0  0  0  0
   -2.5095   -1.0612   -0.4991 H   0  0  0  0  0  0  0  0  0  0  0  0
   -1.0663   -2.0069   -0.0964 H   0  0  0  0  0  0  0  0  0  0  0  0
   -2.0611   -1.3903    1.2391 H   0  0  0  0  0  0  0  0  0  0  0  0
   -0.4235    1.4886    1.6614 H   0  0  0  0  0  0  0  0  0  0  0  0
    2.0286    1.3127    0.5851 H   0  0  0  0  0  0  0  0  0  0  0  0
    1.3642    1.5652   -1.1539 H   0  0  0  0  0  0  0  0  0  0  0  0
    2.9934   -0.6815   -1.1260 H   0  0  0  0  0  0  0  0  0  0  0  0
    1.9181   -0.7074    1.4461 H   0  0  0  0  0  0  0  0  0  0  0  0
    1.1968   -2.0844    0.4185 H   0  0  0  0  0  0  0  0  0  0  0  0
  1  2  1  0
  2  3  1  0
  2  4  1  0
  2  5  1  0
  5  6  1  0
  6  7  1  0
  7  8  1  0
  7  9  1  0
  8  5  1  0
  9  5  1  0
  1 10  1  0
  1 11  1  0
  1 12  1  0
  3 13  1  0
  3 14  1  0
  3 15  1  0
  4 16  1  0
  6 17  1  0
  6 18  1  0
  7 19  1  0
  8 20  1  0
  8 21  1  0
M  END
