
     RDKit          3D

 16 15  0  0  0  0  0  0  0  0999 V2000
   -0.2794    1.4361   -0.6947 C   0  0  0  0  0  0  0  0  0  0  0  0
   -0.1249    0.3060    0.2858 C   0  0  0  0  0  0  0  0  0  0  0  0
   -1.4350   -0.4359    0.3976 C   0  0  0  0  0  0  0  0  0  0  0  0
   -1.2200   -1.4776    1.3287 O   0  0  0  0  0  0  0  0  0  0  0  0
    0.9580   -0.6274   -0.0536 C   0  0  0  0  0  0  0  0  0  0  0  0
    0.6492   -1.8506   -0.2547 O   0  0  0  0  0  0  0  0  0  0  0  0
    2.3498   -0.2563   -0.1755 C   0  0  0  0  0  0  0  0  0  0  0  0
    2.6671    0.9317    0.0173 O   0  0  0  0  0  0  0  0  0  0  0  0
   -0.4763    2.3718   -0.1468 H   0  0  0  0  0  0  0  0  0  0  0  0
   -1.1840    1.2720   -1.3448 H   0  0  0  0  0  0  0  0  0  0  0  0
    0.6334    1.4894   -1.3281 H   0  0  0  0  0  0  0  0  0  0  0  0
    0.0735    0.7263    1.3156 H   0  0  0  0  0  0  0  0  0  0  0  0
   -2.2687    0.2088    0.6928 H   0  0  0  0  0  0  0  0  0  0  0  0
   -1.6917   -0.8708   -0.6037 H   0  0  0  0  0  0  0  0  0  0  0  0
   -1.7481   -2.2512    0.9882 H   0  0  0  0  0  0  0  0  0  0  0  0
    3.0970   -0.9723   -0.4240 H   0  0  0  0  0  0  0  0  0  0  0  0
  1  2  1  0
  2  3  1  0
  3  4  1  0
  2  5  1  0
  5  6  2  0
  5  7  1  0
  7  8  2  0
  1  9  1  0
  1 10  1  0
  1 11  1  0
  2 12  1  0
  3 13  1  0
  3 14  1  0
  4 15  1  0
  7 16  1  0
M  END
