
     RDKit          3D

 21 21  0  0  0  0  0  0  0  0999 V2000
   -1.5245    1.0608   -0.6589 C   0  0  0  0  0  0  0  0  0  0  0  0
   -1.1040    0.0675    0.3936 C   0  0  0  0  0  0  0  0  0  0  0  0
   -1.7606   -1.2408    0.1109 C   0  0  0  0  0  0  0  0  0  0  0  0
    0.3810   -0.0068    0.5604 C   0  0  0  0  0  0  0  0  0  0  0  0
    0.7875   -0.9279    1.5376 O   0  0  0  0  0  0  0  0  0  0  0  0
    1.1675    1.2654    0.4530 C   0  0  0  0  0  0  0  0  0  0  0  0
    1.3162    0.1357   -0.5781 C   0  0  0  0  0  0  0  0  0  0  0  0
    2.6433   -0.5156   -0.5170 C   0  0  0  0  0  0  0  0  0  0  0  0
    3.1867   -0.7890    0.5283 O   0  0  0  0  0  0  0  0  0  0  0  0
   -1.0849    0.8566   -1.6519 H   0  0  0  0  0  0  0  0  0  0  0  0
   -2.6506    0.9955   -0.7099 H   0  0  0  0  0  0  0  0  0  0  0  0
   -1.2997    2.1087   -0.3071 H   0  0  0  0  0  0  0  0  0  0  0  0
   -1.5258    0.4463    1.3645 H   0  0  0  0  0  0  0  0  0  0  0  0
   -2.6493   -1.1527   -0.5678 H   0  0  0  0  0  0  0  0  0  0  0  0
   -2.1574   -1.7236    1.0370 H   0  0  0  0  0  0  0  0  0  0  0  0
   -1.0818   -1.9651   -0.4070 H   0  0  0  0  0  0  0  0  0  0  0  0
    0.6880   -1.8275    1.1223 H   0  0  0  0  0  0  0  0  0  0  0  0
    0.6950    2.2011    0.1084 H   0  0  0  0  0  0  0  0  0  0  0  0
    1.9490    1.4108    1.2007 H   0  0  0  0  0  0  0  0  0  0  0  0
    0.8896    0.3514   -1.5753 H   0  0  0  0  0  0  0  0  0  0  0  0
    3.1348   -0.7506   -1.4437 H   0  0  0  0  0  0  0  0  0  0  0  0
  1  2  1  0
  2  3  1  0
  2  4  1  0
  4  5  1  0
  4  6  1  0
  6  7  1  0
  7  8  1  0
  8  9  2  0
  7  4  1  0
  1 10  1  0
  1 11  1  0
  1 12  1  0
  2 13  1  0
  3 14  1  0
  3 15  1  0
  3 16  1  0
  5 17  1  0
  6 18  1  0
  6 19  1  0
  7 20  1  0
  8 21  1  0
M  END
