
     RDKit          3D

 18 17  0  0  0  0  0  0  0  0999 V2000
   -0.7671   -1.1920   -0.6045 C   0  0  0  0  0  0  0  0  0  0  0  0
   -0.3620    0.0994    0.0488 C   0  0  0  0  0  0  0  0  0  0  0  0
   -0.4948    1.2843   -0.8624 C   0  0  0  0  0  0  0  0  0  0  0  0
   -1.2539    0.3366    1.2248 C   0  0  0  0  0  0  0  0  0  0  0  0
   -1.9041    1.3463    1.3820 O   0  0  0  0  0  0  0  0  0  0  0  0
    1.0381   -0.0514    0.6016 C   0  0  0  0  0  0  0  0  0  0  0  0
    2.0313   -0.3711   -0.4375 C   0  0  0  0  0  0  0  0  0  0  0  0
    2.1576   -1.5080   -0.8878 O   0  0  0  0  0  0  0  0  0  0  0  0
   -0.3335   -2.0153   -0.0073 H   0  0  0  0  0  0  0  0  0  0  0  0
   -0.3547   -1.3062   -1.6290 H   0  0  0  0  0  0  0  0  0  0  0  0
   -1.8765   -1.3391   -0.5800 H   0  0  0  0  0  0  0  0  0  0  0  0
   -0.0271    1.1478   -1.8546 H   0  0  0  0  0  0  0  0  0  0  0  0
   -0.0512    2.1607   -0.3113 H   0  0  0  0  0  0  0  0  0  0  0  0
   -1.5757    1.5171   -0.9703 H   0  0  0  0  0  0  0  0  0  0  0  0
   -1.3164   -0.4357    1.9680 H   0  0  0  0  0  0  0  0  0  0  0  0
    1.0320   -0.9079    1.3232 H   0  0  0  0  0  0  0  0  0  0  0  0
    1.3751    0.8524    1.1358 H   0  0  0  0  0  0  0  0  0  0  0  0
    2.6829    0.3821   -0.8408 H   0  0  0  0  0  0  0  0  0  0  0  0
  1  2  1  0
  2  3  1  0
  2  4  1  0
  4  5  2  0
  2  6  1  0
  6  7  1  0
  7  8  2  0
  1  9  1  0
  1 10  1  0
  1 11  1  0
  3 12  1  0
  3 13  1  0
  3 14  1  0
  4 15  1  0
  6 16  1  0
  6 17  1  0
  7 18  1  0
M  END
