
     RDKit          3D

 23 25  0  0  0  0  0  0  0  0999 V2000
    1.8058   -0.0218   -1.2729 C   0  0  0  0  0  0  0  0  0  0  0  0
    1.1293   -0.4646    0.0168 C   0  0  0  0  0  0  0  0  0  0  0  0
    1.9846    0.0854    1.1558 C   0  0  0  0  0  0  0  0  0  0  0  0
   -0.2666   -0.1924    0.1019 C   0  0  0  0  0  0  0  0  0  0  0  0
   -1.0762    0.9977    0.0604 C   0  0  0  0  0  0  0  0  0  0  0  0
   -1.8123    0.4583    1.2961 C   0  0  0  0  0  0  0  0  0  0  0  0
   -1.3349   -0.9152    0.7839 C   0  0  0  0  0  0  0  0  0  0  0  0
   -1.2799   -0.9097   -0.6931 C   0  0  0  0  0  0  0  0  0  0  0  0
   -1.7465    0.4599   -1.2086 C   0  0  0  0  0  0  0  0  0  0  0  0
    1.0539    0.4187   -1.9559 H   0  0  0  0  0  0  0  0  0  0  0  0
    2.2895   -0.8430   -1.8116 H   0  0  0  0  0  0  0  0  0  0  0  0
    2.5532    0.7898   -1.0879 H   0  0  0  0  0  0  0  0  0  0  0  0
    1.3015   -1.5835    0.0723 H   0  0  0  0  0  0  0  0  0  0  0  0
    2.1707    1.1661    1.0400 H   0  0  0  0  0  0  0  0  0  0  0  0
    1.5929   -0.1999    2.1402 H   0  0  0  0  0  0  0  0  0  0  0  0
    2.9784   -0.4143    1.0486 H   0  0  0  0  0  0  0  0  0  0  0  0
   -0.7382    1.9936    0.0724 H   0  0  0  0  0  0  0  0  0  0  0  0
   -2.9070    0.5607    1.2416 H   0  0  0  0  0  0  0  0  0  0  0  0
   -1.3078    0.8035    2.1971 H   0  0  0  0  0  0  0  0  0  0  0  0
   -1.2567   -1.7550    1.4311 H   0  0  0  0  0  0  0  0  0  0  0  0
   -0.9687   -1.6896   -1.3413 H   0  0  0  0  0  0  0  0  0  0  0  0
   -1.3102    0.7861   -2.1392 H   0  0  0  0  0  0  0  0  0  0  0  0
   -2.8547    0.4692   -1.1477 H   0  0  0  0  0  0  0  0  0  0  0  0
  1  2  1  0
  2  3  1  0
  2  4  1  0
  4  5  1  0
  5  6  1  0
  6  7  1  0
  7  8  1  0
  8  9  1  0
  7  4  1  0
  8  4  1  0
  9  5  1  0
  1 10  1  0
  1 11  1  0
  1 12  1  0
  2 13  1  0
  3 14  1  0
  3 15  1  0
  3 16  1  0
  5 17  1  0
  6 18  1  0
  6 19  1  0
  7 20  1  0
  8 21  1  0
  9 22  1  0
  9 23  1  0
M  END
