
     RDKit          3D

 19 18  0  0  0  0  0  0  0  0999 V2000
   -2.4271    1.4656   -0.3603 C   0  0  0  0  0  0  0  0  0  0  0  0
   -1.7902    0.3211    0.3810 C   0  0  0  0  0  0  0  0  0  0  0  0
   -2.3538   -1.0154   -0.0022 C   0  0  0  0  0  0  0  0  0  0  0  0
   -0.3468    0.2801    0.1137 C   0  0  0  0  0  0  0  0  0  0  0  0
    0.8362    0.2604   -0.1199 C   0  0  0  0  0  0  0  0  0  0  0  0
    2.2706    0.2227   -0.3845 C   0  0  0  0  0  0  0  0  0  0  0  0
    2.8242    1.1407   -1.0445 O   0  0  0  0  0  0  0  0  0  0  0  0
    3.0855   -0.8831    0.1141 C   0  0  0  0  0  0  0  0  0  0  0  0
    4.4157   -0.7099   -0.2559 O   0  0  0  0  0  0  0  0  0  0  0  0
   -1.6151    2.1582   -0.6641 H   0  0  0  0  0  0  0  0  0  0  0  0
   -2.9681    1.1509   -1.2697 H   0  0  0  0  0  0  0  0  0  0  0  0
   -3.0926    2.0496    0.3079 H   0  0  0  0  0  0  0  0  0  0  0  0
   -1.9863    0.4662    1.4708 H   0  0  0  0  0  0  0  0  0  0  0  0
   -2.2646   -1.6920    0.8694 H   0  0  0  0  0  0  0  0  0  0  0  0
   -1.7742   -1.4077   -0.8481 H   0  0  0  0  0  0  0  0  0  0  0  0
   -3.4246   -0.9346   -0.3484 H   0  0  0  0  0  0  0  0  0  0  0  0
    3.0082   -0.8727    1.2361 H   0  0  0  0  0  0  0  0  0  0  0  0
    2.7731   -1.8717   -0.2915 H   0  0  0  0  0  0  0  0  0  0  0  0
    4.8300   -0.1284    0.4374 H   0  0  0  0  0  0  0  0  0  0  0  0
  1  2  1  0
  2  3  1  0
  2  4  1  0
  4  5  3  0
  5  6  1  0
  6  7  2  0
  6  8  1  0
  8  9  1  0
  1 10  1  0
  1 11  1  0
  1 12  1  0
  2 13  1  0
  3 14  1  0
  3 15  1  0
  3 16  1  0
  8 17  1  0
  8 18  1  0
  9 19  1  0
M  END
