
     RDKit          3D

 23 23  0  0  0  0  0  0  0  0999 V2000
    0.4022    1.9056   -0.6562 C   0  0  0  0  0  0  0  0  0  0  0  0
    0.3834    0.6554    0.2582 C   0  0  0  0  0  0  0  0  0  0  0  0
    1.6812   -0.0381   -0.0321 C   0  0  0  0  0  0  0  0  0  0  0  0
    2.1348   -1.2408    0.6028 C   0  0  0  0  0  0  0  0  0  0  0  0
    1.4516   -1.3962   -0.6204 O   0  0  0  0  0  0  0  0  0  0  0  0
   -0.7705   -0.2136   -0.1321 C   0  0  0  0  0  0  0  0  0  0  0  0
   -2.0923    0.5487   -0.0283 C   0  0  0  0  0  0  0  0  0  0  0  0
   -0.8768   -1.3750    0.8372 C   0  0  0  0  0  0  0  0  0  0  0  0
   -0.6694   -0.7495   -1.3967 O   0  0  0  0  0  0  0  0  0  0  0  0
    0.3724    1.6297   -1.7080 H   0  0  0  0  0  0  0  0  0  0  0  0
    1.3803    2.3833   -0.4399 H   0  0  0  0  0  0  0  0  0  0  0  0
   -0.3798    2.6081   -0.3647 H   0  0  0  0  0  0  0  0  0  0  0  0
    0.3219    1.0184    1.2849 H   0  0  0  0  0  0  0  0  0  0  0  0
    2.4408    0.5131   -0.6553 H   0  0  0  0  0  0  0  0  0  0  0  0
    1.6715   -1.7191    1.4626 H   0  0  0  0  0  0  0  0  0  0  0  0
    3.2381   -1.4994    0.4439 H   0  0  0  0  0  0  0  0  0  0  0  0
   -2.8705   -0.1677   -0.3918 H   0  0  0  0  0  0  0  0  0  0  0  0
   -2.3039    0.8526    1.0057 H   0  0  0  0  0  0  0  0  0  0  0  0
   -2.0340    1.4475   -0.6653 H   0  0  0  0  0  0  0  0  0  0  0  0
   -1.9911   -1.6424    0.9593 H   0  0  0  0  0  0  0  0  0  0  0  0
   -0.5169   -1.1267    1.8538 H   0  0  0  0  0  0  0  0  0  0  0  0
   -0.3539   -2.2900    0.5065 H   0  0  0  0  0  0  0  0  0  0  0  0
   -0.6193   -0.1037   -2.1241 H   0  0  0  0  0  0  0  0  0  0  0  0
  1  2  1  0
  2  3  1  0
  3  4  1  0
  4  5  1  0
  2  6  1  0
  6  7  1  0
  6  8  1  0
  6  9  1  0
  5  3  1  0
  1 10  1  0
  1 11  1  0
  1 12  1  0
  2 13  1  0
  3 14  1  0
  4 15  1  0
  4 16  1  0
  7 17  1  0
  7 18  1  0
  7 19  1  0
  8 20  1  0
  8 21  1  0
  8 22  1  0
  9 23  1  0
M  END
