
     RDKit          3D

 21 22  0  0  0  0  0  0  0  0999 V2000
   -1.8877    1.3846   -0.0452 C   0  0  0  0  0  0  0  0  0  0  0  0
   -1.2727    0.0581    0.3756 C   0  0  0  0  0  0  0  0  0  0  0  0
   -2.2813   -1.0169    0.0019 C   0  0  0  0  0  0  0  0  0  0  0  0
    0.0224   -0.1099   -0.3806 C   0  0  0  0  0  0  0  0  0  0  0  0
    0.8404    0.9700   -0.0294 O   0  0  0  0  0  0  0  0  0  0  0  0
    2.0603    0.5730   -0.5609 C   0  0  0  0  0  0  0  0  0  0  0  0
    3.0490   -0.1515    0.2660 C   0  0  0  0  0  0  0  0  0  0  0  0
    2.0178   -0.9213   -0.5058 C   0  0  0  0  0  0  0  0  0  0  0  0
    0.7739   -1.1816    0.0761 O   0  0  0  0  0  0  0  0  0  0  0  0
   -2.8200    1.5770    0.5430 H   0  0  0  0  0  0  0  0  0  0  0  0
   -1.1180    2.1677    0.1301 H   0  0  0  0  0  0  0  0  0  0  0  0
   -2.2064    1.3302   -1.1110 H   0  0  0  0  0  0  0  0  0  0  0  0
   -1.1182    0.0991    1.4677 H   0  0  0  0  0  0  0  0  0  0  0  0
   -1.8337   -2.0128   -0.0589 H   0  0  0  0  0  0  0  0  0  0  0  0
   -2.7404   -0.7241   -0.9781 H   0  0  0  0  0  0  0  0  0  0  0  0
   -3.1105   -0.9392    0.7437 H   0  0  0  0  0  0  0  0  0  0  0  0
   -0.1778   -0.1743   -1.4486 H   0  0  0  0  0  0  0  0  0  0  0  0
    2.4183    1.0382   -1.5030 H   0  0  0  0  0  0  0  0  0  0  0  0
    4.0733   -0.2187   -0.1073 H   0  0  0  0  0  0  0  0  0  0  0  0
    2.9706   -0.2141    1.3697 H   0  0  0  0  0  0  0  0  0  0  0  0
    2.3407   -1.5334   -1.3663 H   0  0  0  0  0  0  0  0  0  0  0  0
  1  2  1  0
  2  3  1  0
  2  4  1  0
  4  5  1  0
  5  6  1  0
  6  7  1  0
  7  8  1  0
  8  9  1  0
  9  4  1  0
  8  6  1  0
  1 10  1  0
  1 11  1  0
  1 12  1  0
  2 13  1  0
  3 14  1  0
  3 15  1  0
  3 16  1  0
  4 17  1  0
  6 18  1  0
  7 19  1  0
  7 20  1  0
  8 21  1  0
M  END
