
     RDKit          3D

 22 23  0  0  0  0  0  0  0  0999 V2000
    0.1303    1.8478   -0.5082 C   0  0  0  0  0  0  0  0  0  0  0  0
   -0.0739    0.3504   -0.2643 C   0  0  0  0  0  0  0  0  0  0  0  0
   -1.3434    0.1634    0.4853 C   0  0  0  0  0  0  0  0  0  0  0  0
   -1.8684   -1.1423    0.8986 C   0  0  0  0  0  0  0  0  0  0  0  0
   -2.5099   -0.4679   -0.3192 C   0  0  0  0  0  0  0  0  0  0  0  0
    1.1465   -0.1418    0.4523 C   0  0  0  0  0  0  0  0  0  0  0  0
    2.4357    0.0611   -0.3405 C   0  0  0  0  0  0  0  0  0  0  0  0
    1.9030   -1.3204    0.0660 C   0  0  0  0  0  0  0  0  0  0  0  0
    0.5549    2.2936    0.4353 H   0  0  0  0  0  0  0  0  0  0  0  0
   -0.8191    2.3581   -0.7175 H   0  0  0  0  0  0  0  0  0  0  0  0
    0.8390    2.0318   -1.3358 H   0  0  0  0  0  0  0  0  0  0  0  0
   -0.1452   -0.1018   -1.2869 H   0  0  0  0  0  0  0  0  0  0  0  0
   -1.6793    1.0421    1.1006 H   0  0  0  0  0  0  0  0  0  0  0  0
   -1.4074   -2.0985    0.6597 H   0  0  0  0  0  0  0  0  0  0  0  0
   -2.5002   -1.1896    1.8303 H   0  0  0  0  0  0  0  0  0  0  0  0
   -3.4987   -0.0247   -0.2170 H   0  0  0  0  0  0  0  0  0  0  0  0
   -2.2376   -0.8505   -1.3256 H   0  0  0  0  0  0  0  0  0  0  0  0
    1.2181    0.1978    1.5045 H   0  0  0  0  0  0  0  0  0  0  0  0
    3.3206    0.4528    0.1954 H   0  0  0  0  0  0  0  0  0  0  0  0
    2.3654    0.3560   -1.4008 H   0  0  0  0  0  0  0  0  0  0  0  0
    1.6982   -1.9607   -0.7902 H   0  0  0  0  0  0  0  0  0  0  0  0
    2.4717   -1.8565    0.8779 H   0  0  0  0  0  0  0  0  0  0  0  0
  1  2  1  0
  2  3  1  0
  3  4  1  0
  4  5  1  0
  2  6  1  0
  6  7  1  0
  7  8  1  0
  5  3  1  0
  8  6  1  0
  1  9  1  0
  1 10  1  0
  1 11  1  0
  2 12  1  0
  3 13  1  0
  4 14  1  0
  4 15  1  0
  5 16  1  0
  5 17  1  0
  6 18  1  0
  7 19  1  0
  7 20  1  0
  8 21  1  0
  8 22  1  0
M  END
