
     RDKit          3D

 23 23  0  0  0  0  0  0  0  0999 V2000
    0.1818    1.9860    0.1084 C   0  0  0  0  0  0  0  0  0  0  0  0
   -0.2956    0.6342    0.5473 C   0  0  0  0  0  0  0  0  0  0  0  0
   -1.5105    0.1785   -0.2248 C   0  0  0  0  0  0  0  0  0  0  0  0
   -2.0066   -1.1637    0.1916 C   0  0  0  0  0  0  0  0  0  0  0  0
   -3.1187   -1.4759   -0.5816 O   0  0  0  0  0  0  0  0  0  0  0  0
    0.8103   -0.3539    0.5655 C   0  0  0  0  0  0  0  0  0  0  0  0
    1.5325   -0.6391   -0.6942 C   0  0  0  0  0  0  0  0  0  0  0  0
    2.7843   -0.4244    0.1523 C   0  0  0  0  0  0  0  0  0  0  0  0
    1.9844    0.2733    1.0478 O   0  0  0  0  0  0  0  0  0  0  0  0
    0.9218    1.9468   -0.7128 H   0  0  0  0  0  0  0  0  0  0  0  0
   -0.7108    2.5273   -0.3138 H   0  0  0  0  0  0  0  0  0  0  0  0
    0.6371    2.5337    0.9374 H   0  0  0  0  0  0  0  0  0  0  0  0
   -0.6459    0.7575    1.6162 H   0  0  0  0  0  0  0  0  0  0  0  0
   -2.3329    0.9082   -0.0760 H   0  0  0  0  0  0  0  0  0  0  0  0
   -1.2716    0.2043   -1.3127 H   0  0  0  0  0  0  0  0  0  0  0  0
   -2.3290   -1.1487    1.2384 H   0  0  0  0  0  0  0  0  0  0  0  0
   -1.2387   -1.9289   -0.0307 H   0  0  0  0  0  0  0  0  0  0  0  0
   -3.8099   -0.7427   -0.5409 H   0  0  0  0  0  0  0  0  0  0  0  0
    0.6537   -1.2697    1.1728 H   0  0  0  0  0  0  0  0  0  0  0  0
    1.4760    0.0867   -1.5067 H   0  0  0  0  0  0  0  0  0  0  0  0
    1.5327   -1.6910   -1.0510 H   0  0  0  0  0  0  0  0  0  0  0  0
    3.5826    0.1446   -0.3269 H   0  0  0  0  0  0  0  0  0  0  0  0
    3.1729   -1.3429    0.6361 H   0  0  0  0  0  0  0  0  0  0  0  0
  1  2  1  0
  2  3  1  0
  3  4  1  0
  4  5  1  0
  2  6  1  0
  6  7  1  0
  7  8  1  0
  8  9  1  0
  9  6  1  0
  1 10  1  0
  1 11  1  0
  1 12  1  0
  2 13  1  0
  3 14  1  0
  3 15  1  0
  4 16  1  0
  4 17  1  0
  5 18  1  0
  6 19  1  0
  7 20  1  0
  7 21  1  0
  8 22  1  0
  8 23  1  0
M  END
