
     RDKit          3D

 25 25  0  0  0  0  0  0  0  0999 V2000
    2.6221    0.9592   -0.6750 C   0  0  0  0  0  0  0  0  0  0  0  0
    1.5372    0.4580    0.2859 C   0  0  0  0  0  0  0  0  0  0  0  0
    2.1820   -0.5388    1.2089 C   0  0  0  0  0  0  0  0  0  0  0  0
    0.4466   -0.1218   -0.5550 C   0  0  0  0  0  0  0  0  0  0  0  0
   -0.7027   -0.6620    0.2433 C   0  0  0  0  0  0  0  0  0  0  0  0
   -1.8138   -1.2528   -0.6168 C   0  0  0  0  0  0  0  0  0  0  0  0
   -2.0211   -0.0508    0.2887 C   0  0  0  0  0  0  0  0  0  0  0  0
   -2.3905    1.2135   -0.4181 C   0  0  0  0  0  0  0  0  0  0  0  0
   -2.8165   -0.3257    1.4186 O   0  0  0  0  0  0  0  0  0  0  0  0
    3.4656    1.4108   -0.1485 H   0  0  0  0  0  0  0  0  0  0  0  0
    2.1594    1.5732   -1.4512 H   0  0  0  0  0  0  0  0  0  0  0  0
    3.0148    0.0330   -1.1708 H   0  0  0  0  0  0  0  0  0  0  0  0
    1.1630    1.3074    0.8884 H   0  0  0  0  0  0  0  0  0  0  0  0
    1.7413   -0.4685    2.2437 H   0  0  0  0  0  0  0  0  0  0  0  0
    3.2697   -0.2789    1.3667 H   0  0  0  0  0  0  0  0  0  0  0  0
    2.1639   -1.5631    0.8230 H   0  0  0  0  0  0  0  0  0  0  0  0
    0.1425    0.6446   -1.2941 H   0  0  0  0  0  0  0  0  0  0  0  0
    0.8650   -0.9800   -1.1434 H   0  0  0  0  0  0  0  0  0  0  0  0
   -0.4142   -1.3230    1.0769 H   0  0  0  0  0  0  0  0  0  0  0  0
   -1.7893   -1.0671   -1.7105 H   0  0  0  0  0  0  0  0  0  0  0  0
   -2.2709   -2.2043   -0.3354 H   0  0  0  0  0  0  0  0  0  0  0  0
   -3.4497    1.0868   -0.7813 H   0  0  0  0  0  0  0  0  0  0  0  0
   -1.7665    1.3622   -1.3235 H   0  0  0  0  0  0  0  0  0  0  0  0
   -2.3371    2.0703    0.2810 H   0  0  0  0  0  0  0  0  0  0  0  0
   -3.0008   -1.2824    1.4983 H   0  0  0  0  0  0  0  0  0  0  0  0
  1  2  1  0
  2  3  1  0
  2  4  1  0
  4  5  1  0
  5  6  1  0
  6  7  1  0
  7  8  1  0
  7  9  1  0
  7  5  1  0
  1 10  1  0
  1 11  1  0
  1 12  1  0
  2 13  1  0
  3 14  1  0
  3 15  1  0
  3 16  1  0
  4 17  1  0
  4 18  1  0
  5 19  1  0
  6 20  1  0
  6 21  1  0
  8 22  1  0
  8 23  1  0
  8 24  1  0
  9 25  1  0
M  END
