
     RDKit          3D

 21 20  0  0  0  0  0  0  0  0999 V2000
    0.5509    1.9900   -0.2169 C   0  0  0  0  0  0  0  0  0  0  0  0
   -0.1238    0.7978   -0.8447 C   0  0  0  0  0  0  0  0  0  0  0  0
    0.8571   -0.2780   -1.2371 C   0  0  0  0  0  0  0  0  0  0  0  0
    1.6341   -0.7987   -0.0509 C   0  0  0  0  0  0  0  0  0  0  0  0
    2.5081   -1.7799   -0.5016 O   0  0  0  0  0  0  0  0  0  0  0  0
   -1.1942    0.3107    0.0829 C   0  0  0  0  0  0  0  0  0  0  0  0
   -1.8428   -0.8226   -0.5031 O   0  0  0  0  0  0  0  0  0  0  0  0
   -2.8713   -1.4871    0.1191 C   0  0  0  0  0  0  0  0  0  0  0  0
   -3.2360   -1.0536    1.2561 O   0  0  0  0  0  0  0  0  0  0  0  0
   -0.1245    2.8608   -0.3551 H   0  0  0  0  0  0  0  0  0  0  0  0
    0.6726    1.8755    0.8836 H   0  0  0  0  0  0  0  0  0  0  0  0
    1.4902    2.2343   -0.7316 H   0  0  0  0  0  0  0  0  0  0  0  0
   -0.6199    1.1425   -1.7751 H   0  0  0  0  0  0  0  0  0  0  0  0
    0.2796   -1.0821   -1.7364 H   0  0  0  0  0  0  0  0  0  0  0  0
    1.5404    0.1453   -1.9783 H   0  0  0  0  0  0  0  0  0  0  0  0
    2.2355    0.0292    0.3564 H   0  0  0  0  0  0  0  0  0  0  0  0
    0.9779   -1.2307    0.7136 H   0  0  0  0  0  0  0  0  0  0  0  0
    3.4049   -1.6842   -0.0538 H   0  0  0  0  0  0  0  0  0  0  0  0
   -1.9593    1.1114    0.1622 H   0  0  0  0  0  0  0  0  0  0  0  0
   -0.8189    0.0618    1.0960 H   0  0  0  0  0  0  0  0  0  0  0  0
   -3.3606   -2.3423   -0.3233 H   0  0  0  0  0  0  0  0  0  0  0  0
  1  2  1  0
  2  3  1  0
  3  4  1  0
  4  5  1  0
  2  6  1  0
  6  7  1  0
  7  8  1  0
  8  9  2  0
  1 10  1  0
  1 11  1  0
  1 12  1  0
  2 13  1  0
  3 14  1  0
  3 15  1  0
  4 16  1  0
  4 17  1  0
  5 18  1  0
  6 19  1  0
  6 20  1  0
  8 21  1  0
M  END
