
     RDKit          3D

 22 22  0  0  0  0  0  0  0  0999 V2000
   -2.6716   -0.6889    0.3280 C   0  0  0  0  0  0  0  0  0  0  0  0
   -1.4619    0.2489    0.4344 C   0  0  0  0  0  0  0  0  0  0  0  0
   -1.8846    1.6205   -0.0408 C   0  0  0  0  0  0  0  0  0  0  0  0
   -0.5269   -0.2336   -0.4575 O   0  0  0  0  0  0  0  0  0  0  0  0
    0.6547   -0.6299    0.1009 C   0  0  0  0  0  0  0  0  0  0  0  0
    1.5651   -1.6150   -0.5076 C   0  0  0  0  0  0  0  0  0  0  0  0
    1.8898   -0.1908   -0.7175 C   0  0  0  0  0  0  0  0  0  0  0  0
    2.9415    0.5148    0.1021 C   0  0  0  0  0  0  0  0  0  0  0  0
   -3.4516   -0.4388    1.0507 H   0  0  0  0  0  0  0  0  0  0  0  0
   -2.3300   -1.7391    0.3572 H   0  0  0  0  0  0  0  0  0  0  0  0
   -3.0542   -0.5304   -0.7214 H   0  0  0  0  0  0  0  0  0  0  0  0
   -1.1529    0.2584    1.4736 H   0  0  0  0  0  0  0  0  0  0  0  0
   -1.0067    2.2200   -0.4054 H   0  0  0  0  0  0  0  0  0  0  0  0
   -2.3577    2.2200    0.7500 H   0  0  0  0  0  0  0  0  0  0  0  0
   -2.5613    1.5147   -0.9204 H   0  0  0  0  0  0  0  0  0  0  0  0
    0.7152   -0.5139    1.2040 H   0  0  0  0  0  0  0  0  0  0  0  0
    2.2003   -2.2202    0.1719 H   0  0  0  0  0  0  0  0  0  0  0  0
    1.2438   -2.2170   -1.4046 H   0  0  0  0  0  0  0  0  0  0  0  0
    1.7259    0.2031   -1.7273 H   0  0  0  0  0  0  0  0  0  0  0  0
    3.7474    0.8824   -0.5674 H   0  0  0  0  0  0  0  0  0  0  0  0
    2.4703    1.4243    0.5527 H   0  0  0  0  0  0  0  0  0  0  0  0
    3.3054   -0.0896    0.9445 H   0  0  0  0  0  0  0  0  0  0  0  0
  1  2  1  0
  2  3  1  0
  2  4  1  0
  4  5  1  0
  5  6  1  0
  6  7  1  0
  7  8  1  0
  7  5  1  0
  1  9  1  0
  1 10  1  0
  1 11  1  0
  2 12  1  0
  3 13  1  0
  3 14  1  0
  3 15  1  0
  5 16  1  0
  6 17  1  0
  6 18  1  0
  7 19  1  0
  8 20  1  0
  8 21  1  0
  8 22  1  0
M  END
