
     RDKit          3D

 21 20  0  0  0  0  0  0  0  0999 V2000
   -0.8898    0.1948    1.3807 C   0  0  0  0  0  0  0  0  0  0  0  0
   -1.1285   -0.4879    0.0500 C   0  0  0  0  0  0  0  0  0  0  0  0
   -1.5705    0.4892   -1.0080 C   0  0  0  0  0  0  0  0  0  0  0  0
   -2.7592    1.1026   -0.6142 O   0  0  0  0  0  0  0  0  0  0  0  0
    0.0086   -1.3520   -0.3703 C   0  0  0  0  0  0  0  0  0  0  0  0
    1.3084   -0.6249   -0.5341 C   0  0  0  0  0  0  0  0  0  0  0  0
    1.7127   -0.0086    0.6877 O   0  0  0  0  0  0  0  0  0  0  0  0
    2.9019    0.7037    0.6916 C   0  0  0  0  0  0  0  0  0  0  0  0
    3.6259    0.8212   -0.3373 O   0  0  0  0  0  0  0  0  0  0  0  0
   -0.2584    1.1029    1.2821 H   0  0  0  0  0  0  0  0  0  0  0  0
   -0.3692   -0.5347    2.0325 H   0  0  0  0  0  0  0  0  0  0  0  0
   -1.8852    0.4258    1.8242 H   0  0  0  0  0  0  0  0  0  0  0  0
   -2.0080   -1.1729    0.2215 H   0  0  0  0  0  0  0  0  0  0  0  0
   -1.7900   -0.0253   -1.9654 H   0  0  0  0  0  0  0  0  0  0  0  0
   -0.8109    1.2581   -1.2349 H   0  0  0  0  0  0  0  0  0  0  0  0
   -2.6300    2.0940   -0.6006 H   0  0  0  0  0  0  0  0  0  0  0  0
    0.1090   -2.1834    0.3422 H   0  0  0  0  0  0  0  0  0  0  0  0
   -0.2481   -1.8008   -1.3500 H   0  0  0  0  0  0  0  0  0  0  0  0
    2.1078   -1.3488   -0.7891 H   0  0  0  0  0  0  0  0  0  0  0  0
    1.3062    0.1519   -1.2912 H   0  0  0  0  0  0  0  0  0  0  0  0
    3.2673    1.1953    1.5824 H   0  0  0  0  0  0  0  0  0  0  0  0
  1  2  1  0
  2  3  1  0
  3  4  1  0
  2  5  1  0
  5  6  1  0
  6  7  1  0
  7  8  1  0
  8  9  2  0
  1 10  1  0
  1 11  1  0
  1 12  1  0
  2 13  1  0
  3 14  1  0
  3 15  1  0
  4 16  1  0
  5 17  1  0
  5 18  1  0
  6 19  1  0
  6 20  1  0
  8 21  1  0
M  END
