
     RDKit          3D

 19 19  0  0  0  0  0  0  0  0999 V2000
    2.1261   -0.5451    0.2719 C   0  0  0  0  0  0  0  0  0  0  0  0
    1.0224    0.2259   -0.4601 C   0  0  0  0  0  0  0  0  0  0  0  0
    0.9157    1.6047    0.0233 C   0  0  0  0  0  0  0  0  0  0  0  0
    1.8519    2.1043    0.6143 O   0  0  0  0  0  0  0  0  0  0  0  0
   -0.2539   -0.5542   -0.2690 C   0  0  0  0  0  0  0  0  0  0  0  0
   -1.4810    0.0426   -0.9225 C   0  0  0  0  0  0  0  0  0  0  0  0
   -2.2137   -0.4605    0.3222 C   0  0  0  0  0  0  0  0  0  0  0  0
   -0.9283   -0.2855    1.0560 C   0  0  0  0  0  0  0  0  0  0  0  0
   -0.5368   -0.0435    2.1743 O   0  0  0  0  0  0  0  0  0  0  0  0
    1.8674   -1.6123    0.2474 H   0  0  0  0  0  0  0  0  0  0  0  0
    3.0959   -0.3562   -0.2352 H   0  0  0  0  0  0  0  0  0  0  0  0
    2.1926   -0.1656    1.3168 H   0  0  0  0  0  0  0  0  0  0  0  0
    1.2623    0.2081   -1.5438 H   0  0  0  0  0  0  0  0  0  0  0  0
    0.0284    2.1908   -0.1304 H   0  0  0  0  0  0  0  0  0  0  0  0
   -0.1748   -1.6322   -0.4029 H   0  0  0  0  0  0  0  0  0  0  0  0
   -1.4519    1.1283   -1.0396 H   0  0  0  0  0  0  0  0  0  0  0  0
   -1.8153   -0.4764   -1.8424 H   0  0  0  0  0  0  0  0  0  0  0  0
   -3.0351    0.1732    0.6624 H   0  0  0  0  0  0  0  0  0  0  0  0
   -2.4718   -1.5464    0.1573 H   0  0  0  0  0  0  0  0  0  0  0  0
  1  2  1  0
  2  3  1  0
  3  4  2  0
  2  5  1  0
  5  6  1  0
  6  7  1  0
  7  8  1  0
  8  9  2  0
  8  5  1  0
  1 10  1  0
  1 11  1  0
  1 12  1  0
  2 13  1  0
  3 14  1  0
  5 15  1  0
  6 16  1  0
  6 17  1  0
  7 18  1  0
  7 19  1  0
M  END
