
     RDKit          3D

 21 20  0  0  0  0  0  0  0  0999 V2000
   -0.5373    0.8817   -1.4234 C   0  0  0  0  0  0  0  0  0  0  0  0
   -0.4519   -0.2456   -0.3979 C   0  0  0  0  0  0  0  0  0  0  0  0
   -1.2927   -1.4074   -0.8606 C   0  0  0  0  0  0  0  0  0  0  0  0
   -1.5236   -1.6527   -2.0202 O   0  0  0  0  0  0  0  0  0  0  0  0
   -1.0951    0.2995    0.8545 C   0  0  0  0  0  0  0  0  0  0  0  0
   -1.0995   -0.5955    1.9062 O   0  0  0  0  0  0  0  0  0  0  0  0
    0.9635   -0.6981   -0.2115 C   0  0  0  0  0  0  0  0  0  0  0  0
    1.9347    0.3069    0.2593 C   0  0  0  0  0  0  0  0  0  0  0  0
    1.5900    0.8077    1.4897 O   0  0  0  0  0  0  0  0  0  0  0  0
   -0.2000    0.5608   -2.4147 H   0  0  0  0  0  0  0  0  0  0  0  0
   -1.5817    1.2281   -1.4859 H   0  0  0  0  0  0  0  0  0  0  0  0
    0.0558    1.7220   -0.9984 H   0  0  0  0  0  0  0  0  0  0  0  0
   -1.7001   -2.0411   -0.0955 H   0  0  0  0  0  0  0  0  0  0  0  0
   -2.1660    0.5300    0.5436 H   0  0  0  0  0  0  0  0  0  0  0  0
   -0.6313    1.2467    1.1712 H   0  0  0  0  0  0  0  0  0  0  0  0
   -1.8832   -0.4872    2.5054 H   0  0  0  0  0  0  0  0  0  0  0  0
    1.3180   -1.1153   -1.1997 H   0  0  0  0  0  0  0  0  0  0  0  0
    0.9619   -1.5834    0.4736 H   0  0  0  0  0  0  0  0  0  0  0  0
    2.1098    1.1495   -0.4447 H   0  0  0  0  0  0  0  0  0  0  0  0
    2.9302   -0.2008    0.3921 H   0  0  0  0  0  0  0  0  0  0  0  0
    2.2985    1.2942    1.9567 H   0  0  0  0  0  0  0  0  0  0  0  0
  1  2  1  0
  2  3  1  0
  3  4  2  0
  2  5  1  0
  5  6  1  0
  2  7  1  0
  7  8  1  0
  8  9  1  0
  1 10  1  0
  1 11  1  0
  1 12  1  0
  3 13  1  0
  5 14  1  0
  5 15  1  0
  6 16  1  0
  7 17  1  0
  7 18  1  0
  8 19  1  0
  8 20  1  0
  9 21  1  0
M  END
