
     RDKit          3D

 25 25  0  0  0  0  0  0  0  0999 V2000
   -1.8193    0.9689    0.2879 C   0  0  0  0  0  0  0  0  0  0  0  0
   -1.5821   -0.2666   -0.5109 C   0  0  0  0  0  0  0  0  0  0  0  0
   -2.3671   -1.3929    0.0911 C   0  0  0  0  0  0  0  0  0  0  0  0
   -0.1388   -0.6059   -0.7173 C   0  0  0  0  0  0  0  0  0  0  0  0
    0.7096    0.3805   -1.4181 C   0  0  0  0  0  0  0  0  0  0  0  0
    1.3091    0.7738   -0.0879 C   0  0  0  0  0  0  0  0  0  0  0  0
    2.7816    0.9551   -0.1475 C   0  0  0  0  0  0  0  0  0  0  0  0
    0.7525   -0.4734    0.5000 C   0  0  0  0  0  0  0  0  0  0  0  0
    1.5802   -1.5695    0.5969 O   0  0  0  0  0  0  0  0  0  0  0  0
   -1.4830    1.8967   -0.2156 H   0  0  0  0  0  0  0  0  0  0  0  0
   -2.9279    1.0788    0.4005 H   0  0  0  0  0  0  0  0  0  0  0  0
   -1.4298    0.8892    1.3253 H   0  0  0  0  0  0  0  0  0  0  0  0
   -2.0180   -0.0847   -1.5335 H   0  0  0  0  0  0  0  0  0  0  0  0
   -2.2596   -2.3275   -0.5016 H   0  0  0  0  0  0  0  0  0  0  0  0
   -3.4543   -1.0902    0.0564 H   0  0  0  0  0  0  0  0  0  0  0  0
   -2.1518   -1.5515    1.1654 H   0  0  0  0  0  0  0  0  0  0  0  0
   -0.0748   -1.6089   -1.2286 H   0  0  0  0  0  0  0  0  0  0  0  0
    0.2110    1.2009   -1.9659 H   0  0  0  0  0  0  0  0  0  0  0  0
    1.5006   -0.0834   -2.0587 H   0  0  0  0  0  0  0  0  0  0  0  0
    0.8301    1.6684    0.3812 H   0  0  0  0  0  0  0  0  0  0  0  0
    3.1750    1.3309    0.8210 H   0  0  0  0  0  0  0  0  0  0  0  0
    2.9941    1.7667   -0.9024 H   0  0  0  0  0  0  0  0  0  0  0  0
    3.3623    0.0924   -0.4512 H   0  0  0  0  0  0  0  0  0  0  0  0
    0.1917   -0.3410    1.4492 H   0  0  0  0  0  0  0  0  0  0  0  0
    2.3088   -1.6069   -0.0450 H   0  0  0  0  0  0  0  0  0  0  0  0
  1  2  1  0
  2  3  1  0
  2  4  1  0
  4  5  1  0
  5  6  1  0
  6  7  1  0
  6  8  1  0
  8  9  1  0
  8  4  1  0
  1 10  1  0
  1 11  1  0
  1 12  1  0
  2 13  1  0
  3 14  1  0
  3 15  1  0
  3 16  1  0
  4 17  1  0
  5 18  1  0
  5 19  1  0
  6 20  1  0
  7 21  1  0
  7 22  1  0
  7 23  1  0
  8 24  1  0
  9 25  1  0
M  END
