
     RDKit          3D

 23 23  0  0  0  0  0  0  0  0999 V2000
   -2.3347    0.7049   -0.5094 C   0  0  0  0  0  0  0  0  0  0  0  0
   -1.1386   -0.1580   -0.1302 C   0  0  0  0  0  0  0  0  0  0  0  0
   -1.4625   -0.7818    1.1938 C   0  0  0  0  0  0  0  0  0  0  0  0
   -0.9978   -1.1178   -1.1249 O   0  0  0  0  0  0  0  0  0  0  0  0
    0.0605    0.7394   -0.0905 C   0  0  0  0  0  0  0  0  0  0  0  0
    1.3309    0.0136    0.2754 C   0  0  0  0  0  0  0  0  0  0  0  0
    1.4007   -0.6333    1.5057 O   0  0  0  0  0  0  0  0  0  0  0  0
    2.5867    0.7092   -0.1690 C   0  0  0  0  0  0  0  0  0  0  0  0
    2.1811   -0.6001   -0.7936 C   0  0  0  0  0  0  0  0  0  0  0  0
   -2.5427    1.4456    0.3007 H   0  0  0  0  0  0  0  0  0  0  0  0
   -3.2523    0.0921   -0.6035 H   0  0  0  0  0  0  0  0  0  0  0  0
   -2.1112    1.2950   -1.4245 H   0  0  0  0  0  0  0  0  0  0  0  0
   -0.7541   -1.5380    1.5339 H   0  0  0  0  0  0  0  0  0  0  0  0
   -2.4518   -1.3035    1.0680 H   0  0  0  0  0  0  0  0  0  0  0  0
   -1.6341    0.0379    1.9183 H   0  0  0  0  0  0  0  0  0  0  0  0
   -1.8467   -1.2355   -1.6195 H   0  0  0  0  0  0  0  0  0  0  0  0
    0.1782    1.1905   -1.0966 H   0  0  0  0  0  0  0  0  0  0  0  0
   -0.1431    1.5846    0.6008 H   0  0  0  0  0  0  0  0  0  0  0  0
    2.3151   -0.5872    1.9112 H   0  0  0  0  0  0  0  0  0  0  0  0
    2.5450    1.5704   -0.8495 H   0  0  0  0  0  0  0  0  0  0  0  0
    3.4878    0.6837    0.5073 H   0  0  0  0  0  0  0  0  0  0  0  0
    2.7712   -1.5041   -0.5561 H   0  0  0  0  0  0  0  0  0  0  0  0
    1.8124   -0.6076   -1.8479 H   0  0  0  0  0  0  0  0  0  0  0  0
  1  2  1  0
  2  3  1  0
  2  4  1  0
  2  5  1  0
  5  6  1  0
  6  7  1  0
  6  8  1  0
  8  9  1  0
  9  6  1  0
  1 10  1  0
  1 11  1  0
  1 12  1  0
  3 13  1  0
  3 14  1  0
  3 15  1  0
  4 16  1  0
  5 17  1  0
  5 18  1  0
  7 19  1  0
  8 20  1  0
  8 21  1  0
  9 22  1  0
  9 23  1  0
M  END
