
     RDKit          3D

 25 24  0  0  0  0  0  0  0  0999 V2000
   -2.3152   -0.3367    1.0699 C   0  0  0  0  0  0  0  0  0  0  0  0
   -1.7896   -0.3049   -0.3483 C   0  0  0  0  0  0  0  0  0  0  0  0
   -2.9464    0.0822   -1.2622 C   0  0  0  0  0  0  0  0  0  0  0  0
   -0.7347    0.7679   -0.5183 C   0  0  0  0  0  0  0  0  0  0  0  0
    0.4483    0.5406    0.3971 C   0  0  0  0  0  0  0  0  0  0  0  0
    1.0142   -0.6849    0.1024 O   0  0  0  0  0  0  0  0  0  0  0  0
    2.1004   -0.9875    0.8824 C   0  0  0  0  0  0  0  0  0  0  0  0
    3.2360   -0.0148    0.7769 C   0  0  0  0  0  0  0  0  0  0  0  0
    3.7232    0.0662   -0.5366 O   0  0  0  0  0  0  0  0  0  0  0  0
   -2.1117   -1.3000    1.5800 H   0  0  0  0  0  0  0  0  0  0  0  0
   -1.8307    0.4984    1.6429 H   0  0  0  0  0  0  0  0  0  0  0  0
   -3.4157   -0.1889    1.1204 H   0  0  0  0  0  0  0  0  0  0  0  0
   -1.4345   -1.3027   -0.6247 H   0  0  0  0  0  0  0  0  0  0  0  0
   -3.9026   -0.1624   -0.7482 H   0  0  0  0  0  0  0  0  0  0  0  0
   -2.8702   -0.4873   -2.2286 H   0  0  0  0  0  0  0  0  0  0  0  0
   -2.9084    1.1596   -1.5405 H   0  0  0  0  0  0  0  0  0  0  0  0
   -1.2023    1.7376   -0.3105 H   0  0  0  0  0  0  0  0  0  0  0  0
   -0.3600    0.7125   -1.5605 H   0  0  0  0  0  0  0  0  0  0  0  0
    0.2296    0.6987    1.4526 H   0  0  0  0  0  0  0  0  0  0  0  0
    1.2114    1.3170    0.0939 H   0  0  0  0  0  0  0  0  0  0  0  0
    2.4902   -1.9796    0.5352 H   0  0  0  0  0  0  0  0  0  0  0  0
    1.8395   -1.0683    1.9648 H   0  0  0  0  0  0  0  0  0  0  0  0
    4.0498   -0.4118    1.4534 H   0  0  0  0  0  0  0  0  0  0  0  0
    2.9430    0.9979    1.1216 H   0  0  0  0  0  0  0  0  0  0  0  0
    4.5363    0.6511   -0.4702 H   0  0  0  0  0  0  0  0  0  0  0  0
  1  2  1  0
  2  3  1  0
  2  4  1  0
  4  5  1  0
  5  6  1  0
  6  7  1  0
  7  8  1  0
  8  9  1  0
  1 10  1  0
  1 11  1  0
  1 12  1  0
  2 13  1  0
  3 14  1  0
  3 15  1  0
  3 16  1  0
  4 17  1  0
  4 18  1  0
  5 19  1  0
  5 20  1  0
  7 21  1  0
  7 22  1  0
  8 23  1  0
  8 24  1  0
  9 25  1  0
M  END
