
     RDKit          3D

 21 22  0  0  0  0  0  0  0  0999 V2000
   -2.0729   -0.9406    0.1114 C   0  0  0  0  0  0  0  0  0  0  0  0
   -1.2105    0.2624   -0.1689 C   0  0  0  0  0  0  0  0  0  0  0  0
   -1.6298    1.4208    0.6956 C   0  0  0  0  0  0  0  0  0  0  0  0
    0.2352   -0.0581   -0.0343 C   0  0  0  0  0  0  0  0  0  0  0  0
    0.6940   -1.2170    0.3759 C   0  0  0  0  0  0  0  0  0  0  0  0
    2.1707   -1.2512    0.4116 C   0  0  0  0  0  0  0  0  0  0  0  0
    2.9108   -0.9446   -0.7142 O   0  0  0  0  0  0  0  0  0  0  0  0
    2.5673    0.1293    0.0772 C   0  0  0  0  0  0  0  0  0  0  0  0
    1.3482    0.8811   -0.3430 C   0  0  0  0  0  0  0  0  0  0  0  0
   -3.1336   -0.5756    0.1861 H   0  0  0  0  0  0  0  0  0  0  0  0
   -1.8224   -1.4385    1.0596 H   0  0  0  0  0  0  0  0  0  0  0  0
   -2.0064   -1.6978   -0.7041 H   0  0  0  0  0  0  0  0  0  0  0  0
   -1.4408    0.5699   -1.2307 H   0  0  0  0  0  0  0  0  0  0  0  0
   -1.6825    1.1761    1.7604 H   0  0  0  0  0  0  0  0  0  0  0  0
   -2.6642    1.7062    0.3561 H   0  0  0  0  0  0  0  0  0  0  0  0
   -0.9780    2.2957    0.4671 H   0  0  0  0  0  0  0  0  0  0  0  0
    0.0784   -2.0624    0.6599 H   0  0  0  0  0  0  0  0  0  0  0  0
    2.6697   -1.7759    1.2569 H   0  0  0  0  0  0  0  0  0  0  0  0
    3.3210    0.6018    0.7409 H   0  0  0  0  0  0  0  0  0  0  0  0
    1.2229    1.8516    0.1863 H   0  0  0  0  0  0  0  0  0  0  0  0
    1.4230    1.0668   -1.4356 H   0  0  0  0  0  0  0  0  0  0  0  0
  1  2  1  0
  2  3  1  0
  2  4  1  0
  4  5  2  0
  5  6  1  0
  6  7  1  0
  7  8  1  0
  8  9  1  0
  9  4  1  0
  8  6  1  0
  1 10  1  0
  1 11  1  0
  1 12  1  0
  2 13  1  0
  3 14  1  0
  3 15  1  0
  3 16  1  0
  5 17  1  0
  6 18  1  0
  8 19  1  0
  9 20  1  0
  9 21  1  0
M  END
