
     RDKit          3D

 19 18  0  0  0  0  0  0  0  0999 V2000
   -1.0225    1.5360    0.3587 C   0  0  0  0  0  0  0  0  0  0  0  0
   -0.8517    0.1957   -0.3338 C   0  0  0  0  0  0  0  0  0  0  0  0
   -1.9771   -0.6877   -0.0086 C   0  0  0  0  0  0  0  0  0  0  0  0
   -3.0251   -0.5692   -0.6220 O   0  0  0  0  0  0  0  0  0  0  0  0
    0.5008   -0.4256    0.0507 C   0  0  0  0  0  0  0  0  0  0  0  0
    0.6026   -1.7530   -0.6725 C   0  0  0  0  0  0  0  0  0  0  0  0
    1.4847    0.4721   -0.4139 O   0  0  0  0  0  0  0  0  0  0  0  0
    2.4158    1.0212    0.4462 C   0  0  0  0  0  0  0  0  0  0  0  0
    2.3324    0.6761    1.6501 O   0  0  0  0  0  0  0  0  0  0  0  0
   -1.1747    2.3637   -0.3506 H   0  0  0  0  0  0  0  0  0  0  0  0
   -0.1272    1.7916    0.9757 H   0  0  0  0  0  0  0  0  0  0  0  0
   -1.9063    1.5113    1.0197 H   0  0  0  0  0  0  0  0  0  0  0  0
   -0.8735    0.3915   -1.4258 H   0  0  0  0  0  0  0  0  0  0  0  0
   -1.9646   -1.4663    0.7554 H   0  0  0  0  0  0  0  0  0  0  0  0
    0.5508   -0.6329    1.1214 H   0  0  0  0  0  0  0  0  0  0  0  0
    1.6235   -2.1776   -0.5917 H   0  0  0  0  0  0  0  0  0  0  0  0
   -0.1649   -2.4168   -0.2459 H   0  0  0  0  0  0  0  0  0  0  0  0
    0.4296   -1.5318   -1.7558 H   0  0  0  0  0  0  0  0  0  0  0  0
    3.1471    1.7018    0.0428 H   0  0  0  0  0  0  0  0  0  0  0  0
  1  2  1  0
  2  3  1  0
  3  4  2  0
  2  5  1  0
  5  6  1  0
  5  7  1  0
  7  8  1  0
  8  9  2  0
  1 10  1  0
  1 11  1  0
  1 12  1  0
  2 13  1  0
  3 14  1  0
  5 15  1  0
  6 16  1  0
  6 17  1  0
  6 18  1  0
  8 19  1  0
M  END
