
     RDKit          3D

 20 20  0  0  0  0  0  0  0  0999 V2000
   -0.6170   -1.5092    0.1406 C   0  0  0  0  0  0  0  0  0  0  0  0
   -0.2537   -0.3084   -0.6660 C   0  0  0  0  0  0  0  0  0  0  0  0
    0.8612    0.4715    0.0411 C   0  0  0  0  0  0  0  0  0  0  0  0
    2.0548   -0.4572    0.1721 C   0  0  0  0  0  0  0  0  0  0  0  0
    3.0910    0.2374    0.8185 O   0  0  0  0  0  0  0  0  0  0  0  0
   -1.3977    0.6475   -0.8654 C   0  0  0  0  0  0  0  0  0  0  0  0
   -2.0743    1.2821    0.2604 C   0  0  0  0  0  0  0  0  0  0  0  0
   -2.6916    0.2183   -0.5791 O   0  0  0  0  0  0  0  0  0  0  0  0
   -1.5663   -1.9541   -0.1980 H   0  0  0  0  0  0  0  0  0  0  0  0
   -0.6052   -1.3259    1.2344 H   0  0  0  0  0  0  0  0  0  0  0  0
    0.1679   -2.2905   -0.0566 H   0  0  0  0  0  0  0  0  0  0  0  0
    0.1024   -0.6504   -1.6552 H   0  0  0  0  0  0  0  0  0  0  0  0
    1.1384    1.3817   -0.5089 H   0  0  0  0  0  0  0  0  0  0  0  0
    0.5228    0.7809    1.0480 H   0  0  0  0  0  0  0  0  0  0  0  0
    1.7886   -1.3370    0.7856 H   0  0  0  0  0  0  0  0  0  0  0  0
    2.4282   -0.7894   -0.8017 H   0  0  0  0  0  0  0  0  0  0  0  0
    2.9688    1.2084    0.5877 H   0  0  0  0  0  0  0  0  0  0  0  0
   -1.3264    1.2357   -1.8023 H   0  0  0  0  0  0  0  0  0  0  0  0
   -2.0253    0.9059    1.2841 H   0  0  0  0  0  0  0  0  0  0  0  0
   -2.5666    2.2528    0.1124 H   0  0  0  0  0  0  0  0  0  0  0  0
  1  2  1  0
  2  3  1  0
  3  4  1  0
  4  5  1  0
  2  6  1  0
  6  7  1  0
  7  8  1  0
  8  6  1  0
  1  9  1  0
  1 10  1  0
  1 11  1  0
  2 12  1  0
  3 13  1  0
  3 14  1  0
  4 15  1  0
  4 16  1  0
  5 17  1  0
  6 18  1  0
  7 19  1  0
  7 20  1  0
M  END
