
     RDKit          3D

 23 23  0  0  0  0  0  0  0  0999 V2000
   -1.8662   -1.2181    0.6099 C   0  0  0  0  0  0  0  0  0  0  0  0
   -1.4340   -0.1757   -0.3873 C   0  0  0  0  0  0  0  0  0  0  0  0
   -2.2078    1.1033   -0.1535 C   0  0  0  0  0  0  0  0  0  0  0  0
    0.0401    0.1078   -0.1936 C   0  0  0  0  0  0  0  0  0  0  0  0
    0.5576    1.2819    0.1271 C   0  0  0  0  0  0  0  0  0  0  0  0
    2.0411    1.2324    0.2426 C   0  0  0  0  0  0  0  0  0  0  0  0
    2.3864   -0.0422   -0.5019 C   0  0  0  0  0  0  0  0  0  0  0  0
    1.1541   -0.8553   -0.3178 C   0  0  0  0  0  0  0  0  0  0  0  0
    0.9589   -1.7672   -1.3508 O   0  0  0  0  0  0  0  0  0  0  0  0
   -1.9348   -0.8434    1.6386 H   0  0  0  0  0  0  0  0  0  0  0  0
   -2.8666   -1.6153    0.3062 H   0  0  0  0  0  0  0  0  0  0  0  0
   -1.1635   -2.0738    0.5075 H   0  0  0  0  0  0  0  0  0  0  0  0
   -1.6411   -0.5586   -1.3980 H   0  0  0  0  0  0  0  0  0  0  0  0
   -3.2653    0.9881   -0.3909 H   0  0  0  0  0  0  0  0  0  0  0  0
   -2.0400    1.4490    0.8914 H   0  0  0  0  0  0  0  0  0  0  0  0
   -1.7126    1.8781   -0.8105 H   0  0  0  0  0  0  0  0  0  0  0  0
   -0.0280    2.2003    0.2931 H   0  0  0  0  0  0  0  0  0  0  0  0
    2.3272    1.1857    1.3021 H   0  0  0  0  0  0  0  0  0  0  0  0
    2.4297    2.1400   -0.2683 H   0  0  0  0  0  0  0  0  0  0  0  0
    2.4616    0.2122   -1.5939 H   0  0  0  0  0  0  0  0  0  0  0  0
    3.3158   -0.5097   -0.1561 H   0  0  0  0  0  0  0  0  0  0  0  0
    1.2733   -1.4362    0.6341 H   0  0  0  0  0  0  0  0  0  0  0  0
    1.2139   -2.6835   -1.0524 H   0  0  0  0  0  0  0  0  0  0  0  0
  1  2  1  0
  2  3  1  0
  2  4  1  0
  4  5  2  0
  5  6  1  0
  6  7  1  0
  7  8  1  0
  8  9  1  0
  8  4  1  0
  1 10  1  0
  1 11  1  0
  1 12  1  0
  2 13  1  0
  3 14  1  0
  3 15  1  0
  3 16  1  0
  5 17  1  0
  6 18  1  0
  6 19  1  0
  7 20  1  0
  7 21  1  0
  8 22  1  0
  9 23  1  0
M  END
