
     RDKit          3D

 23 23  0  0  0  0  0  0  0  0999 V2000
   -1.5736    1.4084    0.1164 C   0  0  0  0  0  0  0  0  0  0  0  0
   -1.2807    0.0545   -0.4131 C   0  0  0  0  0  0  0  0  0  0  0  0
   -2.0946   -0.9889    0.3241 C   0  0  0  0  0  0  0  0  0  0  0  0
    0.1410   -0.3628   -0.3720 C   0  0  0  0  0  0  0  0  0  0  0  0
    0.7758   -0.4102    0.9670 C   0  0  0  0  0  0  0  0  0  0  0  0
    2.2303   -0.7016    0.5555 C   0  0  0  0  0  0  0  0  0  0  0  0
    2.3930    0.2745   -0.5461 C   0  0  0  0  0  0  0  0  0  0  0  0
    3.4423    0.7324   -0.9314 O   0  0  0  0  0  0  0  0  0  0  0  0
    1.0628    0.6132   -1.1157 C   0  0  0  0  0  0  0  0  0  0  0  0
   -2.3660    1.3413    0.9146 H   0  0  0  0  0  0  0  0  0  0  0  0
   -0.6912    1.9425    0.5255 H   0  0  0  0  0  0  0  0  0  0  0  0
   -1.9864    2.0829   -0.6767 H   0  0  0  0  0  0  0  0  0  0  0  0
   -1.6163    0.0089   -1.4772 H   0  0  0  0  0  0  0  0  0  0  0  0
   -1.8103   -2.0102   -0.0592 H   0  0  0  0  0  0  0  0  0  0  0  0
   -3.1544   -0.8385    0.0681 H   0  0  0  0  0  0  0  0  0  0  0  0
   -1.9439   -0.9505    1.4116 H   0  0  0  0  0  0  0  0  0  0  0  0
    0.2732   -1.3384   -0.8794 H   0  0  0  0  0  0  0  0  0  0  0  0
    0.8150    0.5457    1.4991 H   0  0  0  0  0  0  0  0  0  0  0  0
    0.4523   -1.2538    1.6053 H   0  0  0  0  0  0  0  0  0  0  0  0
    2.2327   -1.7180    0.1530 H   0  0  0  0  0  0  0  0  0  0  0  0
    2.9171   -0.5339    1.3977 H   0  0  0  0  0  0  0  0  0  0  0  0
    0.7699    1.6403   -0.8662 H   0  0  0  0  0  0  0  0  0  0  0  0
    1.0119    0.4621   -2.2007 H   0  0  0  0  0  0  0  0  0  0  0  0
  1  2  1  0
  2  3  1  0
  2  4  1  0
  4  5  1  0
  5  6  1  0
  6  7  1  0
  7  8  2  0
  7  9  1  0
  9  4  1  0
  1 10  1  0
  1 11  1  0
  1 12  1  0
  2 13  1  0
  3 14  1  0
  3 15  1  0
  3 16  1  0
  4 17  1  0
  5 18  1  0
  5 19  1  0
  6 20  1  0
  6 21  1  0
  9 22  1  0
  9 23  1  0
M  END
