
     RDKit          3D

 23 23  0  0  0  0  0  0  0  0999 V2000
    2.4071    0.3237   -0.4387 C   0  0  0  0  0  0  0  0  0  0  0  0
    1.0583   -0.3141   -0.1209 C   0  0  0  0  0  0  0  0  0  0  0  0
    1.1883   -0.8991    1.2643 C   0  0  0  0  0  0  0  0  0  0  0  0
    0.0260    0.7503   -0.2219 C   0  0  0  0  0  0  0  0  0  0  0  0
    0.0513    1.2534   -1.5253 O   0  0  0  0  0  0  0  0  0  0  0  0
   -1.3806    0.2401    0.0154 C   0  0  0  0  0  0  0  0  0  0  0  0
   -1.8401   -0.8944   -0.8361 C   0  0  0  0  0  0  0  0  0  0  0  0
   -2.1247    0.7583    1.1174 C   0  0  0  0  0  0  0  0  0  0  0  0
   -2.3013    1.3967   -0.1530 O   0  0  0  0  0  0  0  0  0  0  0  0
    2.4915    0.6028   -1.5002 H   0  0  0  0  0  0  0  0  0  0  0  0
    3.1710   -0.4191   -0.1163 H   0  0  0  0  0  0  0  0  0  0  0  0
    2.4741    1.2184    0.2325 H   0  0  0  0  0  0  0  0  0  0  0  0
    0.9315   -1.1306   -0.8619 H   0  0  0  0  0  0  0  0  0  0  0  0
    1.7940   -0.2025    1.9149 H   0  0  0  0  0  0  0  0  0  0  0  0
    0.2417   -1.1503    1.7371 H   0  0  0  0  0  0  0  0  0  0  0  0
    1.8287   -1.8100    1.1712 H   0  0  0  0  0  0  0  0  0  0  0  0
    0.2879    1.5754    0.4543 H   0  0  0  0  0  0  0  0  0  0  0  0
    0.1926    0.5074   -2.1616 H   0  0  0  0  0  0  0  0  0  0  0  0
   -2.9178   -0.8385   -1.1180 H   0  0  0  0  0  0  0  0  0  0  0  0
   -1.5930   -1.8537   -0.3339 H   0  0  0  0  0  0  0  0  0  0  0  0
   -1.2956   -0.9332   -1.8247 H   0  0  0  0  0  0  0  0  0  0  0  0
   -3.0690    0.3501    1.4891 H   0  0  0  0  0  0  0  0  0  0  0  0
   -1.6220    1.4690    1.8162 H   0  0  0  0  0  0  0  0  0  0  0  0
  1  2  1  0
  2  3  1  0
  2  4  1  0
  4  5  1  0
  4  6  1  0
  6  7  1  0
  6  8  1  0
  8  9  1  0
  9  6  1  0
  1 10  1  0
  1 11  1  0
  1 12  1  0
  2 13  1  0
  3 14  1  0
  3 15  1  0
  3 16  1  0
  4 17  1  0
  5 18  1  0
  7 19  1  0
  7 20  1  0
  7 21  1  0
  8 22  1  0
  8 23  1  0
M  END
