
     RDKit          3D

 23 23  0  0  0  0  0  0  0  0999 V2000
   -1.9741    0.8831   -0.8203 C   0  0  0  0  0  0  0  0  0  0  0  0
   -1.5261   -0.4183   -0.2162 C   0  0  0  0  0  0  0  0  0  0  0  0
   -2.6912   -0.9815    0.5735 C   0  0  0  0  0  0  0  0  0  0  0  0
   -0.3886   -0.2593    0.7538 C   0  0  0  0  0  0  0  0  0  0  0  0
    0.8410    0.3425    0.1190 C   0  0  0  0  0  0  0  0  0  0  0  0
    1.8126    0.4307    1.1342 O   0  0  0  0  0  0  0  0  0  0  0  0
    3.0382    0.3669    0.4670 C   0  0  0  0  0  0  0  0  0  0  0  0
    2.7440   -0.2103   -0.8804 C   0  0  0  0  0  0  0  0  0  0  0  0
    1.4092   -0.5336   -0.8025 O   0  0  0  0  0  0  0  0  0  0  0  0
   -1.3676    1.7067   -0.4125 H   0  0  0  0  0  0  0  0  0  0  0  0
   -3.0352    1.1220   -0.5749 H   0  0  0  0  0  0  0  0  0  0  0  0
   -1.9044    0.8963   -1.9209 H   0  0  0  0  0  0  0  0  0  0  0  0
   -1.2978   -1.1583   -1.0156 H   0  0  0  0  0  0  0  0  0  0  0  0
   -2.3723   -1.7798    1.2714 H   0  0  0  0  0  0  0  0  0  0  0  0
   -3.0867   -0.1524    1.2239 H   0  0  0  0  0  0  0  0  0  0  0  0
   -3.4923   -1.3772   -0.0740 H   0  0  0  0  0  0  0  0  0  0  0  0
   -0.1811   -1.2601    1.1841 H   0  0  0  0  0  0  0  0  0  0  0  0
   -0.7387    0.3689    1.5953 H   0  0  0  0  0  0  0  0  0  0  0  0
    0.6864    1.3483   -0.2631 H   0  0  0  0  0  0  0  0  0  0  0  0
    3.7960   -0.2176    1.0117 H   0  0  0  0  0  0  0  0  0  0  0  0
    3.4250    1.4167    0.3559 H   0  0  0  0  0  0  0  0  0  0  0  0
    3.4092   -1.0901   -1.0389 H   0  0  0  0  0  0  0  0  0  0  0  0
    2.8945    0.5562   -1.6705 H   0  0  0  0  0  0  0  0  0  0  0  0
  1  2  1  0
  2  3  1  0
  2  4  1  0
  4  5  1  0
  5  6  1  0
  6  7  1  0
  7  8  1  0
  8  9  1  0
  9  5  1  0
  1 10  1  0
  1 11  1  0
  1 12  1  0
  2 13  1  0
  3 14  1  0
  3 15  1  0
  3 16  1  0
  4 17  1  0
  4 18  1  0
  5 19  1  0
  7 20  1  0
  7 21  1  0
  8 22  1  0
  8 23  1  0
M  END
