
     RDKit          3D

 18 17  0  0  0  0  0  0  0  0999 V2000
   -1.1989    0.5104   -1.9039 C   0  0  0  0  0  0  0  0  0  0  0  0
   -0.6319   -0.8118   -1.5998 C   0  0  0  0  0  0  0  0  0  0  0  0
   -1.4965   -1.8518   -0.9880 C   0  0  0  0  0  0  0  0  0  0  0  0
    0.2846   -0.2999   -0.1961 C   0  0  0  0  0  0  0  0  0  0  0  0
    0.8234    0.0137    0.6177 C   0  0  0  0  0  0  0  0  0  0  0  0
    1.5572    0.4149    1.7040 C   0  0  0  0  0  0  0  0  0  0  0  0
    1.8592    1.8751    1.7253 C   0  0  0  0  0  0  0  0  0  0  0  0
    2.1056    2.4119    2.7724 O   0  0  0  0  0  0  0  0  0  0  0  0
   -2.3243    0.4455   -2.0430 H   0  0  0  0  0  0  0  0  0  0  0  0
   -0.9462    1.3144   -1.1359 H   0  0  0  0  0  0  0  0  0  0  0  0
   -0.8288    0.9791   -2.8671 H   0  0  0  0  0  0  0  0  0  0  0  0
    0.1608   -1.1753   -2.1914 H   0  0  0  0  0  0  0  0  0  0  0  0
   -0.8496   -2.4452   -0.2736 H   0  0  0  0  0  0  0  0  0  0  0  0
   -2.3493   -1.3988   -0.4238 H   0  0  0  0  0  0  0  0  0  0  0  0
   -1.8384   -2.5503   -1.8111 H   0  0  0  0  0  0  0  0  0  0  0  0
    1.1442    0.1144    2.7286 H   0  0  0  0  0  0  0  0  0  0  0  0
    2.6574   -0.0329    1.6770 H   0  0  0  0  0  0  0  0  0  0  0  0
    1.8715    2.4864    0.8437 H   0  0  0  0  0  0  0  0  0  0  0  0
  1  2  1  0
  2  3  1  0
  2  4  1  0
  4  5  3  0
  5  6  1  0
  6  7  1  0
  7  8  2  0
  1  9  1  0
  1 10  1  0
  1 11  1  0
  2 12  1  0
  3 13  1  0
  3 14  1  0
  3 15  1  0
  6 16  1  0
  6 17  1  0
  7 18  1  0
M  END
