
     RDKit          3D

 25 25  0  0  0  0  0  0  0  0999 V2000
   -2.1240   -1.1110    0.3401 C   0  0  0  0  0  0  0  0  0  0  0  0
   -1.4001    0.2225    0.3981 C   0  0  0  0  0  0  0  0  0  0  0  0
   -2.2571    1.2543   -0.2716 C   0  0  0  0  0  0  0  0  0  0  0  0
   -0.0678    0.0400   -0.2830 C   0  0  0  0  0  0  0  0  0  0  0  0
    0.7505   -1.0170    0.4115 C   0  0  0  0  0  0  0  0  0  0  0  0
    2.0921   -1.0699   -0.2922 C   0  0  0  0  0  0  0  0  0  0  0  0
    2.7640    0.2465   -0.0711 C   0  0  0  0  0  0  0  0  0  0  0  0
    1.9273    1.2698    0.2786 O   0  0  0  0  0  0  0  0  0  0  0  0
    0.7263    1.3021   -0.3886 C   0  0  0  0  0  0  0  0  0  0  0  0
   -1.6877   -1.8572    1.0352 H   0  0  0  0  0  0  0  0  0  0  0  0
   -2.1115   -1.4990   -0.7091 H   0  0  0  0  0  0  0  0  0  0  0  0
   -3.1625   -0.9312    0.6969 H   0  0  0  0  0  0  0  0  0  0  0  0
   -1.2798    0.4643    1.4809 H   0  0  0  0  0  0  0  0  0  0  0  0
   -3.3256    0.9109   -0.2306 H   0  0  0  0  0  0  0  0  0  0  0  0
   -2.2175    2.2236    0.3010 H   0  0  0  0  0  0  0  0  0  0  0  0
   -1.9994    1.3927   -1.3347 H   0  0  0  0  0  0  0  0  0  0  0  0
   -0.2758   -0.3289   -1.3159 H   0  0  0  0  0  0  0  0  0  0  0  0
    0.2478   -2.0101    0.3853 H   0  0  0  0  0  0  0  0  0  0  0  0
    0.9577   -0.6956    1.4656 H   0  0  0  0  0  0  0  0  0  0  0  0
    1.8627   -1.2689   -1.3650 H   0  0  0  0  0  0  0  0  0  0  0  0
    2.7118   -1.9005    0.1336 H   0  0  0  0  0  0  0  0  0  0  0  0
    3.4162    0.4855   -0.9486 H   0  0  0  0  0  0  0  0  0  0  0  0
    3.4930    0.1130    0.7821 H   0  0  0  0  0  0  0  0  0  0  0  0
    0.8426    1.6457   -1.4582 H   0  0  0  0  0  0  0  0  0  0  0  0
    0.1165    2.1184    0.0887 H   0  0  0  0  0  0  0  0  0  0  0  0
  1  2  1  0
  2  3  1  0
  2  4  1  0
  4  5  1  0
  5  6  1  0
  6  7  1  0
  7  8  1  0
  8  9  1  0
  9  4  1  0
  1 10  1  0
  1 11  1  0
  1 12  1  0
  2 13  1  0
  3 14  1  0
  3 15  1  0
  3 16  1  0
  4 17  1  0
  5 18  1  0
  5 19  1  0
  6 20  1  0
  6 21  1  0
  7 22  1  0
  7 23  1  0
  9 24  1  0
  9 25  1  0
M  END
