
     RDKit          3D

 21 21  0  0  0  0  0  0  0  0999 V2000
   -1.6523    1.3490   -0.2682 C   0  0  0  0  0  0  0  0  0  0  0  0
   -1.1073   -0.0623    0.1650 C   0  0  0  0  0  0  0  0  0  0  0  0
   -2.2525   -0.9984   -0.0569 C   0  0  0  0  0  0  0  0  0  0  0  0
   -0.0939   -0.3084   -0.7078 O   0  0  0  0  0  0  0  0  0  0  0  0
    1.1786   -0.3391   -0.2493 C   0  0  0  0  0  0  0  0  0  0  0  0
    2.1615   -0.5795   -1.3731 C   0  0  0  0  0  0  0  0  0  0  0  0
    2.8288   -1.6145   -1.2425 O   0  0  0  0  0  0  0  0  0  0  0  0
    1.6227    0.8521    0.5610 C   0  0  0  0  0  0  0  0  0  0  0  0
    1.7138   -0.5639    1.1091 C   0  0  0  0  0  0  0  0  0  0  0  0
   -2.2605    1.2205   -1.1831 H   0  0  0  0  0  0  0  0  0  0  0  0
   -2.2123    1.7841    0.5551 H   0  0  0  0  0  0  0  0  0  0  0  0
   -0.8029    1.9768   -0.5625 H   0  0  0  0  0  0  0  0  0  0  0  0
   -0.8532    0.0012    1.2211 H   0  0  0  0  0  0  0  0  0  0  0  0
   -3.2456   -0.4693   -0.1463 H   0  0  0  0  0  0  0  0  0  0  0  0
   -2.3353   -1.7635    0.7722 H   0  0  0  0  0  0  0  0  0  0  0  0
   -2.1815   -1.6028   -0.9978 H   0  0  0  0  0  0  0  0  0  0  0  0
    2.2887    0.0714   -2.1990 H   0  0  0  0  0  0  0  0  0  0  0  0
    0.8744    1.4721    1.1151 H   0  0  0  0  0  0  0  0  0  0  0  0
    2.5142    1.4245    0.2925 H   0  0  0  0  0  0  0  0  0  0  0  0
    2.7541   -0.9832    1.2481 H   0  0  0  0  0  0  0  0  0  0  0  0
    1.0606   -0.8667    1.9471 H   0  0  0  0  0  0  0  0  0  0  0  0
  1  2  1  0
  2  3  1  0
  2  4  1  0
  4  5  1  0
  5  6  1  0
  6  7  2  0
  5  8  1  0
  8  9  1  0
  9  5  1  0
  1 10  1  0
  1 11  1  0
  1 12  1  0
  2 13  1  0
  3 14  1  0
  3 15  1  0
  3 16  1  0
  6 17  1  0
  8 18  1  0
  8 19  1  0
  9 20  1  0
  9 21  1  0
M  END
