
     RDKit          3D

 23 22  0  0  0  0  0  0  0  0999 V2000
   -1.8483    1.0328   -0.1733 C   0  0  0  0  0  0  0  0  0  0  0  0
   -1.2173   -0.3394    0.0565 C   0  0  0  0  0  0  0  0  0  0  0  0
   -2.3634   -1.1976    0.6329 C   0  0  0  0  0  0  0  0  0  0  0  0
   -0.9180   -0.8674   -1.1576 O   0  0  0  0  0  0  0  0  0  0  0  0
   -0.1602   -0.2955    1.0907 C   0  0  0  0  0  0  0  0  0  0  0  0
    0.9389    0.4522    0.8238 O   0  0  0  0  0  0  0  0  0  0  0  0
    1.6401    0.0314   -0.2749 C   0  0  0  0  0  0  0  0  0  0  0  0
    2.9035    0.8859   -0.4627 C   0  0  0  0  0  0  0  0  0  0  0  0
    3.6773    0.7363    0.6880 O   0  0  0  0  0  0  0  0  0  0  0  0
   -2.3707    1.3093    0.7693 H   0  0  0  0  0  0  0  0  0  0  0  0
   -2.5404    0.9089   -1.0276 H   0  0  0  0  0  0  0  0  0  0  0  0
   -1.0655    1.7947   -0.3666 H   0  0  0  0  0  0  0  0  0  0  0  0
   -2.0406   -2.2403    0.5806 H   0  0  0  0  0  0  0  0  0  0  0  0
   -3.2813   -0.9701    0.0550 H   0  0  0  0  0  0  0  0  0  0  0  0
   -2.4369   -0.8758    1.6984 H   0  0  0  0  0  0  0  0  0  0  0  0
   -1.2025   -0.3362   -1.9438 H   0  0  0  0  0  0  0  0  0  0  0  0
   -0.5992    0.1006    2.0676 H   0  0  0  0  0  0  0  0  0  0  0  0
    0.1155   -1.3595    1.4144 H   0  0  0  0  0  0  0  0  0  0  0  0
    1.0457    0.0792   -1.2135 H   0  0  0  0  0  0  0  0  0  0  0  0
    1.9223   -1.0284   -0.1290 H   0  0  0  0  0  0  0  0  0  0  0  0
    3.4435    0.4701   -1.3229 H   0  0  0  0  0  0  0  0  0  0  0  0
    2.6574    1.9455   -0.5529 H   0  0  0  0  0  0  0  0  0  0  0  0
    3.7002   -0.2367    0.8942 H   0  0  0  0  0  0  0  0  0  0  0  0
  1  2  1  0
  2  3  1  0
  2  4  1  0
  2  5  1  0
  5  6  1  0
  6  7  1  0
  7  8  1  0
  8  9  1  0
  1 10  1  0
  1 11  1  0
  1 12  1  0
  3 13  1  0
  3 14  1  0
  3 15  1  0
  4 16  1  0
  5 17  1  0
  5 18  1  0
  7 19  1  0
  7 20  1  0
  8 21  1  0
  8 22  1  0
  9 23  1  0
M  END
