
     RDKit          3D

 19 19  0  0  0  0  0  0  0  0999 V2000
   -0.9940   -1.3099   -0.5579 C   0  0  0  0  0  0  0  0  0  0  0  0
   -0.6202    0.0905   -0.1017 C   0  0  0  0  0  0  0  0  0  0  0  0
   -1.2881    0.3837    1.2587 C   0  0  0  0  0  0  0  0  0  0  0  0
   -1.1434    0.9739   -1.0253 O   0  0  0  0  0  0  0  0  0  0  0  0
    0.8632    0.2316    0.0254 C   0  0  0  0  0  0  0  0  0  0  0  0
    1.6086   -1.0089    0.4641 C   0  0  0  0  0  0  0  0  0  0  0  0
    2.1989   -0.9425    1.4976 O   0  0  0  0  0  0  0  0  0  0  0  0
    1.5471    1.0035   -1.0035 C   0  0  0  0  0  0  0  0  0  0  0  0
    1.3284    1.4626    0.4208 O   0  0  0  0  0  0  0  0  0  0  0  0
   -0.5747   -1.4141   -1.5905 H   0  0  0  0  0  0  0  0  0  0  0  0
   -2.1041   -1.3908   -0.5875 H   0  0  0  0  0  0  0  0  0  0  0  0
   -0.6463   -2.0922    0.1360 H   0  0  0  0  0  0  0  0  0  0  0  0
   -2.3637    0.3487    1.1191 H   0  0  0  0  0  0  0  0  0  0  0  0
   -0.9670    1.4013    1.5484 H   0  0  0  0  0  0  0  0  0  0  0  0
   -0.9902   -0.3659    2.0190 H   0  0  0  0  0  0  0  0  0  0  0  0
   -1.0374    1.8856   -0.5849 H   0  0  0  0  0  0  0  0  0  0  0  0
    1.5947   -1.9249   -0.1290 H   0  0  0  0  0  0  0  0  0  0  0  0
    0.9722    1.6205   -1.7269 H   0  0  0  0  0  0  0  0  0  0  0  0
    2.6161    1.0472   -1.1819 H   0  0  0  0  0  0  0  0  0  0  0  0
  1  2  1  0
  2  3  1  0
  2  4  1  0
  2  5  1  0
  5  6  1  0
  6  7  2  0
  5  8  1  0
  8  9  1  0
  9  5  1  0
  1 10  1  0
  1 11  1  0
  1 12  1  0
  3 13  1  0
  3 14  1  0
  3 15  1  0
  4 16  1  0
  6 17  1  0
  8 18  1  0
  8 19  1  0
M  END
