
     RDKit          3D

 21 22  0  0  0  0  0  0  0  0999 V2000
   -1.5014    1.3771   -0.1050 C   0  0  0  0  0  0  0  0  0  0  0  0
   -0.9470    0.0980    0.4258 C   0  0  0  0  0  0  0  0  0  0  0  0
   -1.8710   -1.0284   -0.0156 C   0  0  0  0  0  0  0  0  0  0  0  0
    0.4290   -0.2180   -0.0620 C   0  0  0  0  0  0  0  0  0  0  0  0
    1.1054   -1.4929    0.4051 C   0  0  0  0  0  0  0  0  0  0  0  0
    1.6228   -0.1585    0.7914 C   0  0  0  0  0  0  0  0  0  0  0  0
    2.2692    0.7005   -0.2943 C   0  0  0  0  0  0  0  0  0  0  0  0
    1.0643    0.5217   -1.1481 C   0  0  0  0  0  0  0  0  0  0  0  0
    0.7070    0.8332   -2.2690 O   0  0  0  0  0  0  0  0  0  0  0  0
   -1.3321    1.5166   -1.1971 H   0  0  0  0  0  0  0  0  0  0  0  0
   -1.1638    2.2726    0.4274 H   0  0  0  0  0  0  0  0  0  0  0  0
   -2.6189    1.3232    0.0117 H   0  0  0  0  0  0  0  0  0  0  0  0
   -0.9025    0.1812    1.5379 H   0  0  0  0  0  0  0  0  0  0  0  0
   -2.6388   -0.6743   -0.7333 H   0  0  0  0  0  0  0  0  0  0  0  0
   -1.3067   -1.8331   -0.5468 H   0  0  0  0  0  0  0  0  0  0  0  0
   -2.3078   -1.4659    0.8997 H   0  0  0  0  0  0  0  0  0  0  0  0
    1.5820   -2.0778   -0.4161 H   0  0  0  0  0  0  0  0  0  0  0  0
    0.6399   -2.0920    1.1880 H   0  0  0  0  0  0  0  0  0  0  0  0
    1.6218    0.1895    1.8206 H   0  0  0  0  0  0  0  0  0  0  0  0
    2.3569    1.7718   -0.0013 H   0  0  0  0  0  0  0  0  0  0  0  0
    3.1916    0.2554   -0.7190 H   0  0  0  0  0  0  0  0  0  0  0  0
  1  2  1  0
  2  3  1  0
  2  4  1  0
  4  5  1  0
  5  6  1  0
  6  7  1  0
  7  8  1  0
  8  9  2  0
  6  4  1  0
  8  4  1  0
  1 10  1  0
  1 11  1  0
  1 12  1  0
  2 13  1  0
  3 14  1  0
  3 15  1  0
  3 16  1  0
  5 17  1  0
  5 18  1  0
  6 19  1  0
  7 20  1  0
  7 21  1  0
M  END
