
     RDKit          3D

 21 21  0  0  0  0  0  0  0  0999 V2000
   -2.1469    1.0679   -0.1435 C   0  0  0  0  0  0  0  0  0  0  0  0
   -1.5700   -0.2791    0.2902 C   0  0  0  0  0  0  0  0  0  0  0  0
   -2.5844   -1.3185   -0.0457 C   0  0  0  0  0  0  0  0  0  0  0  0
   -3.0964   -2.0306    0.7955 O   0  0  0  0  0  0  0  0  0  0  0  0
   -0.3293   -0.5962   -0.5082 C   0  0  0  0  0  0  0  0  0  0  0  0
    0.7520    0.4245   -0.3402 C   0  0  0  0  0  0  0  0  0  0  0  0
    1.2935    0.6860    0.9046 O   0  0  0  0  0  0  0  0  0  0  0  0
    2.0836   -0.1340    0.1166 C   0  0  0  0  0  0  0  0  0  0  0  0
    3.3466    0.4189   -0.4991 C   0  0  0  0  0  0  0  0  0  0  0  0
   -2.5119    1.5926    0.7461 H   0  0  0  0  0  0  0  0  0  0  0  0
   -1.4020    1.6504   -0.7324 H   0  0  0  0  0  0  0  0  0  0  0  0
   -3.0190    0.9305   -0.8209 H   0  0  0  0  0  0  0  0  0  0  0  0
   -1.4002   -0.3130    1.3863 H   0  0  0  0  0  0  0  0  0  0  0  0
   -2.8613   -1.4275   -1.0796 H   0  0  0  0  0  0  0  0  0  0  0  0
   -0.6082   -0.6642   -1.5591 H   0  0  0  0  0  0  0  0  0  0  0  0
    0.0043   -1.6134   -0.1809 H   0  0  0  0  0  0  0  0  0  0  0  0
    0.8406    1.2148   -1.1202 H   0  0  0  0  0  0  0  0  0  0  0  0
    2.1333   -1.1881    0.4676 H   0  0  0  0  0  0  0  0  0  0  0  0
    3.1497    1.0973   -1.3505 H   0  0  0  0  0  0  0  0  0  0  0  0
    3.9549   -0.4248   -0.8834 H   0  0  0  0  0  0  0  0  0  0  0  0
    3.9711    0.9063    0.2861 H   0  0  0  0  0  0  0  0  0  0  0  0
  1  2  1  0
  2  3  1  0
  3  4  2  0
  2  5  1  0
  5  6  1  0
  6  7  1  0
  7  8  1  0
  8  9  1  0
  8  6  1  0
  1 10  1  0
  1 11  1  0
  1 12  1  0
  2 13  1  0
  3 14  1  0
  5 15  1  0
  5 16  1  0
  6 17  1  0
  8 18  1  0
  9 19  1  0
  9 20  1  0
  9 21  1  0
M  END
