
     RDKit          3D

 18 18  0  0  0  0  0  0  0  0999 V2000
   -1.5308   -1.1879   -0.5617 C   0  0  0  0  0  0  0  0  0  0  0  0
   -0.6840   -0.2168    0.2034 C   0  0  0  0  0  0  0  0  0  0  0  0
   -1.4848    1.0445    0.4939 C   0  0  0  0  0  0  0  0  0  0  0  0
    0.5666    0.1914   -0.4940 C   0  0  0  0  0  0  0  0  0  0  0  0
    1.4621   -0.8236   -0.8043 O   0  0  0  0  0  0  0  0  0  0  0  0
    2.5259   -0.2973   -0.0641 C   0  0  0  0  0  0  0  0  0  0  0  0
    1.5674    0.7012    0.4805 C   0  0  0  0  0  0  0  0  0  0  0  0
    1.6952    1.5296    1.3636 O   0  0  0  0  0  0  0  0  0  0  0  0
   -2.4854   -1.3092    0.0048 H   0  0  0  0  0  0  0  0  0  0  0  0
   -1.7038   -0.8613   -1.5880 H   0  0  0  0  0  0  0  0  0  0  0  0
   -1.0391   -2.1901   -0.5196 H   0  0  0  0  0  0  0  0  0  0  0  0
   -0.4195   -0.6488    1.1960 H   0  0  0  0  0  0  0  0  0  0  0  0
   -1.3000    1.4350    1.4964 H   0  0  0  0  0  0  0  0  0  0  0  0
   -2.5590    0.7903    0.3982 H   0  0  0  0  0  0  0  0  0  0  0  0
   -1.2345    1.8439   -0.2291 H   0  0  0  0  0  0  0  0  0  0  0  0
    0.4198    0.8634   -1.3610 H   0  0  0  0  0  0  0  0  0  0  0  0
    2.8879   -1.0560    0.6543 H   0  0  0  0  0  0  0  0  0  0  0  0
    3.3161    0.1916   -0.6692 H   0  0  0  0  0  0  0  0  0  0  0  0
  1  2  1  0
  2  3  1  0
  2  4  1  0
  4  5  1  0
  5  6  1  0
  6  7  1  0
  7  8  2  0
  7  4  1  0
  1  9  1  0
  1 10  1  0
  1 11  1  0
  2 12  1  0
  3 13  1  0
  3 14  1  0
  3 15  1  0
  4 16  1  0
  6 17  1  0
  6 18  1  0
M  END
