
     RDKit          3D

 23 23  0  0  0  0  0  0  0  0999 V2000
   -2.2692   -0.0268   -1.2710 C   0  0  0  0  0  0  0  0  0  0  0  0
   -1.5289   -0.0804    0.0365 C   0  0  0  0  0  0  0  0  0  0  0  0
   -2.4336    0.4273    1.1345 C   0  0  0  0  0  0  0  0  0  0  0  0
   -0.2955    0.5147    0.0135 O   0  0  0  0  0  0  0  0  0  0  0  0
    0.7743   -0.2996    0.2498 C   0  0  0  0  0  0  0  0  0  0  0  0
    1.6312    0.2547    1.3701 C   0  0  0  0  0  0  0  0  0  0  0  0
    2.6754    0.6527    0.3768 C   0  0  0  0  0  0  0  0  0  0  0  0
    1.9574   -0.1638   -0.6722 C   0  0  0  0  0  0  0  0  0  0  0  0
    2.6489   -1.3495   -0.9149 O   0  0  0  0  0  0  0  0  0  0  0  0
   -1.9654   -0.8688   -1.8981 H   0  0  0  0  0  0  0  0  0  0  0  0
   -3.3576   -0.1994   -1.0196 H   0  0  0  0  0  0  0  0  0  0  0  0
   -2.2380    0.9556   -1.7623 H   0  0  0  0  0  0  0  0  0  0  0  0
   -1.3646   -1.1638    0.2574 H   0  0  0  0  0  0  0  0  0  0  0  0
   -3.1896   -0.3673    1.3166 H   0  0  0  0  0  0  0  0  0  0  0  0
   -1.8944    0.5964    2.0902 H   0  0  0  0  0  0  0  0  0  0  0  0
   -3.0072    1.3273    0.8269 H   0  0  0  0  0  0  0  0  0  0  0  0
    0.5706   -1.3680    0.4401 H   0  0  0  0  0  0  0  0  0  0  0  0
    1.9438   -0.4676    2.1356 H   0  0  0  0  0  0  0  0  0  0  0  0
    1.2091    1.1638    1.8593 H   0  0  0  0  0  0  0  0  0  0  0  0
    2.7149    1.7276    0.1218 H   0  0  0  0  0  0  0  0  0  0  0  0
    3.6677    0.2642    0.6880 H   0  0  0  0  0  0  0  0  0  0  0  0
    1.7417    0.4165   -1.5944 H   0  0  0  0  0  0  0  0  0  0  0  0
    2.0089   -1.9460   -1.3955 H   0  0  0  0  0  0  0  0  0  0  0  0
  1  2  1  0
  2  3  1  0
  2  4  1  0
  4  5  1  0
  5  6  1  0
  6  7  1  0
  7  8  1  0
  8  9  1  0
  8  5  1  0
  1 10  1  0
  1 11  1  0
  1 12  1  0
  2 13  1  0
  3 14  1  0
  3 15  1  0
  3 16  1  0
  5 17  1  0
  6 18  1  0
  6 19  1  0
  7 20  1  0
  7 21  1  0
  8 22  1  0
  9 23  1  0
M  END
