
     RDKit          3D

 23 24  0  0  0  0  0  0  0  0999 V2000
   -1.7924    0.9433    0.4662 C   0  0  0  0  0  0  0  0  0  0  0  0
   -0.9885    0.1111   -0.4822 C   0  0  0  0  0  0  0  0  0  0  0  0
   -1.8683   -1.0499   -0.9235 C   0  0  0  0  0  0  0  0  0  0  0  0
    0.2165   -0.3137    0.0383 C   0  0  0  0  0  0  0  0  0  0  0  0
    0.4781   -1.1444    1.2211 C   0  0  0  0  0  0  0  0  0  0  0  0
    1.7994   -0.8643    0.5731 C   0  0  0  0  0  0  0  0  0  0  0  0
    1.1559   -1.0950   -0.6363 O   0  0  0  0  0  0  0  0  0  0  0  0
    1.3680    0.5597    0.4398 C   0  0  0  0  0  0  0  0  0  0  0  0
    2.0100    1.2771   -0.7161 C   0  0  0  0  0  0  0  0  0  0  0  0
   -2.6243    1.4017   -0.1447 H   0  0  0  0  0  0  0  0  0  0  0  0
   -2.3108    0.2894    1.2102 H   0  0  0  0  0  0  0  0  0  0  0  0
   -1.2534    1.7736    0.9266 H   0  0  0  0  0  0  0  0  0  0  0  0
   -0.8518    0.7352   -1.4125 H   0  0  0  0  0  0  0  0  0  0  0  0
   -2.8548   -0.6262   -1.2063 H   0  0  0  0  0  0  0  0  0  0  0  0
   -1.3959   -1.6367   -1.7302 H   0  0  0  0  0  0  0  0  0  0  0  0
   -2.0368   -1.7213   -0.0757 H   0  0  0  0  0  0  0  0  0  0  0  0
    0.1064   -2.1815    1.1065 H   0  0  0  0  0  0  0  0  0  0  0  0
    0.3936   -0.6945    2.2199 H   0  0  0  0  0  0  0  0  0  0  0  0
    2.7025   -1.2121    0.8536 H   0  0  0  0  0  0  0  0  0  0  0  0
    1.2798    1.1091    1.3810 H   0  0  0  0  0  0  0  0  0  0  0  0
    1.2193    1.6615   -1.3981 H   0  0  0  0  0  0  0  0  0  0  0  0
    2.6226    0.5385   -1.3131 H   0  0  0  0  0  0  0  0  0  0  0  0
    2.6249    2.1393   -0.3975 H   0  0  0  0  0  0  0  0  0  0  0  0
  1  2  1  0
  2  3  1  0
  2  4  1  0
  4  5  1  0
  5  6  1  0
  6  7  1  0
  6  8  1  0
  8  9  1  0
  7  4  1  0
  8  4  1  0
  1 10  1  0
  1 11  1  0
  1 12  1  0
  2 13  1  0
  3 14  1  0
  3 15  1  0
  3 16  1  0
  5 17  1  0
  5 18  1  0
  6 19  1  0
  8 20  1  0
  9 21  1  0
  9 22  1  0
  9 23  1  0
M  END
