
     RDKit          3D

 17 17  0  0  0  0  0  0  0  0999 V2000
    0.6794   -0.0351    1.6599 C   0  0  0  0  0  0  0  0  0  0  0  0
    0.6420   -0.4836    0.2226 C   0  0  0  0  0  0  0  0  0  0  0  0
    1.7754    0.1336   -0.4895 C   0  0  0  0  0  0  0  0  0  0  0  0
    2.7788    0.4110    0.1099 O   0  0  0  0  0  0  0  0  0  0  0  0
   -0.6662   -0.1117   -0.4473 C   0  0  0  0  0  0  0  0  0  0  0  0
   -1.9027   -0.6739    0.1447 C   0  0  0  0  0  0  0  0  0  0  0  0
   -2.9805   -0.4214   -0.3349 O   0  0  0  0  0  0  0  0  0  0  0  0
   -0.7463    0.9054   -1.4936 C   0  0  0  0  0  0  0  0  0  0  0  0
   -0.6524   -0.3996   -1.9055 O   0  0  0  0  0  0  0  0  0  0  0  0
    0.3202   -0.8422    2.3445 H   0  0  0  0  0  0  0  0  0  0  0  0
    0.0565    0.8653    1.8324 H   0  0  0  0  0  0  0  0  0  0  0  0
    1.7023    0.2253    2.0039 H   0  0  0  0  0  0  0  0  0  0  0  0
    0.7645   -1.5845    0.1489 H   0  0  0  0  0  0  0  0  0  0  0  0
    1.6920    0.3283   -1.5348 H   0  0  0  0  0  0  0  0  0  0  0  0
   -1.8109   -1.3129    1.0133 H   0  0  0  0  0  0  0  0  0  0  0  0
   -1.7443    1.4074   -1.6162 H   0  0  0  0  0  0  0  0  0  0  0  0
    0.0923    1.5886   -1.6583 H   0  0  0  0  0  0  0  0  0  0  0  0
  1  2  1  0
  2  3  1  0
  3  4  2  0
  2  5  1  0
  5  6  1  0
  6  7  2  0
  5  8  1  0
  8  9  1  0
  9  5  1  0
  1 10  1  0
  1 11  1  0
  1 12  1  0
  2 13  1  0
  3 14  1  0
  6 15  1  0
  8 16  1  0
  8 17  1  0
M  END
