
     RDKit          3D

 23 22  0  0  0  0  0  0  0  0999 V2000
   -1.0932    1.3698    0.9241 C   0  0  0  0  0  0  0  0  0  0  0  0
   -0.9141   -0.0797    0.5281 C   0  0  0  0  0  0  0  0  0  0  0  0
   -2.2251   -0.7797    0.5747 C   0  0  0  0  0  0  0  0  0  0  0  0
   -0.1855   -0.1832   -0.7717 C   0  0  0  0  0  0  0  0  0  0  0  0
    0.0503   -1.5583   -1.2645 C   0  0  0  0  0  0  0  0  0  0  0  0
    1.1240    0.5719   -0.6756 C   0  0  0  0  0  0  0  0  0  0  0  0
    1.9351    0.0129    0.3686 O   0  0  0  0  0  0  0  0  0  0  0  0
    3.1801    0.5195    0.6628 C   0  0  0  0  0  0  0  0  0  0  0  0
    3.5882    1.5080   -0.0295 O   0  0  0  0  0  0  0  0  0  0  0  0
   -0.2332    1.7359    1.5182 H   0  0  0  0  0  0  0  0  0  0  0  0
   -2.0317    1.4448    1.5073 H   0  0  0  0  0  0  0  0  0  0  0  0
   -1.2352    1.9792   -0.0135 H   0  0  0  0  0  0  0  0  0  0  0  0
   -0.2670   -0.5429    1.3224 H   0  0  0  0  0  0  0  0  0  0  0  0
   -2.8209   -0.5718   -0.3385 H   0  0  0  0  0  0  0  0  0  0  0  0
   -2.8210   -0.3488    1.4294 H   0  0  0  0  0  0  0  0  0  0  0  0
   -2.1585   -1.8654    0.7885 H   0  0  0  0  0  0  0  0  0  0  0  0
   -0.7963    0.3635   -1.5388 H   0  0  0  0  0  0  0  0  0  0  0  0
    1.0262   -1.9418   -0.8688 H   0  0  0  0  0  0  0  0  0  0  0  0
    0.1687   -1.5647   -2.3770 H   0  0  0  0  0  0  0  0  0  0  0  0
   -0.7482   -2.2877   -1.0409 H   0  0  0  0  0  0  0  0  0  0  0  0
    0.9863    1.6540   -0.5077 H   0  0  0  0  0  0  0  0  0  0  0  0
    1.6663    0.4529   -1.6425 H   0  0  0  0  0  0  0  0  0  0  0  0
    3.8046    0.1116    1.4451 H   0  0  0  0  0  0  0  0  0  0  0  0
  1  2  1  0
  2  3  1  0
  2  4  1  0
  4  5  1  0
  4  6  1  0
  6  7  1  0
  7  8  1  0
  8  9  2  0
  1 10  1  0
  1 11  1  0
  1 12  1  0
  2 13  1  0
  3 14  1  0
  3 15  1  0
  3 16  1  0
  4 17  1  0
  5 18  1  0
  5 19  1  0
  5 20  1  0
  6 21  1  0
  6 22  1  0
  8 23  1  0
M  END
