
     RDKit          3D

 16 15  0  0  0  0  0  0  0  0999 V2000
   -1.4575   -0.8990   -0.6837 C   0  0  0  0  0  0  0  0  0  0  0  0
   -0.6436    0.2487   -0.0763 C   0  0  0  0  0  0  0  0  0  0  0  0
   -1.4476    1.0541    0.8612 C   0  0  0  0  0  0  0  0  0  0  0  0
    0.5778   -0.2379    0.3208 O   0  0  0  0  0  0  0  0  0  0  0  0
    1.7864    0.0398   -0.2644 C   0  0  0  0  0  0  0  0  0  0  0  0
    1.7002    0.7992   -1.2263 O   0  0  0  0  0  0  0  0  0  0  0  0
    3.0191   -0.5287    0.2360 C   0  0  0  0  0  0  0  0  0  0  0  0
    3.0764   -1.3031    1.2227 O   0  0  0  0  0  0  0  0  0  0  0  0
   -2.4694   -0.5456   -0.9681 H   0  0  0  0  0  0  0  0  0  0  0  0
   -0.9410   -1.2975   -1.5858 H   0  0  0  0  0  0  0  0  0  0  0  0
   -1.5207   -1.7588    0.0232 H   0  0  0  0  0  0  0  0  0  0  0  0
   -0.4402    0.9066   -0.9621 H   0  0  0  0  0  0  0  0  0  0  0  0
   -1.6972    2.0875    0.4958 H   0  0  0  0  0  0  0  0  0  0  0  0
   -2.4467    0.5591    0.9760 H   0  0  0  0  0  0  0  0  0  0  0  0
   -1.0535    1.1656    1.8794 H   0  0  0  0  0  0  0  0  0  0  0  0
    3.9575   -0.2899   -0.2483 H   0  0  0  0  0  0  0  0  0  0  0  0
  1  2  1  0
  2  3  1  0
  2  4  1  0
  4  5  1  0
  5  6  2  0
  5  7  1  0
  7  8  2  0
  1  9  1  0
  1 10  1  0
  1 11  1  0
  2 12  1  0
  3 13  1  0
  3 14  1  0
  3 15  1  0
  7 16  1  0
M  END
