
     RDKit          3D

 21 20  0  0  0  0  0  0  0  0999 V2000
   -1.9549    0.0161    0.7116 C   0  0  0  0  0  0  0  0  0  0  0  0
   -0.5982   -0.5161    0.3059 C   0  0  0  0  0  0  0  0  0  0  0  0
   -0.7457   -1.2475   -1.0048 C   0  0  0  0  0  0  0  0  0  0  0  0
    0.3910    0.6014    0.2499 C   0  0  0  0  0  0  0  0  0  0  0  0
    0.0269    1.6769   -0.7306 C   0  0  0  0  0  0  0  0  0  0  0  0
    1.7892    0.1392   -0.0002 C   0  0  0  0  0  0  0  0  0  0  0  0
    2.3879    0.5467   -1.0444 O   0  0  0  0  0  0  0  0  0  0  0  0
    2.4600   -0.7567    0.9226 C   0  0  0  0  0  0  0  0  0  0  0  0
    1.8696   -1.1516    1.9505 O   0  0  0  0  0  0  0  0  0  0  0  0
   -1.7686    0.9424    1.3009 H   0  0  0  0  0  0  0  0  0  0  0  0
   -2.5567    0.2796   -0.1915 H   0  0  0  0  0  0  0  0  0  0  0  0
   -2.4883   -0.7479    1.3350 H   0  0  0  0  0  0  0  0  0  0  0  0
   -0.2930   -1.2202    1.1040 H   0  0  0  0  0  0  0  0  0  0  0  0
   -0.6729   -2.3477   -0.8143 H   0  0  0  0  0  0  0  0  0  0  0  0
    0.0514   -0.9970   -1.7238 H   0  0  0  0  0  0  0  0  0  0  0  0
   -1.7592   -1.0938   -1.4459 H   0  0  0  0  0  0  0  0  0  0  0  0
    0.4113    1.0684    1.2668 H   0  0  0  0  0  0  0  0  0  0  0  0
    0.4679    1.3946   -1.7098 H   0  0  0  0  0  0  0  0  0  0  0  0
   -1.0467    1.8730   -0.7781 H   0  0  0  0  0  0  0  0  0  0  0  0
    0.5657    2.6053   -0.4030 H   0  0  0  0  0  0  0  0  0  0  0  0
    3.4631   -1.0651    0.6992 H   0  0  0  0  0  0  0  0  0  0  0  0
  1  2  1  0
  2  3  1  0
  2  4  1  0
  4  5  1  0
  4  6  1  0
  6  7  2  0
  6  8  1  0
  8  9  2  0
  1 10  1  0
  1 11  1  0
  1 12  1  0
  2 13  1  0
  3 14  1  0
  3 15  1  0
  3 16  1  0
  4 17  1  0
  5 18  1  0
  5 19  1  0
  5 20  1  0
  8 21  1  0
M  END
