
     RDKit          3D

 21 21  0  0  0  0  0  0  0  0999 V2000
   -2.8737    1.1235    0.2740 C   0  0  0  0  0  0  0  0  0  0  0  0
   -2.0015   -0.0244    0.7533 C   0  0  0  0  0  0  0  0  0  0  0  0
   -2.7484   -1.3011    0.5124 C   0  0  0  0  0  0  0  0  0  0  0  0
   -0.6893   -0.0143    0.0708 C   0  0  0  0  0  0  0  0  0  0  0  0
    0.3870    0.0024   -0.4756 C   0  0  0  0  0  0  0  0  0  0  0  0
    1.6943   -0.0018   -1.1476 C   0  0  0  0  0  0  0  0  0  0  0  0
    2.7535    0.1218   -0.0954 C   0  0  0  0  0  0  0  0  0  0  0  0
    4.1974    0.1365   -0.5949 C   0  0  0  0  0  0  0  0  0  0  0  0
    3.4708    1.2947   -0.0616 O   0  0  0  0  0  0  0  0  0  0  0  0
   -2.1763    1.8934   -0.1324 H   0  0  0  0  0  0  0  0  0  0  0  0
   -3.4642    1.5288    1.1262 H   0  0  0  0  0  0  0  0  0  0  0  0
   -3.5447    0.8317   -0.5476 H   0  0  0  0  0  0  0  0  0  0  0  0
   -1.7863    0.0383    1.8394 H   0  0  0  0  0  0  0  0  0  0  0  0
   -2.0157   -2.0899    0.2633 H   0  0  0  0  0  0  0  0  0  0  0  0
   -3.4622   -1.2401   -0.3433 H   0  0  0  0  0  0  0  0  0  0  0  0
   -3.2997   -1.6459    1.4334 H   0  0  0  0  0  0  0  0  0  0  0  0
    1.7976    0.8241   -1.8644 H   0  0  0  0  0  0  0  0  0  0  0  0
    1.7699   -0.9467   -1.7298 H   0  0  0  0  0  0  0  0  0  0  0  0
    2.6574   -0.4998    0.8367 H   0  0  0  0  0  0  0  0  0  0  0  0
    4.9995   -0.2087    0.0535 H   0  0  0  0  0  0  0  0  0  0  0  0
    4.3347    0.1775   -1.6901 H   0  0  0  0  0  0  0  0  0  0  0  0
  1  2  1  0
  2  3  1  0
  2  4  1  0
  4  5  3  0
  5  6  1  0
  6  7  1  0
  7  8  1  0
  8  9  1  0
  9  7  1  0
  1 10  1  0
  1 11  1  0
  1 12  1  0
  2 13  1  0
  3 14  1  0
  3 15  1  0
  3 16  1  0
  6 17  1  0
  6 18  1  0
  7 19  1  0
  8 20  1  0
  8 21  1  0
M  END
