
     RDKit          3D

 19 18  0  0  0  0  0  0  0  0999 V2000
   -1.0531    1.0886   -0.3213 C   0  0  0  0  0  0  0  0  0  0  0  0
   -0.5194   -0.1695    0.3238 C   0  0  0  0  0  0  0  0  0  0  0  0
   -1.0254   -1.4145   -0.3695 C   0  0  0  0  0  0  0  0  0  0  0  0
   -0.9063   -0.1706    1.6569 O   0  0  0  0  0  0  0  0  0  0  0  0
    1.0005   -0.2191    0.2723 C   0  0  0  0  0  0  0  0  0  0  0  0
    1.4784   -0.1902   -1.1355 C   0  0  0  0  0  0  0  0  0  0  0  0
    1.2321   -1.1535   -1.8396 O   0  0  0  0  0  0  0  0  0  0  0  0
    1.6276    0.8626    1.0294 C   0  0  0  0  0  0  0  0  0  0  0  0
    1.7925    1.9579    0.5393 O   0  0  0  0  0  0  0  0  0  0  0  0
   -1.8509    0.8783   -1.0629 H   0  0  0  0  0  0  0  0  0  0  0  0
   -0.2503    1.6649   -0.8357 H   0  0  0  0  0  0  0  0  0  0  0  0
   -1.4841    1.7833    0.4374 H   0  0  0  0  0  0  0  0  0  0  0  0
   -1.2507   -1.2663   -1.4220 H   0  0  0  0  0  0  0  0  0  0  0  0
   -0.2970   -2.2654   -0.2499 H   0  0  0  0  0  0  0  0  0  0  0  0
   -1.9640   -1.7603    0.1310 H   0  0  0  0  0  0  0  0  0  0  0  0
   -1.7889    0.2843    1.7273 H   0  0  0  0  0  0  0  0  0  0  0  0
    1.2726   -1.2403    0.6637 H   0  0  0  0  0  0  0  0  0  0  0  0
    2.0294    0.6211   -1.5863 H   0  0  0  0  0  0  0  0  0  0  0  0
    1.9571    0.7085    2.0416 H   0  0  0  0  0  0  0  0  0  0  0  0
  1  2  1  0
  2  3  1  0
  2  4  1  0
  2  5  1  0
  5  6  1  0
  6  7  2  0
  5  8  1  0
  8  9  2  0
  1 10  1  0
  1 11  1  0
  1 12  1  0
  3 13  1  0
  3 14  1  0
  3 15  1  0
  4 16  1  0
  5 17  1  0
  6 18  1  0
  8 19  1  0
M  END
