
     RDKit          3D

 23 23  0  0  0  0  0  0  0  0999 V2000
   -1.0137   -1.0407    1.2557 C   0  0  0  0  0  0  0  0  0  0  0  0
   -0.7363   -0.5042   -0.1288 C   0  0  0  0  0  0  0  0  0  0  0  0
   -1.7972    0.4838   -0.4709 C   0  0  0  0  0  0  0  0  0  0  0  0
   -1.8437    1.5653    0.4179 O   0  0  0  0  0  0  0  0  0  0  0  0
    0.6670   -0.0468   -0.3114 C   0  0  0  0  0  0  0  0  0  0  0  0
    1.7191   -1.1234   -0.1002 C   0  0  0  0  0  0  0  0  0  0  0  0
    1.6426   -1.6329    1.1905 O   0  0  0  0  0  0  0  0  0  0  0  0
    1.1146    1.3290   -0.0200 C   0  0  0  0  0  0  0  0  0  0  0  0
    0.9318    0.9470   -1.4507 C   0  0  0  0  0  0  0  0  0  0  0  0
   -0.6486   -2.0841    1.3030 H   0  0  0  0  0  0  0  0  0  0  0  0
   -2.1300   -1.1096    1.3467 H   0  0  0  0  0  0  0  0  0  0  0  0
   -0.6274   -0.4011    2.0569 H   0  0  0  0  0  0  0  0  0  0  0  0
   -0.8877   -1.3821   -0.8254 H   0  0  0  0  0  0  0  0  0  0  0  0
   -1.8103    0.8328   -1.5108 H   0  0  0  0  0  0  0  0  0  0  0  0
   -2.7788   -0.0645   -0.3447 H   0  0  0  0  0  0  0  0  0  0  0  0
   -2.6282    2.1173    0.1168 H   0  0  0  0  0  0  0  0  0  0  0  0
    2.7389   -0.6929   -0.2446 H   0  0  0  0  0  0  0  0  0  0  0  0
    1.5454   -1.9092   -0.8380 H   0  0  0  0  0  0  0  0  0  0  0  0
    2.0188   -1.0180    1.8607 H   0  0  0  0  0  0  0  0  0  0  0  0
    2.1877    1.4948    0.2634 H   0  0  0  0  0  0  0  0  0  0  0  0
    0.4426    2.0321    0.4721 H   0  0  0  0  0  0  0  0  0  0  0  0
    0.0788    1.4323   -1.9501 H   0  0  0  0  0  0  0  0  0  0  0  0
    1.8146    0.7751   -2.0882 H   0  0  0  0  0  0  0  0  0  0  0  0
  1  2  1  0
  2  3  1  0
  3  4  1  0
  2  5  1  0
  5  6  1  0
  6  7  1  0
  5  8  1  0
  8  9  1  0
  9  5  1  0
  1 10  1  0
  1 11  1  0
  1 12  1  0
  2 13  1  0
  3 14  1  0
  3 15  1  0
  4 16  1  0
  6 17  1  0
  6 18  1  0
  7 19  1  0
  8 20  1  0
  8 21  1  0
  9 22  1  0
  9 23  1  0
M  END
