
     RDKit          3D

 21 21  0  0  0  0  0  0  0  0999 V2000
   -1.4643   -0.0705   -1.4206 C   0  0  0  0  0  0  0  0  0  0  0  0
   -0.8453   -0.5876   -0.1189 C   0  0  0  0  0  0  0  0  0  0  0  0
   -1.8469   -0.3984    0.9753 C   0  0  0  0  0  0  0  0  0  0  0  0
    0.3832    0.2559    0.1275 C   0  0  0  0  0  0  0  0  0  0  0  0
    0.1012    1.5914    0.2559 O   0  0  0  0  0  0  0  0  0  0  0  0
    1.5000    0.0286   -0.8698 C   0  0  0  0  0  0  0  0  0  0  0  0
    2.4199    0.2994    0.3271 C   0  0  0  0  0  0  0  0  0  0  0  0
    1.3148   -0.3014    1.1613 C   0  0  0  0  0  0  0  0  0  0  0  0
    1.2318   -0.9339    2.1830 O   0  0  0  0  0  0  0  0  0  0  0  0
   -2.1184    0.7957   -1.2274 H   0  0  0  0  0  0  0  0  0  0  0  0
   -0.6345    0.2540   -2.0774 H   0  0  0  0  0  0  0  0  0  0  0  0
   -2.0120   -0.9008   -1.9370 H   0  0  0  0  0  0  0  0  0  0  0  0
   -0.6086   -1.6451   -0.2985 H   0  0  0  0  0  0  0  0  0  0  0  0
   -2.4489    0.5277    0.8421 H   0  0  0  0  0  0  0  0  0  0  0  0
   -2.5674   -1.2594    0.9734 H   0  0  0  0  0  0  0  0  0  0  0  0
   -1.3836   -0.3590    1.9843 H   0  0  0  0  0  0  0  0  0  0  0  0
   -0.0042    1.8154    1.2002 H   0  0  0  0  0  0  0  0  0  0  0  0
    1.5780    0.7739   -1.6661 H   0  0  0  0  0  0  0  0  0  0  0  0
    1.5779   -1.0123   -1.2367 H   0  0  0  0  0  0  0  0  0  0  0  0
    3.3546   -0.2566    0.3285 H   0  0  0  0  0  0  0  0  0  0  0  0
    2.4724    1.3830    0.4938 H   0  0  0  0  0  0  0  0  0  0  0  0
  1  2  1  0
  2  3  1  0
  2  4  1  0
  4  5  1  0
  4  6  1  0
  6  7  1  0
  7  8  1  0
  8  9  2  0
  8  4  1  0
  1 10  1  0
  1 11  1  0
  1 12  1  0
  2 13  1  0
  3 14  1  0
  3 15  1  0
  3 16  1  0
  5 17  1  0
  6 18  1  0
  6 19  1  0
  7 20  1  0
  7 21  1  0
M  END
