
     RDKit          3D

 21 21  0  0  0  0  0  0  0  0999 V2000
   -1.1140    1.6097    0.2137 C   0  0  0  0  0  0  0  0  0  0  0  0
   -0.4733    0.2381   -0.0250 C   0  0  0  0  0  0  0  0  0  0  0  0
   -1.5217   -0.7962    0.3245 C   0  0  0  0  0  0  0  0  0  0  0  0
   -0.1711    0.1547   -1.4976 C   0  0  0  0  0  0  0  0  0  0  0  0
    0.7192    0.1370    0.8482 C   0  0  0  0  0  0  0  0  0  0  0  0
    1.5337   -1.0973    0.8185 C   0  0  0  0  0  0  0  0  0  0  0  0
    2.1895   -0.4440   -0.2993 C   0  0  0  0  0  0  0  0  0  0  0  0
    2.8103   -0.8097   -1.3144 O   0  0  0  0  0  0  0  0  0  0  0  0
    1.8406    0.7835    0.2262 O   0  0  0  0  0  0  0  0  0  0  0  0
   -1.2631    1.6882    1.3289 H   0  0  0  0  0  0  0  0  0  0  0  0
   -0.4298    2.3961   -0.1089 H   0  0  0  0  0  0  0  0  0  0  0  0
   -2.0915    1.6288   -0.3103 H   0  0  0  0  0  0  0  0  0  0  0  0
   -2.5493   -0.3715    0.1724 H   0  0  0  0  0  0  0  0  0  0  0  0
   -1.4124   -1.7009   -0.3097 H   0  0  0  0  0  0  0  0  0  0  0  0
   -1.4644   -1.1242    1.3796 H   0  0  0  0  0  0  0  0  0  0  0  0
   -1.0940    0.3957   -2.0642 H   0  0  0  0  0  0  0  0  0  0  0  0
    0.1047   -0.8895   -1.8089 H   0  0  0  0  0  0  0  0  0  0  0  0
    0.6049    0.8936   -1.7799 H   0  0  0  0  0  0  0  0  0  0  0  0
    0.5761    0.5364    1.8581 H   0  0  0  0  0  0  0  0  0  0  0  0
    1.0168   -2.0522    0.6458 H   0  0  0  0  0  0  0  0  0  0  0  0
    2.1888   -1.1762    1.7023 H   0  0  0  0  0  0  0  0  0  0  0  0
  1  2  1  0
  2  3  1  0
  2  4  1  0
  2  5  1  0
  5  6  1  0
  6  7  1  0
  7  8  2  0
  7  9  1  0
  9  5  1  0
  1 10  1  0
  1 11  1  0
  1 12  1  0
  3 13  1  0
  3 14  1  0
  3 15  1  0
  4 16  1  0
  4 17  1  0
  4 18  1  0
  5 19  1  0
  6 20  1  0
  6 21  1  0
M  END
