
     RDKit          3D

 23 23  0  0  0  0  0  0  0  0999 V2000
   -1.0940    1.0045   -0.9642 C   0  0  0  0  0  0  0  0  0  0  0  0
   -0.8962   -0.2227   -0.1207 C   0  0  0  0  0  0  0  0  0  0  0  0
   -2.2713   -0.4792    0.5307 C   0  0  0  0  0  0  0  0  0  0  0  0
   -0.6138   -1.4309   -0.9099 C   0  0  0  0  0  0  0  0  0  0  0  0
   -0.6941   -2.5182   -0.3930 O   0  0  0  0  0  0  0  0  0  0  0  0
    0.0195   -0.0265    1.0333 C   0  0  0  0  0  0  0  0  0  0  0  0
    1.4141    0.3786    0.8364 C   0  0  0  0  0  0  0  0  0  0  0  0
    2.4166   -0.3946    0.0633 C   0  0  0  0  0  0  0  0  0  0  0  0
    2.0219    1.0503   -0.2974 C   0  0  0  0  0  0  0  0  0  0  0  0
   -0.7351    1.8713   -0.3676 H   0  0  0  0  0  0  0  0  0  0  0  0
   -0.6359    0.9446   -1.9612 H   0  0  0  0  0  0  0  0  0  0  0  0
   -2.1775    1.1331   -1.1501 H   0  0  0  0  0  0  0  0  0  0  0  0
   -2.4078    0.1557    1.4138 H   0  0  0  0  0  0  0  0  0  0  0  0
   -3.0895   -0.2955   -0.1643 H   0  0  0  0  0  0  0  0  0  0  0  0
   -2.3425   -1.5348    0.8690 H   0  0  0  0  0  0  0  0  0  0  0  0
   -0.3374   -1.3467   -1.9414 H   0  0  0  0  0  0  0  0  0  0  0  0
   -0.0072   -0.9616    1.6458 H   0  0  0  0  0  0  0  0  0  0  0  0
   -0.4831    0.7438    1.6922 H   0  0  0  0  0  0  0  0  0  0  0  0
    1.8530    0.7014    1.8426 H   0  0  0  0  0  0  0  0  0  0  0  0
    3.4658   -0.5119    0.4090 H   0  0  0  0  0  0  0  0  0  0  0  0
    2.1197   -1.2108   -0.6230 H   0  0  0  0  0  0  0  0  0  0  0  0
    1.6466    1.1214   -1.3149 H   0  0  0  0  0  0  0  0  0  0  0  0
    2.8283    1.8289   -0.1284 H   0  0  0  0  0  0  0  0  0  0  0  0
  1  2  1  0
  2  3  1  0
  2  4  1  0
  4  5  2  0
  2  6  1  0
  6  7  1  0
  7  8  1  0
  8  9  1  0
  9  7  1  0
  1 10  1  0
  1 11  1  0
  1 12  1  0
  3 13  1  0
  3 14  1  0
  3 15  1  0
  4 16  1  0
  6 17  1  0
  6 18  1  0
  7 19  1  0
  8 20  1  0
  8 21  1  0
  9 22  1  0
  9 23  1  0
M  END
