
     RDKit          3D

 23 22  0  0  0  0  0  0  0  0999 V2000
   -1.5931    0.5723    1.5476 C   0  0  0  0  0  0  0  0  0  0  0  0
   -0.9293    0.1492    0.2530 C   0  0  0  0  0  0  0  0  0  0  0  0
   -1.6436   -1.0767   -0.2525 C   0  0  0  0  0  0  0  0  0  0  0  0
   -1.1663    1.2539   -0.7726 C   0  0  0  0  0  0  0  0  0  0  0  0
    0.5259   -0.0657    0.4429 C   0  0  0  0  0  0  0  0  0  0  0  0
    1.0092    0.1129    1.5686 O   0  0  0  0  0  0  0  0  0  0  0  0
    1.3310   -0.4811   -0.7115 C   0  0  0  0  0  0  0  0  0  0  0  0
    2.7916   -0.6639   -0.3806 C   0  0  0  0  0  0  0  0  0  0  0  0
    3.3851    0.4822    0.0902 O   0  0  0  0  0  0  0  0  0  0  0  0
   -2.0584   -0.3218    2.0246 H   0  0  0  0  0  0  0  0  0  0  0  0
   -2.4319    1.2636    1.3182 H   0  0  0  0  0  0  0  0  0  0  0  0
   -0.8781    1.0325    2.2570 H   0  0  0  0  0  0  0  0  0  0  0  0
   -2.2378   -0.8775   -1.1793 H   0  0  0  0  0  0  0  0  0  0  0  0
   -0.9691   -1.9111   -0.4998 H   0  0  0  0  0  0  0  0  0  0  0  0
   -2.4091   -1.4462    0.4901 H   0  0  0  0  0  0  0  0  0  0  0  0
   -0.5754    2.1413   -0.5133 H   0  0  0  0  0  0  0  0  0  0  0  0
   -0.9482    0.8555   -1.7929 H   0  0  0  0  0  0  0  0  0  0  0  0
   -2.2497    1.4813   -0.7542 H   0  0  0  0  0  0  0  0  0  0  0  0
    0.9119   -1.4229   -1.1202 H   0  0  0  0  0  0  0  0  0  0  0  0
    1.1946    0.2839   -1.5251 H   0  0  0  0  0  0  0  0  0  0  0  0
    3.2817   -1.0550   -1.3107 H   0  0  0  0  0  0  0  0  0  0  0  0
    2.8727   -1.4603    0.3652 H   0  0  0  0  0  0  0  0  0  0  0  0
    2.7862    1.1537    0.4553 H   0  0  0  0  0  0  0  0  0  0  0  0
  1  2  1  0
  2  3  1  0
  2  4  1  0
  2  5  1  0
  5  6  2  0
  5  7  1  0
  7  8  1  0
  8  9  1  0
  1 10  1  0
  1 11  1  0
  1 12  1  0
  3 13  1  0
  3 14  1  0
  3 15  1  0
  4 16  1  0
  4 17  1  0
  4 18  1  0
  7 19  1  0
  7 20  1  0
  8 21  1  0
  8 22  1  0
  9 23  1  0
M  END
