
     RDKit          3D

 20 20  0  0  0  0  0  0  0  0999 V2000
    2.2618   -0.6198   -1.3790 C   0  0  0  0  0  0  0  0  0  0  0  0
    1.7453    0.5898   -0.6262 C   0  0  0  0  0  0  0  0  0  0  0  0
    2.6576    0.8547    0.5760 C   0  0  0  0  0  0  0  0  0  0  0  0
    0.3852    0.2828   -0.1567 C   0  0  0  0  0  0  0  0  0  0  0  0
   -0.7318    0.0468    0.2419 C   0  0  0  0  0  0  0  0  0  0  0  0
   -2.0838   -0.2174    0.7379 C   0  0  0  0  0  0  0  0  0  0  0  0
   -3.1867    0.4379    0.0396 C   0  0  0  0  0  0  0  0  0  0  0  0
   -2.9168   -1.0873   -0.1244 C   0  0  0  0  0  0  0  0  0  0  0  0
    3.0094   -0.2434   -2.1123 H   0  0  0  0  0  0  0  0  0  0  0  0
    2.8437   -1.2681   -0.6691 H   0  0  0  0  0  0  0  0  0  0  0  0
    1.4471   -1.1809   -1.8826 H   0  0  0  0  0  0  0  0  0  0  0  0
    1.7263    1.4908   -1.2487 H   0  0  0  0  0  0  0  0  0  0  0  0
    2.1751    1.6205    1.2134 H   0  0  0  0  0  0  0  0  0  0  0  0
    3.6454    1.1287    0.2006 H   0  0  0  0  0  0  0  0  0  0  0  0
    2.6390   -0.0896    1.1674 H   0  0  0  0  0  0  0  0  0  0  0  0
   -2.2168   -0.3602    1.8451 H   0  0  0  0  0  0  0  0  0  0  0  0
   -3.0649    1.0519   -0.8733 H   0  0  0  0  0  0  0  0  0  0  0  0
   -4.1062    0.6973    0.6167 H   0  0  0  0  0  0  0  0  0  0  0  0
   -2.5768   -1.3720   -1.1463 H   0  0  0  0  0  0  0  0  0  0  0  0
   -3.6519   -1.7625    0.3702 H   0  0  0  0  0  0  0  0  0  0  0  0
  1  2  1  0
  2  3  1  0
  2  4  1  0
  4  5  3  0
  5  6  1  0
  6  7  1  0
  7  8  1  0
  8  6  1  0
  1  9  1  0
  1 10  1  0
  1 11  1  0
  2 12  1  0
  3 13  1  0
  3 14  1  0
  3 15  1  0
  6 16  1  0
  7 17  1  0
  7 18  1  0
  8 19  1  0
  8 20  1  0
M  END
