
     RDKit          3D

 25 25  0  0  0  0  0  0  0  0999 V2000
   -2.5786    1.3084    0.8305 C   0  0  0  0  0  0  0  0  0  0  0  0
   -1.5161    0.6337   -0.0142 C   0  0  0  0  0  0  0  0  0  0  0  0
   -2.1040   -0.4756   -0.8648 C   0  0  0  0  0  0  0  0  0  0  0  0
   -0.5050    0.0300    0.9032 C   0  0  0  0  0  0  0  0  0  0  0  0
    0.5985   -0.6691    0.1050 C   0  0  0  0  0  0  0  0  0  0  0  0
    1.3107    0.2813   -0.7937 C   0  0  0  0  0  0  0  0  0  0  0  0
    2.7648    0.1358   -0.3224 C   0  0  0  0  0  0  0  0  0  0  0  0
    2.7007   -1.2450    0.2979 C   0  0  0  0  0  0  0  0  0  0  0  0
    1.5086   -1.1642    1.0184 O   0  0  0  0  0  0  0  0  0  0  0  0
   -2.1674    1.6126    1.8348 H   0  0  0  0  0  0  0  0  0  0  0  0
   -2.8903    2.2636    0.3473 H   0  0  0  0  0  0  0  0  0  0  0  0
   -3.4691    0.6656    0.9747 H   0  0  0  0  0  0  0  0  0  0  0  0
   -1.0608    1.3619   -0.6804 H   0  0  0  0  0  0  0  0  0  0  0  0
   -2.2116   -1.4249   -0.3055 H   0  0  0  0  0  0  0  0  0  0  0  0
   -3.0368   -0.1392   -1.3484 H   0  0  0  0  0  0  0  0  0  0  0  0
   -1.3652   -0.6525   -1.6886 H   0  0  0  0  0  0  0  0  0  0  0  0
   -0.9625   -0.6734    1.6267 H   0  0  0  0  0  0  0  0  0  0  0  0
    0.0247    0.8052    1.5110 H   0  0  0  0  0  0  0  0  0  0  0  0
    0.1348   -1.5000   -0.4737 H   0  0  0  0  0  0  0  0  0  0  0  0
    0.9756    1.3173   -0.7528 H   0  0  0  0  0  0  0  0  0  0  0  0
    1.2970   -0.1231   -1.8324 H   0  0  0  0  0  0  0  0  0  0  0  0
    3.0080    0.9161    0.4261 H   0  0  0  0  0  0  0  0  0  0  0  0
    3.4500    0.1666   -1.1982 H   0  0  0  0  0  0  0  0  0  0  0  0
    2.5277   -1.9563   -0.5275 H   0  0  0  0  0  0  0  0  0  0  0  0
    3.5663   -1.4747    0.9268 H   0  0  0  0  0  0  0  0  0  0  0  0
  1  2  1  0
  2  3  1  0
  2  4  1  0
  4  5  1  0
  5  6  1  0
  6  7  1  0
  7  8  1  0
  8  9  1  0
  9  5  1  0
  1 10  1  0
  1 11  1  0
  1 12  1  0
  2 13  1  0
  3 14  1  0
  3 15  1  0
  3 16  1  0
  4 17  1  0
  4 18  1  0
  5 19  1  0
  6 20  1  0
  6 21  1  0
  7 22  1  0
  7 23  1  0
  8 24  1  0
  8 25  1  0
M  END
