
     RDKit          3D

 21 21  0  0  0  0  0  0  0  0999 V2000
   -0.8392    1.2592    0.8077 C   0  0  0  0  0  0  0  0  0  0  0  0
   -0.9826    0.2469   -0.2758 C   0  0  0  0  0  0  0  0  0  0  0  0
   -1.7990   -0.9382    0.2762 C   0  0  0  0  0  0  0  0  0  0  0  0
    0.3166   -0.2586   -0.8073 C   0  0  0  0  0  0  0  0  0  0  0  0
    1.2628   -0.9596    0.1203 C   0  0  0  0  0  0  0  0  0  0  0  0
    1.6976   -0.1070    1.2523 C   0  0  0  0  0  0  0  0  0  0  0  0
    2.1903    0.9996    1.0798 O   0  0  0  0  0  0  0  0  0  0  0  0
    0.9767    0.5095   -1.9153 C   0  0  0  0  0  0  0  0  0  0  0  0
    0.2634   -0.6750   -2.1440 O   0  0  0  0  0  0  0  0  0  0  0  0
   -0.5612    0.7620    1.7587 H   0  0  0  0  0  0  0  0  0  0  0  0
   -1.8564    1.7118    1.0081 H   0  0  0  0  0  0  0  0  0  0  0  0
   -0.2011    2.1123    0.5473 H   0  0  0  0  0  0  0  0  0  0  0  0
   -1.6291    0.6520   -1.0897 H   0  0  0  0  0  0  0  0  0  0  0  0
   -1.6550   -1.8409   -0.3282 H   0  0  0  0  0  0  0  0  0  0  0  0
   -1.4969   -1.0963    1.3229 H   0  0  0  0  0  0  0  0  0  0  0  0
   -2.8802   -0.6805    0.2527 H   0  0  0  0  0  0  0  0  0  0  0  0
    2.2035   -1.2667   -0.4071 H   0  0  0  0  0  0  0  0  0  0  0  0
    0.7981   -1.8680    0.5285 H   0  0  0  0  0  0  0  0  0  0  0  0
    1.6068   -0.4022    2.3037 H   0  0  0  0  0  0  0  0  0  0  0  0
    0.5240    1.4632   -2.1767 H   0  0  0  0  0  0  0  0  0  0  0  0
    2.0609    0.3765   -2.1142 H   0  0  0  0  0  0  0  0  0  0  0  0
  1  2  1  0
  2  3  1  0
  2  4  1  0
  4  5  1  0
  5  6  1  0
  6  7  2  0
  4  8  1  0
  8  9  1  0
  9  4  1  0
  1 10  1  0
  1 11  1  0
  1 12  1  0
  2 13  1  0
  3 14  1  0
  3 15  1  0
  3 16  1  0
  5 17  1  0
  5 18  1  0
  6 19  1  0
  8 20  1  0
  8 21  1  0
M  END
