
     RDKit          3D

 17 16  0  0  0  0  0  0  0  0999 V2000
   -1.5710    1.4902    0.1590 C   0  0  0  0  0  0  0  0  0  0  0  0
   -0.9385    0.3780   -0.6274 C   0  0  0  0  0  0  0  0  0  0  0  0
   -1.8744   -0.8096   -0.7680 C   0  0  0  0  0  0  0  0  0  0  0  0
    0.3206   -0.0809   -0.0876 C   0  0  0  0  0  0  0  0  0  0  0  0
    1.3668   -0.4652    0.3784 C   0  0  0  0  0  0  0  0  0  0  0  0
    2.6526   -0.9318    0.9447 C   0  0  0  0  0  0  0  0  0  0  0  0
    3.6837   -0.1406    0.4139 O   0  0  0  0  0  0  0  0  0  0  0  0
   -2.0900    2.2344   -0.5137 H   0  0  0  0  0  0  0  0  0  0  0  0
   -2.3979    1.0864    0.8003 H   0  0  0  0  0  0  0  0  0  0  0  0
   -0.8789    2.0472    0.7977 H   0  0  0  0  0  0  0  0  0  0  0  0
   -0.7199    0.7799   -1.6565 H   0  0  0  0  0  0  0  0  0  0  0  0
   -2.2332   -0.9162   -1.8133 H   0  0  0  0  0  0  0  0  0  0  0  0
   -1.3579   -1.7496   -0.4797 H   0  0  0  0  0  0  0  0  0  0  0  0
   -2.7591   -0.6156   -0.1097 H   0  0  0  0  0  0  0  0  0  0  0  0
    2.8164   -2.0091    0.7406 H   0  0  0  0  0  0  0  0  0  0  0  0
    2.6437   -0.8045    2.0505 H   0  0  0  0  0  0  0  0  0  0  0  0
    3.3369    0.5070   -0.2293 H   0  0  0  0  0  0  0  0  0  0  0  0
  1  2  1  0
  2  3  1  0
  2  4  1  0
  4  5  3  0
  5  6  1  0
  6  7  1  0
  1  8  1  0
  1  9  1  0
  1 10  1  0
  2 11  1  0
  3 12  1  0
  3 13  1  0
  3 14  1  0
  6 15  1  0
  6 16  1  0
  7 17  1  0
M  END
