
     RDKit          3D

 21 21  0  0  0  0  0  0  0  0999 V2000
   -0.5620   -1.4788   -0.2332 C   0  0  0  0  0  0  0  0  0  0  0  0
   -0.1921   -0.0335   -0.4255 C   0  0  0  0  0  0  0  0  0  0  0  0
   -1.4027    0.8037   -0.2140 C   0  0  0  0  0  0  0  0  0  0  0  0
   -2.3553    0.3875   -1.1764 O   0  0  0  0  0  0  0  0  0  0  0  0
   -2.0420    0.6177    1.1145 C   0  0  0  0  0  0  0  0  0  0  0  0
   -1.4362    0.9051    2.1293 O   0  0  0  0  0  0  0  0  0  0  0  0
    0.9762    0.3468    0.4347 C   0  0  0  0  0  0  0  0  0  0  0  0
    2.2561   -0.4586    0.1565 C   0  0  0  0  0  0  0  0  0  0  0  0
    2.1806    0.9914   -0.1331 C   0  0  0  0  0  0  0  0  0  0  0  0
   -0.3062   -1.7616    0.8160 H   0  0  0  0  0  0  0  0  0  0  0  0
   -1.6544   -1.6348   -0.3289 H   0  0  0  0  0  0  0  0  0  0  0  0
    0.0370   -2.1415   -0.8846 H   0  0  0  0  0  0  0  0  0  0  0  0
    0.0883    0.0681   -1.5103 H   0  0  0  0  0  0  0  0  0  0  0  0
   -1.2371    1.8829   -0.4262 H   0  0  0  0  0  0  0  0  0  0  0  0
   -1.9868   -0.2370   -1.8217 H   0  0  0  0  0  0  0  0  0  0  0  0
   -3.0446    0.2305    1.2458 H   0  0  0  0  0  0  0  0  0  0  0  0
    0.7735    0.4777    1.5182 H   0  0  0  0  0  0  0  0  0  0  0  0
    2.2261   -1.1839   -0.6893 H   0  0  0  0  0  0  0  0  0  0  0  0
    2.8259   -0.8357    1.0181 H   0  0  0  0  0  0  0  0  0  0  0  0
    2.1227    1.3790   -1.1545 H   0  0  0  0  0  0  0  0  0  0  0  0
    2.7331    1.6749    0.5647 H   0  0  0  0  0  0  0  0  0  0  0  0
  1  2  1  0
  2  3  1  0
  3  4  1  0
  3  5  1  0
  5  6  2  0
  2  7  1  0
  7  8  1  0
  8  9  1  0
  9  7  1  0
  1 10  1  0
  1 11  1  0
  1 12  1  0
  2 13  1  0
  3 14  1  0
  4 15  1  0
  5 16  1  0
  7 17  1  0
  8 18  1  0
  8 19  1  0
  9 20  1  0
  9 21  1  0
M  END
