
     RDKit          3D

 23 23  0  0  0  0  0  0  0  0999 V2000
   -1.6371    1.4150   -0.3423 C   0  0  0  0  0  0  0  0  0  0  0  0
   -0.9740    0.1769    0.2606 C   0  0  0  0  0  0  0  0  0  0  0  0
   -1.9408   -1.0090    0.1354 C   0  0  0  0  0  0  0  0  0  0  0  0
   -0.7346    0.3499    1.5955 O   0  0  0  0  0  0  0  0  0  0  0  0
    0.2244   -0.1496   -0.5606 C   0  0  0  0  0  0  0  0  0  0  0  0
    1.0167   -1.3772   -0.0918 C   0  0  0  0  0  0  0  0  0  0  0  0
    1.6032    0.0544   -0.1663 C   0  0  0  0  0  0  0  0  0  0  0  0
    2.0633    0.5913    1.1452 C   0  0  0  0  0  0  0  0  0  0  0  0
    2.5615    0.2307   -1.1918 O   0  0  0  0  0  0  0  0  0  0  0  0
   -2.3685    1.8388    0.3648 H   0  0  0  0  0  0  0  0  0  0  0  0
   -2.0911    1.1294   -1.3178 H   0  0  0  0  0  0  0  0  0  0  0  0
   -0.8714    2.1845   -0.5618 H   0  0  0  0  0  0  0  0  0  0  0  0
   -1.2776   -1.9167    0.2077 H   0  0  0  0  0  0  0  0  0  0  0  0
   -2.4171   -0.9344   -0.8469 H   0  0  0  0  0  0  0  0  0  0  0  0
   -2.6605   -1.0321    0.9734 H   0  0  0  0  0  0  0  0  0  0  0  0
   -1.5709    0.1595    2.0892 H   0  0  0  0  0  0  0  0  0  0  0  0
    0.0107   -0.1655   -1.6601 H   0  0  0  0  0  0  0  0  0  0  0  0
    0.7809   -1.7660    0.9039 H   0  0  0  0  0  0  0  0  0  0  0  0
    1.3719   -2.0887   -0.8583 H   0  0  0  0  0  0  0  0  0  0  0  0
    3.1517    0.3063    1.2531 H   0  0  0  0  0  0  0  0  0  0  0  0
    2.0526    1.7158    1.0994 H   0  0  0  0  0  0  0  0  0  0  0  0
    1.5585    0.2017    2.0236 H   0  0  0  0  0  0  0  0  0  0  0  0
    2.1482    0.0850   -2.0905 H   0  0  0  0  0  0  0  0  0  0  0  0
  1  2  1  0
  2  3  1  0
  2  4  1  0
  2  5  1  0
  5  6  1  0
  6  7  1  0
  7  8  1  0
  7  9  1  0
  7  5  1  0
  1 10  1  0
  1 11  1  0
  1 12  1  0
  3 13  1  0
  3 14  1  0
  3 15  1  0
  4 16  1  0
  5 17  1  0
  6 18  1  0
  6 19  1  0
  8 20  1  0
  8 21  1  0
  8 22  1  0
  9 23  1  0
M  END
