
     RDKit          3D

 25 25  0  0  0  0  0  0  0  0999 V2000
   -2.2205   -1.2861    0.2611 C   0  0  0  0  0  0  0  0  0  0  0  0
   -1.8260   -0.1444   -0.6031 C   0  0  0  0  0  0  0  0  0  0  0  0
   -2.2268    1.1406    0.0899 C   0  0  0  0  0  0  0  0  0  0  0  0
   -0.4004   -0.1353   -1.0375 C   0  0  0  0  0  0  0  0  0  0  0  0
    0.6040   -0.0840    0.0568 C   0  0  0  0  0  0  0  0  0  0  0  0
    0.6548   -1.0931    1.0152 O   0  0  0  0  0  0  0  0  0  0  0  0
    1.1858    1.2762    0.4591 C   0  0  0  0  0  0  0  0  0  0  0  0
    1.9949    0.3659   -0.4002 C   0  0  0  0  0  0  0  0  0  0  0  0
    3.2014   -0.2855    0.2136 C   0  0  0  0  0  0  0  0  0  0  0  0
   -1.7724   -2.2566   -0.0683 H   0  0  0  0  0  0  0  0  0  0  0  0
   -3.3305   -1.4361    0.1337 H   0  0  0  0  0  0  0  0  0  0  0  0
   -2.0782   -1.1056    1.3458 H   0  0  0  0  0  0  0  0  0  0  0  0
   -2.4500   -0.1938   -1.5344 H   0  0  0  0  0  0  0  0  0  0  0  0
   -1.3785    1.4064    0.7797 H   0  0  0  0  0  0  0  0  0  0  0  0
   -3.1681    1.0122    0.6598 H   0  0  0  0  0  0  0  0  0  0  0  0
   -2.4256    1.9552   -0.6439 H   0  0  0  0  0  0  0  0  0  0  0  0
   -0.2440    0.7474   -1.6913 H   0  0  0  0  0  0  0  0  0  0  0  0
   -0.1919   -1.0227   -1.6689 H   0  0  0  0  0  0  0  0  0  0  0  0
    1.0672   -1.8904    0.6185 H   0  0  0  0  0  0  0  0  0  0  0  0
    1.5438    1.4043    1.4881 H   0  0  0  0  0  0  0  0  0  0  0  0
    0.7482    2.1525   -0.0433 H   0  0  0  0  0  0  0  0  0  0  0  0
    2.1346    0.6512   -1.4597 H   0  0  0  0  0  0  0  0  0  0  0  0
    3.3861   -1.2997   -0.1397 H   0  0  0  0  0  0  0  0  0  0  0  0
    3.1161   -0.2673    1.3347 H   0  0  0  0  0  0  0  0  0  0  0  0
    4.0760    0.3886   -0.0198 H   0  0  0  0  0  0  0  0  0  0  0  0
  1  2  1  0
  2  3  1  0
  2  4  1  0
  4  5  1  0
  5  6  1  0
  5  7  1  0
  7  8  1  0
  8  9  1  0
  8  5  1  0
  1 10  1  0
  1 11  1  0
  1 12  1  0
  2 13  1  0
  3 14  1  0
  3 15  1  0
  3 16  1  0
  4 17  1  0
  4 18  1  0
  6 19  1  0
  7 20  1  0
  7 21  1  0
  8 22  1  0
  9 23  1  0
  9 24  1  0
  9 25  1  0
M  END
