
     RDKit          3D

 25 26  0  0  0  0  0  0  0  0999 V2000
   -2.3462    1.0381    0.3334 C   0  0  0  0  0  0  0  0  0  0  0  0
   -1.5179   -0.0660   -0.3022 C   0  0  0  0  0  0  0  0  0  0  0  0
   -1.5463   -1.3215    0.4919 C   0  0  0  0  0  0  0  0  0  0  0  0
   -0.1780    0.4864   -0.5915 C   0  0  0  0  0  0  0  0  0  0  0  0
    0.7645   -0.5453   -1.2431 C   0  0  0  0  0  0  0  0  0  0  0  0
    1.6623   -0.8157   -0.1002 C   0  0  0  0  0  0  0  0  0  0  0  0
    2.8931   -0.3063    0.3379 C   0  0  0  0  0  0  0  0  0  0  0  0
    1.9525    0.7165    0.1794 C   0  0  0  0  0  0  0  0  0  0  0  0
    0.5689    0.9588    0.6656 C   0  0  0  0  0  0  0  0  0  0  0  0
   -1.9202    1.2258    1.3298 H   0  0  0  0  0  0  0  0  0  0  0  0
   -2.2265    1.9399   -0.3304 H   0  0  0  0  0  0  0  0  0  0  0  0
   -3.4031    0.7435    0.3693 H   0  0  0  0  0  0  0  0  0  0  0  0
   -2.0091   -0.2764   -1.2831 H   0  0  0  0  0  0  0  0  0  0  0  0
   -1.1882   -1.2152    1.5289 H   0  0  0  0  0  0  0  0  0  0  0  0
   -2.6317   -1.6227    0.5875 H   0  0  0  0  0  0  0  0  0  0  0  0
   -1.0708   -2.1274   -0.0795 H   0  0  0  0  0  0  0  0  0  0  0  0
   -0.2156    1.3486   -1.2715 H   0  0  0  0  0  0  0  0  0  0  0  0
    0.1857   -1.4422   -1.5588 H   0  0  0  0  0  0  0  0  0  0  0  0
    1.3407   -0.0875   -2.0672 H   0  0  0  0  0  0  0  0  0  0  0  0
    1.0597   -1.3482    0.7013 H   0  0  0  0  0  0  0  0  0  0  0  0
    3.7724   -0.3749   -0.3690 H   0  0  0  0  0  0  0  0  0  0  0  0
    3.2693   -0.5400    1.3684 H   0  0  0  0  0  0  0  0  0  0  0  0
    2.0899    1.3546   -0.7516 H   0  0  0  0  0  0  0  0  0  0  0  0
    0.3108    2.0028    0.8629 H   0  0  0  0  0  0  0  0  0  0  0  0
    0.3836    0.2742    1.5131 H   0  0  0  0  0  0  0  0  0  0  0  0
  1  2  1  0
  2  3  1  0
  2  4  1  0
  4  5  1  0
  5  6  1  0
  6  7  1  0
  7  8  1  0
  8  9  1  0
  9  4  1  0
  8  6  1  0
  1 10  1  0
  1 11  1  0
  1 12  1  0
  2 13  1  0
  3 14  1  0
  3 15  1  0
  3 16  1  0
  4 17  1  0
  5 18  1  0
  5 19  1  0
  6 20  1  0
  7 21  1  0
  7 22  1  0
  8 23  1  0
  9 24  1  0
  9 25  1  0
M  END
