
     RDKit          3D

 23 23  0  0  0  0  0  0  0  0999 V2000
    2.1464   -1.1507   -0.2309 C   0  0  0  0  0  0  0  0  0  0  0  0
    1.4112    0.1243   -0.3728 C   0  0  0  0  0  0  0  0  0  0  0  0
    1.6647    1.0449    0.8103 C   0  0  0  0  0  0  0  0  0  0  0  0
   -0.0803   -0.0237   -0.5264 C   0  0  0  0  0  0  0  0  0  0  0  0
   -0.7250   -0.7108    0.6448 C   0  0  0  0  0  0  0  0  0  0  0  0
   -2.2086   -0.8142    0.2586 C   0  0  0  0  0  0  0  0  0  0  0  0
   -2.6713    0.4662    0.1605 O   0  0  0  0  0  0  0  0  0  0  0  0
   -1.9897    1.2914   -0.6828 C   0  0  0  0  0  0  0  0  0  0  0  0
   -0.6361    1.2230   -0.6526 O   0  0  0  0  0  0  0  0  0  0  0  0
    2.6064   -1.1915    0.7894 H   0  0  0  0  0  0  0  0  0  0  0  0
    3.0015   -1.2029   -0.9452 H   0  0  0  0  0  0  0  0  0  0  0  0
    1.5577   -2.0612   -0.3793 H   0  0  0  0  0  0  0  0  0  0  0  0
    1.7648    0.6891   -1.2731 H   0  0  0  0  0  0  0  0  0  0  0  0
    1.3415    0.5840    1.7550 H   0  0  0  0  0  0  0  0  0  0  0  0
    1.1474    2.0117    0.6774 H   0  0  0  0  0  0  0  0  0  0  0  0
    2.7567    1.2706    0.8614 H   0  0  0  0  0  0  0  0  0  0  0  0
   -0.2490   -0.6594   -1.4314 H   0  0  0  0  0  0  0  0  0  0  0  0
   -0.3831   -1.7268    0.8212 H   0  0  0  0  0  0  0  0  0  0  0  0
   -0.6944   -0.0514    1.5293 H   0  0  0  0  0  0  0  0  0  0  0  0
   -2.2784   -1.2999   -0.7394 H   0  0  0  0  0  0  0  0  0  0  0  0
   -2.7857   -1.3422    1.0345 H   0  0  0  0  0  0  0  0  0  0  0  0
   -2.2703    2.3492   -0.3925 H   0  0  0  0  0  0  0  0  0  0  0  0
   -2.4266    1.1803   -1.7160 H   0  0  0  0  0  0  0  0  0  0  0  0
  1  2  1  0
  2  3  1  0
  2  4  1  0
  4  5  1  0
  5  6  1  0
  6  7  1  0
  7  8  1  0
  8  9  1  0
  9  4  1  0
  1 10  1  0
  1 11  1  0
  1 12  1  0
  2 13  1  0
  3 14  1  0
  3 15  1  0
  3 16  1  0
  4 17  1  0
  5 18  1  0
  5 19  1  0
  6 20  1  0
  6 21  1  0
  8 22  1  0
  8 23  1  0
M  END
