
     RDKit          3D

 20 20  0  0  0  0  0  0  0  0999 V2000
   -2.0288    1.0920    0.1305 C   0  0  0  0  0  0  0  0  0  0  0  0
   -1.1409   -0.1339   -0.0711 C   0  0  0  0  0  0  0  0  0  0  0  0
   -1.9038   -1.3318    0.3557 C   0  0  0  0  0  0  0  0  0  0  0  0
    0.0986    0.0221    0.4832 O   0  0  0  0  0  0  0  0  0  0  0  0
    1.1536    0.0476   -0.3697 C   0  0  0  0  0  0  0  0  0  0  0  0
    2.3527   -0.7833    0.0302 C   0  0  0  0  0  0  0  0  0  0  0  0
    2.8884    0.2617    0.7743 O   0  0  0  0  0  0  0  0  0  0  0  0
    2.1419    1.1409   -0.0294 C   0  0  0  0  0  0  0  0  0  0  0  0
   -1.7202    1.9226   -0.5503 H   0  0  0  0  0  0  0  0  0  0  0  0
   -1.8856    1.4436    1.1555 H   0  0  0  0  0  0  0  0  0  0  0  0
   -3.0766    0.8595   -0.0719 H   0  0  0  0  0  0  0  0  0  0  0  0
   -0.9899   -0.2104   -1.1838 H   0  0  0  0  0  0  0  0  0  0  0  0
   -2.9874   -1.1282    0.2171 H   0  0  0  0  0  0  0  0  0  0  0  0
   -1.6982   -2.2336   -0.2908 H   0  0  0  0  0  0  0  0  0  0  0  0
   -1.7816   -1.6042    1.4257 H   0  0  0  0  0  0  0  0  0  0  0  0
    0.9653   -0.0565   -1.4474 H   0  0  0  0  0  0  0  0  0  0  0  0
    3.0307   -0.9994   -0.8264 H   0  0  0  0  0  0  0  0  0  0  0  0
    2.1392   -1.7033    0.5700 H   0  0  0  0  0  0  0  0  0  0  0  0
    1.7496    1.9490    0.6208 H   0  0  0  0  0  0  0  0  0  0  0  0
    2.6926    1.4456   -0.9221 H   0  0  0  0  0  0  0  0  0  0  0  0
  1  2  1  0
  2  3  1  0
  2  4  1  0
  4  5  1  0
  5  6  1  0
  6  7  1  0
  7  8  1  0
  8  5  1  0
  1  9  1  0
  1 10  1  0
  1 11  1  0
  2 12  1  0
  3 13  1  0
  3 14  1  0
  3 15  1  0
  5 16  1  0
  6 17  1  0
  6 18  1  0
  8 19  1  0
  8 20  1  0
M  END
