
     RDKit          3D

 25 25  0  0  0  0  0  0  0  0999 V2000
   -1.6758    1.1510   -0.5473 C   0  0  0  0  0  0  0  0  0  0  0  0
   -1.0430   -0.1572   -0.1499 C   0  0  0  0  0  0  0  0  0  0  0  0
   -1.6520   -0.7638    1.0688 C   0  0  0  0  0  0  0  0  0  0  0  0
   -1.1994   -1.0330   -1.2450 O   0  0  0  0  0  0  0  0  0  0  0  0
    0.4150    0.0672    0.0764 C   0  0  0  0  0  0  0  0  0  0  0  0
    0.7174    1.0688    1.1592 C   0  0  0  0  0  0  0  0  0  0  0  0
    1.2422   -1.2011    0.2621 C   0  0  0  0  0  0  0  0  0  0  0  0
    2.3067   -0.5532   -0.6034 C   0  0  0  0  0  0  0  0  0  0  0  0
    1.2134    0.3159   -1.1899 C   0  0  0  0  0  0  0  0  0  0  0  0
   -1.1866    1.4675   -1.4994 H   0  0  0  0  0  0  0  0  0  0  0  0
   -1.5560    1.9414    0.1964 H   0  0  0  0  0  0  0  0  0  0  0  0
   -2.7496    1.0380   -0.7605 H   0  0  0  0  0  0  0  0  0  0  0  0
   -0.9064   -0.9616    1.8556 H   0  0  0  0  0  0  0  0  0  0  0  0
   -2.4643   -0.1615    1.5216 H   0  0  0  0  0  0  0  0  0  0  0  0
   -2.1309   -1.7521    0.8121 H   0  0  0  0  0  0  0  0  0  0  0  0
   -2.0945   -0.8262   -1.6618 H   0  0  0  0  0  0  0  0  0  0  0  0
    0.1853    0.7475    2.0779 H   0  0  0  0  0  0  0  0  0  0  0  0
    1.8048    1.0332    1.4034 H   0  0  0  0  0  0  0  0  0  0  0  0
    0.4389    2.0986    0.8515 H   0  0  0  0  0  0  0  0  0  0  0  0
    1.5245   -1.3933    1.2939 H   0  0  0  0  0  0  0  0  0  0  0  0
    0.7626   -2.0776   -0.1887 H   0  0  0  0  0  0  0  0  0  0  0  0
    2.7075   -1.2905   -1.3133 H   0  0  0  0  0  0  0  0  0  0  0  0
    3.0866   -0.0056   -0.0652 H   0  0  0  0  0  0  0  0  0  0  0  0
    1.4602    1.3900   -1.2655 H   0  0  0  0  0  0  0  0  0  0  0  0
    0.7934   -0.1425   -2.0888 H   0  0  0  0  0  0  0  0  0  0  0  0
  1  2  1  0
  2  3  1  0
  2  4  1  0
  2  5  1  0
  5  6  1  0
  5  7  1  0
  7  8  1  0
  8  9  1  0
  9  5  1  0
  1 10  1  0
  1 11  1  0
  1 12  1  0
  3 13  1  0
  3 14  1  0
  3 15  1  0
  4 16  1  0
  6 17  1  0
  6 18  1  0
  6 19  1  0
  7 20  1  0
  7 21  1  0
  8 22  1  0
  8 23  1  0
  9 24  1  0
  9 25  1  0
M  END
