
     RDKit          3D

 21 20  0  0  0  0  0  0  0  0999 V2000
   -2.2589   -0.9230    0.1214 C   0  0  0  0  0  0  0  0  0  0  0  0
   -0.9812   -0.3038   -0.4204 C   0  0  0  0  0  0  0  0  0  0  0  0
   -1.1942    1.1906   -0.3055 C   0  0  0  0  0  0  0  0  0  0  0  0
    0.2123   -0.7453    0.4331 C   0  0  0  0  0  0  0  0  0  0  0  0
    0.2005   -2.1627    0.3243 O   0  0  0  0  0  0  0  0  0  0  0  0
    1.4893   -0.2729   -0.0850 C   0  0  0  0  0  0  0  0  0  0  0  0
    2.3018   -1.1124   -0.5144 O   0  0  0  0  0  0  0  0  0  0  0  0
    1.9583    1.1318   -0.1655 C   0  0  0  0  0  0  0  0  0  0  0  0
    3.2882    1.2126   -0.6469 O   0  0  0  0  0  0  0  0  0  0  0  0
   -3.0772   -0.5986   -0.5548 H   0  0  0  0  0  0  0  0  0  0  0  0
   -2.4785   -0.4942    1.1112 H   0  0  0  0  0  0  0  0  0  0  0  0
   -2.2312   -2.0281    0.1088 H   0  0  0  0  0  0  0  0  0  0  0  0
   -0.8722   -0.5896   -1.4591 H   0  0  0  0  0  0  0  0  0  0  0  0
   -2.2732    1.4383   -0.0797 H   0  0  0  0  0  0  0  0  0  0  0  0
   -0.5679    1.6389    0.4985 H   0  0  0  0  0  0  0  0  0  0  0  0
   -1.0104    1.6282   -1.3073 H   0  0  0  0  0  0  0  0  0  0  0  0
    0.0552   -0.4433    1.4877 H   0  0  0  0  0  0  0  0  0  0  0  0
    0.2947   -2.5766    1.2173 H   0  0  0  0  0  0  0  0  0  0  0  0
    1.9432    1.6724    0.7879 H   0  0  0  0  0  0  0  0  0  0  0  0
    1.3239    1.6674   -0.9329 H   0  0  0  0  0  0  0  0  0  0  0  0
    3.8769    0.6701   -0.0525 H   0  0  0  0  0  0  0  0  0  0  0  0
  1  2  1  0
  2  3  1  0
  2  4  1  0
  4  5  1  0
  4  6  1  0
  6  7  2  0
  6  8  1  0
  8  9  1  0
  1 10  1  0
  1 11  1  0
  1 12  1  0
  2 13  1  0
  3 14  1  0
  3 15  1  0
  3 16  1  0
  4 17  1  0
  5 18  1  0
  8 19  1  0
  8 20  1  0
  9 21  1  0
M  END
