
     RDKit          3D

 19 20  0  0  0  0  0  0  0  0999 V2000
   -1.5646    0.6969    0.9195 C   0  0  0  0  0  0  0  0  0  0  0  0
   -0.9611   -0.4873    0.1854 C   0  0  0  0  0  0  0  0  0  0  0  0
   -1.7363   -0.5951   -1.1056 C   0  0  0  0  0  0  0  0  0  0  0  0
   -1.6782   -1.6289   -1.7374 O   0  0  0  0  0  0  0  0  0  0  0  0
    0.3921   -0.3372   -0.0179 C   0  0  0  0  0  0  0  0  0  0  0  0
    1.4629   -0.1738    0.9928 C   0  0  0  0  0  0  0  0  0  0  0  0
    2.1270   -0.2678   -0.3395 C   0  0  0  0  0  0  0  0  0  0  0  0
    1.0867    0.6631   -0.8674 C   0  0  0  0  0  0  0  0  0  0  0  0
    1.2321   -1.2987   -0.6220 O   0  0  0  0  0  0  0  0  0  0  0  0
   -2.5459    0.4605    1.3607 H   0  0  0  0  0  0  0  0  0  0  0  0
   -0.8219    1.0359    1.6774 H   0  0  0  0  0  0  0  0  0  0  0  0
   -1.6986    1.4951    0.1379 H   0  0  0  0  0  0  0  0  0  0  0  0
   -1.2418   -1.3848    0.7758 H   0  0  0  0  0  0  0  0  0  0  0  0
   -2.3391    0.2018   -1.4937 H   0  0  0  0  0  0  0  0  0  0  0  0
    1.5656   -1.1041    1.6136 H   0  0  0  0  0  0  0  0  0  0  0  0
    1.5397    0.7628    1.5380 H   0  0  0  0  0  0  0  0  0  0  0  0
    3.1173   -0.2669   -0.5405 H   0  0  0  0  0  0  0  0  0  0  0  0
    0.9422    0.5233   -1.9576 H   0  0  0  0  0  0  0  0  0  0  0  0
    1.1219    1.7051   -0.5195 H   0  0  0  0  0  0  0  0  0  0  0  0
  1  2  1  0
  2  3  1  0
  3  4  2  0
  2  5  1  0
  5  6  1  0
  6  7  1  0
  7  8  1  0
  7  9  1  0
  8  5  1  0
  9  5  1  0
  1 10  1  0
  1 11  1  0
  1 12  1  0
  2 13  1  0
  3 14  1  0
  6 15  1  0
  6 16  1  0
  7 17  1  0
  8 18  1  0
  8 19  1  0
M  END
