
     RDKit          3D

 19 19  0  0  0  0  0  0  0  0999 V2000
   -1.1963   -1.1333   -0.4551 C   0  0  0  0  0  0  0  0  0  0  0  0
   -0.7580    0.2814   -0.2551 C   0  0  0  0  0  0  0  0  0  0  0  0
   -1.5430    0.9799    0.8353 C   0  0  0  0  0  0  0  0  0  0  0  0
    0.7253    0.4089    0.0030 C   0  0  0  0  0  0  0  0  0  0  0  0
    1.1561    1.7263    0.1930 O   0  0  0  0  0  0  0  0  0  0  0  0
    1.4251   -0.6645    0.7371 C   0  0  0  0  0  0  0  0  0  0  0  0
    1.6906   -0.4436   -0.7445 C   0  0  0  0  0  0  0  0  0  0  0  0
   -0.6662   -1.5181   -1.3614 H   0  0  0  0  0  0  0  0  0  0  0  0
   -1.0110   -1.7178    0.4473 H   0  0  0  0  0  0  0  0  0  0  0  0
   -2.2741   -1.1064   -0.7427 H   0  0  0  0  0  0  0  0  0  0  0  0
   -0.9909    0.8229   -1.2148 H   0  0  0  0  0  0  0  0  0  0  0  0
   -1.8026    2.0311    0.5126 H   0  0  0  0  0  0  0  0  0  0  0  0
   -2.5233    0.4891    0.9988 H   0  0  0  0  0  0  0  0  0  0  0  0
   -0.9459    1.0831    1.7399 H   0  0  0  0  0  0  0  0  0  0  0  0
    1.5041    2.0176   -0.7015 H   0  0  0  0  0  0  0  0  0  0  0  0
    0.9615   -1.6230    0.9575 H   0  0  0  0  0  0  0  0  0  0  0  0
    2.1954   -0.3565    1.4718 H   0  0  0  0  0  0  0  0  0  0  0  0
    1.3479   -1.2095   -1.4683 H   0  0  0  0  0  0  0  0  0  0  0  0
    2.7053   -0.0675   -0.9528 H   0  0  0  0  0  0  0  0  0  0  0  0
  1  2  1  0
  2  3  1  0
  2  4  1  0
  4  5  1  0
  4  6  1  0
  6  7  1  0
  7  4  1  0
  1  8  1  0
  1  9  1  0
  1 10  1  0
  2 11  1  0
  3 12  1  0
  3 13  1  0
  3 14  1  0
  5 15  1  0
  6 16  1  0
  6 17  1  0
  7 18  1  0
  7 19  1  0
M  END
