
     RDKit          3D

 23 24  0  0  0  0  0  0  0  0999 V2000
   -1.7389    0.5921   -1.1472 C   0  0  0  0  0  0  0  0  0  0  0  0
   -1.0386    0.5449    0.2178 C   0  0  0  0  0  0  0  0  0  0  0  0
   -2.1467    0.4662    1.2461 C   0  0  0  0  0  0  0  0  0  0  0  0
   -0.1714   -0.6888    0.3300 C   0  0  0  0  0  0  0  0  0  0  0  0
    0.9439   -0.9581   -0.5902 C   0  0  0  0  0  0  0  0  0  0  0  0
    1.9332    0.0916   -0.9787 C   0  0  0  0  0  0  0  0  0  0  0  0
    1.9881    0.6521    0.4125 C   0  0  0  0  0  0  0  0  0  0  0  0
    1.1634   -0.5212    0.8826 C   0  0  0  0  0  0  0  0  0  0  0  0
    1.7925   -1.4823    1.6656 O   0  0  0  0  0  0  0  0  0  0  0  0
   -1.7576   -0.4693   -1.5085 H   0  0  0  0  0  0  0  0  0  0  0  0
   -1.1920    1.2553   -1.8414 H   0  0  0  0  0  0  0  0  0  0  0  0
   -2.7594    1.0035   -1.0526 H   0  0  0  0  0  0  0  0  0  0  0  0
   -0.4887    1.4980    0.3017 H   0  0  0  0  0  0  0  0  0  0  0  0
   -2.9940    1.0988    0.9289 H   0  0  0  0  0  0  0  0  0  0  0  0
   -1.8006    0.6767    2.2678 H   0  0  0  0  0  0  0  0  0  0  0  0
   -2.4985   -0.5922    1.2416 H   0  0  0  0  0  0  0  0  0  0  0  0
   -0.7789   -1.5775    0.6080 H   0  0  0  0  0  0  0  0  0  0  0  0
    1.1806   -1.9941   -0.8529 H   0  0  0  0  0  0  0  0  0  0  0  0
    2.9088   -0.3588   -1.2541 H   0  0  0  0  0  0  0  0  0  0  0  0
    1.5793    0.8091   -1.7565 H   0  0  0  0  0  0  0  0  0  0  0  0
    3.0174    0.6578    0.8507 H   0  0  0  0  0  0  0  0  0  0  0  0
    1.5193    1.6392    0.4491 H   0  0  0  0  0  0  0  0  0  0  0  0
    1.3388   -2.3431    1.6679 H   0  0  0  0  0  0  0  0  0  0  0  0
  1  2  1  0
  2  3  1  0
  2  4  1  0
  4  5  1  0
  5  6  1  0
  6  7  1  0
  7  8  1  0
  8  9  1  0
  8  4  1  0
  8  5  1  0
  1 10  1  0
  1 11  1  0
  1 12  1  0
  2 13  1  0
  3 14  1  0
  3 15  1  0
  3 16  1  0
  4 17  1  0
  5 18  1  0
  6 19  1  0
  6 20  1  0
  7 21  1  0
  7 22  1  0
  9 23  1  0
M  END
