
     RDKit          3D

 21 21  0  0  0  0  0  0  0  0999 V2000
   -1.8750    1.0125   -0.7199 C   0  0  0  0  0  0  0  0  0  0  0  0
   -1.1211   -0.2117   -0.2485 C   0  0  0  0  0  0  0  0  0  0  0  0
   -1.5620   -0.6114    1.1190 C   0  0  0  0  0  0  0  0  0  0  0  0
    0.3390    0.0137   -0.4008 C   0  0  0  0  0  0  0  0  0  0  0  0
    1.1706   -1.1843    0.0566 C   0  0  0  0  0  0  0  0  0  0  0  0
    2.2059   -0.0909    0.3668 C   0  0  0  0  0  0  0  0  0  0  0  0
    2.7785    0.2860   -0.8430 O   0  0  0  0  0  0  0  0  0  0  0  0
    1.0289    0.7792    0.6539 C   0  0  0  0  0  0  0  0  0  0  0  0
    0.8528    1.6877    1.4432 O   0  0  0  0  0  0  0  0  0  0  0  0
   -1.3781    1.9377   -0.3656 H   0  0  0  0  0  0  0  0  0  0  0  0
   -2.9122    0.9199   -0.3374 H   0  0  0  0  0  0  0  0  0  0  0  0
   -1.9226    0.9865   -1.8286 H   0  0  0  0  0  0  0  0  0  0  0  0
   -1.4056   -1.0368   -0.9525 H   0  0  0  0  0  0  0  0  0  0  0  0
   -1.1608    0.0300    1.9206 H   0  0  0  0  0  0  0  0  0  0  0  0
   -2.6833   -0.4757    1.1526 H   0  0  0  0  0  0  0  0  0  0  0  0
   -1.3929   -1.6839    1.2639 H   0  0  0  0  0  0  0  0  0  0  0  0
    0.5941    0.3830   -1.3957 H   0  0  0  0  0  0  0  0  0  0  0  0
    0.7495   -1.6663    0.9373 H   0  0  0  0  0  0  0  0  0  0  0  0
    1.4473   -1.8369   -0.7870 H   0  0  0  0  0  0  0  0  0  0  0  0
    2.8720   -0.3046    1.1910 H   0  0  0  0  0  0  0  0  0  0  0  0
    3.3748    1.0663   -0.7670 H   0  0  0  0  0  0  0  0  0  0  0  0
  1  2  1  0
  2  3  1  0
  2  4  1  0
  4  5  1  0
  5  6  1  0
  6  7  1  0
  6  8  1  0
  8  9  2  0
  8  4  1  0
  1 10  1  0
  1 11  1  0
  1 12  1  0
  2 13  1  0
  3 14  1  0
  3 15  1  0
  3 16  1  0
  4 17  1  0
  5 18  1  0
  5 19  1  0
  6 20  1  0
  7 21  1  0
M  END
