
     RDKit          3D

 25 25  0  0  0  0  0  0  0  0999 V2000
    0.0383    0.7813   -1.3064 C   0  0  0  0  0  0  0  0  0  0  0  0
    0.4185   -0.1426   -0.2079 C   0  0  0  0  0  0  0  0  0  0  0  0
    1.8270    0.1373    0.2710 C   0  0  0  0  0  0  0  0  0  0  0  0
    2.8903   -0.0101   -0.7516 C   0  0  0  0  0  0  0  0  0  0  0  0
    4.1088    0.2864   -0.0861 O   0  0  0  0  0  0  0  0  0  0  0  0
   -0.4836   -0.1021    0.9927 C   0  0  0  0  0  0  0  0  0  0  0  0
   -1.8732   -0.4684    0.6359 C   0  0  0  0  0  0  0  0  0  0  0  0
   -2.6658    0.3285   -0.3254 C   0  0  0  0  0  0  0  0  0  0  0  0
   -3.0908    0.1436    1.1651 C   0  0  0  0  0  0  0  0  0  0  0  0
   -0.1652    1.7998   -0.9702 H   0  0  0  0  0  0  0  0  0  0  0  0
    0.9096    0.7698   -2.0400 H   0  0  0  0  0  0  0  0  0  0  0  0
   -0.7895    0.3334   -1.9052 H   0  0  0  0  0  0  0  0  0  0  0  0
    0.4520   -1.1776   -0.6514 H   0  0  0  0  0  0  0  0  0  0  0  0
    1.8825    1.1662    0.6885 H   0  0  0  0  0  0  0  0  0  0  0  0
    2.0392   -0.5745    1.0932 H   0  0  0  0  0  0  0  0  0  0  0  0
    2.8550    0.6647   -1.6098 H   0  0  0  0  0  0  0  0  0  0  0  0
    3.0105   -1.0773   -1.0782 H   0  0  0  0  0  0  0  0  0  0  0  0
    4.0431    0.0701    0.8709 H   0  0  0  0  0  0  0  0  0  0  0  0
   -0.1279   -0.8550    1.7575 H   0  0  0  0  0  0  0  0  0  0  0  0
   -0.4006    0.8681    1.5327 H   0  0  0  0  0  0  0  0  0  0  0  0
   -1.9668   -1.6090    0.4939 H   0  0  0  0  0  0  0  0  0  0  0  0
   -3.3717   -0.1640   -1.0320 H   0  0  0  0  0  0  0  0  0  0  0  0
   -2.4407    1.3653   -0.6150 H   0  0  0  0  0  0  0  0  0  0  0  0
   -3.9985   -0.4868    1.3421 H   0  0  0  0  0  0  0  0  0  0  0  0
   -3.1004    1.0853    1.7356 H   0  0  0  0  0  0  0  0  0  0  0  0
  1  2  1  0
  2  3  1  0
  3  4  1  0
  4  5  1  0
  2  6  1  0
  6  7  1  0
  7  8  1  0
  8  9  1  0
  9  7  1  0
  1 10  1  0
  1 11  1  0
  1 12  1  0
  2 13  1  0
  3 14  1  0
  3 15  1  0
  4 16  1  0
  4 17  1  0
  5 18  1  0
  6 19  1  0
  6 20  1  0
  7 21  1  0
  8 22  1  0
  8 23  1  0
  9 24  1  0
  9 25  1  0
M  END
