
     RDKit          3D

 23 22  0  0  0  0  0  0  0  0999 V2000
   -2.2735    0.8057   -0.2656 C   0  0  0  0  0  0  0  0  0  0  0  0
   -0.9675    0.1171   -0.6998 C   0  0  0  0  0  0  0  0  0  0  0  0
   -1.1609   -1.3498   -0.5350 C   0  0  0  0  0  0  0  0  0  0  0  0
    0.1911    0.7058    0.0549 C   0  0  0  0  0  0  0  0  0  0  0  0
    0.0838    0.5470    1.5203 C   0  0  0  0  0  0  0  0  0  0  0  0
    0.7723   -0.2122    2.1833 O   0  0  0  0  0  0  0  0  0  0  0  0
    1.5008    0.3498   -0.5336 C   0  0  0  0  0  0  0  0  0  0  0  0
    1.8507   -1.0899   -0.6152 C   0  0  0  0  0  0  0  0  0  0  0  0
    2.5639    1.0049    0.1200 O   0  0  0  0  0  0  0  0  0  0  0  0
   -2.4907    0.4256    0.7540 H   0  0  0  0  0  0  0  0  0  0  0  0
   -2.1425    1.9092   -0.2757 H   0  0  0  0  0  0  0  0  0  0  0  0
   -3.0356    0.4693   -0.9811 H   0  0  0  0  0  0  0  0  0  0  0  0
   -0.7941    0.3326   -1.7767 H   0  0  0  0  0  0  0  0  0  0  0  0
   -1.0868   -1.8983   -1.5187 H   0  0  0  0  0  0  0  0  0  0  0  0
   -2.2138   -1.5952   -0.2020 H   0  0  0  0  0  0  0  0  0  0  0  0
   -0.5151   -1.8518    0.1765 H   0  0  0  0  0  0  0  0  0  0  0  0
    0.0859    1.8252   -0.1174 H   0  0  0  0  0  0  0  0  0  0  0  0
   -0.6489    1.1341    2.0655 H   0  0  0  0  0  0  0  0  0  0  0  0
    1.5208    0.7554   -1.5860 H   0  0  0  0  0  0  0  0  0  0  0  0
    2.9430   -1.1252   -0.9165 H   0  0  0  0  0  0  0  0  0  0  0  0
    1.2803   -1.5971   -1.3900 H   0  0  0  0  0  0  0  0  0  0  0  0
    1.8500   -1.5873    0.3800 H   0  0  0  0  0  0  0  0  0  0  0  0
    2.6869    1.9249   -0.2029 H   0  0  0  0  0  0  0  0  0  0  0  0
  1  2  1  0
  2  3  1  0
  2  4  1  0
  4  5  1  0
  5  6  2  0
  4  7  1  0
  7  8  1  0
  7  9  1  0
  1 10  1  0
  1 11  1  0
  1 12  1  0
  2 13  1  0
  3 14  1  0
  3 15  1  0
  3 16  1  0
  4 17  1  0
  5 18  1  0
  7 19  1  0
  8 20  1  0
  8 21  1  0
  8 22  1  0
  9 23  1  0
M  END
