
     RDKit          3D

 25 26  0  0  0  0  0  0  0  0999 V2000
   -0.7351   -1.1762    1.3867 C   0  0  0  0  0  0  0  0  0  0  0  0
   -0.0526   -0.0060    0.5852 C   0  0  0  0  0  0  0  0  0  0  0  0
    0.3179    0.9498    1.7799 C   0  0  0  0  0  0  0  0  0  0  0  0
    1.1683   -0.5470    0.1129 C   0  0  0  0  0  0  0  0  0  0  0  0
    1.4390   -1.6481   -0.8046 C   0  0  0  0  0  0  0  0  0  0  0  0
    1.8425   -0.2026   -1.1719 C   0  0  0  0  0  0  0  0  0  0  0  0
   -1.1494    0.6319   -0.0694 C   0  0  0  0  0  0  0  0  0  0  0  0
   -1.2002    1.7400   -1.0068 C   0  0  0  0  0  0  0  0  0  0  0  0
   -1.5278    0.3239   -1.4994 C   0  0  0  0  0  0  0  0  0  0  0  0
   -0.0817   -1.4541    2.2235 H   0  0  0  0  0  0  0  0  0  0  0  0
   -0.8675   -1.9661    0.6432 H   0  0  0  0  0  0  0  0  0  0  0  0
   -1.6886   -0.8336    1.7894 H   0  0  0  0  0  0  0  0  0  0  0  0
    0.9798    1.7523    1.4016 H   0  0  0  0  0  0  0  0  0  0  0  0
   -0.6034    1.4375    2.1462 H   0  0  0  0  0  0  0  0  0  0  0  0
    0.8379    0.3884    2.5539 H   0  0  0  0  0  0  0  0  0  0  0  0
    1.9495   -0.5598    0.9802 H   0  0  0  0  0  0  0  0  0  0  0  0
    0.6879   -2.1377   -1.4393 H   0  0  0  0  0  0  0  0  0  0  0  0
    2.3148   -2.2937   -0.6336 H   0  0  0  0  0  0  0  0  0  0  0  0
    1.3505    0.2489   -2.0308 H   0  0  0  0  0  0  0  0  0  0  0  0
    2.9526    0.0061   -1.1683 H   0  0  0  0  0  0  0  0  0  0  0  0
   -2.0744    0.6577    0.6287 H   0  0  0  0  0  0  0  0  0  0  0  0
   -2.0855    2.3972   -1.0265 H   0  0  0  0  0  0  0  0  0  0  0  0
   -0.3271    2.2487   -1.4421 H   0  0  0  0  0  0  0  0  0  0  0  0
   -2.6172    0.1033   -1.7068 H   0  0  0  0  0  0  0  0  0  0  0  0
   -0.8303   -0.0609   -2.2318 H   0  0  0  0  0  0  0  0  0  0  0  0
  1  2  1  0
  2  3  1  0
  2  4  1  0
  4  5  1  0
  5  6  1  0
  2  7  1  0
  7  8  1  0
  8  9  1  0
  6  4  1  0
  9  7  1  0
  1 10  1  0
  1 11  1  0
  1 12  1  0
  3 13  1  0
  3 14  1  0
  3 15  1  0
  4 16  1  0
  5 17  1  0
  5 18  1  0
  6 19  1  0
  6 20  1  0
  7 21  1  0
  8 22  1  0
  8 23  1  0
  9 24  1  0
  9 25  1  0
M  END
