
     RDKit          3D

 19 18  0  0  0  0  0  0  0  0999 V2000
   -2.7925    0.1879   -1.0680 C   0  0  0  0  0  0  0  0  0  0  0  0
   -2.0208    1.1440   -0.1602 C   0  0  0  0  0  0  0  0  0  0  0  0
   -2.6331    1.1595    1.2068 C   0  0  0  0  0  0  0  0  0  0  0  0
   -0.6679    0.5922   -0.0477 C   0  0  0  0  0  0  0  0  0  0  0  0
    0.4470    0.1286    0.0319 C   0  0  0  0  0  0  0  0  0  0  0  0
    1.7498   -0.4096    0.1494 C   0  0  0  0  0  0  0  0  0  0  0  0
    2.8771   -0.8763    0.2296 C   0  0  0  0  0  0  0  0  0  0  0  0
    4.2180   -1.4566    0.3151 C   0  0  0  0  0  0  0  0  0  0  0  0
    4.8198   -1.4282   -0.9552 O   0  0  0  0  0  0  0  0  0  0  0  0
   -2.8249   -0.7798   -0.5566 H   0  0  0  0  0  0  0  0  0  0  0  0
   -2.2228    0.1528   -2.0173 H   0  0  0  0  0  0  0  0  0  0  0  0
   -3.8257    0.5604   -1.2646 H   0  0  0  0  0  0  0  0  0  0  0  0
   -2.0166    2.1619   -0.5996 H   0  0  0  0  0  0  0  0  0  0  0  0
   -3.6734    1.4977    1.2276 H   0  0  0  0  0  0  0  0  0  0  0  0
   -1.9872    1.8336    1.8400 H   0  0  0  0  0  0  0  0  0  0  0  0
   -2.5510    0.1379    1.6346 H   0  0  0  0  0  0  0  0  0  0  0  0
    4.1029   -2.5080    0.6485 H   0  0  0  0  0  0  0  0  0  0  0  0
    4.8549   -0.9089    1.0518 H   0  0  0  0  0  0  0  0  0  0  0  0
    4.1464   -1.1889   -1.6661 H   0  0  0  0  0  0  0  0  0  0  0  0
  1  2  1  0
  2  3  1  0
  2  4  1  0
  4  5  3  0
  5  6  1  0
  6  7  3  0
  7  8  1  0
  8  9  1  0
  1 10  1  0
  1 11  1  0
  1 12  1  0
  2 13  1  0
  3 14  1  0
  3 15  1  0
  3 16  1  0
  8 17  1  0
  8 18  1  0
  9 19  1  0
M  END
