
     RDKit          3D

 21 20  0  0  0  0  0  0  0  0999 V2000
    2.3956   -0.9022    0.2244 C   0  0  0  0  0  0  0  0  0  0  0  0
    1.2079   -0.2074   -0.3899 C   0  0  0  0  0  0  0  0  0  0  0  0
    1.3414    1.2795   -0.4422 C   0  0  0  0  0  0  0  0  0  0  0  0
   -0.0985   -0.6001    0.2772 C   0  0  0  0  0  0  0  0  0  0  0  0
   -1.2019    0.1427   -0.4064 C   0  0  0  0  0  0  0  0  0  0  0  0
   -2.5627   -0.1623    0.1675 C   0  0  0  0  0  0  0  0  0  0  0  0
   -2.6532    0.1681    1.5166 O   0  0  0  0  0  0  0  0  0  0  0  0
    2.7262   -0.4540    1.1753 H   0  0  0  0  0  0  0  0  0  0  0  0
    3.2181   -0.8584   -0.5220 H   0  0  0  0  0  0  0  0  0  0  0  0
    2.1392   -1.9645    0.3708 H   0  0  0  0  0  0  0  0  0  0  0  0
    1.1547   -0.5681   -1.4589 H   0  0  0  0  0  0  0  0  0  0  0  0
    0.7277    1.6400   -1.3030 H   0  0  0  0  0  0  0  0  0  0  0  0
    1.0472    1.7885    0.5067 H   0  0  0  0  0  0  0  0  0  0  0  0
    2.4002    1.5244   -0.7278 H   0  0  0  0  0  0  0  0  0  0  0  0
   -0.0371   -0.3183    1.3635 H   0  0  0  0  0  0  0  0  0  0  0  0
   -0.2622   -1.6861    0.2597 H   0  0  0  0  0  0  0  0  0  0  0  0
   -1.2186   -0.1782   -1.4680 H   0  0  0  0  0  0  0  0  0  0  0  0
   -1.0204    1.2342   -0.3331 H   0  0  0  0  0  0  0  0  0  0  0  0
   -2.7664   -1.2567    0.0531 H   0  0  0  0  0  0  0  0  0  0  0  0
   -3.3021    0.3950   -0.4519 H   0  0  0  0  0  0  0  0  0  0  0  0
   -3.2351    0.9838    1.5883 H   0  0  0  0  0  0  0  0  0  0  0  0
  1  2  1  0
  2  3  1  0
  2  4  1  0
  4  5  1  0
  5  6  1  0
  6  7  1  0
  1  8  1  0
  1  9  1  0
  1 10  1  0
  2 11  1  0
  3 12  1  0
  3 13  1  0
  3 14  1  0
  4 15  1  0
  4 16  1  0
  5 17  1  0
  5 18  1  0
  6 19  1  0
  6 20  1  0
  7 21  1  0
M  END
