
     RDKit          3D

 23 23  0  0  0  0  0  0  0  0999 V2000
   -1.2429    0.8817    1.1045 C   0  0  0  0  0  0  0  0  0  0  0  0
   -1.1758   -0.1900    0.0618 C   0  0  0  0  0  0  0  0  0  0  0  0
   -2.0758    0.2137   -1.0691 C   0  0  0  0  0  0  0  0  0  0  0  0
    0.1810   -0.6177   -0.3408 C   0  0  0  0  0  0  0  0  0  0  0  0
    0.0772   -1.6286   -1.3264 O   0  0  0  0  0  0  0  0  0  0  0  0
    1.1871    0.3819   -0.7371 C   0  0  0  0  0  0  0  0  0  0  0  0
    1.7837    0.2754    0.6519 C   0  0  0  0  0  0  0  0  0  0  0  0
    3.1835    0.2348    0.6563 O   0  0  0  0  0  0  0  0  0  0  0  0
    1.1372   -1.0707    0.7016 C   0  0  0  0  0  0  0  0  0  0  0  0
   -0.7898    1.8452    0.7250 H   0  0  0  0  0  0  0  0  0  0  0  0
   -2.3089    1.1381    1.2924 H   0  0  0  0  0  0  0  0  0  0  0  0
   -0.8274    0.5899    2.0812 H   0  0  0  0  0  0  0  0  0  0  0  0
   -1.6795   -1.0921    0.5289 H   0  0  0  0  0  0  0  0  0  0  0  0
   -2.8411    0.9703   -0.7568 H   0  0  0  0  0  0  0  0  0  0  0  0
   -2.6693   -0.6422   -1.4803 H   0  0  0  0  0  0  0  0  0  0  0  0
   -1.5471    0.6553   -1.9268 H   0  0  0  0  0  0  0  0  0  0  0  0
   -0.7651   -2.1566   -1.1697 H   0  0  0  0  0  0  0  0  0  0  0  0
    1.9449   -0.0247   -1.4686 H   0  0  0  0  0  0  0  0  0  0  0  0
    0.8888    1.3749   -1.0600 H   0  0  0  0  0  0  0  0  0  0  0  0
    1.3963    1.0556    1.3137 H   0  0  0  0  0  0  0  0  0  0  0  0
    3.5151    1.0602    0.2155 H   0  0  0  0  0  0  0  0  0  0  0  0
    1.8804   -1.8416    0.3388 H   0  0  0  0  0  0  0  0  0  0  0  0
    0.7472   -1.4130    1.6638 H   0  0  0  0  0  0  0  0  0  0  0  0
  1  2  1  0
  2  3  1  0
  2  4  1  0
  4  5  1  0
  4  6  1  0
  6  7  1  0
  7  8  1  0
  7  9  1  0
  9  4  1  0
  1 10  1  0
  1 11  1  0
  1 12  1  0
  2 13  1  0
  3 14  1  0
  3 15  1  0
  3 16  1  0
  5 17  1  0
  6 18  1  0
  6 19  1  0
  7 20  1  0
  8 21  1  0
  9 22  1  0
  9 23  1  0
M  END
