
     RDKit          3D

 24 23  0  0  0  0  0  0  0  0999 V2000
    2.7660   -0.6221    0.8874 C   0  0  0  0  0  0  0  0  0  0  0  0
    1.6712    0.3418    0.4308 C   0  0  0  0  0  0  0  0  0  0  0  0
    2.0117    0.7898   -0.9530 C   0  0  0  0  0  0  0  0  0  0  0  0
    0.3733   -0.4030    0.5291 C   0  0  0  0  0  0  0  0  0  0  0  0
   -0.8236    0.3995    0.1151 C   0  0  0  0  0  0  0  0  0  0  0  0
   -2.0400   -0.5174    0.2813 C   0  0  0  0  0  0  0  0  0  0  0  0
   -3.3149    0.1828   -0.1072 C   0  0  0  0  0  0  0  0  0  0  0  0
   -2.1452   -0.9575    1.5794 O   0  0  0  0  0  0  0  0  0  0  0  0
    2.7188   -1.5342    0.2845 H   0  0  0  0  0  0  0  0  0  0  0  0
    3.7278   -0.0975    0.7126 H   0  0  0  0  0  0  0  0  0  0  0  0
    2.6477   -0.8790    1.9513 H   0  0  0  0  0  0  0  0  0  0  0  0
    1.7295    1.2090    1.1010 H   0  0  0  0  0  0  0  0  0  0  0  0
    1.7222    1.8655   -1.0759 H   0  0  0  0  0  0  0  0  0  0  0  0
    1.5948    0.1575   -1.7525 H   0  0  0  0  0  0  0  0  0  0  0  0
    3.1161    0.7677   -1.0631 H   0  0  0  0  0  0  0  0  0  0  0  0
    0.2321   -0.6778    1.5979 H   0  0  0  0  0  0  0  0  0  0  0  0
    0.4342   -1.3223   -0.0827 H   0  0  0  0  0  0  0  0  0  0  0  0
   -0.9808    1.2346    0.8386 H   0  0  0  0  0  0  0  0  0  0  0  0
   -0.7740    0.7725   -0.9198 H   0  0  0  0  0  0  0  0  0  0  0  0
   -1.9505   -1.4139   -0.3739 H   0  0  0  0  0  0  0  0  0  0  0  0
   -3.5049    0.1791   -1.1944 H   0  0  0  0  0  0  0  0  0  0  0  0
   -3.3685    1.2198    0.2902 H   0  0  0  0  0  0  0  0  0  0  0  0
   -4.1501   -0.3816    0.3649 H   0  0  0  0  0  0  0  0  0  0  0  0
   -1.6931   -0.3132    2.1771 H   0  0  0  0  0  0  0  0  0  0  0  0
  1  2  1  0
  2  3  1  0
  2  4  1  0
  4  5  1  0
  5  6  1  0
  6  7  1  0
  6  8  1  0
  1  9  1  0
  1 10  1  0
  1 11  1  0
  2 12  1  0
  3 13  1  0
  3 14  1  0
  3 15  1  0
  4 16  1  0
  4 17  1  0
  5 18  1  0
  5 19  1  0
  6 20  1  0
  7 21  1  0
  7 22  1  0
  7 23  1  0
  8 24  1  0
M  END
