
     RDKit          3D

 23 24  0  0  0  0  0  0  0  0999 V2000
   -1.6796   -0.3088   -1.1514 C   0  0  0  0  0  0  0  0  0  0  0  0
   -1.2569    0.0241    0.2642 C   0  0  0  0  0  0  0  0  0  0  0  0
   -1.4191    1.5061    0.4518 C   0  0  0  0  0  0  0  0  0  0  0  0
    0.1532   -0.4503    0.4289 C   0  0  0  0  0  0  0  0  0  0  0  0
    0.2452   -1.9372    0.1994 C   0  0  0  0  0  0  0  0  0  0  0  0
    0.7967   -0.0867    1.5928 O   0  0  0  0  0  0  0  0  0  0  0  0
    1.9611    0.0365    0.8052 C   0  0  0  0  0  0  0  0  0  0  0  0
    2.0560    1.2988    0.0622 C   0  0  0  0  0  0  0  0  0  0  0  0
    1.0918    0.3125   -0.4456 C   0  0  0  0  0  0  0  0  0  0  0  0
   -1.1341   -1.2208   -1.4692 H   0  0  0  0  0  0  0  0  0  0  0  0
   -1.3681    0.5261   -1.8131 H   0  0  0  0  0  0  0  0  0  0  0  0
   -2.7575   -0.5372   -1.2281 H   0  0  0  0  0  0  0  0  0  0  0  0
   -1.9503   -0.4790    0.9652 H   0  0  0  0  0  0  0  0  0  0  0  0
   -0.5948    2.0898   -0.0077 H   0  0  0  0  0  0  0  0  0  0  0  0
   -1.4018    1.7578    1.5436 H   0  0  0  0  0  0  0  0  0  0  0  0
   -2.3741    1.7981   -0.0283 H   0  0  0  0  0  0  0  0  0  0  0  0
   -0.7532   -2.4271    0.1311 H   0  0  0  0  0  0  0  0  0  0  0  0
    0.7816   -2.1708   -0.7658 H   0  0  0  0  0  0  0  0  0  0  0  0
    0.8412   -2.4282    0.9872 H   0  0  0  0  0  0  0  0  0  0  0  0
    2.6617   -0.7876    0.7376 H   0  0  0  0  0  0  0  0  0  0  0  0
    2.9972    1.4739   -0.4983 H   0  0  0  0  0  0  0  0  0  0  0  0
    1.7225    2.2224    0.6167 H   0  0  0  0  0  0  0  0  0  0  0  0
    1.3813   -0.2127   -1.3787 H   0  0  0  0  0  0  0  0  0  0  0  0
  1  2  1  0
  2  3  1  0
  2  4  1  0
  4  5  1  0
  4  6  1  0
  6  7  1  0
  7  8  1  0
  8  9  1  0
  9  4  1  0
  9  7  1  0
  1 10  1  0
  1 11  1  0
  1 12  1  0
  2 13  1  0
  3 14  1  0
  3 15  1  0
  3 16  1  0
  5 17  1  0
  5 18  1  0
  5 19  1  0
  7 20  1  0
  8 21  1  0
  8 22  1  0
  9 23  1  0
M  END
