
     RDKit          3D

 23 24  0  0  0  0  0  0  0  0999 V2000
   -1.8970   -1.1737   -0.2150 C   0  0  0  0  0  0  0  0  0  0  0  0
   -1.4550    0.2745   -0.2784 C   0  0  0  0  0  0  0  0  0  0  0  0
   -2.2109    1.0706    0.7577 C   0  0  0  0  0  0  0  0  0  0  0  0
    0.0308    0.3459   -0.0236 C   0  0  0  0  0  0  0  0  0  0  0  0
    0.5539    1.0312    0.9876 C   0  0  0  0  0  0  0  0  0  0  0  0
    2.0670    0.8508    0.9043 C   0  0  0  0  0  0  0  0  0  0  0  0
    1.9745   -0.5957    0.5056 C   0  0  0  0  0  0  0  0  0  0  0  0
    2.0047   -1.3056   -0.6926 C   0  0  0  0  0  0  0  0  0  0  0  0
    1.1349   -0.2156   -0.7610 C   0  0  0  0  0  0  0  0  0  0  0  0
   -1.9542   -1.5411    0.8149 H   0  0  0  0  0  0  0  0  0  0  0  0
   -1.1059   -1.7947   -0.7212 H   0  0  0  0  0  0  0  0  0  0  0  0
   -2.8195   -1.3510   -0.7989 H   0  0  0  0  0  0  0  0  0  0  0  0
   -1.6668    0.6513   -1.2888 H   0  0  0  0  0  0  0  0  0  0  0  0
   -1.8029    0.7926    1.7677 H   0  0  0  0  0  0  0  0  0  0  0  0
   -3.2901    0.8294    0.7388 H   0  0  0  0  0  0  0  0  0  0  0  0
   -2.1301    2.1652    0.5909 H   0  0  0  0  0  0  0  0  0  0  0  0
    0.0621    1.6113    1.7395 H   0  0  0  0  0  0  0  0  0  0  0  0
    2.5463    1.0339    1.8625 H   0  0  0  0  0  0  0  0  0  0  0  0
    2.4825    1.4633    0.0782 H   0  0  0  0  0  0  0  0  0  0  0  0
    1.4059   -1.1202    1.3393 H   0  0  0  0  0  0  0  0  0  0  0  0
    1.5541   -2.3359   -0.7643 H   0  0  0  0  0  0  0  0  0  0  0  0
    2.9686   -1.3223   -1.2720 H   0  0  0  0  0  0  0  0  0  0  0  0
    1.5472    0.6359   -1.4023 H   0  0  0  0  0  0  0  0  0  0  0  0
  1  2  1  0
  2  3  1  0
  2  4  1  0
  4  5  2  0
  5  6  1  0
  6  7  1  0
  7  8  1  0
  8  9  1  0
  9  4  1  0
  9  7  1  0
  1 10  1  0
  1 11  1  0
  1 12  1  0
  2 13  1  0
  3 14  1  0
  3 15  1  0
  3 16  1  0
  5 17  1  0
  6 18  1  0
  6 19  1  0
  7 20  1  0
  8 21  1  0
  8 22  1  0
  9 23  1  0
M  END
