
     RDKit          3D

 23 24  0  0  0  0  0  0  0  0999 V2000
    1.8665    0.5961    1.0146 C   0  0  0  0  0  0  0  0  0  0  0  0
    0.9093    0.5818   -0.1679 C   0  0  0  0  0  0  0  0  0  0  0  0
    1.6322   -0.2206   -1.2602 C   0  0  0  0  0  0  0  0  0  0  0  0
   -0.3186    0.0652    0.1192 C   0  0  0  0  0  0  0  0  0  0  0  0
   -0.6170   -1.3391    0.6210 C   0  0  0  0  0  0  0  0  0  0  0  0
   -1.9749   -0.7179    0.4208 C   0  0  0  0  0  0  0  0  0  0  0  0
   -1.3719    0.5176    1.0526 C   0  0  0  0  0  0  0  0  0  0  0  0
   -1.4384   -0.1969   -0.8752 C   0  0  0  0  0  0  0  0  0  0  0  0
   -2.0265    0.9750   -1.2966 O   0  0  0  0  0  0  0  0  0  0  0  0
    2.8617    0.9435    0.6524 H   0  0  0  0  0  0  0  0  0  0  0  0
    2.0058   -0.4227    1.4237 H   0  0  0  0  0  0  0  0  0  0  0  0
    1.4633    1.2935    1.7850 H   0  0  0  0  0  0  0  0  0  0  0  0
    0.8952    1.6239   -0.5515 H   0  0  0  0  0  0  0  0  0  0  0  0
    2.7274   -0.1928   -1.1136 H   0  0  0  0  0  0  0  0  0  0  0  0
    1.4233    0.1946   -2.2661 H   0  0  0  0  0  0  0  0  0  0  0  0
    1.3260   -1.2878   -1.1662 H   0  0  0  0  0  0  0  0  0  0  0  0
   -0.3333   -2.1453   -0.0544 H   0  0  0  0  0  0  0  0  0  0  0  0
   -0.3923   -1.4668    1.6968 H   0  0  0  0  0  0  0  0  0  0  0  0
   -2.8672   -1.1201    0.6170 H   0  0  0  0  0  0  0  0  0  0  0  0
   -1.1624    0.3159    2.1290 H   0  0  0  0  0  0  0  0  0  0  0  0
   -1.8872    1.4629    0.8559 H   0  0  0  0  0  0  0  0  0  0  0  0
   -1.2205   -0.9101   -1.6653 H   0  0  0  0  0  0  0  0  0  0  0  0
   -1.5006    1.4501   -1.9711 H   0  0  0  0  0  0  0  0  0  0  0  0
  1  2  1  0
  2  3  1  0
  2  4  1  0
  4  5  1  0
  5  6  1  0
  6  7  1  0
  6  8  1  0
  8  9  1  0
  7  4  1  0
  8  4  1  0
  1 10  1  0
  1 11  1  0
  1 12  1  0
  2 13  1  0
  3 14  1  0
  3 15  1  0
  3 16  1  0
  5 17  1  0
  5 18  1  0
  6 19  1  0
  7 20  1  0
  7 21  1  0
  8 22  1  0
  9 23  1  0
M  END
