
     RDKit          3D

 21 22  0  0  0  0  0  0  0  0999 V2000
    2.1454   -0.7180   -0.0628 C   0  0  0  0  0  0  0  0  0  0  0  0
    1.2704    0.3881    0.4339 C   0  0  0  0  0  0  0  0  0  0  0  0
    1.4864    1.5894   -0.4677 C   0  0  0  0  0  0  0  0  0  0  0  0
   -0.1819    0.0062    0.3324 C   0  0  0  0  0  0  0  0  0  0  0  0
   -1.0567   -0.0367    1.2857 C   0  0  0  0  0  0  0  0  0  0  0  0
   -2.3639   -0.4528    0.7971 C   0  0  0  0  0  0  0  0  0  0  0  0
   -2.1740   -0.8951   -0.6005 C   0  0  0  0  0  0  0  0  0  0  0  0
   -1.1493   -1.7332   -1.0054 O   0  0  0  0  0  0  0  0  0  0  0  0
   -0.7951   -0.3901   -0.9404 C   0  0  0  0  0  0  0  0  0  0  0  0
    2.3434   -1.4992    0.6981 H   0  0  0  0  0  0  0  0  0  0  0  0
    3.1386   -0.2800   -0.3124 H   0  0  0  0  0  0  0  0  0  0  0  0
    1.6937   -1.1548   -0.9617 H   0  0  0  0  0  0  0  0  0  0  0  0
    1.5352    0.6439    1.4786 H   0  0  0  0  0  0  0  0  0  0  0  0
    0.8374    2.4099   -0.0611 H   0  0  0  0  0  0  0  0  0  0  0  0
    2.5470    1.8788   -0.4812 H   0  0  0  0  0  0  0  0  0  0  0  0
    1.1718    1.3126   -1.4941 H   0  0  0  0  0  0  0  0  0  0  0  0
   -0.8656    0.2057    2.3447 H   0  0  0  0  0  0  0  0  0  0  0  0
   -3.0097    0.4827    0.7561 H   0  0  0  0  0  0  0  0  0  0  0  0
   -2.8597   -1.2135    1.4472 H   0  0  0  0  0  0  0  0  0  0  0  0
   -2.9939   -0.7566   -1.3409 H   0  0  0  0  0  0  0  0  0  0  0  0
   -0.7194    0.2127   -1.8456 H   0  0  0  0  0  0  0  0  0  0  0  0
  1  2  1  0
  2  3  1  0
  2  4  1  0
  4  5  2  0
  5  6  1  0
  6  7  1  0
  7  8  1  0
  8  9  1  0
  9  4  1  0
  9  7  1  0
  1 10  1  0
  1 11  1  0
  1 12  1  0
  2 13  1  0
  3 14  1  0
  3 15  1  0
  3 16  1  0
  5 17  1  0
  6 18  1  0
  6 19  1  0
  7 20  1  0
  9 21  1  0
M  END
