
     RDKit          3D

 23 23  0  0  0  0  0  0  0  0999 V2000
    1.9332   -0.5813   -0.4340 C   0  0  0  0  0  0  0  0  0  0  0  0
    0.8619    0.0823    0.4078 C   0  0  0  0  0  0  0  0  0  0  0  0
    1.2418    1.5441    0.5125 C   0  0  0  0  0  0  0  0  0  0  0  0
   -0.5106   -0.0724   -0.2093 C   0  0  0  0  0  0  0  0  0  0  0  0
   -0.6533    0.5210   -1.5813 C   0  0  0  0  0  0  0  0  0  0  0  0
   -1.1175   -1.4505   -0.0585 C   0  0  0  0  0  0  0  0  0  0  0  0
   -1.6563   -0.9601    1.2710 C   0  0  0  0  0  0  0  0  0  0  0  0
   -1.5367    0.4188    0.7488 C   0  0  0  0  0  0  0  0  0  0  0  0
   -2.0605    1.4828    1.0053 O   0  0  0  0  0  0  0  0  0  0  0  0
    2.8487   -0.6219    0.2275 H   0  0  0  0  0  0  0  0  0  0  0  0
    1.6647   -1.6286   -0.6909 H   0  0  0  0  0  0  0  0  0  0  0  0
    2.2237    0.0172   -1.3095 H   0  0  0  0  0  0  0  0  0  0  0  0
    0.9125   -0.3426    1.4053 H   0  0  0  0  0  0  0  0  0  0  0  0
    2.1421    1.6639    1.1253 H   0  0  0  0  0  0  0  0  0  0  0  0
    1.4610    1.9437   -0.5085 H   0  0  0  0  0  0  0  0  0  0  0  0
    0.3955    2.1427    0.9077 H   0  0  0  0  0  0  0  0  0  0  0  0
   -0.8542    1.6208   -1.4353 H   0  0  0  0  0  0  0  0  0  0  0  0
   -1.5661    0.1170   -2.0539 H   0  0  0  0  0  0  0  0  0  0  0  0
    0.2401    0.4484   -2.1972 H   0  0  0  0  0  0  0  0  0  0  0  0
   -1.9584   -1.5619   -0.7674 H   0  0  0  0  0  0  0  0  0  0  0  0
   -0.4223   -2.2872   -0.0175 H   0  0  0  0  0  0  0  0  0  0  0  0
   -0.9396   -1.1894    2.1015 H   0  0  0  0  0  0  0  0  0  0  0  0
   -2.6494   -1.3069    1.5506 H   0  0  0  0  0  0  0  0  0  0  0  0
  1  2  1  0
  2  3  1  0
  2  4  1  0
  4  5  1  0
  4  6  1  0
  6  7  1  0
  7  8  1  0
  8  9  2  0
  8  4  1  0
  1 10  1  0
  1 11  1  0
  1 12  1  0
  2 13  1  0
  3 14  1  0
  3 15  1  0
  3 16  1  0
  5 17  1  0
  5 18  1  0
  5 19  1  0
  6 20  1  0
  6 21  1  0
  7 22  1  0
  7 23  1  0
M  END
