
     RDKit          3D

 19 19  0  0  0  0  0  0  0  0999 V2000
   -1.0833    0.4120   -1.1417 C   0  0  0  0  0  0  0  0  0  0  0  0
   -0.7737    0.1038    0.2920 C   0  0  0  0  0  0  0  0  0  0  0  0
   -1.3386   -1.2861    0.5886 C   0  0  0  0  0  0  0  0  0  0  0  0
   -1.3074    1.0303    1.1720 O   0  0  0  0  0  0  0  0  0  0  0  0
    0.7236   -0.0199    0.4739 C   0  0  0  0  0  0  0  0  0  0  0  0
    1.5471    1.0107   -0.2533 C   0  0  0  0  0  0  0  0  0  0  0  0
    2.4400   -0.1475   -0.3996 C   0  0  0  0  0  0  0  0  0  0  0  0
    3.6553   -0.3519   -0.4866 O   0  0  0  0  0  0  0  0  0  0  0  0
    1.3273   -0.9559   -0.4014 O   0  0  0  0  0  0  0  0  0  0  0  0
   -0.4628   -0.2261   -1.7935 H   0  0  0  0  0  0  0  0  0  0  0  0
   -0.9767    1.4759   -1.4046 H   0  0  0  0  0  0  0  0  0  0  0  0
   -2.1581    0.1527   -1.3117 H   0  0  0  0  0  0  0  0  0  0  0  0
   -0.6929   -1.9875   -0.0126 H   0  0  0  0  0  0  0  0  0  0  0  0
   -2.3941   -1.3646    0.3288 H   0  0  0  0  0  0  0  0  0  0  0  0
   -1.1193   -1.5150    1.6609 H   0  0  0  0  0  0  0  0  0  0  0  0
   -1.4806    0.5856    2.0462 H   0  0  0  0  0  0  0  0  0  0  0  0
    1.0705   -0.1514    1.5046 H   0  0  0  0  0  0  0  0  0  0  0  0
    1.9155    1.8557    0.3437 H   0  0  0  0  0  0  0  0  0  0  0  0
    1.1082    1.3793   -1.2057 H   0  0  0  0  0  0  0  0  0  0  0  0
  1  2  1  0
  2  3  1  0
  2  4  1  0
  2  5  1  0
  5  6  1  0
  6  7  1  0
  7  8  2  0
  7  9  1  0
  9  5  1  0
  1 10  1  0
  1 11  1  0
  1 12  1  0
  3 13  1  0
  3 14  1  0
  3 15  1  0
  4 16  1  0
  5 17  1  0
  6 18  1  0
  6 19  1  0
M  END
