
     RDKit          3D

 21 21  0  0  0  0  0  0  0  0999 V2000
   -1.4293    0.7969   -0.7618 C   0  0  0  0  0  0  0  0  0  0  0  0
   -0.9315    0.0885    0.4782 C   0  0  0  0  0  0  0  0  0  0  0  0
   -1.6073   -1.2415    0.6059 C   0  0  0  0  0  0  0  0  0  0  0  0
   -1.3299    0.8706    1.5615 O   0  0  0  0  0  0  0  0  0  0  0  0
    0.5594   -0.0566    0.4827 C   0  0  0  0  0  0  0  0  0  0  0  0
    1.0959   -0.7940   -0.7023 C   0  0  0  0  0  0  0  0  0  0  0  0
    2.2979   -0.1336   -0.9476 O   0  0  0  0  0  0  0  0  0  0  0  0
    2.5189    0.6757    0.1555 C   0  0  0  0  0  0  0  0  0  0  0  0
    1.2227    1.1669    0.3880 O   0  0  0  0  0  0  0  0  0  0  0  0
   -2.4776    1.1078   -0.5654 H   0  0  0  0  0  0  0  0  0  0  0  0
   -0.8422    1.7520   -0.8469 H   0  0  0  0  0  0  0  0  0  0  0  0
   -1.3751    0.2047   -1.6682 H   0  0  0  0  0  0  0  0  0  0  0  0
   -2.7150   -1.0528    0.5636 H   0  0  0  0  0  0  0  0  0  0  0  0
   -1.3969   -1.6971    1.5770 H   0  0  0  0  0  0  0  0  0  0  0  0
   -1.3222   -1.9582   -0.1934 H   0  0  0  0  0  0  0  0  0  0  0  0
   -1.0796    1.8153    1.4565 H   0  0  0  0  0  0  0  0  0  0  0  0
    0.9487   -0.5505    1.3922 H   0  0  0  0  0  0  0  0  0  0  0  0
    0.4674   -0.6777   -1.6072 H   0  0  0  0  0  0  0  0  0  0  0  0
    1.3398   -1.8576   -0.4819 H   0  0  0  0  0  0  0  0  0  0  0  0
    3.2350    1.4787   -0.0478 H   0  0  0  0  0  0  0  0  0  0  0  0
    2.8209    0.0625    1.0301 H   0  0  0  0  0  0  0  0  0  0  0  0
  1  2  1  0
  2  3  1  0
  2  4  1  0
  2  5  1  0
  5  6  1  0
  6  7  1  0
  7  8  1  0
  8  9  1  0
  9  5  1  0
  1 10  1  0
  1 11  1  0
  1 12  1  0
  3 13  1  0
  3 14  1  0
  3 15  1  0
  4 16  1  0
  5 17  1  0
  6 18  1  0
  6 19  1  0
  8 20  1  0
  8 21  1  0
M  END
