
     RDKit          3D

 25 26  0  0  0  0  0  0  0  0999 V2000
   -1.7360    1.0514    0.9323 C   0  0  0  0  0  0  0  0  0  0  0  0
   -1.4216    0.2677   -0.3160 C   0  0  0  0  0  0  0  0  0  0  0  0
   -2.2867   -0.9351   -0.4528 C   0  0  0  0  0  0  0  0  0  0  0  0
    0.0569   -0.0297   -0.4208 C   0  0  0  0  0  0  0  0  0  0  0  0
    0.9306    1.1812   -0.4685 C   0  0  0  0  0  0  0  0  0  0  0  0
    2.3399    0.6469   -0.2219 C   0  0  0  0  0  0  0  0  0  0  0  0
    2.0767   -0.3563    0.8826 C   0  0  0  0  0  0  0  0  0  0  0  0
    0.7233   -0.9358    0.5409 C   0  0  0  0  0  0  0  0  0  0  0  0
    0.5525   -1.3275   -0.8782 C   0  0  0  0  0  0  0  0  0  0  0  0
   -1.3088    0.5303    1.8373 H   0  0  0  0  0  0  0  0  0  0  0  0
   -1.3237    2.0765    0.8286 H   0  0  0  0  0  0  0  0  0  0  0  0
   -2.8379    1.1518    1.0016 H   0  0  0  0  0  0  0  0  0  0  0  0
   -1.6565    0.9493   -1.1818 H   0  0  0  0  0  0  0  0  0  0  0  0
   -1.9240   -1.8136    0.0813 H   0  0  0  0  0  0  0  0  0  0  0  0
   -3.2957   -0.6713   -0.0211 H   0  0  0  0  0  0  0  0  0  0  0  0
   -2.5067   -1.1405   -1.5378 H   0  0  0  0  0  0  0  0  0  0  0  0
    0.6763    1.7991    0.4418 H   0  0  0  0  0  0  0  0  0  0  0  0
    0.8943    1.7484   -1.3965 H   0  0  0  0  0  0  0  0  0  0  0  0
    2.9507    1.5000    0.1054 H   0  0  0  0  0  0  0  0  0  0  0  0
    2.7269    0.1922   -1.1402 H   0  0  0  0  0  0  0  0  0  0  0  0
    2.8546   -1.1401    0.8044 H   0  0  0  0  0  0  0  0  0  0  0  0
    2.0541    0.1473    1.8604 H   0  0  0  0  0  0  0  0  0  0  0  0
    0.1903   -1.4193    1.3629 H   0  0  0  0  0  0  0  0  0  0  0  0
    1.4197   -1.3199   -1.5655 H   0  0  0  0  0  0  0  0  0  0  0  0
   -0.1493   -2.1530   -1.0783 H   0  0  0  0  0  0  0  0  0  0  0  0
  1  2  1  0
  2  3  1  0
  2  4  1  0
  4  5  1  0
  5  6  1  0
  6  7  1  0
  7  8  1  0
  8  9  1  0
  8  4  1  0
  9  4  1  0
  1 10  1  0
  1 11  1  0
  1 12  1  0
  2 13  1  0
  3 14  1  0
  3 15  1  0
  3 16  1  0
  5 17  1  0
  5 18  1  0
  6 19  1  0
  6 20  1  0
  7 21  1  0
  7 22  1  0
  8 23  1  0
  9 24  1  0
  9 25  1  0
M  END
