
     RDKit          3D

 18 17  0  0  0  0  0  0  0  0999 V2000
   -2.0490    1.1295    0.2934 C   0  0  0  0  0  0  0  0  0  0  0  0
   -0.9419    0.1002    0.1492 C   0  0  0  0  0  0  0  0  0  0  0  0
   -1.6084   -1.1921   -0.1739 C   0  0  0  0  0  0  0  0  0  0  0  0
   -2.4570   -1.6683    0.5703 O   0  0  0  0  0  0  0  0  0  0  0  0
   -0.0511    0.3916   -0.8385 O   0  0  0  0  0  0  0  0  0  0  0  0
    1.2583    0.5018   -0.4879 C   0  0  0  0  0  0  0  0  0  0  0  0
    1.8228   -0.7661    0.1156 C   0  0  0  0  0  0  0  0  0  0  0  0
    3.1744   -0.5492    0.4418 O   0  0  0  0  0  0  0  0  0  0  0  0
   -2.8058    1.0107   -0.5197 H   0  0  0  0  0  0  0  0  0  0  0  0
   -1.6662    2.1487    0.3803 H   0  0  0  0  0  0  0  0  0  0  0  0
   -2.5845    0.8922    1.2368 H   0  0  0  0  0  0  0  0  0  0  0  0
   -0.4623   -0.0140    1.1638 H   0  0  0  0  0  0  0  0  0  0  0  0
   -1.3544   -1.7269   -1.0663 H   0  0  0  0  0  0  0  0  0  0  0  0
    1.4825    1.3175    0.2256 H   0  0  0  0  0  0  0  0  0  0  0  0
    1.8435    0.6775   -1.4288 H   0  0  0  0  0  0  0  0  0  0  0  0
    1.3030   -1.0198    1.0583 H   0  0  0  0  0  0  0  0  0  0  0  0
    1.7313   -1.6363   -0.5481 H   0  0  0  0  0  0  0  0  0  0  0  0
    3.3647    0.4030    0.6035 H   0  0  0  0  0  0  0  0  0  0  0  0
  1  2  1  0
  2  3  1  0
  3  4  2  0
  2  5  1  0
  5  6  1  0
  6  7  1  0
  7  8  1  0
  1  9  1  0
  1 10  1  0
  1 11  1  0
  2 12  1  0
  3 13  1  0
  6 14  1  0
  6 15  1  0
  7 16  1  0
  7 17  1  0
  8 18  1  0
M  END
