
     RDKit          3D

 25 24  0  0  0  0  0  0  0  0999 V2000
   -1.1353    1.6996   -0.8209 C   0  0  0  0  0  0  0  0  0  0  0  0
   -1.0357    0.2538   -0.6431 C   0  0  0  0  0  0  0  0  0  0  0  0
   -1.9006   -0.0994    0.5972 C   0  0  0  0  0  0  0  0  0  0  0  0
    0.2053   -0.4934   -0.6499 C   0  0  0  0  0  0  0  0  0  0  0  0
   -0.2356   -1.9966   -0.4614 C   0  0  0  0  0  0  0  0  0  0  0  0
    0.9320   -2.7604   -0.4632 O   0  0  0  0  0  0  0  0  0  0  0  0
    1.3192   -0.3110    0.2693 C   0  0  0  0  0  0  0  0  0  0  0  0
    1.9928    1.0226    0.3057 C   0  0  0  0  0  0  0  0  0  0  0  0
    1.2648    2.0962    0.6866 O   0  0  0  0  0  0  0  0  0  0  0  0
   -2.0730    1.9545   -1.4421 H   0  0  0  0  0  0  0  0  0  0  0  0
   -0.3403    2.1699   -1.4352 H   0  0  0  0  0  0  0  0  0  0  0  0
   -1.2952    2.3396    0.0615 H   0  0  0  0  0  0  0  0  0  0  0  0
   -1.6887   -0.2085   -1.4657 H   0  0  0  0  0  0  0  0  0  0  0  0
   -2.7017    0.6618    0.6926 H   0  0  0  0  0  0  0  0  0  0  0  0
   -1.2912   -0.0447    1.5139 H   0  0  0  0  0  0  0  0  0  0  0  0
   -2.4184   -1.0687    0.4624 H   0  0  0  0  0  0  0  0  0  0  0  0
    0.6439   -0.5527   -1.6983 H   0  0  0  0  0  0  0  0  0  0  0  0
   -0.8437   -2.3164   -1.3031 H   0  0  0  0  0  0  0  0  0  0  0  0
   -0.6796   -2.1161    0.5408 H   0  0  0  0  0  0  0  0  0  0  0  0
    0.9025   -3.4735    0.2315 H   0  0  0  0  0  0  0  0  0  0  0  0
    1.1669   -0.7343    1.2974 H   0  0  0  0  0  0  0  0  0  0  0  0
    2.1573   -1.0005   -0.1009 H   0  0  0  0  0  0  0  0  0  0  0  0
    2.3640    1.2384   -0.7467 H   0  0  0  0  0  0  0  0  0  0  0  0
    2.9672    0.9728    0.8847 H   0  0  0  0  0  0  0  0  0  0  0  0
    1.7231    2.7670    1.2220 H   0  0  0  0  0  0  0  0  0  0  0  0
  1  2  1  0
  2  3  1  0
  2  4  1  0
  4  5  1  0
  5  6  1  0
  4  7  1  0
  7  8  1  0
  8  9  1  0
  1 10  1  0
  1 11  1  0
  1 12  1  0
  2 13  1  0
  3 14  1  0
  3 15  1  0
  3 16  1  0
  4 17  1  0
  5 18  1  0
  5 19  1  0
  6 20  1  0
  7 21  1  0
  7 22  1  0
  8 23  1  0
  8 24  1  0
  9 25  1  0
M  END
