
     RDKit          3D

 21 20  0  0  0  0  0  0  0  0999 V2000
   -1.5907    0.8245    1.1184 C   0  0  0  0  0  0  0  0  0  0  0  0
   -0.7869    0.0418    0.0767 C   0  0  0  0  0  0  0  0  0  0  0  0
   -1.0779    0.6860   -1.2595 C   0  0  0  0  0  0  0  0  0  0  0  0
   -1.3304   -1.3335    0.0779 C   0  0  0  0  0  0  0  0  0  0  0  0
   -0.8760   -2.2871    0.6449 O   0  0  0  0  0  0  0  0  0  0  0  0
    0.6566    0.1510    0.4581 C   0  0  0  0  0  0  0  0  0  0  0  0
    1.5845   -0.5649   -0.4604 C   0  0  0  0  0  0  0  0  0  0  0  0
    2.9671   -0.3636    0.0483 C   0  0  0  0  0  0  0  0  0  0  0  0
    3.3933    0.7716    0.2171 O   0  0  0  0  0  0  0  0  0  0  0  0
   -1.8743    0.1168    1.9524 H   0  0  0  0  0  0  0  0  0  0  0  0
   -0.9556    1.6305    1.5368 H   0  0  0  0  0  0  0  0  0  0  0  0
   -2.5242    1.2236    0.7191 H   0  0  0  0  0  0  0  0  0  0  0  0
   -1.3378   -0.0864   -2.0282 H   0  0  0  0  0  0  0  0  0  0  0  0
   -0.2201    1.2551   -1.6535 H   0  0  0  0  0  0  0  0  0  0  0  0
   -1.9493    1.3675   -1.2131 H   0  0  0  0  0  0  0  0  0  0  0  0
   -2.2413   -1.4931   -0.5049 H   0  0  0  0  0  0  0  0  0  0  0  0
    0.9190    1.2035    0.5223 H   0  0  0  0  0  0  0  0  0  0  0  0
    0.7445   -0.2411    1.5142 H   0  0  0  0  0  0  0  0  0  0  0  0
    1.5065   -0.0700   -1.4536 H   0  0  0  0  0  0  0  0  0  0  0  0
    1.3453   -1.6298   -0.6057 H   0  0  0  0  0  0  0  0  0  0  0  0
    3.6478   -1.2025    0.2927 H   0  0  0  0  0  0  0  0  0  0  0  0
  1  2  1  0
  2  3  1  0
  2  4  1  0
  4  5  2  0
  2  6  1  0
  6  7  1  0
  7  8  1  0
  8  9  2  0
  1 10  1  0
  1 11  1  0
  1 12  1  0
  3 13  1  0
  3 14  1  0
  3 15  1  0
  4 16  1  0
  6 17  1  0
  6 18  1  0
  7 19  1  0
  7 20  1  0
  8 21  1  0
M  END
