
     RDKit          3D

 21 21  0  0  0  0  0  0  0  0999 V2000
    1.6506    0.6855    0.9072 C   0  0  0  0  0  0  0  0  0  0  0  0
    0.8906   -0.2966    0.0779 C   0  0  0  0  0  0  0  0  0  0  0  0
    1.3445   -0.3436   -1.3664 C   0  0  0  0  0  0  0  0  0  0  0  0
   -0.6091   -0.1398    0.1798 C   0  0  0  0  0  0  0  0  0  0  0  0
   -1.2032   -0.3044    1.5620 C   0  0  0  0  0  0  0  0  0  0  0  0
   -1.4931   -0.5713   -0.9449 C   0  0  0  0  0  0  0  0  0  0  0  0
   -1.2838    0.8812   -0.6816 C   0  0  0  0  0  0  0  0  0  0  0  0
    1.9257    0.2690    1.9064 H   0  0  0  0  0  0  0  0  0  0  0  0
    2.6167    0.8919    0.3874 H   0  0  0  0  0  0  0  0  0  0  0  0
    1.0900    1.6183    1.1191 H   0  0  0  0  0  0  0  0  0  0  0  0
    1.1225   -1.3212    0.4926 H   0  0  0  0  0  0  0  0  0  0  0  0
    0.9321   -1.2638   -1.8329 H   0  0  0  0  0  0  0  0  0  0  0  0
    1.0563    0.5303   -1.9469 H   0  0  0  0  0  0  0  0  0  0  0  0
    2.4676   -0.4513   -1.3239 H   0  0  0  0  0  0  0  0  0  0  0  0
   -0.5555    0.0718    2.3565 H   0  0  0  0  0  0  0  0  0  0  0  0
   -2.2011    0.1982    1.6505 H   0  0  0  0  0  0  0  0  0  0  0  0
   -1.3355   -1.4082    1.7176 H   0  0  0  0  0  0  0  0  0  0  0  0
   -2.5190   -0.9493   -0.7018 H   0  0  0  0  0  0  0  0  0  0  0  0
   -1.0924   -1.0165   -1.8635 H   0  0  0  0  0  0  0  0  0  0  0  0
   -0.7153    1.4214   -1.4682 H   0  0  0  0  0  0  0  0  0  0  0  0
   -2.0887    1.4984   -0.2270 H   0  0  0  0  0  0  0  0  0  0  0  0
  1  2  1  0
  2  3  1  0
  2  4  1  0
  4  5  1  0
  4  6  1  0
  6  7  1  0
  7  4  1  0
  1  8  1  0
  1  9  1  0
  1 10  1  0
  2 11  1  0
  3 12  1  0
  3 13  1  0
  3 14  1  0
  5 15  1  0
  5 16  1  0
  5 17  1  0
  6 18  1  0
  6 19  1  0
  7 20  1  0
  7 21  1  0
M  END
