
     RDKit          3D

 16 15  0  0  0  0  0  0  0  0999 V2000
   -0.9531   -1.3211    0.9628 C   0  0  0  0  0  0  0  0  0  0  0  0
   -0.7214    0.0109    0.2370 C   0  0  0  0  0  0  0  0  0  0  0  0
   -1.4018   -0.0179   -1.1171 C   0  0  0  0  0  0  0  0  0  0  0  0
   -1.1740    1.0789    1.0013 O   0  0  0  0  0  0  0  0  0  0  0  0
    0.7209    0.1883    0.0529 C   0  0  0  0  0  0  0  0  0  0  0  0
    1.9222    0.3568   -0.0965 C   0  0  0  0  0  0  0  0  0  0  0  0
    3.3360    0.5496   -0.2723 C   0  0  0  0  0  0  0  0  0  0  0  0
    4.1660   -0.3208    0.0996 O   0  0  0  0  0  0  0  0  0  0  0  0
   -0.6889   -2.1111    0.2268 H   0  0  0  0  0  0  0  0  0  0  0  0
   -1.9974   -1.3950    1.3231 H   0  0  0  0  0  0  0  0  0  0  0  0
   -0.2742   -1.3614    1.8379 H   0  0  0  0  0  0  0  0  0  0  0  0
   -0.6536   -0.4246   -1.8334 H   0  0  0  0  0  0  0  0  0  0  0  0
   -1.5582    1.0470   -1.4075 H   0  0  0  0  0  0  0  0  0  0  0  0
   -2.3319   -0.6081   -1.1104 H   0  0  0  0  0  0  0  0  0  0  0  0
   -2.1316    1.2649    0.8236 H   0  0  0  0  0  0  0  0  0  0  0  0
    3.7411    1.4433   -0.7276 H   0  0  0  0  0  0  0  0  0  0  0  0
  1  2  1  0
  2  3  1  0
  2  4  1  0
  2  5  1  0
  5  6  3  0
  6  7  1  0
  7  8  2  0
  1  9  1  0
  1 10  1  0
  1 11  1  0
  3 12  1  0
  3 13  1  0
  3 14  1  0
  4 15  1  0
  7 16  1  0
M  END
