
     RDKit          3D

 27 26  0  0  0  0  0  0  0  0999 V2000
    2.4154    0.6837   -0.2529 C   0  0  0  0  0  0  0  0  0  0  0  0
    1.0834   -0.0042    0.1205 C   0  0  0  0  0  0  0  0  0  0  0  0
    1.0956   -0.1556    1.5904 C   0  0  0  0  0  0  0  0  0  0  0  0
    1.2316   -1.3855   -0.4988 C   0  0  0  0  0  0  0  0  0  0  0  0
    0.0178    0.7512   -0.5173 C   0  0  0  0  0  0  0  0  0  0  0  0
   -1.3921    0.3564   -0.3637 C   0  0  0  0  0  0  0  0  0  0  0  0
   -1.9151    0.3429    1.0438 C   0  0  0  0  0  0  0  0  0  0  0  0
   -1.7964   -0.8741   -1.1418 C   0  0  0  0  0  0  0  0  0  0  0  0
   -2.1391    1.4162   -0.9580 O   0  0  0  0  0  0  0  0  0  0  0  0
    2.4722    1.6937    0.1810 H   0  0  0  0  0  0  0  0  0  0  0  0
    2.3747    0.8195   -1.3572 H   0  0  0  0  0  0  0  0  0  0  0  0
    3.2758    0.0383    0.0191 H   0  0  0  0  0  0  0  0  0  0  0  0
    2.1260   -0.4491    1.9566 H   0  0  0  0  0  0  0  0  0  0  0  0
    0.4212   -0.8776    2.0289 H   0  0  0  0  0  0  0  0  0  0  0  0
    0.9072    0.8158    2.1215 H   0  0  0  0  0  0  0  0  0  0  0  0
    0.4103   -2.0361   -0.2019 H   0  0  0  0  0  0  0  0  0  0  0  0
    2.1737   -1.8778   -0.1163 H   0  0  0  0  0  0  0  0  0  0  0  0
    1.2840   -1.3018   -1.6051 H   0  0  0  0  0  0  0  0  0  0  0  0
    0.0709    1.8492   -0.2403 H   0  0  0  0  0  0  0  0  0  0  0  0
    0.2313    0.7716   -1.6285 H   0  0  0  0  0  0  0  0  0  0  0  0
   -1.4433    1.0323    1.7240 H   0  0  0  0  0  0  0  0  0  0  0  0
   -3.0201    0.5835    1.0645 H   0  0  0  0  0  0  0  0  0  0  0  0
   -1.8800   -0.7344    1.3785 H   0  0  0  0  0  0  0  0  0  0  0  0
   -2.7838   -0.7519   -1.6481 H   0  0  0  0  0  0  0  0  0  0  0  0
   -1.9628   -1.7396   -0.4375 H   0  0  0  0  0  0  0  0  0  0  0  0
   -1.0856   -1.1296   -1.9503 H   0  0  0  0  0  0  0  0  0  0  0  0
   -2.1728    2.1633   -0.3110 H   0  0  0  0  0  0  0  0  0  0  0  0
  1  2  1  0
  2  3  1  0
  2  4  1  0
  2  5  1  0
  5  6  1  0
  6  7  1  0
  6  8  1  0
  6  9  1  0
  1 10  1  0
  1 11  1  0
  1 12  1  0
  3 13  1  0
  3 14  1  0
  3 15  1  0
  4 16  1  0
  4 17  1  0
  4 18  1  0
  5 19  1  0
  5 20  1  0
  7 21  1  0
  7 22  1  0
  7 23  1  0
  8 24  1  0
  8 25  1  0
  8 26  1  0
  9 27  1  0
M  END
