
     RDKit          3D

 27 27  0  0  0  0  0  0  0  0999 V2000
   -2.4602    0.7342    0.0037 C   0  0  0  0  0  0  0  0  0  0  0  0
   -1.3900   -0.1895   -0.5421 C   0  0  0  0  0  0  0  0  0  0  0  0
   -2.0841   -1.5167   -0.7956 C   0  0  0  0  0  0  0  0  0  0  0  0
   -0.2696   -0.3715    0.4352 C   0  0  0  0  0  0  0  0  0  0  0  0
    0.8133   -1.2918   -0.0880 C   0  0  0  0  0  0  0  0  0  0  0  0
    1.6924   -0.0748   -0.2635 C   0  0  0  0  0  0  0  0  0  0  0  0
    3.0615   -0.2908    0.3226 C   0  0  0  0  0  0  0  0  0  0  0  0
    0.7256    0.6820    0.6097 C   0  0  0  0  0  0  0  0  0  0  0  0
    0.4908    2.0504    0.1065 C   0  0  0  0  0  0  0  0  0  0  0  0
   -3.0516    0.1850    0.7922 H   0  0  0  0  0  0  0  0  0  0  0  0
   -2.0693    1.6747    0.3981 H   0  0  0  0  0  0  0  0  0  0  0  0
   -3.1796    0.9005   -0.8435 H   0  0  0  0  0  0  0  0  0  0  0  0
   -1.0442    0.2452   -1.4985 H   0  0  0  0  0  0  0  0  0  0  0  0
   -3.1914   -1.3829   -0.9229 H   0  0  0  0  0  0  0  0  0  0  0  0
   -1.9552   -2.2352    0.0182 H   0  0  0  0  0  0  0  0  0  0  0  0
   -1.7265   -1.9968   -1.7281 H   0  0  0  0  0  0  0  0  0  0  0  0
   -0.6892   -0.7441    1.4085 H   0  0  0  0  0  0  0  0  0  0  0  0
    0.6046   -1.7604   -1.0606 H   0  0  0  0  0  0  0  0  0  0  0  0
    1.1921   -1.9578    0.7102 H   0  0  0  0  0  0  0  0  0  0  0  0
    1.6849    0.3239   -1.2995 H   0  0  0  0  0  0  0  0  0  0  0  0
    2.9871   -0.8664    1.2462 H   0  0  0  0  0  0  0  0  0  0  0  0
    3.5988    0.6604    0.5078 H   0  0  0  0  0  0  0  0  0  0  0  0
    3.6520   -0.8650   -0.4192 H   0  0  0  0  0  0  0  0  0  0  0  0
    1.1340    0.7107    1.6552 H   0  0  0  0  0  0  0  0  0  0  0  0
   -0.0571    2.1245   -0.8296 H   0  0  0  0  0  0  0  0  0  0  0  0
    1.5004    2.5224   -0.0855 H   0  0  0  0  0  0  0  0  0  0  0  0
    0.0308    2.7298    0.8821 H   0  0  0  0  0  0  0  0  0  0  0  0
  1  2  1  0
  2  3  1  0
  2  4  1  0
  4  5  1  0
  5  6  1  0
  6  7  1  0
  6  8  1  0
  8  9  1  0
  8  4  1  0
  1 10  1  0
  1 11  1  0
  1 12  1  0
  2 13  1  0
  3 14  1  0
  3 15  1  0
  3 16  1  0
  4 17  1  0
  5 18  1  0
  5 19  1  0
  6 20  1  0
  7 21  1  0
  7 22  1  0
  7 23  1  0
  8 24  1  0
  9 25  1  0
  9 26  1  0
  9 27  1  0
M  END
