
     RDKit          3D

 20 20  0  0  0  0  0  0  0  0999 V2000
    1.7068   -0.9860   -0.3011 C   0  0  0  0  0  0  0  0  0  0  0  0
    0.8684    0.2290   -0.5092 C   0  0  0  0  0  0  0  0  0  0  0  0
    1.3394    1.3841    0.3274 C   0  0  0  0  0  0  0  0  0  0  0  0
    1.9792    1.2156    1.3542 O   0  0  0  0  0  0  0  0  0  0  0  0
   -0.5837    0.0212   -0.1858 C   0  0  0  0  0  0  0  0  0  0  0  0
   -1.4287    1.2790   -0.4053 C   0  0  0  0  0  0  0  0  0  0  0  0
   -0.8667   -0.7213    1.1195 C   0  0  0  0  0  0  0  0  0  0  0  0
   -1.2403   -1.2781   -0.2222 C   0  0  0  0  0  0  0  0  0  0  0  0
    2.4588   -0.7399    0.5019 H   0  0  0  0  0  0  0  0  0  0  0  0
    1.1346   -1.8476    0.1043 H   0  0  0  0  0  0  0  0  0  0  0  0
    2.2491   -1.2694   -1.2152 H   0  0  0  0  0  0  0  0  0  0  0  0
    0.9761    0.5507   -1.5655 H   0  0  0  0  0  0  0  0  0  0  0  0
    1.1000    2.3969    0.0033 H   0  0  0  0  0  0  0  0  0  0  0  0
   -1.2828    2.0067    0.4122 H   0  0  0  0  0  0  0  0  0  0  0  0
   -2.5046    1.0280   -0.5243 H   0  0  0  0  0  0  0  0  0  0  0  0
   -1.0799    1.7048   -1.3706 H   0  0  0  0  0  0  0  0  0  0  0  0
   -0.0257   -1.1989    1.6516 H   0  0  0  0  0  0  0  0  0  0  0  0
   -1.6790   -0.2869    1.7660 H   0  0  0  0  0  0  0  0  0  0  0  0
   -2.3503   -1.2739   -0.4153 H   0  0  0  0  0  0  0  0  0  0  0  0
   -0.7705   -2.2138   -0.5256 H   0  0  0  0  0  0  0  0  0  0  0  0
  1  2  1  0
  2  3  1  0
  3  4  2  0
  2  5  1  0
  5  6  1  0
  5  7  1  0
  7  8  1  0
  8  5  1  0
  1  9  1  0
  1 10  1  0
  1 11  1  0
  2 12  1  0
  3 13  1  0
  6 14  1  0
  6 15  1  0
  6 16  1  0
  7 17  1  0
  7 18  1  0
  8 19  1  0
  8 20  1  0
M  END
