
     RDKit          3D

 21 22  0  0  0  0  0  0  0  0999 V2000
   -1.3643    1.2172    0.3777 C   0  0  0  0  0  0  0  0  0  0  0  0
   -1.2948   -0.3023    0.1761 C   0  0  0  0  0  0  0  0  0  0  0  0
   -1.9736   -0.5765   -1.1516 C   0  0  0  0  0  0  0  0  0  0  0  0
    0.1583   -0.6569    0.0711 C   0  0  0  0  0  0  0  0  0  0  0  0
    0.9839   -0.0689   -1.0076 C   0  0  0  0  0  0  0  0  0  0  0  0
    2.1666    0.3066   -0.5589 C   0  0  0  0  0  0  0  0  0  0  0  0
    2.2556    0.0087    0.8696 C   0  0  0  0  0  0  0  0  0  0  0  0
    1.0523   -0.7739    1.2224 C   0  0  0  0  0  0  0  0  0  0  0  0
    0.6306   -1.8830    0.5110 O   0  0  0  0  0  0  0  0  0  0  0  0
   -0.6849    1.7178   -0.3404 H   0  0  0  0  0  0  0  0  0  0  0  0
   -1.0616    1.4817    1.4229 H   0  0  0  0  0  0  0  0  0  0  0  0
   -2.4074    1.5594    0.1633 H   0  0  0  0  0  0  0  0  0  0  0  0
   -1.8046   -0.7899    1.0194 H   0  0  0  0  0  0  0  0  0  0  0  0
   -1.3681   -0.0602   -1.9266 H   0  0  0  0  0  0  0  0  0  0  0  0
   -2.9790   -0.0998   -1.1761 H   0  0  0  0  0  0  0  0  0  0  0  0
   -2.0276   -1.6721   -1.3198 H   0  0  0  0  0  0  0  0  0  0  0  0
    0.6682    0.0434   -2.0344 H   0  0  0  0  0  0  0  0  0  0  0  0
    2.9681    0.7765   -1.1770 H   0  0  0  0  0  0  0  0  0  0  0  0
    2.1748    0.9937    1.4225 H   0  0  0  0  0  0  0  0  0  0  0  0
    3.2156   -0.4753    1.1631 H   0  0  0  0  0  0  0  0  0  0  0  0
    0.6922   -0.7463    2.2733 H   0  0  0  0  0  0  0  0  0  0  0  0
  1  2  1  0
  2  3  1  0
  2  4  1  0
  4  5  1  0
  5  6  2  0
  6  7  1  0
  7  8  1  0
  8  9  1  0
  8  4  1  0
  9  4  1  0
  1 10  1  0
  1 11  1  0
  1 12  1  0
  2 13  1  0
  3 14  1  0
  3 15  1  0
  3 16  1  0
  5 17  1  0
  6 18  1  0
  7 19  1  0
  7 20  1  0
  8 21  1  0
M  END
