
     RDKit          3D

 22 22  0  0  0  0  0  0  0  0999 V2000
   -0.8533   -1.1791   -0.9536 C   0  0  0  0  0  0  0  0  0  0  0  0
   -0.7171   -0.6013    0.4379 C   0  0  0  0  0  0  0  0  0  0  0  0
   -2.0360   -0.0041    0.8702 C   0  0  0  0  0  0  0  0  0  0  0  0
   -3.0121   -0.9941    0.8739 O   0  0  0  0  0  0  0  0  0  0  0  0
    0.4341    0.3223    0.5943 C   0  0  0  0  0  0  0  0  0  0  0  0
    0.6039    1.5560   -0.1804 C   0  0  0  0  0  0  0  0  0  0  0  0
    1.4307    0.3903   -0.5664 C   0  0  0  0  0  0  0  0  0  0  0  0
    2.8755    0.2801   -0.1661 C   0  0  0  0  0  0  0  0  0  0  0  0
   -0.8342   -0.4000   -1.7403 H   0  0  0  0  0  0  0  0  0  0  0  0
   -1.8550   -1.6823   -1.0001 H   0  0  0  0  0  0  0  0  0  0  0  0
   -0.0344   -1.9205   -1.0713 H   0  0  0  0  0  0  0  0  0  0  0  0
   -0.5413   -1.4855    1.1190 H   0  0  0  0  0  0  0  0  0  0  0  0
   -2.3396    0.8253    0.2134 H   0  0  0  0  0  0  0  0  0  0  0  0
   -1.9203    0.3373    1.9310 H   0  0  0  0  0  0  0  0  0  0  0  0
   -3.8886   -0.6850    0.5886 H   0  0  0  0  0  0  0  0  0  0  0  0
    0.8751    0.3460    1.6304 H   0  0  0  0  0  0  0  0  0  0  0  0
    1.1050    2.4373    0.2815 H   0  0  0  0  0  0  0  0  0  0  0  0
   -0.1626    1.8851   -0.9349 H   0  0  0  0  0  0  0  0  0  0  0  0
    1.1800   -0.1406   -1.5033 H   0  0  0  0  0  0  0  0  0  0  0  0
    3.0225    0.8175    0.7986 H   0  0  0  0  0  0  0  0  0  0  0  0
    3.5696    0.7129   -0.9049 H   0  0  0  0  0  0  0  0  0  0  0  0
    3.0982   -0.8177   -0.0471 H   0  0  0  0  0  0  0  0  0  0  0  0
  1  2  1  0
  2  3  1  0
  3  4  1  0
  2  5  1  0
  5  6  1  0
  6  7  1  0
  7  8  1  0
  7  5  1  0
  1  9  1  0
  1 10  1  0
  1 11  1  0
  2 12  1  0
  3 13  1  0
  3 14  1  0
  4 15  1  0
  5 16  1  0
  6 17  1  0
  6 18  1  0
  7 19  1  0
  8 20  1  0
  8 21  1  0
  8 22  1  0
M  END
