
     RDKit          3D

 23 23  0  0  0  0  0  0  0  0999 V2000
    1.0191    1.1818   -1.7068 C   0  0  0  0  0  0  0  0  0  0  0  0
    0.9213    0.0561   -0.6277 C   0  0  0  0  0  0  0  0  0  0  0  0
    1.4578    0.6326    0.6323 C   0  0  0  0  0  0  0  0  0  0  0  0
    1.4514   -0.2651    1.7816 C   0  0  0  0  0  0  0  0  0  0  0  0
    0.8234   -0.0799    2.8155 O   0  0  0  0  0  0  0  0  0  0  0  0
   -0.4263   -0.5287   -0.6360 C   0  0  0  0  0  0  0  0  0  0  0  0
   -1.5725    0.4147   -0.3135 C   0  0  0  0  0  0  0  0  0  0  0  0
   -2.0965   -0.5681    0.7474 C   0  0  0  0  0  0  0  0  0  0  0  0
   -0.9339   -1.4843    0.3360 C   0  0  0  0  0  0  0  0  0  0  0  0
    0.3450    0.9675   -2.5385 H   0  0  0  0  0  0  0  0  0  0  0  0
    2.0519    1.2169   -2.1072 H   0  0  0  0  0  0  0  0  0  0  0  0
    0.8344    2.1697   -1.2263 H   0  0  0  0  0  0  0  0  0  0  0  0
    1.6571   -0.6971   -0.9883 H   0  0  0  0  0  0  0  0  0  0  0  0
    2.5564    0.8352    0.4136 H   0  0  0  0  0  0  0  0  0  0  0  0
    1.0808    1.6563    0.8577 H   0  0  0  0  0  0  0  0  0  0  0  0
    2.0427   -1.1726    1.7375 H   0  0  0  0  0  0  0  0  0  0  0  0
   -0.6546   -0.9276   -1.6937 H   0  0  0  0  0  0  0  0  0  0  0  0
   -2.3130    0.5907   -1.0982 H   0  0  0  0  0  0  0  0  0  0  0  0
   -1.2733    1.3485    0.1995 H   0  0  0  0  0  0  0  0  0  0  0  0
   -3.0956   -0.9348    0.5204 H   0  0  0  0  0  0  0  0  0  0  0  0
   -2.0444   -0.2005    1.7814 H   0  0  0  0  0  0  0  0  0  0  0  0
   -0.4048   -1.7964    1.2203 H   0  0  0  0  0  0  0  0  0  0  0  0
   -1.4264   -2.4149   -0.1072 H   0  0  0  0  0  0  0  0  0  0  0  0
  1  2  1  0
  2  3  1  0
  3  4  1  0
  4  5  2  0
  2  6  1  0
  6  7  1  0
  7  8  1  0
  8  9  1  0
  9  6  1  0
  1 10  1  0
  1 11  1  0
  1 12  1  0
  2 13  1  0
  3 14  1  0
  3 15  1  0
  4 16  1  0
  6 17  1  0
  7 18  1  0
  7 19  1  0
  8 20  1  0
  8 21  1  0
  9 22  1  0
  9 23  1  0
M  END
