
     RDKit          3D

 29 28  0  0  0  0  0  0  0  0999 V2000
    2.0596   -0.1740   -1.1305 C   0  0  0  0  0  0  0  0  0  0  0  0
    1.3646    0.6486   -0.0718 C   0  0  0  0  0  0  0  0  0  0  0  0
    2.5119    1.3050    0.7247 C   0  0  0  0  0  0  0  0  0  0  0  0
    0.5595   -0.0943    0.8967 C   0  0  0  0  0  0  0  0  0  0  0  0
   -0.5795   -0.9193    0.4734 C   0  0  0  0  0  0  0  0  0  0  0  0
   -0.2871   -2.0399   -0.4707 C   0  0  0  0  0  0  0  0  0  0  0  0
   -1.7999   -0.1955   -0.0099 C   0  0  0  0  0  0  0  0  0  0  0  0
   -1.6053    0.6804   -1.1899 C   0  0  0  0  0  0  0  0  0  0  0  0
   -2.4948    0.5762    1.1004 C   0  0  0  0  0  0  0  0  0  0  0  0
    2.4685   -1.1269   -0.7306 H   0  0  0  0  0  0  0  0  0  0  0  0
    2.9516    0.4347   -1.4701 H   0  0  0  0  0  0  0  0  0  0  0  0
    1.4604   -0.3047   -2.0518 H   0  0  0  0  0  0  0  0  0  0  0  0
    0.8677    1.4967   -0.5772 H   0  0  0  0  0  0  0  0  0  0  0  0
    3.0976    0.4313    1.1260 H   0  0  0  0  0  0  0  0  0  0  0  0
    2.1330    1.8928    1.5598 H   0  0  0  0  0  0  0  0  0  0  0  0
    3.1332    1.9237    0.0622 H   0  0  0  0  0  0  0  0  0  0  0  0
    0.1956    0.6182    1.6765 H   0  0  0  0  0  0  0  0  0  0  0  0
    1.2610   -0.7725    1.4733 H   0  0  0  0  0  0  0  0  0  0  0  0
   -0.9334   -1.4356    1.4265 H   0  0  0  0  0  0  0  0  0  0  0  0
   -0.3633   -1.7575   -1.5384 H   0  0  0  0  0  0  0  0  0  0  0  0
   -1.1115   -2.8035   -0.3320 H   0  0  0  0  0  0  0  0  0  0  0  0
    0.6350   -2.5756   -0.2060 H   0  0  0  0  0  0  0  0  0  0  0  0
   -2.5271   -0.9937   -0.3101 H   0  0  0  0  0  0  0  0  0  0  0  0
   -0.8295    0.3840   -1.8930 H   0  0  0  0  0  0  0  0  0  0  0  0
   -2.5616    0.6988   -1.7960 H   0  0  0  0  0  0  0  0  0  0  0  0
   -1.5019    1.7493   -0.8464 H   0  0  0  0  0  0  0  0  0  0  0  0
   -1.8194    0.9189    1.8807 H   0  0  0  0  0  0  0  0  0  0  0  0
   -2.9946    1.4643    0.6371 H   0  0  0  0  0  0  0  0  0  0  0  0
   -3.2903   -0.0301    1.5872 H   0  0  0  0  0  0  0  0  0  0  0  0
  1  2  1  0
  2  3  1  0
  2  4  1  0
  4  5  1  0
  5  6  1  0
  5  7  1  0
  7  8  1  0
  7  9  1  0
  1 10  1  0
  1 11  1  0
  1 12  1  0
  2 13  1  0
  3 14  1  0
  3 15  1  0
  3 16  1  0
  4 17  1  0
  4 18  1  0
  5 19  1  0
  6 20  1  0
  6 21  1  0
  6 22  1  0
  7 23  1  0
  8 24  1  0
  8 25  1  0
  8 26  1  0
  9 27  1  0
  9 28  1  0
  9 29  1  0
M  END
