
     RDKit          3D

 27 26  0  0  0  0  0  0  0  0999 V2000
    1.7587   -1.0877    0.9688 C   0  0  0  0  0  0  0  0  0  0  0  0
    1.2772   -0.1391   -0.0915 C   0  0  0  0  0  0  0  0  0  0  0  0
    2.1422    1.1025    0.0224 C   0  0  0  0  0  0  0  0  0  0  0  0
   -0.1812    0.1627   -0.0584 C   0  0  0  0  0  0  0  0  0  0  0  0
   -0.6249    0.7929    1.2439 C   0  0  0  0  0  0  0  0  0  0  0  0
   -0.4253    1.2328   -1.1384 C   0  0  0  0  0  0  0  0  0  0  0  0
   -1.0974   -0.9530   -0.3794 C   0  0  0  0  0  0  0  0  0  0  0  0
   -2.5603   -0.5598   -0.3225 C   0  0  0  0  0  0  0  0  0  0  0  0
   -0.9135   -1.5514   -1.6064 O   0  0  0  0  0  0  0  0  0  0  0  0
    1.5289   -0.7520    1.9974 H   0  0  0  0  0  0  0  0  0  0  0  0
    1.4513   -2.1417    0.7820 H   0  0  0  0  0  0  0  0  0  0  0  0
    2.8695   -1.1073    0.9043 H   0  0  0  0  0  0  0  0  0  0  0  0
    1.5652   -0.6021   -1.0611 H   0  0  0  0  0  0  0  0  0  0  0  0
    1.9665    1.6747    0.9354 H   0  0  0  0  0  0  0  0  0  0  0  0
    3.2009    0.7118    0.1058 H   0  0  0  0  0  0  0  0  0  0  0  0
    2.1353    1.7039   -0.9033 H   0  0  0  0  0  0  0  0  0  0  0  0
   -1.4139    1.5563    1.0964 H   0  0  0  0  0  0  0  0  0  0  0  0
   -1.0963    0.0205    1.9208 H   0  0  0  0  0  0  0  0  0  0  0  0
    0.1769    1.2483    1.8161 H   0  0  0  0  0  0  0  0  0  0  0  0
    0.0096    0.8545   -2.0706 H   0  0  0  0  0  0  0  0  0  0  0  0
   -1.4849    1.5056   -1.1976 H   0  0  0  0  0  0  0  0  0  0  0  0
    0.1438    2.1422   -0.8486 H   0  0  0  0  0  0  0  0  0  0  0  0
   -0.9844   -1.7739    0.3905 H   0  0  0  0  0  0  0  0  0  0  0  0
   -2.8061    0.0537    0.5594 H   0  0  0  0  0  0  0  0  0  0  0  0
   -2.8879   -0.0999   -1.2778 H   0  0  0  0  0  0  0  0  0  0  0  0
   -3.1357   -1.5056   -0.2278 H   0  0  0  0  0  0  0  0  0  0  0  0
   -0.6140   -2.4888   -1.5597 H   0  0  0  0  0  0  0  0  0  0  0  0
  1  2  1  0
  2  3  1  0
  2  4  1  0
  4  5  1  0
  4  6  1  0
  4  7  1  0
  7  8  1  0
  7  9  1  0
  1 10  1  0
  1 11  1  0
  1 12  1  0
  2 13  1  0
  3 14  1  0
  3 15  1  0
  3 16  1  0
  5 17  1  0
  5 18  1  0
  5 19  1  0
  6 20  1  0
  6 21  1  0
  6 22  1  0
  7 23  1  0
  8 24  1  0
  8 25  1  0
  8 26  1  0
  9 27  1  0
M  END
