
     RDKit          3D

 26 25  0  0  0  0  0  0  0  0999 V2000
   -1.3014    0.9419   -0.9725 C   0  0  0  0  0  0  0  0  0  0  0  0
   -1.0146   -0.4065   -0.4138 C   0  0  0  0  0  0  0  0  0  0  0  0
   -2.2918   -0.9119    0.2606 C   0  0  0  0  0  0  0  0  0  0  0  0
    0.0682   -0.4462    0.6152 C   0  0  0  0  0  0  0  0  0  0  0  0
   -0.2200    0.3959    1.8094 C   0  0  0  0  0  0  0  0  0  0  0  0
    1.4402   -0.1537    0.0784 C   0  0  0  0  0  0  0  0  0  0  0  0
    1.8596   -1.1448   -0.9906 C   0  0  0  0  0  0  0  0  0  0  0  0
    1.6520    1.2694   -0.3216 C   0  0  0  0  0  0  0  0  0  0  0  0
   -0.5841    1.2845   -1.7467 H   0  0  0  0  0  0  0  0  0  0  0  0
   -1.4877    1.7170   -0.1885 H   0  0  0  0  0  0  0  0  0  0  0  0
   -2.2890    0.8664   -1.5181 H   0  0  0  0  0  0  0  0  0  0  0  0
   -0.8086   -1.0960   -1.2352 H   0  0  0  0  0  0  0  0  0  0  0  0
   -2.1121   -1.8309    0.8419 H   0  0  0  0  0  0  0  0  0  0  0  0
   -3.0488   -1.0320   -0.5407 H   0  0  0  0  0  0  0  0  0  0  0  0
   -2.6700   -0.1107    0.9423 H   0  0  0  0  0  0  0  0  0  0  0  0
    0.1082   -1.5154    0.9849 H   0  0  0  0  0  0  0  0  0  0  0  0
   -0.4083    1.4477    1.6068 H   0  0  0  0  0  0  0  0  0  0  0  0
   -1.0398   -0.1027    2.3977 H   0  0  0  0  0  0  0  0  0  0  0  0
    0.6742    0.3494    2.4794 H   0  0  0  0  0  0  0  0  0  0  0  0
    2.1468   -0.3521    0.9408 H   0  0  0  0  0  0  0  0  0  0  0  0
    1.8600   -2.1424   -0.5074 H   0  0  0  0  0  0  0  0  0  0  0  0
    1.2523   -1.0827   -1.8977 H   0  0  0  0  0  0  0  0  0  0  0  0
    2.8990   -0.8675   -1.2794 H   0  0  0  0  0  0  0  0  0  0  0  0
    1.7948    1.2827   -1.4376 H   0  0  0  0  0  0  0  0  0  0  0  0
    2.6324    1.6701    0.0730 H   0  0  0  0  0  0  0  0  0  0  0  0
    0.8886    1.9704    0.0194 H   0  0  0  0  0  0  0  0  0  0  0  0
  1  2  1  0
  2  3  1  0
  2  4  1  0
  4  5  1  0
  4  6  1  0
  6  7  1  0
  6  8  1  0
  1  9  1  0
  1 10  1  0
  1 11  1  0
  2 12  1  0
  3 13  1  0
  3 14  1  0
  3 15  1  0
  4 16  1  0
  5 17  1  0
  5 18  1  0
  5 19  1  0
  6 20  1  0
  7 21  1  0
  7 22  1  0
  7 23  1  0
  8 24  1  0
  8 25  1  0
  8 26  1  0
M  END
