
     RDKit          3D

 19 18  0  0  0  0  0  0  0  0999 V2000
   -2.3521   -0.4668    0.9761 C   0  0  0  0  0  0  0  0  0  0  0  0
   -1.1861    0.4911    0.8353 C   0  0  0  0  0  0  0  0  0  0  0  0
   -0.9721    1.1448    2.1864 C   0  0  0  0  0  0  0  0  0  0  0  0
   -0.0375   -0.1688    0.4029 O   0  0  0  0  0  0  0  0  0  0  0  0
    0.3661    0.3861   -0.7858 C   0  0  0  0  0  0  0  0  0  0  0  0
    1.5713   -0.3057   -1.2394 C   0  0  0  0  0  0  0  0  0  0  0  0
    2.5618   -0.8734   -1.6290 C   0  0  0  0  0  0  0  0  0  0  0  0
    3.7254   -1.5623   -2.1076 C   0  0  0  0  0  0  0  0  0  0  0  0
    4.8685   -1.0439   -2.1819 O   0  0  0  0  0  0  0  0  0  0  0  0
   -3.0938   -0.0813    1.7295 H   0  0  0  0  0  0  0  0  0  0  0  0
   -2.0347   -1.4694    1.3443 H   0  0  0  0  0  0  0  0  0  0  0  0
   -2.8993   -0.5141    0.0128 H   0  0  0  0  0  0  0  0  0  0  0  0
   -1.4585    1.2833    0.0997 H   0  0  0  0  0  0  0  0  0  0  0  0
   -1.6486    0.7256    2.9376 H   0  0  0  0  0  0  0  0  0  0  0  0
    0.0923    1.0774    2.5048 H   0  0  0  0  0  0  0  0  0  0  0  0
   -1.2157    2.2257    2.1118 H   0  0  0  0  0  0  0  0  0  0  0  0
    0.5594    1.4730   -0.5911 H   0  0  0  0  0  0  0  0  0  0  0  0
   -0.4675    0.2684   -1.5349 H   0  0  0  0  0  0  0  0  0  0  0  0
    3.6212   -2.5896   -2.4254 H   0  0  0  0  0  0  0  0  0  0  0  0
  1  2  1  0
  2  3  1  0
  2  4  1  0
  4  5  1  0
  5  6  1  0
  6  7  3  0
  7  8  1  0
  8  9  2  0
  1 10  1  0
  1 11  1  0
  1 12  1  0
  2 13  1  0
  3 14  1  0
  3 15  1  0
  3 16  1  0
  5 17  1  0
  5 18  1  0
  8 19  1  0
M  END
