
     RDKit          3D

 23 24  0  0  0  0  0  0  0  0999 V2000
   -2.1721    0.8734    0.8908 C   0  0  0  0  0  0  0  0  0  0  0  0
   -1.4403    0.4254   -0.3694 C   0  0  0  0  0  0  0  0  0  0  0  0
   -2.0078   -0.9585   -0.7250 C   0  0  0  0  0  0  0  0  0  0  0  0
   -0.0757    0.3210   -0.1550 C   0  0  0  0  0  0  0  0  0  0  0  0
    0.6186   -0.5533    0.8217 C   0  0  0  0  0  0  0  0  0  0  0  0
    1.6674    0.2317    0.0848 C   0  0  0  0  0  0  0  0  0  0  0  0
    3.0259    0.2148    0.2943 C   0  0  0  0  0  0  0  0  0  0  0  0
    0.9351   -0.1122   -1.1833 C   0  0  0  0  0  0  0  0  0  0  0  0
    0.8071    1.3226    0.1899 O   0  0  0  0  0  0  0  0  0  0  0  0
   -3.1889    0.4229    0.9571 H   0  0  0  0  0  0  0  0  0  0  0  0
   -2.1948    1.9844    0.9461 H   0  0  0  0  0  0  0  0  0  0  0  0
   -1.6248    0.5210    1.7845 H   0  0  0  0  0  0  0  0  0  0  0  0
   -1.7227    1.1059   -1.1947 H   0  0  0  0  0  0  0  0  0  0  0  0
   -1.7167   -1.6062    0.1229 H   0  0  0  0  0  0  0  0  0  0  0  0
   -3.0698   -0.9282   -0.9434 H   0  0  0  0  0  0  0  0  0  0  0  0
   -1.4359   -1.3320   -1.6197 H   0  0  0  0  0  0  0  0  0  0  0  0
    0.6365   -1.6368    0.5482 H   0  0  0  0  0  0  0  0  0  0  0  0
    0.4904   -0.3246    1.8860 H   0  0  0  0  0  0  0  0  0  0  0  0
    3.5239    1.2282    0.2261 H   0  0  0  0  0  0  0  0  0  0  0  0
    3.6114   -0.4106   -0.4412 H   0  0  0  0  0  0  0  0  0  0  0  0
    3.3470   -0.1923    1.2983 H   0  0  0  0  0  0  0  0  0  0  0  0
    0.8426   -1.1798   -1.4256 H   0  0  0  0  0  0  0  0  0  0  0  0
    1.1437    0.5829   -1.9934 H   0  0  0  0  0  0  0  0  0  0  0  0
  1  2  1  0
  2  3  1  0
  2  4  1  0
  4  5  1  0
  5  6  1  0
  6  7  1  0
  6  8  1  0
  6  9  1  0
  8  4  1  0
  9  4  1  0
  1 10  1  0
  1 11  1  0
  1 12  1  0
  2 13  1  0
  3 14  1  0
  3 15  1  0
  3 16  1  0
  5 17  1  0
  5 18  1  0
  7 19  1  0
  7 20  1  0
  7 21  1  0
  8 22  1  0
  8 23  1  0
M  END
