
     RDKit          3D

 27 26  0  0  0  0  0  0  0  0999 V2000
    1.6114    1.3281   -0.7880 C   0  0  0  0  0  0  0  0  0  0  0  0
    1.3002   -0.1220   -0.6120 C   0  0  0  0  0  0  0  0  0  0  0  0
    2.6506   -0.7133   -0.1634 C   0  0  0  0  0  0  0  0  0  0  0  0
    0.3149   -0.4723    0.4291 C   0  0  0  0  0  0  0  0  0  0  0  0
    0.1807   -1.8861    0.4214 O   0  0  0  0  0  0  0  0  0  0  0  0
   -1.0651    0.0495    0.2995 C   0  0  0  0  0  0  0  0  0  0  0  0
   -1.2665    1.5114    0.2704 C   0  0  0  0  0  0  0  0  0  0  0  0
   -1.8498   -0.5055    1.4996 C   0  0  0  0  0  0  0  0  0  0  0  0
   -1.7721   -0.5422   -0.9280 C   0  0  0  0  0  0  0  0  0  0  0  0
    0.8435    1.9437   -1.2290 H   0  0  0  0  0  0  0  0  0  0  0  0
    2.5570    1.3761   -1.3980 H   0  0  0  0  0  0  0  0  0  0  0  0
    1.8137    1.7340    0.2476 H   0  0  0  0  0  0  0  0  0  0  0  0
    1.0735   -0.6207   -1.5922 H   0  0  0  0  0  0  0  0  0  0  0  0
    3.4931   -0.1915   -0.6262 H   0  0  0  0  0  0  0  0  0  0  0  0
    2.6678   -1.7977   -0.2498 H   0  0  0  0  0  0  0  0  0  0  0  0
    2.7057   -0.4695    0.9390 H   0  0  0  0  0  0  0  0  0  0  0  0
    0.7237   -0.2353    1.4309 H   0  0  0  0  0  0  0  0  0  0  0  0
    0.2392   -2.2143   -0.5244 H   0  0  0  0  0  0  0  0  0  0  0  0
   -2.2163    1.7533    0.8252 H   0  0  0  0  0  0  0  0  0  0  0  0
   -0.4936    2.1218    0.7561 H   0  0  0  0  0  0  0  0  0  0  0  0
   -1.4997    1.8570   -0.7769 H   0  0  0  0  0  0  0  0  0  0  0  0
   -1.5211   -1.5331    1.6525 H   0  0  0  0  0  0  0  0  0  0  0  0
   -1.5997    0.0993    2.4049 H   0  0  0  0  0  0  0  0  0  0  0  0
   -2.9306   -0.4974    1.2951 H   0  0  0  0  0  0  0  0  0  0  0  0
   -1.2722   -0.2060   -1.8395 H   0  0  0  0  0  0  0  0  0  0  0  0
   -2.8079   -0.1292   -0.9040 H   0  0  0  0  0  0  0  0  0  0  0  0
   -1.8803   -1.6382   -0.8401 H   0  0  0  0  0  0  0  0  0  0  0  0
  1  2  1  0
  2  3  1  0
  2  4  1  0
  4  5  1  0
  4  6  1  0
  6  7  1  0
  6  8  1  0
  6  9  1  0
  1 10  1  0
  1 11  1  0
  1 12  1  0
  2 13  1  0
  3 14  1  0
  3 15  1  0
  3 16  1  0
  4 17  1  0
  5 18  1  0
  7 19  1  0
  7 20  1  0
  7 21  1  0
  8 22  1  0
  8 23  1  0
  8 24  1  0
  9 25  1  0
  9 26  1  0
  9 27  1  0
M  END
