
     RDKit          3D

 19 19  0  0  0  0  0  0  0  0999 V2000
   -1.7811    0.2020    0.9871 C   0  0  0  0  0  0  0  0  0  0  0  0
   -1.0592    0.1737   -0.3292 C   0  0  0  0  0  0  0  0  0  0  0  0
   -1.0990   -1.2218   -0.8358 C   0  0  0  0  0  0  0  0  0  0  0  0
   -1.2700   -1.4698   -2.0180 O   0  0  0  0  0  0  0  0  0  0  0  0
    0.3208    0.7088   -0.2871 C   0  0  0  0  0  0  0  0  0  0  0  0
    0.2658    2.0519    0.1352 O   0  0  0  0  0  0  0  0  0  0  0  0
    1.2710   -0.0950    0.5477 C   0  0  0  0  0  0  0  0  0  0  0  0
    2.3361   -0.8307   -0.1196 C   0  0  0  0  0  0  0  0  0  0  0  0
    2.6376    0.4856    0.4418 O   0  0  0  0  0  0  0  0  0  0  0  0
   -1.6070    1.1310    1.5658 H   0  0  0  0  0  0  0  0  0  0  0  0
   -2.8744    0.1771    0.7641 H   0  0  0  0  0  0  0  0  0  0  0  0
   -1.5880   -0.7206    1.5980 H   0  0  0  0  0  0  0  0  0  0  0  0
   -1.6516    0.7862   -1.0413 H   0  0  0  0  0  0  0  0  0  0  0  0
   -0.9776   -2.0727   -0.1743 H   0  0  0  0  0  0  0  0  0  0  0  0
    0.7148    0.7429   -1.3221 H   0  0  0  0  0  0  0  0  0  0  0  0
   -0.0311    2.5877   -0.6553 H   0  0  0  0  0  0  0  0  0  0  0  0
    1.0744   -0.2445    1.6256 H   0  0  0  0  0  0  0  0  0  0  0  0
    2.9689   -1.5814    0.3525 H   0  0  0  0  0  0  0  0  0  0  0  0
    2.3495   -0.8105   -1.2351 H   0  0  0  0  0  0  0  0  0  0  0  0
  1  2  1  0
  2  3  1  0
  3  4  2  0
  2  5  1  0
  5  6  1  0
  5  7  1  0
  7  8  1  0
  8  9  1  0
  9  7  1  0
  1 10  1  0
  1 11  1  0
  1 12  1  0
  2 13  1  0
  3 14  1  0
  5 15  1  0
  6 16  1  0
  7 17  1  0
  8 18  1  0
  8 19  1  0
M  END
