
     RDKit          3D

 21 20  0  0  0  0  0  0  0  0999 V2000
   -2.4884    0.1097   -0.5948 C   0  0  0  0  0  0  0  0  0  0  0  0
   -1.2033   -0.4724   -0.0473 C   0  0  0  0  0  0  0  0  0  0  0  0
   -1.3779   -0.6145    1.4233 C   0  0  0  0  0  0  0  0  0  0  0  0
   -1.1851   -1.6715    1.9805 O   0  0  0  0  0  0  0  0  0  0  0  0
   -0.0757    0.5017   -0.2730 C   0  0  0  0  0  0  0  0  0  0  0  0
    1.2444    0.0119    0.2380 C   0  0  0  0  0  0  0  0  0  0  0  0
    2.2609    1.1048   -0.0676 C   0  0  0  0  0  0  0  0  0  0  0  0
    1.7041   -1.2246   -0.4215 C   0  0  0  0  0  0  0  0  0  0  0  0
    2.6878   -1.2574   -1.1415 O   0  0  0  0  0  0  0  0  0  0  0  0
   -2.4414    0.2543   -1.6852 H   0  0  0  0  0  0  0  0  0  0  0  0
   -3.3003   -0.6075   -0.3153 H   0  0  0  0  0  0  0  0  0  0  0  0
   -2.6356    1.0928   -0.0697 H   0  0  0  0  0  0  0  0  0  0  0  0
   -1.0493   -1.4422   -0.5074 H   0  0  0  0  0  0  0  0  0  0  0  0
   -1.6835    0.2298    2.0325 H   0  0  0  0  0  0  0  0  0  0  0  0
    0.0262    0.6599   -1.3725 H   0  0  0  0  0  0  0  0  0  0  0  0
   -0.2786    1.4896    0.1875 H   0  0  0  0  0  0  0  0  0  0  0  0
    1.2415   -0.0839    1.3539 H   0  0  0  0  0  0  0  0  0  0  0  0
    3.2974    0.7168   -0.0415 H   0  0  0  0  0  0  0  0  0  0  0  0
    1.9887    1.4831   -1.0831 H   0  0  0  0  0  0  0  0  0  0  0  0
    2.0872    1.9015    0.7012 H   0  0  0  0  0  0  0  0  0  0  0  0
    1.1808   -2.1820   -0.2964 H   0  0  0  0  0  0  0  0  0  0  0  0
  1  2  1  0
  2  3  1  0
  3  4  2  0
  2  5  1  0
  5  6  1  0
  6  7  1  0
  6  8  1  0
  8  9  2  0
  1 10  1  0
  1 11  1  0
  1 12  1  0
  2 13  1  0
  3 14  1  0
  5 15  1  0
  5 16  1  0
  6 17  1  0
  7 18  1  0
  7 19  1  0
  7 20  1  0
  8 21  1  0
M  END
