
     RDKit          3D

 21 21  0  0  0  0  0  0  0  0999 V2000
   -2.0359   -0.7141    0.8593 C   0  0  0  0  0  0  0  0  0  0  0  0
   -1.1904   -0.3848   -0.3294 C   0  0  0  0  0  0  0  0  0  0  0  0
   -1.7243    0.7125   -1.1852 C   0  0  0  0  0  0  0  0  0  0  0  0
    0.2136   -0.0545    0.0434 C   0  0  0  0  0  0  0  0  0  0  0  0
    0.6726    0.1036    1.2746 C   0  0  0  0  0  0  0  0  0  0  0  0
    2.0971    0.4185    1.2399 C   0  0  0  0  0  0  0  0  0  0  0  0
    2.7818    1.0264    2.0897 O   0  0  0  0  0  0  0  0  0  0  0  0
    2.5363   -0.1679   -0.0687 C   0  0  0  0  0  0  0  0  0  0  0  0
    1.3256    0.1631   -0.9066 C   0  0  0  0  0  0  0  0  0  0  0  0
   -3.1032   -0.6607    0.5298 H   0  0  0  0  0  0  0  0  0  0  0  0
   -1.8973   -0.0376    1.7112 H   0  0  0  0  0  0  0  0  0  0  0  0
   -1.8679   -1.7908    1.1406 H   0  0  0  0  0  0  0  0  0  0  0  0
   -1.1381   -1.3097   -0.9670 H   0  0  0  0  0  0  0  0  0  0  0  0
   -2.4510    0.2726   -1.9014 H   0  0  0  0  0  0  0  0  0  0  0  0
   -0.8730    1.1596   -1.7441 H   0  0  0  0  0  0  0  0  0  0  0  0
   -2.1401    1.5004   -0.5500 H   0  0  0  0  0  0  0  0  0  0  0  0
    0.0969    0.0190    2.2119 H   0  0  0  0  0  0  0  0  0  0  0  0
    3.4664    0.2769   -0.4387 H   0  0  0  0  0  0  0  0  0  0  0  0
    2.5839   -1.2796   -0.0076 H   0  0  0  0  0  0  0  0  0  0  0  0
    1.2687   -0.4997   -1.7910 H   0  0  0  0  0  0  0  0  0  0  0  0
    1.3783    1.2470   -1.2106 H   0  0  0  0  0  0  0  0  0  0  0  0
  1  2  1  0
  2  3  1  0
  2  4  1  0
  4  5  2  0
  5  6  1  0
  6  7  2  0
  6  8  1  0
  8  9  1  0
  9  4  1  0
  1 10  1  0
  1 11  1  0
  1 12  1  0
  2 13  1  0
  3 14  1  0
  3 15  1  0
  3 16  1  0
  5 17  1  0
  8 18  1  0
  8 19  1  0
  9 20  1  0
  9 21  1  0
M  END
