
     RDKit          3D

 19 19  0  0  0  0  0  0  0  0999 V2000
    1.7389   -0.7883   -0.4698 C   0  0  0  0  0  0  0  0  0  0  0  0
    0.6296    0.1595   -0.0154 C   0  0  0  0  0  0  0  0  0  0  0  0
    0.6958    0.2340    1.4533 C   0  0  0  0  0  0  0  0  0  0  0  0
    1.3471    1.1628    1.9382 O   0  0  0  0  0  0  0  0  0  0  0  0
    0.9381    1.4809   -0.6270 C   0  0  0  0  0  0  0  0  0  0  0  0
    0.4951    2.4838   -0.0961 O   0  0  0  0  0  0  0  0  0  0  0  0
   -0.6853   -0.3912   -0.5257 C   0  0  0  0  0  0  0  0  0  0  0  0
   -1.9526    0.3747   -0.2053 C   0  0  0  0  0  0  0  0  0  0  0  0
   -1.6749   -0.9877    0.3689 C   0  0  0  0  0  0  0  0  0  0  0  0
    2.6599   -0.5998    0.1089 H   0  0  0  0  0  0  0  0  0  0  0  0
    1.3816   -1.8260   -0.3226 H   0  0  0  0  0  0  0  0  0  0  0  0
    1.9121   -0.6005   -1.5578 H   0  0  0  0  0  0  0  0  0  0  0  0
    0.2304   -0.4443    2.1447 H   0  0  0  0  0  0  0  0  0  0  0  0
    1.5326    1.6333   -1.5189 H   0  0  0  0  0  0  0  0  0  0  0  0
   -0.6567   -0.7873   -1.5667 H   0  0  0  0  0  0  0  0  0  0  0  0
   -2.7188    0.4888   -1.0065 H   0  0  0  0  0  0  0  0  0  0  0  0
   -1.9206    1.2272    0.4799 H   0  0  0  0  0  0  0  0  0  0  0  0
   -1.5960   -1.0355    1.4587 H   0  0  0  0  0  0  0  0  0  0  0  0
   -2.3561   -1.7844   -0.0406 H   0  0  0  0  0  0  0  0  0  0  0  0
  1  2  1  0
  2  3  1  0
  3  4  2  0
  2  5  1  0
  5  6  2  0
  2  7  1  0
  7  8  1  0
  8  9  1  0
  9  7  1  0
  1 10  1  0
  1 11  1  0
  1 12  1  0
  3 13  1  0
  5 14  1  0
  7 15  1  0
  8 16  1  0
  8 17  1  0
  9 18  1  0
  9 19  1  0
M  END
