
     RDKit          3D

 17 16  0  0  0  0  0  0  0  0999 V2000
   -0.5727    1.2093    0.7048 C   0  0  0  0  0  0  0  0  0  0  0  0
    0.0102   -0.0326    0.0515 C   0  0  0  0  0  0  0  0  0  0  0  0
    1.5022    0.1035    0.0798 C   0  0  0  0  0  0  0  0  0  0  0  0
   -0.4660   -0.0565   -1.3956 C   0  0  0  0  0  0  0  0  0  0  0  0
   -0.4877   -1.2940    0.7031 C   0  0  0  0  0  0  0  0  0  0  0  0
   -0.5267    2.0079   -0.0905 H   0  0  0  0  0  0  0  0  0  0  0  0
    0.0985    1.5974    1.5169 H   0  0  0  0  0  0  0  0  0  0  0  0
   -1.6084    1.0684    1.0394 H   0  0  0  0  0  0  0  0  0  0  0  0
    1.9240   -0.2120   -0.8987 H   0  0  0  0  0  0  0  0  0  0  0  0
    1.8168    1.1755    0.2088 H   0  0  0  0  0  0  0  0  0  0  0  0
    1.9552   -0.4340    0.9389 H   0  0  0  0  0  0  0  0  0  0  0  0
   -0.7219   -1.1031   -1.6985 H   0  0  0  0  0  0  0  0  0  0  0  0
    0.3259    0.2832   -2.0768 H   0  0  0  0  0  0  0  0  0  0  0  0
   -1.3939    0.5377   -1.5153 H   0  0  0  0  0  0  0  0  0  0  0  0
   -0.0879   -1.4426    1.7140 H   0  0  0  0  0  0  0  0  0  0  0  0
   -1.5971   -1.2658    0.6655 H   0  0  0  0  0  0  0  0  0  0  0  0
   -0.1703   -2.1425    0.0527 H   0  0  0  0  0  0  0  0  0  0  0  0
  1  2  1  0
  2  3  1  0
  2  4  1  0
  2  5  1  0
  1  6  1  0
  1  7  1  0
  1  8  1  0
  3  9  1  0
  3 10  1  0
  3 11  1  0
  4 12  1  0
  4 13  1  0
  4 14  1  0
  5 15  1  0
  5 16  1  0
  5 17  1  0
M  END
