
     RDKit          3D

 23 24  0  0  0  0  0  0  0  0999 V2000
   -2.2418    0.3938   -1.3967 C   0  0  0  0  0  0  0  0  0  0  0  0
   -1.5100   -0.3173   -0.3265 C   0  0  0  0  0  0  0  0  0  0  0  0
   -1.4130    0.5224    0.9423 C   0  0  0  0  0  0  0  0  0  0  0  0
   -0.1801   -0.8833   -0.7154 C   0  0  0  0  0  0  0  0  0  0  0  0
    0.8607    0.0634   -1.2039 C   0  0  0  0  0  0  0  0  0  0  0  0
    1.9016   -0.5150   -0.2918 C   0  0  0  0  0  0  0  0  0  0  0  0
    2.7818    0.4162    0.4880 C   0  0  0  0  0  0  0  0  0  0  0  0
    1.9143   -1.8324    0.0611 O   0  0  0  0  0  0  0  0  0  0  0  0
    0.7445   -1.2081    0.4380 C   0  0  0  0  0  0  0  0  0  0  0  0
   -2.9567   -0.2865   -1.9461 H   0  0  0  0  0  0  0  0  0  0  0  0
   -2.9125    1.1866   -0.9602 H   0  0  0  0  0  0  0  0  0  0  0  0
   -1.6383    0.8841   -2.1608 H   0  0  0  0  0  0  0  0  0  0  0  0
   -2.1467   -1.1926   -0.0128 H   0  0  0  0  0  0  0  0  0  0  0  0
   -1.3029   -0.1136    1.8240 H   0  0  0  0  0  0  0  0  0  0  0  0
   -2.4254    1.0134    1.0431 H   0  0  0  0  0  0  0  0  0  0  0  0
   -0.6249    1.2724    0.7995 H   0  0  0  0  0  0  0  0  0  0  0  0
   -0.2556   -1.7785   -1.3686 H   0  0  0  0  0  0  0  0  0  0  0  0
    1.0379   -0.0486   -2.2887 H   0  0  0  0  0  0  0  0  0  0  0  0
    0.7227    1.1350   -0.9699 H   0  0  0  0  0  0  0  0  0  0  0  0
    2.2767    0.8674    1.3695 H   0  0  0  0  0  0  0  0  0  0  0  0
    3.0299    1.2826   -0.1823 H   0  0  0  0  0  0  0  0  0  0  0  0
    3.7640   -0.0426    0.7560 H   0  0  0  0  0  0  0  0  0  0  0  0
    0.5738   -0.8187    1.4302 H   0  0  0  0  0  0  0  0  0  0  0  0
  1  2  1  0
  2  3  1  0
  2  4  1  0
  4  5  1  0
  5  6  1  0
  6  7  1  0
  6  8  1  0
  8  9  1  0
  9  4  1  0
  9  6  1  0
  1 10  1  0
  1 11  1  0
  1 12  1  0
  2 13  1  0
  3 14  1  0
  3 15  1  0
  3 16  1  0
  4 17  1  0
  5 18  1  0
  5 19  1  0
  7 20  1  0
  7 21  1  0
  7 22  1  0
  9 23  1  0
M  END
