
     RDKit          3D

 25 25  0  0  0  0  0  0  0  0999 V2000
    1.3625   -1.0107   -1.0570 C   0  0  0  0  0  0  0  0  0  0  0  0
    0.6709   -0.1170   -0.0789 C   0  0  0  0  0  0  0  0  0  0  0  0
    0.4204   -0.9051    1.1848 C   0  0  0  0  0  0  0  0  0  0  0  0
    1.6040    1.0244    0.2918 C   0  0  0  0  0  0  0  0  0  0  0  0
    2.7800    0.5552    0.8695 O   0  0  0  0  0  0  0  0  0  0  0  0
   -0.5711    0.4763   -0.6573 C   0  0  0  0  0  0  0  0  0  0  0  0
   -1.6311   -0.4743   -1.1010 C   0  0  0  0  0  0  0  0  0  0  0  0
   -2.3780   -0.1686    0.2011 C   0  0  0  0  0  0  0  0  0  0  0  0
   -1.5361    1.0870    0.3139 C   0  0  0  0  0  0  0  0  0  0  0  0
    2.4619   -0.7778   -1.0990 H   0  0  0  0  0  0  0  0  0  0  0  0
    1.2910   -2.0904   -0.7965 H   0  0  0  0  0  0  0  0  0  0  0  0
    0.9608   -0.8702   -2.0835 H   0  0  0  0  0  0  0  0  0  0  0  0
    1.4421   -1.1423    1.6044 H   0  0  0  0  0  0  0  0  0  0  0  0
   -0.0827   -0.3168    1.9719 H   0  0  0  0  0  0  0  0  0  0  0  0
   -0.0466   -1.8838    0.9911 H   0  0  0  0  0  0  0  0  0  0  0  0
    1.1170    1.6871    1.0071 H   0  0  0  0  0  0  0  0  0  0  0  0
    1.8390    1.5699   -0.6427 H   0  0  0  0  0  0  0  0  0  0  0  0
    3.1299    1.2851    1.4404 H   0  0  0  0  0  0  0  0  0  0  0  0
   -0.2852    1.2564   -1.4222 H   0  0  0  0  0  0  0  0  0  0  0  0
   -2.2346   -0.0298   -1.9421 H   0  0  0  0  0  0  0  0  0  0  0  0
   -1.3558   -1.5216   -1.2294 H   0  0  0  0  0  0  0  0  0  0  0  0
   -2.2384   -0.9027    0.9977 H   0  0  0  0  0  0  0  0  0  0  0  0
   -3.4650    0.0245    0.0560 H   0  0  0  0  0  0  0  0  0  0  0  0
   -1.1334    1.3041    1.3138 H   0  0  0  0  0  0  0  0  0  0  0  0
   -2.1216    1.9413   -0.1342 H   0  0  0  0  0  0  0  0  0  0  0  0
  1  2  1  0
  2  3  1  0
  2  4  1  0
  4  5  1  0
  2  6  1  0
  6  7  1  0
  7  8  1  0
  8  9  1  0
  9  6  1  0
  1 10  1  0
  1 11  1  0
  1 12  1  0
  3 13  1  0
  3 14  1  0
  3 15  1  0
  4 16  1  0
  4 17  1  0
  5 18  1  0
  6 19  1  0
  7 20  1  0
  7 21  1  0
  8 22  1  0
  8 23  1  0
  9 24  1  0
  9 25  1  0
M  END
