
     RDKit          3D

 22 22  0  0  0  0  0  0  0  0999 V2000
    0.5905    1.3895   -1.2609 C   0  0  0  0  0  0  0  0  0  0  0  0
   -0.1538    0.1810   -0.7569 C   0  0  0  0  0  0  0  0  0  0  0  0
   -1.2586    0.6028    0.1732 C   0  0  0  0  0  0  0  0  0  0  0  0
   -1.9801   -0.6352    0.6566 C   0  0  0  0  0  0  0  0  0  0  0  0
   -3.0121   -0.3769    1.5145 O   0  0  0  0  0  0  0  0  0  0  0  0
    0.7620   -0.8537   -0.1511 C   0  0  0  0  0  0  0  0  0  0  0  0
    1.6146   -0.5276    1.0145 C   0  0  0  0  0  0  0  0  0  0  0  0
    2.2129   -0.8042   -0.3310 C   0  0  0  0  0  0  0  0  0  0  0  0
    0.8958    2.0679   -0.4444 H   0  0  0  0  0  0  0  0  0  0  0  0
   -0.1455    1.9745   -1.8781 H   0  0  0  0  0  0  0  0  0  0  0  0
    1.4091    1.1260   -1.9332 H   0  0  0  0  0  0  0  0  0  0  0  0
   -0.6344   -0.2925   -1.6420 H   0  0  0  0  0  0  0  0  0  0  0  0
   -0.9179    1.2048    1.0276 H   0  0  0  0  0  0  0  0  0  0  0  0
   -1.9663    1.2212   -0.4306 H   0  0  0  0  0  0  0  0  0  0  0  0
   -2.4066   -1.1217   -0.2525 H   0  0  0  0  0  0  0  0  0  0  0  0
   -1.2266   -1.3339    1.0880 H   0  0  0  0  0  0  0  0  0  0  0  0
   -3.0231    0.5224    1.9113 H   0  0  0  0  0  0  0  0  0  0  0  0
    0.3114   -1.8799   -0.1553 H   0  0  0  0  0  0  0  0  0  0  0  0
    1.6108    0.5457    1.3486 H   0  0  0  0  0  0  0  0  0  0  0  0
    1.7962   -1.2865    1.8020 H   0  0  0  0  0  0  0  0  0  0  0  0
    2.7410    0.0448   -0.8096 H   0  0  0  0  0  0  0  0  0  0  0  0
    2.7807   -1.7685   -0.4906 H   0  0  0  0  0  0  0  0  0  0  0  0
  1  2  1  0
  2  3  1  0
  3  4  1  0
  4  5  1  0
  2  6  1  0
  6  7  1  0
  7  8  1  0
  8  6  1  0
  1  9  1  0
  1 10  1  0
  1 11  1  0
  2 12  1  0
  3 13  1  0
  3 14  1  0
  4 15  1  0
  4 16  1  0
  5 17  1  0
  6 18  1  0
  7 19  1  0
  7 20  1  0
  8 21  1  0
  8 22  1  0
M  END
