
     RDKit          3D

 27 26  0  0  0  0  0  0  0  0999 V2000
   -2.5054   -0.8306   -0.6161 C   0  0  0  0  0  0  0  0  0  0  0  0
   -2.1924    0.1239    0.5143 C   0  0  0  0  0  0  0  0  0  0  0  0
   -3.0071    1.3983    0.4170 C   0  0  0  0  0  0  0  0  0  0  0  0
   -0.7121    0.4647    0.5473 C   0  0  0  0  0  0  0  0  0  0  0  0
    0.0374   -0.8175    0.7450 C   0  0  0  0  0  0  0  0  0  0  0  0
    1.5211   -0.6766    0.8090 C   0  0  0  0  0  0  0  0  0  0  0  0
    2.0519   -0.0878   -0.4501 C   0  0  0  0  0  0  0  0  0  0  0  0
    3.5534    0.0744   -0.4459 C   0  0  0  0  0  0  0  0  0  0  0  0
    4.0071    0.8919    0.5601 O   0  0  0  0  0  0  0  0  0  0  0  0
   -3.5656   -0.7674   -0.9227 H   0  0  0  0  0  0  0  0  0  0  0  0
   -2.3315   -1.8870   -0.2993 H   0  0  0  0  0  0  0  0  0  0  0  0
   -1.8345   -0.6641   -1.4924 H   0  0  0  0  0  0  0  0  0  0  0  0
   -2.5112   -0.3770    1.4548 H   0  0  0  0  0  0  0  0  0  0  0  0
   -3.2886    1.7713    1.4217 H   0  0  0  0  0  0  0  0  0  0  0  0
   -3.9389    1.1615   -0.1175 H   0  0  0  0  0  0  0  0  0  0  0  0
   -2.4383    2.2089   -0.0766 H   0  0  0  0  0  0  0  0  0  0  0  0
   -0.5059    1.2201    1.3211 H   0  0  0  0  0  0  0  0  0  0  0  0
   -0.4685    0.8712   -0.4707 H   0  0  0  0  0  0  0  0  0  0  0  0
   -0.2359   -1.5405   -0.0424 H   0  0  0  0  0  0  0  0  0  0  0  0
   -0.2898   -1.2428    1.7397 H   0  0  0  0  0  0  0  0  0  0  0  0
    1.9601   -1.6930    0.9493 H   0  0  0  0  0  0  0  0  0  0  0  0
    1.8162   -0.0826    1.7085 H   0  0  0  0  0  0  0  0  0  0  0  0
    1.7908   -0.7571   -1.2938 H   0  0  0  0  0  0  0  0  0  0  0  0
    1.5430    0.8957   -0.6540 H   0  0  0  0  0  0  0  0  0  0  0  0
    3.8180    0.5596   -1.4205 H   0  0  0  0  0  0  0  0  0  0  0  0
    4.0353   -0.9016   -0.4106 H   0  0  0  0  0  0  0  0  0  0  0  0
    3.6913    0.6839    1.4503 H   0  0  0  0  0  0  0  0  0  0  0  0
  1  2  1  0
  2  3  1  0
  2  4  1  0
  4  5  1  0
  5  6  1  0
  6  7  1  0
  7  8  1  0
  8  9  1  0
  1 10  1  0
  1 11  1  0
  1 12  1  0
  2 13  1  0
  3 14  1  0
  3 15  1  0
  3 16  1  0
  4 17  1  0
  4 18  1  0
  5 19  1  0
  5 20  1  0
  6 21  1  0
  6 22  1  0
  7 23  1  0
  7 24  1  0
  8 25  1  0
  8 26  1  0
  9 27  1  0
M  END
