
     RDKit          3D

 19 19  0  0  0  0  0  0  0  0999 V2000
   -0.7195    1.2297   -0.1401 C   0  0  0  0  0  0  0  0  0  0  0  0
   -0.6166   -0.2280   -0.3777 C   0  0  0  0  0  0  0  0  0  0  0  0
   -1.8285   -0.8437    0.3539 C   0  0  0  0  0  0  0  0  0  0  0  0
   -0.8668   -0.5063   -1.7351 O   0  0  0  0  0  0  0  0  0  0  0  0
    0.6015   -0.9286    0.0883 C   0  0  0  0  0  0  0  0  0  0  0  0
    1.0190   -0.7631    1.4183 O   0  0  0  0  0  0  0  0  0  0  0  0
    1.9258   -0.4536    0.2710 C   0  0  0  0  0  0  0  0  0  0  0  0
    2.4173    0.9039    0.4234 C   0  0  0  0  0  0  0  0  0  0  0  0
    3.6073    1.1444    0.4577 O   0  0  0  0  0  0  0  0  0  0  0  0
   -1.8138    1.4869   -0.3214 H   0  0  0  0  0  0  0  0  0  0  0  0
   -0.5773    1.4934    0.9210 H   0  0  0  0  0  0  0  0  0  0  0  0
   -0.1823    1.8729   -0.8602 H   0  0  0  0  0  0  0  0  0  0  0  0
   -2.7292   -0.4834   -0.1719 H   0  0  0  0  0  0  0  0  0  0  0  0
   -1.7853   -0.4128    1.3817 H   0  0  0  0  0  0  0  0  0  0  0  0
   -1.7489   -1.9419    0.3892 H   0  0  0  0  0  0  0  0  0  0  0  0
   -1.7201   -0.0369   -1.9424 H   0  0  0  0  0  0  0  0  0  0  0  0
    0.5111   -2.0514   -0.1153 H   0  0  0  0  0  0  0  0  0  0  0  0
    2.7645   -1.2159    0.2037 H   0  0  0  0  0  0  0  0  0  0  0  0
    1.7419    1.7343    0.5106 H   0  0  0  0  0  0  0  0  0  0  0  0
  1  2  1  0
  2  3  1  0
  2  4  1  0
  2  5  1  0
  5  6  1  0
  6  7  1  0
  7  8  1  0
  8  9  2  0
  7  5  1  0
  1 10  1  0
  1 11  1  0
  1 12  1  0
  3 13  1  0
  3 14  1  0
  3 15  1  0
  4 16  1  0
  5 17  1  0
  7 18  1  0
  8 19  1  0
M  END
