
     RDKit          3D

 20 21  0  0  0  0  0  0  0  0999 V2000
   -1.6183   -0.8153    0.9303 C   0  0  0  0  0  0  0  0  0  0  0  0
   -0.9657   -0.0910   -0.1946 C   0  0  0  0  0  0  0  0  0  0  0  0
   -1.5969    1.3055   -0.2638 C   0  0  0  0  0  0  0  0  0  0  0  0
    0.5109    0.1232   -0.0077 C   0  0  0  0  0  0  0  0  0  0  0  0
    1.2933    0.8339   -1.0541 C   0  0  0  0  0  0  0  0  0  0  0  0
    1.5358   -0.5980   -0.7400 C   0  0  0  0  0  0  0  0  0  0  0  0
    2.1014   -0.8614    0.6372 C   0  0  0  0  0  0  0  0  0  0  0  0
    1.0655   -0.1213    1.2230 O   0  0  0  0  0  0  0  0  0  0  0  0
   -2.3213   -1.6158    0.5630 H   0  0  0  0  0  0  0  0  0  0  0  0
   -2.2206   -0.1592    1.6041 H   0  0  0  0  0  0  0  0  0  0  0  0
   -0.8873   -1.3332    1.5839 H   0  0  0  0  0  0  0  0  0  0  0  0
   -1.1850   -0.5724   -1.1526 H   0  0  0  0  0  0  0  0  0  0  0  0
   -1.4012    1.7536    0.7476 H   0  0  0  0  0  0  0  0  0  0  0  0
   -1.0164    1.9050   -0.9955 H   0  0  0  0  0  0  0  0  0  0  0  0
   -2.6720    1.2540   -0.5038 H   0  0  0  0  0  0  0  0  0  0  0  0
    2.0572    1.5420   -0.6755 H   0  0  0  0  0  0  0  0  0  0  0  0
    0.7594    1.0873   -1.9914 H   0  0  0  0  0  0  0  0  0  0  0  0
    1.3616   -1.4068   -1.4440 H   0  0  0  0  0  0  0  0  0  0  0  0
    3.0600   -0.3076    0.8309 H   0  0  0  0  0  0  0  0  0  0  0  0
    2.1398   -1.9225    0.9030 H   0  0  0  0  0  0  0  0  0  0  0  0
  1  2  1  0
  2  3  1  0
  2  4  1  0
  4  5  1  0
  5  6  1  0
  6  7  1  0
  7  8  1  0
  6  4  1  0
  8  4  1  0
  1  9  1  0
  1 10  1  0
  1 11  1  0
  2 12  1  0
  3 13  1  0
  3 14  1  0
  3 15  1  0
  5 16  1  0
  5 17  1  0
  6 18  1  0
  7 19  1  0
  7 20  1  0
M  END
