
     RDKit          3D

 25 25  0  0  0  0  0  0  0  0999 V2000
   -1.6808    1.2682    0.0923 C   0  0  0  0  0  0  0  0  0  0  0  0
   -1.2324   -0.1176    0.4757 C   0  0  0  0  0  0  0  0  0  0  0  0
   -2.4435   -1.0382    0.1953 C   0  0  0  0  0  0  0  0  0  0  0  0
   -1.1430   -0.1033    1.8666 O   0  0  0  0  0  0  0  0  0  0  0  0
   -0.0762   -0.6169   -0.2336 C   0  0  0  0  0  0  0  0  0  0  0  0
    1.2542   -0.0757   -0.2480 C   0  0  0  0  0  0  0  0  0  0  0  0
    2.1944   -0.9316   -1.1485 C   0  0  0  0  0  0  0  0  0  0  0  0
    1.4691    1.4303   -0.3723 C   0  0  0  0  0  0  0  0  0  0  0  0
    1.9868    0.6096    0.8135 C   0  0  0  0  0  0  0  0  0  0  0  0
   -1.3268    1.5199   -0.9065 H   0  0  0  0  0  0  0  0  0  0  0  0
   -2.8135    1.3184    0.0197 H   0  0  0  0  0  0  0  0  0  0  0  0
   -1.4027    2.0506    0.8204 H   0  0  0  0  0  0  0  0  0  0  0  0
   -2.9966   -0.6611   -0.7042 H   0  0  0  0  0  0  0  0  0  0  0  0
   -2.1117   -2.0537   -0.0468 H   0  0  0  0  0  0  0  0  0  0  0  0
   -3.1722   -0.9829    1.0303 H   0  0  0  0  0  0  0  0  0  0  0  0
   -1.0313   -1.0399    2.1652 H   0  0  0  0  0  0  0  0  0  0  0  0
   -0.3919   -0.7225   -1.3363 H   0  0  0  0  0  0  0  0  0  0  0  0
    0.0214   -1.7343    0.0249 H   0  0  0  0  0  0  0  0  0  0  0  0
    1.6707   -1.2841   -2.0317 H   0  0  0  0  0  0  0  0  0  0  0  0
    2.5346   -1.7562   -0.4952 H   0  0  0  0  0  0  0  0  0  0  0  0
    3.0679   -0.3348   -1.4284 H   0  0  0  0  0  0  0  0  0  0  0  0
    2.2126    1.7338   -1.1545 H   0  0  0  0  0  0  0  0  0  0  0  0
    0.7379    2.1580   -0.0558 H   0  0  0  0  0  0  0  0  0  0  0  0
    1.5811    0.7974    1.8246 H   0  0  0  0  0  0  0  0  0  0  0  0
    3.0917    0.5667    0.8333 H   0  0  0  0  0  0  0  0  0  0  0  0
  1  2  1  0
  2  3  1  0
  2  4  1  0
  2  5  1  0
  5  6  1  0
  6  7  1  0
  6  8  1  0
  8  9  1  0
  9  6  1  0
  1 10  1  0
  1 11  1  0
  1 12  1  0
  3 13  1  0
  3 14  1  0
  3 15  1  0
  4 16  1  0
  5 17  1  0
  5 18  1  0
  7 19  1  0
  7 20  1  0
  7 21  1  0
  8 22  1  0
  8 23  1  0
  9 24  1  0
  9 25  1  0
M  END
