
     RDKit          3D

 20 19  0  0  0  0  0  0  0  0999 V2000
   -1.4607    0.9740   -0.1405 C   0  0  0  0  0  0  0  0  0  0  0  0
   -1.5457   -0.2427   -0.7082 C   0  0  0  0  0  0  0  0  0  0  0  0
   -1.8208   -1.4405    0.2084 C   0  0  0  0  0  0  0  0  0  0  0  0
   -0.4691   -0.7336   -2.0244 C   0  0  0  0  0  0  0  0  0  0  0  0
    0.7940   -0.3803   -1.0271 C   0  0  0  0  0  0  0  0  0  0  0  0
    1.9963   -0.0335   -0.0842 C   0  0  0  0  0  0  0  0  0  0  0  0
    2.9462    0.2414    0.6888 C   0  0  0  0  0  0  0  0  0  0  0  0
    3.6326    1.4824   -0.0254 O   0  0  0  0  0  0  0  0  0  0  0  0
   -2.4017    1.0583    0.6913 H   0  0  0  0  0  0  0  0  0  0  0  0
   -0.6098    1.3159    0.5052 H   0  0  0  0  0  0  0  0  0  0  0  0
   -1.8939    1.9054   -0.7399 H   0  0  0  0  0  0  0  0  0  0  0  0
   -2.4128   -0.1540   -1.4520 H   0  0  0  0  0  0  0  0  0  0  0  0
   -2.9199   -1.8220    0.0092 H   0  0  0  0  0  0  0  0  0  0  0  0
   -1.1260   -2.3229    0.0395 H   0  0  0  0  0  0  0  0  0  0  0  0
   -1.9173   -1.1257    1.2708 H   0  0  0  0  0  0  0  0  0  0  0  0
   -0.8814   -1.3089   -2.3536 H   0  0  0  0  0  0  0  0  0  0  0  0
   -0.5869    0.4677   -2.2916 H   0  0  0  0  0  0  0  0  0  0  0  0
    2.5030    0.8752    1.5536 H   0  0  0  0  0  0  0  0  0  0  0  0
    3.8880   -0.4730    0.5957 H   0  0  0  0  0  0  0  0  0  0  0  0
    4.2859    1.7167    0.7533 H   0  0  0  0  0  0  0  0  0  0  0  0
  1  2  1  0
  2  3  1  0
  2  4  1  0
  4  5  1  0
  5  6  3  0
  6  7  1  0
  7  8  1  0
  1  9  1  0
  1 10  1  0
  1 11  1  0
  2 12  1  0
  3 13  1  0
  3 14  1  0
  3 15  1  0
  4 16  1  0
  4 17  1  0
  7 18  1  0
  7 19  1  0
  8 20  1  0
M  END
