
     RDKit          3D

 23 22  0  0  0  0  0  0  0  0999 V2000
   -1.4229    1.1069    0.7742 C   0  0  0  0  0  0  0  0  0  0  0  0
   -0.9514    0.5013   -0.5033 C   0  0  0  0  0  0  0  0  0  0  0  0
   -1.9143   -0.5705   -0.9899 C   0  0  0  0  0  0  0  0  0  0  0  0
    0.4361   -0.0789   -0.3589 C   0  0  0  0  0  0  0  0  0  0  0  0
    0.8430   -0.6371   -1.5771 O   0  0  0  0  0  0  0  0  0  0  0  0
    0.4111   -1.2099    0.6449 C   0  0  0  0  0  0  0  0  0  0  0  0
    1.6414   -1.7983    0.7952 O   0  0  0  0  0  0  0  0  0  0  0  0
    1.3784    1.0187    0.0252 C   0  0  0  0  0  0  0  0  0  0  0  0
    2.6860    0.5605    0.1731 O   0  0  0  0  0  0  0  0  0  0  0  0
   -2.4269    0.7034    1.0017 H   0  0  0  0  0  0  0  0  0  0  0  0
   -1.5587    2.2069    0.6427 H   0  0  0  0  0  0  0  0  0  0  0  0
   -0.7894    0.9430    1.6419 H   0  0  0  0  0  0  0  0  0  0  0  0
   -0.8956    1.2526   -1.3225 H   0  0  0  0  0  0  0  0  0  0  0  0
   -1.3521   -1.1728   -1.7402 H   0  0  0  0  0  0  0  0  0  0  0  0
   -2.1542   -1.2035   -0.1193 H   0  0  0  0  0  0  0  0  0  0  0  0
   -2.7946   -0.0702   -1.4275 H   0  0  0  0  0  0  0  0  0  0  0  0
    1.7474   -1.0315   -1.3979 H   0  0  0  0  0  0  0  0  0  0  0  0
   -0.2832   -1.9836    0.2256 H   0  0  0  0  0  0  0  0  0  0  0  0
    0.0342   -0.9227    1.6276 H   0  0  0  0  0  0  0  0  0  0  0  0
    1.6858   -2.2954    1.6257 H   0  0  0  0  0  0  0  0  0  0  0  0
    1.3920    1.7561   -0.7945 H   0  0  0  0  0  0  0  0  0  0  0  0
    1.0242    1.5408    0.9253 H   0  0  0  0  0  0  0  0  0  0  0  0
    3.2635    1.3844    0.1281 H   0  0  0  0  0  0  0  0  0  0  0  0
  1  2  1  0
  2  3  1  0
  2  4  1  0
  4  5  1  0
  4  6  1  0
  6  7  1  0
  4  8  1  0
  8  9  1  0
  1 10  1  0
  1 11  1  0
  1 12  1  0
  2 13  1  0
  3 14  1  0
  3 15  1  0
  3 16  1  0
  5 17  1  0
  6 18  1  0
  6 19  1  0
  7 20  1  0
  8 21  1  0
  8 22  1  0
  9 23  1  0
M  END
