
     RDKit          3D

 23 22  0  0  0  0  0  0  0  0999 V2000
   -1.8020    1.0373   -0.8733 C   0  0  0  0  0  0  0  0  0  0  0  0
   -1.0360   -0.2311   -0.6195 C   0  0  0  0  0  0  0  0  0  0  0  0
   -1.6246   -1.0020    0.5177 C   0  0  0  0  0  0  0  0  0  0  0  0
    0.4460    0.0298   -0.4612 C   0  0  0  0  0  0  0  0  0  0  0  0
    0.6917    0.9729    0.7181 C   0  0  0  0  0  0  0  0  0  0  0  0
    0.0386    2.1954    0.5053 O   0  0  0  0  0  0  0  0  0  0  0  0
    1.2347   -1.2237   -0.2654 C   0  0  0  0  0  0  0  0  0  0  0  0
    2.6813   -0.9071   -0.1250 C   0  0  0  0  0  0  0  0  0  0  0  0
    3.5122   -1.7929    0.0831 O   0  0  0  0  0  0  0  0  0  0  0  0
   -1.2580    1.7466   -1.5204 H   0  0  0  0  0  0  0  0  0  0  0  0
   -2.1409    1.4789    0.0841 H   0  0  0  0  0  0  0  0  0  0  0  0
   -2.7562    0.8052   -1.4314 H   0  0  0  0  0  0  0  0  0  0  0  0
   -1.1722   -0.8602   -1.5459 H   0  0  0  0  0  0  0  0  0  0  0  0
   -1.6977   -2.1010    0.2839 H   0  0  0  0  0  0  0  0  0  0  0  0
   -1.1090   -0.9116    1.4710 H   0  0  0  0  0  0  0  0  0  0  0  0
   -2.6973   -0.6978    0.6930 H   0  0  0  0  0  0  0  0  0  0  0  0
    0.8092    0.5560   -1.3639 H   0  0  0  0  0  0  0  0  0  0  0  0
    1.7555    1.2205    0.8283 H   0  0  0  0  0  0  0  0  0  0  0  0
    0.3736    0.4774    1.6489 H   0  0  0  0  0  0  0  0  0  0  0  0
    0.5913    2.8116   -0.0230 H   0  0  0  0  0  0  0  0  0  0  0  0
    0.9558   -1.7567    0.6886 H   0  0  0  0  0  0  0  0  0  0  0  0
    1.1261   -1.9464   -1.0812 H   0  0  0  0  0  0  0  0  0  0  0  0
    3.0780    0.0990   -0.1965 H   0  0  0  0  0  0  0  0  0  0  0  0
  1  2  1  0
  2  3  1  0
  2  4  1  0
  4  5  1  0
  5  6  1  0
  4  7  1  0
  7  8  1  0
  8  9  2  0
  1 10  1  0
  1 11  1  0
  1 12  1  0
  2 13  1  0
  3 14  1  0
  3 15  1  0
  3 16  1  0
  4 17  1  0
  5 18  1  0
  5 19  1  0
  6 20  1  0
  7 21  1  0
  7 22  1  0
  8 23  1  0
M  END
