
     RDKit          3D

 22 22  0  0  0  0  0  0  0  0999 V2000
    2.1702    0.7860    0.7502 C   0  0  0  0  0  0  0  0  0  0  0  0
    1.1588   -0.2925    0.3788 C   0  0  0  0  0  0  0  0  0  0  0  0
    1.9181   -1.3763   -0.3559 C   0  0  0  0  0  0  0  0  0  0  0  0
    0.1853    0.2981   -0.3984 O   0  0  0  0  0  0  0  0  0  0  0  0
   -1.0852    0.2110    0.1295 C   0  0  0  0  0  0  0  0  0  0  0  0
   -1.6200   -1.1844    0.3544 C   0  0  0  0  0  0  0  0  0  0  0  0
   -1.6850    1.2913    0.9403 C   0  0  0  0  0  0  0  0  0  0  0  0
   -2.0809    1.2142   -0.4909 C   0  0  0  0  0  0  0  0  0  0  0  0
    2.2241    0.9169    1.8655 H   0  0  0  0  0  0  0  0  0  0  0  0
    1.8768    1.7814    0.3304 H   0  0  0  0  0  0  0  0  0  0  0  0
    3.1860    0.5493    0.3800 H   0  0  0  0  0  0  0  0  0  0  0  0
    0.7626   -0.7460    1.3100 H   0  0  0  0  0  0  0  0  0  0  0  0
    2.9571   -1.3954    0.0260 H   0  0  0  0  0  0  0  0  0  0  0  0
    1.4700   -2.3700   -0.2571 H   0  0  0  0  0  0  0  0  0  0  0  0
    1.9706   -1.0446   -1.4292 H   0  0  0  0  0  0  0  0  0  0  0  0
   -2.1933   -1.2165    1.2942 H   0  0  0  0  0  0  0  0  0  0  0  0
   -0.7664   -1.8811    0.4641 H   0  0  0  0  0  0  0  0  0  0  0  0
   -2.3088   -1.4754   -0.4639 H   0  0  0  0  0  0  0  0  0  0  0  0
   -0.9942    2.0864    1.2707 H   0  0  0  0  0  0  0  0  0  0  0  0
   -2.4291    0.9941    1.7146 H   0  0  0  0  0  0  0  0  0  0  0  0
   -3.0556    0.8469   -0.8105 H   0  0  0  0  0  0  0  0  0  0  0  0
   -1.6611    2.0066   -1.1438 H   0  0  0  0  0  0  0  0  0  0  0  0
  1  2  1  0
  2  3  1  0
  2  4  1  0
  4  5  1  0
  5  6  1  0
  5  7  1  0
  7  8  1  0
  8  5  1  0
  1  9  1  0
  1 10  1  0
  1 11  1  0
  2 12  1  0
  3 13  1  0
  3 14  1  0
  3 15  1  0
  6 16  1  0
  6 17  1  0
  6 18  1  0
  7 19  1  0
  7 20  1  0
  8 21  1  0
  8 22  1  0
M  END
