
     RDKit          3D

 21 22  0  0  0  0  0  0  0  0999 V2000
    1.8509   -0.9583    0.1363 C   0  0  0  0  0  0  0  0  0  0  0  0
    0.7448    0.0249    0.5437 C   0  0  0  0  0  0  0  0  0  0  0  0
    1.2728    1.4078    0.1850 C   0  0  0  0  0  0  0  0  0  0  0  0
   -0.4745   -0.3449   -0.2399 C   0  0  0  0  0  0  0  0  0  0  0  0
   -0.9759   -1.7299   -0.0078 C   0  0  0  0  0  0  0  0  0  0  0  0
   -2.3126   -1.3085    0.0190 O   0  0  0  0  0  0  0  0  0  0  0  0
   -1.8371   -0.0219    0.2443 C   0  0  0  0  0  0  0  0  0  0  0  0
   -1.2791    0.6611   -0.9660 C   0  0  0  0  0  0  0  0  0  0  0  0
   -1.0670    2.0183   -0.7825 O   0  0  0  0  0  0  0  0  0  0  0  0
    2.8289   -0.4826    0.3204 H   0  0  0  0  0  0  0  0  0  0  0  0
    1.7212   -1.9147    0.6837 H   0  0  0  0  0  0  0  0  0  0  0  0
    1.7523   -1.1513   -0.9547 H   0  0  0  0  0  0  0  0  0  0  0  0
    0.5417   -0.0599    1.6313 H   0  0  0  0  0  0  0  0  0  0  0  0
    2.3624    1.3963    0.4776 H   0  0  0  0  0  0  0  0  0  0  0  0
    1.2440    1.4874   -0.9098 H   0  0  0  0  0  0  0  0  0  0  0  0
    0.7151    2.1814    0.7221 H   0  0  0  0  0  0  0  0  0  0  0  0
   -0.7254   -2.4883   -0.7497 H   0  0  0  0  0  0  0  0  0  0  0  0
   -0.7272   -2.1064    1.0278 H   0  0  0  0  0  0  0  0  0  0  0  0
   -2.0234    0.4997    1.1781 H   0  0  0  0  0  0  0  0  0  0  0  0
   -1.6716    0.4053   -1.9734 H   0  0  0  0  0  0  0  0  0  0  0  0
   -1.9405    2.4845   -0.5856 H   0  0  0  0  0  0  0  0  0  0  0  0
  1  2  1  0
  2  3  1  0
  2  4  1  0
  4  5  1  0
  5  6  1  0
  6  7  1  0
  7  8  1  0
  8  9  1  0
  7  4  1  0
  8  4  1  0
  1 10  1  0
  1 11  1  0
  1 12  1  0
  2 13  1  0
  3 14  1  0
  3 15  1  0
  3 16  1  0
  5 17  1  0
  5 18  1  0
  7 19  1  0
  8 20  1  0
  9 21  1  0
M  END
