
     RDKit          3D

 25 24  0  0  0  0  0  0  0  0999 V2000
   -1.6894    1.4478    0.3727 C   0  0  0  0  0  0  0  0  0  0  0  0
   -1.3869    0.0193    0.0622 C   0  0  0  0  0  0  0  0  0  0  0  0
   -1.5249   -0.8496    1.2835 C   0  0  0  0  0  0  0  0  0  0  0  0
   -2.4520   -0.4573   -0.9337 C   0  0  0  0  0  0  0  0  0  0  0  0
   -0.0572   -0.1814   -0.6082 C   0  0  0  0  0  0  0  0  0  0  0  0
    1.0155    0.2550    0.1421 O   0  0  0  0  0  0  0  0  0  0  0  0
    2.1711    0.0075   -0.5985 C   0  0  0  0  0  0  0  0  0  0  0  0
    3.4151    0.4517    0.1377 C   0  0  0  0  0  0  0  0  0  0  0  0
    3.5743   -0.2012    1.3569 O   0  0  0  0  0  0  0  0  0  0  0  0
   -2.3605    1.4881    1.2725 H   0  0  0  0  0  0  0  0  0  0  0  0
   -2.2796    1.9091   -0.4553 H   0  0  0  0  0  0  0  0  0  0  0  0
   -0.7723    2.0733    0.5285 H   0  0  0  0  0  0  0  0  0  0  0  0
   -2.6041   -0.9027    1.5285 H   0  0  0  0  0  0  0  0  0  0  0  0
   -1.1823   -1.8802    1.0532 H   0  0  0  0  0  0  0  0  0  0  0  0
   -0.9427   -0.4955    2.1478 H   0  0  0  0  0  0  0  0  0  0  0  0
   -2.0759   -0.3593   -1.9789 H   0  0  0  0  0  0  0  0  0  0  0  0
   -3.3660    0.1698   -0.8759 H   0  0  0  0  0  0  0  0  0  0  0  0
   -2.7049   -1.5064   -0.7682 H   0  0  0  0  0  0  0  0  0  0  0  0
    0.0332   -1.2773   -0.8183 H   0  0  0  0  0  0  0  0  0  0  0  0
   -0.0794    0.3019   -1.6154 H   0  0  0  0  0  0  0  0  0  0  0  0
    2.1662    0.5112   -1.5708 H   0  0  0  0  0  0  0  0  0  0  0  0
    2.2364   -1.1125   -0.6844 H   0  0  0  0  0  0  0  0  0  0  0  0
    3.4349    1.5548    0.2681 H   0  0  0  0  0  0  0  0  0  0  0  0
    4.2802    0.1338   -0.5032 H   0  0  0  0  0  0  0  0  0  0  0  0
    3.1515   -1.1001    1.2571 H   0  0  0  0  0  0  0  0  0  0  0  0
  1  2  1  0
  2  3  1  0
  2  4  1  0
  2  5  1  0
  5  6  1  0
  6  7  1  0
  7  8  1  0
  8  9  1  0
  1 10  1  0
  1 11  1  0
  1 12  1  0
  3 13  1  0
  3 14  1  0
  3 15  1  0
  4 16  1  0
  4 17  1  0
  4 18  1  0
  5 19  1  0
  5 20  1  0
  7 21  1  0
  7 22  1  0
  8 23  1  0
  8 24  1  0
  9 25  1  0
M  END
