
     RDKit          3D

 22 21  0  0  0  0  0  0  0  0999 V2000
   -2.2527    0.3236   -0.9384 C   0  0  0  0  0  0  0  0  0  0  0  0
   -1.0475   -0.3381   -0.2937 C   0  0  0  0  0  0  0  0  0  0  0  0
   -1.4807   -1.0964    0.8827 C   0  0  0  0  0  0  0  0  0  0  0  0
    0.0013    0.6926   -0.1122 C   0  0  0  0  0  0  0  0  0  0  0  0
    1.2770    0.2543    0.5082 C   0  0  0  0  0  0  0  0  0  0  0  0
    1.9492   -0.8339   -0.3224 C   0  0  0  0  0  0  0  0  0  0  0  0
    2.1930    1.4331    0.5150 C   0  0  0  0  0  0  0  0  0  0  0  0
    2.3434    2.1691    1.4581 O   0  0  0  0  0  0  0  0  0  0  0  0
   -1.9907    0.5969   -1.9618 H   0  0  0  0  0  0  0  0  0  0  0  0
   -2.4911    1.2677   -0.3740 H   0  0  0  0  0  0  0  0  0  0  0  0
   -3.1252   -0.3484   -0.9647 H   0  0  0  0  0  0  0  0  0  0  0  0
   -0.6689   -1.0703   -1.0684 H   0  0  0  0  0  0  0  0  0  0  0  0
   -2.5724   -0.9287    1.1072 H   0  0  0  0  0  0  0  0  0  0  0  0
   -0.9594   -0.8859    1.8295 H   0  0  0  0  0  0  0  0  0  0  0  0
   -1.4141   -2.2081    0.7298 H   0  0  0  0  0  0  0  0  0  0  0  0
   -0.3963    1.5414    0.5099 H   0  0  0  0  0  0  0  0  0  0  0  0
    0.2452    1.1568   -1.0918 H   0  0  0  0  0  0  0  0  0  0  0  0
    1.1996   -0.0596    1.5652 H   0  0  0  0  0  0  0  0  0  0  0  0
    2.9546   -0.5123   -0.6822 H   0  0  0  0  0  0  0  0  0  0  0  0
    1.3645   -1.0706   -1.2296 H   0  0  0  0  0  0  0  0  0  0  0  0
    2.1215   -1.7068    0.3270 H   0  0  0  0  0  0  0  0  0  0  0  0
    2.7497    1.6237   -0.3936 H   0  0  0  0  0  0  0  0  0  0  0  0
  1  2  1  0
  2  3  1  0
  2  4  1  0
  4  5  1  0
  5  6  1  0
  5  7  1  0
  7  8  2  0
  1  9  1  0
  1 10  1  0
  1 11  1  0
  2 12  1  0
  3 13  1  0
  3 14  1  0
  3 15  1  0
  4 16  1  0
  4 17  1  0
  5 18  1  0
  6 19  1  0
  6 20  1  0
  6 21  1  0
  7 22  1  0
M  END
