
     RDKit          3D

 17 17  0  0  0  0  0  0  0  0999 V2000
   -1.3875   -0.8069    0.7529 C   0  0  0  0  0  0  0  0  0  0  0  0
   -0.5864    0.4395    0.3921 C   0  0  0  0  0  0  0  0  0  0  0  0
   -1.5179    1.3657   -0.3086 C   0  0  0  0  0  0  0  0  0  0  0  0
   -1.9030    2.4001    0.2264 O   0  0  0  0  0  0  0  0  0  0  0  0
    0.4948    0.0042   -0.5593 C   0  0  0  0  0  0  0  0  0  0  0  0
    1.5057   -1.0067   -0.1448 C   0  0  0  0  0  0  0  0  0  0  0  0
    1.8934    0.4446   -0.4076 C   0  0  0  0  0  0  0  0  0  0  0  0
   -2.3437   -0.8424    0.1862 H   0  0  0  0  0  0  0  0  0  0  0  0
   -1.5222   -0.8147    1.8447 H   0  0  0  0  0  0  0  0  0  0  0  0
   -0.8133   -1.7414    0.4888 H   0  0  0  0  0  0  0  0  0  0  0  0
   -0.1843    0.9362    1.3002 H   0  0  0  0  0  0  0  0  0  0  0  0
   -1.8383    1.0799   -1.3143 H   0  0  0  0  0  0  0  0  0  0  0  0
    0.1328   -0.0689   -1.6192 H   0  0  0  0  0  0  0  0  0  0  0  0
    1.6155   -1.2838    0.9268 H   0  0  0  0  0  0  0  0  0  0  0  0
    1.7855   -1.7765   -0.8831 H   0  0  0  0  0  0  0  0  0  0  0  0
    2.1384    1.1000    0.4363 H   0  0  0  0  0  0  0  0  0  0  0  0
    2.5306    0.5712   -1.3176 H   0  0  0  0  0  0  0  0  0  0  0  0
  1  2  1  0
  2  3  1  0
  3  4  2  0
  2  5  1  0
  5  6  1  0
  6  7  1  0
  7  5  1  0
  1  8  1  0
  1  9  1  0
  1 10  1  0
  2 11  1  0
  3 12  1  0
  5 13  1  0
  6 14  1  0
  6 15  1  0
  7 16  1  0
  7 17  1  0
M  END
