
     RDKit          3D

 25 26  0  0  0  0  0  0  0  0999 V2000
   -2.1547    0.5823   -0.7703 C   0  0  0  0  0  0  0  0  0  0  0  0
   -1.0578   -0.3457   -0.3497 C   0  0  0  0  0  0  0  0  0  0  0  0
   -1.6109   -1.2690    0.7158 C   0  0  0  0  0  0  0  0  0  0  0  0
    0.1651    0.3904    0.1456 C   0  0  0  0  0  0  0  0  0  0  0  0
    1.2786   -0.5484    0.5727 C   0  0  0  0  0  0  0  0  0  0  0  0
    1.7546   -1.4453   -0.5604 C   0  0  0  0  0  0  0  0  0  0  0  0
    2.6416   -0.4199    0.0500 C   0  0  0  0  0  0  0  0  0  0  0  0
   -0.0662    1.6514    0.9139 C   0  0  0  0  0  0  0  0  0  0  0  0
    0.5701    1.6677   -0.4965 C   0  0  0  0  0  0  0  0  0  0  0  0
   -2.9870   -0.0637   -1.1620 H   0  0  0  0  0  0  0  0  0  0  0  0
   -1.8551    1.2942   -1.5374 H   0  0  0  0  0  0  0  0  0  0  0  0
   -2.6073    1.0943    0.1264 H   0  0  0  0  0  0  0  0  0  0  0  0
   -0.7423   -0.9113   -1.2683 H   0  0  0  0  0  0  0  0  0  0  0  0
   -0.9190   -1.4025    1.5649 H   0  0  0  0  0  0  0  0  0  0  0  0
   -2.6192   -0.9310    1.0693 H   0  0  0  0  0  0  0  0  0  0  0  0
   -1.7776   -2.2580    0.2390 H   0  0  0  0  0  0  0  0  0  0  0  0
    1.1050   -1.0037    1.5735 H   0  0  0  0  0  0  0  0  0  0  0  0
    1.8341   -2.5118   -0.2896 H   0  0  0  0  0  0  0  0  0  0  0  0
    1.4157   -1.2517   -1.5814 H   0  0  0  0  0  0  0  0  0  0  0  0
    2.9900    0.4013   -0.5772 H   0  0  0  0  0  0  0  0  0  0  0  0
    3.4531   -0.8365    0.7056 H   0  0  0  0  0  0  0  0  0  0  0  0
   -1.0580    2.1012    0.9922 H   0  0  0  0  0  0  0  0  0  0  0  0
    0.6093    1.9261    1.7545 H   0  0  0  0  0  0  0  0  0  0  0  0
    1.6499    1.9540   -0.5286 H   0  0  0  0  0  0  0  0  0  0  0  0
   -0.0121    2.1354   -1.3025 H   0  0  0  0  0  0  0  0  0  0  0  0
  1  2  1  0
  2  3  1  0
  2  4  1  0
  4  5  1  0
  5  6  1  0
  6  7  1  0
  4  8  1  0
  8  9  1  0
  9  4  1  0
  7  5  1  0
  1 10  1  0
  1 11  1  0
  1 12  1  0
  2 13  1  0
  3 14  1  0
  3 15  1  0
  3 16  1  0
  5 17  1  0
  6 18  1  0
  6 19  1  0
  7 20  1  0
  7 21  1  0
  8 22  1  0
  8 23  1  0
  9 24  1  0
  9 25  1  0
M  END
