
     RDKit          3D

 21 21  0  0  0  0  0  0  0  0999 V2000
   -2.1880   -0.6455   -0.2420 C   0  0  0  0  0  0  0  0  0  0  0  0
   -1.1577    0.4308   -0.2637 C   0  0  0  0  0  0  0  0  0  0  0  0
   -1.6387    1.5792    0.6335 C   0  0  0  0  0  0  0  0  0  0  0  0
    0.1681    0.0140    0.3312 C   0  0  0  0  0  0  0  0  0  0  0  0
    0.8523   -1.1377   -0.3277 C   0  0  0  0  0  0  0  0  0  0  0  0
    1.9569   -0.1516   -0.6117 C   0  0  0  0  0  0  0  0  0  0  0  0
    3.1688   -0.2918    0.2263 C   0  0  0  0  0  0  0  0  0  0  0  0
    3.9701   -1.1653   -0.0417 O   0  0  0  0  0  0  0  0  0  0  0  0
    1.1621    0.8953   -0.1554 O   0  0  0  0  0  0  0  0  0  0  0  0
   -1.7970   -1.5869    0.2027 H   0  0  0  0  0  0  0  0  0  0  0  0
   -3.0962   -0.3438    0.3322 H   0  0  0  0  0  0  0  0  0  0  0  0
   -2.5582   -0.8028   -1.2928 H   0  0  0  0  0  0  0  0  0  0  0  0
   -1.0203    0.8542   -1.2624 H   0  0  0  0  0  0  0  0  0  0  0  0
   -2.4271    2.1438    0.1315 H   0  0  0  0  0  0  0  0  0  0  0  0
   -1.9643    1.0952    1.5752 H   0  0  0  0  0  0  0  0  0  0  0  0
   -0.7385    2.2007    0.8371 H   0  0  0  0  0  0  0  0  0  0  0  0
    0.1873    0.0300    1.4200 H   0  0  0  0  0  0  0  0  0  0  0  0
    1.1687   -1.9064    0.4083 H   0  0  0  0  0  0  0  0  0  0  0  0
    0.4179   -1.5180   -1.2598 H   0  0  0  0  0  0  0  0  0  0  0  0
    2.2144   -0.0696   -1.6929 H   0  0  0  0  0  0  0  0  0  0  0  0
    3.3193    0.3763    1.0523 H   0  0  0  0  0  0  0  0  0  0  0  0
  1  2  1  0
  2  3  1  0
  2  4  1  0
  4  5  1  0
  5  6  1  0
  6  7  1  0
  7  8  2  0
  6  9  1  0
  9  4  1  0
  1 10  1  0
  1 11  1  0
  1 12  1  0
  2 13  1  0
  3 14  1  0
  3 15  1  0
  3 16  1  0
  4 17  1  0
  5 18  1  0
  5 19  1  0
  6 20  1  0
  7 21  1  0
M  END
