
     RDKit          3D

 19 19  0  0  0  0  0  0  0  0999 V2000
   -1.2436   -0.0998   -1.5550 C   0  0  0  0  0  0  0  0  0  0  0  0
   -0.5647    0.4066   -0.2860 C   0  0  0  0  0  0  0  0  0  0  0  0
   -1.2104   -0.2108    0.8995 C   0  0  0  0  0  0  0  0  0  0  0  0
   -0.6615    0.1915    2.1061 O   0  0  0  0  0  0  0  0  0  0  0  0
    0.8796    0.1805   -0.4559 C   0  0  0  0  0  0  0  0  0  0  0  0
    1.8507    0.5594    0.5943 C   0  0  0  0  0  0  0  0  0  0  0  0
    2.6282   -0.5569    0.1213 O   0  0  0  0  0  0  0  0  0  0  0  0
    1.3889   -1.1785   -0.1155 C   0  0  0  0  0  0  0  0  0  0  0  0
    1.0293   -2.3643   -0.0328 O   0  0  0  0  0  0  0  0  0  0  0  0
   -2.3448   -0.0203   -1.4829 H   0  0  0  0  0  0  0  0  0  0  0  0
   -0.8757    0.4518   -2.4461 H   0  0  0  0  0  0  0  0  0  0  0  0
   -1.0305   -1.1994   -1.6720 H   0  0  0  0  0  0  0  0  0  0  0  0
   -0.7539    1.5078   -0.2435 H   0  0  0  0  0  0  0  0  0  0  0  0
   -2.2804    0.1528    0.9155 H   0  0  0  0  0  0  0  0  0  0  0  0
   -1.2937   -1.3162    0.8465 H   0  0  0  0  0  0  0  0  0  0  0  0
   -0.8261    1.1795    2.1980 H   0  0  0  0  0  0  0  0  0  0  0  0
    1.2450    0.4938   -1.4538 H   0  0  0  0  0  0  0  0  0  0  0  0
    2.4546    1.4726    0.4138 H   0  0  0  0  0  0  0  0  0  0  0  0
    1.6088    0.3500    1.6487 H   0  0  0  0  0  0  0  0  0  0  0  0
  1  2  1  0
  2  3  1  0
  3  4  1  0
  2  5  1  0
  5  6  1  0
  6  7  1  0
  7  8  1  0
  8  9  2  0
  8  5  1  0
  1 10  1  0
  1 11  1  0
  1 12  1  0
  2 13  1  0
  3 14  1  0
  3 15  1  0
  4 16  1  0
  5 17  1  0
  6 18  1  0
  6 19  1  0
M  END
