
     RDKit          3D

 20 20  0  0  0  0  0  0  0  0999 V2000
   -1.5484   -0.8787    0.3866 C   0  0  0  0  0  0  0  0  0  0  0  0
   -0.6282    0.1577   -0.1860 C   0  0  0  0  0  0  0  0  0  0  0  0
   -0.7465    1.4075    0.6500 C   0  0  0  0  0  0  0  0  0  0  0  0
   -1.1109    0.4602   -1.4786 O   0  0  0  0  0  0  0  0  0  0  0  0
    0.7848   -0.3076   -0.3512 C   0  0  0  0  0  0  0  0  0  0  0  0
    1.8046    0.8015   -0.4728 C   0  0  0  0  0  0  0  0  0  0  0  0
    1.2794   -1.5790    0.1830 C   0  0  0  0  0  0  0  0  0  0  0  0
    0.9106   -1.4392   -1.1546 O   0  0  0  0  0  0  0  0  0  0  0  0
   -1.8002   -1.6652   -0.3769 H   0  0  0  0  0  0  0  0  0  0  0  0
   -2.5016   -0.3337    0.6558 H   0  0  0  0  0  0  0  0  0  0  0  0
   -1.1991   -1.3402    1.3115 H   0  0  0  0  0  0  0  0  0  0  0  0
   -1.7399    1.4100    1.1845 H   0  0  0  0  0  0  0  0  0  0  0  0
   -0.7297    2.3298    0.0149 H   0  0  0  0  0  0  0  0  0  0  0  0
    0.0464    1.4631    1.4197 H   0  0  0  0  0  0  0  0  0  0  0  0
   -2.0441    0.2167   -1.5896 H   0  0  0  0  0  0  0  0  0  0  0  0
    2.7375    0.3474   -0.9043 H   0  0  0  0  0  0  0  0  0  0  0  0
    2.0511    1.1316    0.5583 H   0  0  0  0  0  0  0  0  0  0  0  0
    1.4475    1.6578   -1.0503 H   0  0  0  0  0  0  0  0  0  0  0  0
    0.6285   -2.1330    0.8727 H   0  0  0  0  0  0  0  0  0  0  0  0
    2.3582   -1.7067    0.3276 H   0  0  0  0  0  0  0  0  0  0  0  0
  1  2  1  0
  2  3  1  0
  2  4  1  0
  2  5  1  0
  5  6  1  0
  5  7  1  0
  7  8  1  0
  8  5  1  0
  1  9  1  0
  1 10  1  0
  1 11  1  0
  3 12  1  0
  3 13  1  0
  3 14  1  0
  4 15  1  0
  6 16  1  0
  6 17  1  0
  6 18  1  0
  7 19  1  0
  7 20  1  0
M  END
