
     RDKit          3D

 21 20  0  0  0  0  0  0  0  0999 V2000
   -1.6729   -0.8142   -0.4740 C   0  0  0  0  0  0  0  0  0  0  0  0
   -1.2909    0.2507    0.5309 C   0  0  0  0  0  0  0  0  0  0  0  0
   -2.5032    1.1261    0.7727 C   0  0  0  0  0  0  0  0  0  0  0  0
   -0.9095   -0.3219    1.7444 O   0  0  0  0  0  0  0  0  0  0  0  0
   -0.1975    1.1517   -0.0157 C   0  0  0  0  0  0  0  0  0  0  0  0
    0.9596    0.3007   -0.3029 C   0  0  0  0  0  0  0  0  0  0  0  0
    1.9232   -0.4139   -0.5325 C   0  0  0  0  0  0  0  0  0  0  0  0
    3.0935   -1.2520   -0.7997 C   0  0  0  0  0  0  0  0  0  0  0  0
    4.1095   -0.8429    0.0626 O   0  0  0  0  0  0  0  0  0  0  0  0
   -1.4165   -1.8248   -0.0912 H   0  0  0  0  0  0  0  0  0  0  0  0
   -1.1659   -0.5966   -1.4244 H   0  0  0  0  0  0  0  0  0  0  0  0
   -2.7689   -0.7989   -0.6946 H   0  0  0  0  0  0  0  0  0  0  0  0
   -3.2661    0.6440    1.4035 H   0  0  0  0  0  0  0  0  0  0  0  0
   -2.9441    1.3393   -0.2368 H   0  0  0  0  0  0  0  0  0  0  0  0
   -2.1701    2.1034    1.1708 H   0  0  0  0  0  0  0  0  0  0  0  0
    0.0900   -0.1980    1.8091 H   0  0  0  0  0  0  0  0  0  0  0  0
   -0.5725    1.5924   -0.9592 H   0  0  0  0  0  0  0  0  0  0  0  0
    0.0327    1.9063    0.7592 H   0  0  0  0  0  0  0  0  0  0  0  0
    2.8713   -2.3302   -0.6791 H   0  0  0  0  0  0  0  0  0  0  0  0
    3.4682   -1.1290   -1.8444 H   0  0  0  0  0  0  0  0  0  0  0  0
    4.3301    0.1078   -0.1987 H   0  0  0  0  0  0  0  0  0  0  0  0
  1  2  1  0
  2  3  1  0
  2  4  1  0
  2  5  1  0
  5  6  1  0
  6  7  3  0
  7  8  1  0
  8  9  1  0
  1 10  1  0
  1 11  1  0
  1 12  1  0
  3 13  1  0
  3 14  1  0
  3 15  1  0
  4 16  1  0
  5 17  1  0
  5 18  1  0
  8 19  1  0
  8 20  1  0
  9 21  1  0
M  END
