
     RDKit          3D

 21 21  0  0  0  0  0  0  0  0999 V2000
   -1.7580   -0.5289   -1.2807 C   0  0  0  0  0  0  0  0  0  0  0  0
   -0.9252   -0.6125   -0.0043 C   0  0  0  0  0  0  0  0  0  0  0  0
   -1.3544    0.4654    0.9255 C   0  0  0  0  0  0  0  0  0  0  0  0
   -1.2049    1.7413    0.4202 O   0  0  0  0  0  0  0  0  0  0  0  0
    0.5015   -0.6143   -0.3832 C   0  0  0  0  0  0  0  0  0  0  0  0
    1.0001    0.4595   -1.0754 O   0  0  0  0  0  0  0  0  0  0  0  0
    2.2710    0.0584   -0.5988 C   0  0  0  0  0  0  0  0  0  0  0  0
    1.5242   -0.3510    0.6815 C   0  0  0  0  0  0  0  0  0  0  0  0
    1.3462    0.7483    1.4728 O   0  0  0  0  0  0  0  0  0  0  0  0
   -2.3516    0.4162   -1.3161 H   0  0  0  0  0  0  0  0  0  0  0  0
   -2.4960   -1.3549   -1.3458 H   0  0  0  0  0  0  0  0  0  0  0  0
   -1.1061   -0.4947   -2.1878 H   0  0  0  0  0  0  0  0  0  0  0  0
   -1.1698   -1.5891    0.4624 H   0  0  0  0  0  0  0  0  0  0  0  0
   -0.9069    0.3372    1.9374 H   0  0  0  0  0  0  0  0  0  0  0  0
   -2.4640    0.3268    1.0937 H   0  0  0  0  0  0  0  0  0  0  0  0
   -1.1749    2.3551    1.2220 H   0  0  0  0  0  0  0  0  0  0  0  0
    0.7638   -1.5609   -0.9190 H   0  0  0  0  0  0  0  0  0  0  0  0
    2.9888    0.8629   -0.4697 H   0  0  0  0  0  0  0  0  0  0  0  0
    2.6375   -0.8806   -1.0746 H   0  0  0  0  0  0  0  0  0  0  0  0
    1.8935   -1.2683    1.1464 H   0  0  0  0  0  0  0  0  0  0  0  0
    1.9853    1.4841    1.2935 H   0  0  0  0  0  0  0  0  0  0  0  0
  1  2  1  0
  2  3  1  0
  3  4  1  0
  2  5  1  0
  5  6  1  0
  6  7  1  0
  7  8  1  0
  8  9  1  0
  8  5  1  0
  1 10  1  0
  1 11  1  0
  1 12  1  0
  2 13  1  0
  3 14  1  0
  3 15  1  0
  4 16  1  0
  5 17  1  0
  7 18  1  0
  7 19  1  0
  8 20  1  0
  9 21  1  0
M  END
