
     RDKit          3D

 25 25  0  0  0  0  0  0  0  0999 V2000
    2.5042    0.7530   -0.2411 C   0  0  0  0  0  0  0  0  0  0  0  0
    1.3536    0.2724    0.6538 C   0  0  0  0  0  0  0  0  0  0  0  0
    1.5815   -1.1746    0.8819 C   0  0  0  0  0  0  0  0  0  0  0  0
    0.0948    0.6835   -0.0025 C   0  0  0  0  0  0  0  0  0  0  0  0
   -0.2400    0.1792   -1.3926 C   0  0  0  0  0  0  0  0  0  0  0  0
   -1.1322   -0.0751   -0.1557 C   0  0  0  0  0  0  0  0  0  0  0  0
   -1.2976   -1.5353    0.1403 C   0  0  0  0  0  0  0  0  0  0  0  0
   -2.4484    0.7187   -0.1739 C   0  0  0  0  0  0  0  0  0  0  0  0
   -2.5315    1.3835    1.0333 O   0  0  0  0  0  0  0  0  0  0  0  0
    2.9245    1.6976    0.1273 H   0  0  0  0  0  0  0  0  0  0  0  0
    2.1311    0.9329   -1.2874 H   0  0  0  0  0  0  0  0  0  0  0  0
    3.3184    0.0229   -0.2998 H   0  0  0  0  0  0  0  0  0  0  0  0
    1.4782    0.8051    1.6159 H   0  0  0  0  0  0  0  0  0  0  0  0
    1.7997   -1.7161   -0.0848 H   0  0  0  0  0  0  0  0  0  0  0  0
    0.8884   -1.6928    1.5391 H   0  0  0  0  0  0  0  0  0  0  0  0
    2.5810   -1.2390    1.4159 H   0  0  0  0  0  0  0  0  0  0  0  0
   -0.0425    1.8105    0.0616 H   0  0  0  0  0  0  0  0  0  0  0  0
    0.3254   -0.6638   -1.8101 H   0  0  0  0  0  0  0  0  0  0  0  0
   -0.6204    0.8759   -2.1504 H   0  0  0  0  0  0  0  0  0  0  0  0
   -2.2585   -1.8908   -0.3448 H   0  0  0  0  0  0  0  0  0  0  0  0
   -0.5277   -2.1783   -0.3297 H   0  0  0  0  0  0  0  0  0  0  0  0
   -1.4739   -1.7560    1.2189 H   0  0  0  0  0  0  0  0  0  0  0  0
   -2.4337    1.4548   -1.0233 H   0  0  0  0  0  0  0  0  0  0  0  0
   -3.2614    0.0013   -0.2542 H   0  0  0  0  0  0  0  0  0  0  0  0
   -2.7131    2.3307    0.8622 H   0  0  0  0  0  0  0  0  0  0  0  0
  1  2  1  0
  2  3  1  0
  2  4  1  0
  4  5  1  0
  5  6  1  0
  6  7  1  0
  6  8  1  0
  8  9  1  0
  6  4  1  0
  1 10  1  0
  1 11  1  0
  1 12  1  0
  2 13  1  0
  3 14  1  0
  3 15  1  0
  3 16  1  0
  4 17  1  0
  5 18  1  0
  5 19  1  0
  7 20  1  0
  7 21  1  0
  7 22  1  0
  8 23  1  0
  8 24  1  0
  9 25  1  0
M  END
