
     RDKit          3D

 23 23  0  0  0  0  0  0  0  0999 V2000
   -1.7578    0.0290   -1.2103 C   0  0  0  0  0  0  0  0  0  0  0  0
   -0.7951    0.5448   -0.1924 C   0  0  0  0  0  0  0  0  0  0  0  0
   -1.4754    0.4710    1.1684 C   0  0  0  0  0  0  0  0  0  0  0  0
    0.4713   -0.2435   -0.1035 C   0  0  0  0  0  0  0  0  0  0  0  0
    1.4793    0.2256    0.9017 C   0  0  0  0  0  0  0  0  0  0  0  0
    1.9559    1.5972    0.6780 C   0  0  0  0  0  0  0  0  0  0  0  0
    2.7666    2.0748    1.4261 O   0  0  0  0  0  0  0  0  0  0  0  0
    1.0009   -1.0045   -1.2601 C   0  0  0  0  0  0  0  0  0  0  0  0
    0.2647   -1.7605   -0.2158 C   0  0  0  0  0  0  0  0  0  0  0  0
   -2.2806   -0.8922   -0.9258 H   0  0  0  0  0  0  0  0  0  0  0  0
   -2.5631    0.8114   -1.3257 H   0  0  0  0  0  0  0  0  0  0  0  0
   -1.2801   -0.0383   -2.2257 H   0  0  0  0  0  0  0  0  0  0  0  0
   -0.6313    1.6218   -0.3926 H   0  0  0  0  0  0  0  0  0  0  0  0
   -2.5531    0.3087    1.0580 H   0  0  0  0  0  0  0  0  0  0  0  0
   -1.0530   -0.3503    1.7814 H   0  0  0  0  0  0  0  0  0  0  0  0
   -1.3329    1.4127    1.7458 H   0  0  0  0  0  0  0  0  0  0  0  0
    1.1035    0.0922    1.9383 H   0  0  0  0  0  0  0  0  0  0  0  0
    2.3792   -0.4461    0.8193 H   0  0  0  0  0  0  0  0  0  0  0  0
    1.5889    2.1710   -0.1412 H   0  0  0  0  0  0  0  0  0  0  0  0
    2.0960   -1.1877   -1.3009 H   0  0  0  0  0  0  0  0  0  0  0  0
    0.5552   -0.9286   -2.2714 H   0  0  0  0  0  0  0  0  0  0  0  0
   -0.7209   -2.1393   -0.4980 H   0  0  0  0  0  0  0  0  0  0  0  0
    0.7817   -2.3691    0.5465 H   0  0  0  0  0  0  0  0  0  0  0  0
  1  2  1  0
  2  3  1  0
  2  4  1  0
  4  5  1  0
  5  6  1  0
  6  7  2  0
  4  8  1  0
  8  9  1  0
  9  4  1  0
  1 10  1  0
  1 11  1  0
  1 12  1  0
  2 13  1  0
  3 14  1  0
  3 15  1  0
  3 16  1  0
  5 17  1  0
  5 18  1  0
  6 19  1  0
  8 20  1  0
  8 21  1  0
  9 22  1  0
  9 23  1  0
M  END
