
     RDKit          3D

 25 26  0  0  0  0  0  0  0  0999 V2000
   -1.7838   -1.2271    0.2381 C   0  0  0  0  0  0  0  0  0  0  0  0
   -1.4996    0.0571   -0.4322 C   0  0  0  0  0  0  0  0  0  0  0  0
   -2.7458    0.9202   -0.3890 C   0  0  0  0  0  0  0  0  0  0  0  0
   -0.3585    0.8438    0.0932 C   0  0  0  0  0  0  0  0  0  0  0  0
    0.9682    0.2447    0.0753 C   0  0  0  0  0  0  0  0  0  0  0  0
    2.1312    1.0267    0.6028 C   0  0  0  0  0  0  0  0  0  0  0  0
    2.8547   -0.2947    0.8230 C   0  0  0  0  0  0  0  0  0  0  0  0
    1.5400   -0.9739    0.4114 C   0  0  0  0  0  0  0  0  0  0  0  0
    1.2180   -0.7798   -1.0277 C   0  0  0  0  0  0  0  0  0  0  0  0
   -2.8158   -1.2426    0.6471 H   0  0  0  0  0  0  0  0  0  0  0  0
   -1.7357   -2.0777   -0.4712 H   0  0  0  0  0  0  0  0  0  0  0  0
   -1.1173   -1.3557    1.1099 H   0  0  0  0  0  0  0  0  0  0  0  0
   -1.3310   -0.1487   -1.5294 H   0  0  0  0  0  0  0  0  0  0  0  0
   -3.6645    0.3466   -0.2188 H   0  0  0  0  0  0  0  0  0  0  0  0
   -2.8234    1.5915   -1.2723 H   0  0  0  0  0  0  0  0  0  0  0  0
   -2.6237    1.5829    0.5174 H   0  0  0  0  0  0  0  0  0  0  0  0
   -0.6034    1.1417    1.1563 H   0  0  0  0  0  0  0  0  0  0  0  0
   -0.3346    1.8116   -0.4562 H   0  0  0  0  0  0  0  0  0  0  0  0
    2.5754    1.6452   -0.2092 H   0  0  0  0  0  0  0  0  0  0  0  0
    1.8634    1.5619    1.5170 H   0  0  0  0  0  0  0  0  0  0  0  0
    3.1259   -0.5076    1.8736 H   0  0  0  0  0  0  0  0  0  0  0  0
    3.6135   -0.5256    0.0649 H   0  0  0  0  0  0  0  0  0  0  0  0
    1.2159   -1.8711    0.8980 H   0  0  0  0  0  0  0  0  0  0  0  0
    0.3407   -1.3095   -1.3954 H   0  0  0  0  0  0  0  0  0  0  0  0
    1.9901   -0.4598   -1.7578 H   0  0  0  0  0  0  0  0  0  0  0  0
  1  2  1  0
  2  3  1  0
  2  4  1  0
  4  5  1  0
  5  6  1  0
  6  7  1  0
  7  8  1  0
  8  9  1  0
  8  5  1  0
  9  5  1  0
  1 10  1  0
  1 11  1  0
  1 12  1  0
  2 13  1  0
  3 14  1  0
  3 15  1  0
  3 16  1  0
  4 17  1  0
  4 18  1  0
  6 19  1  0
  6 20  1  0
  7 21  1  0
  7 22  1  0
  8 23  1  0
  9 24  1  0
  9 25  1  0
M  END
