
     RDKit          3D

 21 21  0  0  0  0  0  0  0  0999 V2000
   -1.3032   -1.2745   -0.0620 C   0  0  0  0  0  0  0  0  0  0  0  0
   -0.5690    0.0157   -0.3231 C   0  0  0  0  0  0  0  0  0  0  0  0
   -1.3080    0.7000   -1.4259 C   0  0  0  0  0  0  0  0  0  0  0  0
   -2.2598    1.4348   -1.2360 O   0  0  0  0  0  0  0  0  0  0  0  0
   -0.6712    0.9394    0.8687 C   0  0  0  0  0  0  0  0  0  0  0  0
   -0.1405    0.4074    2.0218 O   0  0  0  0  0  0  0  0  0  0  0  0
    0.8607   -0.2091   -0.7556 C   0  0  0  0  0  0  0  0  0  0  0  0
    1.8035   -0.9367    0.1631 C   0  0  0  0  0  0  0  0  0  0  0  0
    1.9822    0.5332   -0.1677 C   0  0  0  0  0  0  0  0  0  0  0  0
   -0.9843   -1.7815    0.8604 H   0  0  0  0  0  0  0  0  0  0  0  0
   -1.2229   -1.8967   -0.9610 H   0  0  0  0  0  0  0  0  0  0  0  0
   -2.3912   -0.9949    0.0392 H   0  0  0  0  0  0  0  0  0  0  0  0
   -0.9642    0.5198   -2.4321 H   0  0  0  0  0  0  0  0  0  0  0  0
   -0.2069    1.9121    0.6095 H   0  0  0  0  0  0  0  0  0  0  0  0
   -1.7529    1.1406    1.0203 H   0  0  0  0  0  0  0  0  0  0  0  0
   -0.5754    0.7353    2.8361 H   0  0  0  0  0  0  0  0  0  0  0  0
    0.9786   -0.5003   -1.8253 H   0  0  0  0  0  0  0  0  0  0  0  0
    2.5974   -1.5833   -0.2607 H   0  0  0  0  0  0  0  0  0  0  0  0
    1.4278   -1.2184    1.1567 H   0  0  0  0  0  0  0  0  0  0  0  0
    1.8577    1.2280    0.6913 H   0  0  0  0  0  0  0  0  0  0  0  0
    2.8415    0.8290   -0.8180 H   0  0  0  0  0  0  0  0  0  0  0  0
  1  2  1  0
  2  3  1  0
  3  4  2  0
  2  5  1  0
  5  6  1  0
  2  7  1  0
  7  8  1  0
  8  9  1  0
  9  7  1  0
  1 10  1  0
  1 11  1  0
  1 12  1  0
  3 13  1  0
  5 14  1  0
  5 15  1  0
  6 16  1  0
  7 17  1  0
  8 18  1  0
  8 19  1  0
  9 20  1  0
  9 21  1  0
M  END
