
     RDKit          3D

 23 24  0  0  0  0  0  0  0  0999 V2000
   -1.9179   -1.3600    0.2876 C   0  0  0  0  0  0  0  0  0  0  0  0
   -1.3327   -0.0675   -0.1864 C   0  0  0  0  0  0  0  0  0  0  0  0
   -1.3477    0.9755    0.9239 C   0  0  0  0  0  0  0  0  0  0  0  0
   -0.0140   -0.1718   -0.8303 C   0  0  0  0  0  0  0  0  0  0  0  0
    0.6631    1.0526   -1.3402 C   0  0  0  0  0  0  0  0  0  0  0  0
    1.2759    0.1522   -0.3379 C   0  0  0  0  0  0  0  0  0  0  0  0
    1.6819    0.6581    0.9827 C   0  0  0  0  0  0  0  0  0  0  0  0
    1.7179   -1.1906   -0.8449 C   0  0  0  0  0  0  0  0  0  0  0  0
    0.4172   -1.3773   -1.3545 O   0  0  0  0  0  0  0  0  0  0  0  0
   -2.5790   -1.2090    1.1767 H   0  0  0  0  0  0  0  0  0  0  0  0
   -2.5663   -1.8445   -0.4865 H   0  0  0  0  0  0  0  0  0  0  0  0
   -1.1401   -2.1027    0.5331 H   0  0  0  0  0  0  0  0  0  0  0  0
   -2.0575    0.3398   -0.9562 H   0  0  0  0  0  0  0  0  0  0  0  0
   -2.4222    1.1343    1.2338 H   0  0  0  0  0  0  0  0  0  0  0  0
   -1.0274    1.9239    0.4824 H   0  0  0  0  0  0  0  0  0  0  0  0
   -0.8216    0.6594    1.8215 H   0  0  0  0  0  0  0  0  0  0  0  0
    1.1035    0.9879   -2.3610 H   0  0  0  0  0  0  0  0  0  0  0  0
    0.3835    2.0510   -0.9850 H   0  0  0  0  0  0  0  0  0  0  0  0
    1.2589    1.6516    1.1552 H   0  0  0  0  0  0  0  0  0  0  0  0
    2.8032    0.8070    0.9676 H   0  0  0  0  0  0  0  0  0  0  0  0
    1.4776   -0.0244    1.8314 H   0  0  0  0  0  0  0  0  0  0  0  0
    1.9533   -1.9505   -0.0710 H   0  0  0  0  0  0  0  0  0  0  0  0
    2.4906   -1.0951   -1.6418 H   0  0  0  0  0  0  0  0  0  0  0  0
  1  2  1  0
  2  3  1  0
  2  4  1  0
  4  5  1  0
  5  6  1  0
  6  7  1  0
  6  8  1  0
  8  9  1  0
  6  4  1  0
  9  4  1  0
  1 10  1  0
  1 11  1  0
  1 12  1  0
  2 13  1  0
  3 14  1  0
  3 15  1  0
  3 16  1  0
  5 17  1  0
  5 18  1  0
  7 19  1  0
  7 20  1  0
  7 21  1  0
  8 22  1  0
  8 23  1  0
M  END
