
     RDKit          3D

 25 24  0  0  0  0  0  0  0  0999 V2000
    0.9347   -1.5077   -0.4917 C   0  0  0  0  0  0  0  0  0  0  0  0
    0.6959   -0.1149   -0.0145 C   0  0  0  0  0  0  0  0  0  0  0  0
    1.1840   -0.0597    1.4396 C   0  0  0  0  0  0  0  0  0  0  0  0
    1.5256    0.8683   -0.7781 C   0  0  0  0  0  0  0  0  0  0  0  0
   -0.7662    0.2614   -0.0495 C   0  0  0  0  0  0  0  0  0  0  0  0
   -1.5461   -0.6936    0.8511 C   0  0  0  0  0  0  0  0  0  0  0  0
   -1.3245    0.1331   -1.4251 C   0  0  0  0  0  0  0  0  0  0  0  0
   -0.9874    1.6187    0.4452 C   0  0  0  0  0  0  0  0  0  0  0  0
   -2.0729    2.1399    0.3163 O   0  0  0  0  0  0  0  0  0  0  0  0
    0.8613   -2.2168    0.3846 H   0  0  0  0  0  0  0  0  0  0  0  0
    2.0078   -1.6134   -0.8246 H   0  0  0  0  0  0  0  0  0  0  0  0
    0.2406   -1.8748   -1.2453 H   0  0  0  0  0  0  0  0  0  0  0  0
    0.4873   -0.5979    2.1018 H   0  0  0  0  0  0  0  0  0  0  0  0
    2.1699   -0.5698    1.4323 H   0  0  0  0  0  0  0  0  0  0  0  0
    1.3746    0.9825    1.7608 H   0  0  0  0  0  0  0  0  0  0  0  0
    2.5823    0.4685   -0.7720 H   0  0  0  0  0  0  0  0  0  0  0  0
    1.1879    1.0739   -1.7930 H   0  0  0  0  0  0  0  0  0  0  0  0
    1.5997    1.8100   -0.1595 H   0  0  0  0  0  0  0  0  0  0  0  0
   -1.1737   -1.7247    0.7830 H   0  0  0  0  0  0  0  0  0  0  0  0
   -1.5195   -0.2779    1.8793 H   0  0  0  0  0  0  0  0  0  0  0  0
   -2.6206   -0.6349    0.5310 H   0  0  0  0  0  0  0  0  0  0  0  0
   -2.3521    0.6027   -1.4065 H   0  0  0  0  0  0  0  0  0  0  0  0
   -1.5131   -0.9318   -1.6882 H   0  0  0  0  0  0  0  0  0  0  0  0
   -0.7718    0.6845   -2.2035 H   0  0  0  0  0  0  0  0  0  0  0  0
   -0.2038    2.1742    0.9263 H   0  0  0  0  0  0  0  0  0  0  0  0
  1  2  1  0
  2  3  1  0
  2  4  1  0
  2  5  1  0
  5  6  1  0
  5  7  1  0
  5  8  1  0
  8  9  2  0
  1 10  1  0
  1 11  1  0
  1 12  1  0
  3 13  1  0
  3 14  1  0
  3 15  1  0
  4 16  1  0
  4 17  1  0
  4 18  1  0
  6 19  1  0
  6 20  1  0
  6 21  1  0
  7 22  1  0
  7 23  1  0
  7 24  1  0
  8 25  1  0
M  END
