
     RDKit          3D

 25 26  0  0  0  0  0  0  0  0999 V2000
    2.1858    0.3482   -1.0654 C   0  0  0  0  0  0  0  0  0  0  0  0
    1.0608    0.6927   -0.0772 C   0  0  0  0  0  0  0  0  0  0  0  0
    1.6106    0.4850    1.3005 C   0  0  0  0  0  0  0  0  0  0  0  0
   -0.1112   -0.1001   -0.4358 C   0  0  0  0  0  0  0  0  0  0  0  0
   -0.1599   -1.5893   -0.4646 C   0  0  0  0  0  0  0  0  0  0  0  0
   -1.5821   -1.5264    0.0844 C   0  0  0  0  0  0  0  0  0  0  0  0
   -1.4362   -0.0347    0.1488 C   0  0  0  0  0  0  0  0  0  0  0  0
   -1.7622    0.7256    1.3850 C   0  0  0  0  0  0  0  0  0  0  0  0
   -1.2164    0.6316   -1.1574 C   0  0  0  0  0  0  0  0  0  0  0  0
    2.9992    1.0771   -0.9729 H   0  0  0  0  0  0  0  0  0  0  0  0
    2.5146   -0.6863   -0.7555 H   0  0  0  0  0  0  0  0  0  0  0  0
    1.7567    0.2572   -2.0651 H   0  0  0  0  0  0  0  0  0  0  0  0
    0.8511    1.7736   -0.2059 H   0  0  0  0  0  0  0  0  0  0  0  0
    2.7021    0.2814    1.2953 H   0  0  0  0  0  0  0  0  0  0  0  0
    1.4979    1.4058    1.9464 H   0  0  0  0  0  0  0  0  0  0  0  0
    1.1357   -0.3342    1.8561 H   0  0  0  0  0  0  0  0  0  0  0  0
   -0.1478   -2.0126   -1.4993 H   0  0  0  0  0  0  0  0  0  0  0  0
    0.4733   -2.1326    0.2320 H   0  0  0  0  0  0  0  0  0  0  0  0
   -1.7219   -1.9662    1.0745 H   0  0  0  0  0  0  0  0  0  0  0  0
   -2.3471   -1.8014   -0.6767 H   0  0  0  0  0  0  0  0  0  0  0  0
   -2.5850    1.4736    1.1837 H   0  0  0  0  0  0  0  0  0  0  0  0
   -0.8940    1.2335    1.8556 H   0  0  0  0  0  0  0  0  0  0  0  0
   -2.1066   -0.0230    2.1566 H   0  0  0  0  0  0  0  0  0  0  0  0
   -1.1808    1.7190   -1.2662 H   0  0  0  0  0  0  0  0  0  0  0  0
   -1.5365    0.1028   -2.0949 H   0  0  0  0  0  0  0  0  0  0  0  0
  1  2  1  0
  2  3  1  0
  2  4  1  0
  4  5  1  0
  5  6  1  0
  6  7  1  0
  7  8  1  0
  7  9  1  0
  7  4  1  0
  9  4  1  0
  1 10  1  0
  1 11  1  0
  1 12  1  0
  2 13  1  0
  3 14  1  0
  3 15  1  0
  3 16  1  0
  5 17  1  0
  5 18  1  0
  6 19  1  0
  6 20  1  0
  8 21  1  0
  8 22  1  0
  8 23  1  0
  9 24  1  0
  9 25  1  0
M  END
