
     RDKit          3D

 21 20  0  0  0  0  0  0  0  0999 V2000
   -1.7550   -1.0130   -0.1531 C   0  0  0  0  0  0  0  0  0  0  0  0
   -0.6181   -0.0188   -0.0071 C   0  0  0  0  0  0  0  0  0  0  0  0
   -1.0910    1.3245   -0.4452 C   0  0  0  0  0  0  0  0  0  0  0  0
   -0.3023    0.0501    1.4828 C   0  0  0  0  0  0  0  0  0  0  0  0
    0.5499   -0.5455   -0.7959 C   0  0  0  0  0  0  0  0  0  0  0  0
    1.7360    0.2928   -0.7651 C   0  0  0  0  0  0  0  0  0  0  0  0
    1.8032    1.3003   -1.5014 O   0  0  0  0  0  0  0  0  0  0  0  0
    2.8530   -0.0158    0.1080 C   0  0  0  0  0  0  0  0  0  0  0  0
    2.8281   -1.0259    0.8690 O   0  0  0  0  0  0  0  0  0  0  0  0
   -1.5749   -1.7296   -0.9872 H   0  0  0  0  0  0  0  0  0  0  0  0
   -1.9104   -1.6141    0.7527 H   0  0  0  0  0  0  0  0  0  0  0  0
   -2.7225   -0.4847   -0.3650 H   0  0  0  0  0  0  0  0  0  0  0  0
   -1.8742    1.2258   -1.2332 H   0  0  0  0  0  0  0  0  0  0  0  0
   -0.3070    2.0059   -0.7953 H   0  0  0  0  0  0  0  0  0  0  0  0
   -1.5947    1.8539    0.4168 H   0  0  0  0  0  0  0  0  0  0  0  0
    0.4969    0.7868    1.6879 H   0  0  0  0  0  0  0  0  0  0  0  0
   -1.2531    0.2677    2.0130 H   0  0  0  0  0  0  0  0  0  0  0  0
    0.0091   -0.9624    1.8105 H   0  0  0  0  0  0  0  0  0  0  0  0
    0.7522   -1.5792   -0.4058 H   0  0  0  0  0  0  0  0  0  0  0  0
    0.2194   -0.7023   -1.8486 H   0  0  0  0  0  0  0  0  0  0  0  0
    3.7554    0.5834    0.1623 H   0  0  0  0  0  0  0  0  0  0  0  0
  1  2  1  0
  2  3  1  0
  2  4  1  0
  2  5  1  0
  5  6  1  0
  6  7  2  0
  6  8  1  0
  8  9  2  0
  1 10  1  0
  1 11  1  0
  1 12  1  0
  3 13  1  0
  3 14  1  0
  3 15  1  0
  4 16  1  0
  4 17  1  0
  4 18  1  0
  5 19  1  0
  5 20  1  0
  8 21  1  0
M  END
