
     RDKit          3D

 21 22  0  0  0  0  0  0  0  0999 V2000
   -1.7864    1.0454    0.2369 C   0  0  0  0  0  0  0  0  0  0  0  0
   -0.8780   -0.0051   -0.3602 C   0  0  0  0  0  0  0  0  0  0  0  0
   -1.6603   -1.2677   -0.5590 C   0  0  0  0  0  0  0  0  0  0  0  0
    0.2759   -0.1930    0.6215 C   0  0  0  0  0  0  0  0  0  0  0  0
    1.2319   -1.2020    0.1396 C   0  0  0  0  0  0  0  0  0  0  0  0
    2.2913   -0.6087   -0.3415 C   0  0  0  0  0  0  0  0  0  0  0  0
    2.1620    0.8652   -0.2339 C   0  0  0  0  0  0  0  0  0  0  0  0
    2.2896    1.2015    1.2103 O   0  0  0  0  0  0  0  0  0  0  0  0
    1.0497    1.0946    0.5873 C   0  0  0  0  0  0  0  0  0  0  0  0
   -1.4924    2.0696    0.0049 H   0  0  0  0  0  0  0  0  0  0  0  0
   -2.8355    0.9088   -0.1497 H   0  0  0  0  0  0  0  0  0  0  0  0
   -1.8410    0.8348    1.3370 H   0  0  0  0  0  0  0  0  0  0  0  0
   -0.4198    0.3096   -1.3154 H   0  0  0  0  0  0  0  0  0  0  0  0
   -1.0092   -2.1326   -0.8171 H   0  0  0  0  0  0  0  0  0  0  0  0
   -2.3101   -1.4900    0.3064 H   0  0  0  0  0  0  0  0  0  0  0  0
   -2.3225   -1.1158   -1.4340 H   0  0  0  0  0  0  0  0  0  0  0  0
   -0.1089   -0.4148    1.6433 H   0  0  0  0  0  0  0  0  0  0  0  0
    1.0333   -2.3045    0.1993 H   0  0  0  0  0  0  0  0  0  0  0  0
    3.1421   -1.1735   -0.7609 H   0  0  0  0  0  0  0  0  0  0  0  0
    2.7172    1.5328   -0.8889 H   0  0  0  0  0  0  0  0  0  0  0  0
    0.4712    2.0456    0.5741 H   0  0  0  0  0  0  0  0  0  0  0  0
  1  2  1  0
  2  3  1  0
  2  4  1  0
  4  5  1  0
  5  6  2  0
  6  7  1  0
  7  8  1  0
  8  9  1  0
  9  4  1  0
  9  7  1  0
  1 10  1  0
  1 11  1  0
  1 12  1  0
  2 13  1  0
  3 14  1  0
  3 15  1  0
  3 16  1  0
  4 17  1  0
  5 18  1  0
  6 19  1  0
  7 20  1  0
  9 21  1  0
M  END
