
     RDKit          3D

 21 20  0  0  0  0  0  0  0  0999 V2000
   -2.2395   -0.5584   -0.7375 C   0  0  0  0  0  0  0  0  0  0  0  0
   -1.2679    0.1629    0.2005 C   0  0  0  0  0  0  0  0  0  0  0  0
   -1.9080    0.1265    1.5759 C   0  0  0  0  0  0  0  0  0  0  0  0
   -0.1002   -0.5395    0.2220 O   0  0  0  0  0  0  0  0  0  0  0  0
    1.0206    0.1168   -0.2003 C   0  0  0  0  0  0  0  0  0  0  0  0
    1.7648   -0.5265   -1.2800 C   0  0  0  0  0  0  0  0  0  0  0  0
    1.4154   -1.5737   -1.7724 O   0  0  0  0  0  0  0  0  0  0  0  0
    2.0109    0.3664    0.9463 C   0  0  0  0  0  0  0  0  0  0  0  0
    3.0882    1.0363    0.3610 O   0  0  0  0  0  0  0  0  0  0  0  0
   -1.8995   -0.5085   -1.7855 H   0  0  0  0  0  0  0  0  0  0  0  0
   -2.3553   -1.6279   -0.4374 H   0  0  0  0  0  0  0  0  0  0  0  0
   -3.2465   -0.1099   -0.7058 H   0  0  0  0  0  0  0  0  0  0  0  0
   -1.2074    1.1908   -0.1526 H   0  0  0  0  0  0  0  0  0  0  0  0
   -2.7013    0.8912    1.6865 H   0  0  0  0  0  0  0  0  0  0  0  0
   -1.1440    0.1937    2.3636 H   0  0  0  0  0  0  0  0  0  0  0  0
   -2.4286   -0.8596    1.7384 H   0  0  0  0  0  0  0  0  0  0  0  0
    0.6879    1.1598   -0.4870 H   0  0  0  0  0  0  0  0  0  0  0  0
    2.6580   -0.0824   -1.6750 H   0  0  0  0  0  0  0  0  0  0  0  0
    1.5141    0.9997    1.6823 H   0  0  0  0  0  0  0  0  0  0  0  0
    2.3818   -0.5984    1.3454 H   0  0  0  0  0  0  0  0  0  0  0  0
    3.9564    0.7406    0.6952 H   0  0  0  0  0  0  0  0  0  0  0  0
  1  2  1  0
  2  3  1  0
  2  4  1  0
  4  5  1  0
  5  6  1  0
  6  7  2  0
  5  8  1  0
  8  9  1  0
  1 10  1  0
  1 11  1  0
  1 12  1  0
  2 13  1  0
  3 14  1  0
  3 15  1  0
  3 16  1  0
  5 17  1  0
  6 18  1  0
  8 19  1  0
  8 20  1  0
  9 21  1  0
M  END
