
     RDKit          3D

 25 25  0  0  0  0  0  0  0  0999 V2000
   -1.4928   -0.9757   -0.7786 C   0  0  0  0  0  0  0  0  0  0  0  0
   -0.9883    0.1383    0.1178 C   0  0  0  0  0  0  0  0  0  0  0  0
   -1.0419   -0.3643    1.5295 C   0  0  0  0  0  0  0  0  0  0  0  0
   -2.0786    1.2237    0.0303 C   0  0  0  0  0  0  0  0  0  0  0  0
    0.2615    0.6976   -0.3603 C   0  0  0  0  0  0  0  0  0  0  0  0
    1.4759   -0.1021   -0.5102 C   0  0  0  0  0  0  0  0  0  0  0  0
    2.6249    0.7957   -1.0426 C   0  0  0  0  0  0  0  0  0  0  0  0
    1.8377   -1.3787   -0.1175 C   0  0  0  0  0  0  0  0  0  0  0  0
    1.3794   -1.1885   -1.5219 O   0  0  0  0  0  0  0  0  0  0  0  0
   -0.7965   -1.7931   -0.9297 H   0  0  0  0  0  0  0  0  0  0  0  0
   -2.4108   -1.3761   -0.2796 H   0  0  0  0  0  0  0  0  0  0  0  0
   -1.8285   -0.5250   -1.7581 H   0  0  0  0  0  0  0  0  0  0  0  0
   -2.1041   -0.3619    1.8651 H   0  0  0  0  0  0  0  0  0  0  0  0
   -0.7572   -1.4458    1.5409 H   0  0  0  0  0  0  0  0  0  0  0  0
   -0.4924    0.2442    2.2458 H   0  0  0  0  0  0  0  0  0  0  0  0
   -2.5913    1.1853   -0.9449 H   0  0  0  0  0  0  0  0  0  0  0  0
   -2.8297    1.1071    0.8170 H   0  0  0  0  0  0  0  0  0  0  0  0
   -1.5558    2.1930    0.2038 H   0  0  0  0  0  0  0  0  0  0  0  0
    0.0618    1.1762   -1.3686 H   0  0  0  0  0  0  0  0  0  0  0  0
    0.5352    1.5908    0.2810 H   0  0  0  0  0  0  0  0  0  0  0  0
    2.6268    1.7266   -0.4295 H   0  0  0  0  0  0  0  0  0  0  0  0
    3.5963    0.3153   -0.9064 H   0  0  0  0  0  0  0  0  0  0  0  0
    2.4245    1.0092   -2.1121 H   0  0  0  0  0  0  0  0  0  0  0  0
    1.2273   -2.2288    0.2610 H   0  0  0  0  0  0  0  0  0  0  0  0
    2.9169   -1.6630   -0.0640 H   0  0  0  0  0  0  0  0  0  0  0  0
  1  2  1  0
  2  3  1  0
  2  4  1  0
  2  5  1  0
  5  6  1  0
  6  7  1  0
  6  8  1  0
  8  9  1  0
  9  6  1  0
  1 10  1  0
  1 11  1  0
  1 12  1  0
  3 13  1  0
  3 14  1  0
  3 15  1  0
  4 16  1  0
  4 17  1  0
  4 18  1  0
  5 19  1  0
  5 20  1  0
  7 21  1  0
  7 22  1  0
  7 23  1  0
  8 24  1  0
  8 25  1  0
M  END
