
     RDKit          3D

 17 16  0  0  0  0  0  0  0  0999 V2000
   -0.9362   -0.5470    1.2998 C   0  0  0  0  0  0  0  0  0  0  0  0
    0.0760   -0.3420    0.1716 C   0  0  0  0  0  0  0  0  0  0  0  0
   -0.4909    0.6235   -0.8611 C   0  0  0  0  0  0  0  0  0  0  0  0
   -1.7352    0.0415   -1.3978 C   0  0  0  0  0  0  0  0  0  0  0  0
   -2.1083   -1.0315   -0.9838 O   0  0  0  0  0  0  0  0  0  0  0  0
    1.3503    0.0947    0.7501 C   0  0  0  0  0  0  0  0  0  0  0  0
    1.4482    0.2627    1.9831 O   0  0  0  0  0  0  0  0  0  0  0  0
    2.5079    0.3388   -0.0775 C   0  0  0  0  0  0  0  0  0  0  0  0
    2.4755    0.1803   -1.3219 O   0  0  0  0  0  0  0  0  0  0  0  0
   -0.4847   -0.2335    2.2751 H   0  0  0  0  0  0  0  0  0  0  0  0
   -1.8794   -0.0084    1.1052 H   0  0  0  0  0  0  0  0  0  0  0  0
   -1.1569   -1.6308    1.3535 H   0  0  0  0  0  0  0  0  0  0  0  0
    0.2347   -1.3043   -0.3860 H   0  0  0  0  0  0  0  0  0  0  0  0
    0.2612    0.7440   -1.6661 H   0  0  0  0  0  0  0  0  0  0  0  0
   -0.6730    1.6236   -0.4209 H   0  0  0  0  0  0  0  0  0  0  0  0
   -2.3519    0.5178   -2.1532 H   0  0  0  0  0  0  0  0  0  0  0  0
    3.4628    0.6707    0.3297 H   0  0  0  0  0  0  0  0  0  0  0  0
  1  2  1  0
  2  3  1  0
  3  4  1  0
  4  5  2  0
  2  6  1  0
  6  7  2  0
  6  8  1  0
  8  9  2  0
  1 10  1  0
  1 11  1  0
  1 12  1  0
  2 13  1  0
  3 14  1  0
  3 15  1  0
  4 16  1  0
  8 17  1  0
M  END
