
     RDKit          3D

 23 22  0  0  0  0  0  0  0  0999 V2000
   -1.9995    0.8289    0.8777 C   0  0  0  0  0  0  0  0  0  0  0  0
   -1.4640    0.3302   -0.4236 C   0  0  0  0  0  0  0  0  0  0  0  0
   -1.7718   -1.1421   -0.5685 C   0  0  0  0  0  0  0  0  0  0  0  0
   -0.0137    0.6426   -0.6277 C   0  0  0  0  0  0  0  0  0  0  0  0
    0.3843    0.1366   -1.8650 O   0  0  0  0  0  0  0  0  0  0  0  0
    0.8822    0.0996    0.4394 C   0  0  0  0  0  0  0  0  0  0  0  0
    0.8713   -1.2755    0.5389 O   0  0  0  0  0  0  0  0  0  0  0  0
    2.3135    0.5119    0.0627 C   0  0  0  0  0  0  0  0  0  0  0  0
    3.2244    0.0985    1.0322 O   0  0  0  0  0  0  0  0  0  0  0  0
   -2.3963   -0.0296    1.4958 H   0  0  0  0  0  0  0  0  0  0  0  0
   -1.2380    1.3595    1.4722 H   0  0  0  0  0  0  0  0  0  0  0  0
   -2.8721    1.5108    0.7601 H   0  0  0  0  0  0  0  0  0  0  0  0
   -2.0274    0.8476   -1.2372 H   0  0  0  0  0  0  0  0  0  0  0  0
   -1.9642   -1.5648    0.4536 H   0  0  0  0  0  0  0  0  0  0  0  0
   -0.9678   -1.7064   -1.0720 H   0  0  0  0  0  0  0  0  0  0  0  0
   -2.7019   -1.3316   -1.1444 H   0  0  0  0  0  0  0  0  0  0  0  0
    0.0871    1.7486   -0.6159 H   0  0  0  0  0  0  0  0  0  0  0  0
    0.7999   -0.7538   -1.6843 H   0  0  0  0  0  0  0  0  0  0  0  0
    0.6209    0.5200    1.4268 H   0  0  0  0  0  0  0  0  0  0  0  0
    1.7083   -1.6549    0.8902 H   0  0  0  0  0  0  0  0  0  0  0  0
    2.3485    1.6000   -0.1200 H   0  0  0  0  0  0  0  0  0  0  0  0
    2.6179    0.0253   -0.8865 H   0  0  0  0  0  0  0  0  0  0  0  0
    3.5584   -0.8013    0.7953 H   0  0  0  0  0  0  0  0  0  0  0  0
  1  2  1  0
  2  3  1  0
  2  4  1  0
  4  5  1  0
  4  6  1  0
  6  7  1  0
  6  8  1  0
  8  9  1  0
  1 10  1  0
  1 11  1  0
  1 12  1  0
  2 13  1  0
  3 14  1  0
  3 15  1  0
  3 16  1  0
  4 17  1  0
  5 18  1  0
  6 19  1  0
  7 20  1  0
  8 21  1  0
  8 22  1  0
  9 23  1  0
M  END
