
     RDKit          3D

 25 25  0  0  0  0  0  0  0  0999 V2000
    1.5671   -1.4477    0.3588 C   0  0  0  0  0  0  0  0  0  0  0  0
    0.8135   -0.4899   -0.5628 C   0  0  0  0  0  0  0  0  0  0  0  0
    1.7250    0.6463   -0.8488 C   0  0  0  0  0  0  0  0  0  0  0  0
    2.1231    1.3442    0.2907 O   0  0  0  0  0  0  0  0  0  0  0  0
   -0.5317   -0.1473   -0.0478 C   0  0  0  0  0  0  0  0  0  0  0  0
   -1.4224   -1.3896    0.1133 C   0  0  0  0  0  0  0  0  0  0  0  0
   -0.6863    0.7387    1.1142 C   0  0  0  0  0  0  0  0  0  0  0  0
   -1.8636    1.4090    0.3920 C   0  0  0  0  0  0  0  0  0  0  0  0
   -1.2919    0.8533   -0.8881 C   0  0  0  0  0  0  0  0  0  0  0  0
    1.7452   -0.9952    1.3403 H   0  0  0  0  0  0  0  0  0  0  0  0
    2.5771   -1.5737   -0.1283 H   0  0  0  0  0  0  0  0  0  0  0  0
    1.1127   -2.4432    0.3864 H   0  0  0  0  0  0  0  0  0  0  0  0
    0.6790   -1.0580   -1.5193 H   0  0  0  0  0  0  0  0  0  0  0  0
    1.3708    1.2961   -1.6470 H   0  0  0  0  0  0  0  0  0  0  0  0
    2.6845    0.1816   -1.2356 H   0  0  0  0  0  0  0  0  0  0  0  0
    2.7940    0.8446    0.8181 H   0  0  0  0  0  0  0  0  0  0  0  0
   -2.4888   -1.0456    0.1649 H   0  0  0  0  0  0  0  0  0  0  0  0
   -1.3017   -1.9894   -0.7974 H   0  0  0  0  0  0  0  0  0  0  0  0
   -1.1667   -1.8921    1.0467 H   0  0  0  0  0  0  0  0  0  0  0  0
   -1.0469    0.2025    2.0367 H   0  0  0  0  0  0  0  0  0  0  0  0
    0.0521    1.4921    1.3532 H   0  0  0  0  0  0  0  0  0  0  0  0
   -1.8763    2.4979    0.4445 H   0  0  0  0  0  0  0  0  0  0  0  0
   -2.8311    0.9857    0.7077 H   0  0  0  0  0  0  0  0  0  0  0  0
   -2.1130    0.4260   -1.4996 H   0  0  0  0  0  0  0  0  0  0  0  0
   -0.6237    1.5538   -1.3928 H   0  0  0  0  0  0  0  0  0  0  0  0
  1  2  1  0
  2  3  1  0
  3  4  1  0
  2  5  1  0
  5  6  1  0
  5  7  1  0
  7  8  1  0
  8  9  1  0
  9  5  1  0
  1 10  1  0
  1 11  1  0
  1 12  1  0
  2 13  1  0
  3 14  1  0
  3 15  1  0
  4 16  1  0
  6 17  1  0
  6 18  1  0
  6 19  1  0
  7 20  1  0
  7 21  1  0
  8 22  1  0
  8 23  1  0
  9 24  1  0
  9 25  1  0
M  END
