
     RDKit          3D

 25 24  0  0  0  0  0  0  0  0999 V2000
   -2.1530    0.3318    0.9051 C   0  0  0  0  0  0  0  0  0  0  0  0
   -1.1101   -0.0202   -0.1796 C   0  0  0  0  0  0  0  0  0  0  0  0
   -1.3057   -1.4268   -0.5779 C   0  0  0  0  0  0  0  0  0  0  0  0
    0.1966    0.4214    0.3168 C   0  0  0  0  0  0  0  0  0  0  0  0
    0.0951    1.9475    0.5563 C   0  0  0  0  0  0  0  0  0  0  0  0
    0.4410   -0.1091    1.6035 O   0  0  0  0  0  0  0  0  0  0  0  0
    1.4104    0.2282   -0.4943 C   0  0  0  0  0  0  0  0  0  0  0  0
    1.7982   -1.1559   -0.8712 C   0  0  0  0  0  0  0  0  0  0  0  0
    2.9981   -1.0978   -1.6326 O   0  0  0  0  0  0  0  0  0  0  0  0
   -2.2395    1.4338    0.9605 H   0  0  0  0  0  0  0  0  0  0  0  0
   -3.1315   -0.0241    0.4839 H   0  0  0  0  0  0  0  0  0  0  0  0
   -1.9120   -0.1550    1.8536 H   0  0  0  0  0  0  0  0  0  0  0  0
   -1.4395    0.6140   -1.0544 H   0  0  0  0  0  0  0  0  0  0  0  0
   -2.3779   -1.7083   -0.3326 H   0  0  0  0  0  0  0  0  0  0  0  0
   -0.6983   -2.1846   -0.1096 H   0  0  0  0  0  0  0  0  0  0  0  0
   -1.2546   -1.5983   -1.6936 H   0  0  0  0  0  0  0  0  0  0  0  0
   -0.5548    2.3671   -0.2338 H   0  0  0  0  0  0  0  0  0  0  0  0
   -0.4046    2.1002    1.5511 H   0  0  0  0  0  0  0  0  0  0  0  0
    1.0937    2.3984    0.5260 H   0  0  0  0  0  0  0  0  0  0  0  0
   -0.0126    0.4541    2.2777 H   0  0  0  0  0  0  0  0  0  0  0  0
    2.2717    0.6107    0.1417 H   0  0  0  0  0  0  0  0  0  0  0  0
    1.4361    0.9246   -1.3673 H   0  0  0  0  0  0  0  0  0  0  0  0
    1.9799   -1.7803    0.0019 H   0  0  0  0  0  0  0  0  0  0  0  0
    1.1088   -1.6781   -1.5600 H   0  0  0  0  0  0  0  0  0  0  0  0
    3.7646   -0.8933   -1.0711 H   0  0  0  0  0  0  0  0  0  0  0  0
  1  2  1  0
  2  3  1  0
  2  4  1  0
  4  5  1  0
  4  6  1  0
  4  7  1  0
  7  8  1  0
  8  9  1  0
  1 10  1  0
  1 11  1  0
  1 12  1  0
  2 13  1  0
  3 14  1  0
  3 15  1  0
  3 16  1  0
  5 17  1  0
  5 18  1  0
  5 19  1  0
  6 20  1  0
  7 21  1  0
  7 22  1  0
  8 23  1  0
  8 24  1  0
  9 25  1  0
M  END
