
     RDKit          3D

 25 25  0  0  0  0  0  0  0  0999 V2000
    3.2937    1.0317   -0.1590 C   0  0  0  0  0  0  0  0  0  0  0  0
    2.1504    0.1726   -0.5951 C   0  0  0  0  0  0  0  0  0  0  0  0
    2.4883   -1.2696   -0.2048 C   0  0  0  0  0  0  0  0  0  0  0  0
    0.8606    0.5142    0.1296 C   0  0  0  0  0  0  0  0  0  0  0  0
   -0.1634   -0.3178   -0.3191 O   0  0  0  0  0  0  0  0  0  0  0  0
   -1.3168    0.0134    0.3525 C   0  0  0  0  0  0  0  0  0  0  0  0
   -2.1571   -1.1996    0.7317 C   0  0  0  0  0  0  0  0  0  0  0  0
   -2.6568   -0.1845   -0.2530 C   0  0  0  0  0  0  0  0  0  0  0  0
   -3.8037    0.6548    0.2418 C   0  0  0  0  0  0  0  0  0  0  0  0
    2.9867    2.0213    0.2311 H   0  0  0  0  0  0  0  0  0  0  0  0
    3.9792    1.1433   -1.0422 H   0  0  0  0  0  0  0  0  0  0  0  0
    3.9106    0.5065    0.6189 H   0  0  0  0  0  0  0  0  0  0  0  0
    1.9717    0.1906   -1.6782 H   0  0  0  0  0  0  0  0  0  0  0  0
    1.8229   -1.9885   -0.7219 H   0  0  0  0  0  0  0  0  0  0  0  0
    3.5615   -1.4115   -0.4776 H   0  0  0  0  0  0  0  0  0  0  0  0
    2.3511   -1.3121    0.9075 H   0  0  0  0  0  0  0  0  0  0  0  0
    0.5694    1.5651   -0.0214 H   0  0  0  0  0  0  0  0  0  0  0  0
    0.9584    0.3614    1.2245 H   0  0  0  0  0  0  0  0  0  0  0  0
   -1.2607    0.8310    1.0937 H   0  0  0  0  0  0  0  0  0  0  0  0
   -1.9100   -2.1782    0.2928 H   0  0  0  0  0  0  0  0  0  0  0  0
   -2.4963   -1.2165    1.7627 H   0  0  0  0  0  0  0  0  0  0  0  0
   -2.7589   -0.4762   -1.3222 H   0  0  0  0  0  0  0  0  0  0  0  0
   -4.7510    0.0482    0.1800 H   0  0  0  0  0  0  0  0  0  0  0  0
   -3.9281    1.5993   -0.3094 H   0  0  0  0  0  0  0  0  0  0  0  0
   -3.7016    0.9011    1.3254 H   0  0  0  0  0  0  0  0  0  0  0  0
  1  2  1  0
  2  3  1  0
  2  4  1  0
  4  5  1  0
  5  6  1  0
  6  7  1  0
  7  8  1  0
  8  9  1  0
  8  6  1  0
  1 10  1  0
  1 11  1  0
  1 12  1  0
  2 13  1  0
  3 14  1  0
  3 15  1  0
  3 16  1  0
  4 17  1  0
  4 18  1  0
  6 19  1  0
  7 20  1  0
  7 21  1  0
  8 22  1  0
  9 23  1  0
  9 24  1  0
  9 25  1  0
M  END
