
     RDKit          3D

 25 25  0  0  0  0  0  0  0  0999 V2000
    1.7719   -0.9371   -0.9644 C   0  0  0  0  0  0  0  0  0  0  0  0
    1.4345   -0.0792    0.2234 C   0  0  0  0  0  0  0  0  0  0  0  0
    1.7682    1.3771    0.0050 C   0  0  0  0  0  0  0  0  0  0  0  0
    0.1318   -0.3534    0.8575 C   0  0  0  0  0  0  0  0  0  0  0  0
    0.0127    0.5567    1.9395 O   0  0  0  0  0  0  0  0  0  0  0  0
   -1.1097   -0.3534    0.0907 C   0  0  0  0  0  0  0  0  0  0  0  0
   -2.3386   -0.6727    0.9804 C   0  0  0  0  0  0  0  0  0  0  0  0
   -1.3728    0.9017   -0.7623 C   0  0  0  0  0  0  0  0  0  0  0  0
   -1.3198   -0.5216   -1.3205 C   0  0  0  0  0  0  0  0  0  0  0  0
    2.8145   -1.3507   -0.8902 H   0  0  0  0  0  0  0  0  0  0  0  0
    1.7721   -0.3892   -1.9245 H   0  0  0  0  0  0  0  0  0  0  0  0
    1.1145   -1.8253   -0.9486 H   0  0  0  0  0  0  0  0  0  0  0  0
    2.2038   -0.3951    1.0120 H   0  0  0  0  0  0  0  0  0  0  0  0
    1.1057    2.0123    0.6261 H   0  0  0  0  0  0  0  0  0  0  0  0
    1.8039    1.6717   -1.0599 H   0  0  0  0  0  0  0  0  0  0  0  0
    2.8050    1.6347    0.3825 H   0  0  0  0  0  0  0  0  0  0  0  0
    0.2366   -1.3467    1.4058 H   0  0  0  0  0  0  0  0  0  0  0  0
    0.9318    0.6979    2.3129 H   0  0  0  0  0  0  0  0  0  0  0  0
   -3.2364   -0.4397    0.3759 H   0  0  0  0  0  0  0  0  0  0  0  0
   -2.3574    0.0443    1.8365 H   0  0  0  0  0  0  0  0  0  0  0  0
   -2.3216   -1.7056    1.3222 H   0  0  0  0  0  0  0  0  0  0  0  0
   -0.5639    1.5792   -1.0120 H   0  0  0  0  0  0  0  0  0  0  0  0
   -2.3616    1.3992   -0.6921 H   0  0  0  0  0  0  0  0  0  0  0  0
   -2.3353   -0.8742   -1.6733 H   0  0  0  0  0  0  0  0  0  0  0  0
   -0.5900   -0.6307   -2.1225 H   0  0  0  0  0  0  0  0  0  0  0  0
  1  2  1  0
  2  3  1  0
  2  4  1  0
  4  5  1  0
  4  6  1  0
  6  7  1  0
  6  8  1  0
  8  9  1  0
  9  6  1  0
  1 10  1  0
  1 11  1  0
  1 12  1  0
  2 13  1  0
  3 14  1  0
  3 15  1  0
  3 16  1  0
  4 17  1  0
  5 18  1  0
  7 19  1  0
  7 20  1  0
  7 21  1  0
  8 22  1  0
  8 23  1  0
  9 24  1  0
  9 25  1  0
M  END
