
     RDKit          3D

 27 27  0  0  0  0  0  0  0  0999 V2000
    2.2184   -0.9070    0.8106 C   0  0  0  0  0  0  0  0  0  0  0  0
    1.7605   -0.3099   -0.4966 C   0  0  0  0  0  0  0  0  0  0  0  0
    2.0415    1.1637   -0.4261 C   0  0  0  0  0  0  0  0  0  0  0  0
    0.4239   -0.6873   -0.9637 C   0  0  0  0  0  0  0  0  0  0  0  0
   -0.7603   -0.3766   -0.1392 C   0  0  0  0  0  0  0  0  0  0  0  0
   -0.8281   -0.9799    1.2437 C   0  0  0  0  0  0  0  0  0  0  0  0
   -2.1134   -0.4970   -0.8668 C   0  0  0  0  0  0  0  0  0  0  0  0
   -1.5629    0.8366   -0.4395 C   0  0  0  0  0  0  0  0  0  0  0  0
   -2.1478    1.5324    0.7682 C   0  0  0  0  0  0  0  0  0  0  0  0
    2.2009   -0.1387    1.6400 H   0  0  0  0  0  0  0  0  0  0  0  0
    1.7267   -1.8421    1.0849 H   0  0  0  0  0  0  0  0  0  0  0  0
    3.3245   -1.1627    0.7676 H   0  0  0  0  0  0  0  0  0  0  0  0
    2.4867   -0.7112   -1.2696 H   0  0  0  0  0  0  0  0  0  0  0  0
    2.5558    1.5413   -1.3350 H   0  0  0  0  0  0  0  0  0  0  0  0
    2.7069    1.4387    0.4339 H   0  0  0  0  0  0  0  0  0  0  0  0
    1.1333    1.7829   -0.3007 H   0  0  0  0  0  0  0  0  0  0  0  0
    0.4320   -1.8080   -1.1206 H   0  0  0  0  0  0  0  0  0  0  0  0
    0.2684   -0.2870   -2.0055 H   0  0  0  0  0  0  0  0  0  0  0  0
   -1.8837   -0.9460    1.6448 H   0  0  0  0  0  0  0  0  0  0  0  0
   -0.1121   -0.5898    1.9587 H   0  0  0  0  0  0  0  0  0  0  0  0
   -0.6428   -2.0795    1.1223 H   0  0  0  0  0  0  0  0  0  0  0  0
   -2.9940   -0.8316   -0.3298 H   0  0  0  0  0  0  0  0  0  0  0  0
   -2.0928   -0.7793   -1.9355 H   0  0  0  0  0  0  0  0  0  0  0  0
   -1.2468    1.4733   -1.2833 H   0  0  0  0  0  0  0  0  0  0  0  0
   -1.5475    1.3384    1.6870 H   0  0  0  0  0  0  0  0  0  0  0  0
   -2.1388    2.6347    0.6333 H   0  0  0  0  0  0  0  0  0  0  0  0
   -3.2088    1.1914    0.9069 H   0  0  0  0  0  0  0  0  0  0  0  0
  1  2  1  0
  2  3  1  0
  2  4  1  0
  4  5  1  0
  5  6  1  0
  5  7  1  0
  7  8  1  0
  8  9  1  0
  8  5  1  0
  1 10  1  0
  1 11  1  0
  1 12  1  0
  2 13  1  0
  3 14  1  0
  3 15  1  0
  3 16  1  0
  4 17  1  0
  4 18  1  0
  6 19  1  0
  6 20  1  0
  6 21  1  0
  7 22  1  0
  7 23  1  0
  8 24  1  0
  9 25  1  0
  9 26  1  0
  9 27  1  0
M  END
