
     RDKit          3D

 21 22  0  0  0  0  0  0  0  0999 V2000
   -1.8746    0.2356    1.2112 C   0  0  0  0  0  0  0  0  0  0  0  0
   -1.2816   -0.3543   -0.0529 C   0  0  0  0  0  0  0  0  0  0  0  0
   -1.5442    0.6636   -1.1674 C   0  0  0  0  0  0  0  0  0  0  0  0
    0.1881   -0.5233    0.1720 C   0  0  0  0  0  0  0  0  0  0  0  0
    1.0417    0.6815    0.4866 C   0  0  0  0  0  0  0  0  0  0  0  0
    2.1303    0.0304   -0.3808 C   0  0  0  0  0  0  0  0  0  0  0  0
    3.2469   -0.2788    0.3756 O   0  0  0  0  0  0  0  0  0  0  0  0
    1.1581   -1.1330   -0.5559 C   0  0  0  0  0  0  0  0  0  0  0  0
    0.6753   -1.7226    0.6149 O   0  0  0  0  0  0  0  0  0  0  0  0
   -1.9269   -0.5830    1.9833 H   0  0  0  0  0  0  0  0  0  0  0  0
   -2.8767    0.6392    0.9827 H   0  0  0  0  0  0  0  0  0  0  0  0
   -1.1588    1.0013    1.5692 H   0  0  0  0  0  0  0  0  0  0  0  0
   -1.7866   -1.2739   -0.3437 H   0  0  0  0  0  0  0  0  0  0  0  0
   -0.8508    0.4721   -2.0067 H   0  0  0  0  0  0  0  0  0  0  0  0
   -1.3632    1.7000   -0.8220 H   0  0  0  0  0  0  0  0  0  0  0  0
   -2.5847    0.5725   -1.5222 H   0  0  0  0  0  0  0  0  0  0  0  0
    0.6752    1.6394    0.0840 H   0  0  0  0  0  0  0  0  0  0  0  0
    1.2891    0.6846    1.5745 H   0  0  0  0  0  0  0  0  0  0  0  0
    2.2944    0.5629   -1.3205 H   0  0  0  0  0  0  0  0  0  0  0  0
    3.3361   -1.2484    0.5533 H   0  0  0  0  0  0  0  0  0  0  0  0
    1.2130   -1.7660   -1.4351 H   0  0  0  0  0  0  0  0  0  0  0  0
  1  2  1  0
  2  3  1  0
  2  4  1  0
  4  5  1  0
  5  6  1  0
  6  7  1  0
  6  8  1  0
  8  9  1  0
  8  4  1  0
  9  4  1  0
  1 10  1  0
  1 11  1  0
  1 12  1  0
  2 13  1  0
  3 14  1  0
  3 15  1  0
  3 16  1  0
  5 17  1  0
  5 18  1  0
  6 19  1  0
  7 20  1  0
  8 21  1  0
M  END
