
     RDKit          3D

 18 17  0  0  0  0  0  0  0  0999 V2000
   -1.0160    1.3670    0.3436 C   0  0  0  0  0  0  0  0  0  0  0  0
   -0.5870   -0.0813    0.4188 C   0  0  0  0  0  0  0  0  0  0  0  0
   -1.2258   -0.9017   -0.6951 C   0  0  0  0  0  0  0  0  0  0  0  0
   -2.6127   -0.8171   -0.5456 O   0  0  0  0  0  0  0  0  0  0  0  0
    0.9050   -0.2334    0.3967 C   0  0  0  0  0  0  0  0  0  0  0  0
    1.4909    0.2899   -0.7708 O   0  0  0  0  0  0  0  0  0  0  0  0
    2.8698    0.2042   -0.9006 C   0  0  0  0  0  0  0  0  0  0  0  0
    3.5400   -0.3310    0.0173 O   0  0  0  0  0  0  0  0  0  0  0  0
   -1.8839    1.5730    1.0318 H   0  0  0  0  0  0  0  0  0  0  0  0
   -1.3652    1.6102   -0.6700 H   0  0  0  0  0  0  0  0  0  0  0  0
   -0.1912    2.0184    0.6917 H   0  0  0  0  0  0  0  0  0  0  0  0
   -0.9408   -0.4665    1.4037 H   0  0  0  0  0  0  0  0  0  0  0  0
   -0.9925   -0.4331   -1.6726 H   0  0  0  0  0  0  0  0  0  0  0  0
   -0.9026   -1.9582   -0.6479 H   0  0  0  0  0  0  0  0  0  0  0  0
   -2.9283   -1.3803    0.2204 H   0  0  0  0  0  0  0  0  0  0  0  0
    1.1309   -1.3165    0.4867 H   0  0  0  0  0  0  0  0  0  0  0  0
    1.3304    0.2676    1.2874 H   0  0  0  0  0  0  0  0  0  0  0  0
    3.3789    0.5889   -1.7760 H   0  0  0  0  0  0  0  0  0  0  0  0
  1  2  1  0
  2  3  1  0
  3  4  1  0
  2  5  1  0
  5  6  1  0
  6  7  1  0
  7  8  2  0
  1  9  1  0
  1 10  1  0
  1 11  1  0
  2 12  1  0
  3 13  1  0
  3 14  1  0
  4 15  1  0
  5 16  1  0
  5 17  1  0
  7 18  1  0
M  END
