
     RDKit          3D

 23 23  0  0  0  0  0  0  0  0999 V2000
    1.4858   -1.4797   -0.0027 C   0  0  0  0  0  0  0  0  0  0  0  0
    1.5427   -0.1052    0.6207 C   0  0  0  0  0  0  0  0  0  0  0  0
    2.4304    0.7751   -0.2442 C   0  0  0  0  0  0  0  0  0  0  0  0
    0.2238    0.4809    0.8632 C   0  0  0  0  0  0  0  0  0  0  0  0
   -0.0491    0.7280    2.0574 O   0  0  0  0  0  0  0  0  0  0  0  0
   -0.7929    0.8022   -0.1372 C   0  0  0  0  0  0  0  0  0  0  0  0
   -1.3741   -0.2726   -0.9828 C   0  0  0  0  0  0  0  0  0  0  0  0
   -2.3450   -0.5582    0.1737 C   0  0  0  0  0  0  0  0  0  0  0  0
   -2.1943    0.9362    0.4873 C   0  0  0  0  0  0  0  0  0  0  0  0
    2.4273   -2.0457    0.2823 H   0  0  0  0  0  0  0  0  0  0  0  0
    0.6368   -2.0162    0.4175 H   0  0  0  0  0  0  0  0  0  0  0  0
    1.5439   -1.4492   -1.1111 H   0  0  0  0  0  0  0  0  0  0  0  0
    2.1168   -0.2394    1.5769 H   0  0  0  0  0  0  0  0  0  0  0  0
    1.8452    1.5345   -0.8012 H   0  0  0  0  0  0  0  0  0  0  0  0
    3.0172    0.1611   -0.9623 H   0  0  0  0  0  0  0  0  0  0  0  0
    3.1711    1.3391    0.3605 H   0  0  0  0  0  0  0  0  0  0  0  0
   -0.6145    1.7435   -0.7174 H   0  0  0  0  0  0  0  0  0  0  0  0
   -1.9812    0.1804   -1.8043 H   0  0  0  0  0  0  0  0  0  0  0  0
   -0.8041   -1.1433   -1.2570 H   0  0  0  0  0  0  0  0  0  0  0  0
   -1.8552   -1.2274    0.8811 H   0  0  0  0  0  0  0  0  0  0  0  0
   -3.3648   -0.7998   -0.1367 H   0  0  0  0  0  0  0  0  0  0  0  0
   -2.8960    1.5321   -0.1045 H   0  0  0  0  0  0  0  0  0  0  0  0
   -2.1697    1.1234    1.5776 H   0  0  0  0  0  0  0  0  0  0  0  0
  1  2  1  0
  2  3  1  0
  2  4  1  0
  4  5  2  0
  4  6  1  0
  6  7  1  0
  7  8  1  0
  8  9  1  0
  9  6  1  0
  1 10  1  0
  1 11  1  0
  1 12  1  0
  2 13  1  0
  3 14  1  0
  3 15  1  0
  3 16  1  0
  6 17  1  0
  7 18  1  0
  7 19  1  0
  8 20  1  0
  8 21  1  0
  9 22  1  0
  9 23  1  0
M  END
