
     RDKit          3D

 23 24  0  0  0  0  0  0  0  0999 V2000
   -1.6954   -1.1608    0.5536 C   0  0  0  0  0  0  0  0  0  0  0  0
   -0.9529   -0.1662   -0.3165 C   0  0  0  0  0  0  0  0  0  0  0  0
   -1.6670    1.1779   -0.1016 C   0  0  0  0  0  0  0  0  0  0  0  0
   -1.2315   -0.5311   -1.6421 O   0  0  0  0  0  0  0  0  0  0  0  0
    0.3818   -0.0867   -0.0549 C   0  0  0  0  0  0  0  0  0  0  0  0
    1.4287   -1.1496   -0.1325 C   0  0  0  0  0  0  0  0  0  0  0  0
    2.2110    0.0676    0.2507 C   0  0  0  0  0  0  0  0  0  0  0  0
    1.0630    0.3751    1.1996 C   0  0  0  0  0  0  0  0  0  0  0  0
    1.3924    0.7953   -0.7833 C   0  0  0  0  0  0  0  0  0  0  0  0
   -1.3826   -2.1932    0.3011 H   0  0  0  0  0  0  0  0  0  0  0  0
   -2.8021   -1.0556    0.4198 H   0  0  0  0  0  0  0  0  0  0  0  0
   -1.4557   -1.0030    1.6299 H   0  0  0  0  0  0  0  0  0  0  0  0
   -1.5608    1.7630   -1.0140 H   0  0  0  0  0  0  0  0  0  0  0  0
   -2.7063    1.0345    0.2175 H   0  0  0  0  0  0  0  0  0  0  0  0
   -1.0768    1.7002    0.7021 H   0  0  0  0  0  0  0  0  0  0  0  0
   -0.8444    0.2060   -2.2054 H   0  0  0  0  0  0  0  0  0  0  0  0
    1.3025   -1.9186    0.6333 H   0  0  0  0  0  0  0  0  0  0  0  0
    1.6591   -1.4667   -1.1552 H   0  0  0  0  0  0  0  0  0  0  0  0
    3.1833    0.1604    0.4453 H   0  0  0  0  0  0  0  0  0  0  0  0
    0.9230    1.4484    1.4251 H   0  0  0  0  0  0  0  0  0  0  0  0
    1.0255   -0.3024    2.0597 H   0  0  0  0  0  0  0  0  0  0  0  0
    1.5139    0.4385   -1.8167 H   0  0  0  0  0  0  0  0  0  0  0  0
    1.2915    1.8668   -0.6155 H   0  0  0  0  0  0  0  0  0  0  0  0
  1  2  1  0
  2  3  1  0
  2  4  1  0
  2  5  1  0
  5  6  1  0
  6  7  1  0
  7  8  1  0
  7  9  1  0
  8  5  1  0
  9  5  1  0
  1 10  1  0
  1 11  1  0
  1 12  1  0
  3 13  1  0
  3 14  1  0
  3 15  1  0
  4 16  1  0
  6 17  1  0
  6 18  1  0
  7 19  1  0
  8 20  1  0
  8 21  1  0
  9 22  1  0
  9 23  1  0
M  END
