
     RDKit          3D

 25 25  0  0  0  0  0  0  0  0999 V2000
    1.3632    1.6078    0.4436 C   0  0  0  0  0  0  0  0  0  0  0  0
    1.2199    0.1262    0.4651 C   0  0  0  0  0  0  0  0  0  0  0  0
    2.4530   -0.5010   -0.1483 C   0  0  0  0  0  0  0  0  0  0  0  0
   -0.0514   -0.4299   -0.0732 C   0  0  0  0  0  0  0  0  0  0  0  0
   -0.2595   -1.9305   -0.0739 C   0  0  0  0  0  0  0  0  0  0  0  0
   -0.6030    0.2311   -1.3326 C   0  0  0  0  0  0  0  0  0  0  0  0
   -1.2760    0.4610   -0.0293 C   0  0  0  0  0  0  0  0  0  0  0  0
   -2.6165   -0.1743    0.2648 C   0  0  0  0  0  0  0  0  0  0  0  0
   -1.1506    1.7381    0.5133 O   0  0  0  0  0  0  0  0  0  0  0  0
    2.4756    1.8227    0.4885 H   0  0  0  0  0  0  0  0  0  0  0  0
    0.9777    2.0532    1.3925 H   0  0  0  0  0  0  0  0  0  0  0  0
    0.9461    2.1132   -0.4305 H   0  0  0  0  0  0  0  0  0  0  0  0
    1.2561   -0.1771    1.5550 H   0  0  0  0  0  0  0  0  0  0  0  0
    3.3045    0.1763    0.0935 H   0  0  0  0  0  0  0  0  0  0  0  0
    2.6375   -1.4832    0.3433 H   0  0  0  0  0  0  0  0  0  0  0  0
    2.3998   -0.5770   -1.2457 H   0  0  0  0  0  0  0  0  0  0  0  0
   -0.2615   -2.3043   -1.1171 H   0  0  0  0  0  0  0  0  0  0  0  0
   -1.2173   -2.2195    0.4012 H   0  0  0  0  0  0  0  0  0  0  0  0
    0.5418   -2.4552    0.5011 H   0  0  0  0  0  0  0  0  0  0  0  0
   -1.1939   -0.3843   -2.0471 H   0  0  0  0  0  0  0  0  0  0  0  0
   -0.0841    1.0693   -1.8007 H   0  0  0  0  0  0  0  0  0  0  0  0
   -3.3837    0.6228    0.1544 H   0  0  0  0  0  0  0  0  0  0  0  0
   -2.5775   -0.5131    1.3197 H   0  0  0  0  0  0  0  0  0  0  0  0
   -2.8809   -0.9743   -0.4391 H   0  0  0  0  0  0  0  0  0  0  0  0
   -2.0193    2.1019    0.8015 H   0  0  0  0  0  0  0  0  0  0  0  0
  1  2  1  0
  2  3  1  0
  2  4  1  0
  4  5  1  0
  4  6  1  0
  6  7  1  0
  7  8  1  0
  7  9  1  0
  7  4  1  0
  1 10  1  0
  1 11  1  0
  1 12  1  0
  2 13  1  0
  3 14  1  0
  3 15  1  0
  3 16  1  0
  5 17  1  0
  5 18  1  0
  5 19  1  0
  6 20  1  0
  6 21  1  0
  8 22  1  0
  8 23  1  0
  8 24  1  0
  9 25  1  0
M  END
