
     RDKit          3D

 23 22  0  0  0  0  0  0  0  0999 V2000
   -0.8729   -1.3871    0.3018 C   0  0  0  0  0  0  0  0  0  0  0  0
   -0.3657    0.0104    0.5241 C   0  0  0  0  0  0  0  0  0  0  0  0
   -0.6099    0.2761    2.0344 C   0  0  0  0  0  0  0  0  0  0  0  0
   -1.2038    1.0002   -0.1875 C   0  0  0  0  0  0  0  0  0  0  0  0
   -1.3053    0.8413   -1.6503 C   0  0  0  0  0  0  0  0  0  0  0  0
   -1.8817    1.7000   -2.2785 O   0  0  0  0  0  0  0  0  0  0  0  0
    1.0992    0.0789    0.3468 C   0  0  0  0  0  0  0  0  0  0  0  0
    1.6587   -0.2982   -0.9772 C   0  0  0  0  0  0  0  0  0  0  0  0
    3.0685   -0.1826   -0.9290 O   0  0  0  0  0  0  0  0  0  0  0  0
   -0.4078   -2.0382    1.0727 H   0  0  0  0  0  0  0  0  0  0  0  0
   -0.5226   -1.8006   -0.6799 H   0  0  0  0  0  0  0  0  0  0  0  0
   -1.9711   -1.3609    0.3669 H   0  0  0  0  0  0  0  0  0  0  0  0
   -0.1057    1.2409    2.2800 H   0  0  0  0  0  0  0  0  0  0  0  0
   -0.0630   -0.5250    2.5492 H   0  0  0  0  0  0  0  0  0  0  0  0
   -1.6906    0.2863    2.2025 H   0  0  0  0  0  0  0  0  0  0  0  0
   -0.9710    2.0557    0.0683 H   0  0  0  0  0  0  0  0  0  0  0  0
   -2.2606    0.8688    0.1984 H   0  0  0  0  0  0  0  0  0  0  0  0
   -0.8914    0.0005   -2.1668 H   0  0  0  0  0  0  0  0  0  0  0  0
    1.5364    1.0591    0.6902 H   0  0  0  0  0  0  0  0  0  0  0  0
    1.5374   -0.6591    1.0879 H   0  0  0  0  0  0  0  0  0  0  0  0
    1.3934   -1.2862   -1.3303 H   0  0  0  0  0  0  0  0  0  0  0  0
    1.3610    0.4778   -1.7138 H   0  0  0  0  0  0  0  0  0  0  0  0
    3.4687   -0.3582   -1.8100 H   0  0  0  0  0  0  0  0  0  0  0  0
  1  2  1  0
  2  3  1  0
  2  4  1  0
  4  5  1  0
  5  6  2  0
  2  7  1  0
  7  8  1  0
  8  9  1  0
  1 10  1  0
  1 11  1  0
  1 12  1  0
  3 13  1  0
  3 14  1  0
  3 15  1  0
  4 16  1  0
  4 17  1  0
  5 18  1  0
  7 19  1  0
  7 20  1  0
  8 21  1  0
  8 22  1  0
  9 23  1  0
M  END
