
     RDKit          3D

 24 24  0  0  0  0  0  0  0  0999 V2000
   -2.0156    0.6090   -1.2857 C   0  0  0  0  0  0  0  0  0  0  0  0
   -1.8803    0.4079    0.2012 C   0  0  0  0  0  0  0  0  0  0  0  0
   -2.3885   -0.9772    0.5227 C   0  0  0  0  0  0  0  0  0  0  0  0
   -0.4685    0.6347    0.6945 C   0  0  0  0  0  0  0  0  0  0  0  0
    0.5098   -0.3159    0.0352 C   0  0  0  0  0  0  0  0  0  0  0  0
    1.8881   -0.0245    0.5807 C   0  0  0  0  0  0  0  0  0  0  0  0
    3.0737   -0.7837    0.1368 C   0  0  0  0  0  0  0  0  0  0  0  0
    2.8857    0.6088   -0.3296 C   0  0  0  0  0  0  0  0  0  0  0  0
   -2.8857    1.2969   -1.4497 H   0  0  0  0  0  0  0  0  0  0  0  0
   -2.3132   -0.3397   -1.8159 H   0  0  0  0  0  0  0  0  0  0  0  0
   -1.1085    0.9590   -1.7782 H   0  0  0  0  0  0  0  0  0  0  0  0
   -2.5258    1.1226    0.7693 H   0  0  0  0  0  0  0  0  0  0  0  0
   -3.5018   -0.9429    0.3426 H   0  0  0  0  0  0  0  0  0  0  0  0
   -2.1645   -1.2908    1.5562 H   0  0  0  0  0  0  0  0  0  0  0  0
   -1.9974   -1.7389   -0.1938 H   0  0  0  0  0  0  0  0  0  0  0  0
   -0.2228    1.6908    0.4754 H   0  0  0  0  0  0  0  0  0  0  0  0
   -0.4700    0.5060    1.7826 H   0  0  0  0  0  0  0  0  0  0  0  0
    0.5114   -0.0478   -1.0539 H   0  0  0  0  0  0  0  0  0  0  0  0
    0.2101   -1.3571    0.1371 H   0  0  0  0  0  0  0  0  0  0  0  0
    1.8695    0.3023    1.6504 H   0  0  0  0  0  0  0  0  0  0  0  0
    3.8997   -0.9266    0.8815 H   0  0  0  0  0  0  0  0  0  0  0  0
    2.9901   -1.6055   -0.5794 H   0  0  0  0  0  0  0  0  0  0  0  0
    3.4606    1.4436    0.1159 H   0  0  0  0  0  0  0  0  0  0  0  0
    2.6440    0.7690   -1.3957 H   0  0  0  0  0  0  0  0  0  0  0  0
  1  2  1  0
  2  3  1  0
  2  4  1  0
  4  5  1  0
  5  6  1  0
  6  7  1  0
  7  8  1  0
  8  6  1  0
  1  9  1  0
  1 10  1  0
  1 11  1  0
  2 12  1  0
  3 13  1  0
  3 14  1  0
  3 15  1  0
  4 16  1  0
  4 17  1  0
  5 18  1  0
  5 19  1  0
  6 20  1  0
  7 21  1  0
  7 22  1  0
  8 23  1  0
  8 24  1  0
M  END
