
     RDKit          3D

 23 23  0  0  0  0  0  0  0  0999 V2000
   -1.7262   -1.1064    0.4532 C   0  0  0  0  0  0  0  0  0  0  0  0
   -0.9759   -0.1477   -0.4309 C   0  0  0  0  0  0  0  0  0  0  0  0
   -1.6261    1.1952   -0.3268 C   0  0  0  0  0  0  0  0  0  0  0  0
    0.4829   -0.0800   -0.1173 C   0  0  0  0  0  0  0  0  0  0  0  0
    1.2116   -1.3859   -0.2608 C   0  0  0  0  0  0  0  0  0  0  0  0
    2.5615   -1.2339    0.0494 O   0  0  0  0  0  0  0  0  0  0  0  0
    1.1901    1.0209   -0.8342 C   0  0  0  0  0  0  0  0  0  0  0  0
    1.4640    1.6137    0.4183 O   0  0  0  0  0  0  0  0  0  0  0  0
    0.8524    0.6325    1.1589 C   0  0  0  0  0  0  0  0  0  0  0  0
   -2.5610   -0.6078    0.9890 H   0  0  0  0  0  0  0  0  0  0  0  0
   -1.0597   -1.5833    1.2007 H   0  0  0  0  0  0  0  0  0  0  0  0
   -2.2104   -1.8945   -0.1821 H   0  0  0  0  0  0  0  0  0  0  0  0
   -1.0621   -0.4765   -1.5061 H   0  0  0  0  0  0  0  0  0  0  0  0
   -2.0934    1.5321   -1.2848 H   0  0  0  0  0  0  0  0  0  0  0  0
   -2.4509    1.2207    0.4226 H   0  0  0  0  0  0  0  0  0  0  0  0
   -0.9056    1.9775   -0.0235 H   0  0  0  0  0  0  0  0  0  0  0  0
    1.1204   -1.7705   -1.2810 H   0  0  0  0  0  0  0  0  0  0  0  0
    0.7925   -2.0973    0.4819 H   0  0  0  0  0  0  0  0  0  0  0  0
    2.7899   -0.3068    0.2974 H   0  0  0  0  0  0  0  0  0  0  0  0
    2.1571    0.7677   -1.3165 H   0  0  0  0  0  0  0  0  0  0  0  0
    0.5613    1.6687   -1.4802 H   0  0  0  0  0  0  0  0  0  0  0  0
    1.4921    0.0340    1.8335 H   0  0  0  0  0  0  0  0  0  0  0  0
   -0.0046    1.0277    1.7391 H   0  0  0  0  0  0  0  0  0  0  0  0
  1  2  1  0
  2  3  1  0
  2  4  1  0
  4  5  1  0
  5  6  1  0
  4  7  1  0
  7  8  1  0
  8  9  1  0
  9  4  1  0
  1 10  1  0
  1 11  1  0
  1 12  1  0
  2 13  1  0
  3 14  1  0
  3 15  1  0
  3 16  1  0
  5 17  1  0
  5 18  1  0
  6 19  1  0
  7 20  1  0
  7 21  1  0
  9 22  1  0
  9 23  1  0
M  END
