
     RDKit          3D

 21 20  0  0  0  0  0  0  0  0999 V2000
   -0.4629    1.0117    1.3370 C   0  0  0  0  0  0  0  0  0  0  0  0
   -0.5044    0.4522   -0.0688 C   0  0  0  0  0  0  0  0  0  0  0  0
   -1.9415    0.2467   -0.5286 C   0  0  0  0  0  0  0  0  0  0  0  0
   -1.9225   -0.2669   -1.8215 O   0  0  0  0  0  0  0  0  0  0  0  0
    0.2425   -0.8529   -0.0504 C   0  0  0  0  0  0  0  0  0  0  0  0
    0.2557   -1.4294   -1.3033 O   0  0  0  0  0  0  0  0  0  0  0  0
    1.6053   -0.6467    0.5270 C   0  0  0  0  0  0  0  0  0  0  0  0
    2.4688    0.2845   -0.1885 C   0  0  0  0  0  0  0  0  0  0  0  0
    2.2035    0.8749   -1.2132 O   0  0  0  0  0  0  0  0  0  0  0  0
   -0.3628    0.2122    2.1096 H   0  0  0  0  0  0  0  0  0  0  0  0
   -1.4607    1.4764    1.5143 H   0  0  0  0  0  0  0  0  0  0  0  0
    0.3664    1.7219    1.4903 H   0  0  0  0  0  0  0  0  0  0  0  0
   -0.0157    1.1335   -0.7798 H   0  0  0  0  0  0  0  0  0  0  0  0
   -2.4897   -0.4161    0.1648 H   0  0  0  0  0  0  0  0  0  0  0  0
   -2.3909    1.2758   -0.5676 H   0  0  0  0  0  0  0  0  0  0  0  0
   -2.4073    0.3321   -2.4451 H   0  0  0  0  0  0  0  0  0  0  0  0
   -0.3793   -1.5392    0.6039 H   0  0  0  0  0  0  0  0  0  0  0  0
    0.1357   -2.4143   -1.2435 H   0  0  0  0  0  0  0  0  0  0  0  0
    2.0520   -1.6651    0.6438 H   0  0  0  0  0  0  0  0  0  0  0  0
    1.5506   -0.2730    1.5933 H   0  0  0  0  0  0  0  0  0  0  0  0
    3.4571    0.4815    0.2262 H   0  0  0  0  0  0  0  0  0  0  0  0
  1  2  1  0
  2  3  1  0
  3  4  1  0
  2  5  1  0
  5  6  1  0
  5  7  1  0
  7  8  1  0
  8  9  2  0
  1 10  1  0
  1 11  1  0
  1 12  1  0
  2 13  1  0
  3 14  1  0
  3 15  1  0
  4 16  1  0
  5 17  1  0
  6 18  1  0
  7 19  1  0
  7 20  1  0
  8 21  1  0
M  END
