
     RDKit          3D

 21 21  0  0  0  0  0  0  0  0999 V2000
   -0.9185    1.5087   -0.1339 C   0  0  0  0  0  0  0  0  0  0  0  0
   -0.9045    0.1009   -0.5361 C   0  0  0  0  0  0  0  0  0  0  0  0
   -2.1184   -0.6354    0.0499 C   0  0  0  0  0  0  0  0  0  0  0  0
    0.2968   -0.7053   -0.2326 C   0  0  0  0  0  0  0  0  0  0  0  0
    0.1344   -2.0387   -0.6922 O   0  0  0  0  0  0  0  0  0  0  0  0
    1.6230   -0.1397   -0.6260 C   0  0  0  0  0  0  0  0  0  0  0  0
    1.6962    1.2017   -0.9546 O   0  0  0  0  0  0  0  0  0  0  0  0
    1.2526   -0.5091    0.8232 C   0  0  0  0  0  0  0  0  0  0  0  0
    1.3056    0.5684    1.6846 O   0  0  0  0  0  0  0  0  0  0  0  0
   -0.4958    1.7790    0.8201 H   0  0  0  0  0  0  0  0  0  0  0  0
   -1.9926    1.8628   -0.1221 H   0  0  0  0  0  0  0  0  0  0  0  0
   -0.4434    2.1427   -0.9349 H   0  0  0  0  0  0  0  0  0  0  0  0
   -1.0609    0.0409   -1.6520 H   0  0  0  0  0  0  0  0  0  0  0  0
   -2.9805   -0.5826   -0.6463 H   0  0  0  0  0  0  0  0  0  0  0  0
   -2.4188   -0.1171    0.9859 H   0  0  0  0  0  0  0  0  0  0  0  0
   -1.8731   -1.6940    0.1829 H   0  0  0  0  0  0  0  0  0  0  0  0
    0.1896   -2.6750    0.0640 H   0  0  0  0  0  0  0  0  0  0  0  0
    2.3928   -0.7708   -1.1154 H   0  0  0  0  0  0  0  0  0  0  0  0
    2.4986    1.5674   -0.5240 H   0  0  0  0  0  0  0  0  0  0  0  0
    1.7997   -1.4024    1.2246 H   0  0  0  0  0  0  0  0  0  0  0  0
    2.0173    0.4978    2.3350 H   0  0  0  0  0  0  0  0  0  0  0  0
  1  2  1  0
  2  3  1  0
  2  4  1  0
  4  5  1  0
  4  6  1  0
  6  7  1  0
  6  8  1  0
  8  9  1  0
  8  4  1  0
  1 10  1  0
  1 11  1  0
  1 12  1  0
  2 13  1  0
  3 14  1  0
  3 15  1  0
  3 16  1  0
  5 17  1  0
  6 18  1  0
  7 19  1  0
  8 20  1  0
  9 21  1  0
M  END
