
     RDKit          3D

 23 22  0  0  0  0  0  0  0  0999 V2000
   -1.4051    1.4612   -0.5589 C   0  0  0  0  0  0  0  0  0  0  0  0
   -0.8587    0.1154   -0.1868 C   0  0  0  0  0  0  0  0  0  0  0  0
   -1.5932   -0.2938    1.0771 C   0  0  0  0  0  0  0  0  0  0  0  0
   -2.9385   -0.3412    0.7317 O   0  0  0  0  0  0  0  0  0  0  0  0
    0.5998    0.0772   -0.0587 C   0  0  0  0  0  0  0  0  0  0  0  0
    1.2952    0.4471   -1.3332 C   0  0  0  0  0  0  0  0  0  0  0  0
    1.1319   -1.2711    0.3853 C   0  0  0  0  0  0  0  0  0  0  0  0
    2.6101   -1.1558    0.4805 C   0  0  0  0  0  0  0  0  0  0  0  0
    3.1849   -0.2787    1.0922 O   0  0  0  0  0  0  0  0  0  0  0  0
   -2.5262    1.3698   -0.4474 H   0  0  0  0  0  0  0  0  0  0  0  0
   -1.0202    2.2424    0.1705 H   0  0  0  0  0  0  0  0  0  0  0  0
   -1.1248    1.7232   -1.5883 H   0  0  0  0  0  0  0  0  0  0  0  0
   -1.2408   -0.5870   -0.9702 H   0  0  0  0  0  0  0  0  0  0  0  0
   -1.5028    0.4903    1.8605 H   0  0  0  0  0  0  0  0  0  0  0  0
   -1.3082   -1.2963    1.4458 H   0  0  0  0  0  0  0  0  0  0  0  0
   -3.4878    0.3007    1.2174 H   0  0  0  0  0  0  0  0  0  0  0  0
    0.9674    0.8088    0.7080 H   0  0  0  0  0  0  0  0  0  0  0  0
    2.3282    0.8476   -1.1366 H   0  0  0  0  0  0  0  0  0  0  0  0
    1.3516   -0.3927   -2.0645 H   0  0  0  0  0  0  0  0  0  0  0  0
    0.7255    1.2462   -1.8403 H   0  0  0  0  0  0  0  0  0  0  0  0
    0.8509   -2.0406   -0.3425 H   0  0  0  0  0  0  0  0  0  0  0  0
    0.7507   -1.5615    1.3941 H   0  0  0  0  0  0  0  0  0  0  0  0
    3.2100   -1.9110   -0.0356 H   0  0  0  0  0  0  0  0  0  0  0  0
  1  2  1  0
  2  3  1  0
  3  4  1  0
  2  5  1  0
  5  6  1  0
  5  7  1  0
  7  8  1  0
  8  9  2  0
  1 10  1  0
  1 11  1  0
  1 12  1  0
  2 13  1  0
  3 14  1  0
  3 15  1  0
  4 16  1  0
  5 17  1  0
  6 18  1  0
  6 19  1  0
  6 20  1  0
  7 21  1  0
  7 22  1  0
  8 23  1  0
M  END
