
     RDKit          3D

 16 15  0  0  0  0  0  0  0  0999 V2000
   -0.8042   -0.2119    1.2471 C   0  0  0  0  0  0  0  0  0  0  0  0
    0.0210   -0.1329   -0.0316 C   0  0  0  0  0  0  0  0  0  0  0  0
   -0.4267    1.1517   -0.7239 C   0  0  0  0  0  0  0  0  0  0  0  0
    1.4855    0.0137    0.2726 C   0  0  0  0  0  0  0  0  0  0  0  0
   -0.2634   -1.2888   -0.9263 C   0  0  0  0  0  0  0  0  0  0  0  0
   -0.5035   -1.1285   -2.1122 O   0  0  0  0  0  0  0  0  0  0  0  0
   -0.6127   -1.1146    1.8246 H   0  0  0  0  0  0  0  0  0  0  0  0
   -1.8766   -0.1653    0.9228 H   0  0  0  0  0  0  0  0  0  0  0  0
   -0.6165    0.7338    1.7895 H   0  0  0  0  0  0  0  0  0  0  0  0
   -1.5342    1.1901   -0.6090 H   0  0  0  0  0  0  0  0  0  0  0  0
    0.0579    2.0013   -0.2100 H   0  0  0  0  0  0  0  0  0  0  0  0
   -0.2098    1.1041   -1.8005 H   0  0  0  0  0  0  0  0  0  0  0  0
    1.7332    1.0640    0.5197 H   0  0  0  0  0  0  0  0  0  0  0  0
    2.0466   -0.2123   -0.6687 H   0  0  0  0  0  0  0  0  0  0  0  0
    1.7734   -0.6925    1.0765 H   0  0  0  0  0  0  0  0  0  0  0  0
   -0.2701   -2.3118   -0.5706 H   0  0  0  0  0  0  0  0  0  0  0  0
  1  2  1  0
  2  3  1  0
  2  4  1  0
  2  5  1  0
  5  6  2  0
  1  7  1  0
  1  8  1  0
  1  9  1  0
  3 10  1  0
  3 11  1  0
  3 12  1  0
  4 13  1  0
  4 14  1  0
  4 15  1  0
  5 16  1  0
M  END
