
     RDKit          3D

 20 20  0  0  0  0  0  0  0  0999 V2000
    1.5996   -0.1918   -1.1800 C   0  0  0  0  0  0  0  0  0  0  0  0
    0.6875   -0.5197   -0.0155 C   0  0  0  0  0  0  0  0  0  0  0  0
    1.4627   -0.4282    1.2694 C   0  0  0  0  0  0  0  0  0  0  0  0
   -0.3921    0.5583    0.0093 C   0  0  0  0  0  0  0  0  0  0  0  0
    0.1151    1.8252    0.1749 O   0  0  0  0  0  0  0  0  0  0  0  0
   -1.5344    0.3489   -1.0031 C   0  0  0  0  0  0  0  0  0  0  0  0
   -1.7634    0.2018    0.4397 C   0  0  0  0  0  0  0  0  0  0  0  0
   -2.0144   -1.0655    0.9216 O   0  0  0  0  0  0  0  0  0  0  0  0
    2.0824   -1.1421   -1.4889 H   0  0  0  0  0  0  0  0  0  0  0  0
    1.0228    0.2349   -2.0446 H   0  0  0  0  0  0  0  0  0  0  0  0
    2.3872    0.5493   -0.8564 H   0  0  0  0  0  0  0  0  0  0  0  0
    0.2428   -1.5300   -0.1272 H   0  0  0  0  0  0  0  0  0  0  0  0
    2.4330   -0.9336    1.1104 H   0  0  0  0  0  0  0  0  0  0  0  0
    1.5351    0.6017    1.6244 H   0  0  0  0  0  0  0  0  0  0  0  0
    0.9069   -1.0060    2.0361 H   0  0  0  0  0  0  0  0  0  0  0  0
   -0.3507    2.3729    0.8311 H   0  0  0  0  0  0  0  0  0  0  0  0
   -1.8789    1.2221   -1.5773 H   0  0  0  0  0  0  0  0  0  0  0  0
   -1.4876   -0.5783   -1.6229 H   0  0  0  0  0  0  0  0  0  0  0  0
   -2.2869    1.0027    1.0268 H   0  0  0  0  0  0  0  0  0  0  0  0
   -2.7666   -1.5224    0.4722 H   0  0  0  0  0  0  0  0  0  0  0  0
  1  2  1  0
  2  3  1  0
  2  4  1  0
  4  5  1  0
  4  6  1  0
  6  7  1  0
  7  8  1  0
  7  4  1  0
  1  9  1  0
  1 10  1  0
  1 11  1  0
  2 12  1  0
  3 13  1  0
  3 14  1  0
  3 15  1  0
  5 16  1  0
  6 17  1  0
  6 18  1  0
  7 19  1  0
  8 20  1  0
M  END
