
     RDKit          3D

 19 18  0  0  0  0  0  0  0  0999 V2000
   -1.3604    0.7824    1.4524 C   0  0  0  0  0  0  0  0  0  0  0  0
   -1.7948    0.3582    0.0450 C   0  0  0  0  0  0  0  0  0  0  0  0
   -1.5280    1.4823   -0.9177 C   0  0  0  0  0  0  0  0  0  0  0  0
   -1.1991   -0.9138   -0.3510 C   0  0  0  0  0  0  0  0  0  0  0  0
   -1.9321   -1.8971   -0.6367 O   0  0  0  0  0  0  0  0  0  0  0  0
    0.2462   -1.0129   -0.4058 C   0  0  0  0  0  0  0  0  0  0  0  0
    1.4549   -1.0804   -0.4379 C   0  0  0  0  0  0  0  0  0  0  0  0
    2.9188   -1.1746   -0.4743 C   0  0  0  0  0  0  0  0  0  0  0  0
    3.3466   -1.3509    0.8420 O   0  0  0  0  0  0  0  0  0  0  0  0
   -0.2476    0.8752    1.5055 H   0  0  0  0  0  0  0  0  0  0  0  0
   -1.7629    0.0915    2.1937 H   0  0  0  0  0  0  0  0  0  0  0  0
   -1.7596    1.7977    1.6529 H   0  0  0  0  0  0  0  0  0  0  0  0
   -2.9119    0.2603    0.1133 H   0  0  0  0  0  0  0  0  0  0  0  0
   -1.4919    2.4203   -0.3258 H   0  0  0  0  0  0  0  0  0  0  0  0
   -0.5799    1.3605   -1.4723 H   0  0  0  0  0  0  0  0  0  0  0  0
   -2.3865    1.6217   -1.6311 H   0  0  0  0  0  0  0  0  0  0  0  0
    3.3630   -0.2603   -0.9387 H   0  0  0  0  0  0  0  0  0  0  0  0
    3.2704   -2.0289   -1.0933 H   0  0  0  0  0  0  0  0  0  0  0  0
    4.3547   -1.3311    0.8798 H   0  0  0  0  0  0  0  0  0  0  0  0
  1  2  1  0
  2  3  1  0
  2  4  1  0
  4  5  2  0
  4  6  1  0
  6  7  3  0
  7  8  1  0
  8  9  1  0
  1 10  1  0
  1 11  1  0
  1 12  1  0
  2 13  1  0
  3 14  1  0
  3 15  1  0
  3 16  1  0
  8 17  1  0
  8 18  1  0
  9 19  1  0
M  END
