
     RDKit          3D

 20 19  0  0  0  0  0  0  0  0999 V2000
    1.4830   -1.6070   -0.2826 C   0  0  0  0  0  0  0  0  0  0  0  0
    0.8608   -0.2240   -0.0998 C   0  0  0  0  0  0  0  0  0  0  0  0
    1.8927    0.7653   -0.6157 C   0  0  0  0  0  0  0  0  0  0  0  0
    3.0485    0.5755    0.1197 O   0  0  0  0  0  0  0  0  0  0  0  0
   -0.3381   -0.1245   -0.7640 O   0  0  0  0  0  0  0  0  0  0  0  0
   -1.3620    0.1976    0.1100 C   0  0  0  0  0  0  0  0  0  0  0  0
   -2.6953    0.3236   -0.5363 C   0  0  0  0  0  0  0  0  0  0  0  0
   -3.6230    0.6500    0.4658 O   0  0  0  0  0  0  0  0  0  0  0  0
    0.9858   -2.3608    0.3499 H   0  0  0  0  0  0  0  0  0  0  0  0
    2.5439   -1.5808    0.0137 H   0  0  0  0  0  0  0  0  0  0  0  0
    1.4427   -1.8330   -1.3580 H   0  0  0  0  0  0  0  0  0  0  0  0
    0.6980   -0.0186    0.9764 H   0  0  0  0  0  0  0  0  0  0  0  0
    1.5459    1.7998   -0.5728 H   0  0  0  0  0  0  0  0  0  0  0  0
    2.1405    0.5321   -1.6738 H   0  0  0  0  0  0  0  0  0  0  0  0
    2.8895    0.6224    1.1079 H   0  0  0  0  0  0  0  0  0  0  0  0
   -1.4517   -0.5734    0.9199 H   0  0  0  0  0  0  0  0  0  0  0  0
   -1.1020    1.1745    0.5812 H   0  0  0  0  0  0  0  0  0  0  0  0
   -2.7409    1.0254   -1.3701 H   0  0  0  0  0  0  0  0  0  0  0  0
   -3.0241   -0.6748   -0.9267 H   0  0  0  0  0  0  0  0  0  0  0  0
   -3.1944    1.3309    1.0733 H   0  0  0  0  0  0  0  0  0  0  0  0
  1  2  1  0
  2  3  1  0
  3  4  1  0
  2  5  1  0
  5  6  1  0
  6  7  1  0
  7  8  1  0
  1  9  1  0
  1 10  1  0
  1 11  1  0
  2 12  1  0
  3 13  1  0
  3 14  1  0
  4 15  1  0
  6 16  1  0
  6 17  1  0
  7 18  1  0
  7 19  1  0
  8 20  1  0
M  END
