
     RDKit          3D

 25 25  0  0  0  0  0  0  0  0999 V2000
   -2.4006    0.4743    1.2692 C   0  0  0  0  0  0  0  0  0  0  0  0
   -1.4180    0.4064    0.0939 C   0  0  0  0  0  0  0  0  0  0  0  0
   -2.2122   -0.1532   -1.0730 C   0  0  0  0  0  0  0  0  0  0  0  0
   -0.2233   -0.4252    0.4220 C   0  0  0  0  0  0  0  0  0  0  0  0
    0.7028   -0.4667   -0.7493 C   0  0  0  0  0  0  0  0  0  0  0  0
    1.9362   -1.3166   -0.4715 C   0  0  0  0  0  0  0  0  0  0  0  0
    2.8906   -0.3625    0.1227 C   0  0  0  0  0  0  0  0  0  0  0  0
    2.5639    0.8726   -0.1749 C   0  0  0  0  0  0  0  0  0  0  0  0
    1.3431    0.8940   -1.0097 C   0  0  0  0  0  0  0  0  0  0  0  0
   -1.9429    1.0581    2.0716 H   0  0  0  0  0  0  0  0  0  0  0  0
   -3.3103    0.9876    0.8378 H   0  0  0  0  0  0  0  0  0  0  0  0
   -2.7253   -0.5138    1.5910 H   0  0  0  0  0  0  0  0  0  0  0  0
   -1.1996    1.4640   -0.1419 H   0  0  0  0  0  0  0  0  0  0  0  0
   -1.6759    0.0022   -2.0409 H   0  0  0  0  0  0  0  0  0  0  0  0
   -2.4359   -1.2292   -0.9053 H   0  0  0  0  0  0  0  0  0  0  0  0
   -3.1923    0.3913   -1.1022 H   0  0  0  0  0  0  0  0  0  0  0  0
    0.3293    0.1132    1.2413 H   0  0  0  0  0  0  0  0  0  0  0  0
   -0.4878   -1.4098    0.8180 H   0  0  0  0  0  0  0  0  0  0  0  0
    0.2443   -0.8378   -1.6803 H   0  0  0  0  0  0  0  0  0  0  0  0
    1.6915   -2.1622    0.2034 H   0  0  0  0  0  0  0  0  0  0  0  0
    2.3459   -1.6982   -1.4370 H   0  0  0  0  0  0  0  0  0  0  0  0
    3.7839   -0.6234    0.7486 H   0  0  0  0  0  0  0  0  0  0  0  0
    3.1122    1.7990    0.1437 H   0  0  0  0  0  0  0  0  0  0  0  0
    1.5746    1.0047   -2.0934 H   0  0  0  0  0  0  0  0  0  0  0  0
    0.7058    1.7312   -0.6660 H   0  0  0  0  0  0  0  0  0  0  0  0
  1  2  1  0
  2  3  1  0
  2  4  1  0
  4  5  1  0
  5  6  1  0
  6  7  1  0
  7  8  2  0
  8  9  1  0
  9  5  1  0
  1 10  1  0
  1 11  1  0
  1 12  1  0
  2 13  1  0
  3 14  1  0
  3 15  1  0
  3 16  1  0
  4 17  1  0
  4 18  1  0
  5 19  1  0
  6 20  1  0
  6 21  1  0
  7 22  1  0
  8 23  1  0
  9 24  1  0
  9 25  1  0
M  END
