
     RDKit          3D

 20 20  0  0  0  0  0  0  0  0999 V2000
   -1.4255    1.3455   -0.1697 C   0  0  0  0  0  0  0  0  0  0  0  0
   -0.6009    0.1406    0.2798 C   0  0  0  0  0  0  0  0  0  0  0  0
   -1.5758   -1.0016    0.4616 C   0  0  0  0  0  0  0  0  0  0  0  0
   -0.0697    0.4467    1.5062 O   0  0  0  0  0  0  0  0  0  0  0  0
    0.4016   -0.1118   -0.7937 C   0  0  0  0  0  0  0  0  0  0  0  0
    1.5969   -0.9191   -0.4692 C   0  0  0  0  0  0  0  0  0  0  0  0
    2.1812    0.4385   -0.1887 C   0  0  0  0  0  0  0  0  0  0  0  0
    1.2032    0.9994   -0.9976 O   0  0  0  0  0  0  0  0  0  0  0  0
   -1.9728    1.8108    0.6635 H   0  0  0  0  0  0  0  0  0  0  0  0
   -0.7267    2.0641   -0.6457 H   0  0  0  0  0  0  0  0  0  0  0  0
   -2.1142    0.9535   -0.9625 H   0  0  0  0  0  0  0  0  0  0  0  0
   -2.3235   -0.6684    1.2111 H   0  0  0  0  0  0  0  0  0  0  0  0
   -1.0566   -1.9321    0.7942 H   0  0  0  0  0  0  0  0  0  0  0  0
   -2.1173   -1.2340   -0.4733 H   0  0  0  0  0  0  0  0  0  0  0  0
   -0.3240   -0.1820    2.2286 H   0  0  0  0  0  0  0  0  0  0  0  0
   -0.1049   -0.4982   -1.7082 H   0  0  0  0  0  0  0  0  0  0  0  0
    2.0738   -1.3155   -1.4106 H   0  0  0  0  0  0  0  0  0  0  0  0
    1.5601   -1.6179    0.3638 H   0  0  0  0  0  0  0  0  0  0  0  0
    2.1636    0.7277    0.8744 H   0  0  0  0  0  0  0  0  0  0  0  0
    3.2315    0.5538   -0.5639 H   0  0  0  0  0  0  0  0  0  0  0  0
  1  2  1  0
  2  3  1  0
  2  4  1  0
  2  5  1  0
  5  6  1  0
  6  7  1  0
  7  8  1  0
  8  5  1  0
  1  9  1  0
  1 10  1  0
  1 11  1  0
  3 12  1  0
  3 13  1  0
  3 14  1  0
  4 15  1  0
  5 16  1  0
  6 17  1  0
  6 18  1  0
  7 19  1  0
  7 20  1  0
M  END
