
     RDKit          3D

 17 16  0  0  0  0  0  0  0  0999 V2000
   -1.8428   -1.0404   -0.6449 C   0  0  0  0  0  0  0  0  0  0  0  0
   -1.1983    0.1476    0.0380 C   0  0  0  0  0  0  0  0  0  0  0  0
   -1.8197    0.4491    1.3516 C   0  0  0  0  0  0  0  0  0  0  0  0
   -3.0109    0.6599    1.4542 O   0  0  0  0  0  0  0  0  0  0  0  0
    0.1684   -0.0672    0.0968 O   0  0  0  0  0  0  0  0  0  0  0  0
    1.1339    0.7021   -0.5206 C   0  0  0  0  0  0  0  0  0  0  0  0
    0.7705    1.6755   -1.1917 O   0  0  0  0  0  0  0  0  0  0  0  0
    2.5618    0.3117   -0.3404 C   0  0  0  0  0  0  0  0  0  0  0  0
    2.6785   -0.8219    0.4625 O   0  0  0  0  0  0  0  0  0  0  0  0
   -1.9716   -0.8400   -1.7291 H   0  0  0  0  0  0  0  0  0  0  0  0
   -1.1986   -1.9566   -0.5723 H   0  0  0  0  0  0  0  0  0  0  0  0
   -2.8089   -1.3299   -0.1610 H   0  0  0  0  0  0  0  0  0  0  0  0
   -1.3685    1.0595   -0.6024 H   0  0  0  0  0  0  0  0  0  0  0  0
   -1.1741    0.4757    2.2219 H   0  0  0  0  0  0  0  0  0  0  0  0
    3.1488    1.1634    0.0620 H   0  0  0  0  0  0  0  0  0  0  0  0
    3.0403    0.0382   -1.3187 H   0  0  0  0  0  0  0  0  0  0  0  0
    2.8912   -0.6267    1.3941 H   0  0  0  0  0  0  0  0  0  0  0  0
  1  2  1  0
  2  3  1  0
  3  4  2  0
  2  5  1  0
  5  6  1  0
  6  7  2  0
  6  8  1  0
  8  9  1  0
  1 10  1  0
  1 11  1  0
  1 12  1  0
  2 13  1  0
  3 14  1  0
  8 15  1  0
  8 16  1  0
  9 17  1  0
M  END
