
     RDKit          3D

 23 23  0  0  0  0  0  0  0  0999 V2000
    2.0688    1.3882    0.6382 C   0  0  0  0  0  0  0  0  0  0  0  0
    1.4973    0.1555   -0.0270 C   0  0  0  0  0  0  0  0  0  0  0  0
    2.3819   -1.0518    0.1909 C   0  0  0  0  0  0  0  0  0  0  0  0
    0.2213   -0.0325    0.4977 O   0  0  0  0  0  0  0  0  0  0  0  0
   -0.6796    0.0675   -0.5624 C   0  0  0  0  0  0  0  0  0  0  0  0
   -1.7736    1.0701   -0.2999 C   0  0  0  0  0  0  0  0  0  0  0  0
   -2.7666    0.2995    0.4719 C   0  0  0  0  0  0  0  0  0  0  0  0
   -2.5537   -0.9869    0.2746 C   0  0  0  0  0  0  0  0  0  0  0  0
   -1.4261   -1.2752   -0.6260 C   0  0  0  0  0  0  0  0  0  0  0  0
    1.5296    1.6548    1.5648 H   0  0  0  0  0  0  0  0  0  0  0  0
    3.1176    1.1540    0.9459 H   0  0  0  0  0  0  0  0  0  0  0  0
    1.9900    2.2406   -0.0431 H   0  0  0  0  0  0  0  0  0  0  0  0
    1.4690    0.3314   -1.1213 H   0  0  0  0  0  0  0  0  0  0  0  0
    3.4304   -0.6977    0.0689 H   0  0  0  0  0  0  0  0  0  0  0  0
    2.2875   -1.4818    1.1939 H   0  0  0  0  0  0  0  0  0  0  0  0
    2.2001   -1.8159   -0.6058 H   0  0  0  0  0  0  0  0  0  0  0  0
   -0.1679    0.2663   -1.5311 H   0  0  0  0  0  0  0  0  0  0  0  0
   -1.3877    1.9544    0.2448 H   0  0  0  0  0  0  0  0  0  0  0  0
   -2.1988    1.3750   -1.2852 H   0  0  0  0  0  0  0  0  0  0  0  0
   -3.5522    0.7247    1.1051 H   0  0  0  0  0  0  0  0  0  0  0  0
   -3.1589   -1.7733    0.7372 H   0  0  0  0  0  0  0  0  0  0  0  0
   -1.7057   -1.4805   -1.6616 H   0  0  0  0  0  0  0  0  0  0  0  0
   -0.8225   -2.0865   -0.1706 H   0  0  0  0  0  0  0  0  0  0  0  0
  1  2  1  0
  2  3  1  0
  2  4  1  0
  4  5  1  0
  5  6  1  0
  6  7  1  0
  7  8  2  0
  8  9  1  0
  9  5  1  0
  1 10  1  0
  1 11  1  0
  1 12  1  0
  2 13  1  0
  3 14  1  0
  3 15  1  0
  3 16  1  0
  5 17  1  0
  6 18  1  0
  6 19  1  0
  7 20  1  0
  8 21  1  0
  9 22  1  0
  9 23  1  0
M  END
