
     RDKit          3D

 23 24  0  0  0  0  0  0  0  0999 V2000
    1.6667   -1.3595    0.0506 C   0  0  0  0  0  0  0  0  0  0  0  0
    1.1183   -0.0002    0.4374 C   0  0  0  0  0  0  0  0  0  0  0  0
    2.2306    1.0050    0.2195 C   0  0  0  0  0  0  0  0  0  0  0  0
   -0.0810    0.2701   -0.4092 C   0  0  0  0  0  0  0  0  0  0  0  0
   -0.7953    1.5553   -0.2095 C   0  0  0  0  0  0  0  0  0  0  0  0
   -1.9888    0.8985   -0.8520 C   0  0  0  0  0  0  0  0  0  0  0  0
   -1.4182   -0.0436    0.1711 C   0  0  0  0  0  0  0  0  0  0  0  0
   -1.9176   -1.2830    0.5117 C   0  0  0  0  0  0  0  0  0  0  0  0
   -1.2684    1.0597    0.9913 O   0  0  0  0  0  0  0  0  0  0  0  0
    2.7951   -1.3434    0.0722 H   0  0  0  0  0  0  0  0  0  0  0  0
    1.2792   -2.1735    0.6776 H   0  0  0  0  0  0  0  0  0  0  0  0
    1.4211   -1.5381   -1.0354 H   0  0  0  0  0  0  0  0  0  0  0  0
    0.8386   -0.0633    1.5139 H   0  0  0  0  0  0  0  0  0  0  0  0
    2.7111    1.3023    1.1616 H   0  0  0  0  0  0  0  0  0  0  0  0
    3.0415    0.5915   -0.4293 H   0  0  0  0  0  0  0  0  0  0  0  0
    1.8075    1.8699   -0.3199 H   0  0  0  0  0  0  0  0  0  0  0  0
   -0.0069   -0.0547   -1.4642 H   0  0  0  0  0  0  0  0  0  0  0  0
   -0.4656    2.4903   -0.3949 H   0  0  0  0  0  0  0  0  0  0  0  0
   -2.9650    1.3135   -0.6168 H   0  0  0  0  0  0  0  0  0  0  0  0
   -1.7836    0.6108   -1.8937 H   0  0  0  0  0  0  0  0  0  0  0  0
   -1.1165   -2.0426    0.7300 H   0  0  0  0  0  0  0  0  0  0  0  0
   -2.5796   -1.3001    1.3988 H   0  0  0  0  0  0  0  0  0  0  0  0
   -2.5233   -1.7646   -0.3108 H   0  0  0  0  0  0  0  0  0  0  0  0
  1  2  1  0
  2  3  1  0
  2  4  1  0
  4  5  1  0
  5  6  1  0
  6  7  1  0
  7  8  1  0
  7  9  1  0
  7  4  1  0
  9  5  1  0
  1 10  1  0
  1 11  1  0
  1 12  1  0
  2 13  1  0
  3 14  1  0
  3 15  1  0
  3 16  1  0
  4 17  1  0
  5 18  1  0
  6 19  1  0
  6 20  1  0
  8 21  1  0
  8 22  1  0
  8 23  1  0
M  END
