
     RDKit          3D

 25 25  0  0  0  0  0  0  0  0999 V2000
   -0.5383    0.7827    1.2673 C   0  0  0  0  0  0  0  0  0  0  0  0
   -0.7292   -0.2469    0.2129 C   0  0  0  0  0  0  0  0  0  0  0  0
   -1.6864    0.3749   -0.8173 C   0  0  0  0  0  0  0  0  0  0  0  0
   -1.4721   -1.4219    0.8330 C   0  0  0  0  0  0  0  0  0  0  0  0
   -2.7147   -1.0374    1.3278 O   0  0  0  0  0  0  0  0  0  0  0  0
    0.4783   -0.7833   -0.4494 C   0  0  0  0  0  0  0  0  0  0  0  0
    1.3492    0.1685   -1.1798 C   0  0  0  0  0  0  0  0  0  0  0  0
    1.9969    1.2964   -0.4462 C   0  0  0  0  0  0  0  0  0  0  0  0
    2.8207    0.1165   -0.9011 C   0  0  0  0  0  0  0  0  0  0  0  0
   -1.5520    0.8644    1.7841 H   0  0  0  0  0  0  0  0  0  0  0  0
    0.2174    0.5228    2.0438 H   0  0  0  0  0  0  0  0  0  0  0  0
   -0.3792    1.8163    0.8945 H   0  0  0  0  0  0  0  0  0  0  0  0
   -1.2118    1.2616   -1.2609 H   0  0  0  0  0  0  0  0  0  0  0  0
   -1.9714   -0.3618   -1.5833 H   0  0  0  0  0  0  0  0  0  0  0  0
   -2.6031    0.6295   -0.2414 H   0  0  0  0  0  0  0  0  0  0  0  0
   -1.6049   -2.1770    0.0531 H   0  0  0  0  0  0  0  0  0  0  0  0
   -0.8345   -1.8192    1.6455 H   0  0  0  0  0  0  0  0  0  0  0  0
   -2.6877   -0.7649    2.2787 H   0  0  0  0  0  0  0  0  0  0  0  0
    0.1494   -1.5619   -1.2027 H   0  0  0  0  0  0  0  0  0  0  0  0
    1.1124   -1.3749    0.2761 H   0  0  0  0  0  0  0  0  0  0  0  0
    1.1349    0.2989   -2.2740 H   0  0  0  0  0  0  0  0  0  0  0  0
    1.9250    1.3640    0.6465 H   0  0  0  0  0  0  0  0  0  0  0  0
    2.0394    2.2479   -1.0244 H   0  0  0  0  0  0  0  0  0  0  0  0
    3.5494    0.3961   -1.7096 H   0  0  0  0  0  0  0  0  0  0  0  0
    3.2123   -0.5913   -0.1732 H   0  0  0  0  0  0  0  0  0  0  0  0
  1  2  1  0
  2  3  1  0
  2  4  1  0
  4  5  1  0
  2  6  1  0
  6  7  1  0
  7  8  1  0
  8  9  1  0
  9  7  1  0
  1 10  1  0
  1 11  1  0
  1 12  1  0
  3 13  1  0
  3 14  1  0
  3 15  1  0
  4 16  1  0
  4 17  1  0
  5 18  1  0
  6 19  1  0
  6 20  1  0
  7 21  1  0
  8 22  1  0
  8 23  1  0
  9 24  1  0
  9 25  1  0
M  END
