
     RDKit          3D

 23 22  0  0  0  0  0  0  0  0999 V2000
   -1.5967   -1.4423    0.5100 C   0  0  0  0  0  0  0  0  0  0  0  0
   -1.1916   -0.2378   -0.3108 C   0  0  0  0  0  0  0  0  0  0  0  0
   -2.3085    0.7352   -0.5130 C   0  0  0  0  0  0  0  0  0  0  0  0
    0.0272    0.3890    0.3419 C   0  0  0  0  0  0  0  0  0  0  0  0
    0.4660    1.5657   -0.4138 C   0  0  0  0  0  0  0  0  0  0  0  0
    1.0811    1.5063   -1.4696 O   0  0  0  0  0  0  0  0  0  0  0  0
    1.0826   -0.7022    0.4173 C   0  0  0  0  0  0  0  0  0  0  0  0
    2.3563   -0.2135    1.0499 C   0  0  0  0  0  0  0  0  0  0  0  0
    2.8853    0.8264    0.3252 O   0  0  0  0  0  0  0  0  0  0  0  0
   -1.0715   -2.3590    0.1647 H   0  0  0  0  0  0  0  0  0  0  0  0
   -1.4284   -1.2960    1.5868 H   0  0  0  0  0  0  0  0  0  0  0  0
   -2.6855   -1.6380    0.3476 H   0  0  0  0  0  0  0  0  0  0  0  0
   -0.8711   -0.6230   -1.3054 H   0  0  0  0  0  0  0  0  0  0  0  0
   -3.1171    0.5820    0.2571 H   0  0  0  0  0  0  0  0  0  0  0  0
   -1.9880    1.7888   -0.5168 H   0  0  0  0  0  0  0  0  0  0  0  0
   -2.8226    0.5608   -1.4938 H   0  0  0  0  0  0  0  0  0  0  0  0
   -0.1805    0.6892    1.3863 H   0  0  0  0  0  0  0  0  0  0  0  0
    0.2514    2.5632   -0.0474 H   0  0  0  0  0  0  0  0  0  0  0  0
    0.6300   -1.5292    0.9991 H   0  0  0  0  0  0  0  0  0  0  0  0
    1.3086   -1.0144   -0.6136 H   0  0  0  0  0  0  0  0  0  0  0  0
    3.0744   -1.0508    1.0330 H   0  0  0  0  0  0  0  0  0  0  0  0
    2.2090    0.1169    2.1005 H   0  0  0  0  0  0  0  0  0  0  0  0
    3.8898    0.7827    0.2857 H   0  0  0  0  0  0  0  0  0  0  0  0
  1  2  1  0
  2  3  1  0
  2  4  1  0
  4  5  1  0
  5  6  2  0
  4  7  1  0
  7  8  1  0
  8  9  1  0
  1 10  1  0
  1 11  1  0
  1 12  1  0
  2 13  1  0
  3 14  1  0
  3 15  1  0
  3 16  1  0
  4 17  1  0
  5 18  1  0
  7 19  1  0
  7 20  1  0
  8 21  1  0
  8 22  1  0
  9 23  1  0
M  END
