
     RDKit          3D

 25 25  0  0  0  0  0  0  0  0999 V2000
    2.3338    0.7182   -1.4994 C   0  0  0  0  0  0  0  0  0  0  0  0
    1.8652   -0.0040   -0.2589 C   0  0  0  0  0  0  0  0  0  0  0  0
    2.7761    0.2872    0.9238 C   0  0  0  0  0  0  0  0  0  0  0  0
    0.5599    0.3499    0.0811 O   0  0  0  0  0  0  0  0  0  0  0  0
   -0.2563   -0.7596    0.0544 C   0  0  0  0  0  0  0  0  0  0  0  0
   -1.6619   -0.3471    0.4260 C   0  0  0  0  0  0  0  0  0  0  0  0
   -2.6487   -1.4851    0.4305 C   0  0  0  0  0  0  0  0  0  0  0  0
   -2.2032    0.9575   -0.0606 C   0  0  0  0  0  0  0  0  0  0  0  0
   -1.8064    0.7992    1.3648 C   0  0  0  0  0  0  0  0  0  0  0  0
    3.4190    0.9274   -1.4861 H   0  0  0  0  0  0  0  0  0  0  0  0
    2.0131    0.1906   -2.4237 H   0  0  0  0  0  0  0  0  0  0  0  0
    1.8353    1.7257   -1.5175 H   0  0  0  0  0  0  0  0  0  0  0  0
    1.9100   -1.1121   -0.4675 H   0  0  0  0  0  0  0  0  0  0  0  0
    3.0398   -0.6655    1.4362 H   0  0  0  0  0  0  0  0  0  0  0  0
    2.2481    0.9608    1.6202 H   0  0  0  0  0  0  0  0  0  0  0  0
    3.6817    0.8134    0.5890 H   0  0  0  0  0  0  0  0  0  0  0  0
   -0.2134   -1.2708   -0.9244 H   0  0  0  0  0  0  0  0  0  0  0  0
    0.1221   -1.4827    0.8095 H   0  0  0  0  0  0  0  0  0  0  0  0
   -2.3844   -2.2053    1.2289 H   0  0  0  0  0  0  0  0  0  0  0  0
   -3.6808   -1.0893    0.5197 H   0  0  0  0  0  0  0  0  0  0  0  0
   -2.5759   -1.9772   -0.5706 H   0  0  0  0  0  0  0  0  0  0  0  0
   -1.5890    1.5693   -0.7634 H   0  0  0  0  0  0  0  0  0  0  0  0
   -3.2890    1.0278   -0.2805 H   0  0  0  0  0  0  0  0  0  0  0  0
   -2.6186    0.7288    2.1070 H   0  0  0  0  0  0  0  0  0  0  0  0
   -0.8764    1.3428    1.6611 H   0  0  0  0  0  0  0  0  0  0  0  0
  1  2  1  0
  2  3  1  0
  2  4  1  0
  4  5  1  0
  5  6  1  0
  6  7  1  0
  6  8  1  0
  8  9  1  0
  9  6  1  0
  1 10  1  0
  1 11  1  0
  1 12  1  0
  2 13  1  0
  3 14  1  0
  3 15  1  0
  3 16  1  0
  5 17  1  0
  5 18  1  0
  7 19  1  0
  7 20  1  0
  7 21  1  0
  8 22  1  0
  8 23  1  0
  9 24  1  0
  9 25  1  0
M  END
