
     RDKit          3D

 21 21  0  0  0  0  0  0  0  0999 V2000
   -1.9638    0.9110    0.5265 C   0  0  0  0  0  0  0  0  0  0  0  0
   -1.4310   -0.2426   -0.2775 C   0  0  0  0  0  0  0  0  0  0  0  0
   -2.0222   -1.5152    0.2605 C   0  0  0  0  0  0  0  0  0  0  0  0
    0.0261   -0.3314   -0.3054 C   0  0  0  0  0  0  0  0  0  0  0  0
    0.5617   -1.3366    0.1307 O   0  0  0  0  0  0  0  0  0  0  0  0
    0.9130    0.7402   -0.8392 C   0  0  0  0  0  0  0  0  0  0  0  0
    2.3617    0.3500   -0.7283 C   0  0  0  0  0  0  0  0  0  0  0  0
    2.8687    0.0810    0.6277 C   0  0  0  0  0  0  0  0  0  0  0  0
    3.2265    1.2844   -0.1603 O   0  0  0  0  0  0  0  0  0  0  0  0
   -3.0850    0.7757    0.5525 H   0  0  0  0  0  0  0  0  0  0  0  0
   -1.7858    1.8923    0.0834 H   0  0  0  0  0  0  0  0  0  0  0  0
   -1.6494    0.8488    1.5990 H   0  0  0  0  0  0  0  0  0  0  0  0
   -1.7992   -0.1205   -1.3125 H   0  0  0  0  0  0  0  0  0  0  0  0
   -2.1417   -1.3876    1.3654 H   0  0  0  0  0  0  0  0  0  0  0  0
   -3.0424   -1.6894   -0.1617 H   0  0  0  0  0  0  0  0  0  0  0  0
   -1.3955   -2.4109    0.0317 H   0  0  0  0  0  0  0  0  0  0  0  0
    0.7148    0.9459   -1.9211 H   0  0  0  0  0  0  0  0  0  0  0  0
    0.7527    1.6900   -0.2710 H   0  0  0  0  0  0  0  0  0  0  0  0
    2.7694   -0.3184   -1.5290 H   0  0  0  0  0  0  0  0  0  0  0  0
    2.2938    0.3092    1.5331 H   0  0  0  0  0  0  0  0  0  0  0  0
    3.8275   -0.4757    0.7956 H   0  0  0  0  0  0  0  0  0  0  0  0
  1  2  1  0
  2  3  1  0
  2  4  1  0
  4  5  2  0
  4  6  1  0
  6  7  1  0
  7  8  1  0
  8  9  1  0
  9  7  1  0
  1 10  1  0
  1 11  1  0
  1 12  1  0
  2 13  1  0
  3 14  1  0
  3 15  1  0
  3 16  1  0
  6 17  1  0
  6 18  1  0
  7 19  1  0
  8 20  1  0
  8 21  1  0
M  END
