
     RDKit          3D

 23 24  0  0  0  0  0  0  0  0999 V2000
    1.7449    1.2092    0.7053 C   0  0  0  0  0  0  0  0  0  0  0  0
    0.8242    0.4390   -0.2239 C   0  0  0  0  0  0  0  0  0  0  0  0
    1.6634   -0.7300   -0.7596 C   0  0  0  0  0  0  0  0  0  0  0  0
    2.7771   -0.2840   -1.4448 O   0  0  0  0  0  0  0  0  0  0  0  0
   -0.3481   -0.1415    0.4767 C   0  0  0  0  0  0  0  0  0  0  0  0
   -1.3470   -0.9258   -0.2810 C   0  0  0  0  0  0  0  0  0  0  0  0
   -1.8692    0.3840   -0.8064 C   0  0  0  0  0  0  0  0  0  0  0  0
   -1.5897    0.6764    0.6174 C   0  0  0  0  0  0  0  0  0  0  0  0
   -2.2712   -0.6575    0.8853 C   0  0  0  0  0  0  0  0  0  0  0  0
    1.1930    1.8437    1.4103 H   0  0  0  0  0  0  0  0  0  0  0  0
    2.4518    1.8253    0.1121 H   0  0  0  0  0  0  0  0  0  0  0  0
    2.3650    0.5063    1.3002 H   0  0  0  0  0  0  0  0  0  0  0  0
    0.6122    1.0768   -1.0792 H   0  0  0  0  0  0  0  0  0  0  0  0
    1.0233   -1.3609   -1.4139 H   0  0  0  0  0  0  0  0  0  0  0  0
    1.9618   -1.3311    0.1390 H   0  0  0  0  0  0  0  0  0  0  0  0
    3.5233   -0.9251   -1.2837 H   0  0  0  0  0  0  0  0  0  0  0  0
   -0.0836   -0.6949    1.4271 H   0  0  0  0  0  0  0  0  0  0  0  0
   -1.2520   -1.7838   -0.7791 H   0  0  0  0  0  0  0  0  0  0  0  0
   -2.9760    0.2881   -0.9730 H   0  0  0  0  0  0  0  0  0  0  0  0
   -1.3211    0.8856   -1.5953 H   0  0  0  0  0  0  0  0  0  0  0  0
   -1.7300    1.5119    1.1436 H   0  0  0  0  0  0  0  0  0  0  0  0
   -3.3411   -0.6747    0.5893 H   0  0  0  0  0  0  0  0  0  0  0  0
   -2.0110   -1.1372    1.8335 H   0  0  0  0  0  0  0  0  0  0  0  0
  1  2  1  0
  2  3  1  0
  3  4  1  0
  2  5  1  0
  5  6  1  0
  6  7  1  0
  7  8  1  0
  8  9  1  0
  8  5  1  0
  9  6  1  0
  1 10  1  0
  1 11  1  0
  1 12  1  0
  2 13  1  0
  3 14  1  0
  3 15  1  0
  4 16  1  0
  5 17  1  0
  6 18  1  0
  7 19  1  0
  7 20  1  0
  8 21  1  0
  9 22  1  0
  9 23  1  0
M  END
