
     RDKit          3D

 23 23  0  0  0  0  0  0  0  0999 V2000
   -2.0717    1.0621    0.5624 C   0  0  0  0  0  0  0  0  0  0  0  0
   -1.1273    0.2370   -0.2325 C   0  0  0  0  0  0  0  0  0  0  0  0
   -1.8210   -1.0659   -0.6038 C   0  0  0  0  0  0  0  0  0  0  0  0
   -0.8316    0.8800   -1.4349 O   0  0  0  0  0  0  0  0  0  0  0  0
    0.1669   -0.0727    0.4499 C   0  0  0  0  0  0  0  0  0  0  0  0
    1.0341   -0.8103   -0.5634 C   0  0  0  0  0  0  0  0  0  0  0  0
    2.4427   -0.3773   -0.2008 C   0  0  0  0  0  0  0  0  0  0  0  0
    2.1742    0.5222    0.9981 C   0  0  0  0  0  0  0  0  0  0  0  0
    0.9127    1.0458    0.7254 O   0  0  0  0  0  0  0  0  0  0  0  0
   -2.6078    0.4105    1.3112 H   0  0  0  0  0  0  0  0  0  0  0  0
   -1.6371    1.9336    1.0554 H   0  0  0  0  0  0  0  0  0  0  0  0
   -2.8743    1.4261   -0.1162 H   0  0  0  0  0  0  0  0  0  0  0  0
   -2.2610   -1.5276    0.2823 H   0  0  0  0  0  0  0  0  0  0  0  0
   -1.1064   -1.7516   -1.1274 H   0  0  0  0  0  0  0  0  0  0  0  0
   -2.6064   -0.8000   -1.3459 H   0  0  0  0  0  0  0  0  0  0  0  0
   -0.5521    1.8106   -1.1840 H   0  0  0  0  0  0  0  0  0  0  0  0
    0.0491   -0.6517    1.3863 H   0  0  0  0  0  0  0  0  0  0  0  0
    0.9051   -1.8926   -0.4113 H   0  0  0  0  0  0  0  0  0  0  0  0
    0.7892   -0.4806   -1.5931 H   0  0  0  0  0  0  0  0  0  0  0  0
    3.0292   -1.2892    0.1110 H   0  0  0  0  0  0  0  0  0  0  0  0
    2.9110    0.1654   -1.0282 H   0  0  0  0  0  0  0  0  0  0  0  0
    2.1329   -0.0932    1.9012 H   0  0  0  0  0  0  0  0  0  0  0  0
    2.9497    1.3194    1.0581 H   0  0  0  0  0  0  0  0  0  0  0  0
  1  2  1  0
  2  3  1  0
  2  4  1  0
  2  5  1  0
  5  6  1  0
  6  7  1  0
  7  8  1  0
  8  9  1  0
  9  5  1  0
  1 10  1  0
  1 11  1  0
  1 12  1  0
  3 13  1  0
  3 14  1  0
  3 15  1  0
  4 16  1  0
  5 17  1  0
  6 18  1  0
  6 19  1  0
  7 20  1  0
  7 21  1  0
  8 22  1  0
  8 23  1  0
M  END
