
     RDKit          3D

 23 23  0  0  0  0  0  0  0  0999 V2000
    2.8664    0.8939    0.2853 C   0  0  0  0  0  0  0  0  0  0  0  0
    1.8025    0.3418   -0.6328 C   0  0  0  0  0  0  0  0  0  0  0  0
    2.0117   -1.1627   -0.7932 C   0  0  0  0  0  0  0  0  0  0  0  0
    0.4851    0.5430   -0.0324 C   0  0  0  0  0  0  0  0  0  0  0  0
    0.4102    1.0901    1.0535 O   0  0  0  0  0  0  0  0  0  0  0  0
   -0.8010    0.1102   -0.6817 C   0  0  0  0  0  0  0  0  0  0  0  0
   -1.9579    0.4644    0.1943 C   0  0  0  0  0  0  0  0  0  0  0  0
   -3.3467    0.1754   -0.1567 C   0  0  0  0  0  0  0  0  0  0  0  0
   -2.6408   -0.7515    0.8244 C   0  0  0  0  0  0  0  0  0  0  0  0
    3.3599    1.7837   -0.1355 H   0  0  0  0  0  0  0  0  0  0  0  0
    2.4422    1.2064    1.2743 H   0  0  0  0  0  0  0  0  0  0  0  0
    3.6381    0.1218    0.5425 H   0  0  0  0  0  0  0  0  0  0  0  0
    1.9076    0.7689   -1.6493 H   0  0  0  0  0  0  0  0  0  0  0  0
    1.9677   -1.6068    0.2384 H   0  0  0  0  0  0  0  0  0  0  0  0
    3.0202   -1.3026   -1.2457 H   0  0  0  0  0  0  0  0  0  0  0  0
    1.1959   -1.5401   -1.4113 H   0  0  0  0  0  0  0  0  0  0  0  0
   -0.8920    0.5171   -1.7131 H   0  0  0  0  0  0  0  0  0  0  0  0
   -0.6855   -1.0045   -0.8233 H   0  0  0  0  0  0  0  0  0  0  0  0
   -1.7955    1.3467    0.8807 H   0  0  0  0  0  0  0  0  0  0  0  0
   -4.1492    0.7710    0.3153 H   0  0  0  0  0  0  0  0  0  0  0  0
   -3.6603   -0.3356   -1.0783 H   0  0  0  0  0  0  0  0  0  0  0  0
   -2.8385   -0.6715    1.8919 H   0  0  0  0  0  0  0  0  0  0  0  0
   -2.3399   -1.7592    0.4871 H   0  0  0  0  0  0  0  0  0  0  0  0
  1  2  1  0
  2  3  1  0
  2  4  1  0
  4  5  2  0
  4  6  1  0
  6  7  1  0
  7  8  1  0
  8  9  1  0
  9  7  1  0
  1 10  1  0
  1 11  1  0
  1 12  1  0
  2 13  1  0
  3 14  1  0
  3 15  1  0
  3 16  1  0
  6 17  1  0
  6 18  1  0
  7 19  1  0
  8 20  1  0
  8 21  1  0
  9 22  1  0
  9 23  1  0
M  END
