
     RDKit          3D

 23 23  0  0  0  0  0  0  0  0999 V2000
   -1.6109   -0.6839    0.9935 C   0  0  0  0  0  0  0  0  0  0  0  0
   -0.8649   -0.0033   -0.1581 C   0  0  0  0  0  0  0  0  0  0  0  0
   -1.4226    1.3772   -0.3555 C   0  0  0  0  0  0  0  0  0  0  0  0
   -1.1328   -0.8847   -1.3808 C   0  0  0  0  0  0  0  0  0  0  0  0
    0.5790    0.0531    0.0824 C   0  0  0  0  0  0  0  0  0  0  0  0
    1.5420   -0.4841   -0.6674 C   0  0  0  0  0  0  0  0  0  0  0  0
    2.8370   -0.1521   -0.0059 C   0  0  0  0  0  0  0  0  0  0  0  0
    2.5295    0.9285    0.8222 O   0  0  0  0  0  0  0  0  0  0  0  0
    1.2220    0.7451    1.2458 C   0  0  0  0  0  0  0  0  0  0  0  0
   -2.5449   -1.1136    0.5763 H   0  0  0  0  0  0  0  0  0  0  0  0
   -0.9810   -1.5283    1.3399 H   0  0  0  0  0  0  0  0  0  0  0  0
   -1.8586    0.0308    1.7905 H   0  0  0  0  0  0  0  0  0  0  0  0
   -2.5455    1.3765   -0.3262 H   0  0  0  0  0  0  0  0  0  0  0  0
   -1.1045    1.9967    0.4970 H   0  0  0  0  0  0  0  0  0  0  0  0
   -1.0585    1.8406   -1.2748 H   0  0  0  0  0  0  0  0  0  0  0  0
   -0.7737   -1.9059   -1.0827 H   0  0  0  0  0  0  0  0  0  0  0  0
   -2.2249   -0.9336   -1.5296 H   0  0  0  0  0  0  0  0  0  0  0  0
   -0.5903   -0.5373   -2.2672 H   0  0  0  0  0  0  0  0  0  0  0  0
    1.4006   -1.0491   -1.5770 H   0  0  0  0  0  0  0  0  0  0  0  0
    3.5226    0.1716   -0.8391 H   0  0  0  0  0  0  0  0  0  0  0  0
    3.2325   -1.0210    0.5460 H   0  0  0  0  0  0  0  0  0  0  0  0
    1.1646    0.1023    2.1464 H   0  0  0  0  0  0  0  0  0  0  0  0
    0.6832    1.6745    1.4243 H   0  0  0  0  0  0  0  0  0  0  0  0
  1  2  1  0
  2  3  1  0
  2  4  1  0
  2  5  1  0
  5  6  2  0
  6  7  1  0
  7  8  1  0
  8  9  1  0
  9  5  1  0
  1 10  1  0
  1 11  1  0
  1 12  1  0
  3 13  1  0
  3 14  1  0
  3 15  1  0
  4 16  1  0
  4 17  1  0
  4 18  1  0
  6 19  1  0
  7 20  1  0
  7 21  1  0
  9 22  1  0
  9 23  1  0
M  END
