
     RDKit          3D

 22 21  0  0  0  0  0  0  0  0999 V2000
   -1.5079   -1.2779   -0.4963 C   0  0  0  0  0  0  0  0  0  0  0  0
   -1.2011   -0.0549    0.3076 C   0  0  0  0  0  0  0  0  0  0  0  0
   -1.3342    1.1459   -0.5895 C   0  0  0  0  0  0  0  0  0  0  0  0
    0.0708   -0.1037    1.0680 C   0  0  0  0  0  0  0  0  0  0  0  0
    0.2227    1.0955    1.7634 O   0  0  0  0  0  0  0  0  0  0  0  0
    1.2964   -0.3594    0.2805 C   0  0  0  0  0  0  0  0  0  0  0  0
    1.7206    0.7577   -0.6168 C   0  0  0  0  0  0  0  0  0  0  0  0
    1.2610   -1.5336   -0.4600 O   0  0  0  0  0  0  0  0  0  0  0  0
   -2.6098   -1.2792   -0.6803 H   0  0  0  0  0  0  0  0  0  0  0  0
   -1.2659   -2.2282    0.0058 H   0  0  0  0  0  0  0  0  0  0  0  0
   -1.0475   -1.2059   -1.5173 H   0  0  0  0  0  0  0  0  0  0  0  0
   -2.0319    0.0383    1.0689 H   0  0  0  0  0  0  0  0  0  0  0  0
   -1.2459    0.8710   -1.6823 H   0  0  0  0  0  0  0  0  0  0  0  0
   -0.6015    1.9301   -0.3917 H   0  0  0  0  0  0  0  0  0  0  0  0
   -2.3630    1.6017   -0.5201 H   0  0  0  0  0  0  0  0  0  0  0  0
   -0.0132   -0.8946    1.8602 H   0  0  0  0  0  0  0  0  0  0  0  0
    0.6808    0.9652    2.6331 H   0  0  0  0  0  0  0  0  0  0  0  0
    2.1382   -0.5052    1.0225 H   0  0  0  0  0  0  0  0  0  0  0  0
    2.7875    0.5390   -0.9181 H   0  0  0  0  0  0  0  0  0  0  0  0
    1.1464    0.7583   -1.5449 H   0  0  0  0  0  0  0  0  0  0  0  0
    1.7723    1.7388   -0.1033 H   0  0  0  0  0  0  0  0  0  0  0  0
    2.1250   -1.9990   -0.4892 H   0  0  0  0  0  0  0  0  0  0  0  0
  1  2  1  0
  2  3  1  0
  2  4  1  0
  4  5  1  0
  4  6  1  0
  6  7  1  0
  6  8  1  0
  1  9  1  0
  1 10  1  0
  1 11  1  0
  2 12  1  0
  3 13  1  0
  3 14  1  0
  3 15  1  0
  4 16  1  0
  5 17  1  0
  6 18  1  0
  7 19  1  0
  7 20  1  0
  7 21  1  0
  8 22  1  0
M  END
