
     RDKit          3D

 21 20  0  0  0  0  0  0  0  0999 V2000
   -2.4586   -0.3870   -0.6056 C   0  0  0  0  0  0  0  0  0  0  0  0
   -1.5336    0.1497    0.4574 C   0  0  0  0  0  0  0  0  0  0  0  0
   -1.8707    1.5943    0.7290 C   0  0  0  0  0  0  0  0  0  0  0  0
   -0.1679   -0.0324    0.1190 O   0  0  0  0  0  0  0  0  0  0  0  0
    0.6638   -0.8153    0.8815 C   0  0  0  0  0  0  0  0  0  0  0  0
    0.1790   -1.3736    1.8995 O   0  0  0  0  0  0  0  0  0  0  0  0
    2.0951   -1.0571    0.6004 C   0  0  0  0  0  0  0  0  0  0  0  0
    2.5757   -0.3458   -0.6363 C   0  0  0  0  0  0  0  0  0  0  0  0
    2.4170    1.0308   -0.5223 O   0  0  0  0  0  0  0  0  0  0  0  0
   -2.0109   -1.2008   -1.1992 H   0  0  0  0  0  0  0  0  0  0  0  0
   -3.3721   -0.8249   -0.1210 H   0  0  0  0  0  0  0  0  0  0  0  0
   -2.7993    0.4331   -1.2469 H   0  0  0  0  0  0  0  0  0  0  0  0
   -1.7388   -0.4317    1.3856 H   0  0  0  0  0  0  0  0  0  0  0  0
   -2.7350    1.6416    1.4424 H   0  0  0  0  0  0  0  0  0  0  0  0
   -1.0164    2.1533    1.1449 H   0  0  0  0  0  0  0  0  0  0  0  0
   -2.1434    2.0537   -0.2501 H   0  0  0  0  0  0  0  0  0  0  0  0
    2.6758   -0.6747    1.4597 H   0  0  0  0  0  0  0  0  0  0  0  0
    2.2351   -2.1532    0.5194 H   0  0  0  0  0  0  0  0  0  0  0  0
    2.1018   -0.7014   -1.5604 H   0  0  0  0  0  0  0  0  0  0  0  0
    3.6721   -0.5380   -0.7091 H   0  0  0  0  0  0  0  0  0  0  0  0
    3.2312    1.4794   -0.1491 H   0  0  0  0  0  0  0  0  0  0  0  0
  1  2  1  0
  2  3  1  0
  2  4  1  0
  4  5  1  0
  5  6  2  0
  5  7  1  0
  7  8  1  0
  8  9  1  0
  1 10  1  0
  1 11  1  0
  1 12  1  0
  2 13  1  0
  3 14  1  0
  3 15  1  0
  3 16  1  0
  7 17  1  0
  7 18  1  0
  8 19  1  0
  8 20  1  0
  9 21  1  0
M  END
