
     RDKit          3D

 20 19  0  0  0  0  0  0  0  0999 V2000
   -1.7907    0.5588   -0.5973 C   0  0  0  0  0  0  0  0  0  0  0  0
   -0.7664    0.2284    0.4612 C   0  0  0  0  0  0  0  0  0  0  0  0
   -1.0964   -1.0958    1.0053 C   0  0  0  0  0  0  0  0  0  0  0  0
   -2.2008   -1.2282    1.5095 O   0  0  0  0  0  0  0  0  0  0  0  0
    0.6464    0.3483   -0.0337 C   0  0  0  0  0  0  0  0  0  0  0  0
    0.9083   -0.5809   -1.1897 C   0  0  0  0  0  0  0  0  0  0  0  0
    1.6267    0.0328    1.0658 C   0  0  0  0  0  0  0  0  0  0  0  0
    0.8953    1.6577   -0.4431 O   0  0  0  0  0  0  0  0  0  0  0  0
   -1.8737   -0.2563   -1.3547 H   0  0  0  0  0  0  0  0  0  0  0  0
   -1.5844    1.5419   -1.0626 H   0  0  0  0  0  0  0  0  0  0  0  0
   -2.7820    0.5805   -0.0803 H   0  0  0  0  0  0  0  0  0  0  0  0
   -0.8985    0.9697    1.2913 H   0  0  0  0  0  0  0  0  0  0  0  0
   -0.4562   -1.9647    1.0027 H   0  0  0  0  0  0  0  0  0  0  0  0
    1.0581   -1.5974   -0.7564 H   0  0  0  0  0  0  0  0  0  0  0  0
    0.1202   -0.5453   -1.9428 H   0  0  0  0  0  0  0  0  0  0  0  0
    1.9032   -0.2935   -1.6097 H   0  0  0  0  0  0  0  0  0  0  0  0
    2.2905   -0.8238    0.8080 H   0  0  0  0  0  0  0  0  0  0  0  0
    1.0810   -0.2454    1.9927 H   0  0  0  0  0  0  0  0  0  0  0  0
    2.3051    0.8782    1.3020 H   0  0  0  0  0  0  0  0  0  0  0  0
    0.6144    1.8351   -1.3684 H   0  0  0  0  0  0  0  0  0  0  0  0
  1  2  1  0
  2  3  1  0
  3  4  2  0
  2  5  1  0
  5  6  1  0
  5  7  1  0
  5  8  1  0
  1  9  1  0
  1 10  1  0
  1 11  1  0
  2 12  1  0
  3 13  1  0
  6 14  1  0
  6 15  1  0
  6 16  1  0
  7 17  1  0
  7 18  1  0
  7 19  1  0
  8 20  1  0
M  END
