
     RDKit          3D

 22 22  0  0  0  0  0  0  0  0999 V2000
    1.3956   -1.3140   -0.0161 C   0  0  0  0  0  0  0  0  0  0  0  0
    0.7849    0.1056    0.0379 C   0  0  0  0  0  0  0  0  0  0  0  0
    0.8698    0.6575    1.4238 C   0  0  0  0  0  0  0  0  0  0  0  0
    2.2285    0.7002    1.8052 O   0  0  0  0  0  0  0  0  0  0  0  0
   -0.5749    0.1090   -0.5591 C   0  0  0  0  0  0  0  0  0  0  0  0
   -0.7101   -0.3137   -2.0291 C   0  0  0  0  0  0  0  0  0  0  0  0
   -1.5471    1.1836   -0.0796 C   0  0  0  0  0  0  0  0  0  0  0  0
   -1.7725   -0.2380    0.2559 C   0  0  0  0  0  0  0  0  0  0  0  0
    0.8027   -2.0067    0.6003 H   0  0  0  0  0  0  0  0  0  0  0  0
    1.4236   -1.5962   -1.0903 H   0  0  0  0  0  0  0  0  0  0  0  0
    2.4362   -1.1855    0.3197 H   0  0  0  0  0  0  0  0  0  0  0  0
    1.4776    0.7205   -0.6076 H   0  0  0  0  0  0  0  0  0  0  0  0
    0.2663    0.0983    2.1483 H   0  0  0  0  0  0  0  0  0  0  0  0
    0.5342    1.7371    1.3730 H   0  0  0  0  0  0  0  0  0  0  0  0
    2.3473    0.2348    2.6833 H   0  0  0  0  0  0  0  0  0  0  0  0
    0.1827    0.0021   -2.6029 H   0  0  0  0  0  0  0  0  0  0  0  0
   -0.8686   -1.3892   -2.1286 H   0  0  0  0  0  0  0  0  0  0  0  0
   -1.5747    0.2293   -2.4704 H   0  0  0  0  0  0  0  0  0  0  0  0
   -2.1020    1.6814   -0.9026 H   0  0  0  0  0  0  0  0  0  0  0  0
   -1.3185    1.8469    0.7471 H   0  0  0  0  0  0  0  0  0  0  0  0
   -2.6418   -0.7122   -0.2217 H   0  0  0  0  0  0  0  0  0  0  0  0
   -1.6392   -0.5509    1.3136 H   0  0  0  0  0  0  0  0  0  0  0  0
  1  2  1  0
  2  3  1  0
  3  4  1  0
  2  5  1  0
  5  6  1  0
  5  7  1  0
  7  8  1  0
  8  5  1  0
  1  9  1  0
  1 10  1  0
  1 11  1  0
  2 12  1  0
  3 13  1  0
  3 14  1  0
  4 15  1  0
  6 16  1  0
  6 17  1  0
  6 18  1  0
  7 19  1  0
  7 20  1  0
  8 21  1  0
  8 22  1  0
M  END
