
     RDKit          3D

 20 20  0  0  0  0  0  0  0  0999 V2000
    1.4577    0.0638    1.2571 C   0  0  0  0  0  0  0  0  0  0  0  0
    1.1429    0.3853   -0.1580 C   0  0  0  0  0  0  0  0  0  0  0  0
    1.9759   -0.4898   -1.0322 C   0  0  0  0  0  0  0  0  0  0  0  0
    2.9657   -1.0766   -0.6070 O   0  0  0  0  0  0  0  0  0  0  0  0
   -0.2700    0.2519   -0.5630 C   0  0  0  0  0  0  0  0  0  0  0  0
   -1.3060    1.0712    0.1221 C   0  0  0  0  0  0  0  0  0  0  0  0
   -2.2623   -0.0890   -0.1900 C   0  0  0  0  0  0  0  0  0  0  0  0
   -1.0140   -0.9733   -0.0601 C   0  0  0  0  0  0  0  0  0  0  0  0
    1.7349   -1.0065    1.3826 H   0  0  0  0  0  0  0  0  0  0  0  0
    0.6759    0.2855    1.9847 H   0  0  0  0  0  0  0  0  0  0  0  0
    2.3742    0.6402    1.5678 H   0  0  0  0  0  0  0  0  0  0  0  0
    1.4705    1.4300   -0.3687 H   0  0  0  0  0  0  0  0  0  0  0  0
    1.6596   -0.5797   -2.0652 H   0  0  0  0  0  0  0  0  0  0  0  0
   -0.3870    0.3116   -1.6637 H   0  0  0  0  0  0  0  0  0  0  0  0
   -1.5886    2.0146   -0.3718 H   0  0  0  0  0  0  0  0  0  0  0  0
   -1.2458    1.1527    1.2152 H   0  0  0  0  0  0  0  0  0  0  0  0
   -3.0325   -0.2652    0.5572 H   0  0  0  0  0  0  0  0  0  0  0  0
   -2.5801   -0.0772   -1.2484 H   0  0  0  0  0  0  0  0  0  0  0  0
   -1.0197   -1.8350   -0.7409 H   0  0  0  0  0  0  0  0  0  0  0  0
   -0.7512   -1.2146    0.9823 H   0  0  0  0  0  0  0  0  0  0  0  0
  1  2  1  0
  2  3  1  0
  3  4  2  0
  2  5  1  0
  5  6  1  0
  6  7  1  0
  7  8  1  0
  8  5  1  0
  1  9  1  0
  1 10  1  0
  1 11  1  0
  2 12  1  0
  3 13  1  0
  5 14  1  0
  6 15  1  0
  6 16  1  0
  7 17  1  0
  7 18  1  0
  8 19  1  0
  8 20  1  0
M  END
