
     RDKit          3D

 22 22  0  0  0  0  0  0  0  0999 V2000
   -1.6063   -0.4178   -1.3652 C   0  0  0  0  0  0  0  0  0  0  0  0
   -0.7958   -0.0945   -0.1016 C   0  0  0  0  0  0  0  0  0  0  0  0
   -1.1769    1.2998    0.3454 C   0  0  0  0  0  0  0  0  0  0  0  0
   -1.1541   -1.0767    0.9618 C   0  0  0  0  0  0  0  0  0  0  0  0
    0.6353   -0.1055   -0.5016 C   0  0  0  0  0  0  0  0  0  0  0  0
    1.6009    0.1902    0.5993 C   0  0  0  0  0  0  0  0  0  0  0  0
    3.0551    0.1735    0.1676 C   0  0  0  0  0  0  0  0  0  0  0  0
    2.5179   -0.7802    0.9932 O   0  0  0  0  0  0  0  0  0  0  0  0
   -1.3382    0.3105   -2.1543 H   0  0  0  0  0  0  0  0  0  0  0  0
   -1.3964   -1.4689   -1.6622 H   0  0  0  0  0  0  0  0  0  0  0  0
   -2.6731   -0.3218   -1.0925 H   0  0  0  0  0  0  0  0  0  0  0  0
   -0.3011    1.8937    0.6620 H   0  0  0  0  0  0  0  0  0  0  0  0
   -1.9136    1.2350    1.1650 H   0  0  0  0  0  0  0  0  0  0  0  0
   -1.6892    1.8579   -0.4913 H   0  0  0  0  0  0  0  0  0  0  0  0
   -0.7482   -0.7559    1.9437 H   0  0  0  0  0  0  0  0  0  0  0  0
   -0.8272   -2.0898    0.6742 H   0  0  0  0  0  0  0  0  0  0  0  0
   -2.2685   -1.0997    1.0368 H   0  0  0  0  0  0  0  0  0  0  0  0
    0.9283   -1.0980   -0.9373 H   0  0  0  0  0  0  0  0  0  0  0  0
    0.7828    0.6523   -1.2974 H   0  0  0  0  0  0  0  0  0  0  0  0
    1.3580    0.9466    1.3764 H   0  0  0  0  0  0  0  0  0  0  0  0
    3.2977   -0.2174   -0.8600 H   0  0  0  0  0  0  0  0  0  0  0  0
    3.7125    0.9667    0.5381 H   0  0  0  0  0  0  0  0  0  0  0  0
  1  2  1  0
  2  3  1  0
  2  4  1  0
  2  5  1  0
  5  6  1  0
  6  7  1  0
  7  8  1  0
  8  6  1  0
  1  9  1  0
  1 10  1  0
  1 11  1  0
  3 12  1  0
  3 13  1  0
  3 14  1  0
  4 15  1  0
  4 16  1  0
  4 17  1  0
  5 18  1  0
  5 19  1  0
  6 20  1  0
  7 21  1  0
  7 22  1  0
M  END
