
     RDKit          3D

 25 25  0  0  0  0  0  0  0  0999 V2000
   -2.3271    1.0461    0.2988 C   0  0  0  0  0  0  0  0  0  0  0  0
   -1.3758   -0.0823    0.6291 C   0  0  0  0  0  0  0  0  0  0  0  0
   -2.0405   -1.3686    0.2401 C   0  0  0  0  0  0  0  0  0  0  0  0
   -0.0283    0.0992   -0.0287 C   0  0  0  0  0  0  0  0  0  0  0  0
    0.6174    1.3755    0.4208 C   0  0  0  0  0  0  0  0  0  0  0  0
    2.0960    1.3221    0.3721 C   0  0  0  0  0  0  0  0  0  0  0  0
    2.7967    0.2819   -0.0492 C   0  0  0  0  0  0  0  0  0  0  0  0
    2.1502   -0.9685   -0.5276 C   0  0  0  0  0  0  0  0  0  0  0  0
    0.8478   -1.1048    0.2309 C   0  0  0  0  0  0  0  0  0  0  0  0
   -2.2939    1.8476    1.0790 H   0  0  0  0  0  0  0  0  0  0  0  0
   -2.1804    1.4370   -0.7214 H   0  0  0  0  0  0  0  0  0  0  0  0
   -3.3924    0.6711    0.3203 H   0  0  0  0  0  0  0  0  0  0  0  0
   -1.2053   -0.0439    1.7215 H   0  0  0  0  0  0  0  0  0  0  0  0
   -3.0958   -1.3144    0.6168 H   0  0  0  0  0  0  0  0  0  0  0  0
   -1.5905   -2.2545    0.7293 H   0  0  0  0  0  0  0  0  0  0  0  0
   -2.0962   -1.4728   -0.8591 H   0  0  0  0  0  0  0  0  0  0  0  0
   -0.1539    0.1651   -1.1333 H   0  0  0  0  0  0  0  0  0  0  0  0
    0.3061    2.2543   -0.1906 H   0  0  0  0  0  0  0  0  0  0  0  0
    0.2678    1.5608    1.4767 H   0  0  0  0  0  0  0  0  0  0  0  0
    2.6289    2.2022    0.7073 H   0  0  0  0  0  0  0  0  0  0  0  0
    3.8743    0.3588   -0.0392 H   0  0  0  0  0  0  0  0  0  0  0  0
    2.7649   -1.8672   -0.2696 H   0  0  0  0  0  0  0  0  0  0  0  0
    2.0033   -0.9849   -1.6228 H   0  0  0  0  0  0  0  0  0  0  0  0
    0.2774   -2.0026   -0.0670 H   0  0  0  0  0  0  0  0  0  0  0  0
    1.1492   -1.1572    1.3184 H   0  0  0  0  0  0  0  0  0  0  0  0
  1  2  1  0
  2  3  1  0
  2  4  1  0
  4  5  1  0
  5  6  1  0
  6  7  2  0
  7  8  1  0
  8  9  1  0
  9  4  1  0
  1 10  1  0
  1 11  1  0
  1 12  1  0
  2 13  1  0
  3 14  1  0
  3 15  1  0
  3 16  1  0
  4 17  1  0
  5 18  1  0
  5 19  1  0
  6 20  1  0
  7 21  1  0
  8 22  1  0
  8 23  1  0
  9 24  1  0
  9 25  1  0
M  END
