
     RDKit          3D

 23 23  0  0  0  0  0  0  0  0999 V2000
   -1.7828    0.3768    1.1032 C   0  0  0  0  0  0  0  0  0  0  0  0
   -1.1138    0.3146   -0.2765 C   0  0  0  0  0  0  0  0  0  0  0  0
   -2.0418   -0.5183   -1.1440 C   0  0  0  0  0  0  0  0  0  0  0  0
    0.2306   -0.2628   -0.1606 C   0  0  0  0  0  0  0  0  0  0  0  0
    0.7116   -1.3697   -0.6947 C   0  0  0  0  0  0  0  0  0  0  0  0
    2.1194   -1.5049   -0.2736 C   0  0  0  0  0  0  0  0  0  0  0  0
    2.4771   -0.2444    0.2129 O   0  0  0  0  0  0  0  0  0  0  0  0
    1.3147    0.3597    0.6316 C   0  0  0  0  0  0  0  0  0  0  0  0
    1.3423    1.8565    0.3997 C   0  0  0  0  0  0  0  0  0  0  0  0
   -2.8861    0.2976    0.9866 H   0  0  0  0  0  0  0  0  0  0  0  0
   -1.4164   -0.4992    1.6674 H   0  0  0  0  0  0  0  0  0  0  0  0
   -1.5414    1.3410    1.5650 H   0  0  0  0  0  0  0  0  0  0  0  0
   -1.0838    1.3243   -0.7428 H   0  0  0  0  0  0  0  0  0  0  0  0
   -3.0347   -0.0226   -1.0973 H   0  0  0  0  0  0  0  0  0  0  0  0
   -1.7315   -0.5068   -2.2035 H   0  0  0  0  0  0  0  0  0  0  0  0
   -2.1541   -1.5240   -0.7224 H   0  0  0  0  0  0  0  0  0  0  0  0
    0.1987   -2.0961   -1.3440 H   0  0  0  0  0  0  0  0  0  0  0  0
    2.2916   -2.2997    0.4725 H   0  0  0  0  0  0  0  0  0  0  0  0
    2.7555   -1.7257   -1.1481 H   0  0  0  0  0  0  0  0  0  0  0  0
    1.1909    0.1211    1.7206 H   0  0  0  0  0  0  0  0  0  0  0  0
    0.5732    2.3307    1.0092 H   0  0  0  0  0  0  0  0  0  0  0  0
    1.2379    2.0287   -0.6915 H   0  0  0  0  0  0  0  0  0  0  0  0
    2.3431    2.2234    0.7303 H   0  0  0  0  0  0  0  0  0  0  0  0
  1  2  1  0
  2  3  1  0
  2  4  1  0
  4  5  2  0
  5  6  1  0
  6  7  1  0
  7  8  1  0
  8  9  1  0
  8  4  1  0
  1 10  1  0
  1 11  1  0
  1 12  1  0
  2 13  1  0
  3 14  1  0
  3 15  1  0
  3 16  1  0
  5 17  1  0
  6 18  1  0
  6 19  1  0
  8 20  1  0
  9 21  1  0
  9 22  1  0
  9 23  1  0
M  END
