
     RDKit          3D

 23 23  0  0  0  0  0  0  0  0999 V2000
   -2.0058    0.4651   -1.0387 C   0  0  0  0  0  0  0  0  0  0  0  0
   -1.1468   -0.2084   -0.0262 C   0  0  0  0  0  0  0  0  0  0  0  0
   -1.6417    0.1682    1.3734 C   0  0  0  0  0  0  0  0  0  0  0  0
    0.2973    0.1742   -0.0956 C   0  0  0  0  0  0  0  0  0  0  0  0
    0.5084    1.5190    0.0968 O   0  0  0  0  0  0  0  0  0  0  0  0
    1.0633   -0.6802    0.9294 C   0  0  0  0  0  0  0  0  0  0  0  0
    2.4457   -0.5021    0.3876 C   0  0  0  0  0  0  0  0  0  0  0  0
    2.4130   -0.2679   -0.9133 C   0  0  0  0  0  0  0  0  0  0  0  0
    0.9958   -0.2729   -1.3416 C   0  0  0  0  0  0  0  0  0  0  0  0
   -1.8764    1.5747   -0.9139 H   0  0  0  0  0  0  0  0  0  0  0  0
   -3.0678    0.1923   -0.8112 H   0  0  0  0  0  0  0  0  0  0  0  0
   -1.7767    0.1437   -2.0604 H   0  0  0  0  0  0  0  0  0  0  0  0
   -1.2606   -1.3034   -0.1088 H   0  0  0  0  0  0  0  0  0  0  0  0
   -1.3600   -0.6095    2.1123 H   0  0  0  0  0  0  0  0  0  0  0  0
   -1.2305    1.1770    1.6707 H   0  0  0  0  0  0  0  0  0  0  0  0
   -2.7488    0.2905    1.3637 H   0  0  0  0  0  0  0  0  0  0  0  0
    0.6308    1.7709    1.0542 H   0  0  0  0  0  0  0  0  0  0  0  0
    0.7177   -1.7170    0.7866 H   0  0  0  0  0  0  0  0  0  0  0  0
    0.9419   -0.2867    1.9416 H   0  0  0  0  0  0  0  0  0  0  0  0
    3.3227   -0.5634    1.0036 H   0  0  0  0  0  0  0  0  0  0  0  0
    3.2445   -0.0939   -1.6042 H   0  0  0  0  0  0  0  0  0  0  0  0
    0.7314   -1.3424   -1.5901 H   0  0  0  0  0  0  0  0  0  0  0  0
    0.8027    0.3723   -2.2159 H   0  0  0  0  0  0  0  0  0  0  0  0
  1  2  1  0
  2  3  1  0
  2  4  1  0
  4  5  1  0
  4  6  1  0
  6  7  1  0
  7  8  2  0
  8  9  1  0
  9  4  1  0
  1 10  1  0
  1 11  1  0
  1 12  1  0
  2 13  1  0
  3 14  1  0
  3 15  1  0
  3 16  1  0
  5 17  1  0
  6 18  1  0
  6 19  1  0
  7 20  1  0
  8 21  1  0
  9 22  1  0
  9 23  1  0
M  END
