
     RDKit          3D

 24 23  0  0  0  0  0  0  0  0999 V2000
    1.4713    0.5373    1.0151 C   0  0  0  0  0  0  0  0  0  0  0  0
    0.6168   -0.0492   -0.1011 C   0  0  0  0  0  0  0  0  0  0  0  0
    1.1387   -1.4550   -0.3246 C   0  0  0  0  0  0  0  0  0  0  0  0
    0.8771    0.7527   -1.3345 C   0  0  0  0  0  0  0  0  0  0  0  0
   -0.8265   -0.0518    0.3289 C   0  0  0  0  0  0  0  0  0  0  0  0
   -1.7529   -0.6095   -0.6996 C   0  0  0  0  0  0  0  0  0  0  0  0
   -1.2845    1.3001    0.8212 C   0  0  0  0  0  0  0  0  0  0  0  0
   -0.8984   -0.9147    1.4503 O   0  0  0  0  0  0  0  0  0  0  0  0
    1.5497    1.6245    0.8206 H   0  0  0  0  0  0  0  0  0  0  0  0
    0.9547    0.4382    1.9959 H   0  0  0  0  0  0  0  0  0  0  0  0
    2.4773    0.0552    1.0303 H   0  0  0  0  0  0  0  0  0  0  0  0
    0.7649   -1.8072   -1.3153 H   0  0  0  0  0  0  0  0  0  0  0  0
    2.2574   -1.3479   -0.4323 H   0  0  0  0  0  0  0  0  0  0  0  0
    0.9261   -2.1378    0.4997 H   0  0  0  0  0  0  0  0  0  0  0  0
    1.8902    0.4322   -1.7201 H   0  0  0  0  0  0  0  0  0  0  0  0
    0.1798    0.5671   -2.1623 H   0  0  0  0  0  0  0  0  0  0  0  0
    0.9967    1.8517   -1.1137 H   0  0  0  0  0  0  0  0  0  0  0  0
   -2.8004   -0.3686   -0.3551 H   0  0  0  0  0  0  0  0  0  0  0  0
   -1.7091   -1.7251   -0.6866 H   0  0  0  0  0  0  0  0  0  0  0  0
   -1.6594   -0.1817   -1.6971 H   0  0  0  0  0  0  0  0  0  0  0  0
   -0.4405    1.8089    1.3307 H   0  0  0  0  0  0  0  0  0  0  0  0
   -2.1045    1.2047    1.5864 H   0  0  0  0  0  0  0  0  0  0  0  0
   -1.6200    1.9263   -0.0406 H   0  0  0  0  0  0  0  0  0  0  0  0
   -1.0046   -1.8503    1.1036 H   0  0  0  0  0  0  0  0  0  0  0  0
  1  2  1  0
  2  3  1  0
  2  4  1  0
  2  5  1  0
  5  6  1  0
  5  7  1  0
  5  8  1  0
  1  9  1  0
  1 10  1  0
  1 11  1  0
  3 12  1  0
  3 13  1  0
  3 14  1  0
  4 15  1  0
  4 16  1  0
  4 17  1  0
  6 18  1  0
  6 19  1  0
  6 20  1  0
  7 21  1  0
  7 22  1  0
  7 23  1  0
  8 24  1  0
M  END
