
     RDKit          3D

 21 20  0  0  0  0  0  0  0  0999 V2000
   -2.0732    1.1069   -0.4311 C   0  0  0  0  0  0  0  0  0  0  0  0
   -1.2827   -0.1437   -0.0827 C   0  0  0  0  0  0  0  0  0  0  0  0
   -2.0392   -0.8517    1.0447 C   0  0  0  0  0  0  0  0  0  0  0  0
    0.0041    0.1499    0.3270 O   0  0  0  0  0  0  0  0  0  0  0  0
    0.8989   -0.5109   -0.5129 C   0  0  0  0  0  0  0  0  0  0  0  0
    2.3343   -0.2378   -0.1266 C   0  0  0  0  0  0  0  0  0  0  0  0
    2.6271   -0.6435    1.1569 O   0  0  0  0  0  0  0  0  0  0  0  0
    2.5961    1.1964   -0.3571 C   0  0  0  0  0  0  0  0  0  0  0  0
    2.3820    1.6812   -1.4394 O   0  0  0  0  0  0  0  0  0  0  0  0
   -1.5127    2.0190   -0.1214 H   0  0  0  0  0  0  0  0  0  0  0  0
   -2.3395    1.1318   -1.5045 H   0  0  0  0  0  0  0  0  0  0  0  0
   -3.0417    1.1516    0.1291 H   0  0  0  0  0  0  0  0  0  0  0  0
   -1.3050   -0.8083   -0.9473 H   0  0  0  0  0  0  0  0  0  0  0  0
   -3.1118   -0.8836    0.7606 H   0  0  0  0  0  0  0  0  0  0  0  0
   -1.9651   -0.2805    1.9910 H   0  0  0  0  0  0  0  0  0  0  0  0
   -1.6945   -1.9044    1.1560 H   0  0  0  0  0  0  0  0  0  0  0  0
    0.7439   -0.0999   -1.5289 H   0  0  0  0  0  0  0  0  0  0  0  0
    0.6892   -1.5939   -0.5756 H   0  0  0  0  0  0  0  0  0  0  0  0
    2.9683   -0.8362   -0.8278 H   0  0  0  0  0  0  0  0  0  0  0  0
    2.1456   -1.4386    1.4460 H   0  0  0  0  0  0  0  0  0  0  0  0
    2.9760    1.7960    0.4441 H   0  0  0  0  0  0  0  0  0  0  0  0
  1  2  1  0
  2  3  1  0
  2  4  1  0
  4  5  1  0
  5  6  1  0
  6  7  1  0
  6  8  1  0
  8  9  2  0
  1 10  1  0
  1 11  1  0
  1 12  1  0
  2 13  1  0
  3 14  1  0
  3 15  1  0
  3 16  1  0
  5 17  1  0
  5 18  1  0
  6 19  1  0
  7 20  1  0
  8 21  1  0
M  END
