
     RDKit          3D

 18 18  0  0  0  0  0  0  0  0999 V2000
   -1.3764   -1.2281   -0.1257 C   0  0  0  0  0  0  0  0  0  0  0  0
   -0.7435    0.1166   -0.3341 C   0  0  0  0  0  0  0  0  0  0  0  0
   -1.7707    1.1767   -0.1831 C   0  0  0  0  0  0  0  0  0  0  0  0
   -1.5927    2.3122   -0.5735 O   0  0  0  0  0  0  0  0  0  0  0  0
    0.3573    0.4214    0.6414 C   0  0  0  0  0  0  0  0  0  0  0  0
    1.5230   -0.4991    0.6547 C   0  0  0  0  0  0  0  0  0  0  0  0
    1.9824    0.3976   -0.4781 C   0  0  0  0  0  0  0  0  0  0  0  0
    1.2016    1.4100    0.0850 O   0  0  0  0  0  0  0  0  0  0  0  0
   -1.7071   -1.3904    0.9185 H   0  0  0  0  0  0  0  0  0  0  0  0
   -0.7663   -2.0581   -0.5303 H   0  0  0  0  0  0  0  0  0  0  0  0
   -2.3221   -1.2338   -0.7382 H   0  0  0  0  0  0  0  0  0  0  0  0
   -0.3606    0.1624   -1.3629 H   0  0  0  0  0  0  0  0  0  0  0  0
   -2.7130    0.9446    0.2880 H   0  0  0  0  0  0  0  0  0  0  0  0
    0.0229    0.6831    1.6662 H   0  0  0  0  0  0  0  0  0  0  0  0
    1.3555   -1.5476    0.3945 H   0  0  0  0  0  0  0  0  0  0  0  0
    2.1636   -0.3068    1.5433 H   0  0  0  0  0  0  0  0  0  0  0  0
    3.0734    0.6125   -0.4134 H   0  0  0  0  0  0  0  0  0  0  0  0
    1.6729    0.0268   -1.4525 H   0  0  0  0  0  0  0  0  0  0  0  0
  1  2  1  0
  2  3  1  0
  3  4  2  0
  2  5  1  0
  5  6  1  0
  6  7  1  0
  7  8  1  0
  8  5  1  0
  1  9  1  0
  1 10  1  0
  1 11  1  0
  2 12  1  0
  3 13  1  0
  5 14  1  0
  6 15  1  0
  6 16  1  0
  7 17  1  0
  7 18  1  0
M  END
