
     RDKit          3D

 17 16  0  0  0  0  0  0  0  0999 V2000
   -2.2015   -0.6140   -0.4063 C   0  0  0  0  0  0  0  0  0  0  0  0
   -1.2641    0.4489    0.2504 C   0  0  0  0  0  0  0  0  0  0  0  0
   -1.5828    1.8315   -0.0706 C   0  0  0  0  0  0  0  0  0  0  0  0
    0.0861    0.0589    0.0722 C   0  0  0  0  0  0  0  0  0  0  0  0
    1.2786   -0.2723   -0.0714 C   0  0  0  0  0  0  0  0  0  0  0  0
    2.5893   -0.6330   -0.2094 C   0  0  0  0  0  0  0  0  0  0  0  0
    3.2434    0.4451   -0.7823 O   0  0  0  0  0  0  0  0  0  0  0  0
    3.4149   -1.7687    0.0559 C   0  0  0  0  0  0  0  0  0  0  0  0
    3.7817   -2.6985    0.3622 O   0  0  0  0  0  0  0  0  0  0  0  0
   -2.2195   -1.4795    0.2445 H   0  0  0  0  0  0  0  0  0  0  0  0
   -3.1965   -0.1006   -0.4894 H   0  0  0  0  0  0  0  0  0  0  0  0
   -1.7964   -0.8892   -1.3796 H   0  0  0  0  0  0  0  0  0  0  0  0
   -1.4967    0.2989    1.3792 H   0  0  0  0  0  0  0  0  0  0  0  0
   -1.8663    2.4360    0.8554 H   0  0  0  0  0  0  0  0  0  0  0  0
   -0.7797    2.3349   -0.6393 H   0  0  0  0  0  0  0  0  0  0  0  0
   -2.5524    1.8699   -0.6791 H   0  0  0  0  0  0  0  0  0  0  0  0
    4.5620   -1.2684   -0.5128 H   0  0  0  0  0  0  0  0  0  0  0  0
  1  2  1  0
  2  3  1  0
  2  4  1  0
  4  5  3  0
  5  6  1  0
  6  7  2  0
  6  8  1  0
  8  9  2  0
  1 10  1  0
  1 11  1  0
  1 12  1  0
  2 13  1  0
  3 14  1  0
  3 15  1  0
  3 16  1  0
  8 17  1  0
M  END
