
     RDKit          3D

 19 18  0  0  0  0  0  0  0  0999 V2000
   -2.2027    1.1623    0.0902 C   0  0  0  0  0  0  0  0  0  0  0  0
   -1.2935   -0.0207   -0.0856 C   0  0  0  0  0  0  0  0  0  0  0  0
   -1.9343   -1.2028    0.6096 C   0  0  0  0  0  0  0  0  0  0  0  0
    0.0178    0.2148    0.3448 O   0  0  0  0  0  0  0  0  0  0  0  0
    1.1046    0.1751   -0.4988 C   0  0  0  0  0  0  0  0  0  0  0  0
    0.8531   -0.0931   -1.7230 O   0  0  0  0  0  0  0  0  0  0  0  0
    2.4942    0.4063   -0.1347 C   0  0  0  0  0  0  0  0  0  0  0  0
    3.2337   -0.8817   -0.0458 C   0  0  0  0  0  0  0  0  0  0  0  0
    4.4190   -0.9161    0.2480 O   0  0  0  0  0  0  0  0  0  0  0  0
   -2.5531    1.1516    1.1601 H   0  0  0  0  0  0  0  0  0  0  0  0
   -1.7284    2.1190   -0.1849 H   0  0  0  0  0  0  0  0  0  0  0  0
   -3.1269    0.9632   -0.5092 H   0  0  0  0  0  0  0  0  0  0  0  0
   -1.2502   -0.2299   -1.1813 H   0  0  0  0  0  0  0  0  0  0  0  0
   -1.2227   -1.7416    1.2742 H   0  0  0  0  0  0  0  0  0  0  0  0
   -2.3286   -1.9246   -0.1451 H   0  0  0  0  0  0  0  0  0  0  0  0
   -2.8041   -0.9122    1.2338 H   0  0  0  0  0  0  0  0  0  0  0  0
    2.6330    1.0371    0.7650 H   0  0  0  0  0  0  0  0  0  0  0  0
    2.9946    0.9811   -0.9686 H   0  0  0  0  0  0  0  0  0  0  0  0
    2.6946   -1.7968   -0.2486 H   0  0  0  0  0  0  0  0  0  0  0  0
  1  2  1  0
  2  3  1  0
  2  4  1  0
  4  5  1  0
  5  6  2  0
  5  7  1  0
  7  8  1  0
  8  9  2  0
  1 10  1  0
  1 11  1  0
  1 12  1  0
  2 13  1  0
  3 14  1  0
  3 15  1  0
  3 16  1  0
  7 17  1  0
  7 18  1  0
  8 19  1  0
M  END
