
     RDKit          3D

 18 17  0  0  0  0  0  0  0  0999 V2000
   -1.0401    0.9836    0.9886 C   0  0  0  0  0  0  0  0  0  0  0  0
   -0.8055    0.2974   -0.3172 C   0  0  0  0  0  0  0  0  0  0  0  0
   -1.1295   -1.1775   -0.1694 C   0  0  0  0  0  0  0  0  0  0  0  0
    0.5330    0.5369   -0.9276 C   0  0  0  0  0  0  0  0  0  0  0  0
    1.7050    0.1129   -0.1245 C   0  0  0  0  0  0  0  0  0  0  0  0
    1.6346   -1.2715    0.1199 O   0  0  0  0  0  0  0  0  0  0  0  0
   -1.2276    2.0828    0.8505 H   0  0  0  0  0  0  0  0  0  0  0  0
   -0.2580    0.8505    1.7354 H   0  0  0  0  0  0  0  0  0  0  0  0
   -1.9775    0.5634    1.4230 H   0  0  0  0  0  0  0  0  0  0  0  0
   -1.5628    0.7050   -1.0291 H   0  0  0  0  0  0  0  0  0  0  0  0
   -0.9824   -1.7214   -1.1275 H   0  0  0  0  0  0  0  0  0  0  0  0
   -0.6053   -1.6475    0.6764 H   0  0  0  0  0  0  0  0  0  0  0  0
   -2.2312   -1.2575    0.0539 H   0  0  0  0  0  0  0  0  0  0  0  0
    0.6108    1.6178   -1.1665 H   0  0  0  0  0  0  0  0  0  0  0  0
    0.5548   -0.0126   -1.8934 H   0  0  0  0  0  0  0  0  0  0  0  0
    1.8586    0.6108    0.8230 H   0  0  0  0  0  0  0  0  0  0  0  0
    2.6177    0.2570   -0.7395 H   0  0  0  0  0  0  0  0  0  0  0  0
    2.3054   -1.5303    0.8238 H   0  0  0  0  0  0  0  0  0  0  0  0
  1  2  1  0
  2  3  1  0
  2  4  1  0
  4  5  1  0
  5  6  1  0
  1  7  1  0
  1  8  1  0
  1  9  1  0
  2 10  1  0
  3 11  1  0
  3 12  1  0
  3 13  1  0
  4 14  1  0
  4 15  1  0
  5 16  1  0
  5 17  1  0
  6 18  1  0
M  END
