
     RDKit          3D

 19 18  0  0  0  0  0  0  0  0999 V2000
   -1.7384   -1.1409   -0.4984 C   0  0  0  0  0  0  0  0  0  0  0  0
   -0.8757    0.0967   -0.2994 C   0  0  0  0  0  0  0  0  0  0  0  0
   -1.0249    0.6169    1.0970 C   0  0  0  0  0  0  0  0  0  0  0  0
    0.5422   -0.2704   -0.6518 C   0  0  0  0  0  0  0  0  0  0  0  0
    0.9719   -1.3018    0.1820 O   0  0  0  0  0  0  0  0  0  0  0  0
    1.4600    0.8754   -0.6272 C   0  0  0  0  0  0  0  0  0  0  0  0
    1.2194    1.8926   -1.3243 O   0  0  0  0  0  0  0  0  0  0  0  0
    2.6640    0.8990    0.1805 C   0  0  0  0  0  0  0  0  0  0  0  0
    3.0158   -0.0586    0.9219 O   0  0  0  0  0  0  0  0  0  0  0  0
   -2.8129   -0.8623   -0.5804 H   0  0  0  0  0  0  0  0  0  0  0  0
   -1.6047   -1.8241    0.3500 H   0  0  0  0  0  0  0  0  0  0  0  0
   -1.3784   -1.6073   -1.4475 H   0  0  0  0  0  0  0  0  0  0  0  0
   -1.2827    0.8653   -0.9876 H   0  0  0  0  0  0  0  0  0  0  0  0
   -0.4400    0.0956    1.8519 H   0  0  0  0  0  0  0  0  0  0  0  0
   -0.7952    1.7215    1.0559 H   0  0  0  0  0  0  0  0  0  0  0  0
   -2.1074    0.4739    1.3811 H   0  0  0  0  0  0  0  0  0  0  0  0
    0.5123   -0.6941   -1.6848 H   0  0  0  0  0  0  0  0  0  0  0  0
    0.3401   -1.5248    0.8886 H   0  0  0  0  0  0  0  0  0  0  0  0
    3.3345    1.7476    0.1926 H   0  0  0  0  0  0  0  0  0  0  0  0
  1  2  1  0
  2  3  1  0
  2  4  1  0
  4  5  1  0
  4  6  1  0
  6  7  2  0
  6  8  1  0
  8  9  2  0
  1 10  1  0
  1 11  1  0
  1 12  1  0
  2 13  1  0
  3 14  1  0
  3 15  1  0
  3 16  1  0
  4 17  1  0
  5 18  1  0
  8 19  1  0
M  END
