
     RDKit          3D

 25 25  0  0  0  0  0  0  0  0999 V2000
   -1.8492    0.8970    0.8409 C   0  0  0  0  0  0  0  0  0  0  0  0
   -1.3686   -0.3191    0.0485 C   0  0  0  0  0  0  0  0  0  0  0  0
   -2.2765   -0.4843   -1.1741 C   0  0  0  0  0  0  0  0  0  0  0  0
    0.0158   -0.0296   -0.4890 C   0  0  0  0  0  0  0  0  0  0  0  0
    0.4494   -1.1197   -1.2005 O   0  0  0  0  0  0  0  0  0  0  0  0
    1.2937   -1.8442   -0.3276 C   0  0  0  0  0  0  0  0  0  0  0  0
    2.1559   -0.6845    0.1928 C   0  0  0  0  0  0  0  0  0  0  0  0
    1.0146    0.2606    0.5934 C   0  0  0  0  0  0  0  0  0  0  0  0
    1.5417    1.6706    0.4703 C   0  0  0  0  0  0  0  0  0  0  0  0
   -1.5304    1.8190    0.3233 H   0  0  0  0  0  0  0  0  0  0  0  0
   -1.3737    0.8889    1.8399 H   0  0  0  0  0  0  0  0  0  0  0  0
   -2.9539    0.8480    0.9467 H   0  0  0  0  0  0  0  0  0  0  0  0
   -1.4010   -1.2221    0.6853 H   0  0  0  0  0  0  0  0  0  0  0  0
   -3.3045   -0.1873   -0.9738 H   0  0  0  0  0  0  0  0  0  0  0  0
   -1.8560    0.1405   -2.0152 H   0  0  0  0  0  0  0  0  0  0  0  0
   -2.1819   -1.5527   -1.4650 H   0  0  0  0  0  0  0  0  0  0  0  0
   -0.0933    0.8853   -1.1332 H   0  0  0  0  0  0  0  0  0  0  0  0
    1.8849   -2.5869   -0.8527 H   0  0  0  0  0  0  0  0  0  0  0  0
    0.6993   -2.2114    0.5196 H   0  0  0  0  0  0  0  0  0  0  0  0
    2.7761   -0.9720    1.0363 H   0  0  0  0  0  0  0  0  0  0  0  0
    2.6673   -0.2170   -0.6474 H   0  0  0  0  0  0  0  0  0  0  0  0
    0.6576    0.0316    1.6085 H   0  0  0  0  0  0  0  0  0  0  0  0
    1.5571    1.8940   -0.6359 H   0  0  0  0  0  0  0  0  0  0  0  0
    0.8838    2.3945    0.9836 H   0  0  0  0  0  0  0  0  0  0  0  0
    2.5920    1.7008    0.8253 H   0  0  0  0  0  0  0  0  0  0  0  0
  1  2  1  0
  2  3  1  0
  2  4  1  0
  4  5  1  0
  5  6  1  0
  6  7  1  0
  7  8  1  0
  8  9  1  0
  8  4  1  0
  1 10  1  0
  1 11  1  0
  1 12  1  0
  2 13  1  0
  3 14  1  0
  3 15  1  0
  3 16  1  0
  4 17  1  0
  6 18  1  0
  6 19  1  0
  7 20  1  0
  7 21  1  0
  8 22  1  0
  9 23  1  0
  9 24  1  0
  9 25  1  0
M  END
