
     RDKit          3D

 19 18  0  0  0  0  0  0  0  0999 V2000
    0.3603   -0.0231   -1.3486 C   0  0  0  0  0  0  0  0  0  0  0  0
    0.1583   -0.0722    0.1404 C   0  0  0  0  0  0  0  0  0  0  0  0
   -0.3119    1.2749    0.6138 C   0  0  0  0  0  0  0  0  0  0  0  0
   -0.9043   -1.1499    0.3961 C   0  0  0  0  0  0  0  0  0  0  0  0
   -2.1704   -0.8225   -0.2772 C   0  0  0  0  0  0  0  0  0  0  0  0
   -2.2936    0.1801   -0.9318 O   0  0  0  0  0  0  0  0  0  0  0  0
    1.2843   -0.4865    0.8533 O   0  0  0  0  0  0  0  0  0  0  0  0
    2.4971    0.1766    0.8243 C   0  0  0  0  0  0  0  0  0  0  0  0
    2.5560    1.2066    0.1062 O   0  0  0  0  0  0  0  0  0  0  0  0
   -0.0398   -0.9270   -1.8528 H   0  0  0  0  0  0  0  0  0  0  0  0
    1.4331    0.0293   -1.6374 H   0  0  0  0  0  0  0  0  0  0  0  0
   -0.2032    0.8391   -1.7638 H   0  0  0  0  0  0  0  0  0  0  0  0
   -0.5654    1.9604   -0.2277 H   0  0  0  0  0  0  0  0  0  0  0  0
    0.5366    1.7458    1.1516 H   0  0  0  0  0  0  0  0  0  0  0  0
   -1.1589    1.2025    1.3315 H   0  0  0  0  0  0  0  0  0  0  0  0
   -0.4892   -2.0732   -0.0913 H   0  0  0  0  0  0  0  0  0  0  0  0
   -1.0060   -1.3306    1.4723 H   0  0  0  0  0  0  0  0  0  0  0  0
   -2.9951   -1.5102   -0.1689 H   0  0  0  0  0  0  0  0  0  0  0  0
    3.3122   -0.2201    1.4099 H   0  0  0  0  0  0  0  0  0  0  0  0
  1  2  1  0
  2  3  1  0
  2  4  1  0
  4  5  1  0
  5  6  2  0
  2  7  1  0
  7  8  1  0
  8  9  2  0
  1 10  1  0
  1 11  1  0
  1 12  1  0
  3 13  1  0
  3 14  1  0
  3 15  1  0
  4 16  1  0
  4 17  1  0
  5 18  1  0
  8 19  1  0
M  END
