
     RDKit          3D

 25 24  0  0  0  0  0  0  0  0999 V2000
   -1.4375    1.1080   -0.0494 C   0  0  0  0  0  0  0  0  0  0  0  0
   -0.7414   -0.0953   -0.6250 C   0  0  0  0  0  0  0  0  0  0  0  0
   -1.7605   -1.1224   -0.9641 C   0  0  0  0  0  0  0  0  0  0  0  0
    0.3532   -0.5796    0.2809 C   0  0  0  0  0  0  0  0  0  0  0  0
   -0.1628   -0.9781    1.6462 C   0  0  0  0  0  0  0  0  0  0  0  0
    1.0387   -1.6684   -0.2319 O   0  0  0  0  0  0  0  0  0  0  0  0
    1.3670    0.5281    0.4762 C   0  0  0  0  0  0  0  0  0  0  0  0
    2.0521    0.8477   -0.8493 C   0  0  0  0  0  0  0  0  0  0  0  0
    0.8155    1.6898    0.9904 O   0  0  0  0  0  0  0  0  0  0  0  0
   -1.4519    1.1379    1.0476 H   0  0  0  0  0  0  0  0  0  0  0  0
   -1.0045    2.0694   -0.4214 H   0  0  0  0  0  0  0  0  0  0  0  0
   -2.5181    1.1500   -0.3630 H   0  0  0  0  0  0  0  0  0  0  0  0
   -0.2445    0.2151   -1.5821 H   0  0  0  0  0  0  0  0  0  0  0  0
   -2.4247   -0.7008   -1.7487 H   0  0  0  0  0  0  0  0  0  0  0  0
   -1.3528   -2.0565   -1.3939 H   0  0  0  0  0  0  0  0  0  0  0  0
   -2.4045   -1.2984   -0.0791 H   0  0  0  0  0  0  0  0  0  0  0  0
    0.5512   -1.6571    2.1510 H   0  0  0  0  0  0  0  0  0  0  0  0
   -0.2114   -0.0613    2.2818 H   0  0  0  0  0  0  0  0  0  0  0  0
   -1.1399   -1.4897    1.6009 H   0  0  0  0  0  0  0  0  0  0  0  0
    0.4833   -2.3866   -0.5687 H   0  0  0  0  0  0  0  0  0  0  0  0
    2.1914    0.2142    1.1627 H   0  0  0  0  0  0  0  0  0  0  0  0
    3.0088    1.3443   -0.6082 H   0  0  0  0  0  0  0  0  0  0  0  0
    2.2869   -0.1237   -1.3356 H   0  0  0  0  0  0  0  0  0  0  0  0
    1.4037    1.4151   -1.5148 H   0  0  0  0  0  0  0  0  0  0  0  0
    1.3028    2.4982    0.6976 H   0  0  0  0  0  0  0  0  0  0  0  0
  1  2  1  0
  2  3  1  0
  2  4  1  0
  4  5  1  0
  4  6  1  0
  4  7  1  0
  7  8  1  0
  7  9  1  0
  1 10  1  0
  1 11  1  0
  1 12  1  0
  2 13  1  0
  3 14  1  0
  3 15  1  0
  3 16  1  0
  5 17  1  0
  5 18  1  0
  5 19  1  0
  6 20  1  0
  7 21  1  0
  8 22  1  0
  8 23  1  0
  8 24  1  0
  9 25  1  0
M  END
