
     RDKit          3D

 19 18  0  0  0  0  0  0  0  0999 V2000
   -1.6437    1.2699    0.4017 C   0  0  0  0  0  0  0  0  0  0  0  0
   -0.9474   -0.0129   -0.0401 C   0  0  0  0  0  0  0  0  0  0  0  0
   -1.8050   -1.2155    0.2918 C   0  0  0  0  0  0  0  0  0  0  0  0
    0.2847   -0.0605    0.5746 O   0  0  0  0  0  0  0  0  0  0  0  0
    1.3180   -0.0027   -0.3406 C   0  0  0  0  0  0  0  0  0  0  0  0
    2.1467   -1.2264   -0.2094 C   0  0  0  0  0  0  0  0  0  0  0  0
    1.8175   -2.0426    0.6257 O   0  0  0  0  0  0  0  0  0  0  0  0
    2.1772    1.1969   -0.1283 C   0  0  0  0  0  0  0  0  0  0  0  0
    3.1186    1.3499   -0.8772 O   0  0  0  0  0  0  0  0  0  0  0  0
   -1.2010    2.0860   -0.1817 H   0  0  0  0  0  0  0  0  0  0  0  0
   -2.7012    1.1701    0.0595 H   0  0  0  0  0  0  0  0  0  0  0  0
   -1.5680    1.4172    1.4904 H   0  0  0  0  0  0  0  0  0  0  0  0
   -0.7913    0.0618   -1.1430 H   0  0  0  0  0  0  0  0  0  0  0  0
   -1.2515   -1.9642    0.8909 H   0  0  0  0  0  0  0  0  0  0  0  0
   -2.1203   -1.7297   -0.6410 H   0  0  0  0  0  0  0  0  0  0  0  0
   -2.7332   -0.8622    0.7764 H   0  0  0  0  0  0  0  0  0  0  0  0
    0.9094    0.0699   -1.3758 H   0  0  0  0  0  0  0  0  0  0  0  0
    3.0277   -1.4013   -0.8370 H   0  0  0  0  0  0  0  0  0  0  0  0
    1.9626    1.8962    0.6631 H   0  0  0  0  0  0  0  0  0  0  0  0
  1  2  1  0
  2  3  1  0
  2  4  1  0
  4  5  1  0
  5  6  1  0
  6  7  2  0
  5  8  1  0
  8  9  2  0
  1 10  1  0
  1 11  1  0
  1 12  1  0
  2 13  1  0
  3 14  1  0
  3 15  1  0
  3 16  1  0
  5 17  1  0
  6 18  1  0
  8 19  1  0
M  END
