
     RDKit          3D

 23 23  0  0  0  0  0  0  0  0999 V2000
    0.6614   -1.0360   -1.4554 C   0  0  0  0  0  0  0  0  0  0  0  0
    0.4771   -0.7687   -0.0041 C   0  0  0  0  0  0  0  0  0  0  0  0
    1.6986   -0.1852    0.6599 C   0  0  0  0  0  0  0  0  0  0  0  0
    2.1258    1.1013    0.0824 C   0  0  0  0  0  0  0  0  0  0  0  0
    2.8011    1.1437   -0.9346 O   0  0  0  0  0  0  0  0  0  0  0  0
   -0.7601    0.0627    0.2109 C   0  0  0  0  0  0  0  0  0  0  0  0
   -0.8798    1.4212   -0.4147 C   0  0  0  0  0  0  0  0  0  0  0  0
   -2.0488   -0.7541    0.2710 C   0  0  0  0  0  0  0  0  0  0  0  0
   -1.5187   -0.1249    1.5060 C   0  0  0  0  0  0  0  0  0  0  0  0
    1.6648   -0.6905   -1.8025 H   0  0  0  0  0  0  0  0  0  0  0  0
   -0.0806   -0.4990   -2.0954 H   0  0  0  0  0  0  0  0  0  0  0  0
    0.5351   -2.1210   -1.7220 H   0  0  0  0  0  0  0  0  0  0  0  0
    0.2984   -1.7498    0.5126 H   0  0  0  0  0  0  0  0  0  0  0  0
    1.5386   -0.0084    1.7428 H   0  0  0  0  0  0  0  0  0  0  0  0
    2.5198   -0.9395    0.5538 H   0  0  0  0  0  0  0  0  0  0  0  0
    1.8544    2.0407    0.5466 H   0  0  0  0  0  0  0  0  0  0  0  0
   -0.9799    2.2417    0.3512 H   0  0  0  0  0  0  0  0  0  0  0  0
   -0.0230    1.5960   -1.1022 H   0  0  0  0  0  0  0  0  0  0  0  0
   -1.8087    1.5136   -1.0388 H   0  0  0  0  0  0  0  0  0  0  0  0
   -1.9853   -1.8532    0.2254 H   0  0  0  0  0  0  0  0  0  0  0  0
   -2.9385   -0.3489   -0.2521 H   0  0  0  0  0  0  0  0  0  0  0  0
   -2.1065    0.7398    1.8874 H   0  0  0  0  0  0  0  0  0  0  0  0
   -1.0452   -0.7817    2.2717 H   0  0  0  0  0  0  0  0  0  0  0  0
  1  2  1  0
  2  3  1  0
  3  4  1  0
  4  5  2  0
  2  6  1  0
  6  7  1  0
  6  8  1  0
  8  9  1  0
  9  6  1  0
  1 10  1  0
  1 11  1  0
  1 12  1  0
  2 13  1  0
  3 14  1  0
  3 15  1  0
  4 16  1  0
  7 17  1  0
  7 18  1  0
  7 19  1  0
  8 20  1  0
  8 21  1  0
  9 22  1  0
  9 23  1  0
M  END
