
     RDKit          3D

 23 24  0  0  0  0  0  0  0  0999 V2000
   -2.2840   -1.2505    0.0833 C   0  0  0  0  0  0  0  0  0  0  0  0
   -1.6117    0.0734    0.2877 C   0  0  0  0  0  0  0  0  0  0  0  0
   -2.5318    1.2054   -0.1752 C   0  0  0  0  0  0  0  0  0  0  0  0
   -0.3242    0.2141   -0.4495 C   0  0  0  0  0  0  0  0  0  0  0  0
    0.2308    1.4782   -0.1999 O   0  0  0  0  0  0  0  0  0  0  0  0
    1.3560    0.9315    0.4218 C   0  0  0  0  0  0  0  0  0  0  0  0
    2.2135    0.1035   -0.4423 C   0  0  0  0  0  0  0  0  0  0  0  0
    3.4913   -0.5007    0.0437 C   0  0  0  0  0  0  0  0  0  0  0  0
    0.8878   -0.4216    0.1048 C   0  0  0  0  0  0  0  0  0  0  0  0
   -1.9226   -1.9731    0.8712 H   0  0  0  0  0  0  0  0  0  0  0  0
   -3.3782   -1.1885    0.2331 H   0  0  0  0  0  0  0  0  0  0  0  0
   -1.9848   -1.6533   -0.8926 H   0  0  0  0  0  0  0  0  0  0  0  0
   -1.4126    0.2105    1.3728 H   0  0  0  0  0  0  0  0  0  0  0  0
   -3.4679    0.7896   -0.6367 H   0  0  0  0  0  0  0  0  0  0  0  0
   -2.7664    1.8953    0.6638 H   0  0  0  0  0  0  0  0  0  0  0  0
   -2.0607    1.8173   -0.9684 H   0  0  0  0  0  0  0  0  0  0  0  0
   -0.4470    0.0137   -1.5256 H   0  0  0  0  0  0  0  0  0  0  0  0
    1.6116    1.2191    1.4464 H   0  0  0  0  0  0  0  0  0  0  0  0
    2.1676    0.3164   -1.5442 H   0  0  0  0  0  0  0  0  0  0  0  0
    3.4047   -0.6567    1.1471 H   0  0  0  0  0  0  0  0  0  0  0  0
    3.6243   -1.5187   -0.3961 H   0  0  0  0  0  0  0  0  0  0  0  0
    4.3194    0.1597   -0.2306 H   0  0  0  0  0  0  0  0  0  0  0  0
    0.8851   -1.2645    0.7854 H   0  0  0  0  0  0  0  0  0  0  0  0
  1  2  1  0
  2  3  1  0
  2  4  1  0
  4  5  1  0
  5  6  1  0
  6  7  1  0
  7  8  1  0
  7  9  1  0
  9  4  1  0
  9  6  1  0
  1 10  1  0
  1 11  1  0
  1 12  1  0
  2 13  1  0
  3 14  1  0
  3 15  1  0
  3 16  1  0
  4 17  1  0
  6 18  1  0
  7 19  1  0
  8 20  1  0
  8 21  1  0
  8 22  1  0
  9 23  1  0
M  END
