
     RDKit          3D

 21 21  0  0  0  0  0  0  0  0999 V2000
    1.0063    0.7147    1.0917 C   0  0  0  0  0  0  0  0  0  0  0  0
    0.6316   -0.0418   -0.1181 C   0  0  0  0  0  0  0  0  0  0  0  0
    1.1540    0.7351   -1.3364 C   0  0  0  0  0  0  0  0  0  0  0  0
    1.3529   -1.3582   -0.0917 C   0  0  0  0  0  0  0  0  0  0  0  0
    1.9441   -1.8151   -1.0316 O   0  0  0  0  0  0  0  0  0  0  0  0
   -0.7973   -0.2945   -0.3457 C   0  0  0  0  0  0  0  0  0  0  0  0
   -1.5879   -1.0593    0.6493 C   0  0  0  0  0  0  0  0  0  0  0  0
   -2.1128    0.1066    1.2158 O   0  0  0  0  0  0  0  0  0  0  0  0
   -1.7880    0.7566    0.0247 C   0  0  0  0  0  0  0  0  0  0  0  0
    0.3734    1.5527    1.3697 H   0  0  0  0  0  0  0  0  0  0  0  0
    2.0519    1.1161    0.9381 H   0  0  0  0  0  0  0  0  0  0  0  0
    1.1297   -0.0041    1.9546 H   0  0  0  0  0  0  0  0  0  0  0  0
    0.5508    1.6611   -1.4413 H   0  0  0  0  0  0  0  0  0  0  0  0
    0.9883    0.1466   -2.2531 H   0  0  0  0  0  0  0  0  0  0  0  0
    2.1988    1.0544   -1.1874 H   0  0  0  0  0  0  0  0  0  0  0  0
    1.3305   -1.9160    0.8328 H   0  0  0  0  0  0  0  0  0  0  0  0
   -0.9773   -0.6272   -1.4066 H   0  0  0  0  0  0  0  0  0  0  0  0
   -2.4086   -1.6282    0.1640 H   0  0  0  0  0  0  0  0  0  0  0  0
   -1.0619   -1.6472    1.4034 H   0  0  0  0  0  0  0  0  0  0  0  0
   -2.6716    0.8185   -0.6603 H   0  0  0  0  0  0  0  0  0  0  0  0
   -1.3072    1.7291    0.2280 H   0  0  0  0  0  0  0  0  0  0  0  0
  1  2  1  0
  2  3  1  0
  2  4  1  0
  4  5  2  0
  2  6  1  0
  6  7  1  0
  7  8  1  0
  8  9  1  0
  9  6  1  0
  1 10  1  0
  1 11  1  0
  1 12  1  0
  3 13  1  0
  3 14  1  0
  3 15  1  0
  4 16  1  0
  6 17  1  0
  7 18  1  0
  7 19  1  0
  9 20  1  0
  9 21  1  0
M  END
