
     RDKit          3D

 21 21  0  0  0  0  0  0  0  0999 V2000
   -2.2070    1.0189   -0.0767 C   0  0  0  0  0  0  0  0  0  0  0  0
   -1.3215   -0.0754   -0.5380 C   0  0  0  0  0  0  0  0  0  0  0  0
   -1.4340   -1.3079    0.3132 C   0  0  0  0  0  0  0  0  0  0  0  0
   -1.1112   -2.3811   -0.2027 O   0  0  0  0  0  0  0  0  0  0  0  0
    0.1290    0.2869   -0.6511 C   0  0  0  0  0  0  0  0  0  0  0  0
    0.7504    0.7328    0.6284 C   0  0  0  0  0  0  0  0  0  0  0  0
    2.1987    0.2873    0.4062 C   0  0  0  0  0  0  0  0  0  0  0  0
    1.9127   -1.0274   -0.3357 C   0  0  0  0  0  0  0  0  0  0  0  0
    0.8526   -0.7584   -1.1654 O   0  0  0  0  0  0  0  0  0  0  0  0
   -1.7205    1.7903    0.5428 H   0  0  0  0  0  0  0  0  0  0  0  0
   -2.7311    1.5596   -0.9099 H   0  0  0  0  0  0  0  0  0  0  0  0
   -3.0400    0.5638    0.5293 H   0  0  0  0  0  0  0  0  0  0  0  0
   -1.6567   -0.3901   -1.5578 H   0  0  0  0  0  0  0  0  0  0  0  0
   -1.7826   -1.2749    1.3403 H   0  0  0  0  0  0  0  0  0  0  0  0
    0.2323    1.1415   -1.3755 H   0  0  0  0  0  0  0  0  0  0  0  0
    0.3937    0.1314    1.5061 H   0  0  0  0  0  0  0  0  0  0  0  0
    0.6888    1.8132    0.8115 H   0  0  0  0  0  0  0  0  0  0  0  0
    2.6942    0.0216    1.3438 H   0  0  0  0  0  0  0  0  0  0  0  0
    2.7491    0.9949   -0.2265 H   0  0  0  0  0  0  0  0  0  0  0  0
    2.8181   -1.3884   -0.8441 H   0  0  0  0  0  0  0  0  0  0  0  0
    1.5848   -1.7387    0.4620 H   0  0  0  0  0  0  0  0  0  0  0  0
  1  2  1  0
  2  3  1  0
  3  4  2  0
  2  5  1  0
  5  6  1  0
  6  7  1  0
  7  8  1  0
  8  9  1  0
  9  5  1  0
  1 10  1  0
  1 11  1  0
  1 12  1  0
  2 13  1  0
  3 14  1  0
  5 15  1  0
  6 16  1  0
  6 17  1  0
  7 18  1  0
  7 19  1  0
  8 20  1  0
  8 21  1  0
M  END
