
     RDKit          3D

 25 25  0  0  0  0  0  0  0  0999 V2000
    1.7705   -1.1376    0.5954 C   0  0  0  0  0  0  0  0  0  0  0  0
    1.3742    0.2357    0.1995 C   0  0  0  0  0  0  0  0  0  0  0  0
    2.5825    0.8745   -0.4984 C   0  0  0  0  0  0  0  0  0  0  0  0
    0.2284    0.3521   -0.7248 C   0  0  0  0  0  0  0  0  0  0  0  0
   -1.0709   -0.2145   -0.2342 C   0  0  0  0  0  0  0  0  0  0  0  0
   -1.1947   -1.6547    0.1167 C   0  0  0  0  0  0  0  0  0  0  0  0
   -2.2950    0.3530   -0.9814 C   0  0  0  0  0  0  0  0  0  0  0  0
   -1.9811    0.7531    0.4280 C   0  0  0  0  0  0  0  0  0  0  0  0
   -1.5667    2.0945    0.5456 O   0  0  0  0  0  0  0  0  0  0  0  0
    1.9089   -1.7548   -0.3411 H   0  0  0  0  0  0  0  0  0  0  0  0
    2.8157   -1.1058    1.0294 H   0  0  0  0  0  0  0  0  0  0  0  0
    1.1555   -1.6246    1.3480 H   0  0  0  0  0  0  0  0  0  0  0  0
    1.2287    0.8356    1.1225 H   0  0  0  0  0  0  0  0  0  0  0  0
    2.9225    0.1591   -1.2758 H   0  0  0  0  0  0  0  0  0  0  0  0
    2.2966    1.8519   -0.9462 H   0  0  0  0  0  0  0  0  0  0  0  0
    3.4226    1.0176    0.2201 H   0  0  0  0  0  0  0  0  0  0  0  0
    0.0743    1.4370   -0.9449 H   0  0  0  0  0  0  0  0  0  0  0  0
    0.4420   -0.1268   -1.7074 H   0  0  0  0  0  0  0  0  0  0  0  0
   -2.1669   -2.0396   -0.2416 H   0  0  0  0  0  0  0  0  0  0  0  0
   -0.4234   -2.3038   -0.3254 H   0  0  0  0  0  0  0  0  0  0  0  0
   -1.2359   -1.7404    1.2294 H   0  0  0  0  0  0  0  0  0  0  0  0
   -3.1778   -0.3018   -1.0917 H   0  0  0  0  0  0  0  0  0  0  0  0
   -2.1314    1.0472   -1.8058 H   0  0  0  0  0  0  0  0  0  0  0  0
   -2.6002    0.4069    1.2558 H   0  0  0  0  0  0  0  0  0  0  0  0
   -2.3784    2.5862    0.8696 H   0  0  0  0  0  0  0  0  0  0  0  0
  1  2  1  0
  2  3  1  0
  2  4  1  0
  4  5  1  0
  5  6  1  0
  5  7  1  0
  7  8  1  0
  8  9  1  0
  8  5  1  0
  1 10  1  0
  1 11  1  0
  1 12  1  0
  2 13  1  0
  3 14  1  0
  3 15  1  0
  3 16  1  0
  4 17  1  0
  4 18  1  0
  6 19  1  0
  6 20  1  0
  6 21  1  0
  7 22  1  0
  7 23  1  0
  8 24  1  0
  9 25  1  0
M  END
