
     RDKit          3D

 17 16  0  0  0  0  0  0  0  0999 V2000
   -1.2661    1.3193    0.3209 C   0  0  0  0  0  0  0  0  0  0  0  0
   -1.0445   -0.0436   -0.2800 C   0  0  0  0  0  0  0  0  0  0  0  0
   -1.5160   -1.0685    0.6534 C   0  0  0  0  0  0  0  0  0  0  0  0
   -2.6320   -1.0149    1.1131 O   0  0  0  0  0  0  0  0  0  0  0  0
    0.3549   -0.2595   -0.7623 C   0  0  0  0  0  0  0  0  0  0  0  0
    1.3769   -0.1411    0.2776 C   0  0  0  0  0  0  0  0  0  0  0  0
    1.0495    0.1198    1.4521 O   0  0  0  0  0  0  0  0  0  0  0  0
    2.7720   -0.3234   -0.0373 C   0  0  0  0  0  0  0  0  0  0  0  0
    3.0977   -0.5862   -1.2210 O   0  0  0  0  0  0  0  0  0  0  0  0
   -0.8615    2.0863   -0.3860 H   0  0  0  0  0  0  0  0  0  0  0  0
   -0.8810    1.4324    1.3368 H   0  0  0  0  0  0  0  0  0  0  0  0
   -2.3853    1.4487    0.4006 H   0  0  0  0  0  0  0  0  0  0  0  0
   -1.7076   -0.0936   -1.1896 H   0  0  0  0  0  0  0  0  0  0  0  0
   -0.8705   -1.8793    0.9376 H   0  0  0  0  0  0  0  0  0  0  0  0
    0.3724   -1.2430   -1.2897 H   0  0  0  0  0  0  0  0  0  0  0  0
    0.5651    0.4966   -1.5623 H   0  0  0  0  0  0  0  0  0  0  0  0
    3.5760   -0.2502    0.6793 H   0  0  0  0  0  0  0  0  0  0  0  0
  1  2  1  0
  2  3  1  0
  3  4  2  0
  2  5  1  0
  5  6  1  0
  6  7  2  0
  6  8  1  0
  8  9  2  0
  1 10  1  0
  1 11  1  0
  1 12  1  0
  2 13  1  0
  3 14  1  0
  5 15  1  0
  5 16  1  0
  8 17  1  0
M  END
