
     RDKit          3D

 21 21  0  0  0  0  0  0  0  0999 V2000
   -1.3030    0.7946   -0.7898 C   0  0  0  0  0  0  0  0  0  0  0  0
   -0.4753   -0.1424    0.0667 C   0  0  0  0  0  0  0  0  0  0  0  0
   -0.7344   -1.5459   -0.4467 C   0  0  0  0  0  0  0  0  0  0  0  0
   -0.9408    0.0391    1.4923 C   0  0  0  0  0  0  0  0  0  0  0  0
    0.9902    0.1836   -0.0084 C   0  0  0  0  0  0  0  0  0  0  0  0
    1.3333    1.5525    0.4455 C   0  0  0  0  0  0  0  0  0  0  0  0
    2.5086    1.8781    0.4096 O   0  0  0  0  0  0  0  0  0  0  0  0
    1.9488   -0.5600   -0.7784 C   0  0  0  0  0  0  0  0  0  0  0  0
    1.7655   -0.8940    0.5521 O   0  0  0  0  0  0  0  0  0  0  0  0
   -1.2562    1.8310   -0.3615 H   0  0  0  0  0  0  0  0  0  0  0  0
   -1.0126    0.7957   -1.8401 H   0  0  0  0  0  0  0  0  0  0  0  0
   -2.3535    0.4516   -0.7295 H   0  0  0  0  0  0  0  0  0  0  0  0
   -1.8001   -1.7846   -0.2813 H   0  0  0  0  0  0  0  0  0  0  0  0
   -0.4912   -1.5058   -1.5465 H   0  0  0  0  0  0  0  0  0  0  0  0
   -0.0809   -2.2923    0.0519 H   0  0  0  0  0  0  0  0  0  0  0  0
   -0.2006   -0.3140    2.2339 H   0  0  0  0  0  0  0  0  0  0  0  0
   -1.8961   -0.5131    1.6159 H   0  0  0  0  0  0  0  0  0  0  0  0
   -1.1545    1.1114    1.6948 H   0  0  0  0  0  0  0  0  0  0  0  0
    0.5955    2.2664    0.8027 H   0  0  0  0  0  0  0  0  0  0  0  0
    1.6369   -1.2744   -1.5725 H   0  0  0  0  0  0  0  0  0  0  0  0
    2.9204   -0.0775   -1.0108 H   0  0  0  0  0  0  0  0  0  0  0  0
  1  2  1  0
  2  3  1  0
  2  4  1  0
  2  5  1  0
  5  6  1  0
  6  7  2  0
  5  8  1  0
  8  9  1  0
  9  5  1  0
  1 10  1  0
  1 11  1  0
  1 12  1  0
  3 13  1  0
  3 14  1  0
  3 15  1  0
  4 16  1  0
  4 17  1  0
  4 18  1  0
  6 19  1  0
  8 20  1  0
  8 21  1  0
M  END
