
     RDKit          3D

 25 25  0  0  0  0  0  0  0  0999 V2000
   -2.0455   -1.1844    1.0710 C   0  0  0  0  0  0  0  0  0  0  0  0
   -1.1044   -0.6950   -0.0494 C   0  0  0  0  0  0  0  0  0  0  0  0
   -1.8666    0.4512   -0.6859 C   0  0  0  0  0  0  0  0  0  0  0  0
   -2.1362    1.4628    0.2217 O   0  0  0  0  0  0  0  0  0  0  0  0
    0.1545   -0.3099    0.6309 C   0  0  0  0  0  0  0  0  0  0  0  0
    1.2639    0.2002   -0.2452 C   0  0  0  0  0  0  0  0  0  0  0  0
    1.0708    1.4312   -1.0925 C   0  0  0  0  0  0  0  0  0  0  0  0
    2.3173   -0.7798   -0.7236 C   0  0  0  0  0  0  0  0  0  0  0  0
    2.6491    0.0804    0.4126 C   0  0  0  0  0  0  0  0  0  0  0  0
   -2.0853   -0.4024    1.8596 H   0  0  0  0  0  0  0  0  0  0  0  0
   -1.7436   -2.1704    1.4415 H   0  0  0  0  0  0  0  0  0  0  0  0
   -3.0653   -1.2439    0.6262 H   0  0  0  0  0  0  0  0  0  0  0  0
   -0.9519   -1.4854   -0.7794 H   0  0  0  0  0  0  0  0  0  0  0  0
   -1.4464    0.7720   -1.6371 H   0  0  0  0  0  0  0  0  0  0  0  0
   -2.8794    0.0158   -0.9453 H   0  0  0  0  0  0  0  0  0  0  0  0
   -2.8876    1.1770    0.8141 H   0  0  0  0  0  0  0  0  0  0  0  0
    0.5217   -1.2010    1.1815 H   0  0  0  0  0  0  0  0  0  0  0  0
   -0.0216    0.4721    1.4051 H   0  0  0  0  0  0  0  0  0  0  0  0
    2.0642    1.9561   -1.1433 H   0  0  0  0  0  0  0  0  0  0  0  0
    0.8431    1.1898   -2.1496 H   0  0  0  0  0  0  0  0  0  0  0  0
    0.3671    2.1441   -0.6322 H   0  0  0  0  0  0  0  0  0  0  0  0
    2.8324   -0.5906   -1.6694 H   0  0  0  0  0  0  0  0  0  0  0  0
    2.1123   -1.8598   -0.5186 H   0  0  0  0  0  0  0  0  0  0  0  0
    2.7143   -0.3879    1.4215 H   0  0  0  0  0  0  0  0  0  0  0  0
    3.3230    0.9578    0.3287 H   0  0  0  0  0  0  0  0  0  0  0  0
  1  2  1  0
  2  3  1  0
  3  4  1  0
  2  5  1  0
  5  6  1  0
  6  7  1  0
  6  8  1  0
  8  9  1  0
  9  6  1  0
  1 10  1  0
  1 11  1  0
  1 12  1  0
  2 13  1  0
  3 14  1  0
  3 15  1  0
  4 16  1  0
  5 17  1  0
  5 18  1  0
  7 19  1  0
  7 20  1  0
  7 21  1  0
  8 22  1  0
  8 23  1  0
  9 24  1  0
  9 25  1  0
M  END
