
     RDKit          3D

 23 22  0  0  0  0  0  0  0  0999 V2000
   -0.2354   -1.0462    1.0590 C   0  0  0  0  0  0  0  0  0  0  0  0
   -0.5668   -0.1548   -0.0997 C   0  0  0  0  0  0  0  0  0  0  0  0
   -1.4624   -0.9759   -1.0425 C   0  0  0  0  0  0  0  0  0  0  0  0
   -1.3860    1.0443    0.2897 C   0  0  0  0  0  0  0  0  0  0  0  0
   -0.7671    1.8623    1.2094 O   0  0  0  0  0  0  0  0  0  0  0  0
    0.6597    0.1608   -0.8755 C   0  0  0  0  0  0  0  0  0  0  0  0
    1.1822   -1.0623   -1.3347 O   0  0  0  0  0  0  0  0  0  0  0  0
    1.7483    0.8404   -0.1038 C   0  0  0  0  0  0  0  0  0  0  0  0
    2.1696    0.0753    0.9832 O   0  0  0  0  0  0  0  0  0  0  0  0
    0.1079   -0.4739    1.9394 H   0  0  0  0  0  0  0  0  0  0  0  0
   -1.0732   -1.7402    1.3084 H   0  0  0  0  0  0  0  0  0  0  0  0
    0.6118   -1.6947    0.7498 H   0  0  0  0  0  0  0  0  0  0  0  0
   -1.1577   -2.0297   -1.0759 H   0  0  0  0  0  0  0  0  0  0  0  0
   -2.5058   -0.8860   -0.6950 H   0  0  0  0  0  0  0  0  0  0  0  0
   -1.4480   -0.4991   -2.0634 H   0  0  0  0  0  0  0  0  0  0  0  0
   -1.7192    1.5427   -0.6195 H   0  0  0  0  0  0  0  0  0  0  0  0
   -2.3086    0.6431    0.7943 H   0  0  0  0  0  0  0  0  0  0  0  0
   -1.4410    2.3868    1.7041 H   0  0  0  0  0  0  0  0  0  0  0  0
    0.3992    0.7366   -1.7744 H   0  0  0  0  0  0  0  0  0  0  0  0
    1.9527   -1.3522   -0.7918 H   0  0  0  0  0  0  0  0  0  0  0  0
    1.4894    1.8368    0.2701 H   0  0  0  0  0  0  0  0  0  0  0  0
    2.6237    0.9370   -0.7788 H   0  0  0  0  0  0  0  0  0  0  0  0
    3.1267   -0.1513    0.9479 H   0  0  0  0  0  0  0  0  0  0  0  0
  1  2  1  0
  2  3  1  0
  2  4  1  0
  4  5  1  0
  2  6  1  0
  6  7  1  0
  6  8  1  0
  8  9  1  0
  1 10  1  0
  1 11  1  0
  1 12  1  0
  3 13  1  0
  3 14  1  0
  3 15  1  0
  4 16  1  0
  4 17  1  0
  5 18  1  0
  6 19  1  0
  7 20  1  0
  8 21  1  0
  8 22  1  0
  9 23  1  0
M  END
