
     RDKit          3D

 23 23  0  0  0  0  0  0  0  0999 V2000
   -2.0067    2.2827    1.6014 C   0  0  0  0  0  0  0  0  0  0  0  0
   -1.9198    0.9252    1.0105 C   0  0  0  0  0  0  0  0  0  0  0  0
   -1.9776   -0.2269    1.9538 C   0  0  0  0  0  0  0  0  0  0  0  0
   -0.7954    0.7954    0.1146 C   0  0  0  0  0  0  0  0  0  0  0  0
    0.1631    0.6661   -0.6368 C   0  0  0  0  0  0  0  0  0  0  0  0
    1.3385    0.4806   -1.5588 C   0  0  0  0  0  0  0  0  0  0  0  0
    2.0802   -0.7135   -1.0794 C   0  0  0  0  0  0  0  0  0  0  0  0
    1.4305   -2.0731   -1.0870 C   0  0  0  0  0  0  0  0  0  0  0  0
    2.6626   -1.7530   -1.9197 C   0  0  0  0  0  0  0  0  0  0  0  0
   -1.3946    2.3538    2.5294 H   0  0  0  0  0  0  0  0  0  0  0  0
   -3.0448    2.6587    1.7785 H   0  0  0  0  0  0  0  0  0  0  0  0
   -1.5071    3.0126    0.8714 H   0  0  0  0  0  0  0  0  0  0  0  0
   -2.8986    0.8337    0.3779 H   0  0  0  0  0  0  0  0  0  0  0  0
   -1.4952   -0.0436    2.9084 H   0  0  0  0  0  0  0  0  0  0  0  0
   -3.0465   -0.6071    2.0573 H   0  0  0  0  0  0  0  0  0  0  0  0
   -1.4494   -1.1077    1.4428 H   0  0  0  0  0  0  0  0  0  0  0  0
    2.0020    1.3945   -1.3976 H   0  0  0  0  0  0  0  0  0  0  0  0
    0.8982    0.4442   -2.5521 H   0  0  0  0  0  0  0  0  0  0  0  0
    2.6460   -0.4741   -0.0962 H   0  0  0  0  0  0  0  0  0  0  0  0
    0.4820   -2.2496   -1.6134 H   0  0  0  0  0  0  0  0  0  0  0  0
    1.5981   -2.7018   -0.1769 H   0  0  0  0  0  0  0  0  0  0  0  0
    3.6394   -2.1619   -1.5090 H   0  0  0  0  0  0  0  0  0  0  0  0
    2.5951   -1.7352   -3.0190 H   0  0  0  0  0  0  0  0  0  0  0  0
  1  2  1  0
  2  3  1  0
  2  4  1  0
  4  5  3  0
  5  6  1  0
  6  7  1  0
  7  8  1  0
  8  9  1  0
  9  7  1  0
  1 10  1  0
  1 11  1  0
  1 12  1  0
  2 13  1  0
  3 14  1  0
  3 15  1  0
  3 16  1  0
  6 17  1  0
  6 18  1  0
  7 19  1  0
  8 20  1  0
  8 21  1  0
  9 22  1  0
  9 23  1  0
M  END
