
     RDKit          3D

 23 23  0  0  0  0  0  0  0  0999 V2000
   -1.9365   -1.0822   -0.0964 C   0  0  0  0  0  0  0  0  0  0  0  0
   -1.1424    0.1870   -0.2949 C   0  0  0  0  0  0  0  0  0  0  0  0
   -0.8325    0.4282   -1.7285 C   0  0  0  0  0  0  0  0  0  0  0  0
   -0.7513    1.5482   -2.1991 O   0  0  0  0  0  0  0  0  0  0  0  0
    0.0540    0.2682    0.6068 C   0  0  0  0  0  0  0  0  0  0  0  0
   -0.3188    0.2310    2.0856 C   0  0  0  0  0  0  0  0  0  0  0  0
    1.0908    1.3363    0.2961 C   0  0  0  0  0  0  0  0  0  0  0  0
    1.3852   -0.1869    0.2546 C   0  0  0  0  0  0  0  0  0  0  0  0
    1.8198   -0.6456   -1.0916 C   0  0  0  0  0  0  0  0  0  0  0  0
   -1.2056   -1.9027    0.0293 H   0  0  0  0  0  0  0  0  0  0  0  0
   -2.5112   -1.0284    0.8536 H   0  0  0  0  0  0  0  0  0  0  0  0
   -2.5519   -1.3282   -0.9698 H   0  0  0  0  0  0  0  0  0  0  0  0
   -1.8441    1.0242   -0.0032 H   0  0  0  0  0  0  0  0  0  0  0  0
   -0.6714   -0.4040   -2.3877 H   0  0  0  0  0  0  0  0  0  0  0  0
   -0.7872    1.2014    2.3783 H   0  0  0  0  0  0  0  0  0  0  0  0
   -0.9573   -0.6324    2.3261 H   0  0  0  0  0  0  0  0  0  0  0  0
    0.6055    0.1343    2.6979 H   0  0  0  0  0  0  0  0  0  0  0  0
    1.5856    1.8699    1.1347 H   0  0  0  0  0  0  0  0  0  0  0  0
    0.9619    1.8612   -0.6458 H   0  0  0  0  0  0  0  0  0  0  0  0
    2.0367   -0.5745    1.0942 H   0  0  0  0  0  0  0  0  0  0  0  0
    1.6171    0.1054   -1.8924 H   0  0  0  0  0  0  0  0  0  0  0  0
    1.4283   -1.6520   -1.3672 H   0  0  0  0  0  0  0  0  0  0  0  0
    2.9254   -0.7582   -1.0806 H   0  0  0  0  0  0  0  0  0  0  0  0
  1  2  1  0
  2  3  1  0
  3  4  2  0
  2  5  1  0
  5  6  1  0
  5  7  1  0
  7  8  1  0
  8  9  1  0
  8  5  1  0
  1 10  1  0
  1 11  1  0
  1 12  1  0
  2 13  1  0
  3 14  1  0
  6 15  1  0
  6 16  1  0
  6 17  1  0
  7 18  1  0
  7 19  1  0
  8 20  1  0
  9 21  1  0
  9 22  1  0
  9 23  1  0
M  END
