
     RDKit          3D

 19 19  0  0  0  0  0  0  0  0999 V2000
   -1.7286   -0.5279   -0.8921 C   0  0  0  0  0  0  0  0  0  0  0  0
   -0.9433    0.2792    0.1321 C   0  0  0  0  0  0  0  0  0  0  0  0
   -1.0337   -0.3138    1.4859 C   0  0  0  0  0  0  0  0  0  0  0  0
   -1.1298   -1.5254    1.5820 O   0  0  0  0  0  0  0  0  0  0  0  0
    0.4686    0.5406   -0.3056 C   0  0  0  0  0  0  0  0  0  0  0  0
    1.3864   -0.6220   -0.5749 C   0  0  0  0  0  0  0  0  0  0  0  0
    1.1321   -1.7071    0.2430 O   0  0  0  0  0  0  0  0  0  0  0  0
    1.0722    1.8162    0.2070 C   0  0  0  0  0  0  0  0  0  0  0  0
    0.7057    1.6572   -1.1236 O   0  0  0  0  0  0  0  0  0  0  0  0
   -2.7857   -0.1730   -0.9327 H   0  0  0  0  0  0  0  0  0  0  0  0
   -1.2474   -0.4712   -1.8976 H   0  0  0  0  0  0  0  0  0  0  0  0
   -1.7020   -1.5849   -0.5023 H   0  0  0  0  0  0  0  0  0  0  0  0
   -1.4642    1.2711    0.1881 H   0  0  0  0  0  0  0  0  0  0  0  0
   -1.0211    0.2512    2.4103 H   0  0  0  0  0  0  0  0  0  0  0  0
    1.3367   -0.9705   -1.6215 H   0  0  0  0  0  0  0  0  0  0  0  0
    2.4277   -0.2833   -0.3888 H   0  0  0  0  0  0  0  0  0  0  0  0
    1.9458   -1.9710    0.7692 H   0  0  0  0  0  0  0  0  0  0  0  0
    2.1547    1.8004    0.4653 H   0  0  0  0  0  0  0  0  0  0  0  0
    0.4260    2.5343    0.7562 H   0  0  0  0  0  0  0  0  0  0  0  0
  1  2  1  0
  2  3  1  0
  3  4  2  0
  2  5  1  0
  5  6  1  0
  6  7  1  0
  5  8  1  0
  8  9  1  0
  9  5  1  0
  1 10  1  0
  1 11  1  0
  1 12  1  0
  2 13  1  0
  3 14  1  0
  6 15  1  0
  6 16  1  0
  7 17  1  0
  8 18  1  0
  8 19  1  0
M  END
