
     RDKit          3D

 25 26  0  0  0  0  0  0  0  0999 V2000
   -1.4678    1.7777    0.1792 C   0  0  0  0  0  0  0  0  0  0  0  0
   -0.5879    0.6110    0.4796 C   0  0  0  0  0  0  0  0  0  0  0  0
    0.8637    0.9256    0.1796 C   0  0  0  0  0  0  0  0  0  0  0  0
    1.7268   -0.2858    0.4981 C   0  0  0  0  0  0  0  0  0  0  0  0
    3.2074   -0.1304    0.2509 C   0  0  0  0  0  0  0  0  0  0  0  0
    2.3861   -1.0340   -0.5948 C   0  0  0  0  0  0  0  0  0  0  0  0
   -1.0317   -0.6745   -0.1487 C   0  0  0  0  0  0  0  0  0  0  0  0
   -2.4367   -1.1013    0.3074 C   0  0  0  0  0  0  0  0  0  0  0  0
   -2.0986   -0.7836   -1.1320 C   0  0  0  0  0  0  0  0  0  0  0  0
   -2.5283    1.4868    0.1051 H   0  0  0  0  0  0  0  0  0  0  0  0
   -1.4175    2.5491    0.9827 H   0  0  0  0  0  0  0  0  0  0  0  0
   -1.1418    2.3158   -0.7597 H   0  0  0  0  0  0  0  0  0  0  0  0
   -0.6316    0.4509    1.5978 H   0  0  0  0  0  0  0  0  0  0  0  0
    0.9570    1.2461   -0.8547 H   0  0  0  0  0  0  0  0  0  0  0  0
    1.1427    1.7824    0.8502 H   0  0  0  0  0  0  0  0  0  0  0  0
    1.4678   -0.8581    1.4067 H   0  0  0  0  0  0  0  0  0  0  0  0
    3.9343   -0.5335    0.9716 H   0  0  0  0  0  0  0  0  0  0  0  0
    3.5451    0.8282   -0.2072 H   0  0  0  0  0  0  0  0  0  0  0  0
    2.1862   -0.7855   -1.6646 H   0  0  0  0  0  0  0  0  0  0  0  0
    2.5034   -2.1388   -0.4562 H   0  0  0  0  0  0  0  0  0  0  0  0
   -0.2436   -1.4630   -0.1486 H   0  0  0  0  0  0  0  0  0  0  0  0
   -3.0377   -0.4131    0.8961 H   0  0  0  0  0  0  0  0  0  0  0  0
   -2.5442   -2.1675    0.6166 H   0  0  0  0  0  0  0  0  0  0  0  0
   -2.0890   -1.6671   -1.8035 H   0  0  0  0  0  0  0  0  0  0  0  0
   -2.6642    0.0628   -1.5517 H   0  0  0  0  0  0  0  0  0  0  0  0
  1  2  1  0
  2  3  1  0
  3  4  1  0
  4  5  1  0
  5  6  1  0
  2  7  1  0
  7  8  1  0
  8  9  1  0
  6  4  1  0
  9  7  1  0
  1 10  1  0
  1 11  1  0
  1 12  1  0
  2 13  1  0
  3 14  1  0
  3 15  1  0
  4 16  1  0
  5 17  1  0
  5 18  1  0
  6 19  1  0
  6 20  1  0
  7 21  1  0
  8 22  1  0
  8 23  1  0
  9 24  1  0
  9 25  1  0
M  END
