
     RDKit          3D

 22 22  0  0  0  0  0  0  0  0999 V2000
   -1.1240    0.8853    1.0363 C   0  0  0  0  0  0  0  0  0  0  0  0
   -1.0127   -0.4126    0.3186 C   0  0  0  0  0  0  0  0  0  0  0  0
   -2.0126   -0.3730   -0.8396 C   0  0  0  0  0  0  0  0  0  0  0  0
    0.3303   -0.8284   -0.1090 C   0  0  0  0  0  0  0  0  0  0  0  0
    0.3131   -2.0791   -0.7811 O   0  0  0  0  0  0  0  0  0  0  0  0
    1.4185   -0.7825    0.9590 C   0  0  0  0  0  0  0  0  0  0  0  0
    1.4823    0.0100   -0.3758 C   0  0  0  0  0  0  0  0  0  0  0  0
    1.6172    1.4636   -0.1707 C   0  0  0  0  0  0  0  0  0  0  0  0
   -0.9592    1.7623    0.3988 H   0  0  0  0  0  0  0  0  0  0  0  0
   -2.1725    1.0205    1.4433 H   0  0  0  0  0  0  0  0  0  0  0  0
   -0.5023    0.8975    1.9784 H   0  0  0  0  0  0  0  0  0  0  0  0
   -1.4252   -1.2051    1.0111 H   0  0  0  0  0  0  0  0  0  0  0  0
   -1.9615   -1.3160   -1.4273 H   0  0  0  0  0  0  0  0  0  0  0  0
   -1.6594    0.4586   -1.4978 H   0  0  0  0  0  0  0  0  0  0  0  0
   -3.0147   -0.1352   -0.4821 H   0  0  0  0  0  0  0  0  0  0  0  0
    0.0136   -2.7291   -0.0717 H   0  0  0  0  0  0  0  0  0  0  0  0
    1.1940   -0.2270    1.8724 H   0  0  0  0  0  0  0  0  0  0  0  0
    2.1116   -1.6323    1.0688 H   0  0  0  0  0  0  0  0  0  0  0  0
    2.2606   -0.4034   -1.0854 H   0  0  0  0  0  0  0  0  0  0  0  0
    1.0362    2.0457   -0.9462 H   0  0  0  0  0  0  0  0  0  0  0  0
    2.6758    1.7540   -0.3417 H   0  0  0  0  0  0  0  0  0  0  0  0
    1.3908    1.8262    0.8476 H   0  0  0  0  0  0  0  0  0  0  0  0
  1  2  1  0
  2  3  1  0
  2  4  1  0
  4  5  1  0
  4  6  1  0
  6  7  1  0
  7  8  1  0
  7  4  1  0
  1  9  1  0
  1 10  1  0
  1 11  1  0
  2 12  1  0
  3 13  1  0
  3 14  1  0
  3 15  1  0
  5 16  1  0
  6 17  1  0
  6 18  1  0
  7 19  1  0
  8 20  1  0
  8 21  1  0
  8 22  1  0
M  END
