
     RDKit          3D

 23 24  0  0  0  0  0  0  0  0999 V2000
   -2.2336    0.5722    0.5204 C   0  0  0  0  0  0  0  0  0  0  0  0
   -1.1495   -0.0895   -0.3101 C   0  0  0  0  0  0  0  0  0  0  0  0
   -1.2426   -1.5771   -0.1673 C   0  0  0  0  0  0  0  0  0  0  0  0
    0.2048    0.4696   -0.0193 C   0  0  0  0  0  0  0  0  0  0  0  0
    0.8351    0.4267    1.3157 C   0  0  0  0  0  0  0  0  0  0  0  0
    1.8041   -0.5767    1.2668 O   0  0  0  0  0  0  0  0  0  0  0  0
    2.3835   -0.4448    0.0277 C   0  0  0  0  0  0  0  0  0  0  0  0
    1.3216   -0.0386   -0.9516 C   0  0  0  0  0  0  0  0  0  0  0  0
    0.8310    1.3555   -1.0295 C   0  0  0  0  0  0  0  0  0  0  0  0
   -1.9450    0.7055    1.5697 H   0  0  0  0  0  0  0  0  0  0  0  0
   -3.1385   -0.0918    0.4069 H   0  0  0  0  0  0  0  0  0  0  0  0
   -2.5557    1.5435    0.0522 H   0  0  0  0  0  0  0  0  0  0  0  0
   -1.4082    0.1471   -1.3653 H   0  0  0  0  0  0  0  0  0  0  0  0
   -0.6139   -2.0128    0.6018 H   0  0  0  0  0  0  0  0  0  0  0  0
   -1.0307   -2.1179   -1.1266 H   0  0  0  0  0  0  0  0  0  0  0  0
   -2.3073   -1.8498    0.0750 H   0  0  0  0  0  0  0  0  0  0  0  0
    1.3954    1.3802    1.5134 H   0  0  0  0  0  0  0  0  0  0  0  0
    0.1455    0.3126    2.1690 H   0  0  0  0  0  0  0  0  0  0  0  0
    2.7576   -1.4489   -0.2737 H   0  0  0  0  0  0  0  0  0  0  0  0
    3.2598    0.2325    0.0050 H   0  0  0  0  0  0  0  0  0  0  0  0
    1.0271   -0.7250   -1.7688 H   0  0  0  0  0  0  0  0  0  0  0  0
    0.2279    1.6263   -1.8969 H   0  0  0  0  0  0  0  0  0  0  0  0
    1.4316    2.2012   -0.6144 H   0  0  0  0  0  0  0  0  0  0  0  0
  1  2  1  0
  2  3  1  0
  2  4  1  0
  4  5  1  0
  5  6  1  0
  6  7  1  0
  7  8  1  0
  8  9  1  0
  8  4  1  0
  9  4  1  0
  1 10  1  0
  1 11  1  0
  1 12  1  0
  2 13  1  0
  3 14  1  0
  3 15  1  0
  3 16  1  0
  5 17  1  0
  5 18  1  0
  7 19  1  0
  7 20  1  0
  8 21  1  0
  9 22  1  0
  9 23  1  0
M  END
