
     RDKit          3D

 23 23  0  0  0  0  0  0  0  0999 V2000
   -1.1987   -1.2467    0.7703 C   0  0  0  0  0  0  0  0  0  0  0  0
   -1.1653   -0.1727   -0.2527 C   0  0  0  0  0  0  0  0  0  0  0  0
   -2.1010    0.9274    0.2431 C   0  0  0  0  0  0  0  0  0  0  0  0
    0.1347    0.4529   -0.5797 C   0  0  0  0  0  0  0  0  0  0  0  0
   -0.0400    1.4425   -1.5648 O   0  0  0  0  0  0  0  0  0  0  0  0
    0.8991    1.0063    0.6090 C   0  0  0  0  0  0  0  0  0  0  0  0
    1.4735   -0.0231   -0.3860 C   0  0  0  0  0  0  0  0  0  0  0  0
    1.9132   -1.2782    0.2986 C   0  0  0  0  0  0  0  0  0  0  0  0
    2.4620    0.4560   -1.2646 O   0  0  0  0  0  0  0  0  0  0  0  0
   -0.8147   -0.8897    1.7714 H   0  0  0  0  0  0  0  0  0  0  0  0
   -2.2458   -1.5571    0.9830 H   0  0  0  0  0  0  0  0  0  0  0  0
   -0.6464   -2.1517    0.5457 H   0  0  0  0  0  0  0  0  0  0  0  0
   -1.6503   -0.5680   -1.1736 H   0  0  0  0  0  0  0  0  0  0  0  0
   -1.6249    1.5316    1.0395 H   0  0  0  0  0  0  0  0  0  0  0  0
   -2.4608    1.5208   -0.6118 H   0  0  0  0  0  0  0  0  0  0  0  0
   -2.9960    0.4526    0.7064 H   0  0  0  0  0  0  0  0  0  0  0  0
   -0.4234    2.2397   -1.1478 H   0  0  0  0  0  0  0  0  0  0  0  0
    0.6018    0.6636    1.6078 H   0  0  0  0  0  0  0  0  0  0  0  0
    1.3764    1.9819    0.5716 H   0  0  0  0  0  0  0  0  0  0  0  0
    3.0110   -1.2419    0.4864 H   0  0  0  0  0  0  0  0  0  0  0  0
    1.4922   -1.3825    1.3387 H   0  0  0  0  0  0  0  0  0  0  0  0
    1.7544   -2.1978   -0.2989 H   0  0  0  0  0  0  0  0  0  0  0  0
    2.2491    0.0340   -2.1455 H   0  0  0  0  0  0  0  0  0  0  0  0
  1  2  1  0
  2  3  1  0
  2  4  1  0
  4  5  1  0
  4  6  1  0
  6  7  1  0
  7  8  1  0
  7  9  1  0
  7  4  1  0
  1 10  1  0
  1 11  1  0
  1 12  1  0
  2 13  1  0
  3 14  1  0
  3 15  1  0
  3 16  1  0
  5 17  1  0
  6 18  1  0
  6 19  1  0
  8 20  1  0
  8 21  1  0
  8 22  1  0
  9 23  1  0
M  END
