
     RDKit          3D

 23 23  0  0  0  0  0  0  0  0999 V2000
   -1.8197    0.5453   -0.9292 C   0  0  0  0  0  0  0  0  0  0  0  0
   -1.3184    0.1151    0.4189 C   0  0  0  0  0  0  0  0  0  0  0  0
   -2.0625   -1.1221    0.8838 C   0  0  0  0  0  0  0  0  0  0  0  0
    0.1403   -0.1801    0.4613 C   0  0  0  0  0  0  0  0  0  0  0  0
    0.5202   -1.2009   -0.4042 O   0  0  0  0  0  0  0  0  0  0  0  0
    1.8955   -1.1632   -0.4555 C   0  0  0  0  0  0  0  0  0  0  0  0
    2.3466    0.2277   -0.1451 C   0  0  0  0  0  0  0  0  0  0  0  0
    1.0073    0.9591    0.0085 C   0  0  0  0  0  0  0  0  0  0  0  0
    1.0843    1.9861    0.9177 O   0  0  0  0  0  0  0  0  0  0  0  0
   -1.2977    1.4583   -1.2567 H   0  0  0  0  0  0  0  0  0  0  0  0
   -1.8347   -0.2512   -1.6828 H   0  0  0  0  0  0  0  0  0  0  0  0
   -2.8949    0.8573   -0.7794 H   0  0  0  0  0  0  0  0  0  0  0  0
   -1.5365    0.9196    1.1331 H   0  0  0  0  0  0  0  0  0  0  0  0
   -1.4775   -1.5260    1.7536 H   0  0  0  0  0  0  0  0  0  0  0  0
   -2.0571   -1.9211    0.1158 H   0  0  0  0  0  0  0  0  0  0  0  0
   -3.0638   -0.8965    1.2614 H   0  0  0  0  0  0  0  0  0  0  0  0
    0.4186   -0.4443    1.4875 H   0  0  0  0  0  0  0  0  0  0  0  0
    2.2439   -1.5256   -1.4530 H   0  0  0  0  0  0  0  0  0  0  0  0
    2.3280   -1.8915    0.2881 H   0  0  0  0  0  0  0  0  0  0  0  0
    2.9031    0.2404    0.8312 H   0  0  0  0  0  0  0  0  0  0  0  0
    2.9909    0.6880   -0.8903 H   0  0  0  0  0  0  0  0  0  0  0  0
    0.7247    1.3056   -1.0229 H   0  0  0  0  0  0  0  0  0  0  0  0
    0.7595    2.8200    0.4575 H   0  0  0  0  0  0  0  0  0  0  0  0
  1  2  1  0
  2  3  1  0
  2  4  1  0
  4  5  1  0
  5  6  1  0
  6  7  1  0
  7  8  1  0
  8  9  1  0
  8  4  1  0
  1 10  1  0
  1 11  1  0
  1 12  1  0
  2 13  1  0
  3 14  1  0
  3 15  1  0
  3 16  1  0
  4 17  1  0
  6 18  1  0
  6 19  1  0
  7 20  1  0
  7 21  1  0
  8 22  1  0
  9 23  1  0
M  END
