
     RDKit          3D

 19 18  0  0  0  0  0  0  0  0999 V2000
   -2.3887   -0.7730    0.2760 C   0  0  0  0  0  0  0  0  0  0  0  0
   -1.2046    0.1163    0.5478 C   0  0  0  0  0  0  0  0  0  0  0  0
   -1.3420    1.4333   -0.1950 C   0  0  0  0  0  0  0  0  0  0  0  0
    0.0617   -0.5678    0.1852 C   0  0  0  0  0  0  0  0  0  0  0  0
   -0.0011   -1.7462   -0.2812 O   0  0  0  0  0  0  0  0  0  0  0  0
    1.3435    0.0875    0.3566 C   0  0  0  0  0  0  0  0  0  0  0  0
    1.4234    1.2458    0.8136 O   0  0  0  0  0  0  0  0  0  0  0  0
    2.5958   -0.6093   -0.0099 C   0  0  0  0  0  0  0  0  0  0  0  0
    3.7215    0.1291    0.2063 O   0  0  0  0  0  0  0  0  0  0  0  0
   -2.3284   -1.6591    0.9406 H   0  0  0  0  0  0  0  0  0  0  0  0
   -2.2390   -1.1760   -0.7685 H   0  0  0  0  0  0  0  0  0  0  0  0
   -3.3350   -0.2450    0.3652 H   0  0  0  0  0  0  0  0  0  0  0  0
   -1.1836    0.3064    1.6403 H   0  0  0  0  0  0  0  0  0  0  0  0
   -0.3887    1.6926   -0.7014 H   0  0  0  0  0  0  0  0  0  0  0  0
   -1.6204    2.2298    0.5458 H   0  0  0  0  0  0  0  0  0  0  0  0
   -2.1861    1.3369   -0.9045 H   0  0  0  0  0  0  0  0  0  0  0  0
    2.5093   -0.8642   -1.1045 H   0  0  0  0  0  0  0  0  0  0  0  0
    2.6183   -1.5697    0.5408 H   0  0  0  0  0  0  0  0  0  0  0  0
    3.9439    0.6325   -0.6072 H   0  0  0  0  0  0  0  0  0  0  0  0
  1  2  1  0
  2  3  1  0
  2  4  1  0
  4  5  2  0
  4  6  1  0
  6  7  2  0
  6  8  1  0
  8  9  1  0
  1 10  1  0
  1 11  1  0
  1 12  1  0
  2 13  1  0
  3 14  1  0
  3 15  1  0
  3 16  1  0
  8 17  1  0
  8 18  1  0
  9 19  1  0
M  END
