
     RDKit          3D

 21 24  0  0  0  0  0  0  0  0999 V2000
    1.5364    1.5884    0.0785 C   0  0  0  0  0  0  0  0  0  0  0  0
    0.9907    0.1894    0.4051 C   0  0  0  0  0  0  0  0  0  0  0  0
    2.0113   -0.7924   -0.0512 C   0  0  0  0  0  0  0  0  0  0  0  0
   -0.3040    0.0243   -0.1319 C   0  0  0  0  0  0  0  0  0  0  0  0
   -1.5419    0.7929    0.1363 C   0  0  0  0  0  0  0  0  0  0  0  0
   -2.2031   -0.3633    0.6394 C   0  0  0  0  0  0  0  0  0  0  0  0
   -2.1849    0.0307   -0.8798 C   0  0  0  0  0  0  0  0  0  0  0  0
   -0.9948   -0.8442   -1.0074 C   0  0  0  0  0  0  0  0  0  0  0  0
   -1.0921   -1.2391    0.3609 C   0  0  0  0  0  0  0  0  0  0  0  0
    2.4774    1.7298    0.6682 H   0  0  0  0  0  0  0  0  0  0  0  0
    0.7846    2.3112    0.4539 H   0  0  0  0  0  0  0  0  0  0  0  0
    1.7094    1.6955   -1.0108 H   0  0  0  0  0  0  0  0  0  0  0  0
    0.9873    0.1545    1.5348 H   0  0  0  0  0  0  0  0  0  0  0  0
    2.1815   -0.7829   -1.1406 H   0  0  0  0  0  0  0  0  0  0  0  0
    3.0175   -0.5906    0.4159 H   0  0  0  0  0  0  0  0  0  0  0  0
    1.7632   -1.8334    0.2632 H   0  0  0  0  0  0  0  0  0  0  0  0
   -1.6000    1.8197    0.4015 H   0  0  0  0  0  0  0  0  0  0  0  0
   -3.1304   -0.5330    1.1118 H   0  0  0  0  0  0  0  0  0  0  0  0
   -3.1189   -0.0301   -1.3247 H   0  0  0  0  0  0  0  0  0  0  0  0
   -0.7038   -1.3809   -1.8779 H   0  0  0  0  0  0  0  0  0  0  0  0
   -0.5854   -1.9463    0.9546 H   0  0  0  0  0  0  0  0  0  0  0  0
  1  2  1  0
  2  3  1  0
  2  4  1  0
  4  5  1  0
  5  6  1  0
  6  7  1  0
  7  8  1  0
  8  9  1  0
  8  4  1  0
  9  4  1  0
  7  5  1  0
  9  6  1  0
  1 10  1  0
  1 11  1  0
  1 12  1  0
  2 13  1  0
  3 14  1  0
  3 15  1  0
  3 16  1  0
  5 17  1  0
  6 18  1  0
  7 19  1  0
  8 20  1  0
  9 21  1  0
M  END
