
     RDKit          3D

 23 24  0  0  0  0  0  0  0  0999 V2000
    2.3477   -1.1099    0.1797 C   0  0  0  0  0  0  0  0  0  0  0  0
    1.3769    0.0334   -0.0028 C   0  0  0  0  0  0  0  0  0  0  0  0
    2.0971    1.3050    0.4533 C   0  0  0  0  0  0  0  0  0  0  0  0
    0.2712   -0.1181    0.7719 O   0  0  0  0  0  0  0  0  0  0  0  0
   -0.8438   -0.1027    0.2119 C   0  0  0  0  0  0  0  0  0  0  0  0
   -2.1932   -0.2502    0.8596 C   0  0  0  0  0  0  0  0  0  0  0  0
   -2.5208   -0.0579   -0.5877 C   0  0  0  0  0  0  0  0  0  0  0  0
   -1.3790   -1.0092   -0.8642 C   0  0  0  0  0  0  0  0  0  0  0  0
   -1.4690    1.0208   -0.5854 C   0  0  0  0  0  0  0  0  0  0  0  0
    2.2045   -1.5608    1.1997 H   0  0  0  0  0  0  0  0  0  0  0  0
    2.2341   -1.9098   -0.5511 H   0  0  0  0  0  0  0  0  0  0  0  0
    3.4147   -0.7487    0.1308 H   0  0  0  0  0  0  0  0  0  0  0  0
    1.1725    0.1588   -1.0843 H   0  0  0  0  0  0  0  0  0  0  0  0
    2.9048    1.0733    1.1772 H   0  0  0  0  0  0  0  0  0  0  0  0
    2.5489    1.8421   -0.3882 H   0  0  0  0  0  0  0  0  0  0  0  0
    1.3953    1.9896    0.9707 H   0  0  0  0  0  0  0  0  0  0  0  0
   -2.4601   -1.2575    1.2170 H   0  0  0  0  0  0  0  0  0  0  0  0
   -2.4269    0.5906    1.5387 H   0  0  0  0  0  0  0  0  0  0  0  0
   -3.4130   -0.0411   -1.0334 H   0  0  0  0  0  0  0  0  0  0  0  0
   -1.6592   -2.0307   -0.5249 H   0  0  0  0  0  0  0  0  0  0  0  0
   -0.9154   -0.9258   -1.8507 H   0  0  0  0  0  0  0  0  0  0  0  0
   -1.6943    1.8690    0.0618 H   0  0  0  0  0  0  0  0  0  0  0  0
   -0.9930    1.2399   -1.5570 H   0  0  0  0  0  0  0  0  0  0  0  0
  1  2  1  0
  2  3  1  0
  2  4  1  0
  4  5  1  0
  5  6  1  0
  6  7  1  0
  7  8  1  0
  7  9  1  0
  8  5  1  0
  9  5  1  0
  1 10  1  0
  1 11  1  0
  1 12  1  0
  2 13  1  0
  3 14  1  0
  3 15  1  0
  3 16  1  0
  6 17  1  0
  6 18  1  0
  7 19  1  0
  8 20  1  0
  8 21  1  0
  9 22  1  0
  9 23  1  0
M  END
