
     RDKit          3D

 21 22  0  0  0  0  0  0  0  0999 V2000
   -2.0164   -0.4435    0.4718 C   0  0  0  0  0  0  0  0  0  0  0  0
   -0.7973   -0.2315   -0.4541 C   0  0  0  0  0  0  0  0  0  0  0  0
   -1.3160    0.6121   -1.5590 C   0  0  0  0  0  0  0  0  0  0  0  0
   -2.2346    0.2292   -2.2185 O   0  0  0  0  0  0  0  0  0  0  0  0
    0.2996    0.4447    0.2148 C   0  0  0  0  0  0  0  0  0  0  0  0
    1.4813    0.6589   -0.6764 C   0  0  0  0  0  0  0  0  0  0  0  0
    1.8038   -0.7873   -0.2698 C   0  0  0  0  0  0  0  0  0  0  0  0
    1.4253   -0.2717    1.0477 C   0  0  0  0  0  0  0  0  0  0  0  0
    0.2555    0.2353    1.6455 C   0  0  0  0  0  0  0  0  0  0  0  0
   -1.9093   -1.3685    1.0554 H   0  0  0  0  0  0  0  0  0  0  0  0
   -2.8930   -0.6123   -0.2104 H   0  0  0  0  0  0  0  0  0  0  0  0
   -2.2302    0.4554    1.0527 H   0  0  0  0  0  0  0  0  0  0  0  0
   -0.6527   -1.2346   -0.8756 H   0  0  0  0  0  0  0  0  0  0  0  0
   -0.8592    1.5618   -1.7559 H   0  0  0  0  0  0  0  0  0  0  0  0
    2.2066    1.3596   -0.2718 H   0  0  0  0  0  0  0  0  0  0  0  0
    1.2269    0.8108   -1.7168 H   0  0  0  0  0  0  0  0  0  0  0  0
    1.3025   -1.5779   -0.7812 H   0  0  0  0  0  0  0  0  0  0  0  0
    2.9106   -0.9424   -0.4348 H   0  0  0  0  0  0  0  0  0  0  0  0
    2.2792    0.4269    1.3676 H   0  0  0  0  0  0  0  0  0  0  0  0
    0.1206    1.2081    2.2130 H   0  0  0  0  0  0  0  0  0  0  0  0
   -0.4031   -0.5331    2.1558 H   0  0  0  0  0  0  0  0  0  0  0  0
  1  2  1  0
  2  3  1  0
  3  4  2  0
  2  5  1  0
  5  6  1  0
  6  7  1  0
  7  8  1  0
  8  9  1  0
  8  5  1  0
  9  5  1  0
  1 10  1  0
  1 11  1  0
  1 12  1  0
  2 13  1  0
  3 14  1  0
  6 15  1  0
  6 16  1  0
  7 17  1  0
  7 18  1  0
  8 19  1  0
  9 20  1  0
  9 21  1  0
M  END
