
     RDKit          3D

 22 21  0  0  0  0  0  0  0  0999 V2000
    0.9123   -0.8035   -1.3837 C   0  0  0  0  0  0  0  0  0  0  0  0
    0.8263   -0.1172   -0.0580 C   0  0  0  0  0  0  0  0  0  0  0  0
    1.2954    1.3084   -0.1877 C   0  0  0  0  0  0  0  0  0  0  0  0
    1.2224    1.9777    1.0399 O   0  0  0  0  0  0  0  0  0  0  0  0
   -0.4604   -0.2277    0.6437 C   0  0  0  0  0  0  0  0  0  0  0  0
   -0.7736   -1.7081    0.9110 C   0  0  0  0  0  0  0  0  0  0  0  0
   -1.6535    0.4022    0.0347 C   0  0  0  0  0  0  0  0  0  0  0  0
   -1.5288    1.7792   -0.1350 O   0  0  0  0  0  0  0  0  0  0  0  0
    0.4283   -1.7764   -1.4290 H   0  0  0  0  0  0  0  0  0  0  0  0
    0.5633   -0.1381   -2.2255 H   0  0  0  0  0  0  0  0  0  0  0  0
    2.0012   -0.9685   -1.5989 H   0  0  0  0  0  0  0  0  0  0  0  0
    1.6156   -0.6068    0.5925 H   0  0  0  0  0  0  0  0  0  0  0  0
    0.6591    1.8795   -0.8921 H   0  0  0  0  0  0  0  0  0  0  0  0
    2.3619    1.3364   -0.5471 H   0  0  0  0  0  0  0  0  0  0  0  0
    1.6693    1.3760    1.7036 H   0  0  0  0  0  0  0  0  0  0  0  0
   -0.3433    0.2109    1.6778 H   0  0  0  0  0  0  0  0  0  0  0  0
    0.1427   -2.1069    1.4053 H   0  0  0  0  0  0  0  0  0  0  0  0
   -1.0050   -2.2420   -0.0371 H   0  0  0  0  0  0  0  0  0  0  0  0
   -1.6158   -1.7834    1.6377 H   0  0  0  0  0  0  0  0  0  0  0  0
   -2.0293   -0.0998   -0.8782 H   0  0  0  0  0  0  0  0  0  0  0  0
   -2.4950    0.2807    0.7826 H   0  0  0  0  0  0  0  0  0  0  0  0
   -1.7932    2.0273   -1.0566 H   0  0  0  0  0  0  0  0  0  0  0  0
  1  2  1  0
  2  3  1  0
  3  4  1  0
  2  5  1  0
  5  6  1  0
  5  7  1  0
  7  8  1  0
  1  9  1  0
  1 10  1  0
  1 11  1  0
  2 12  1  0
  3 13  1  0
  3 14  1  0
  4 15  1  0
  5 16  1  0
  6 17  1  0
  6 18  1  0
  6 19  1  0
  7 20  1  0
  7 21  1  0
  8 22  1  0
M  END
