
     RDKit          3D

 21 21  0  0  0  0  0  0  0  0999 V2000
   -2.1641    0.0233    0.7696 C   0  0  0  0  0  0  0  0  0  0  0  0
   -1.2885   -0.0679   -0.4886 C   0  0  0  0  0  0  0  0  0  0  0  0
   -1.3664    1.2397   -1.1713 C   0  0  0  0  0  0  0  0  0  0  0  0
   -0.8856    2.2095   -0.6287 O   0  0  0  0  0  0  0  0  0  0  0  0
    0.1299   -0.2415    0.0046 C   0  0  0  0  0  0  0  0  0  0  0  0
    0.3338   -1.4776    0.8423 C   0  0  0  0  0  0  0  0  0  0  0  0
    0.4920    1.0174    0.7182 O   0  0  0  0  0  0  0  0  0  0  0  0
    1.2397    0.5184   -0.4329 C   0  0  0  0  0  0  0  0  0  0  0  0
    2.6216    0.1423   -0.0232 C   0  0  0  0  0  0  0  0  0  0  0  0
   -1.6355    0.6982    1.4826 H   0  0  0  0  0  0  0  0  0  0  0  0
   -2.2495   -0.9824    1.1987 H   0  0  0  0  0  0  0  0  0  0  0  0
   -3.1344    0.5035    0.5492 H   0  0  0  0  0  0  0  0  0  0  0  0
   -1.6181   -0.9111   -1.1102 H   0  0  0  0  0  0  0  0  0  0  0  0
   -1.8384    1.3239   -2.1243 H   0  0  0  0  0  0  0  0  0  0  0  0
   -0.5723   -2.1483    0.8352 H   0  0  0  0  0  0  0  0  0  0  0  0
    1.1469   -2.0970    0.3847 H   0  0  0  0  0  0  0  0  0  0  0  0
    0.5571   -1.1997    1.8837 H   0  0  0  0  0  0  0  0  0  0  0  0
    1.1734    1.1662   -1.3324 H   0  0  0  0  0  0  0  0  0  0  0  0
    2.6979   -0.7801    0.5639 H   0  0  0  0  0  0  0  0  0  0  0  0
    3.3373    0.0984   -0.8768 H   0  0  0  0  0  0  0  0  0  0  0  0
    3.0231    0.9649    0.6381 H   0  0  0  0  0  0  0  0  0  0  0  0
  1  2  1  0
  2  3  1  0
  3  4  2  0
  2  5  1  0
  5  6  1  0
  5  7  1  0
  7  8  1  0
  8  9  1  0
  8  5  1  0
  1 10  1  0
  1 11  1  0
  1 12  1  0
  2 13  1  0
  3 14  1  0
  6 15  1  0
  6 16  1  0
  6 17  1  0
  8 18  1  0
  9 19  1  0
  9 20  1  0
  9 21  1  0
M  END
