
     RDKit          3D

 23 24  0  0  0  0  0  0  0  0999 V2000
    1.9327   -1.0988    0.1440 C   0  0  0  0  0  0  0  0  0  0  0  0
    1.0709    0.0341    0.6311 C   0  0  0  0  0  0  0  0  0  0  0  0
    1.8100    1.3264    0.4808 C   0  0  0  0  0  0  0  0  0  0  0  0
   -0.2503   -0.0027   -0.0575 C   0  0  0  0  0  0  0  0  0  0  0  0
   -0.2359    0.1209   -1.5784 C   0  0  0  0  0  0  0  0  0  0  0  0
   -1.4994    0.4583    0.5856 C   0  0  0  0  0  0  0  0  0  0  0  0
   -2.7823    0.0875   -0.1211 C   0  0  0  0  0  0  0  0  0  0  0  0
   -2.4111   -1.2673   -0.1820 O   0  0  0  0  0  0  0  0  0  0  0  0
   -1.2535   -0.9896    0.5222 C   0  0  0  0  0  0  0  0  0  0  0  0
    1.3759   -1.7076   -0.6228 H   0  0  0  0  0  0  0  0  0  0  0  0
    2.2306   -1.7677    0.9765 H   0  0  0  0  0  0  0  0  0  0  0  0
    2.8353   -0.7270   -0.3927 H   0  0  0  0  0  0  0  0  0  0  0  0
    0.8794   -0.1080    1.7272 H   0  0  0  0  0  0  0  0  0  0  0  0
    1.2120    2.1725    0.8820 H   0  0  0  0  0  0  0  0  0  0  0  0
    2.2089    1.5178   -0.5182 H   0  0  0  0  0  0  0  0  0  0  0  0
    2.7056    1.2629    1.1659 H   0  0  0  0  0  0  0  0  0  0  0  0
   -0.9945   -0.5789   -2.0309 H   0  0  0  0  0  0  0  0  0  0  0  0
    0.7723   -0.0830   -1.9971 H   0  0  0  0  0  0  0  0  0  0  0  0
   -0.5708    1.1407   -1.8596 H   0  0  0  0  0  0  0  0  0  0  0  0
   -1.5224    1.0343    1.5164 H   0  0  0  0  0  0  0  0  0  0  0  0
   -3.7005    0.2649    0.4867 H   0  0  0  0  0  0  0  0  0  0  0  0
   -2.8413    0.4890   -1.1648 H   0  0  0  0  0  0  0  0  0  0  0  0
   -0.9717   -1.5790    1.4068 H   0  0  0  0  0  0  0  0  0  0  0  0
  1  2  1  0
  2  3  1  0
  2  4  1  0
  4  5  1  0
  4  6  1  0
  6  7  1  0
  7  8  1  0
  8  9  1  0
  9  4  1  0
  9  6  1  0
  1 10  1  0
  1 11  1  0
  1 12  1  0
  2 13  1  0
  3 14  1  0
  3 15  1  0
  3 16  1  0
  5 17  1  0
  5 18  1  0
  5 19  1  0
  6 20  1  0
  7 21  1  0
  7 22  1  0
  9 23  1  0
M  END
