
     RDKit          3D

 22 22  0  0  0  0  0  0  0  0999 V2000
   -2.1150    0.7682   -1.0418 C   0  0  0  0  0  0  0  0  0  0  0  0
   -1.1014    0.6304    0.0986 C   0  0  0  0  0  0  0  0  0  0  0  0
   -1.6626   -0.2977    1.1070 C   0  0  0  0  0  0  0  0  0  0  0  0
    0.1740    0.1541   -0.5331 C   0  0  0  0  0  0  0  0  0  0  0  0
    0.1009   -1.0657   -1.1990 O   0  0  0  0  0  0  0  0  0  0  0  0
    1.4556   -1.2165   -0.8982 C   0  0  0  0  0  0  0  0  0  0  0  0
    1.1686   -0.4761    0.3952 C   0  0  0  0  0  0  0  0  0  0  0  0
    2.2905    0.4072    0.8677 C   0  0  0  0  0  0  0  0  0  0  0  0
   -1.7922    1.6063   -1.6964 H   0  0  0  0  0  0  0  0  0  0  0  0
   -3.1160    0.9248   -0.6140 H   0  0  0  0  0  0  0  0  0  0  0  0
   -2.0558   -0.1982   -1.6032 H   0  0  0  0  0  0  0  0  0  0  0  0
   -0.9801    1.6517    0.5067 H   0  0  0  0  0  0  0  0  0  0  0  0
   -1.2584   -0.0644    2.1113 H   0  0  0  0  0  0  0  0  0  0  0  0
   -2.7692   -0.2385    1.1738 H   0  0  0  0  0  0  0  0  0  0  0  0
   -1.4219   -1.3583    0.8055 H   0  0  0  0  0  0  0  0  0  0  0  0
    0.6787    0.9000   -1.1783 H   0  0  0  0  0  0  0  0  0  0  0  0
    2.0584   -0.5706   -1.5763 H   0  0  0  0  0  0  0  0  0  0  0  0
    1.8076   -2.2519   -0.7741 H   0  0  0  0  0  0  0  0  0  0  0  0
    0.7539   -1.1679    1.1465 H   0  0  0  0  0  0  0  0  0  0  0  0
    3.2123    0.0673    0.3150 H   0  0  0  0  0  0  0  0  0  0  0  0
    2.4982    0.3072    1.9387 H   0  0  0  0  0  0  0  0  0  0  0  0
    2.0741    1.4886    0.6484 H   0  0  0  0  0  0  0  0  0  0  0  0
  1  2  1  0
  2  3  1  0
  2  4  1  0
  4  5  1  0
  5  6  1  0
  6  7  1  0
  7  8  1  0
  7  4  1  0
  1  9  1  0
  1 10  1  0
  1 11  1  0
  2 12  1  0
  3 13  1  0
  3 14  1  0
  3 15  1  0
  4 16  1  0
  6 17  1  0
  6 18  1  0
  7 19  1  0
  8 20  1  0
  8 21  1  0
  8 22  1  0
M  END
