
     RDKit          3D

 23 24  0  0  0  0  0  0  0  0999 V2000
   -1.1884   -1.4663   -0.3823 C   0  0  0  0  0  0  0  0  0  0  0  0
   -0.8853   -0.0396   -0.7074 C   0  0  0  0  0  0  0  0  0  0  0  0
   -1.9464    0.9273   -0.2500 C   0  0  0  0  0  0  0  0  0  0  0  0
   -2.1691    0.9242    1.0992 O   0  0  0  0  0  0  0  0  0  0  0  0
    0.4970    0.3859   -0.2954 C   0  0  0  0  0  0  0  0  0  0  0  0
    1.6918   -0.3256   -0.8777 C   0  0  0  0  0  0  0  0  0  0  0  0
    2.1959   -0.5966    0.5309 C   0  0  0  0  0  0  0  0  0  0  0  0
    1.0166    0.1676    1.0646 C   0  0  0  0  0  0  0  0  0  0  0  0
    0.7667    1.5464    0.5431 C   0  0  0  0  0  0  0  0  0  0  0  0
   -1.8935   -1.6207    0.4344 H   0  0  0  0  0  0  0  0  0  0  0  0
   -0.2429   -2.0130   -0.1196 H   0  0  0  0  0  0  0  0  0  0  0  0
   -1.6069   -2.0215   -1.2674 H   0  0  0  0  0  0  0  0  0  0  0  0
   -0.8836    0.0356   -1.8376 H   0  0  0  0  0  0  0  0  0  0  0  0
   -2.8764    0.7151   -0.8428 H   0  0  0  0  0  0  0  0  0  0  0  0
   -1.5818    1.9482   -0.5284 H   0  0  0  0  0  0  0  0  0  0  0  0
   -2.1401    0.0698    1.5483 H   0  0  0  0  0  0  0  0  0  0  0  0
    2.3683    0.3695   -1.4572 H   0  0  0  0  0  0  0  0  0  0  0  0
    1.4789   -1.2677   -1.4034 H   0  0  0  0  0  0  0  0  0  0  0  0
    2.1707   -1.6759    0.8137 H   0  0  0  0  0  0  0  0  0  0  0  0
    3.1937   -0.1470    0.7259 H   0  0  0  0  0  0  0  0  0  0  0  0
    0.4203   -0.2201    1.8949 H   0  0  0  0  0  0  0  0  0  0  0  0
   -0.0112    2.1109    1.0770 H   0  0  0  0  0  0  0  0  0  0  0  0
    1.6258    2.1939    0.2371 H   0  0  0  0  0  0  0  0  0  0  0  0
  1  2  1  0
  2  3  1  0
  3  4  1  0
  2  5  1  0
  5  6  1  0
  6  7  1  0
  7  8  1  0
  8  9  1  0
  8  5  1  0
  9  5  1  0
  1 10  1  0
  1 11  1  0
  1 12  1  0
  2 13  1  0
  3 14  1  0
  3 15  1  0
  4 16  1  0
  6 17  1  0
  6 18  1  0
  7 19  1  0
  7 20  1  0
  8 21  1  0
  9 22  1  0
  9 23  1  0
M  END
