
     RDKit          3D

 27 26  0  0  0  0  0  0  0  0999 V2000
    3.3979    1.0337   -0.2885 C   0  0  0  0  0  0  0  0  0  0  0  0
    2.2460    0.3617    0.4241 C   0  0  0  0  0  0  0  0  0  0  0  0
    2.5725   -1.1158    0.4954 C   0  0  0  0  0  0  0  0  0  0  0  0
    0.9352    0.6005   -0.3027 C   0  0  0  0  0  0  0  0  0  0  0  0
   -0.2148   -0.0650    0.4005 C   0  0  0  0  0  0  0  0  0  0  0  0
   -1.5254    0.1563   -0.2993 C   0  0  0  0  0  0  0  0  0  0  0  0
   -2.6365   -0.5372    0.4577 C   0  0  0  0  0  0  0  0  0  0  0  0
   -3.9749   -0.3560   -0.1885 C   0  0  0  0  0  0  0  0  0  0  0  0
   -2.6303   -0.1268    1.7770 O   0  0  0  0  0  0  0  0  0  0  0  0
    4.3134    0.8514    0.2918 H   0  0  0  0  0  0  0  0  0  0  0  0
    3.5580    0.5497   -1.2842 H   0  0  0  0  0  0  0  0  0  0  0  0
    3.2078    2.1050   -0.4830 H   0  0  0  0  0  0  0  0  0  0  0  0
    2.1802    0.7552    1.4573 H   0  0  0  0  0  0  0  0  0  0  0  0
    3.5957   -1.2101    0.9097 H   0  0  0  0  0  0  0  0  0  0  0  0
    2.5918   -1.4880   -0.5675 H   0  0  0  0  0  0  0  0  0  0  0  0
    1.8256   -1.6556    1.0876 H   0  0  0  0  0  0  0  0  0  0  0  0
    1.0228    0.1189   -1.3054 H   0  0  0  0  0  0  0  0  0  0  0  0
    0.8005    1.6802   -0.4615 H   0  0  0  0  0  0  0  0  0  0  0  0
   -0.3072    0.2502    1.4563 H   0  0  0  0  0  0  0  0  0  0  0  0
   -0.0133   -1.1739    0.3476 H   0  0  0  0  0  0  0  0  0  0  0  0
   -1.4458   -0.2277   -1.3365 H   0  0  0  0  0  0  0  0  0  0  0  0
   -1.7187    1.2479   -0.3229 H   0  0  0  0  0  0  0  0  0  0  0  0
   -2.4235   -1.6408    0.4659 H   0  0  0  0  0  0  0  0  0  0  0  0
   -4.7482   -0.3087    0.6230 H   0  0  0  0  0  0  0  0  0  0  0  0
   -4.2377   -1.1978   -0.8716 H   0  0  0  0  0  0  0  0  0  0  0  0
   -4.0431    0.5704   -0.8080 H   0  0  0  0  0  0  0  0  0  0  0  0
   -2.3279    0.8222    1.8565 H   0  0  0  0  0  0  0  0  0  0  0  0
  1  2  1  0
  2  3  1  0
  2  4  1  0
  4  5  1  0
  5  6  1  0
  6  7  1  0
  7  8  1  0
  7  9  1  0
  1 10  1  0
  1 11  1  0
  1 12  1  0
  2 13  1  0
  3 14  1  0
  3 15  1  0
  3 16  1  0
  4 17  1  0
  4 18  1  0
  5 19  1  0
  5 20  1  0
  6 21  1  0
  6 22  1  0
  7 23  1  0
  8 24  1  0
  8 25  1  0
  8 26  1  0
  9 27  1  0
M  END
