
     RDKit          3D

 23 23  0  0  0  0  0  0  0  0999 V2000
    1.2215   -1.6113    0.2309 C   0  0  0  0  0  0  0  0  0  0  0  0
    0.8998   -0.1400    0.2838 C   0  0  0  0  0  0  0  0  0  0  0  0
    2.2072    0.6017    0.0774 C   0  0  0  0  0  0  0  0  0  0  0  0
   -0.0539    0.3136   -0.7639 C   0  0  0  0  0  0  0  0  0  0  0  0
   -0.2997    1.7793   -0.6183 C   0  0  0  0  0  0  0  0  0  0  0  0
    0.2403    2.7661   -1.0609 O   0  0  0  0  0  0  0  0  0  0  0  0
   -1.4516    1.4144    0.2750 C   0  0  0  0  0  0  0  0  0  0  0  0
   -1.5148    0.1059   -0.5210 C   0  0  0  0  0  0  0  0  0  0  0  0
   -1.9226   -1.0846    0.2729 C   0  0  0  0  0  0  0  0  0  0  0  0
    2.2993   -1.7873    0.4585 H   0  0  0  0  0  0  0  0  0  0  0  0
    0.6607   -2.2008    0.9962 H   0  0  0  0  0  0  0  0  0  0  0  0
    1.0580   -1.9536   -0.7925 H   0  0  0  0  0  0  0  0  0  0  0  0
    0.5485    0.0998    1.2951 H   0  0  0  0  0  0  0  0  0  0  0  0
    2.8188    0.1081   -0.7062 H   0  0  0  0  0  0  0  0  0  0  0  0
    2.0787    1.6660   -0.1263 H   0  0  0  0  0  0  0  0  0  0  0  0
    2.8248    0.5270    1.0208 H   0  0  0  0  0  0  0  0  0  0  0  0
    0.2249   -0.0152   -1.7763 H   0  0  0  0  0  0  0  0  0  0  0  0
   -2.3109    2.0798    0.1282 H   0  0  0  0  0  0  0  0  0  0  0  0
   -1.1694    1.2099    1.3242 H   0  0  0  0  0  0  0  0  0  0  0  0
   -2.0999    0.2559   -1.4246 H   0  0  0  0  0  0  0  0  0  0  0  0
   -1.7514   -0.8936    1.3514 H   0  0  0  0  0  0  0  0  0  0  0  0
   -3.0283   -1.2083    0.1566 H   0  0  0  0  0  0  0  0  0  0  0  0
   -1.4801   -2.0328   -0.0809 H   0  0  0  0  0  0  0  0  0  0  0  0
  1  2  1  0
  2  3  1  0
  2  4  1  0
  4  5  1  0
  5  6  2  0
  5  7  1  0
  7  8  1  0
  8  9  1  0
  8  4  1  0
  1 10  1  0
  1 11  1  0
  1 12  1  0
  2 13  1  0
  3 14  1  0
  3 15  1  0
  3 16  1  0
  4 17  1  0
  7 18  1  0
  7 19  1  0
  8 20  1  0
  9 21  1  0
  9 22  1  0
  9 23  1  0
M  END
