
     RDKit          3D

 21 22  0  0  0  0  0  0  0  0999 V2000
    1.4462    1.5206    0.3381 C   0  0  0  0  0  0  0  0  0  0  0  0
    0.7317    0.3007   -0.2278 C   0  0  0  0  0  0  0  0  0  0  0  0
    1.7883   -0.7481   -0.4716 C   0  0  0  0  0  0  0  0  0  0  0  0
   -0.2847   -0.1305    0.7859 C   0  0  0  0  0  0  0  0  0  0  0  0
   -1.1176   -1.3206    0.4497 C   0  0  0  0  0  0  0  0  0  0  0  0
   -1.6094   -1.0481   -0.9413 C   0  0  0  0  0  0  0  0  0  0  0  0
   -1.9521    0.2589   -0.8152 C   0  0  0  0  0  0  0  0  0  0  0  0
   -1.6240    0.4951    0.6260 C   0  0  0  0  0  0  0  0  0  0  0  0
   -2.1436   -0.6918    1.1946 O   0  0  0  0  0  0  0  0  0  0  0  0
    1.0813    1.7846    1.3521 H   0  0  0  0  0  0  0  0  0  0  0  0
    2.5279    1.3850    0.4087 H   0  0  0  0  0  0  0  0  0  0  0  0
    1.2458    2.4273   -0.2909 H   0  0  0  0  0  0  0  0  0  0  0  0
    0.2450    0.5438   -1.1727 H   0  0  0  0  0  0  0  0  0  0  0  0
    1.4489   -1.5808   -1.0880 H   0  0  0  0  0  0  0  0  0  0  0  0
    2.6913   -0.2695   -0.9323 H   0  0  0  0  0  0  0  0  0  0  0  0
    2.1404   -1.0741    0.5512 H   0  0  0  0  0  0  0  0  0  0  0  0
    0.1161   -0.2073    1.8074 H   0  0  0  0  0  0  0  0  0  0  0  0
   -0.8305   -2.2991    0.7144 H   0  0  0  0  0  0  0  0  0  0  0  0
   -1.6750   -1.6955   -1.7977 H   0  0  0  0  0  0  0  0  0  0  0  0
   -2.3520    0.9317   -1.5628 H   0  0  0  0  0  0  0  0  0  0  0  0
   -1.8740    1.4177    1.0722 H   0  0  0  0  0  0  0  0  0  0  0  0
  1  2  1  0
  2  3  1  0
  2  4  1  0
  4  5  1  0
  5  6  1  0
  6  7  2  0
  7  8  1  0
  8  9  1  0
  8  4  1  0
  9  5  1  0
  1 10  1  0
  1 11  1  0
  1 12  1  0
  2 13  1  0
  3 14  1  0
  3 15  1  0
  3 16  1  0
  4 17  1  0
  5 18  1  0
  6 19  1  0
  7 20  1  0
  8 21  1  0
M  END
