
     RDKit          3D

 23 23  0  0  0  0  0  0  0  0999 V2000
   -2.1229   -0.4317    0.6659 C   0  0  0  0  0  0  0  0  0  0  0  0
   -0.8775    0.3948    0.3984 C   0  0  0  0  0  0  0  0  0  0  0  0
   -1.2075    1.3558   -0.7026 C   0  0  0  0  0  0  0  0  0  0  0  0
    0.2214   -0.5633    0.0750 C   0  0  0  0  0  0  0  0  0  0  0  0
    0.0318   -1.3727   -1.0118 O   0  0  0  0  0  0  0  0  0  0  0  0
    0.5425   -1.3525    1.3368 C   0  0  0  0  0  0  0  0  0  0  0  0
    1.3024   -0.2138    1.7097 O   0  0  0  0  0  0  0  0  0  0  0  0
    1.6222   -0.1423    0.3672 C   0  0  0  0  0  0  0  0  0  0  0  0
    2.1099    1.1491   -0.1622 C   0  0  0  0  0  0  0  0  0  0  0  0
   -1.9047   -1.5143    0.7315 H   0  0  0  0  0  0  0  0  0  0  0  0
   -2.8630   -0.3256   -0.1674 H   0  0  0  0  0  0  0  0  0  0  0  0
   -2.6159   -0.1336    1.6189 H   0  0  0  0  0  0  0  0  0  0  0  0
   -0.6555    0.9402    1.3283 H   0  0  0  0  0  0  0  0  0  0  0  0
   -2.2521    1.2536   -1.0639 H   0  0  0  0  0  0  0  0  0  0  0  0
   -1.1192    2.4007   -0.3264 H   0  0  0  0  0  0  0  0  0  0  0  0
   -0.5472    1.1442   -1.5561 H   0  0  0  0  0  0  0  0  0  0  0  0
    0.2031   -2.3386   -0.8422 H   0  0  0  0  0  0  0  0  0  0  0  0
   -0.3048   -1.5515    1.9963 H   0  0  0  0  0  0  0  0  0  0  0  0
    1.2469   -2.1824    1.1459 H   0  0  0  0  0  0  0  0  0  0  0  0
    2.3265   -0.9608    0.1102 H   0  0  0  0  0  0  0  0  0  0  0  0
    2.5671    0.9617   -1.1679 H   0  0  0  0  0  0  0  0  0  0  0  0
    1.3691    1.9335   -0.2848 H   0  0  0  0  0  0  0  0  0  0  0  0
    2.9274    1.5496    0.4735 H   0  0  0  0  0  0  0  0  0  0  0  0
  1  2  1  0
  2  3  1  0
  2  4  1  0
  4  5  1  0
  4  6  1  0
  6  7  1  0
  7  8  1  0
  8  9  1  0
  8  4  1  0
  1 10  1  0
  1 11  1  0
  1 12  1  0
  2 13  1  0
  3 14  1  0
  3 15  1  0
  3 16  1  0
  5 17  1  0
  6 18  1  0
  6 19  1  0
  8 20  1  0
  9 21  1  0
  9 22  1  0
  9 23  1  0
M  END
