
     RDKit          3D

 21 20  0  0  0  0  0  0  0  0999 V2000
    0.4366    2.0659   -0.6706 C   0  0  0  0  0  0  0  0  0  0  0  0
    0.0756    0.6891   -0.0254 C   0  0  0  0  0  0  0  0  0  0  0  0
    1.3150   -0.1252   -0.2330 C   0  0  0  0  0  0  0  0  0  0  0  0
    1.2752   -1.5268    0.2880 C   0  0  0  0  0  0  0  0  0  0  0  0
    2.5121   -2.1453    0.0039 O   0  0  0  0  0  0  0  0  0  0  0  0
   -0.9767    0.1330   -0.6477 O   0  0  0  0  0  0  0  0  0  0  0  0
   -2.1936    0.0432   -0.1092 C   0  0  0  0  0  0  0  0  0  0  0  0
   -2.3634   -0.6801    1.1643 C   0  0  0  0  0  0  0  0  0  0  0  0
   -1.4704   -1.1838    1.7681 O   0  0  0  0  0  0  0  0  0  0  0  0
    0.8179    1.9190   -1.7000 H   0  0  0  0  0  0  0  0  0  0  0  0
    1.2891    2.4229   -0.0589 H   0  0  0  0  0  0  0  0  0  0  0  0
   -0.3693    2.7834   -0.5605 H   0  0  0  0  0  0  0  0  0  0  0  0
   -0.0522    0.9788    1.0354 H   0  0  0  0  0  0  0  0  0  0  0  0
    2.2288    0.3928    0.1833 H   0  0  0  0  0  0  0  0  0  0  0  0
    1.5808   -0.1924   -1.3358 H   0  0  0  0  0  0  0  0  0  0  0  0
    1.2191   -1.5079    1.3963 H   0  0  0  0  0  0  0  0  0  0  0  0
    0.4257   -2.0848   -0.1311 H   0  0  0  0  0  0  0  0  0  0  0  0
    3.2121   -1.6566    0.4835 H   0  0  0  0  0  0  0  0  0  0  0  0
   -2.7742    1.0089   -0.1029 H   0  0  0  0  0  0  0  0  0  0  0  0
   -2.8192   -0.5674   -0.8492 H   0  0  0  0  0  0  0  0  0  0  0  0
   -3.3690   -0.7669    1.5928 H   0  0  0  0  0  0  0  0  0  0  0  0
  1  2  1  0
  2  3  1  0
  3  4  1  0
  4  5  1  0
  2  6  1  0
  6  7  1  0
  7  8  1  0
  8  9  2  0
  1 10  1  0
  1 11  1  0
  1 12  1  0
  2 13  1  0
  3 14  1  0
  3 15  1  0
  4 16  1  0
  4 17  1  0
  5 18  1  0
  7 19  1  0
  7 20  1  0
  8 21  1  0
M  END
