
     RDKit          3D

 20 19  0  0  0  0  0  0  0  0999 V2000
   -1.0232   -1.0129   -0.8408 C   0  0  0  0  0  0  0  0  0  0  0  0
   -0.6327   -0.1114    0.2998 C   0  0  0  0  0  0  0  0  0  0  0  0
   -1.7519    0.9247    0.3975 C   0  0  0  0  0  0  0  0  0  0  0  0
   -0.5545   -0.7866    1.5138 O   0  0  0  0  0  0  0  0  0  0  0  0
    0.6396    0.6204    0.0839 C   0  0  0  0  0  0  0  0  0  0  0  0
    0.6674    1.3350   -1.1115 O   0  0  0  0  0  0  0  0  0  0  0  0
    1.8698   -0.2439    0.1666 C   0  0  0  0  0  0  0  0  0  0  0  0
    1.8728   -1.1263   -0.9221 O   0  0  0  0  0  0  0  0  0  0  0  0
   -1.1579   -0.3923   -1.7306 H   0  0  0  0  0  0  0  0  0  0  0  0
   -0.3441   -1.8713   -0.9687 H   0  0  0  0  0  0  0  0  0  0  0  0
   -2.0463   -1.4154   -0.5834 H   0  0  0  0  0  0  0  0  0  0  0  0
   -1.5956    1.5028    1.3147 H   0  0  0  0  0  0  0  0  0  0  0  0
   -2.6979    0.3283    0.4224 H   0  0  0  0  0  0  0  0  0  0  0  0
   -1.6797    1.5325   -0.5221 H   0  0  0  0  0  0  0  0  0  0  0  0
   -0.9186   -0.2248    2.2489 H   0  0  0  0  0  0  0  0  0  0  0  0
    0.7316    1.3847    0.8971 H   0  0  0  0  0  0  0  0  0  0  0  0
    1.4608    1.9286   -1.0965 H   0  0  0  0  0  0  0  0  0  0  0  0
    1.9406   -0.8351    1.0778 H   0  0  0  0  0  0  0  0  0  0  0  0
    2.7732    0.3872    0.0794 H   0  0  0  0  0  0  0  0  0  0  0  0
    2.4470   -1.9243   -0.7263 H   0  0  0  0  0  0  0  0  0  0  0  0
  1  2  1  0
  2  3  1  0
  2  4  1  0
  2  5  1  0
  5  6  1  0
  5  7  1  0
  7  8  1  0
  1  9  1  0
  1 10  1  0
  1 11  1  0
  3 12  1  0
  3 13  1  0
  3 14  1  0
  4 15  1  0
  5 16  1  0
  6 17  1  0
  7 18  1  0
  7 19  1  0
  8 20  1  0
M  END
