
     RDKit          3D

 27 27  0  0  0  0  0  0  0  0999 V2000
   -1.4335    1.2268   -0.9053 C   0  0  0  0  0  0  0  0  0  0  0  0
   -1.1556   -0.0913   -0.2861 C   0  0  0  0  0  0  0  0  0  0  0  0
   -2.3721   -0.3107    0.6673 C   0  0  0  0  0  0  0  0  0  0  0  0
   -1.3534   -1.2394   -1.2751 C   0  0  0  0  0  0  0  0  0  0  0  0
    0.0216   -0.2640    0.5665 C   0  0  0  0  0  0  0  0  0  0  0  0
    1.3951   -0.0799    0.1355 C   0  0  0  0  0  0  0  0  0  0  0  0
    2.4025   -0.3758    1.2945 C   0  0  0  0  0  0  0  0  0  0  0  0
    1.9651   -0.1116   -1.1824 C   0  0  0  0  0  0  0  0  0  0  0  0
    1.7671    1.2563   -0.5244 C   0  0  0  0  0  0  0  0  0  0  0  0
   -1.1922    2.0579   -0.2337 H   0  0  0  0  0  0  0  0  0  0  0  0
   -2.5480    1.2607   -1.1013 H   0  0  0  0  0  0  0  0  0  0  0  0
   -0.9914    1.4286   -1.8907 H   0  0  0  0  0  0  0  0  0  0  0  0
   -3.2520   -0.6158    0.1017 H   0  0  0  0  0  0  0  0  0  0  0  0
   -2.1223   -1.0914    1.4123 H   0  0  0  0  0  0  0  0  0  0  0  0
   -2.5674    0.6262    1.2321 H   0  0  0  0  0  0  0  0  0  0  0  0
   -0.7716   -1.1411   -2.1796 H   0  0  0  0  0  0  0  0  0  0  0  0
   -2.4360   -1.1908   -1.5819 H   0  0  0  0  0  0  0  0  0  0  0  0
   -1.2202   -2.1698   -0.7051 H   0  0  0  0  0  0  0  0  0  0  0  0
   -0.0900   -1.3048    1.0348 H   0  0  0  0  0  0  0  0  0  0  0  0
   -0.1719    0.3794    1.4969 H   0  0  0  0  0  0  0  0  0  0  0  0
    2.4831   -1.4739    1.4192 H   0  0  0  0  0  0  0  0  0  0  0  0
    2.0622    0.1049    2.2150 H   0  0  0  0  0  0  0  0  0  0  0  0
    3.3891    0.0149    1.0215 H   0  0  0  0  0  0  0  0  0  0  0  0
    3.0332   -0.4168   -1.3056 H   0  0  0  0  0  0  0  0  0  0  0  0
    1.4249   -0.1847   -2.1398 H   0  0  0  0  0  0  0  0  0  0  0  0
    1.0297    1.9343   -0.9118 H   0  0  0  0  0  0  0  0  0  0  0  0
    2.7039    1.7719   -0.2088 H   0  0  0  0  0  0  0  0  0  0  0  0
  1  2  1  0
  2  3  1  0
  2  4  1  0
  2  5  1  0
  5  6  1  0
  6  7  1  0
  6  8  1  0
  8  9  1  0
  9  6  1  0
  1 10  1  0
  1 11  1  0
  1 12  1  0
  3 13  1  0
  3 14  1  0
  3 15  1  0
  4 16  1  0
  4 17  1  0
  4 18  1  0
  5 19  1  0
  5 20  1  0
  7 21  1  0
  7 22  1  0
  7 23  1  0
  8 24  1  0
  8 25  1  0
  9 26  1  0
  9 27  1  0
M  END
