
     RDKit          3D

 23 22  0  0  0  0  0  0  0  0999 V2000
   -2.6779    0.6561    0.9233 C   0  0  0  0  0  0  0  0  0  0  0  0
   -1.7315    0.3208   -0.2086 C   0  0  0  0  0  0  0  0  0  0  0  0
   -2.0748   -1.0871   -0.6695 C   0  0  0  0  0  0  0  0  0  0  0  0
   -0.3308    0.2702    0.3590 C   0  0  0  0  0  0  0  0  0  0  0  0
    0.6292   -0.0297   -0.5860 O   0  0  0  0  0  0  0  0  0  0  0  0
    1.8594   -0.0432    0.0684 C   0  0  0  0  0  0  0  0  0  0  0  0
    2.7644    1.0260   -0.5431 C   0  0  0  0  0  0  0  0  0  0  0  0
    2.5534   -1.3375   -0.0710 C   0  0  0  0  0  0  0  0  0  0  0  0
    3.6346   -1.4647    0.4588 O   0  0  0  0  0  0  0  0  0  0  0  0
   -2.2940    1.4791    1.5646 H   0  0  0  0  0  0  0  0  0  0  0  0
   -2.8627   -0.2433    1.5481 H   0  0  0  0  0  0  0  0  0  0  0  0
   -3.6696    1.0146    0.5410 H   0  0  0  0  0  0  0  0  0  0  0  0
   -1.8547    1.0677   -0.9847 H   0  0  0  0  0  0  0  0  0  0  0  0
   -1.5952   -1.2582   -1.6386 H   0  0  0  0  0  0  0  0  0  0  0  0
   -3.1707   -1.2177   -0.6752 H   0  0  0  0  0  0  0  0  0  0  0  0
   -1.6673   -1.8234    0.0501 H   0  0  0  0  0  0  0  0  0  0  0  0
   -0.2464   -0.4571    1.1877 H   0  0  0  0  0  0  0  0  0  0  0  0
   -0.0618    1.2822    0.7726 H   0  0  0  0  0  0  0  0  0  0  0  0
    1.7493    0.1824    1.1390 H   0  0  0  0  0  0  0  0  0  0  0  0
    2.5054    1.0930   -1.6151 H   0  0  0  0  0  0  0  0  0  0  0  0
    2.6208    1.9952   -0.0252 H   0  0  0  0  0  0  0  0  0  0  0  0
    3.8076    0.7149   -0.3635 H   0  0  0  0  0  0  0  0  0  0  0  0
    2.1131   -2.1404   -0.6247 H   0  0  0  0  0  0  0  0  0  0  0  0
  1  2  1  0
  2  3  1  0
  2  4  1  0
  4  5  1  0
  5  6  1  0
  6  7  1  0
  6  8  1  0
  8  9  2  0
  1 10  1  0
  1 11  1  0
  1 12  1  0
  2 13  1  0
  3 14  1  0
  3 15  1  0
  3 16  1  0
  4 17  1  0
  4 18  1  0
  6 19  1  0
  7 20  1  0
  7 21  1  0
  7 22  1  0
  8 23  1  0
M  END
