
     RDKit          3D

 27 27  0  0  0  0  0  0  0  0999 V2000
   -2.5713    1.3331   -1.0342 C   0  0  0  0  0  0  0  0  0  0  0  0
   -1.9762    0.3618   -0.0661 C   0  0  0  0  0  0  0  0  0  0  0  0
   -2.8324   -0.9005   -0.0427 C   0  0  0  0  0  0  0  0  0  0  0  0
   -0.5706   -0.0531   -0.4405 C   0  0  0  0  0  0  0  0  0  0  0  0
    0.0344   -1.0472    0.5533 C   0  0  0  0  0  0  0  0  0  0  0  0
    0.5778    0.3298    0.4102 C   0  0  0  0  0  0  0  0  0  0  0  0
    1.9540    0.4128   -0.2173 C   0  0  0  0  0  0  0  0  0  0  0  0
    2.3546   -0.9414   -0.7966 C   0  0  0  0  0  0  0  0  0  0  0  0
    3.0080    0.7947    0.7809 C   0  0  0  0  0  0  0  0  0  0  0  0
   -2.5215    2.3797   -0.6149 H   0  0  0  0  0  0  0  0  0  0  0  0
   -2.1474    1.2717   -2.0458 H   0  0  0  0  0  0  0  0  0  0  0  0
   -3.6784    1.1378   -1.1389 H   0  0  0  0  0  0  0  0  0  0  0  0
   -2.0013    0.8282    0.9414 H   0  0  0  0  0  0  0  0  0  0  0  0
   -3.7060   -0.7881    0.6317 H   0  0  0  0  0  0  0  0  0  0  0  0
   -3.1443   -1.1116   -1.0922 H   0  0  0  0  0  0  0  0  0  0  0  0
   -2.1701   -1.7195    0.3011 H   0  0  0  0  0  0  0  0  0  0  0  0
   -0.4134   -0.2424   -1.5227 H   0  0  0  0  0  0  0  0  0  0  0  0
   -0.4999   -1.2629    1.4857 H   0  0  0  0  0  0  0  0  0  0  0  0
    0.5062   -1.9175    0.0683 H   0  0  0  0  0  0  0  0  0  0  0  0
    0.3587    1.0546    1.2107 H   0  0  0  0  0  0  0  0  0  0  0  0
    1.9584    1.1530   -1.0285 H   0  0  0  0  0  0  0  0  0  0  0  0
    1.6044   -1.2880   -1.5406 H   0  0  0  0  0  0  0  0  0  0  0  0
    3.3518   -0.7926   -1.2829 H   0  0  0  0  0  0  0  0  0  0  0  0
    2.5317   -1.6813    0.0131 H   0  0  0  0  0  0  0  0  0  0  0  0
    3.0347    0.1592    1.6695 H   0  0  0  0  0  0  0  0  0  0  0  0
    2.9608    1.8649    1.0683 H   0  0  0  0  0  0  0  0  0  0  0  0
    3.9974    0.6651    0.2661 H   0  0  0  0  0  0  0  0  0  0  0  0
  1  2  1  0
  2  3  1  0
  2  4  1  0
  4  5  1  0
  5  6  1  0
  6  7  1  0
  7  8  1  0
  7  9  1  0
  6  4  1  0
  1 10  1  0
  1 11  1  0
  1 12  1  0
  2 13  1  0
  3 14  1  0
  3 15  1  0
  3 16  1  0
  4 17  1  0
  5 18  1  0
  5 19  1  0
  6 20  1  0
  7 21  1  0
  8 22  1  0
  8 23  1  0
  8 24  1  0
  9 25  1  0
  9 26  1  0
  9 27  1  0
M  END
