
     RDKit          3D

 21 21  0  0  0  0  0  0  0  0999 V2000
   -0.7844    0.8131   -1.4258 C   0  0  0  0  0  0  0  0  0  0  0  0
   -0.9582    0.2611   -0.0088 C   0  0  0  0  0  0  0  0  0  0  0  0
   -2.0398   -0.7706   -0.0120 C   0  0  0  0  0  0  0  0  0  0  0  0
   -1.4081    1.3435    0.7531 O   0  0  0  0  0  0  0  0  0  0  0  0
    0.3558   -0.2330    0.5239 C   0  0  0  0  0  0  0  0  0  0  0  0
    1.1384   -1.2903   -0.0987 C   0  0  0  0  0  0  0  0  0  0  0  0
    1.6304    0.0985   -0.2038 C   0  0  0  0  0  0  0  0  0  0  0  0
    2.8068    0.5627    0.5815 C   0  0  0  0  0  0  0  0  0  0  0  0
    3.6365    1.3325    0.1832 O   0  0  0  0  0  0  0  0  0  0  0  0
   -1.8090    1.0535   -1.7795 H   0  0  0  0  0  0  0  0  0  0  0  0
   -0.2189    1.7579   -1.3649 H   0  0  0  0  0  0  0  0  0  0  0  0
   -0.3687    0.0727   -2.1115 H   0  0  0  0  0  0  0  0  0  0  0  0
   -2.8414   -0.5532    0.7478 H   0  0  0  0  0  0  0  0  0  0  0  0
   -2.5730   -0.8240   -0.9829 H   0  0  0  0  0  0  0  0  0  0  0  0
   -1.6891   -1.7903    0.2177 H   0  0  0  0  0  0  0  0  0  0  0  0
   -2.3770    1.3835    0.7349 H   0  0  0  0  0  0  0  0  0  0  0  0
    0.4474   -0.1281    1.6346 H   0  0  0  0  0  0  0  0  0  0  0  0
    1.7321   -1.9844    0.5480 H   0  0  0  0  0  0  0  0  0  0  0  0
    0.8182   -1.8162   -1.0426 H   0  0  0  0  0  0  0  0  0  0  0  0
    1.5907    0.5420   -1.2185 H   0  0  0  0  0  0  0  0  0  0  0  0
    2.9114    0.1689    1.5879 H   0  0  0  0  0  0  0  0  0  0  0  0
  1  2  1  0
  2  3  1  0
  2  4  1  0
  2  5  1  0
  5  6  1  0
  6  7  1  0
  7  8  1  0
  8  9  2  0
  7  5  1  0
  1 10  1  0
  1 11  1  0
  1 12  1  0
  3 13  1  0
  3 14  1  0
  3 15  1  0
  4 16  1  0
  5 17  1  0
  6 18  1  0
  6 19  1  0
  7 20  1  0
  8 21  1  0
M  END
