
     RDKit          3D

 20 20  0  0  0  0  0  0  0  0999 V2000
    0.5537    1.6268    1.0241 C   0  0  0  0  0  0  0  0  0  0  0  0
    0.3400    0.5164    0.0238 C   0  0  0  0  0  0  0  0  0  0  0  0
    1.6854   -0.1482   -0.1889 C   0  0  0  0  0  0  0  0  0  0  0  0
    1.6001   -1.2667   -1.1624 C   0  0  0  0  0  0  0  0  0  0  0  0
    2.6100   -1.8871   -1.4254 O   0  0  0  0  0  0  0  0  0  0  0  0
   -0.7330   -0.4307    0.3933 C   0  0  0  0  0  0  0  0  0  0  0  0
   -2.1282   -0.0824    0.6013 C   0  0  0  0  0  0  0  0  0  0  0  0
   -1.7810   -0.7157   -0.7046 C   0  0  0  0  0  0  0  0  0  0  0  0
    1.1686    1.2503    1.8813 H   0  0  0  0  0  0  0  0  0  0  0  0
   -0.3759    2.1129    1.3362 H   0  0  0  0  0  0  0  0  0  0  0  0
    1.2143    2.3805    0.5072 H   0  0  0  0  0  0  0  0  0  0  0  0
    0.0863    1.0081   -0.9378 H   0  0  0  0  0  0  0  0  0  0  0  0
    2.1500   -0.4704    0.7665 H   0  0  0  0  0  0  0  0  0  0  0  0
    2.3292    0.6368   -0.6842 H   0  0  0  0  0  0  0  0  0  0  0  0
    0.6874   -1.5635   -1.6539 H   0  0  0  0  0  0  0  0  0  0  0  0
   -0.3692   -1.3520    0.9268 H   0  0  0  0  0  0  0  0  0  0  0  0
   -2.7521   -0.7301    1.2677 H   0  0  0  0  0  0  0  0  0  0  0  0
   -2.5292    0.9474    0.5411 H   0  0  0  0  0  0  0  0  0  0  0  0
   -1.7547   -0.0627   -1.5949 H   0  0  0  0  0  0  0  0  0  0  0  0
   -2.0018   -1.7696   -0.9170 H   0  0  0  0  0  0  0  0  0  0  0  0
  1  2  1  0
  2  3  1  0
  3  4  1  0
  4  5  2  0
  2  6  1  0
  6  7  1  0
  7  8  1  0
  8  6  1  0
  1  9  1  0
  1 10  1  0
  1 11  1  0
  2 12  1  0
  3 13  1  0
  3 14  1  0
  4 15  1  0
  6 16  1  0
  7 17  1  0
  7 18  1  0
  8 19  1  0
  8 20  1  0
M  END
