
     RDKit          3D

 25 24  0  0  0  0  0  0  0  0999 V2000
    2.0243   -1.1046   -0.6663 C   0  0  0  0  0  0  0  0  0  0  0  0
    1.3434    0.1584   -1.0639 C   0  0  0  0  0  0  0  0  0  0  0  0
    1.8722    1.2771   -0.1594 C   0  0  0  0  0  0  0  0  0  0  0  0
   -0.1028    0.1765   -1.0311 C   0  0  0  0  0  0  0  0  0  0  0  0
   -0.6427    0.4125   -2.1105 O   0  0  0  0  0  0  0  0  0  0  0  0
   -0.9906   -0.0514    0.1275 C   0  0  0  0  0  0  0  0  0  0  0  0
   -0.8040   -1.3981    0.7747 C   0  0  0  0  0  0  0  0  0  0  0  0
   -2.4534   -0.0829   -0.3637 C   0  0  0  0  0  0  0  0  0  0  0  0
   -0.9798    1.0731    1.1405 C   0  0  0  0  0  0  0  0  0  0  0  0
    2.2342   -1.1923    0.4151 H   0  0  0  0  0  0  0  0  0  0  0  0
    3.0225   -1.1123   -1.1560 H   0  0  0  0  0  0  0  0  0  0  0  0
    1.4781   -1.9749   -1.0851 H   0  0  0  0  0  0  0  0  0  0  0  0
    1.7013    0.4233   -2.0797 H   0  0  0  0  0  0  0  0  0  0  0  0
    2.1377    0.9136    0.8389 H   0  0  0  0  0  0  0  0  0  0  0  0
    2.8004    1.7063   -0.6270 H   0  0  0  0  0  0  0  0  0  0  0  0
    1.1537    2.1154   -0.1138 H   0  0  0  0  0  0  0  0  0  0  0  0
   -1.7443   -1.6465    1.3157 H   0  0  0  0  0  0  0  0  0  0  0  0
    0.0824   -1.4549    1.4265 H   0  0  0  0  0  0  0  0  0  0  0  0
   -0.6787   -2.1758   -0.0063 H   0  0  0  0  0  0  0  0  0  0  0  0
   -2.7845    0.9299   -0.6325 H   0  0  0  0  0  0  0  0  0  0  0  0
   -2.4628   -0.6712   -1.3269 H   0  0  0  0  0  0  0  0  0  0  0  0
   -3.1215   -0.5011    0.3948 H   0  0  0  0  0  0  0  0  0  0  0  0
   -1.1283    2.0391    0.5966 H   0  0  0  0  0  0  0  0  0  0  0  0
   -0.0671    1.1619    1.7177 H   0  0  0  0  0  0  0  0  0  0  0  0
   -1.8897    0.9787    1.7758 H   0  0  0  0  0  0  0  0  0  0  0  0
  1  2  1  0
  2  3  1  0
  2  4  1  0
  4  5  2  0
  4  6  1  0
  6  7  1  0
  6  8  1  0
  6  9  1  0
  1 10  1  0
  1 11  1  0
  1 12  1  0
  2 13  1  0
  3 14  1  0
  3 15  1  0
  3 16  1  0
  7 17  1  0
  7 18  1  0
  7 19  1  0
  8 20  1  0
  8 21  1  0
  8 22  1  0
  9 23  1  0
  9 24  1  0
  9 25  1  0
M  END
