
     RDKit          3D

 23 23  0  0  0  0  0  0  0  0999 V2000
   -2.7909   -1.0983   -0.2080 C   0  0  0  0  0  0  0  0  0  0  0  0
   -1.7813    0.0073   -0.4917 C   0  0  0  0  0  0  0  0  0  0  0  0
   -2.4378    1.3761   -0.4418 C   0  0  0  0  0  0  0  0  0  0  0  0
   -0.7446    0.0057    0.4282 O   0  0  0  0  0  0  0  0  0  0  0  0
    0.4660   -0.1816   -0.2472 C   0  0  0  0  0  0  0  0  0  0  0  0
    1.6194   -0.1897    0.7170 C   0  0  0  0  0  0  0  0  0  0  0  0
    2.8940   -0.3878   -0.0023 C   0  0  0  0  0  0  0  0  0  0  0  0
    3.4083    0.4829   -1.0209 C   0  0  0  0  0  0  0  0  0  0  0  0
    2.6662   -0.7054   -1.4344 O   0  0  0  0  0  0  0  0  0  0  0  0
   -2.6093   -1.9850   -0.8497 H   0  0  0  0  0  0  0  0  0  0  0  0
   -2.6546   -1.3937    0.8574 H   0  0  0  0  0  0  0  0  0  0  0  0
   -3.8334   -0.7166   -0.2906 H   0  0  0  0  0  0  0  0  0  0  0  0
   -1.4316   -0.1361   -1.5308 H   0  0  0  0  0  0  0  0  0  0  0  0
   -1.7965    2.0534   -1.0691 H   0  0  0  0  0  0  0  0  0  0  0  0
   -2.5197    1.7606    0.5799 H   0  0  0  0  0  0  0  0  0  0  0  0
   -3.4381    1.3471   -0.9303 H   0  0  0  0  0  0  0  0  0  0  0  0
    0.3843   -1.1709   -0.7502 H   0  0  0  0  0  0  0  0  0  0  0  0
    0.6161    0.5950   -1.0328 H   0  0  0  0  0  0  0  0  0  0  0  0
    1.5964    0.7372    1.3353 H   0  0  0  0  0  0  0  0  0  0  0  0
    1.4224   -1.0605    1.4117 H   0  0  0  0  0  0  0  0  0  0  0  0
    3.5914   -1.1375    0.4612 H   0  0  0  0  0  0  0  0  0  0  0  0
    2.8954    1.4433   -1.2620 H   0  0  0  0  0  0  0  0  0  0  0  0
    4.4780    0.3545   -1.3198 H   0  0  0  0  0  0  0  0  0  0  0  0
  1  2  1  0
  2  3  1  0
  2  4  1  0
  4  5  1  0
  5  6  1  0
  6  7  1  0
  7  8  1  0
  8  9  1  0
  9  7  1  0
  1 10  1  0
  1 11  1  0
  1 12  1  0
  2 13  1  0
  3 14  1  0
  3 15  1  0
  3 16  1  0
  5 17  1  0
  5 18  1  0
  6 19  1  0
  6 20  1  0
  7 21  1  0
  8 22  1  0
  8 23  1  0
M  END
