
     RDKit          3D

 21 20  0  0  0  0  0  0  0  0999 V2000
   -1.8934    0.8847   -0.3779 C   0  0  0  0  0  0  0  0  0  0  0  0
   -1.1682   -0.4447   -0.2318 C   0  0  0  0  0  0  0  0  0  0  0  0
   -2.0673   -1.3941    0.5310 C   0  0  0  0  0  0  0  0  0  0  0  0
    0.0630   -0.2049    0.5329 C   0  0  0  0  0  0  0  0  0  0  0  0
    0.2019   -0.7828    1.5968 O   0  0  0  0  0  0  0  0  0  0  0  0
    1.1681    0.6867    0.1269 C   0  0  0  0  0  0  0  0  0  0  0  0
    0.8736    1.2512   -1.1048 O   0  0  0  0  0  0  0  0  0  0  0  0
    2.4977   -0.0125    0.0398 C   0  0  0  0  0  0  0  0  0  0  0  0
    2.8407   -0.5996    1.2592 O   0  0  0  0  0  0  0  0  0  0  0  0
   -2.6784    0.9134    0.4048 H   0  0  0  0  0  0  0  0  0  0  0  0
   -2.4529    0.8888   -1.3520 H   0  0  0  0  0  0  0  0  0  0  0  0
   -1.2381    1.7584   -0.2762 H   0  0  0  0  0  0  0  0  0  0  0  0
   -0.9767   -0.8127   -1.2640 H   0  0  0  0  0  0  0  0  0  0  0  0
   -1.4773   -2.0443    1.1987 H   0  0  0  0  0  0  0  0  0  0  0  0
   -2.7092   -1.9851   -0.1690 H   0  0  0  0  0  0  0  0  0  0  0  0
   -2.7876   -0.7837    1.1435 H   0  0  0  0  0  0  0  0  0  0  0  0
    1.2568    1.4838    0.8751 H   0  0  0  0  0  0  0  0  0  0  0  0
    1.0403    2.2399   -1.0911 H   0  0  0  0  0  0  0  0  0  0  0  0
    3.2638    0.7675   -0.1583 H   0  0  0  0  0  0  0  0  0  0  0  0
    2.5614   -0.7331   -0.7980 H   0  0  0  0  0  0  0  0  0  0  0  0
    3.6818   -1.0770    1.1559 H   0  0  0  0  0  0  0  0  0  0  0  0
  1  2  1  0
  2  3  1  0
  2  4  1  0
  4  5  2  0
  4  6  1  0
  6  7  1  0
  6  8  1  0
  8  9  1  0
  1 10  1  0
  1 11  1  0
  1 12  1  0
  2 13  1  0
  3 14  1  0
  3 15  1  0
  3 16  1  0
  6 17  1  0
  7 18  1  0
  8 19  1  0
  8 20  1  0
  9 21  1  0
M  END
