
     RDKit          3D

 19 18  0  0  0  0  0  0  0  0999 V2000
   -1.5037   -1.1502   -1.4294 C   0  0  0  0  0  0  0  0  0  0  0  0
   -1.1569   -0.2724   -0.1784 C   0  0  0  0  0  0  0  0  0  0  0  0
    0.2014   -0.4630    0.0361 C   0  0  0  0  0  0  0  0  0  0  0  0
    1.4755   -0.6339    0.2206 C   0  0  0  0  0  0  0  0  0  0  0  0
    2.9454   -0.8323    0.4098 C   0  0  0  0  0  0  0  0  0  0  0  0
    3.4437    0.3452    0.9996 O   0  0  0  0  0  0  0  0  0  0  0  0
   -1.5598    1.1442   -0.3655 C   0  0  0  0  0  0  0  0  0  0  0  0
   -1.1696    1.8455    0.8924 C   0  0  0  0  0  0  0  0  0  0  0  0
   -1.4950    2.9442    1.2339 O   0  0  0  0  0  0  0  0  0  0  0  0
   -1.0584   -0.7522   -2.3502 H   0  0  0  0  0  0  0  0  0  0  0  0
   -1.0806   -2.1642   -1.1903 H   0  0  0  0  0  0  0  0  0  0  0  0
   -2.5931   -1.2499   -1.4326 H   0  0  0  0  0  0  0  0  0  0  0  0
   -1.7765   -0.6935    0.6851 H   0  0  0  0  0  0  0  0  0  0  0  0
    3.4835   -1.0460   -0.4825 H   0  0  0  0  0  0  0  0  0  0  0  0
    3.0687   -1.7205    1.1426 H   0  0  0  0  0  0  0  0  0  0  0  0
    3.0087    0.5239    1.8585 H   0  0  0  0  0  0  0  0  0  0  0  0
   -1.0618    1.6257   -1.2312 H   0  0  0  0  0  0  0  0  0  0  0  0
   -2.6857    1.2656   -0.4145 H   0  0  0  0  0  0  0  0  0  0  0  0
   -0.4857    1.2837    1.5961 H   0  0  0  0  0  0  0  0  0  0  0  0
  1  2  1  0
  2  3  1  0
  3  4  3  0
  4  5  1  0
  5  6  1  0
  2  7  1  0
  7  8  1  0
  8  9  2  0
  1 10  1  0
  1 11  1  0
  1 12  1  0
  2 13  1  0
  5 14  1  0
  5 15  1  0
  6 16  1  0
  7 17  1  0
  7 18  1  0
  8 19  1  0
M  END
