
     RDKit          3D

 23 22  0  0  0  0  0  0  0  0999 V2000
   -2.1033    0.1262   -1.5177 C   0  0  0  0  0  0  0  0  0  0  0  0
   -0.9469   -0.2737   -0.5938 C   0  0  0  0  0  0  0  0  0  0  0  0
   -1.5991   -0.8107    0.6668 C   0  0  0  0  0  0  0  0  0  0  0  0
   -0.1573    0.9761   -0.3303 C   0  0  0  0  0  0  0  0  0  0  0  0
   -1.0149    1.8911    0.2807 O   0  0  0  0  0  0  0  0  0  0  0  0
    1.0234    0.7581    0.5568 C   0  0  0  0  0  0  0  0  0  0  0  0
    2.0100   -0.2327   -0.0195 C   0  0  0  0  0  0  0  0  0  0  0  0
    3.1622   -0.4122    0.9010 C   0  0  0  0  0  0  0  0  0  0  0  0
    4.0015    0.4921    0.8964 O   0  0  0  0  0  0  0  0  0  0  0  0
   -1.7432    0.1506   -2.5650 H   0  0  0  0  0  0  0  0  0  0  0  0
   -2.4366    1.1340   -1.1857 H   0  0  0  0  0  0  0  0  0  0  0  0
   -2.9414   -0.5833   -1.3663 H   0  0  0  0  0  0  0  0  0  0  0  0
   -0.3889   -1.0649   -1.0964 H   0  0  0  0  0  0  0  0  0  0  0  0
   -0.8814   -1.0641    1.4545 H   0  0  0  0  0  0  0  0  0  0  0  0
   -2.1835   -1.7128    0.3544 H   0  0  0  0  0  0  0  0  0  0  0  0
   -2.3795   -0.0909    1.0345 H   0  0  0  0  0  0  0  0  0  0  0  0
    0.1387    1.3821   -1.3360 H   0  0  0  0  0  0  0  0  0  0  0  0
   -0.9039    1.7543    1.2610 H   0  0  0  0  0  0  0  0  0  0  0  0
    0.6730    0.4699    1.5591 H   0  0  0  0  0  0  0  0  0  0  0  0
    1.5468    1.7329    0.6672 H   0  0  0  0  0  0  0  0  0  0  0  0
    2.3336    0.0555   -1.0377 H   0  0  0  0  0  0  0  0  0  0  0  0
    1.4713   -1.1985   -0.1344 H   0  0  0  0  0  0  0  0  0  0  0  0
    3.3197   -1.2390    1.5503 H   0  0  0  0  0  0  0  0  0  0  0  0
  1  2  1  0
  2  3  1  0
  2  4  1  0
  4  5  1  0
  4  6  1  0
  6  7  1  0
  7  8  1  0
  8  9  2  0
  1 10  1  0
  1 11  1  0
  1 12  1  0
  2 13  1  0
  3 14  1  0
  3 15  1  0
  3 16  1  0
  4 17  1  0
  5 18  1  0
  6 19  1  0
  6 20  1  0
  7 21  1  0
  7 22  1  0
  8 23  1  0
M  END
