
     RDKit          3D

 18 18  0  0  0  0  0  0  0  0999 V2000
   -1.4934    0.1352   -1.2673 C   0  0  0  0  0  0  0  0  0  0  0  0
   -1.1467   -0.6605   -0.0172 C   0  0  0  0  0  0  0  0  0  0  0  0
   -1.9959   -0.1753    1.1002 C   0  0  0  0  0  0  0  0  0  0  0  0
   -2.8119    0.7257    0.9879 O   0  0  0  0  0  0  0  0  0  0  0  0
    0.3209   -0.5750    0.3013 C   0  0  0  0  0  0  0  0  0  0  0  0
    1.1044   -1.1050   -0.8025 O   0  0  0  0  0  0  0  0  0  0  0  0
    1.1697    0.3446   -0.4700 C   0  0  0  0  0  0  0  0  0  0  0  0
    2.5717    0.6379   -0.0149 C   0  0  0  0  0  0  0  0  0  0  0  0
   -2.4980   -0.1037   -1.6364 H   0  0  0  0  0  0  0  0  0  0  0  0
   -1.3713    1.2174   -1.1259 H   0  0  0  0  0  0  0  0  0  0  0  0
   -0.7903   -0.1670   -2.0971 H   0  0  0  0  0  0  0  0  0  0  0  0
   -1.3815   -1.7220   -0.2408 H   0  0  0  0  0  0  0  0  0  0  0  0
   -1.9033   -0.6310    2.0775 H   0  0  0  0  0  0  0  0  0  0  0  0
    0.6746   -0.8371    1.3123 H   0  0  0  0  0  0  0  0  0  0  0  0
    0.7392    0.9137   -1.2907 H   0  0  0  0  0  0  0  0  0  0  0  0
    2.8766   -0.1666    0.6964 H   0  0  0  0  0  0  0  0  0  0  0  0
    2.7028    1.6353    0.4022 H   0  0  0  0  0  0  0  0  0  0  0  0
    3.2325    0.5333   -0.9177 H   0  0  0  0  0  0  0  0  0  0  0  0
  1  2  1  0
  2  3  1  0
  3  4  2  0
  2  5  1  0
  5  6  1  0
  6  7  1  0
  7  8  1  0
  7  5  1  0
  1  9  1  0
  1 10  1  0
  1 11  1  0
  2 12  1  0
  3 13  1  0
  5 14  1  0
  7 15  1  0
  8 16  1  0
  8 17  1  0
  8 18  1  0
M  END
