
     RDKit          3D

 23 23  0  0  0  0  0  0  0  0999 V2000
   -2.0024   -1.1711   -0.4364 C   0  0  0  0  0  0  0  0  0  0  0  0
   -1.1305    0.0575   -0.5032 C   0  0  0  0  0  0  0  0  0  0  0  0
   -1.9597    1.1927    0.0918 C   0  0  0  0  0  0  0  0  0  0  0  0
    0.0812   -0.1405    0.3449 C   0  0  0  0  0  0  0  0  0  0  0  0
    0.9872    1.0763    0.3051 C   0  0  0  0  0  0  0  0  0  0  0  0
    1.9995    0.3050   -0.5398 C   0  0  0  0  0  0  0  0  0  0  0  0
    3.2816    0.3185   -0.0304 O   0  0  0  0  0  0  0  0  0  0  0  0
    1.1952   -0.9486   -0.2153 C   0  0  0  0  0  0  0  0  0  0  0  0
    1.8825   -1.6612    0.7924 O   0  0  0  0  0  0  0  0  0  0  0  0
   -3.0239   -0.8566   -0.7433 H   0  0  0  0  0  0  0  0  0  0  0  0
   -1.9734   -1.5296    0.6123 H   0  0  0  0  0  0  0  0  0  0  0  0
   -1.5735   -1.9182   -1.1438 H   0  0  0  0  0  0  0  0  0  0  0  0
   -0.9320    0.3120   -1.5482 H   0  0  0  0  0  0  0  0  0  0  0  0
   -2.6429    1.5921   -0.6835 H   0  0  0  0  0  0  0  0  0  0  0  0
   -2.6202    0.8026    0.9086 H   0  0  0  0  0  0  0  0  0  0  0  0
   -1.3452    2.0071    0.4760 H   0  0  0  0  0  0  0  0  0  0  0  0
   -0.2046   -0.4750    1.3583 H   0  0  0  0  0  0  0  0  0  0  0  0
    0.5555    1.9242   -0.2776 H   0  0  0  0  0  0  0  0  0  0  0  0
    1.3183    1.3109    1.3248 H   0  0  0  0  0  0  0  0  0  0  0  0
    1.9901    0.5471   -1.6107 H   0  0  0  0  0  0  0  0  0  0  0  0
    3.3195    0.0221    0.9166 H   0  0  0  0  0  0  0  0  0  0  0  0
    0.9913   -1.6064   -1.0614 H   0  0  0  0  0  0  0  0  0  0  0  0
    1.8065   -1.1611    1.6629 H   0  0  0  0  0  0  0  0  0  0  0  0
  1  2  1  0
  2  3  1  0
  2  4  1  0
  4  5  1  0
  5  6  1  0
  6  7  1  0
  6  8  1  0
  8  9  1  0
  8  4  1  0
  1 10  1  0
  1 11  1  0
  1 12  1  0
  2 13  1  0
  3 14  1  0
  3 15  1  0
  3 16  1  0
  4 17  1  0
  5 18  1  0
  5 19  1  0
  6 20  1  0
  7 21  1  0
  8 22  1  0
  9 23  1  0
M  END
