
     RDKit          3D

 24 24  0  0  0  0  0  0  0  0999 V2000
    1.6497   -0.6863    1.0484 C   0  0  0  0  0  0  0  0  0  0  0  0
    1.3513    0.2195   -0.1448 C   0  0  0  0  0  0  0  0  0  0  0  0
    1.6654   -0.5226   -1.3954 C   0  0  0  0  0  0  0  0  0  0  0  0
   -0.1016    0.6183   -0.0172 C   0  0  0  0  0  0  0  0  0  0  0  0
   -0.4046    1.3615    1.2667 C   0  0  0  0  0  0  0  0  0  0  0  0
   -0.9413    0.9175   -1.1739 C   0  0  0  0  0  0  0  0  0  0  0  0
   -1.0681   -0.4072   -0.5256 C   0  0  0  0  0  0  0  0  0  0  0  0
   -2.2961   -0.7637    0.2609 C   0  0  0  0  0  0  0  0  0  0  0  0
    2.1864   -1.6138    0.7004 H   0  0  0  0  0  0  0  0  0  0  0  0
    0.7193   -1.0478    1.5333 H   0  0  0  0  0  0  0  0  0  0  0  0
    2.2263   -0.1521    1.8325 H   0  0  0  0  0  0  0  0  0  0  0  0
    2.0296    1.0959   -0.0353 H   0  0  0  0  0  0  0  0  0  0  0  0
    1.5735   -1.6272   -1.1802 H   0  0  0  0  0  0  0  0  0  0  0  0
    1.0480   -0.2758   -2.2630 H   0  0  0  0  0  0  0  0  0  0  0  0
    2.7296   -0.3557   -1.7091 H   0  0  0  0  0  0  0  0  0  0  0  0
   -1.4892    1.6303    1.3477 H   0  0  0  0  0  0  0  0  0  0  0  0
    0.1514    2.3201    1.3072 H   0  0  0  0  0  0  0  0  0  0  0  0
   -0.1618    0.7681    2.1677 H   0  0  0  0  0  0  0  0  0  0  0  0
   -1.8126    1.6001   -1.0097 H   0  0  0  0  0  0  0  0  0  0  0  0
   -0.5941    0.9322   -2.2167 H   0  0  0  0  0  0  0  0  0  0  0  0
   -0.6630   -1.2868   -1.0947 H   0  0  0  0  0  0  0  0  0  0  0  0
   -2.0170   -1.4762    1.0638 H   0  0  0  0  0  0  0  0  0  0  0  0
   -2.8257    0.1114    0.6734 H   0  0  0  0  0  0  0  0  0  0  0  0
   -2.9555   -1.3598   -0.4365 H   0  0  0  0  0  0  0  0  0  0  0  0
  1  2  1  0
  2  3  1  0
  2  4  1  0
  4  5  1  0
  4  6  1  0
  6  7  1  0
  7  8  1  0
  7  4  1  0
  1  9  1  0
  1 10  1  0
  1 11  1  0
  2 12  1  0
  3 13  1  0
  3 14  1  0
  3 15  1  0
  5 16  1  0
  5 17  1  0
  5 18  1  0
  6 19  1  0
  6 20  1  0
  7 21  1  0
  8 22  1  0
  8 23  1  0
  8 24  1  0
M  END
