
     RDKit          3D

 22 21  0  0  0  0  0  0  0  0999 V2000
   -1.0323   -0.9751   -0.9288 C   0  0  0  0  0  0  0  0  0  0  0  0
   -0.4019   -0.0559    0.0755 C   0  0  0  0  0  0  0  0  0  0  0  0
   -1.4640    0.1444    1.1712 C   0  0  0  0  0  0  0  0  0  0  0  0
   -0.1609    1.2996   -0.5693 C   0  0  0  0  0  0  0  0  0  0  0  0
   -1.4243    1.7613   -0.9628 O   0  0  0  0  0  0  0  0  0  0  0  0
    0.7997   -0.6059    0.7549 C   0  0  0  0  0  0  0  0  0  0  0  0
    1.9430   -0.9693   -0.1281 C   0  0  0  0  0  0  0  0  0  0  0  0
    2.4209    0.1257   -0.8454 O   0  0  0  0  0  0  0  0  0  0  0  0
   -0.4746   -1.0886   -1.8567 H   0  0  0  0  0  0  0  0  0  0  0  0
   -2.0356   -0.5204   -1.1717 H   0  0  0  0  0  0  0  0  0  0  0  0
   -1.2751   -1.9358   -0.4246 H   0  0  0  0  0  0  0  0  0  0  0  0
   -2.4639   -0.1228    0.8260 H   0  0  0  0  0  0  0  0  0  0  0  0
   -1.2314   -0.4571    2.0648 H   0  0  0  0  0  0  0  0  0  0  0  0
   -1.4570    1.2080    1.5007 H   0  0  0  0  0  0  0  0  0  0  0  0
    0.4564    1.1976   -1.4917 H   0  0  0  0  0  0  0  0  0  0  0  0
    0.3507    2.0050    0.0926 H   0  0  0  0  0  0  0  0  0  0  0  0
   -1.6111    2.6085   -0.5239 H   0  0  0  0  0  0  0  0  0  0  0  0
    0.5129   -1.4356    1.4129 H   0  0  0  0  0  0  0  0  0  0  0  0
    1.1759    0.2101    1.4413 H   0  0  0  0  0  0  0  0  0  0  0  0
    2.7841   -1.2853    0.5388 H   0  0  0  0  0  0  0  0  0  0  0  0
    1.7087   -1.8227   -0.8093 H   0  0  0  0  0  0  0  0  0  0  0  0
    2.8796    0.7143   -0.1662 H   0  0  0  0  0  0  0  0  0  0  0  0
  1  2  1  0
  2  3  1  0
  2  4  1  0
  4  5  1  0
  2  6  1  0
  6  7  1  0
  7  8  1  0
  1  9  1  0
  1 10  1  0
  1 11  1  0
  3 12  1  0
  3 13  1  0
  3 14  1  0
  4 15  1  0
  4 16  1  0
  5 17  1  0
  6 18  1  0
  6 19  1  0
  7 20  1  0
  7 21  1  0
  8 22  1  0
M  END
