
     RDKit          3D

 21 21  0  0  0  0  0  0  0  0999 V2000
   -1.2015    1.5387    0.1784 C   0  0  0  0  0  0  0  0  0  0  0  0
   -0.8713    0.2919   -0.6363 C   0  0  0  0  0  0  0  0  0  0  0  0
   -1.9169   -0.7524   -0.0872 C   0  0  0  0  0  0  0  0  0  0  0  0
    0.4738   -0.2891   -0.2800 C   0  0  0  0  0  0  0  0  0  0  0  0
    0.8394   -1.4671   -1.0970 C   0  0  0  0  0  0  0  0  0  0  0  0
    1.2068   -2.5126   -0.4302 O   0  0  0  0  0  0  0  0  0  0  0  0
    0.9684   -0.2609    1.1314 C   0  0  0  0  0  0  0  0  0  0  0  0
    1.5834    0.6423    0.0482 C   0  0  0  0  0  0  0  0  0  0  0  0
    2.8779    0.2617   -0.3534 O   0  0  0  0  0  0  0  0  0  0  0  0
   -0.9342    1.4577    1.2591 H   0  0  0  0  0  0  0  0  0  0  0  0
   -2.3089    1.6178    0.1991 H   0  0  0  0  0  0  0  0  0  0  0  0
   -0.8392    2.4698   -0.2622 H   0  0  0  0  0  0  0  0  0  0  0  0
   -1.0628    0.4374   -1.6626 H   0  0  0  0  0  0  0  0  0  0  0  0
   -1.4291   -1.7274   -0.1373 H   0  0  0  0  0  0  0  0  0  0  0  0
   -2.8089   -0.7451   -0.6933 H   0  0  0  0  0  0  0  0  0  0  0  0
   -2.1578   -0.4636    0.9950 H   0  0  0  0  0  0  0  0  0  0  0  0
    0.8473   -1.5603   -2.1813 H   0  0  0  0  0  0  0  0  0  0  0  0
    1.5338   -1.1171    1.5129 H   0  0  0  0  0  0  0  0  0  0  0  0
    0.3688    0.2003    1.9078 H   0  0  0  0  0  0  0  0  0  0  0  0
    1.4148    1.7098    0.1180 H   0  0  0  0  0  0  0  0  0  0  0  0
    3.4161    0.2681    0.4710 H   0  0  0  0  0  0  0  0  0  0  0  0
  1  2  1  0
  2  3  1  0
  2  4  1  0
  4  5  1  0
  5  6  2  0
  4  7  1  0
  7  8  1  0
  8  9  1  0
  8  4  1  0
  1 10  1  0
  1 11  1  0
  1 12  1  0
  2 13  1  0
  3 14  1  0
  3 15  1  0
  3 16  1  0
  5 17  1  0
  7 18  1  0
  7 19  1  0
  8 20  1  0
  9 21  1  0
M  END
