
     RDKit          3D

 25 26  0  0  0  0  0  0  0  0999 V2000
    2.1835    0.2248    0.8813 C   0  0  0  0  0  0  0  0  0  0  0  0
    1.0407   -0.6189    0.2900 C   0  0  0  0  0  0  0  0  0  0  0  0
    1.6320   -1.2330   -0.9783 C   0  0  0  0  0  0  0  0  0  0  0  0
   -0.0584    0.1499    0.0212 C   0  0  0  0  0  0  0  0  0  0  0  0
   -0.0987    1.3281   -0.9269 C   0  0  0  0  0  0  0  0  0  0  0  0
   -1.4823    1.2772   -0.3322 C   0  0  0  0  0  0  0  0  0  0  0  0
   -0.7870    1.0560    0.9824 C   0  0  0  0  0  0  0  0  0  0  0  0
   -1.3847   -0.2143   -0.5178 C   0  0  0  0  0  0  0  0  0  0  0  0
   -2.2762   -1.0453    0.3595 C   0  0  0  0  0  0  0  0  0  0  0  0
    1.7853    0.9656    1.6037 H   0  0  0  0  0  0  0  0  0  0  0  0
    2.9112   -0.4333    1.3948 H   0  0  0  0  0  0  0  0  0  0  0  0
    2.6703    0.8189    0.0700 H   0  0  0  0  0  0  0  0  0  0  0  0
    0.8760   -1.4268    1.0063 H   0  0  0  0  0  0  0  0  0  0  0  0
    2.2347   -2.1352   -0.7199 H   0  0  0  0  0  0  0  0  0  0  0  0
    2.3452   -0.5131   -1.4438 H   0  0  0  0  0  0  0  0  0  0  0  0
    0.8158   -1.5165   -1.6464 H   0  0  0  0  0  0  0  0  0  0  0  0
   -0.0901    1.0840   -1.9956 H   0  0  0  0  0  0  0  0  0  0  0  0
    0.4727    2.2130   -0.6259 H   0  0  0  0  0  0  0  0  0  0  0  0
   -2.2571    1.8721   -0.5303 H   0  0  0  0  0  0  0  0  0  0  0  0
   -1.3589    0.5740    1.7727 H   0  0  0  0  0  0  0  0  0  0  0  0
   -0.1683    1.9298    1.2471 H   0  0  0  0  0  0  0  0  0  0  0  0
   -1.4268   -0.4778   -1.6082 H   0  0  0  0  0  0  0  0  0  0  0  0
   -1.7035   -1.6581    1.0944 H   0  0  0  0  0  0  0  0  0  0  0  0
   -3.0412   -0.4238    0.8719 H   0  0  0  0  0  0  0  0  0  0  0  0
   -2.8340   -1.7973   -0.2703 H   0  0  0  0  0  0  0  0  0  0  0  0
  1  2  1  0
  2  3  1  0
  2  4  1  0
  4  5  1  0
  5  6  1  0
  6  7  1  0
  6  8  1  0
  8  9  1  0
  7  4  1  0
  8  4  1  0
  1 10  1  0
  1 11  1  0
  1 12  1  0
  2 13  1  0
  3 14  1  0
  3 15  1  0
  3 16  1  0
  5 17  1  0
  5 18  1  0
  6 19  1  0
  7 20  1  0
  7 21  1  0
  8 22  1  0
  9 23  1  0
  9 24  1  0
  9 25  1  0
M  END
