
     RDKit          3D

 23 23  0  0  0  0  0  0  0  0999 V2000
   -1.9810   -1.5495   -0.0930 C   0  0  0  0  0  0  0  0  0  0  0  0
   -1.3136   -0.2253    0.2151 C   0  0  0  0  0  0  0  0  0  0  0  0
   -2.2653    0.9343   -0.0530 C   0  0  0  0  0  0  0  0  0  0  0  0
   -0.0408   -0.0720   -0.5849 C   0  0  0  0  0  0  0  0  0  0  0  0
    0.7137    1.2031   -0.3661 C   0  0  0  0  0  0  0  0  0  0  0  0
    0.2853    2.1367    0.5489 O   0  0  0  0  0  0  0  0  0  0  0  0
    1.2282   -0.0990    0.1932 C   0  0  0  0  0  0  0  0  0  0  0  0
    2.4918   -0.6058   -0.4621 C   0  0  0  0  0  0  0  0  0  0  0  0
    3.5117   -0.5188    0.4847 O   0  0  0  0  0  0  0  0  0  0  0  0
   -1.4966   -2.3205    0.5538 H   0  0  0  0  0  0  0  0  0  0  0  0
   -1.7913   -1.8158   -1.1382 H   0  0  0  0  0  0  0  0  0  0  0  0
   -3.0693   -1.4478    0.1378 H   0  0  0  0  0  0  0  0  0  0  0  0
   -1.0763   -0.2325    1.2976 H   0  0  0  0  0  0  0  0  0  0  0  0
   -3.2758    0.5637    0.2108 H   0  0  0  0  0  0  0  0  0  0  0  0
   -2.2098    1.2722   -1.1016 H   0  0  0  0  0  0  0  0  0  0  0  0
   -2.0112    1.7244    0.6833 H   0  0  0  0  0  0  0  0  0  0  0  0
   -0.0412   -0.5541   -1.5813 H   0  0  0  0  0  0  0  0  0  0  0  0
    1.1931    1.6134   -1.2898 H   0  0  0  0  0  0  0  0  0  0  0  0
    0.5450    1.8529    1.4793 H   0  0  0  0  0  0  0  0  0  0  0  0
    1.1961   -0.2382    1.3071 H   0  0  0  0  0  0  0  0  0  0  0  0
    2.7549    0.0148   -1.3588 H   0  0  0  0  0  0  0  0  0  0  0  0
    2.3729   -1.6371   -0.8526 H   0  0  0  0  0  0  0  0  0  0  0  0
    4.2796    0.0009    0.1950 H   0  0  0  0  0  0  0  0  0  0  0  0
  1  2  1  0
  2  3  1  0
  2  4  1  0
  4  5  1  0
  5  6  1  0
  5  7  1  0
  7  8  1  0
  8  9  1  0
  7  4  1  0
  1 10  1  0
  1 11  1  0
  1 12  1  0
  2 13  1  0
  3 14  1  0
  3 15  1  0
  3 16  1  0
  4 17  1  0
  5 18  1  0
  6 19  1  0
  7 20  1  0
  8 21  1  0
  8 22  1  0
  9 23  1  0
M  END
