
     RDKit          3D

 21 22  0  0  0  0  0  0  0  0999 V2000
    1.9123   -0.8562    0.9741 C   0  0  0  0  0  0  0  0  0  0  0  0
    0.9905    0.2991    0.6680 C   0  0  0  0  0  0  0  0  0  0  0  0
    1.3625    0.8350   -0.6958 C   0  0  0  0  0  0  0  0  0  0  0  0
   -0.4182   -0.1299    0.7831 C   0  0  0  0  0  0  0  0  0  0  0  0
   -0.9080   -1.2590   -0.1214 C   0  0  0  0  0  0  0  0  0  0  0  0
   -1.4512    0.1028   -0.2286 C   0  0  0  0  0  0  0  0  0  0  0  0
   -1.2574    0.8973   -1.3402 O   0  0  0  0  0  0  0  0  0  0  0  0
   -2.2544    0.6052    0.9397 C   0  0  0  0  0  0  0  0  0  0  0  0
   -1.2287    0.2600    1.8296 O   0  0  0  0  0  0  0  0  0  0  0  0
    2.3944   -1.2290    0.0327 H   0  0  0  0  0  0  0  0  0  0  0  0
    2.7166   -0.5161    1.6850 H   0  0  0  0  0  0  0  0  0  0  0  0
    1.3869   -1.6700    1.4867 H   0  0  0  0  0  0  0  0  0  0  0  0
    1.1756    1.1110    1.4064 H   0  0  0  0  0  0  0  0  0  0  0  0
    2.4637    1.0824   -0.6368 H   0  0  0  0  0  0  0  0  0  0  0  0
    0.8599    1.7962   -0.9247 H   0  0  0  0  0  0  0  0  0  0  0  0
    1.1835    0.1194   -1.5026 H   0  0  0  0  0  0  0  0  0  0  0  0
   -0.2191   -1.5934   -0.8947 H   0  0  0  0  0  0  0  0  0  0  0  0
   -1.4716   -2.0209    0.4556 H   0  0  0  0  0  0  0  0  0  0  0  0
   -1.6608    0.4542   -2.1327 H   0  0  0  0  0  0  0  0  0  0  0  0
   -3.1823    0.0077    1.0447 H   0  0  0  0  0  0  0  0  0  0  0  0
   -2.3942    1.7043    0.9731 H   0  0  0  0  0  0  0  0  0  0  0  0
  1  2  1  0
  2  3  1  0
  2  4  1  0
  4  5  1  0
  5  6  1  0
  6  7  1  0
  6  8  1  0
  8  9  1  0
  6  4  1  0
  9  4  1  0
  1 10  1  0
  1 11  1  0
  1 12  1  0
  2 13  1  0
  3 14  1  0
  3 15  1  0
  3 16  1  0
  5 17  1  0
  5 18  1  0
  7 19  1  0
  8 20  1  0
  8 21  1  0
M  END
