
     RDKit          3D

 21 21  0  0  0  0  0  0  0  0999 V2000
    2.6302   -0.5748    0.6127 C   0  0  0  0  0  0  0  0  0  0  0  0
    1.5536    0.2629    1.2241 C   0  0  0  0  0  0  0  0  0  0  0  0
    1.9370    1.7336    1.0786 C   0  0  0  0  0  0  0  0  0  0  0  0
    0.2781   -0.0133    0.5453 C   0  0  0  0  0  0  0  0  0  0  0  0
   -0.7775   -0.2500   -0.0397 C   0  0  0  0  0  0  0  0  0  0  0  0
   -2.0342   -0.5117   -0.7394 C   0  0  0  0  0  0  0  0  0  0  0  0
   -2.0465   -1.7387   -1.6437 C   0  0  0  0  0  0  0  0  0  0  0  0
   -2.7835    0.7246   -1.2674 C   0  0  0  0  0  0  0  0  0  0  0  0
   -3.2446   -0.0928   -0.2631 O   0  0  0  0  0  0  0  0  0  0  0  0
    2.9346   -1.3811    1.3174 H   0  0  0  0  0  0  0  0  0  0  0  0
    3.5434    0.0644    0.4160 H   0  0  0  0  0  0  0  0  0  0  0  0
    2.2648   -0.9663   -0.3678 H   0  0  0  0  0  0  0  0  0  0  0  0
    1.4339    0.0976    2.3234 H   0  0  0  0  0  0  0  0  0  0  0  0
    2.9977    1.9026    1.2515 H   0  0  0  0  0  0  0  0  0  0  0  0
    1.3128    2.3303    1.8033 H   0  0  0  0  0  0  0  0  0  0  0  0
    1.6016    2.1344    0.0741 H   0  0  0  0  0  0  0  0  0  0  0  0
   -2.3541   -1.3787   -2.6568 H   0  0  0  0  0  0  0  0  0  0  0  0
   -2.7835   -2.4581   -1.2896 H   0  0  0  0  0  0  0  0  0  0  0  0
   -1.0061   -2.1686   -1.7082 H   0  0  0  0  0  0  0  0  0  0  0  0
   -2.2880    1.6875   -0.9947 H   0  0  0  0  0  0  0  0  0  0  0  0
   -3.1698    0.5964   -2.2979 H   0  0  0  0  0  0  0  0  0  0  0  0
  1  2  1  0
  2  3  1  0
  2  4  1  0
  4  5  3  0
  5  6  1  0
  6  7  1  0
  6  8  1  0
  8  9  1  0
  9  6  1  0
  1 10  1  0
  1 11  1  0
  1 12  1  0
  2 13  1  0
  3 14  1  0
  3 15  1  0
  3 16  1  0
  7 17  1  0
  7 18  1  0
  7 19  1  0
  8 20  1  0
  8 21  1  0
M  END
