
     RDKit          3D

 19 18  0  0  0  0  0  0  0  0999 V2000
   -2.4827   -0.2736   -0.4509 C   0  0  0  0  0  0  0  0  0  0  0  0
   -1.1987    0.1680    0.2070 C   0  0  0  0  0  0  0  0  0  0  0  0
   -1.3588    1.6025    0.5453 C   0  0  0  0  0  0  0  0  0  0  0  0
   -2.2899    1.9458    1.2351 O   0  0  0  0  0  0  0  0  0  0  0  0
   -0.0923    0.0256   -0.5702 O   0  0  0  0  0  0  0  0  0  0  0  0
    0.8900   -0.7966   -0.0674 C   0  0  0  0  0  0  0  0  0  0  0  0
    2.0651   -0.8788   -1.0113 C   0  0  0  0  0  0  0  0  0  0  0  0
    2.6548    0.4762   -1.2244 C   0  0  0  0  0  0  0  0  0  0  0  0
    2.2119    1.4748   -0.6882 O   0  0  0  0  0  0  0  0  0  0  0  0
   -2.8163    0.4584   -1.2120 H   0  0  0  0  0  0  0  0  0  0  0  0
   -3.2680   -0.2790    0.3370 H   0  0  0  0  0  0  0  0  0  0  0  0
   -2.3827   -1.2573   -0.9407 H   0  0  0  0  0  0  0  0  0  0  0  0
   -1.0658   -0.4492    1.1424 H   0  0  0  0  0  0  0  0  0  0  0  0
   -0.6275    2.2920    0.1567 H   0  0  0  0  0  0  0  0  0  0  0  0
    0.4598   -1.8143    0.0432 H   0  0  0  0  0  0  0  0  0  0  0  0
    1.2675   -0.4315    0.8958 H   0  0  0  0  0  0  0  0  0  0  0  0
    2.8130   -1.6243   -0.6952 H   0  0  0  0  0  0  0  0  0  0  0  0
    1.7091   -1.2193   -2.0269 H   0  0  0  0  0  0  0  0  0  0  0  0
    3.5116    0.5804   -1.8818 H   0  0  0  0  0  0  0  0  0  0  0  0
  1  2  1  0
  2  3  1  0
  3  4  2  0
  2  5  1  0
  5  6  1  0
  6  7  1  0
  7  8  1  0
  8  9  2  0
  1 10  1  0
  1 11  1  0
  1 12  1  0
  2 13  1  0
  3 14  1  0
  6 15  1  0
  6 16  1  0
  7 17  1  0
  7 18  1  0
  8 19  1  0
M  END
