
     RDKit          3D

 21 21  0  0  0  0  0  0  0  0999 V2000
    1.8478    1.3363   -0.2847 C   0  0  0  0  0  0  0  0  0  0  0  0
    1.0635    0.0215   -0.3323 C   0  0  0  0  0  0  0  0  0  0  0  0
    1.9975   -1.0647    0.0762 C   0  0  0  0  0  0  0  0  0  0  0  0
   -0.1007    0.1862    0.6113 C   0  0  0  0  0  0  0  0  0  0  0  0
   -0.9064    1.3334    0.1192 O   0  0  0  0  0  0  0  0  0  0  0  0
   -1.4559   -0.0654    0.2673 C   0  0  0  0  0  0  0  0  0  0  0  0
   -1.9075   -0.5665   -1.0766 C   0  0  0  0  0  0  0  0  0  0  0  0
   -2.4753   -0.0178    1.3392 C   0  0  0  0  0  0  0  0  0  0  0  0
   -2.2383    0.3655    2.4638 O   0  0  0  0  0  0  0  0  0  0  0  0
    2.5847    1.2934   -1.1018 H   0  0  0  0  0  0  0  0  0  0  0  0
    2.3510    1.4327    0.7010 H   0  0  0  0  0  0  0  0  0  0  0  0
    1.1232    2.1497   -0.3716 H   0  0  0  0  0  0  0  0  0  0  0  0
    0.7410   -0.1618   -1.3719 H   0  0  0  0  0  0  0  0  0  0  0  0
    1.5801   -2.0813   -0.0262 H   0  0  0  0  0  0  0  0  0  0  0  0
    2.3511   -0.9656    1.1220 H   0  0  0  0  0  0  0  0  0  0  0  0
    2.9047   -0.9959   -0.5693 H   0  0  0  0  0  0  0  0  0  0  0  0
    0.1798    0.3131    1.6703 H   0  0  0  0  0  0  0  0  0  0  0  0
   -1.1548   -1.1943   -1.5868 H   0  0  0  0  0  0  0  0  0  0  0  0
   -2.1910    0.2431   -1.7774 H   0  0  0  0  0  0  0  0  0  0  0  0
   -2.8197   -1.2222   -0.9792 H   0  0  0  0  0  0  0  0  0  0  0  0
   -3.4748   -0.3393    1.1075 H   0  0  0  0  0  0  0  0  0  0  0  0
  1  2  1  0
  2  3  1  0
  2  4  1  0
  4  5  1  0
  5  6  1  0
  6  7  1  0
  6  8  1  0
  8  9  2  0
  6  4  1  0
  1 10  1  0
  1 11  1  0
  1 12  1  0
  2 13  1  0
  3 14  1  0
  3 15  1  0
  3 16  1  0
  4 17  1  0
  7 18  1  0
  7 19  1  0
  7 20  1  0
  8 21  1  0
M  END
