
     RDKit          3D

 25 25  0  0  0  0  0  0  0  0999 V2000
    2.0689   -1.2332    0.3869 C   0  0  0  0  0  0  0  0  0  0  0  0
    1.0399   -0.1091    0.2938 C   0  0  0  0  0  0  0  0  0  0  0  0
    1.4764    0.7765   -0.8529 C   0  0  0  0  0  0  0  0  0  0  0  0
    1.0981    0.6620    1.5642 C   0  0  0  0  0  0  0  0  0  0  0  0
   -0.2851   -0.7483    0.0135 C   0  0  0  0  0  0  0  0  0  0  0  0
   -1.4246    0.2066   -0.1116 C   0  0  0  0  0  0  0  0  0  0  0  0
   -1.6819    0.9884    1.0054 O   0  0  0  0  0  0  0  0  0  0  0  0
   -1.9381    0.6648   -1.4180 C   0  0  0  0  0  0  0  0  0  0  0  0
   -2.6849   -0.4145   -0.7320 C   0  0  0  0  0  0  0  0  0  0  0  0
    2.0206   -1.7845   -0.5592 H   0  0  0  0  0  0  0  0  0  0  0  0
    1.8421   -1.8821    1.2549 H   0  0  0  0  0  0  0  0  0  0  0  0
    3.0531   -0.7442    0.4378 H   0  0  0  0  0  0  0  0  0  0  0  0
    1.4538    1.8518   -0.5762 H   0  0  0  0  0  0  0  0  0  0  0  0
    2.5407    0.5747   -1.1510 H   0  0  0  0  0  0  0  0  0  0  0  0
    0.8648    0.5388   -1.7378 H   0  0  0  0  0  0  0  0  0  0  0  0
    0.8281    0.0129    2.4373 H   0  0  0  0  0  0  0  0  0  0  0  0
    2.1532    0.9594    1.7387 H   0  0  0  0  0  0  0  0  0  0  0  0
    0.5078    1.5959    1.5578 H   0  0  0  0  0  0  0  0  0  0  0  0
   -0.5466   -1.4893    0.7967 H   0  0  0  0  0  0  0  0  0  0  0  0
   -0.1787   -1.3306   -0.9297 H   0  0  0  0  0  0  0  0  0  0  0  0
   -2.0832    0.4519    1.7553 H   0  0  0  0  0  0  0  0  0  0  0  0
   -2.3986    1.6781   -1.4236 H   0  0  0  0  0  0  0  0  0  0  0  0
   -1.4513    0.4146   -2.3713 H   0  0  0  0  0  0  0  0  0  0  0  0
   -3.6574   -0.1992   -0.2481 H   0  0  0  0  0  0  0  0  0  0  0  0
   -2.6171   -1.4414   -1.1311 H   0  0  0  0  0  0  0  0  0  0  0  0
  1  2  1  0
  2  3  1  0
  2  4  1  0
  2  5  1  0
  5  6  1  0
  6  7  1  0
  6  8  1  0
  8  9  1  0
  9  6  1  0
  1 10  1  0
  1 11  1  0
  1 12  1  0
  3 13  1  0
  3 14  1  0
  3 15  1  0
  4 16  1  0
  4 17  1  0
  4 18  1  0
  5 19  1  0
  5 20  1  0
  7 21  1  0
  8 22  1  0
  8 23  1  0
  9 24  1  0
  9 25  1  0
M  END
