
     RDKit          3D

 21 21  0  0  0  0  0  0  0  0999 V2000
    1.7470   -0.5349    0.6861 C   0  0  0  0  0  0  0  0  0  0  0  0
    0.8560   -0.2737   -0.5193 C   0  0  0  0  0  0  0  0  0  0  0  0
    1.3940    0.8937   -1.2475 C   0  0  0  0  0  0  0  0  0  0  0  0
    2.5835    0.9025   -1.5198 O   0  0  0  0  0  0  0  0  0  0  0  0
   -0.5266   -0.0264    0.0336 C   0  0  0  0  0  0  0  0  0  0  0  0
   -0.6210    1.1330    0.9637 C   0  0  0  0  0  0  0  0  0  0  0  0
   -1.6366   -0.0178   -0.9854 C   0  0  0  0  0  0  0  0  0  0  0  0
   -1.6416   -1.4114   -0.9285 O   0  0  0  0  0  0  0  0  0  0  0  0
   -1.2211   -1.2840    0.4163 C   0  0  0  0  0  0  0  0  0  0  0  0
    2.2780    0.4236    0.9431 H   0  0  0  0  0  0  0  0  0  0  0  0
    2.5296   -1.2882    0.4650 H   0  0  0  0  0  0  0  0  0  0  0  0
    1.1682   -0.9204    1.5532 H   0  0  0  0  0  0  0  0  0  0  0  0
    0.8564   -1.1873   -1.1473 H   0  0  0  0  0  0  0  0  0  0  0  0
    0.8095    1.7476   -1.5601 H   0  0  0  0  0  0  0  0  0  0  0  0
   -0.8051    2.0473    0.3512 H   0  0  0  0  0  0  0  0  0  0  0  0
    0.2797    1.3127    1.5743 H   0  0  0  0  0  0  0  0  0  0  0  0
   -1.4692    1.0367    1.6856 H   0  0  0  0  0  0  0  0  0  0  0  0
   -1.3883    0.4222   -1.9613 H   0  0  0  0  0  0  0  0  0  0  0  0
   -2.5595    0.3991   -0.5203 H   0  0  0  0  0  0  0  0  0  0  0  0
   -0.5526   -2.1631    0.6258 H   0  0  0  0  0  0  0  0  0  0  0  0
   -2.0803   -1.2112    1.0919 H   0  0  0  0  0  0  0  0  0  0  0  0
  1  2  1  0
  2  3  1  0
  3  4  2  0
  2  5  1  0
  5  6  1  0
  5  7  1  0
  7  8  1  0
  8  9  1  0
  9  5  1  0
  1 10  1  0
  1 11  1  0
  1 12  1  0
  2 13  1  0
  3 14  1  0
  6 15  1  0
  6 16  1  0
  6 17  1  0
  7 18  1  0
  7 19  1  0
  9 20  1  0
  9 21  1  0
M  END
