
     RDKit          3D

 25 25  0  0  0  0  0  0  0  0999 V2000
   -2.3509   -0.9597   -1.3463 C   0  0  0  0  0  0  0  0  0  0  0  0
   -1.8508   -0.3314   -0.0842 C   0  0  0  0  0  0  0  0  0  0  0  0
   -2.9508    0.5516    0.4651 C   0  0  0  0  0  0  0  0  0  0  0  0
   -0.7139    0.4209   -0.2282 O   0  0  0  0  0  0  0  0  0  0  0  0
    0.3582   -0.0208    0.5328 C   0  0  0  0  0  0  0  0  0  0  0  0
    1.2187    0.9917    1.2432 C   0  0  0  0  0  0  0  0  0  0  0  0
    1.7541    0.1207    0.1037 C   0  0  0  0  0  0  0  0  0  0  0  0
    2.1657    0.9187   -1.0976 C   0  0  0  0  0  0  0  0  0  0  0  0
    2.7288   -0.9786    0.4777 C   0  0  0  0  0  0  0  0  0  0  0  0
   -1.8670   -1.9218   -1.5890 H   0  0  0  0  0  0  0  0  0  0  0  0
   -3.4420   -1.1764   -1.2063 H   0  0  0  0  0  0  0  0  0  0  0  0
   -2.2868   -0.2985   -2.2347 H   0  0  0  0  0  0  0  0  0  0  0  0
   -1.6438   -1.1568    0.6394 H   0  0  0  0  0  0  0  0  0  0  0  0
   -2.5317    1.2477    1.2171 H   0  0  0  0  0  0  0  0  0  0  0  0
   -3.7321   -0.0891    0.9593 H   0  0  0  0  0  0  0  0  0  0  0  0
   -3.4697    1.1146   -0.3419 H   0  0  0  0  0  0  0  0  0  0  0  0
    0.1226   -0.9186    1.1407 H   0  0  0  0  0  0  0  0  0  0  0  0
    0.9472    2.0361    1.0262 H   0  0  0  0  0  0  0  0  0  0  0  0
    1.6045    0.7631    2.2576 H   0  0  0  0  0  0  0  0  0  0  0  0
    1.5124    1.7841   -1.2684 H   0  0  0  0  0  0  0  0  0  0  0  0
    3.1860    1.3393   -0.8708 H   0  0  0  0  0  0  0  0  0  0  0  0
    2.3010    0.2930   -2.0079 H   0  0  0  0  0  0  0  0  0  0  0  0
    2.8376   -1.0692    1.5786 H   0  0  0  0  0  0  0  0  0  0  0  0
    2.3783   -1.9118   -0.0023 H   0  0  0  0  0  0  0  0  0  0  0  0
    3.7242   -0.7490    0.0775 H   0  0  0  0  0  0  0  0  0  0  0  0
  1  2  1  0
  2  3  1  0
  2  4  1  0
  4  5  1  0
  5  6  1  0
  6  7  1  0
  7  8  1  0
  7  9  1  0
  7  5  1  0
  1 10  1  0
  1 11  1  0
  1 12  1  0
  2 13  1  0
  3 14  1  0
  3 15  1  0
  3 16  1  0
  5 17  1  0
  6 18  1  0
  6 19  1  0
  8 20  1  0
  8 21  1  0
  8 22  1  0
  9 23  1  0
  9 24  1  0
  9 25  1  0
M  END
