
     RDKit          3D

 21 21  0  0  0  0  0  0  0  0999 V2000
    1.9064   -0.9156   -0.2790 C   0  0  0  0  0  0  0  0  0  0  0  0
    0.9579   -0.0656    0.5703 C   0  0  0  0  0  0  0  0  0  0  0  0
    1.6161    1.2949    0.6942 C   0  0  0  0  0  0  0  0  0  0  0  0
   -0.2949    0.1224   -0.2420 C   0  0  0  0  0  0  0  0  0  0  0  0
   -1.3122    0.9312    0.4563 C   0  0  0  0  0  0  0  0  0  0  0  0
   -2.5071    0.4760    0.1182 C   0  0  0  0  0  0  0  0  0  0  0  0
   -2.3743   -0.6409   -0.8045 C   0  0  0  0  0  0  0  0  0  0  0  0
   -3.1859   -1.0861   -1.6299 O   0  0  0  0  0  0  0  0  0  0  0  0
   -1.0106   -1.1513   -0.5365 C   0  0  0  0  0  0  0  0  0  0  0  0
    1.5100   -1.9210   -0.4574 H   0  0  0  0  0  0  0  0  0  0  0  0
    2.0340   -0.3398   -1.2316 H   0  0  0  0  0  0  0  0  0  0  0  0
    2.9143   -0.9706    0.1728 H   0  0  0  0  0  0  0  0  0  0  0  0
    0.7990   -0.4937    1.5586 H   0  0  0  0  0  0  0  0  0  0  0  0
    2.4191    1.2950    1.4588 H   0  0  0  0  0  0  0  0  0  0  0  0
    1.9779    1.5629   -0.3135 H   0  0  0  0  0  0  0  0  0  0  0  0
    0.8432    2.0162    0.9703 H   0  0  0  0  0  0  0  0  0  0  0  0
   -0.0058    0.6871   -1.1559 H   0  0  0  0  0  0  0  0  0  0  0  0
   -1.1747    1.7755    1.1479 H   0  0  0  0  0  0  0  0  0  0  0  0
   -3.4534    0.8867    0.4836 H   0  0  0  0  0  0  0  0  0  0  0  0
   -0.5931   -1.7247   -1.3813 H   0  0  0  0  0  0  0  0  0  0  0  0
   -1.0661   -1.7388    0.4006 H   0  0  0  0  0  0  0  0  0  0  0  0
  1  2  1  0
  2  3  1  0
  2  4  1  0
  4  5  1  0
  5  6  2  0
  6  7  1  0
  7  8  2  0
  7  9  1  0
  9  4  1  0
  1 10  1  0
  1 11  1  0
  1 12  1  0
  2 13  1  0
  3 14  1  0
  3 15  1  0
  3 16  1  0
  4 17  1  0
  5 18  1  0
  6 19  1  0
  9 20  1  0
  9 21  1  0
M  END
