
     RDKit          3D

 21 20  0  0  0  0  0  0  0  0999 V2000
   -1.1997    1.2298   -0.6422 C   0  0  0  0  0  0  0  0  0  0  0  0
   -0.8336   -0.1738   -0.2677 C   0  0  0  0  0  0  0  0  0  0  0  0
   -1.9473   -0.6860    0.6578 C   0  0  0  0  0  0  0  0  0  0  0  0
   -3.1839   -0.6582   -0.0162 O   0  0  0  0  0  0  0  0  0  0  0  0
    0.4450   -0.2704    0.5163 C   0  0  0  0  0  0  0  0  0  0  0  0
    1.6343    0.2682   -0.2302 C   0  0  0  0  0  0  0  0  0  0  0  0
    1.8726   -0.3999   -1.4229 O   0  0  0  0  0  0  0  0  0  0  0  0
    2.8334    0.1225    0.6347 C   0  0  0  0  0  0  0  0  0  0  0  0
    3.8175   -0.4961    0.2792 O   0  0  0  0  0  0  0  0  0  0  0  0
   -0.9567    1.4696   -1.6926 H   0  0  0  0  0  0  0  0  0  0  0  0
   -0.7327    1.9640    0.0754 H   0  0  0  0  0  0  0  0  0  0  0  0
   -2.3015    1.4008   -0.5294 H   0  0  0  0  0  0  0  0  0  0  0  0
   -0.7511   -0.8537   -1.1340 H   0  0  0  0  0  0  0  0  0  0  0  0
   -2.0657   -0.0102    1.5281 H   0  0  0  0  0  0  0  0  0  0  0  0
   -1.7085   -1.6914    1.0426 H   0  0  0  0  0  0  0  0  0  0  0  0
   -3.1474   -1.4158   -0.6665 H   0  0  0  0  0  0  0  0  0  0  0  0
    0.4039    0.2401    1.4965 H   0  0  0  0  0  0  0  0  0  0  0  0
    0.6394   -1.3552    0.6853 H   0  0  0  0  0  0  0  0  0  0  0  0
    1.4881    1.3667   -0.3802 H   0  0  0  0  0  0  0  0  0  0  0  0
    2.8395   -0.6239   -1.5504 H   0  0  0  0  0  0  0  0  0  0  0  0
    2.8545    0.5728    1.6164 H   0  0  0  0  0  0  0  0  0  0  0  0
  1  2  1  0
  2  3  1  0
  3  4  1  0
  2  5  1  0
  5  6  1  0
  6  7  1  0
  6  8  1  0
  8  9  2  0
  1 10  1  0
  1 11  1  0
  1 12  1  0
  2 13  1  0
  3 14  1  0
  3 15  1  0
  4 16  1  0
  5 17  1  0
  5 18  1  0
  6 19  1  0
  7 20  1  0
  8 21  1  0
M  END
