
     RDKit          3D

 23 23  0  0  0  0  0  0  0  0999 V2000
   -2.5081   -0.8318    0.7806 C   0  0  0  0  0  0  0  0  0  0  0  0
   -2.0673    0.0530   -0.3393 C   0  0  0  0  0  0  0  0  0  0  0  0
   -2.1626    1.4847    0.1172 C   0  0  0  0  0  0  0  0  0  0  0  0
   -0.6910   -0.2955   -0.8536 C   0  0  0  0  0  0  0  0  0  0  0  0
    0.2787   -0.1852    0.1429 O   0  0  0  0  0  0  0  0  0  0  0  0
    1.4990   -0.5347   -0.4678 C   0  0  0  0  0  0  0  0  0  0  0  0
    2.6459   -0.4585    0.5036 C   0  0  0  0  0  0  0  0  0  0  0  0
    3.8591    0.3401    0.1254 C   0  0  0  0  0  0  0  0  0  0  0  0
    2.8828    0.8143    1.0895 O   0  0  0  0  0  0  0  0  0  0  0  0
   -3.6239   -0.9796    0.8065 H   0  0  0  0  0  0  0  0  0  0  0  0
   -2.2021   -0.3639    1.7597 H   0  0  0  0  0  0  0  0  0  0  0  0
   -1.9869   -1.8288    0.7659 H   0  0  0  0  0  0  0  0  0  0  0  0
   -2.7758   -0.0863   -1.1810 H   0  0  0  0  0  0  0  0  0  0  0  0
   -3.2424    1.7537    0.1071 H   0  0  0  0  0  0  0  0  0  0  0  0
   -1.5635    2.1747   -0.5264 H   0  0  0  0  0  0  0  0  0  0  0  0
   -1.7912    1.4998    1.1817 H   0  0  0  0  0  0  0  0  0  0  0  0
   -0.4164    0.4388   -1.6378 H   0  0  0  0  0  0  0  0  0  0  0  0
   -0.7560   -1.3378   -1.2518 H   0  0  0  0  0  0  0  0  0  0  0  0
    1.6520    0.1867   -1.2818 H   0  0  0  0  0  0  0  0  0  0  0  0
    1.4728   -1.5754   -0.8595 H   0  0  0  0  0  0  0  0  0  0  0  0
    2.8244   -1.3425    1.1562 H   0  0  0  0  0  0  0  0  0  0  0  0
    4.8161    0.1072    0.6430 H   0  0  0  0  0  0  0  0  0  0  0  0
    3.8564    0.9669   -0.7802 H   0  0  0  0  0  0  0  0  0  0  0  0
  1  2  1  0
  2  3  1  0
  2  4  1  0
  4  5  1  0
  5  6  1  0
  6  7  1  0
  7  8  1  0
  8  9  1  0
  9  7  1  0
  1 10  1  0
  1 11  1  0
  1 12  1  0
  2 13  1  0
  3 14  1  0
  3 15  1  0
  3 16  1  0
  4 17  1  0
  4 18  1  0
  6 19  1  0
  6 20  1  0
  7 21  1  0
  8 22  1  0
  8 23  1  0
M  END
