
     RDKit          3D

 25 25  0  0  0  0  0  0  0  0999 V2000
   -2.3417    0.4842   -0.5679 C   0  0  0  0  0  0  0  0  0  0  0  0
   -1.3550   -0.5685   -0.1852 C   0  0  0  0  0  0  0  0  0  0  0  0
   -1.5714   -0.9344    1.2537 C   0  0  0  0  0  0  0  0  0  0  0  0
    0.0529   -0.1317   -0.4864 C   0  0  0  0  0  0  0  0  0  0  0  0
    1.0564   -1.1958   -0.1001 C   0  0  0  0  0  0  0  0  0  0  0  0
    2.4090   -0.6120   -0.5257 C   0  0  0  0  0  0  0  0  0  0  0  0
    2.7149    0.4920    0.1887 O   0  0  0  0  0  0  0  0  0  0  0  0
    1.8185    1.4959    0.2636 C   0  0  0  0  0  0  0  0  0  0  0  0
    0.3945    1.2071    0.0659 C   0  0  0  0  0  0  0  0  0  0  0  0
   -2.1925    0.7974   -1.6164 H   0  0  0  0  0  0  0  0  0  0  0  0
   -2.3210    1.3007    0.1610 H   0  0  0  0  0  0  0  0  0  0  0  0
   -3.3663    0.0215   -0.4888 H   0  0  0  0  0  0  0  0  0  0  0  0
   -1.5427   -1.4907   -0.7869 H   0  0  0  0  0  0  0  0  0  0  0  0
   -0.8756   -1.6673    1.6538 H   0  0  0  0  0  0  0  0  0  0  0  0
   -2.5930   -1.4126    1.3018 H   0  0  0  0  0  0  0  0  0  0  0  0
   -1.6614   -0.0341    1.9070 H   0  0  0  0  0  0  0  0  0  0  0  0
    0.1135   -0.0546   -1.6123 H   0  0  0  0  0  0  0  0  0  0  0  0
    0.8645   -2.1185   -0.6676 H   0  0  0  0  0  0  0  0  0  0  0  0
    1.0308   -1.3746    0.9901 H   0  0  0  0  0  0  0  0  0  0  0  0
    3.1919   -1.3799   -0.3648 H   0  0  0  0  0  0  0  0  0  0  0  0
    2.3487   -0.4186   -1.6105 H   0  0  0  0  0  0  0  0  0  0  0  0
    2.1496    2.3148   -0.4424 H   0  0  0  0  0  0  0  0  0  0  0  0
    1.9445    1.9789    1.2802 H   0  0  0  0  0  0  0  0  0  0  0  0
   -0.0698    1.9686   -0.6297 H   0  0  0  0  0  0  0  0  0  0  0  0
   -0.1992    1.3323    1.0188 H   0  0  0  0  0  0  0  0  0  0  0  0
  1  2  1  0
  2  3  1  0
  2  4  1  0
  4  5  1  0
  5  6  1  0
  6  7  1  0
  7  8  1  0
  8  9  1  0
  9  4  1  0
  1 10  1  0
  1 11  1  0
  1 12  1  0
  2 13  1  0
  3 14  1  0
  3 15  1  0
  3 16  1  0
  4 17  1  0
  5 18  1  0
  5 19  1  0
  6 20  1  0
  6 21  1  0
  8 22  1  0
  8 23  1  0
  9 24  1  0
  9 25  1  0
M  END
