
     RDKit          3D

 20 19  0  0  0  0  0  0  0  0999 V2000
    1.5351    0.5243   -0.8316 C   0  0  0  0  0  0  0  0  0  0  0  0
    0.9677    0.1269    0.5152 C   0  0  0  0  0  0  0  0  0  0  0  0
    1.8633   -0.9852    1.0514 C   0  0  0  0  0  0  0  0  0  0  0  0
   -0.3906   -0.4950    0.2874 C   0  0  0  0  0  0  0  0  0  0  0  0
   -1.3551    0.4586   -0.3845 C   0  0  0  0  0  0  0  0  0  0  0  0
   -1.5538    1.5936    0.3773 O   0  0  0  0  0  0  0  0  0  0  0  0
   -2.6465   -0.2546   -0.5230 C   0  0  0  0  0  0  0  0  0  0  0  0
   -3.6587    0.1718   -0.0115 O   0  0  0  0  0  0  0  0  0  0  0  0
    2.5918    0.8534   -0.7308 H   0  0  0  0  0  0  0  0  0  0  0  0
    1.4331   -0.3167   -1.5455 H   0  0  0  0  0  0  0  0  0  0  0  0
    0.9853    1.3944   -1.2468 H   0  0  0  0  0  0  0  0  0  0  0  0
    0.9337    0.9946    1.1792 H   0  0  0  0  0  0  0  0  0  0  0  0
    1.5433   -1.9276    0.5551 H   0  0  0  0  0  0  0  0  0  0  0  0
    1.6330   -1.0860    2.1492 H   0  0  0  0  0  0  0  0  0  0  0  0
    2.9370   -0.7753    0.8722 H   0  0  0  0  0  0  0  0  0  0  0  0
   -0.8613   -0.8106    1.2408 H   0  0  0  0  0  0  0  0  0  0  0  0
   -0.2900   -1.3800   -0.3475 H   0  0  0  0  0  0  0  0  0  0  0  0
   -0.9637    0.8018   -1.3741 H   0  0  0  0  0  0  0  0  0  0  0  0
   -2.0209    2.2716   -0.1487 H   0  0  0  0  0  0  0  0  0  0  0  0
   -2.6826   -1.1600   -1.0840 H   0  0  0  0  0  0  0  0  0  0  0  0
  1  2  1  0
  2  3  1  0
  2  4  1  0
  4  5  1  0
  5  6  1  0
  5  7  1  0
  7  8  2  0
  1  9  1  0
  1 10  1  0
  1 11  1  0
  2 12  1  0
  3 13  1  0
  3 14  1  0
  3 15  1  0
  4 16  1  0
  4 17  1  0
  5 18  1  0
  6 19  1  0
  7 20  1  0
M  END
