
     RDKit          3D

 25 25  0  0  0  0  0  0  0  0999 V2000
   -2.9465    1.1762    0.6889 C   0  0  0  0  0  0  0  0  0  0  0  0
   -2.0035    0.0590    0.3299 C   0  0  0  0  0  0  0  0  0  0  0  0
   -2.2225   -0.3040   -1.1123 C   0  0  0  0  0  0  0  0  0  0  0  0
   -0.5636    0.4625    0.5575 C   0  0  0  0  0  0  0  0  0  0  0  0
    0.4023   -0.6253    0.2105 C   0  0  0  0  0  0  0  0  0  0  0  0
    1.8035   -0.0857    0.4860 C   0  0  0  0  0  0  0  0  0  0  0  0
    2.8270   -1.1544    0.1491 C   0  0  0  0  0  0  0  0  0  0  0  0
    3.5444    0.1134   -0.3260 C   0  0  0  0  0  0  0  0  0  0  0  0
    2.2976    0.7236   -0.5362 O   0  0  0  0  0  0  0  0  0  0  0  0
   -2.4089    2.1550    0.5689 H   0  0  0  0  0  0  0  0  0  0  0  0
   -3.3218    1.1107    1.7259 H   0  0  0  0  0  0  0  0  0  0  0  0
   -3.7954    1.2212   -0.0427 H   0  0  0  0  0  0  0  0  0  0  0  0
   -2.2471   -0.8203    0.9718 H   0  0  0  0  0  0  0  0  0  0  0  0
   -1.6629    0.3715   -1.7771 H   0  0  0  0  0  0  0  0  0  0  0  0
   -3.2933   -0.2014   -1.3863 H   0  0  0  0  0  0  0  0  0  0  0  0
   -1.9697   -1.3754   -1.2829 H   0  0  0  0  0  0  0  0  0  0  0  0
   -0.4717    0.7873    1.6138 H   0  0  0  0  0  0  0  0  0  0  0  0
   -0.3608    1.3607   -0.0587 H   0  0  0  0  0  0  0  0  0  0  0  0
    0.2794   -0.8760   -0.8644 H   0  0  0  0  0  0  0  0  0  0  0  0
    0.2940   -1.5342    0.7949 H   0  0  0  0  0  0  0  0  0  0  0  0
    1.8600    0.3154    1.4980 H   0  0  0  0  0  0  0  0  0  0  0  0
    2.5234   -1.8220   -0.6754 H   0  0  0  0  0  0  0  0  0  0  0  0
    3.2862   -1.6333    1.0257 H   0  0  0  0  0  0  0  0  0  0  0  0
    4.0922   -0.0453   -1.2532 H   0  0  0  0  0  0  0  0  0  0  0  0
    4.0576    0.6209    0.5040 H   0  0  0  0  0  0  0  0  0  0  0  0
  1  2  1  0
  2  3  1  0
  2  4  1  0
  4  5  1  0
  5  6  1  0
  6  7  1  0
  7  8  1  0
  8  9  1  0
  9  6  1  0
  1 10  1  0
  1 11  1  0
  1 12  1  0
  2 13  1  0
  3 14  1  0
  3 15  1  0
  3 16  1  0
  4 17  1  0
  4 18  1  0
  5 19  1  0
  5 20  1  0
  6 21  1  0
  7 22  1  0
  7 23  1  0
  8 24  1  0
  8 25  1  0
M  END
