
     RDKit          3D

 21 21  0  0  0  0  0  0  0  0999 V2000
    0.4720    1.5669    0.3602 C   0  0  0  0  0  0  0  0  0  0  0  0
    0.3249    0.0574    0.4366 C   0  0  0  0  0  0  0  0  0  0  0  0
    1.3648   -0.6303   -0.4092 C   0  0  0  0  0  0  0  0  0  0  0  0
    2.7473   -0.2935    0.0268 C   0  0  0  0  0  0  0  0  0  0  0  0
    3.7380   -0.7349   -0.5129 O   0  0  0  0  0  0  0  0  0  0  0  0
   -1.0589   -0.2587   -0.0855 C   0  0  0  0  0  0  0  0  0  0  0  0
   -2.1993    0.3690    0.6821 C   0  0  0  0  0  0  0  0  0  0  0  0
   -1.2679   -1.4139   -0.9089 C   0  0  0  0  0  0  0  0  0  0  0  0
   -1.2563   -0.1345   -1.4917 O   0  0  0  0  0  0  0  0  0  0  0  0
    1.5003    1.8635    0.0573 H   0  0  0  0  0  0  0  0  0  0  0  0
    0.1741    1.9853    1.3408 H   0  0  0  0  0  0  0  0  0  0  0  0
   -0.1970    1.9794   -0.4394 H   0  0  0  0  0  0  0  0  0  0  0  0
    0.3992   -0.2816    1.4901 H   0  0  0  0  0  0  0  0  0  0  0  0
    1.2720   -1.7391   -0.2308 H   0  0  0  0  0  0  0  0  0  0  0  0
    1.1871   -0.4632   -1.4823 H   0  0  0  0  0  0  0  0  0  0  0  0
    2.8790    0.3708    0.8574 H   0  0  0  0  0  0  0  0  0  0  0  0
   -3.1138   -0.2182    0.6121 H   0  0  0  0  0  0  0  0  0  0  0  0
   -1.8800    0.6205    1.7050 H   0  0  0  0  0  0  0  0  0  0  0  0
   -2.3938    1.3613    0.1785 H   0  0  0  0  0  0  0  0  0  0  0  0
   -0.4455   -2.0417   -1.2726 H   0  0  0  0  0  0  0  0  0  0  0  0
   -2.2462   -1.9643   -0.9138 H   0  0  0  0  0  0  0  0  0  0  0  0
  1  2  1  0
  2  3  1  0
  3  4  1  0
  4  5  2  0
  2  6  1  0
  6  7  1  0
  6  8  1  0
  8  9  1  0
  9  6  1  0
  1 10  1  0
  1 11  1  0
  1 12  1  0
  2 13  1  0
  3 14  1  0
  3 15  1  0
  4 16  1  0
  7 17  1  0
  7 18  1  0
  7 19  1  0
  8 20  1  0
  8 21  1  0
M  END
