
     RDKit          3D

 23 23  0  0  0  0  0  0  0  0999 V2000
   -1.8878   -0.9873    0.3402 C   0  0  0  0  0  0  0  0  0  0  0  0
   -0.9223   -0.0231   -0.2865 C   0  0  0  0  0  0  0  0  0  0  0  0
   -1.5455    1.3717   -0.1448 C   0  0  0  0  0  0  0  0  0  0  0  0
   -0.8326   -0.2721   -1.6437 O   0  0  0  0  0  0  0  0  0  0  0  0
    0.4149   -0.0032    0.3791 C   0  0  0  0  0  0  0  0  0  0  0  0
    0.3407    0.2437    1.7308 O   0  0  0  0  0  0  0  0  0  0  0  0
    1.3129    1.0130   -0.3400 C   0  0  0  0  0  0  0  0  0  0  0  0
    2.4701    0.0575   -0.0135 C   0  0  0  0  0  0  0  0  0  0  0  0
    1.4020   -1.0437   -0.0530 C   0  0  0  0  0  0  0  0  0  0  0  0
   -2.7330   -1.1309   -0.3842 H   0  0  0  0  0  0  0  0  0  0  0  0
   -1.4730   -1.9839    0.5252 H   0  0  0  0  0  0  0  0  0  0  0  0
   -2.3836   -0.5588    1.2564 H   0  0  0  0  0  0  0  0  0  0  0  0
   -1.0948    2.0917   -0.8419 H   0  0  0  0  0  0  0  0  0  0  0  0
   -1.5262    1.6946    0.9061 H   0  0  0  0  0  0  0  0  0  0  0  0
   -2.6112    1.2583   -0.4470 H   0  0  0  0  0  0  0  0  0  0  0  0
   -1.0226   -1.2320   -1.7852 H   0  0  0  0  0  0  0  0  0  0  0  0
    0.6161   -0.5269    2.2926 H   0  0  0  0  0  0  0  0  0  0  0  0
    1.4108    1.9750    0.1556 H   0  0  0  0  0  0  0  0  0  0  0  0
    1.1709    1.0119   -1.4362 H   0  0  0  0  0  0  0  0  0  0  0  0
    2.8305    0.2928    1.0007 H   0  0  0  0  0  0  0  0  0  0  0  0
    3.2064    0.0123   -0.8188 H   0  0  0  0  0  0  0  0  0  0  0  0
    1.6183   -1.8491    0.6689 H   0  0  0  0  0  0  0  0  0  0  0  0
    1.2389   -1.4116   -1.0609 H   0  0  0  0  0  0  0  0  0  0  0  0
  1  2  1  0
  2  3  1  0
  2  4  1  0
  2  5  1  0
  5  6  1  0
  5  7  1  0
  7  8  1  0
  8  9  1  0
  9  5  1  0
  1 10  1  0
  1 11  1  0
  1 12  1  0
  3 13  1  0
  3 14  1  0
  3 15  1  0
  4 16  1  0
  6 17  1  0
  7 18  1  0
  7 19  1  0
  8 20  1  0
  8 21  1  0
  9 22  1  0
  9 23  1  0
M  END
