
     RDKit          3D

 21 21  0  0  0  0  0  0  0  0999 V2000
    2.1754   -1.2334    0.6485 C   0  0  0  0  0  0  0  0  0  0  0  0
    1.4165   -0.0519    0.0889 C   0  0  0  0  0  0  0  0  0  0  0  0
    2.3286    0.8453   -0.7452 C   0  0  0  0  0  0  0  0  0  0  0  0
    0.3461   -0.4568   -0.7011 O   0  0  0  0  0  0  0  0  0  0  0  0
   -0.8053    0.0557   -0.1574 C   0  0  0  0  0  0  0  0  0  0  0  0
   -1.8283   -0.9693    0.1630 C   0  0  0  0  0  0  0  0  0  0  0  0
   -2.9872   -0.3208    0.1237 C   0  0  0  0  0  0  0  0  0  0  0  0
   -2.6671    1.1175   -0.2258 C   0  0  0  0  0  0  0  0  0  0  0  0
   -1.5003    0.9037   -1.0024 O   0  0  0  0  0  0  0  0  0  0  0  0
    2.2945   -1.1767    1.7545 H   0  0  0  0  0  0  0  0  0  0  0  0
    3.1483   -1.3514    0.1230 H   0  0  0  0  0  0  0  0  0  0  0  0
    1.6198   -2.1931    0.4435 H   0  0  0  0  0  0  0  0  0  0  0  0
    1.0964    0.5754    0.9524 H   0  0  0  0  0  0  0  0  0  0  0  0
    1.8943    1.8559   -0.7519 H   0  0  0  0  0  0  0  0  0  0  0  0
    3.3096    0.8435   -0.2399 H   0  0  0  0  0  0  0  0  0  0  0  0
    2.3686    0.4237   -1.7700 H   0  0  0  0  0  0  0  0  0  0  0  0
   -0.5867    0.6545    0.7624 H   0  0  0  0  0  0  0  0  0  0  0  0
   -1.7174   -2.0230    0.3873 H   0  0  0  0  0  0  0  0  0  0  0  0
   -3.9841   -0.7345    0.3063 H   0  0  0  0  0  0  0  0  0  0  0  0
   -3.4884    1.5215   -0.8088 H   0  0  0  0  0  0  0  0  0  0  0  0
   -2.4334    1.7143    0.6492 H   0  0  0  0  0  0  0  0  0  0  0  0
  1  2  1  0
  2  3  1  0
  2  4  1  0
  4  5  1  0
  5  6  1  0
  6  7  2  0
  7  8  1  0
  8  9  1  0
  9  5  1  0
  1 10  1  0
  1 11  1  0
  1 12  1  0
  2 13  1  0
  3 14  1  0
  3 15  1  0
  3 16  1  0
  5 17  1  0
  6 18  1  0
  7 19  1  0
  8 20  1  0
  8 21  1  0
M  END
