
     RDKit          3D

 23 23  0  0  0  0  0  0  0  0999 V2000
   -1.2244    1.6802    0.7389 C   0  0  0  0  0  0  0  0  0  0  0  0
   -0.8980    0.2342    0.3488 C   0  0  0  0  0  0  0  0  0  0  0  0
   -0.8019   -0.6451    1.5531 C   0  0  0  0  0  0  0  0  0  0  0  0
   -1.9605   -0.2930   -0.5898 C   0  0  0  0  0  0  0  0  0  0  0  0
    0.4575    0.2793   -0.3248 C   0  0  0  0  0  0  0  0  0  0  0  0
    0.9347   -1.0320   -0.7695 C   0  0  0  0  0  0  0  0  0  0  0  0
    2.1859   -1.1483   -0.3508 C   0  0  0  0  0  0  0  0  0  0  0  0
    2.5741    0.0934    0.3887 C   0  0  0  0  0  0  0  0  0  0  0  0
    1.3751    0.7061    0.6557 O   0  0  0  0  0  0  0  0  0  0  0  0
   -2.3083    1.8332    0.8705 H   0  0  0  0  0  0  0  0  0  0  0  0
   -0.6458    1.8571    1.6866 H   0  0  0  0  0  0  0  0  0  0  0  0
   -0.7928    2.3886   -0.0061 H   0  0  0  0  0  0  0  0  0  0  0  0
   -0.1747   -1.5318    1.2846 H   0  0  0  0  0  0  0  0  0  0  0  0
   -1.7931   -1.0292    1.8729 H   0  0  0  0  0  0  0  0  0  0  0  0
   -0.3156   -0.0607    2.3696 H   0  0  0  0  0  0  0  0  0  0  0  0
   -2.1763    0.4352   -1.3891 H   0  0  0  0  0  0  0  0  0  0  0  0
   -1.6382   -1.2461   -1.0124 H   0  0  0  0  0  0  0  0  0  0  0  0
   -2.8834   -0.4298   -0.0128 H   0  0  0  0  0  0  0  0  0  0  0  0
    0.4812    1.0551   -1.1113 H   0  0  0  0  0  0  0  0  0  0  0  0
    0.4055   -1.7774   -1.3257 H   0  0  0  0  0  0  0  0  0  0  0  0
    2.8287   -2.0128   -0.5195 H   0  0  0  0  0  0  0  0  0  0  0  0
    3.1726   -0.1099    1.2826 H   0  0  0  0  0  0  0  0  0  0  0  0
    3.1979    0.7535   -0.2651 H   0  0  0  0  0  0  0  0  0  0  0  0
  1  2  1  0
  2  3  1  0
  2  4  1  0
  2  5  1  0
  5  6  1  0
  6  7  2  0
  7  8  1  0
  8  9  1  0
  9  5  1  0
  1 10  1  0
  1 11  1  0
  1 12  1  0
  3 13  1  0
  3 14  1  0
  3 15  1  0
  4 16  1  0
  4 17  1  0
  4 18  1  0
  5 19  1  0
  6 20  1  0
  7 21  1  0
  8 22  1  0
  8 23  1  0
M  END
