
     RDKit          3D

 18 19  0  0  0  0  0  0  0  0999 V2000
   -0.8229    1.5874    0.6130 C   0  0  0  0  0  0  0  0  0  0  0  0
   -0.3299    0.5364   -0.3882 C   0  0  0  0  0  0  0  0  0  0  0  0
    1.1598    0.5170   -0.3635 C   0  0  0  0  0  0  0  0  0  0  0  0
    1.9769    0.2316    0.7500 C   0  0  0  0  0  0  0  0  0  0  0  0
    1.6126   -0.8775   -0.1243 O   0  0  0  0  0  0  0  0  0  0  0  0
   -0.9928   -0.7579   -0.0486 C   0  0  0  0  0  0  0  0  0  0  0  0
   -0.7841   -1.9942   -0.7669 C   0  0  0  0  0  0  0  0  0  0  0  0
   -1.8860   -1.1761   -1.1630 O   0  0  0  0  0  0  0  0  0  0  0  0
   -1.9178    1.6453    0.4849 H   0  0  0  0  0  0  0  0  0  0  0  0
   -0.6395    1.2134    1.6415 H   0  0  0  0  0  0  0  0  0  0  0  0
   -0.3424    2.5520    0.4746 H   0  0  0  0  0  0  0  0  0  0  0  0
   -0.6404    0.9576   -1.3724 H   0  0  0  0  0  0  0  0  0  0  0  0
    1.6541    0.8756   -1.2942 H   0  0  0  0  0  0  0  0  0  0  0  0
    1.5984    0.0425    1.7786 H   0  0  0  0  0  0  0  0  0  0  0  0
    3.0525    0.4765    0.7175 H   0  0  0  0  0  0  0  0  0  0  0  0
   -1.6014   -0.8005    0.8772 H   0  0  0  0  0  0  0  0  0  0  0  0
    0.0455   -2.0997   -1.4937 H   0  0  0  0  0  0  0  0  0  0  0  0
   -1.1425   -2.9293   -0.3225 H   0  0  0  0  0  0  0  0  0  0  0  0
  1  2  1  0
  2  3  1  0
  3  4  1  0
  4  5  1  0
  2  6  1  0
  6  7  1  0
  7  8  1  0
  5  3  1  0
  8  6  1  0
  1  9  1  0
  1 10  1  0
  1 11  1  0
  2 12  1  0
  3 13  1  0
  4 14  1  0
  4 15  1  0
  6 16  1  0
  7 17  1  0
  7 18  1  0
M  END
