
     RDKit          3D

 20 20  0  0  0  0  0  0  0  0999 V2000
   -1.5410    1.3491   -0.0022 C   0  0  0  0  0  0  0  0  0  0  0  0
   -0.7792    0.1385   -0.4384 C   0  0  0  0  0  0  0  0  0  0  0  0
   -1.7694   -1.0342   -0.4035 C   0  0  0  0  0  0  0  0  0  0  0  0
    0.3628   -0.2262    0.4467 C   0  0  0  0  0  0  0  0  0  0  0  0
    1.4536    0.7468    0.6446 C   0  0  0  0  0  0  0  0  0  0  0  0
    2.4222   -0.2708    0.0750 C   0  0  0  0  0  0  0  0  0  0  0  0
    1.3033   -1.1409   -0.3013 C   0  0  0  0  0  0  0  0  0  0  0  0
    1.0573   -2.1609   -0.9199 O   0  0  0  0  0  0  0  0  0  0  0  0
   -0.9854    2.2900   -0.0605 H   0  0  0  0  0  0  0  0  0  0  0  0
   -2.0275    1.2254    0.9941 H   0  0  0  0  0  0  0  0  0  0  0  0
   -2.4023    1.4546   -0.7230 H   0  0  0  0  0  0  0  0  0  0  0  0
   -0.4780    0.2962   -1.4947 H   0  0  0  0  0  0  0  0  0  0  0  0
   -1.9104   -1.2622    0.6889 H   0  0  0  0  0  0  0  0  0  0  0  0
   -1.2672   -1.8676   -0.8994 H   0  0  0  0  0  0  0  0  0  0  0  0
   -2.6961   -0.7064   -0.8742 H   0  0  0  0  0  0  0  0  0  0  0  0
    0.0560   -0.7527    1.3735 H   0  0  0  0  0  0  0  0  0  0  0  0
    1.4191    1.7053    0.1251 H   0  0  0  0  0  0  0  0  0  0  0  0
    1.7117    0.9236    1.7193 H   0  0  0  0  0  0  0  0  0  0  0  0
    3.0596   -0.7826    0.8391 H   0  0  0  0  0  0  0  0  0  0  0  0
    3.0110    0.0750   -0.7893 H   0  0  0  0  0  0  0  0  0  0  0  0
  1  2  1  0
  2  3  1  0
  2  4  1  0
  4  5  1  0
  5  6  1  0
  6  7  1  0
  7  8  2  0
  7  4  1  0
  1  9  1  0
  1 10  1  0
  1 11  1  0
  2 12  1  0
  3 13  1  0
  3 14  1  0
  3 15  1  0
  4 16  1  0
  5 17  1  0
  5 18  1  0
  6 19  1  0
  6 20  1  0
M  END
