
     RDKit          3D

 19 19  0  0  0  0  0  0  0  0999 V2000
   -1.6854   -0.9755   -0.4670 C   0  0  0  0  0  0  0  0  0  0  0  0
   -0.8679   -0.1606    0.5014 C   0  0  0  0  0  0  0  0  0  0  0  0
   -1.5179    1.2016    0.6057 C   0  0  0  0  0  0  0  0  0  0  0  0
    0.5063    0.0312   -0.0524 C   0  0  0  0  0  0  0  0  0  0  0  0
    1.3401    0.7689    0.7622 O   0  0  0  0  0  0  0  0  0  0  0  0
    2.5818    0.5786    0.1499 C   0  0  0  0  0  0  0  0  0  0  0  0
    2.5842   -0.7645   -0.3170 O   0  0  0  0  0  0  0  0  0  0  0  0
    1.2771   -1.2333   -0.1832 C   0  0  0  0  0  0  0  0  0  0  0  0
    0.8679   -2.4249   -0.1766 O   0  0  0  0  0  0  0  0  0  0  0  0
   -1.7437   -2.0424   -0.1746 H   0  0  0  0  0  0  0  0  0  0  0  0
   -1.2846   -0.8779   -1.5161 H   0  0  0  0  0  0  0  0  0  0  0  0
   -2.7414   -0.5833   -0.4886 H   0  0  0  0  0  0  0  0  0  0  0  0
   -0.8811   -0.6583    1.4736 H   0  0  0  0  0  0  0  0  0  0  0  0
   -1.4227    1.5934    1.6205 H   0  0  0  0  0  0  0  0  0  0  0  0
   -2.5827    1.1817    0.2854 H   0  0  0  0  0  0  0  0  0  0  0  0
   -1.0246    1.9450   -0.0761 H   0  0  0  0  0  0  0  0  0  0  0  0
    0.4622    0.4917   -1.0452 H   0  0  0  0  0  0  0  0  0  0  0  0
    2.7434    1.3053   -0.6662 H   0  0  0  0  0  0  0  0  0  0  0  0
    3.3889    0.6231    0.9287 H   0  0  0  0  0  0  0  0  0  0  0  0
  1  2  1  0
  2  3  1  0
  2  4  1  0
  4  5  1  0
  5  6  1  0
  6  7  1  0
  7  8  1  0
  8  9  2  0
  8  4  1  0
  1 10  1  0
  1 11  1  0
  1 12  1  0
  2 13  1  0
  3 14  1  0
  3 15  1  0
  3 16  1  0
  4 17  1  0
  6 18  1  0
  6 19  1  0
M  END
