
     RDKit          3D

 21 21  0  0  0  0  0  0  0  0999 V2000
    2.2703   -0.3551   -1.4328 C   0  0  0  0  0  0  0  0  0  0  0  0
    1.7998    0.2175   -0.1074 C   0  0  0  0  0  0  0  0  0  0  0  0
    2.1578    1.6771    0.0345 C   0  0  0  0  0  0  0  0  0  0  0  0
    2.3947   -0.4572    0.9618 O   0  0  0  0  0  0  0  0  0  0  0  0
    0.3404    0.1119   -0.0748 C   0  0  0  0  0  0  0  0  0  0  0  0
   -0.8702    0.0373   -0.0644 C   0  0  0  0  0  0  0  0  0  0  0  0
   -2.3340   -0.0280   -0.0577 C   0  0  0  0  0  0  0  0  0  0  0  0
   -2.9923   -1.3686    0.2040 C   0  0  0  0  0  0  0  0  0  0  0  0
   -3.0165   -0.2952    1.2195 C   0  0  0  0  0  0  0  0  0  0  0  0
    2.3168   -1.4475   -1.3130 H   0  0  0  0  0  0  0  0  0  0  0  0
    1.5385   -0.1410   -2.2408 H   0  0  0  0  0  0  0  0  0  0  0  0
    3.2661    0.0984   -1.6658 H   0  0  0  0  0  0  0  0  0  0  0  0
    1.4270    2.1275    0.7385 H   0  0  0  0  0  0  0  0  0  0  0  0
    2.1478    2.2098   -0.9370 H   0  0  0  0  0  0  0  0  0  0  0  0
    3.1603    1.8019    0.5377 H   0  0  0  0  0  0  0  0  0  0  0  0
    1.7395   -0.8150    1.6030 H   0  0  0  0  0  0  0  0  0  0  0  0
   -2.8231    0.5552   -0.8743 H   0  0  0  0  0  0  0  0  0  0  0  0
   -3.8984   -1.6382   -0.3670 H   0  0  0  0  0  0  0  0  0  0  0  0
   -2.2639   -2.2023    0.3232 H   0  0  0  0  0  0  0  0  0  0  0  0
   -2.3911   -0.3439    2.1243 H   0  0  0  0  0  0  0  0  0  0  0  0
   -3.9698    0.2553    1.3886 H   0  0  0  0  0  0  0  0  0  0  0  0
  1  2  1  0
  2  3  1  0
  2  4  1  0
  2  5  1  0
  5  6  3  0
  6  7  1  0
  7  8  1  0
  8  9  1  0
  9  7  1  0
  1 10  1  0
  1 11  1  0
  1 12  1  0
  3 13  1  0
  3 14  1  0
  3 15  1  0
  4 16  1  0
  7 17  1  0
  8 18  1  0
  8 19  1  0
  9 20  1  0
  9 21  1  0
M  END
