
     RDKit          3D

 19 19  0  0  0  0  0  0  0  0999 V2000
   -0.2977   -2.0128   -0.2600 C   0  0  0  0  0  0  0  0  0  0  0  0
   -0.1885   -0.5980    0.3238 C   0  0  0  0  0  0  0  0  0  0  0  0
    1.1973   -0.1145   -0.0237 C   0  0  0  0  0  0  0  0  0  0  0  0
    1.4324   -0.0715   -1.3777 O   0  0  0  0  0  0  0  0  0  0  0  0
    1.5584    1.1567    0.6612 C   0  0  0  0  0  0  0  0  0  0  0  0
    1.4150    1.2780    1.8498 O   0  0  0  0  0  0  0  0  0  0  0  0
   -1.2827    0.2220   -0.2598 C   0  0  0  0  0  0  0  0  0  0  0  0
   -1.5188    1.6143    0.0414 C   0  0  0  0  0  0  0  0  0  0  0  0
   -2.2804    0.5772    0.7836 O   0  0  0  0  0  0  0  0  0  0  0  0
   -1.1586   -2.4836    0.2418 H   0  0  0  0  0  0  0  0  0  0  0  0
    0.6446   -2.5551   -0.0318 H   0  0  0  0  0  0  0  0  0  0  0  0
   -0.5135   -1.9623   -1.3275 H   0  0  0  0  0  0  0  0  0  0  0  0
   -0.2289   -0.7210    1.4182 H   0  0  0  0  0  0  0  0  0  0  0  0
    1.9041   -0.8896    0.3962 H   0  0  0  0  0  0  0  0  0  0  0  0
    2.3118    0.3581   -1.5147 H   0  0  0  0  0  0  0  0  0  0  0  0
    1.9550    1.9936    0.1089 H   0  0  0  0  0  0  0  0  0  0  0  0
   -1.8151   -0.1929   -1.1663 H   0  0  0  0  0  0  0  0  0  0  0  0
   -2.2450    2.1750   -0.5565 H   0  0  0  0  0  0  0  0  0  0  0  0
   -0.8894    2.2264    0.6935 H   0  0  0  0  0  0  0  0  0  0  0  0
  1  2  1  0
  2  3  1  0
  3  4  1  0
  3  5  1  0
  5  6  2  0
  2  7  1  0
  7  8  1  0
  8  9  1  0
  9  7  1  0
  1 10  1  0
  1 11  1  0
  1 12  1  0
  2 13  1  0
  3 14  1  0
  4 15  1  0
  5 16  1  0
  7 17  1  0
  8 18  1  0
  8 19  1  0
M  END
