
     RDKit          3D

 19 19  0  0  0  0  0  0  0  0999 V2000
   -1.6368   -1.2127   -0.3638 C   0  0  0  0  0  0  0  0  0  0  0  0
   -0.9424   -0.2716    0.5966 C   0  0  0  0  0  0  0  0  0  0  0  0
   -1.6306    1.0559    0.5826 C   0  0  0  0  0  0  0  0  0  0  0  0
    0.5067   -0.1257    0.2292 C   0  0  0  0  0  0  0  0  0  0  0  0
    1.1547    0.9833   -0.0758 C   0  0  0  0  0  0  0  0  0  0  0  0
    2.5848    0.6882   -0.3790 C   0  0  0  0  0  0  0  0  0  0  0  0
    2.7008   -0.6966   -0.2201 O   0  0  0  0  0  0  0  0  0  0  0  0
    1.4677   -1.2157    0.1458 C   0  0  0  0  0  0  0  0  0  0  0  0
    1.1858   -2.4378    0.3782 O   0  0  0  0  0  0  0  0  0  0  0  0
   -1.4145   -1.0002   -1.4196 H   0  0  0  0  0  0  0  0  0  0  0  0
   -2.7365   -1.0730   -0.1870 H   0  0  0  0  0  0  0  0  0  0  0  0
   -1.4290   -2.2809   -0.0882 H   0  0  0  0  0  0  0  0  0  0  0  0
   -1.0270   -0.7130    1.6158 H   0  0  0  0  0  0  0  0  0  0  0  0
   -2.5644    0.9405    1.2076 H   0  0  0  0  0  0  0  0  0  0  0  0
   -1.0193    1.8880    0.9696 H   0  0  0  0  0  0  0  0  0  0  0  0
   -1.9977    1.3243   -0.4329 H   0  0  0  0  0  0  0  0  0  0  0  0
    0.7138    1.9706   -0.1032 H   0  0  0  0  0  0  0  0  0  0  0  0
    2.8149    0.9208   -1.4510 H   0  0  0  0  0  0  0  0  0  0  0  0
    3.2691    1.2556    0.3073 H   0  0  0  0  0  0  0  0  0  0  0  0
  1  2  1  0
  2  3  1  0
  2  4  1  0
  4  5  2  0
  5  6  1  0
  6  7  1  0
  7  8  1  0
  8  9  2  0
  8  4  1  0
  1 10  1  0
  1 11  1  0
  1 12  1  0
  2 13  1  0
  3 14  1  0
  3 15  1  0
  3 16  1  0
  5 17  1  0
  6 18  1  0
  6 19  1  0
M  END
