
     RDKit          3D

 23 23  0  0  0  0  0  0  0  0999 V2000
   -2.6604    1.0384    0.2748 C   0  0  0  0  0  0  0  0  0  0  0  0
   -1.6574    0.0169   -0.2786 C   0  0  0  0  0  0  0  0  0  0  0  0
   -1.7547   -1.1771    0.5734 C   0  0  0  0  0  0  0  0  0  0  0  0
   -2.1103   -2.2296    0.0947 O   0  0  0  0  0  0  0  0  0  0  0  0
   -0.3157    0.6956   -0.2234 C   0  0  0  0  0  0  0  0  0  0  0  0
    0.8073   -0.1658   -0.7333 C   0  0  0  0  0  0  0  0  0  0  0  0
    2.1165    0.5961   -0.6408 C   0  0  0  0  0  0  0  0  0  0  0  0
    2.6965   -0.4198    0.2981 C   0  0  0  0  0  0  0  0  0  0  0  0
    1.3379   -1.0964    0.3298 C   0  0  0  0  0  0  0  0  0  0  0  0
   -2.9769    1.6432   -0.5846 H   0  0  0  0  0  0  0  0  0  0  0  0
   -3.4764    0.5551    0.8105 H   0  0  0  0  0  0  0  0  0  0  0  0
   -2.1481    1.7252    0.9914 H   0  0  0  0  0  0  0  0  0  0  0  0
   -1.8775   -0.1897   -1.3463 H   0  0  0  0  0  0  0  0  0  0  0  0
   -1.5150   -1.1346    1.6191 H   0  0  0  0  0  0  0  0  0  0  0  0
   -0.3831    1.5884   -0.8798 H   0  0  0  0  0  0  0  0  0  0  0  0
   -0.0857    1.0286    0.8002 H   0  0  0  0  0  0  0  0  0  0  0  0
    0.6119   -0.6369   -1.7163 H   0  0  0  0  0  0  0  0  0  0  0  0
    2.0426    1.6101   -0.2176 H   0  0  0  0  0  0  0  0  0  0  0  0
    2.6769    0.6598   -1.6091 H   0  0  0  0  0  0  0  0  0  0  0  0
    2.9902    0.0411    1.2746 H   0  0  0  0  0  0  0  0  0  0  0  0
    3.4791   -1.0389   -0.1451 H   0  0  0  0  0  0  0  0  0  0  0  0
    1.3444   -2.1504   -0.0011 H   0  0  0  0  0  0  0  0  0  0  0  0
    0.8581   -0.9593    1.3094 H   0  0  0  0  0  0  0  0  0  0  0  0
  1  2  1  0
  2  3  1  0
  3  4  2  0
  2  5  1  0
  5  6  1  0
  6  7  1  0
  7  8  1  0
  8  9  1  0
  9  6  1  0
  1 10  1  0
  1 11  1  0
  1 12  1  0
  2 13  1  0
  3 14  1  0
  5 15  1  0
  5 16  1  0
  6 17  1  0
  7 18  1  0
  7 19  1  0
  8 20  1  0
  8 21  1  0
  9 22  1  0
  9 23  1  0
M  END
