
     RDKit          3D

 23 23  0  0  0  0  0  0  0  0999 V2000
   -2.0039   -1.2048    0.5960 C   0  0  0  0  0  0  0  0  0  0  0  0
   -1.4973   -0.3382   -0.5107 C   0  0  0  0  0  0  0  0  0  0  0  0
   -1.7503    1.1302   -0.1930 C   0  0  0  0  0  0  0  0  0  0  0  0
   -0.0684   -0.5501   -0.8692 C   0  0  0  0  0  0  0  0  0  0  0  0
    0.9104   -0.3080    0.2264 C   0  0  0  0  0  0  0  0  0  0  0  0
    2.3397   -0.5450   -0.2190 C   0  0  0  0  0  0  0  0  0  0  0  0
    2.7256    0.5978    0.6902 C   0  0  0  0  0  0  0  0  0  0  0  0
    3.7013    0.9287    1.3431 O   0  0  0  0  0  0  0  0  0  0  0  0
    1.3435    1.1404    0.4156 C   0  0  0  0  0  0  0  0  0  0  0  0
   -1.6491   -0.9018    1.5977 H   0  0  0  0  0  0  0  0  0  0  0  0
   -1.8308   -2.2604    0.3605 H   0  0  0  0  0  0  0  0  0  0  0  0
   -3.1214   -1.0757    0.6254 H   0  0  0  0  0  0  0  0  0  0  0  0
   -2.1077   -0.5593   -1.4131 H   0  0  0  0  0  0  0  0  0  0  0  0
   -2.7328    1.4660   -0.6136 H   0  0  0  0  0  0  0  0  0  0  0  0
   -0.9829    1.7729   -0.6728 H   0  0  0  0  0  0  0  0  0  0  0  0
   -1.7915    1.3044    0.9118 H   0  0  0  0  0  0  0  0  0  0  0  0
    0.0891   -1.5746   -1.2656 H   0  0  0  0  0  0  0  0  0  0  0  0
    0.1766    0.1391   -1.7054 H   0  0  0  0  0  0  0  0  0  0  0  0
    0.7389   -0.7722    1.1937 H   0  0  0  0  0  0  0  0  0  0  0  0
    2.7644   -1.5193    0.0780 H   0  0  0  0  0  0  0  0  0  0  0  0
    2.4517   -0.2554   -1.2759 H   0  0  0  0  0  0  0  0  0  0  0  0
    0.8820    1.6685    1.2509 H   0  0  0  0  0  0  0  0  0  0  0  0
    1.4131    1.7168   -0.5511 H   0  0  0  0  0  0  0  0  0  0  0  0
  1  2  1  0
  2  3  1  0
  2  4  1  0
  4  5  1  0
  5  6  1  0
  6  7  1  0
  7  8  2  0
  7  9  1  0
  9  5  1  0
  1 10  1  0
  1 11  1  0
  1 12  1  0
  2 13  1  0
  3 14  1  0
  3 15  1  0
  3 16  1  0
  4 17  1  0
  4 18  1  0
  5 19  1  0
  6 20  1  0
  6 21  1  0
  9 22  1  0
  9 23  1  0
M  END
