
     RDKit          3D

 22 22  0  0  0  0  0  0  0  0999 V2000
   -1.7352   -0.5305    1.3502 C   0  0  0  0  0  0  0  0  0  0  0  0
   -0.8730   -0.5946    0.1129 C   0  0  0  0  0  0  0  0  0  0  0  0
   -1.7979   -0.8853   -1.0560 C   0  0  0  0  0  0  0  0  0  0  0  0
   -0.1435    0.6865   -0.1585 C   0  0  0  0  0  0  0  0  0  0  0  0
    0.8143    1.2580    0.8182 C   0  0  0  0  0  0  0  0  0  0  0  0
    1.2869    0.6530   -0.4748 C   0  0  0  0  0  0  0  0  0  0  0  0
    2.1670   -0.5341   -0.2777 C   0  0  0  0  0  0  0  0  0  0  0  0
    1.7109    1.4915   -1.5115 O   0  0  0  0  0  0  0  0  0  0  0  0
   -1.1061   -0.4926    2.2446 H   0  0  0  0  0  0  0  0  0  0  0  0
   -2.2896   -1.4999    1.3932 H   0  0  0  0  0  0  0  0  0  0  0  0
   -2.4994    0.2680    1.3031 H   0  0  0  0  0  0  0  0  0  0  0  0
   -0.2172   -1.4735    0.2269 H   0  0  0  0  0  0  0  0  0  0  0  0
   -1.8591   -1.9587   -1.2853 H   0  0  0  0  0  0  0  0  0  0  0  0
   -2.8255   -0.4745   -0.8434 H   0  0  0  0  0  0  0  0  0  0  0  0
   -1.4518   -0.3109   -1.9526 H   0  0  0  0  0  0  0  0  0  0  0  0
   -0.7713    1.4444   -0.6730 H   0  0  0  0  0  0  0  0  0  0  0  0
    0.9540    2.3573    0.8718 H   0  0  0  0  0  0  0  0  0  0  0  0
    1.0121    0.7558    1.7793 H   0  0  0  0  0  0  0  0  0  0  0  0
    1.8046   -1.2840    0.4191 H   0  0  0  0  0  0  0  0  0  0  0  0
    2.4855   -1.0122   -1.2497 H   0  0  0  0  0  0  0  0  0  0  0  0
    3.1374   -0.1467    0.1556 H   0  0  0  0  0  0  0  0  0  0  0  0
    2.1969    2.2828   -1.1922 H   0  0  0  0  0  0  0  0  0  0  0  0
  1  2  1  0
  2  3  1  0
  2  4  1  0
  4  5  1  0
  5  6  1  0
  6  7  1  0
  6  8  1  0
  6  4  1  0
  1  9  1  0
  1 10  1  0
  1 11  1  0
  2 12  1  0
  3 13  1  0
  3 14  1  0
  3 15  1  0
  4 16  1  0
  5 17  1  0
  5 18  1  0
  7 19  1  0
  7 20  1  0
  7 21  1  0
  8 22  1  0
M  END
