
     RDKit          3D

 23 24  0  0  0  0  0  0  0  0999 V2000
   -1.4506   -0.2262    1.2119 C   0  0  0  0  0  0  0  0  0  0  0  0
   -1.2951   -0.4604   -0.2927 C   0  0  0  0  0  0  0  0  0  0  0  0
   -2.2998    0.3933   -0.9843 C   0  0  0  0  0  0  0  0  0  0  0  0
    0.1279   -0.1092   -0.6358 C   0  0  0  0  0  0  0  0  0  0  0  0
    1.1833   -0.9033    0.0635 C   0  0  0  0  0  0  0  0  0  0  0  0
    2.6229   -0.6767   -0.1672 C   0  0  0  0  0  0  0  0  0  0  0  0
    1.9620   -0.2421    1.1312 C   0  0  0  0  0  0  0  0  0  0  0  0
    0.3771    1.3787   -0.7666 C   0  0  0  0  0  0  0  0  0  0  0  0
    0.4417    0.4831   -1.8269 O   0  0  0  0  0  0  0  0  0  0  0  0
   -1.9308    0.7752    1.3888 H   0  0  0  0  0  0  0  0  0  0  0  0
   -2.0907   -1.0283    1.5923 H   0  0  0  0  0  0  0  0  0  0  0  0
   -0.4742   -0.2508    1.7249 H   0  0  0  0  0  0  0  0  0  0  0  0
   -1.4869   -1.5180   -0.5382 H   0  0  0  0  0  0  0  0  0  0  0  0
   -1.9502    0.8356   -1.9366 H   0  0  0  0  0  0  0  0  0  0  0  0
   -2.6494    1.2357   -0.3164 H   0  0  0  0  0  0  0  0  0  0  0  0
   -3.2108   -0.2110   -1.1718 H   0  0  0  0  0  0  0  0  0  0  0  0
    0.8986   -1.9758    0.2292 H   0  0  0  0  0  0  0  0  0  0  0  0
    2.9834    0.1120   -0.8649 H   0  0  0  0  0  0  0  0  0  0  0  0
    3.3319   -1.5082   -0.0365 H   0  0  0  0  0  0  0  0  0  0  0  0
    2.1497   -0.8348    2.0523 H   0  0  0  0  0  0  0  0  0  0  0  0
    1.9592    0.8350    1.2938 H   0  0  0  0  0  0  0  0  0  0  0  0
    1.2903    1.8268   -0.3593 H   0  0  0  0  0  0  0  0  0  0  0  0
   -0.4895    2.0693   -0.7909 H   0  0  0  0  0  0  0  0  0  0  0  0
  1  2  1  0
  2  3  1  0
  2  4  1  0
  4  5  1  0
  5  6  1  0
  6  7  1  0
  4  8  1  0
  8  9  1  0
  9  4  1  0
  7  5  1  0
  1 10  1  0
  1 11  1  0
  1 12  1  0
  2 13  1  0
  3 14  1  0
  3 15  1  0
  3 16  1  0
  5 17  1  0
  6 18  1  0
  6 19  1  0
  7 20  1  0
  7 21  1  0
  8 22  1  0
  8 23  1  0
M  END
