
     RDKit          3D

 25 25  0  0  0  0  0  0  0  0999 V2000
   -1.5059   -0.1440    1.3115 C   0  0  0  0  0  0  0  0  0  0  0  0
   -1.4095    0.1758   -0.1407 C   0  0  0  0  0  0  0  0  0  0  0  0
   -1.6794   -1.1225   -0.9067 C   0  0  0  0  0  0  0  0  0  0  0  0
   -0.0705    0.6970   -0.5835 C   0  0  0  0  0  0  0  0  0  0  0  0
    0.3099    1.9613    0.1299 C   0  0  0  0  0  0  0  0  0  0  0  0
    0.9234   -0.3881   -0.5811 C   0  0  0  0  0  0  0  0  0  0  0  0
    1.2435   -1.1188    0.6724 C   0  0  0  0  0  0  0  0  0  0  0  0
    2.5854   -1.2089    0.2239 O   0  0  0  0  0  0  0  0  0  0  0  0
    2.3753    0.0019   -0.4317 C   0  0  0  0  0  0  0  0  0  0  0  0
   -1.1542   -1.1630    1.5625 H   0  0  0  0  0  0  0  0  0  0  0  0
   -0.9164    0.5589    1.9389 H   0  0  0  0  0  0  0  0  0  0  0  0
   -2.5582   -0.0118    1.6587 H   0  0  0  0  0  0  0  0  0  0  0  0
   -2.2241    0.8744   -0.4812 H   0  0  0  0  0  0  0  0  0  0  0  0
   -1.3181   -1.9980   -0.3159 H   0  0  0  0  0  0  0  0  0  0  0  0
   -1.1714   -1.0382   -1.8930 H   0  0  0  0  0  0  0  0  0  0  0  0
   -2.7681   -1.2326   -1.1310 H   0  0  0  0  0  0  0  0  0  0  0  0
   -0.2232    1.0160   -1.6620 H   0  0  0  0  0  0  0  0  0  0  0  0
    1.2197    2.3769   -0.3346 H   0  0  0  0  0  0  0  0  0  0  0  0
    0.4932    1.8524    1.1946 H   0  0  0  0  0  0  0  0  0  0  0  0
   -0.5053    2.6868   -0.0087 H   0  0  0  0  0  0  0  0  0  0  0  0
    0.8248   -1.0447   -1.4718 H   0  0  0  0  0  0  0  0  0  0  0  0
    1.1909   -0.5132    1.5849 H   0  0  0  0  0  0  0  0  0  0  0  0
    0.8559   -2.1582    0.7523 H   0  0  0  0  0  0  0  0  0  0  0  0
    2.5556    0.8315    0.2991 H   0  0  0  0  0  0  0  0  0  0  0  0
    2.9265    0.1090   -1.3869 H   0  0  0  0  0  0  0  0  0  0  0  0
  1  2  1  0
  2  3  1  0
  2  4  1  0
  4  5  1  0
  4  6  1  0
  6  7  1  0
  7  8  1  0
  8  9  1  0
  9  6  1  0
  1 10  1  0
  1 11  1  0
  1 12  1  0
  2 13  1  0
  3 14  1  0
  3 15  1  0
  3 16  1  0
  4 17  1  0
  5 18  1  0
  5 19  1  0
  5 20  1  0
  6 21  1  0
  7 22  1  0
  7 23  1  0
  9 24  1  0
  9 25  1  0
M  END
