
     RDKit          3D

 23 24  0  0  0  0  0  0  0  0999 V2000
   -1.7187   -0.3962   -1.0703 C   0  0  0  0  0  0  0  0  0  0  0  0
   -1.3065   -0.0125    0.3172 C   0  0  0  0  0  0  0  0  0  0  0  0
   -1.5887    1.4565    0.5257 C   0  0  0  0  0  0  0  0  0  0  0  0
    0.1215   -0.3616    0.6312 C   0  0  0  0  0  0  0  0  0  0  0  0
    0.4835   -1.8051    0.5427 C   0  0  0  0  0  0  0  0  0  0  0  0
    1.7602   -1.3613   -0.1524 C   0  0  0  0  0  0  0  0  0  0  0  0
    1.5594   -0.7997   -1.3836 O   0  0  0  0  0  0  0  0  0  0  0  0
    1.1407    0.0174   -0.3784 C   0  0  0  0  0  0  0  0  0  0  0  0
    1.9697    1.2358   -0.1226 C   0  0  0  0  0  0  0  0  0  0  0  0
   -2.6773    0.1301   -1.2899 H   0  0  0  0  0  0  0  0  0  0  0  0
   -1.9240   -1.4901   -1.0729 H   0  0  0  0  0  0  0  0  0  0  0  0
   -0.9197   -0.1373   -1.7910 H   0  0  0  0  0  0  0  0  0  0  0  0
   -1.9430   -0.5590    1.0601 H   0  0  0  0  0  0  0  0  0  0  0  0
   -1.4265    1.7755    1.5808 H   0  0  0  0  0  0  0  0  0  0  0  0
   -2.6650    1.6291    0.3153 H   0  0  0  0  0  0  0  0  0  0  0  0
   -0.9873    2.0858   -0.1766 H   0  0  0  0  0  0  0  0  0  0  0  0
    0.3871    0.0421    1.6380 H   0  0  0  0  0  0  0  0  0  0  0  0
    0.6823   -2.2998    1.5112 H   0  0  0  0  0  0  0  0  0  0  0  0
   -0.1035   -2.4273   -0.1602 H   0  0  0  0  0  0  0  0  0  0  0  0
    2.6983   -1.3292    0.3819 H   0  0  0  0  0  0  0  0  0  0  0  0
    1.5014    2.1000   -0.6296 H   0  0  0  0  0  0  0  0  0  0  0  0
    2.9689    1.0955   -0.5334 H   0  0  0  0  0  0  0  0  0  0  0  0
    1.9873    1.4113    0.9780 H   0  0  0  0  0  0  0  0  0  0  0  0
  1  2  1  0
  2  3  1  0
  2  4  1  0
  4  5  1  0
  5  6  1  0
  6  7  1  0
  7  8  1  0
  8  9  1  0
  8  4  1  0
  8  6  1  0
  1 10  1  0
  1 11  1  0
  1 12  1  0
  2 13  1  0
  3 14  1  0
  3 15  1  0
  3 16  1  0
  4 17  1  0
  5 18  1  0
  5 19  1  0
  6 20  1  0
  9 21  1  0
  9 22  1  0
  9 23  1  0
M  END
