
     RDKit          3D

 21 22  0  0  0  0  0  0  0  0999 V2000
    1.9561    0.8194    0.3130 C   0  0  0  0  0  0  0  0  0  0  0  0
    1.4021   -0.2606   -0.5874 C   0  0  0  0  0  0  0  0  0  0  0  0
    2.2455   -1.4697   -0.4478 C   0  0  0  0  0  0  0  0  0  0  0  0
    3.2520   -1.6614   -1.0894 O   0  0  0  0  0  0  0  0  0  0  0  0
   -0.0565   -0.5207   -0.3385 C   0  0  0  0  0  0  0  0  0  0  0  0
   -0.9562    0.6560   -0.5505 C   0  0  0  0  0  0  0  0  0  0  0  0
   -2.4298    0.3559   -0.4936 C   0  0  0  0  0  0  0  0  0  0  0  0
   -2.2247   -0.1255    0.9307 C   0  0  0  0  0  0  0  0  0  0  0  0
   -0.7457    0.0353    0.8466 C   0  0  0  0  0  0  0  0  0  0  0  0
    1.3123    1.7018    0.3864 H   0  0  0  0  0  0  0  0  0  0  0  0
    2.1636    0.4120    1.3407 H   0  0  0  0  0  0  0  0  0  0  0  0
    2.9345    1.1345   -0.0959 H   0  0  0  0  0  0  0  0  0  0  0  0
    1.4950    0.1169   -1.6277 H   0  0  0  0  0  0  0  0  0  0  0  0
    1.9469   -2.2261    0.2678 H   0  0  0  0  0  0  0  0  0  0  0  0
   -0.4374   -1.4669   -0.7800 H   0  0  0  0  0  0  0  0  0  0  0  0
   -0.5802    1.6746   -0.6199 H   0  0  0  0  0  0  0  0  0  0  0  0
   -2.6715   -0.4926   -1.1797 H   0  0  0  0  0  0  0  0  0  0  0  0
   -3.0371    1.2537   -0.6171 H   0  0  0  0  0  0  0  0  0  0  0  0
   -2.6121   -1.1393    1.1301 H   0  0  0  0  0  0  0  0  0  0  0  0
   -2.7515    0.5907    1.6157 H   0  0  0  0  0  0  0  0  0  0  0  0
   -0.2054    0.6120    1.5967 H   0  0  0  0  0  0  0  0  0  0  0  0
  1  2  1  0
  2  3  1  0
  3  4  2  0
  2  5  1  0
  5  6  1  0
  6  7  1  0
  7  8  1  0
  8  9  1  0
  9  5  1  0
  9  6  1  0
  1 10  1  0
  1 11  1  0
  1 12  1  0
  2 13  1  0
  3 14  1  0
  5 15  1  0
  6 16  1  0
  7 17  1  0
  7 18  1  0
  8 19  1  0
  8 20  1  0
  9 21  1  0
M  END
