
     RDKit          3D

 16 15  0  0  0  0  0  0  0  0999 V2000
   -1.3686   -0.8988    0.1842 C   0  0  0  0  0  0  0  0  0  0  0  0
   -0.0793   -0.2987   -0.3064 C   0  0  0  0  0  0  0  0  0  0  0  0
    1.1180   -0.7922    0.4864 C   0  0  0  0  0  0  0  0  0  0  0  0
    2.2393   -0.1617   -0.0692 O   0  0  0  0  0  0  0  0  0  0  0  0
   -0.0962    1.2241   -0.1376 C   0  0  0  0  0  0  0  0  0  0  0  0
   -1.1317    1.8016   -0.8502 O   0  0  0  0  0  0  0  0  0  0  0  0
   -1.5200   -0.6816    1.2481 H   0  0  0  0  0  0  0  0  0  0  0  0
   -2.1905   -0.3998   -0.3697 H   0  0  0  0  0  0  0  0  0  0  0  0
   -1.3338   -1.9831   -0.0508 H   0  0  0  0  0  0  0  0  0  0  0  0
    0.1012   -0.5747   -1.3595 H   0  0  0  0  0  0  0  0  0  0  0  0
    1.2051   -1.8849    0.4929 H   0  0  0  0  0  0  0  0  0  0  0  0
    0.9992   -0.3651    1.5167 H   0  0  0  0  0  0  0  0  0  0  0  0
    2.6096   -0.7831   -0.7367 H   0  0  0  0  0  0  0  0  0  0  0  0
    0.9022    1.5698   -0.4805 H   0  0  0  0  0  0  0  0  0  0  0  0
   -0.2211    1.4974    0.9237 H   0  0  0  0  0  0  0  0  0  0  0  0
   -1.2333    2.7307   -0.4916 H   0  0  0  0  0  0  0  0  0  0  0  0
  1  2  1  0
  2  3  1  0
  3  4  1  0
  2  5  1  0
  5  6  1  0
  1  7  1  0
  1  8  1  0
  1  9  1  0
  2 10  1  0
  3 11  1  0
  3 12  1  0
  4 13  1  0
  5 14  1  0
  5 15  1  0
  6 16  1  0
M  END
