
     RDKit          3D

 20 20  0  0  0  0  0  0  0  0999 V2000
   -1.6918   -1.2242    0.2224 C   0  0  0  0  0  0  0  0  0  0  0  0
   -0.8766   -0.1319   -0.4737 C   0  0  0  0  0  0  0  0  0  0  0  0
   -1.7093    1.1158   -0.4423 C   0  0  0  0  0  0  0  0  0  0  0  0
    0.4038   -0.0049    0.3038 C   0  0  0  0  0  0  0  0  0  0  0  0
    1.3282    1.0463   -0.2649 C   0  0  0  0  0  0  0  0  0  0  0  0
    2.5661    0.5695    0.2125 O   0  0  0  0  0  0  0  0  0  0  0  0
    2.4564   -0.7776   -0.1306 C   0  0  0  0  0  0  0  0  0  0  0  0
    1.1456   -1.1574    0.1655 O   0  0  0  0  0  0  0  0  0  0  0  0
   -1.9351   -0.8106    1.2233 H   0  0  0  0  0  0  0  0  0  0  0  0
   -2.6268   -1.4196   -0.3238 H   0  0  0  0  0  0  0  0  0  0  0  0
   -1.0359   -2.1001    0.3339 H   0  0  0  0  0  0  0  0  0  0  0  0
   -0.6555   -0.4076   -1.5149 H   0  0  0  0  0  0  0  0  0  0  0  0
   -2.2258    1.2362   -1.4175 H   0  0  0  0  0  0  0  0  0  0  0  0
   -1.1287    2.0220   -0.1797 H   0  0  0  0  0  0  0  0  0  0  0  0
   -2.5360    1.0468    0.3223 H   0  0  0  0  0  0  0  0  0  0  0  0
    0.2367    0.2308    1.3568 H   0  0  0  0  0  0  0  0  0  0  0  0
    1.1057    2.0546    0.0877 H   0  0  0  0  0  0  0  0  0  0  0  0
    1.3948    0.9604   -1.3759 H   0  0  0  0  0  0  0  0  0  0  0  0
    3.1841   -1.4053    0.4207 H   0  0  0  0  0  0  0  0  0  0  0  0
    2.6000   -0.8431   -1.2418 H   0  0  0  0  0  0  0  0  0  0  0  0
  1  2  1  0
  2  3  1  0
  2  4  1  0
  4  5  1  0
  5  6  1  0
  6  7  1  0
  7  8  1  0
  8  4  1  0
  1  9  1  0
  1 10  1  0
  1 11  1  0
  2 12  1  0
  3 13  1  0
  3 14  1  0
  3 15  1  0
  4 16  1  0
  5 17  1  0
  5 18  1  0
  7 19  1  0
  7 20  1  0
M  END
