
     RDKit          3D

 25 25  0  0  0  0  0  0  0  0999 V2000
   -1.7719   -0.9370    0.7366 C   0  0  0  0  0  0  0  0  0  0  0  0
   -1.3872    0.1513   -0.2126 C   0  0  0  0  0  0  0  0  0  0  0  0
   -1.6190    1.4767    0.4585 C   0  0  0  0  0  0  0  0  0  0  0  0
   -0.0095    0.0080   -0.7850 C   0  0  0  0  0  0  0  0  0  0  0  0
    0.0242   -1.3247   -1.5351 C   0  0  0  0  0  0  0  0  0  0  0  0
    1.0734   -0.0338    0.2405 C   0  0  0  0  0  0  0  0  0  0  0  0
    0.9892   -1.0715    1.1564 O   0  0  0  0  0  0  0  0  0  0  0  0
    2.4804    0.2180   -0.3390 C   0  0  0  0  0  0  0  0  0  0  0  0
    1.8446    1.1636    0.6332 C   0  0  0  0  0  0  0  0  0  0  0  0
   -1.2716   -0.8690    1.7213 H   0  0  0  0  0  0  0  0  0  0  0  0
   -1.6176   -1.9595    0.3353 H   0  0  0  0  0  0  0  0  0  0  0  0
   -2.8843   -0.8322    0.9002 H   0  0  0  0  0  0  0  0  0  0  0  0
   -2.1019    0.1041   -1.0745 H   0  0  0  0  0  0  0  0  0  0  0  0
   -1.2121    1.5335    1.4836 H   0  0  0  0  0  0  0  0  0  0  0  0
   -1.3013    2.3278   -0.1821 H   0  0  0  0  0  0  0  0  0  0  0  0
   -2.7286    1.5907    0.5659 H   0  0  0  0  0  0  0  0  0  0  0  0
    0.1306    0.8235   -1.5230 H   0  0  0  0  0  0  0  0  0  0  0  0
   -0.8369   -1.4181   -2.2303 H   0  0  0  0  0  0  0  0  0  0  0  0
    0.0701   -2.1647   -0.8011 H   0  0  0  0  0  0  0  0  0  0  0  0
    0.9808   -1.3376   -2.0954 H   0  0  0  0  0  0  0  0  0  0  0  0
    1.4114   -0.8833    2.0105 H   0  0  0  0  0  0  0  0  0  0  0  0
    3.2929   -0.4618   -0.0117 H   0  0  0  0  0  0  0  0  0  0  0  0
    2.5529    0.5636   -1.3821 H   0  0  0  0  0  0  0  0  0  0  0  0
    2.2759    1.1589    1.6605 H   0  0  0  0  0  0  0  0  0  0  0  0
    1.6155    2.1737    0.2695 H   0  0  0  0  0  0  0  0  0  0  0  0
  1  2  1  0
  2  3  1  0
  2  4  1  0
  4  5  1  0
  4  6  1  0
  6  7  1  0
  6  8  1  0
  8  9  1  0
  9  6  1  0
  1 10  1  0
  1 11  1  0
  1 12  1  0
  2 13  1  0
  3 14  1  0
  3 15  1  0
  3 16  1  0
  4 17  1  0
  5 18  1  0
  5 19  1  0
  5 20  1  0
  7 21  1  0
  8 22  1  0
  8 23  1  0
  9 24  1  0
  9 25  1  0
M  END
