
     RDKit          3D

 18 18  0  0  0  0  0  0  0  0999 V2000
   -0.8148   -0.5583   -1.1722 C   0  0  0  0  0  0  0  0  0  0  0  0
   -0.3500   -0.0849    0.1946 C   0  0  0  0  0  0  0  0  0  0  0  0
   -0.7689    1.3627    0.3161 C   0  0  0  0  0  0  0  0  0  0  0  0
   -1.1162   -0.8554    1.1959 C   0  0  0  0  0  0  0  0  0  0  0  0
   -1.4135   -2.0175    1.0370 O   0  0  0  0  0  0  0  0  0  0  0  0
    1.1048   -0.2865    0.4195 C   0  0  0  0  0  0  0  0  0  0  0  0
    2.1615    0.2794   -0.3606 C   0  0  0  0  0  0  0  0  0  0  0  0
    1.7367   -1.0427   -0.6560 O   0  0  0  0  0  0  0  0  0  0  0  0
   -0.4834    0.0826   -1.9899 H   0  0  0  0  0  0  0  0  0  0  0  0
   -0.5633   -1.6131   -1.2621 H   0  0  0  0  0  0  0  0  0  0  0  0
   -1.9355   -0.4898   -1.1474 H   0  0  0  0  0  0  0  0  0  0  0  0
   -0.0637    2.0354   -0.2052 H   0  0  0  0  0  0  0  0  0  0  0  0
   -0.8799    1.5849    1.3929 H   0  0  0  0  0  0  0  0  0  0  0  0
   -1.7729    1.4462   -0.1502 H   0  0  0  0  0  0  0  0  0  0  0  0
   -1.4285   -0.3773    2.1063 H   0  0  0  0  0  0  0  0  0  0  0  0
    1.3796   -0.7753    1.3864 H   0  0  0  0  0  0  0  0  0  0  0  0
    3.1849    0.2938    0.0645 H   0  0  0  0  0  0  0  0  0  0  0  0
    2.0231    1.0157   -1.1695 H   0  0  0  0  0  0  0  0  0  0  0  0
  1  2  1  0
  2  3  1  0
  2  4  1  0
  4  5  2  0
  2  6  1  0
  6  7  1  0
  7  8  1  0
  8  6  1  0
  1  9  1  0
  1 10  1  0
  1 11  1  0
  3 12  1  0
  3 13  1  0
  3 14  1  0
  4 15  1  0
  6 16  1  0
  7 17  1  0
  7 18  1  0
M  END
