
     RDKit          3D

 25 26  0  0  0  0  0  0  0  0999 V2000
   -1.8253   -0.0764    1.3289 C   0  0  0  0  0  0  0  0  0  0  0  0
   -1.1664   -0.0318   -0.0105 C   0  0  0  0  0  0  0  0  0  0  0  0
   -0.9854    1.3933   -0.4474 C   0  0  0  0  0  0  0  0  0  0  0  0
   -2.0860   -0.6894   -1.0207 C   0  0  0  0  0  0  0  0  0  0  0  0
    0.1433   -0.8183   -0.0427 C   0  0  0  0  0  0  0  0  0  0  0  0
    1.2567   -0.5113    0.8008 C   0  0  0  0  0  0  0  0  0  0  0  0
    2.7374   -0.5572    0.4444 C   0  0  0  0  0  0  0  0  0  0  0  0
    2.2875    0.7371   -0.2779 C   0  0  0  0  0  0  0  0  0  0  0  0
    1.2239   -0.2166   -0.7608 C   0  0  0  0  0  0  0  0  0  0  0  0
   -1.6029   -0.9967    1.9022 H   0  0  0  0  0  0  0  0  0  0  0  0
   -2.9273   -0.0317    1.2001 H   0  0  0  0  0  0  0  0  0  0  0  0
   -1.5465    0.8472    1.8934 H   0  0  0  0  0  0  0  0  0  0  0  0
    0.0157    1.6162   -0.8299 H   0  0  0  0  0  0  0  0  0  0  0  0
   -1.1670    2.0696    0.4162 H   0  0  0  0  0  0  0  0  0  0  0  0
   -1.6947    1.6851   -1.2729 H   0  0  0  0  0  0  0  0  0  0  0  0
   -2.3823   -1.6757   -0.5798 H   0  0  0  0  0  0  0  0  0  0  0  0
   -2.9480   -0.0690   -1.2849 H   0  0  0  0  0  0  0  0  0  0  0  0
   -1.4575   -0.9507   -1.9197 H   0  0  0  0  0  0  0  0  0  0  0  0
   -0.1067   -1.9244   -0.0556 H   0  0  0  0  0  0  0  0  0  0  0  0
    1.0892    0.4194    1.4289 H   0  0  0  0  0  0  0  0  0  0  0  0
    3.0104   -1.3394   -0.2727 H   0  0  0  0  0  0  0  0  0  0  0  0
    3.3789   -0.3918    1.3012 H   0  0  0  0  0  0  0  0  0  0  0  0
    2.0226    1.4475    0.4944 H   0  0  0  0  0  0  0  0  0  0  0  0
    2.9545    1.0699   -1.0642 H   0  0  0  0  0  0  0  0  0  0  0  0
    1.7758   -1.0051   -1.3705 H   0  0  0  0  0  0  0  0  0  0  0  0
  1  2  1  0
  2  3  1  0
  2  4  1  0
  2  5  1  0
  5  6  1  0
  6  7  1  0
  7  8  1  0
  8  9  1  0
  9  5  1  0
  9  6  1  0
  1 10  1  0
  1 11  1  0
  1 12  1  0
  3 13  1  0
  3 14  1  0
  3 15  1  0
  4 16  1  0
  4 17  1  0
  4 18  1  0
  5 19  1  0
  6 20  1  0
  7 21  1  0
  7 22  1  0
  8 23  1  0
  8 24  1  0
  9 25  1  0
M  END
