
     RDKit          3D

 23 24  0  0  0  0  0  0  0  0999 V2000
   -1.6909    0.5303   -1.1743 C   0  0  0  0  0  0  0  0  0  0  0  0
   -1.4584    0.7135    0.2889 C   0  0  0  0  0  0  0  0  0  0  0  0
   -2.3770   -0.2341    1.0557 C   0  0  0  0  0  0  0  0  0  0  0  0
   -0.0654    0.4581    0.7341 C   0  0  0  0  0  0  0  0  0  0  0  0
    0.9344    1.2283    0.1911 O   0  0  0  0  0  0  0  0  0  0  0  0
    1.7323    0.1624   -0.1581 C   0  0  0  0  0  0  0  0  0  0  0  0
    2.3984    0.1252   -1.4987 C   0  0  0  0  0  0  0  0  0  0  0  0
    1.9860   -0.9717    0.7723 C   0  0  0  0  0  0  0  0  0  0  0  0
    0.6247   -0.7556    0.1941 C   0  0  0  0  0  0  0  0  0  0  0  0
   -1.1678    1.2744   -1.7871 H   0  0  0  0  0  0  0  0  0  0  0  0
   -2.7869    0.6964   -1.3560 H   0  0  0  0  0  0  0  0  0  0  0  0
   -1.4920   -0.5029   -1.5212 H   0  0  0  0  0  0  0  0  0  0  0  0
   -1.7343    1.7552    0.5515 H   0  0  0  0  0  0  0  0  0  0  0  0
   -1.8846   -1.2363    1.0025 H   0  0  0  0  0  0  0  0  0  0  0  0
   -2.4032    0.1459    2.1145 H   0  0  0  0  0  0  0  0  0  0  0  0
   -3.3907   -0.2582    0.6594 H   0  0  0  0  0  0  0  0  0  0  0  0
   -0.0008    0.4667    1.8438 H   0  0  0  0  0  0  0  0  0  0  0  0
    1.7482    0.3532   -2.3410 H   0  0  0  0  0  0  0  0  0  0  0  0
    3.3009    0.8010   -1.4486 H   0  0  0  0  0  0  0  0  0  0  0  0
    2.8264   -0.8941   -1.6531 H   0  0  0  0  0  0  0  0  0  0  0  0
    2.5964   -1.7851    0.3829 H   0  0  0  0  0  0  0  0  0  0  0  0
    2.1004   -0.6954    1.8609 H   0  0  0  0  0  0  0  0  0  0  0  0
    0.2040   -1.3772   -0.5831 H   0  0  0  0  0  0  0  0  0  0  0  0
  1  2  1  0
  2  3  1  0
  2  4  1  0
  4  5  1  0
  5  6  1  0
  6  7  1  0
  6  8  1  0
  8  9  1  0
  9  4  1  0
  9  6  1  0
  1 10  1  0
  1 11  1  0
  1 12  1  0
  2 13  1  0
  3 14  1  0
  3 15  1  0
  3 16  1  0
  4 17  1  0
  7 18  1  0
  7 19  1  0
  7 20  1  0
  8 21  1  0
  8 22  1  0
  9 23  1  0
M  END
