
     RDKit          3D

 21 21  0  0  0  0  0  0  0  0999 V2000
    2.4114   -0.6636    0.8051 C   0  0  0  0  0  0  0  0  0  0  0  0
    1.5825    0.3540    0.0073 C   0  0  0  0  0  0  0  0  0  0  0  0
    2.3750    0.9407   -1.0891 C   0  0  0  0  0  0  0  0  0  0  0  0
    3.4039    1.5506   -0.8837 O   0  0  0  0  0  0  0  0  0  0  0  0
    0.4523   -0.2973   -0.4185 O   0  0  0  0  0  0  0  0  0  0  0  0
   -0.7168    0.1510    0.1431 C   0  0  0  0  0  0  0  0  0  0  0  0
   -1.6286   -0.9529    0.6963 C   0  0  0  0  0  0  0  0  0  0  0  0
   -2.8023   -0.0928    0.2099 C   0  0  0  0  0  0  0  0  0  0  0  0
   -1.8413    0.4413   -0.8607 C   0  0  0  0  0  0  0  0  0  0  0  0
    1.6904   -1.1557    1.4847 H   0  0  0  0  0  0  0  0  0  0  0  0
    2.7868   -1.4300    0.1018 H   0  0  0  0  0  0  0  0  0  0  0  0
    3.2504   -0.1809    1.3293 H   0  0  0  0  0  0  0  0  0  0  0  0
    1.3428    1.1596    0.7599 H   0  0  0  0  0  0  0  0  0  0  0  0
    2.0432    0.8331   -2.1113 H   0  0  0  0  0  0  0  0  0  0  0  0
   -0.6559    0.9671    0.8637 H   0  0  0  0  0  0  0  0  0  0  0  0
   -1.5915   -1.8587    0.0567 H   0  0  0  0  0  0  0  0  0  0  0  0
   -1.5724   -1.0927    1.7729 H   0  0  0  0  0  0  0  0  0  0  0  0
   -3.0345    0.7497    0.9073 H   0  0  0  0  0  0  0  0  0  0  0  0
   -3.6553   -0.6543   -0.1766 H   0  0  0  0  0  0  0  0  0  0  0  0
   -1.8479   -0.2611   -1.7296 H   0  0  0  0  0  0  0  0  0  0  0  0
   -1.9923    1.4929   -1.0931 H   0  0  0  0  0  0  0  0  0  0  0  0
  1  2  1  0
  2  3  1  0
  3  4  2  0
  2  5  1  0
  5  6  1  0
  6  7  1  0
  7  8  1  0
  8  9  1  0
  9  6  1  0
  1 10  1  0
  1 11  1  0
  1 12  1  0
  2 13  1  0
  3 14  1  0
  6 15  1  0
  7 16  1  0
  7 17  1  0
  8 18  1  0
  8 19  1  0
  9 20  1  0
  9 21  1  0
M  END
