
     RDKit          3D

 21 20  0  0  0  0  0  0  0  0999 V2000
   -1.4981   -1.2154   -0.2760 C   0  0  0  0  0  0  0  0  0  0  0  0
   -0.8062   -0.0462    0.3605 C   0  0  0  0  0  0  0  0  0  0  0  0
   -1.4389    1.2748    0.0516 C   0  0  0  0  0  0  0  0  0  0  0  0
    0.6137   -0.0111   -0.1862 C   0  0  0  0  0  0  0  0  0  0  0  0
    1.2565   -1.3360    0.2031 C   0  0  0  0  0  0  0  0  0  0  0  0
    1.4314    1.0888    0.4581 C   0  0  0  0  0  0  0  0  0  0  0  0
    0.6033    0.1584   -1.5548 O   0  0  0  0  0  0  0  0  0  0  0  0
   -2.2694   -0.9569   -0.9976 H   0  0  0  0  0  0  0  0  0  0  0  0
   -1.9568   -1.8880    0.5029 H   0  0  0  0  0  0  0  0  0  0  0  0
   -0.7732   -1.8919   -0.8154 H   0  0  0  0  0  0  0  0  0  0  0  0
   -0.7374   -0.2195    1.4630 H   0  0  0  0  0  0  0  0  0  0  0  0
   -0.9660    1.7265   -0.8610 H   0  0  0  0  0  0  0  0  0  0  0  0
   -2.5285    1.2521   -0.0379 H   0  0  0  0  0  0  0  0  0  0  0  0
   -1.1866    1.9640    0.9078 H   0  0  0  0  0  0  0  0  0  0  0  0
    0.6948   -1.8253    1.0251 H   0  0  0  0  0  0  0  0  0  0  0  0
    1.2916   -1.9786   -0.7128 H   0  0  0  0  0  0  0  0  0  0  0  0
    2.3080   -1.1664    0.5072 H   0  0  0  0  0  0  0  0  0  0  0  0
    2.4959    0.8876    0.1649 H   0  0  0  0  0  0  0  0  0  0  0  0
    1.1710    2.0868    0.0771 H   0  0  0  0  0  0  0  0  0  0  0  0
    1.3878    1.0421    1.5584 H   0  0  0  0  0  0  0  0  0  0  0  0
    0.9072    1.0542   -1.8381 H   0  0  0  0  0  0  0  0  0  0  0  0
  1  2  1  0
  2  3  1  0
  2  4  1  0
  4  5  1  0
  4  6  1  0
  4  7  1  0
  1  8  1  0
  1  9  1  0
  1 10  1  0
  2 11  1  0
  3 12  1  0
  3 13  1  0
  3 14  1  0
  5 15  1  0
  5 16  1  0
  5 17  1  0
  6 18  1  0
  6 19  1  0
  6 20  1  0
  7 21  1  0
M  END
