
     RDKit          3D

 18 18  0  0  0  0  0  0  0  0999 V2000
   -1.0649    1.1067    0.6658 C   0  0  0  0  0  0  0  0  0  0  0  0
   -0.7226    0.0997   -0.3736 C   0  0  0  0  0  0  0  0  0  0  0  0
   -1.8057   -0.9555   -0.4115 C   0  0  0  0  0  0  0  0  0  0  0  0
    0.6474   -0.4792   -0.2468 C   0  0  0  0  0  0  0  0  0  0  0  0
    1.7946    0.4965   -0.3305 C   0  0  0  0  0  0  0  0  0  0  0  0
    2.3726   -0.4813    0.6096 C   0  0  0  0  0  0  0  0  0  0  0  0
    3.4956   -0.9243    0.8846 O   0  0  0  0  0  0  0  0  0  0  0  0
    1.0992   -0.7143    1.0810 O   0  0  0  0  0  0  0  0  0  0  0  0
   -1.4189    0.6192    1.6023 H   0  0  0  0  0  0  0  0  0  0  0  0
   -1.9047    1.7447    0.2889 H   0  0  0  0  0  0  0  0  0  0  0  0
   -0.2472    1.7868    0.9306 H   0  0  0  0  0  0  0  0  0  0  0  0
   -0.7691    0.6162   -1.3737 H   0  0  0  0  0  0  0  0  0  0  0  0
   -1.6620   -1.5982   -1.3164 H   0  0  0  0  0  0  0  0  0  0  0  0
   -2.7824   -0.4326   -0.4947 H   0  0  0  0  0  0  0  0  0  0  0  0
   -1.8198   -1.5622    0.5083 H   0  0  0  0  0  0  0  0  0  0  0  0
    0.8626   -1.3531   -0.8944 H   0  0  0  0  0  0  0  0  0  0  0  0
    1.6321    1.4626    0.1898 H   0  0  0  0  0  0  0  0  0  0  0  0
    2.2930    0.5683   -1.3194 H   0  0  0  0  0  0  0  0  0  0  0  0
  1  2  1  0
  2  3  1  0
  2  4  1  0
  4  5  1  0
  5  6  1  0
  6  7  2  0
  6  8  1  0
  8  4  1  0
  1  9  1  0
  1 10  1  0
  1 11  1  0
  2 12  1  0
  3 13  1  0
  3 14  1  0
  3 15  1  0
  4 16  1  0
  5 17  1  0
  5 18  1  0
M  END
