
     RDKit          3D

 18 17  0  0  0  0  0  0  0  0999 V2000
   -0.1216    0.9783   -1.0755 C   0  0  0  0  0  0  0  0  0  0  0  0
   -0.0273   -0.1158   -0.0402 C   0  0  0  0  0  0  0  0  0  0  0  0
    0.1025    0.5463    1.3081 C   0  0  0  0  0  0  0  0  0  0  0  0
    1.2443   -0.9029   -0.2831 C   0  0  0  0  0  0  0  0  0  0  0  0
    2.3624   -0.0610   -0.2304 O   0  0  0  0  0  0  0  0  0  0  0  0
   -1.1050   -1.0157   -0.1062 O   0  0  0  0  0  0  0  0  0  0  0  0
   -2.4232   -0.6710    0.0572 C   0  0  0  0  0  0  0  0  0  0  0  0
   -2.7023    0.5333    0.2830 O   0  0  0  0  0  0  0  0  0  0  0  0
    0.8529    1.5134   -1.0994 H   0  0  0  0  0  0  0  0  0  0  0  0
   -0.3502    0.5254   -2.0734 H   0  0  0  0  0  0  0  0  0  0  0  0
   -0.8995    1.7294   -0.7944 H   0  0  0  0  0  0  0  0  0  0  0  0
   -0.1654   -0.1141    2.1399 H   0  0  0  0  0  0  0  0  0  0  0  0
    1.1754    0.8088    1.4347 H   0  0  0  0  0  0  0  0  0  0  0  0
   -0.4449    1.5258    1.3317 H   0  0  0  0  0  0  0  0  0  0  0  0
    1.2983   -1.6796    0.5311 H   0  0  0  0  0  0  0  0  0  0  0  0
    1.2208   -1.4752   -1.2288 H   0  0  0  0  0  0  0  0  0  0  0  0
    3.1474   -0.6731   -0.1386 H   0  0  0  0  0  0  0  0  0  0  0  0
   -3.1646   -1.4523   -0.0157 H   0  0  0  0  0  0  0  0  0  0  0  0
  1  2  1  0
  2  3  1  0
  2  4  1  0
  4  5  1  0
  2  6  1  0
  6  7  1  0
  7  8  2  0
  1  9  1  0
  1 10  1  0
  1 11  1  0
  3 12  1  0
  3 13  1  0
  3 14  1  0
  4 15  1  0
  4 16  1  0
  5 17  1  0
  7 18  1  0
M  END
