
     RDKit          3D

 23 22  0  0  0  0  0  0  0  0999 V2000
    1.4571   -0.4756    1.1406 C   0  0  0  0  0  0  0  0  0  0  0  0
    0.7100   -0.4273   -0.1475 C   0  0  0  0  0  0  0  0  0  0  0  0
    1.5317    0.3022   -1.1774 C   0  0  0  0  0  0  0  0  0  0  0  0
    0.5749   -1.7511   -0.6050 O   0  0  0  0  0  0  0  0  0  0  0  0
   -0.6847    0.1293   -0.0189 C   0  0  0  0  0  0  0  0  0  0  0  0
   -1.4886   -0.7332    0.9362 C   0  0  0  0  0  0  0  0  0  0  0  0
   -0.6867    1.5155    0.6007 C   0  0  0  0  0  0  0  0  0  0  0  0
   -1.4094    0.1256   -1.3196 C   0  0  0  0  0  0  0  0  0  0  0  0
   -2.4944   -0.4130   -1.4733 O   0  0  0  0  0  0  0  0  0  0  0  0
    0.9359    0.0136    1.9860 H   0  0  0  0  0  0  0  0  0  0  0  0
    2.4572    0.0278    1.0739 H   0  0  0  0  0  0  0  0  0  0  0  0
    1.6789   -1.5138    1.4792 H   0  0  0  0  0  0  0  0  0  0  0  0
    0.9571    1.0004   -1.7922 H   0  0  0  0  0  0  0  0  0  0  0  0
    2.0348   -0.4099   -1.8941 H   0  0  0  0  0  0  0  0  0  0  0  0
    2.3798    0.8733   -0.7182 H   0  0  0  0  0  0  0  0  0  0  0  0
    0.3513   -1.7564   -1.5608 H   0  0  0  0  0  0  0  0  0  0  0  0
   -0.9199   -0.8394    1.8900 H   0  0  0  0  0  0  0  0  0  0  0  0
   -1.6549   -1.6950    0.4339 H   0  0  0  0  0  0  0  0  0  0  0  0
   -2.4298   -0.1684    1.1391 H   0  0  0  0  0  0  0  0  0  0  0  0
   -1.7045    1.9515    0.3871 H   0  0  0  0  0  0  0  0  0  0  0  0
   -0.6336    1.4401    1.7033 H   0  0  0  0  0  0  0  0  0  0  0  0
    0.0388    2.1924    0.1502 H   0  0  0  0  0  0  0  0  0  0  0  0
   -1.0008    0.6113   -2.2130 H   0  0  0  0  0  0  0  0  0  0  0  0
  1  2  1  0
  2  3  1  0
  2  4  1  0
  2  5  1  0
  5  6  1  0
  5  7  1  0
  5  8  1  0
  8  9  2  0
  1 10  1  0
  1 11  1  0
  1 12  1  0
  3 13  1  0
  3 14  1  0
  3 15  1  0
  4 16  1  0
  6 17  1  0
  6 18  1  0
  6 19  1  0
  7 20  1  0
  7 21  1  0
  7 22  1  0
  8 23  1  0
M  END
