
     RDKit          3D

 21 22  0  0  0  0  0  0  0  0999 V2000
   -1.3414    0.2769    1.3221 C   0  0  0  0  0  0  0  0  0  0  0  0
   -0.9454   -0.4323    0.0757 C   0  0  0  0  0  0  0  0  0  0  0  0
   -1.8094    0.1128   -1.0663 C   0  0  0  0  0  0  0  0  0  0  0  0
    0.4839   -0.2753   -0.3093 C   0  0  0  0  0  0  0  0  0  0  0  0
    0.9983    1.0882   -0.5727 C   0  0  0  0  0  0  0  0  0  0  0  0
    2.2792    0.7519    0.1037 C   0  0  0  0  0  0  0  0  0  0  0  0
    3.3738    1.2517    0.2021 O   0  0  0  0  0  0  0  0  0  0  0  0
    1.6080   -0.4787    0.6063 C   0  0  0  0  0  0  0  0  0  0  0  0
    1.2979   -1.4931   -0.4146 C   0  0  0  0  0  0  0  0  0  0  0  0
   -2.2867    0.8787    1.1937 H   0  0  0  0  0  0  0  0  0  0  0  0
   -1.5751   -0.4377    2.1496 H   0  0  0  0  0  0  0  0  0  0  0  0
   -0.5401    0.9499    1.6872 H   0  0  0  0  0  0  0  0  0  0  0  0
   -1.2033   -1.4955    0.1678 H   0  0  0  0  0  0  0  0  0  0  0  0
   -2.8441   -0.2478   -0.8419 H   0  0  0  0  0  0  0  0  0  0  0  0
   -1.4772   -0.2686   -2.0356 H   0  0  0  0  0  0  0  0  0  0  0  0
   -1.8498    1.2304   -1.0352 H   0  0  0  0  0  0  0  0  0  0  0  0
    1.0659    1.4468   -1.5946 H   0  0  0  0  0  0  0  0  0  0  0  0
    0.4535    1.8375    0.0692 H   0  0  0  0  0  0  0  0  0  0  0  0
    1.5225   -0.6735    1.6754 H   0  0  0  0  0  0  0  0  0  0  0  0
    1.9237   -1.5914   -1.3174 H   0  0  0  0  0  0  0  0  0  0  0  0
    0.8659   -2.4307   -0.0652 H   0  0  0  0  0  0  0  0  0  0  0  0
  1  2  1  0
  2  3  1  0
  2  4  1  0
  4  5  1  0
  5  6  1  0
  6  7  2  0
  6  8  1  0
  8  9  1  0
  8  4  1  0
  9  4  1  0
  1 10  1  0
  1 11  1  0
  1 12  1  0
  2 13  1  0
  3 14  1  0
  3 15  1  0
  3 16  1  0
  5 17  1  0
  5 18  1  0
  8 19  1  0
  9 20  1  0
  9 21  1  0
M  END
