
     RDKit          3D

 21 22  0  0  0  0  0  0  0  0999 V2000
    1.3996   -1.4122   -0.3571 C   0  0  0  0  0  0  0  0  0  0  0  0
    0.4536   -0.3994    0.2602 C   0  0  0  0  0  0  0  0  0  0  0  0
   -0.8405   -0.3612   -0.5320 C   0  0  0  0  0  0  0  0  0  0  0  0
   -1.7918    0.6261    0.0505 C   0  0  0  0  0  0  0  0  0  0  0  0
   -2.7159   -0.5575    0.0393 C   0  0  0  0  0  0  0  0  0  0  0  0
   -1.6896   -1.4354   -0.2838 O   0  0  0  0  0  0  0  0  0  0  0  0
    1.0223    0.9789    0.2695 C   0  0  0  0  0  0  0  0  0  0  0  0
    2.2317    1.3650    0.9282 C   0  0  0  0  0  0  0  0  0  0  0  0
    2.2198    1.1380   -0.4642 O   0  0  0  0  0  0  0  0  0  0  0  0
    0.7975   -2.0757   -1.0120 H   0  0  0  0  0  0  0  0  0  0  0  0
    2.2237   -0.9265   -0.9242 H   0  0  0  0  0  0  0  0  0  0  0  0
    1.8570   -2.0730    0.4176 H   0  0  0  0  0  0  0  0  0  0  0  0
    0.2780   -0.7274    1.3005 H   0  0  0  0  0  0  0  0  0  0  0  0
   -0.7147   -0.2252   -1.6077 H   0  0  0  0  0  0  0  0  0  0  0  0
   -1.5715    0.9729    1.0846 H   0  0  0  0  0  0  0  0  0  0  0  0
   -2.0759    1.4737   -0.6084 H   0  0  0  0  0  0  0  0  0  0  0  0
   -3.1267   -0.8465    1.0469 H   0  0  0  0  0  0  0  0  0  0  0  0
   -3.4956   -0.4210   -0.7299 H   0  0  0  0  0  0  0  0  0  0  0  0
    0.2462    1.7880    0.1387 H   0  0  0  0  0  0  0  0  0  0  0  0
    2.3937    2.4299    1.1850 H   0  0  0  0  0  0  0  0  0  0  0  0
    2.8991    0.6886    1.5175 H   0  0  0  0  0  0  0  0  0  0  0  0
  1  2  1  0
  2  3  1  0
  3  4  1  0
  4  5  1  0
  5  6  1  0
  2  7  1  0
  7  8  1  0
  8  9  1  0
  6  3  1  0
  9  7  1  0
  1 10  1  0
  1 11  1  0
  1 12  1  0
  2 13  1  0
  3 14  1  0
  4 15  1  0
  4 16  1  0
  5 17  1  0
  5 18  1  0
  7 19  1  0
  8 20  1  0
  8 21  1  0
M  END
