
     RDKit          3D

 22 21  0  0  0  0  0  0  0  0999 V2000
    1.4956   -1.1604   -0.8101 C   0  0  0  0  0  0  0  0  0  0  0  0
    0.8764    0.1527   -0.4850 C   0  0  0  0  0  0  0  0  0  0  0  0
    1.7114    0.8393    0.5359 C   0  0  0  0  0  0  0  0  0  0  0  0
    1.6083    0.6283    1.7324 O   0  0  0  0  0  0  0  0  0  0  0  0
   -0.5190    0.0841    0.0310 C   0  0  0  0  0  0  0  0  0  0  0  0
   -0.9653    1.5272    0.3008 C   0  0  0  0  0  0  0  0  0  0  0  0
   -1.4911   -0.4719   -0.9831 C   0  0  0  0  0  0  0  0  0  0  0  0
   -0.6582   -0.6883    1.2951 C   0  0  0  0  0  0  0  0  0  0  0  0
    2.3731   -0.9663   -1.4820 H   0  0  0  0  0  0  0  0  0  0  0  0
    0.8482   -1.8658   -1.3328 H   0  0  0  0  0  0  0  0  0  0  0  0
    1.9519   -1.5952    0.1213 H   0  0  0  0  0  0  0  0  0  0  0  0
    0.8796    0.7886   -1.3905 H   0  0  0  0  0  0  0  0  0  0  0  0
    2.4697    1.5787    0.2478 H   0  0  0  0  0  0  0  0  0  0  0  0
   -0.0791    2.1334    0.6116 H   0  0  0  0  0  0  0  0  0  0  0  0
   -1.7699    1.5601    1.0463 H   0  0  0  0  0  0  0  0  0  0  0  0
   -1.2821    1.9559   -0.6809 H   0  0  0  0  0  0  0  0  0  0  0  0
   -1.5096    0.1383   -1.9179 H   0  0  0  0  0  0  0  0  0  0  0  0
   -1.3374   -1.5233   -1.2200 H   0  0  0  0  0  0  0  0  0  0  0  0
   -2.5076   -0.3637   -0.5397 H   0  0  0  0  0  0  0  0  0  0  0  0
    0.2739   -1.2759    1.4937 H   0  0  0  0  0  0  0  0  0  0  0  0
   -0.8635   -0.0512    2.1834 H   0  0  0  0  0  0  0  0  0  0  0  0
   -1.5053   -1.4246    1.2427 H   0  0  0  0  0  0  0  0  0  0  0  0
  1  2  1  0
  2  3  1  0
  3  4  2  0
  2  5  1  0
  5  6  1  0
  5  7  1  0
  5  8  1  0
  1  9  1  0
  1 10  1  0
  1 11  1  0
  2 12  1  0
  3 13  1  0
  6 14  1  0
  6 15  1  0
  6 16  1  0
  7 17  1  0
  7 18  1  0
  7 19  1  0
  8 20  1  0
  8 21  1  0
  8 22  1  0
M  END
