
     RDKit          3D

 20 20  0  0  0  0  0  0  0  0999 V2000
   -1.4652   -1.1659    0.4561 C   0  0  0  0  0  0  0  0  0  0  0  0
   -0.9508    0.0060   -0.3195 C   0  0  0  0  0  0  0  0  0  0  0  0
   -1.9532    1.1320   -0.1827 C   0  0  0  0  0  0  0  0  0  0  0  0
    0.3710    0.5252    0.2114 C   0  0  0  0  0  0  0  0  0  0  0  0
    0.7537    1.5905   -0.5616 O   0  0  0  0  0  0  0  0  0  0  0  0
    1.3993   -0.5405    0.3697 C   0  0  0  0  0  0  0  0  0  0  0  0
    2.7571   -0.4627   -0.0940 C   0  0  0  0  0  0  0  0  0  0  0  0
    1.8003   -1.1243   -0.8544 O   0  0  0  0  0  0  0  0  0  0  0  0
   -2.2530   -1.6610   -0.1734 H   0  0  0  0  0  0  0  0  0  0  0  0
   -0.7041   -1.9441    0.6475 H   0  0  0  0  0  0  0  0  0  0  0  0
   -1.9630   -0.8243    1.3679 H   0  0  0  0  0  0  0  0  0  0  0  0
   -0.8324   -0.2482   -1.3743 H   0  0  0  0  0  0  0  0  0  0  0  0
   -2.7718    1.0556   -0.9217 H   0  0  0  0  0  0  0  0  0  0  0  0
   -1.4281    2.0775   -0.3472 H   0  0  0  0  0  0  0  0  0  0  0  0
   -2.3411    1.1477    0.8595 H   0  0  0  0  0  0  0  0  0  0  0  0
    0.1474    0.9219    1.2452 H   0  0  0  0  0  0  0  0  0  0  0  0
    1.5236    1.4538   -1.1328 H   0  0  0  0  0  0  0  0  0  0  0  0
    1.1717   -1.2592    1.2069 H   0  0  0  0  0  0  0  0  0  0  0  0
    3.2287    0.4626   -0.4974 H   0  0  0  0  0  0  0  0  0  0  0  0
    3.5100   -1.1427    0.3623 H   0  0  0  0  0  0  0  0  0  0  0  0
  1  2  1  0
  2  3  1  0
  2  4  1  0
  4  5  1  0
  4  6  1  0
  6  7  1  0
  7  8  1  0
  8  6  1  0
  1  9  1  0
  1 10  1  0
  1 11  1  0
  2 12  1  0
  3 13  1  0
  3 14  1  0
  3 15  1  0
  4 16  1  0
  5 17  1  0
  6 18  1  0
  7 19  1  0
  7 20  1  0
M  END
