
     RDKit          3D

 23 23  0  0  0  0  0  0  0  0999 V2000
   -2.2841    0.0892    0.7172 C   0  0  0  0  0  0  0  0  0  0  0  0
   -1.3591   -0.0788   -0.4583 C   0  0  0  0  0  0  0  0  0  0  0  0
   -2.1477    0.1387   -1.7241 C   0  0  0  0  0  0  0  0  0  0  0  0
   -0.2124    0.6692   -0.3832 O   0  0  0  0  0  0  0  0  0  0  0  0
    0.9562   -0.0237   -0.3385 C   0  0  0  0  0  0  0  0  0  0  0  0
    1.8676    0.3828   -1.4789 C   0  0  0  0  0  0  0  0  0  0  0  0
    1.6965    0.3688    0.9429 C   0  0  0  0  0  0  0  0  0  0  0  0
    2.1089   -0.6668    1.8469 C   0  0  0  0  0  0  0  0  0  0  0  0
    0.9569    0.0789    2.1575 O   0  0  0  0  0  0  0  0  0  0  0  0
   -2.9606   -0.8119    0.7123 H   0  0  0  0  0  0  0  0  0  0  0  0
   -1.7504    0.0496    1.6780 H   0  0  0  0  0  0  0  0  0  0  0  0
   -2.9614    0.9579    0.6261 H   0  0  0  0  0  0  0  0  0  0  0  0
   -1.0483   -1.1577   -0.4658 H   0  0  0  0  0  0  0  0  0  0  0  0
   -1.7977   -0.4892   -2.5694 H   0  0  0  0  0  0  0  0  0  0  0  0
   -2.2115    1.2180   -1.9985 H   0  0  0  0  0  0  0  0  0  0  0  0
   -3.1966   -0.1806   -1.5238 H   0  0  0  0  0  0  0  0  0  0  0  0
    0.8527   -1.1234   -0.3674 H   0  0  0  0  0  0  0  0  0  0  0  0
    1.3675    0.3761   -2.4529 H   0  0  0  0  0  0  0  0  0  0  0  0
    2.7441   -0.3295   -1.4756 H   0  0  0  0  0  0  0  0  0  0  0  0
    2.3022    1.3716   -1.2058 H   0  0  0  0  0  0  0  0  0  0  0  0
    2.1245    1.3781    1.0056 H   0  0  0  0  0  0  0  0  0  0  0  0
    1.9534   -1.7362    1.6298 H   0  0  0  0  0  0  0  0  0  0  0  0
    2.9994   -0.4812    2.4942 H   0  0  0  0  0  0  0  0  0  0  0  0
  1  2  1  0
  2  3  1  0
  2  4  1  0
  4  5  1  0
  5  6  1  0
  5  7  1  0
  7  8  1  0
  8  9  1  0
  9  7  1  0
  1 10  1  0
  1 11  1  0
  1 12  1  0
  2 13  1  0
  3 14  1  0
  3 15  1  0
  3 16  1  0
  5 17  1  0
  6 18  1  0
  6 19  1  0
  6 20  1  0
  7 21  1  0
  8 22  1  0
  8 23  1  0
M  END
