
     RDKit          3D

 23 23  0  0  0  0  0  0  0  0999 V2000
   -1.9205    1.3208   -0.7041 C   0  0  0  0  0  0  0  0  0  0  0  0
   -1.5129   -0.0550   -0.2025 C   0  0  0  0  0  0  0  0  0  0  0  0
   -2.7884   -0.7430    0.3014 C   0  0  0  0  0  0  0  0  0  0  0  0
   -0.6851    0.0778    0.8987 O   0  0  0  0  0  0  0  0  0  0  0  0
    0.4908   -0.5961    0.7072 C   0  0  0  0  0  0  0  0  0  0  0  0
    1.2991   -0.1294   -0.4730 C   0  0  0  0  0  0  0  0  0  0  0  0
    2.5997   -0.9060   -0.6500 C   0  0  0  0  0  0  0  0  0  0  0  0
    2.6180    0.5208   -0.2861 C   0  0  0  0  0  0  0  0  0  0  0  0
    3.0346    0.9057    0.9841 O   0  0  0  0  0  0  0  0  0  0  0  0
   -1.9153    2.0145    0.1536 H   0  0  0  0  0  0  0  0  0  0  0  0
   -2.9322    1.2165   -1.1213 H   0  0  0  0  0  0  0  0  0  0  0  0
   -1.2604    1.6657   -1.5292 H   0  0  0  0  0  0  0  0  0  0  0  0
   -1.0987   -0.6623   -1.0183 H   0  0  0  0  0  0  0  0  0  0  0  0
   -3.5906   -0.5455   -0.4321 H   0  0  0  0  0  0  0  0  0  0  0  0
   -2.6097   -1.8149    0.4789 H   0  0  0  0  0  0  0  0  0  0  0  0
   -3.0986   -0.2826    1.2620 H   0  0  0  0  0  0  0  0  0  0  0  0
    0.2280   -1.6733    0.4943 H   0  0  0  0  0  0  0  0  0  0  0  0
    1.1515   -0.6212    1.5777 H   0  0  0  0  0  0  0  0  0  0  0  0
    0.7273    0.1658   -1.3654 H   0  0  0  0  0  0  0  0  0  0  0  0
    2.9077   -1.6192    0.1265 H   0  0  0  0  0  0  0  0  0  0  0  0
    2.7699   -1.2474   -1.6948 H   0  0  0  0  0  0  0  0  0  0  0  0
    2.9611    1.2158   -1.0797 H   0  0  0  0  0  0  0  0  0  0  0  0
    2.6247    1.7925    1.2021 H   0  0  0  0  0  0  0  0  0  0  0  0
  1  2  1  0
  2  3  1  0
  2  4  1  0
  4  5  1  0
  5  6  1  0
  6  7  1  0
  7  8  1  0
  8  9  1  0
  8  6  1  0
  1 10  1  0
  1 11  1  0
  1 12  1  0
  2 13  1  0
  3 14  1  0
  3 15  1  0
  3 16  1  0
  5 17  1  0
  5 18  1  0
  6 19  1  0
  7 20  1  0
  7 21  1  0
  8 22  1  0
  9 23  1  0
M  END
