
     RDKit          3D

 21 22  0  0  0  0  0  0  0  0999 V2000
    0.7670    1.3987   -0.6393 C   0  0  0  0  0  0  0  0  0  0  0  0
    0.2978   -0.0010   -0.2875 C   0  0  0  0  0  0  0  0  0  0  0  0
    1.2220   -0.5638    0.7501 C   0  0  0  0  0  0  0  0  0  0  0  0
    2.6655   -0.6599    0.3023 C   0  0  0  0  0  0  0  0  0  0  0  0
    1.8148   -1.7876    0.5945 O   0  0  0  0  0  0  0  0  0  0  0  0
   -1.1252    0.1157    0.2151 C   0  0  0  0  0  0  0  0  0  0  0  0
   -1.3250    0.9027    1.3309 O   0  0  0  0  0  0  0  0  0  0  0  0
   -2.0185   -1.0390   -0.0517 C   0  0  0  0  0  0  0  0  0  0  0  0
   -2.2316    0.1951   -0.8224 C   0  0  0  0  0  0  0  0  0  0  0  0
    0.1393    1.7458   -1.4794 H   0  0  0  0  0  0  0  0  0  0  0  0
    0.5906    2.0136    0.2865 H   0  0  0  0  0  0  0  0  0  0  0  0
    1.8453    1.3604   -0.8814 H   0  0  0  0  0  0  0  0  0  0  0  0
    0.3370   -0.6613   -1.1741 H   0  0  0  0  0  0  0  0  0  0  0  0
    1.0950   -0.1735    1.7979 H   0  0  0  0  0  0  0  0  0  0  0  0
    3.4787   -0.4674    1.0087 H   0  0  0  0  0  0  0  0  0  0  0  0
    2.8753   -0.6493   -0.7966 H   0  0  0  0  0  0  0  0  0  0  0  0
   -1.0789    0.4340    2.1486 H   0  0  0  0  0  0  0  0  0  0  0  0
   -2.7147   -1.3054    0.7560 H   0  0  0  0  0  0  0  0  0  0  0  0
   -1.5977   -1.9189   -0.5858 H   0  0  0  0  0  0  0  0  0  0  0  0
   -3.1442    0.7742   -0.5988 H   0  0  0  0  0  0  0  0  0  0  0  0
   -1.8927    0.2869   -1.8734 H   0  0  0  0  0  0  0  0  0  0  0  0
  1  2  1  0
  2  3  1  0
  3  4  1  0
  4  5  1  0
  2  6  1  0
  6  7  1  0
  6  8  1  0
  8  9  1  0
  5  3  1  0
  9  6  1  0
  1 10  1  0
  1 11  1  0
  1 12  1  0
  2 13  1  0
  3 14  1  0
  4 15  1  0
  4 16  1  0
  7 17  1  0
  8 18  1  0
  8 19  1  0
  9 20  1  0
  9 21  1  0
M  END
