
     RDKit          3D

 21 21  0  0  0  0  0  0  0  0999 V2000
   -1.2180    1.1735   -0.8019 C   0  0  0  0  0  0  0  0  0  0  0  0
   -0.7957   -0.2147   -0.4509 C   0  0  0  0  0  0  0  0  0  0  0  0
   -1.7140   -0.7311    0.6283 C   0  0  0  0  0  0  0  0  0  0  0  0
    0.6254   -0.3071    0.0273 C   0  0  0  0  0  0  0  0  0  0  0  0
    1.0387   -1.6667    0.3710 C   0  0  0  0  0  0  0  0  0  0  0  0
    1.2299   -2.0669    1.5084 O   0  0  0  0  0  0  0  0  0  0  0  0
    1.0661    0.8000    0.9273 C   0  0  0  0  0  0  0  0  0  0  0  0
    1.2430    1.5861   -0.2346 O   0  0  0  0  0  0  0  0  0  0  0  0
    1.6458    0.3782   -0.8533 C   0  0  0  0  0  0  0  0  0  0  0  0
   -2.2921    1.1410   -1.0786 H   0  0  0  0  0  0  0  0  0  0  0  0
   -1.1586    1.8376    0.0913 H   0  0  0  0  0  0  0  0  0  0  0  0
   -0.6805    1.5882   -1.6800 H   0  0  0  0  0  0  0  0  0  0  0  0
   -0.9028   -0.8683   -1.3317 H   0  0  0  0  0  0  0  0  0  0  0  0
   -2.7632   -0.4738    0.3435 H   0  0  0  0  0  0  0  0  0  0  0  0
   -1.4396   -0.2048    1.5762 H   0  0  0  0  0  0  0  0  0  0  0  0
   -1.5872   -1.8101    0.8143 H   0  0  0  0  0  0  0  0  0  0  0  0
    1.1921   -2.3871   -0.4268 H   0  0  0  0  0  0  0  0  0  0  0  0
    0.3463    1.1959    1.6407 H   0  0  0  0  0  0  0  0  0  0  0  0
    2.0404    0.6301    1.3876 H   0  0  0  0  0  0  0  0  0  0  0  0
    2.6667    0.0666   -0.5254 H   0  0  0  0  0  0  0  0  0  0  0  0
    1.4574    0.3334   -1.9330 H   0  0  0  0  0  0  0  0  0  0  0  0
  1  2  1  0
  2  3  1  0
  2  4  1  0
  4  5  1  0
  5  6  2  0
  4  7  1  0
  7  8  1  0
  8  9  1  0
  9  4  1  0
  1 10  1  0
  1 11  1  0
  1 12  1  0
  2 13  1  0
  3 14  1  0
  3 15  1  0
  3 16  1  0
  5 17  1  0
  7 18  1  0
  7 19  1  0
  9 20  1  0
  9 21  1  0
M  END
