
     RDKit          3D

 23 23  0  0  0  0  0  0  0  0999 V2000
   -1.8071    0.9974   -0.7649 C   0  0  0  0  0  0  0  0  0  0  0  0
   -0.9196    0.2743    0.2056 C   0  0  0  0  0  0  0  0  0  0  0  0
   -1.7783   -0.7998    0.8814 C   0  0  0  0  0  0  0  0  0  0  0  0
   -0.4187    1.1296    1.1611 O   0  0  0  0  0  0  0  0  0  0  0  0
    0.2207   -0.4430   -0.4628 C   0  0  0  0  0  0  0  0  0  0  0  0
    1.0784   -1.1517    0.5648 C   0  0  0  0  0  0  0  0  0  0  0  0
    2.2777   -0.7775   -0.3054 C   0  0  0  0  0  0  0  0  0  0  0  0
    1.4306    0.4130   -0.7748 C   0  0  0  0  0  0  0  0  0  0  0  0
    1.6092    1.4685    0.1047 O   0  0  0  0  0  0  0  0  0  0  0  0
   -1.3787    1.9507   -1.1322 H   0  0  0  0  0  0  0  0  0  0  0  0
   -2.7491    1.2614   -0.2013 H   0  0  0  0  0  0  0  0  0  0  0  0
   -2.1361    0.3206   -1.5748 H   0  0  0  0  0  0  0  0  0  0  0  0
   -1.1664   -1.2893    1.6498 H   0  0  0  0  0  0  0  0  0  0  0  0
   -2.7343   -0.3959    1.2345 H   0  0  0  0  0  0  0  0  0  0  0  0
   -2.0293   -1.5283    0.0619 H   0  0  0  0  0  0  0  0  0  0  0  0
   -1.0210    1.9157    1.3263 H   0  0  0  0  0  0  0  0  0  0  0  0
   -0.0394   -1.1327   -1.2763 H   0  0  0  0  0  0  0  0  0  0  0  0
    0.8920   -2.2188    0.6732 H   0  0  0  0  0  0  0  0  0  0  0  0
    1.0891   -0.5511    1.5142 H   0  0  0  0  0  0  0  0  0  0  0  0
    3.1825   -0.4972    0.2515 H   0  0  0  0  0  0  0  0  0  0  0  0
    2.3973   -1.5629   -1.0823 H   0  0  0  0  0  0  0  0  0  0  0  0
    1.5804    0.6490   -1.8439 H   0  0  0  0  0  0  0  0  0  0  0  0
    2.4200    1.9681   -0.2103 H   0  0  0  0  0  0  0  0  0  0  0  0
  1  2  1  0
  2  3  1  0
  2  4  1  0
  2  5  1  0
  5  6  1  0
  6  7  1  0
  7  8  1  0
  8  9  1  0
  8  5  1  0
  1 10  1  0
  1 11  1  0
  1 12  1  0
  3 13  1  0
  3 14  1  0
  3 15  1  0
  4 16  1  0
  5 17  1  0
  6 18  1  0
  6 19  1  0
  7 20  1  0
  7 21  1  0
  8 22  1  0
  9 23  1  0
M  END
