
     RDKit          3D

 25 24  0  0  0  0  0  0  0  0999 V2000
   -2.0840   -0.1604    1.5595 C   0  0  0  0  0  0  0  0  0  0  0  0
   -1.3047   -0.1490    0.2422 C   0  0  0  0  0  0  0  0  0  0  0  0
   -1.1558   -1.6165   -0.1547 C   0  0  0  0  0  0  0  0  0  0  0  0
   -2.1070    0.6161   -0.7772 C   0  0  0  0  0  0  0  0  0  0  0  0
   -0.0644    0.4346    0.4879 O   0  0  0  0  0  0  0  0  0  0  0  0
    0.6876    0.4695   -0.6843 C   0  0  0  0  0  0  0  0  0  0  0  0
    2.0516    1.1080   -0.4287 C   0  0  0  0  0  0  0  0  0  0  0  0
    2.8283    0.3220    0.6097 C   0  0  0  0  0  0  0  0  0  0  0  0
    3.0141   -0.9687    0.1524 O   0  0  0  0  0  0  0  0  0  0  0  0
   -1.4810   -0.5095    2.3989 H   0  0  0  0  0  0  0  0  0  0  0  0
   -2.9374   -0.8779    1.3884 H   0  0  0  0  0  0  0  0  0  0  0  0
   -2.5184    0.8335    1.6762 H   0  0  0  0  0  0  0  0  0  0  0  0
   -0.2395   -1.9957    0.3448 H   0  0  0  0  0  0  0  0  0  0  0  0
   -1.9954   -2.2208    0.2571 H   0  0  0  0  0  0  0  0  0  0  0  0
   -1.1608   -1.7522   -1.2428 H   0  0  0  0  0  0  0  0  0  0  0  0
   -2.1341    0.0861   -1.7730 H   0  0  0  0  0  0  0  0  0  0  0  0
   -1.6795    1.6162   -0.9972 H   0  0  0  0  0  0  0  0  0  0  0  0
   -3.1364    0.7993   -0.3979 H   0  0  0  0  0  0  0  0  0  0  0  0
    0.2183    1.0524   -1.4897 H   0  0  0  0  0  0  0  0  0  0  0  0
    0.7847   -0.5763   -1.0265 H   0  0  0  0  0  0  0  0  0  0  0  0
    1.8674    2.1448   -0.1265 H   0  0  0  0  0  0  0  0  0  0  0  0
    2.6661    1.1200   -1.3444 H   0  0  0  0  0  0  0  0  0  0  0  0
    2.3665    0.3666    1.6093 H   0  0  0  0  0  0  0  0  0  0  0  0
    3.8231    0.8112    0.6873 H   0  0  0  0  0  0  0  0  0  0  0  0
    3.6906   -0.9532   -0.5702 H   0  0  0  0  0  0  0  0  0  0  0  0
  1  2  1  0
  2  3  1  0
  2  4  1  0
  2  5  1  0
  5  6  1  0
  6  7  1  0
  7  8  1  0
  8  9  1  0
  1 10  1  0
  1 11  1  0
  1 12  1  0
  3 13  1  0
  3 14  1  0
  3 15  1  0
  4 16  1  0
  4 17  1  0
  4 18  1  0
  6 19  1  0
  6 20  1  0
  7 21  1  0
  7 22  1  0
  8 23  1  0
  8 24  1  0
  9 25  1  0
M  END
