
     RDKit          3D

 20 19  0  0  0  0  0  0  0  0999 V2000
   -0.9984    1.0461    1.2061 C   0  0  0  0  0  0  0  0  0  0  0  0
   -1.1315   -0.3206    0.5958 C   0  0  0  0  0  0  0  0  0  0  0  0
   -2.0577   -0.2508   -0.6278 C   0  0  0  0  0  0  0  0  0  0  0  0
    0.1196   -0.9571    0.2201 C   0  0  0  0  0  0  0  0  0  0  0  0
    0.3954   -2.0211    0.7465 O   0  0  0  0  0  0  0  0  0  0  0  0
    1.0995   -0.4197   -0.7575 C   0  0  0  0  0  0  0  0  0  0  0  0
    2.4269   -0.1547   -0.0632 C   0  0  0  0  0  0  0  0  0  0  0  0
    0.7042    0.7891   -1.3029 O   0  0  0  0  0  0  0  0  0  0  0  0
   -0.1598    1.6294    0.8124 H   0  0  0  0  0  0  0  0  0  0  0  0
   -1.9291    1.6021    0.9318 H   0  0  0  0  0  0  0  0  0  0  0  0
   -0.9435    1.0100    2.3164 H   0  0  0  0  0  0  0  0  0  0  0  0
   -1.6831   -0.9432    1.3266 H   0  0  0  0  0  0  0  0  0  0  0  0
   -2.3294   -1.3219   -0.8477 H   0  0  0  0  0  0  0  0  0  0  0  0
   -2.9318    0.3336   -0.3163 H   0  0  0  0  0  0  0  0  0  0  0  0
   -1.5355    0.1313   -1.5104 H   0  0  0  0  0  0  0  0  0  0  0  0
    1.3284   -1.1799   -1.5517 H   0  0  0  0  0  0  0  0  0  0  0  0
    2.9635    0.6100   -0.6251 H   0  0  0  0  0  0  0  0  0  0  0  0
    2.1597    0.2356    0.9619 H   0  0  0  0  0  0  0  0  0  0  0  0
    2.9923   -1.0882    0.0795 H   0  0  0  0  0  0  0  0  0  0  0  0
    1.5103    1.2701   -1.5945 H   0  0  0  0  0  0  0  0  0  0  0  0
  1  2  1  0
  2  3  1  0
  2  4  1  0
  4  5  2  0
  4  6  1  0
  6  7  1  0
  6  8  1  0
  1  9  1  0
  1 10  1  0
  1 11  1  0
  2 12  1  0
  3 13  1  0
  3 14  1  0
  3 15  1  0
  6 16  1  0
  7 17  1  0
  7 18  1  0
  7 19  1  0
  8 20  1  0
M  END
