
     RDKit          3D

 22 22  0  0  0  0  0  0  0  0999 V2000
   -2.1013   -1.2328   -0.1741 C   0  0  0  0  0  0  0  0  0  0  0  0
   -1.1991   -0.1068    0.2721 C   0  0  0  0  0  0  0  0  0  0  0  0
   -1.9829    1.1642    0.3765 C   0  0  0  0  0  0  0  0  0  0  0  0
   -0.0244    0.0176   -0.6685 C   0  0  0  0  0  0  0  0  0  0  0  0
    0.7263   -1.2347   -0.6653 O   0  0  0  0  0  0  0  0  0  0  0  0
    1.3106    0.0052   -0.1917 C   0  0  0  0  0  0  0  0  0  0  0  0
    2.4541    0.4155   -1.1009 C   0  0  0  0  0  0  0  0  0  0  0  0
    1.6861   -0.0783    1.2477 C   0  0  0  0  0  0  0  0  0  0  0  0
   -2.5412   -1.0277   -1.1787 H   0  0  0  0  0  0  0  0  0  0  0  0
   -1.5196   -2.1836   -0.1786 H   0  0  0  0  0  0  0  0  0  0  0  0
   -2.8976   -1.3511    0.5919 H   0  0  0  0  0  0  0  0  0  0  0  0
   -0.8240   -0.3692    1.2824 H   0  0  0  0  0  0  0  0  0  0  0  0
   -2.3516    1.2907    1.4251 H   0  0  0  0  0  0  0  0  0  0  0  0
   -2.8951    1.1739   -0.2751 H   0  0  0  0  0  0  0  0  0  0  0  0
   -1.3949    2.0760    0.1443 H   0  0  0  0  0  0  0  0  0  0  0  0
   -0.2388    0.2904   -1.7212 H   0  0  0  0  0  0  0  0  0  0  0  0
    3.0076   -0.4642   -1.4846 H   0  0  0  0  0  0  0  0  0  0  0  0
    3.1892    1.0543   -0.5863 H   0  0  0  0  0  0  0  0  0  0  0  0
    2.0383    0.9543   -1.9729 H   0  0  0  0  0  0  0  0  0  0  0  0
    1.7301    0.9095    1.7422 H   0  0  0  0  0  0  0  0  0  0  0  0
    2.7399   -0.4837    1.2856 H   0  0  0  0  0  0  0  0  0  0  0  0
    1.0882   -0.8196    1.8302 H   0  0  0  0  0  0  0  0  0  0  0  0
  1  2  1  0
  2  3  1  0
  2  4  1  0
  4  5  1  0
  5  6  1  0
  6  7  1  0
  6  8  1  0
  6  4  1  0
  1  9  1  0
  1 10  1  0
  1 11  1  0
  2 12  1  0
  3 13  1  0
  3 14  1  0
  3 15  1  0
  4 16  1  0
  7 17  1  0
  7 18  1  0
  7 19  1  0
  8 20  1  0
  8 21  1  0
  8 22  1  0
M  END
