
     RDKit          3D

 25 25  0  0  0  0  0  0  0  0999 V2000
    1.6563   -1.2656    0.0327 C   0  0  0  0  0  0  0  0  0  0  0  0
    1.4143    0.1858   -0.1289 C   0  0  0  0  0  0  0  0  0  0  0  0
    2.0126    0.8985    1.0940 C   0  0  0  0  0  0  0  0  0  0  0  0
    0.0077    0.6048   -0.3718 C   0  0  0  0  0  0  0  0  0  0  0  0
   -0.0904    2.0190   -0.5082 O   0  0  0  0  0  0  0  0  0  0  0  0
   -0.9961   -0.1467   -1.0924 C   0  0  0  0  0  0  0  0  0  0  0  0
   -0.9650   -1.5980   -1.4333 C   0  0  0  0  0  0  0  0  0  0  0  0
   -1.1300    0.0794    0.4216 C   0  0  0  0  0  0  0  0  0  0  0  0
   -2.3090    0.9332    0.7896 C   0  0  0  0  0  0  0  0  0  0  0  0
    1.1094   -1.7349    0.8753 H   0  0  0  0  0  0  0  0  0  0  0  0
    1.5744   -1.7929   -0.9206 H   0  0  0  0  0  0  0  0  0  0  0  0
    2.7444   -1.3753    0.3302 H   0  0  0  0  0  0  0  0  0  0  0  0
    2.0657    0.5186   -0.9791 H   0  0  0  0  0  0  0  0  0  0  0  0
    2.9700    0.4120    1.3648 H   0  0  0  0  0  0  0  0  0  0  0  0
    1.2757    0.7806    1.9230 H   0  0  0  0  0  0  0  0  0  0  0  0
    2.1867    1.9516    0.8434 H   0  0  0  0  0  0  0  0  0  0  0  0
    0.2104    2.4774    0.2985 H   0  0  0  0  0  0  0  0  0  0  0  0
   -1.6986    0.4278   -1.7673 H   0  0  0  0  0  0  0  0  0  0  0  0
   -0.3767   -1.8608   -2.3156 H   0  0  0  0  0  0  0  0  0  0  0  0
   -0.7443   -2.2638   -0.5453 H   0  0  0  0  0  0  0  0  0  0  0  0
   -2.0282   -1.8955   -1.6897 H   0  0  0  0  0  0  0  0  0  0  0  0
   -0.9361   -0.7424    1.1067 H   0  0  0  0  0  0  0  0  0  0  0  0
   -3.1928    0.5471    0.2399 H   0  0  0  0  0  0  0  0  0  0  0  0
   -2.1935    1.9893    0.5612 H   0  0  0  0  0  0  0  0  0  0  0  0
   -2.5668    0.8511    1.8713 H   0  0  0  0  0  0  0  0  0  0  0  0
  1  2  1  0
  2  3  1  0
  2  4  1  0
  4  5  1  0
  4  6  1  0
  6  7  1  0
  6  8  1  0
  8  9  1  0
  8  4  1  0
  1 10  1  0
  1 11  1  0
  1 12  1  0
  2 13  1  0
  3 14  1  0
  3 15  1  0
  3 16  1  0
  5 17  1  0
  6 18  1  0
  7 19  1  0
  7 20  1  0
  7 21  1  0
  8 22  1  0
  9 23  1  0
  9 24  1  0
  9 25  1  0
M  END
