
     RDKit          3D

 15 15  0  0  0  0  0  0  0  0999 V2000
   -1.2841   -0.3827    0.6788 C   0  0  0  0  0  0  0  0  0  0  0  0
   -0.6266    0.2473   -0.5575 C   0  0  0  0  0  0  0  0  0  0  0  0
   -0.2354    1.6182   -0.1674 C   0  0  0  0  0  0  0  0  0  0  0  0
   -0.5034    2.5698   -0.8635 O   0  0  0  0  0  0  0  0  0  0  0  0
    0.6018   -0.6083   -0.8418 C   0  0  0  0  0  0  0  0  0  0  0  0
    1.5917   -0.6543    0.2705 C   0  0  0  0  0  0  0  0  0  0  0  0
    1.8327   -0.0048   -0.9348 O   0  0  0  0  0  0  0  0  0  0  0  0
   -1.0681   -1.4839    0.6821 H   0  0  0  0  0  0  0  0  0  0  0  0
   -2.3671   -0.2008    0.6299 H   0  0  0  0  0  0  0  0  0  0  0  0
   -0.8124    0.0169    1.6035 H   0  0  0  0  0  0  0  0  0  0  0  0
   -1.3249    0.2238   -1.4141 H   0  0  0  0  0  0  0  0  0  0  0  0
    0.2974    1.7733    0.7523 H   0  0  0  0  0  0  0  0  0  0  0  0
    0.3922   -1.5252   -1.4232 H   0  0  0  0  0  0  0  0  0  0  0  0
    1.4759    0.0551    1.1217 H   0  0  0  0  0  0  0  0  0  0  0  0
    2.0304   -1.6446    0.4635 H   0  0  0  0  0  0  0  0  0  0  0  0
  1  2  1  0
  2  3  1  0
  3  4  2  0
  2  5  1  0
  5  6  1  0
  6  7  1  0
  7  5  1  0
  1  8  1  0
  1  9  1  0
  1 10  1  0
  2 11  1  0
  3 12  1  0
  5 13  1  0
  6 14  1  0
  6 15  1  0
M  END
