
     RDKit          3D

 23 22  0  0  0  0  0  0  0  0999 V2000
   -1.1887    0.2775    1.8570 C   0  0  0  0  0  0  0  0  0  0  0  0
   -1.1232   -0.6237    0.6767 C   0  0  0  0  0  0  0  0  0  0  0  0
   -2.5754   -1.1036    0.3505 C   0  0  0  0  0  0  0  0  0  0  0  0
   -0.5683   -0.1054   -0.6068 C   0  0  0  0  0  0  0  0  0  0  0  0
   -0.6003   -1.2064   -1.7352 C   0  0  0  0  0  0  0  0  0  0  0  0
    0.7311    0.3684   -0.6392 C   0  0  0  0  0  0  0  0  0  0  0  0
    1.9948    0.8424   -0.6691 C   0  0  0  0  0  0  0  0  0  0  0  0
    3.3511    1.3553   -0.6981 C   0  0  0  0  0  0  0  0  0  0  0  0
    3.4197    2.6282   -1.2007 O   0  0  0  0  0  0  0  0  0  0  0  0
   -1.3052   -0.2281    2.8210 H   0  0  0  0  0  0  0  0  0  0  0  0
   -0.2720    0.9246    1.9441 H   0  0  0  0  0  0  0  0  0  0  0  0
   -2.0287    1.0030    1.7871 H   0  0  0  0  0  0  0  0  0  0  0  0
   -0.5640   -1.5527    0.9845 H   0  0  0  0  0  0  0  0  0  0  0  0
   -3.2317   -0.8282    1.1575 H   0  0  0  0  0  0  0  0  0  0  0  0
   -2.8268   -0.6720   -0.6527 H   0  0  0  0  0  0  0  0  0  0  0  0
   -2.5298   -2.2184    0.2014 H   0  0  0  0  0  0  0  0  0  0  0  0
   -1.3020    0.7165   -1.0201 H   0  0  0  0  0  0  0  0  0  0  0  0
   -0.8922   -0.7714   -2.6732 H   0  0  0  0  0  0  0  0  0  0  0  0
    0.5032   -1.5494   -1.7543 H   0  0  0  0  0  0  0  0  0  0  0  0
   -1.1630   -2.0173   -1.2985 H   0  0  0  0  0  0  0  0  0  0  0  0
    3.9312    0.6287   -1.3302 H   0  0  0  0  0  0  0  0  0  0  0  0
    3.8519    1.2443    0.3254 H   0  0  0  0  0  0  0  0  0  0  0  0
    4.3884    2.8879   -1.3866 H   0  0  0  0  0  0  0  0  0  0  0  0
  1  2  1  0
  2  3  1  0
  2  4  1  0
  4  5  1  0
  4  6  1  0
  6  7  3  0
  7  8  1  0
  8  9  1  0
  1 10  1  0
  1 11  1  0
  1 12  1  0
  2 13  1  0
  3 14  1  0
  3 15  1  0
  3 16  1  0
  4 17  1  0
  5 18  1  0
  5 19  1  0
  5 20  1  0
  8 21  1  0
  8 22  1  0
  9 23  1  0
M  END
