
     RDKit          3D

 23 23  0  0  0  0  0  0  0  0999 V2000
   -2.0740   -0.7199    0.6778 C   0  0  0  0  0  0  0  0  0  0  0  0
   -1.1541    0.0463   -0.2212 C   0  0  0  0  0  0  0  0  0  0  0  0
   -1.8592    1.3709   -0.5475 C   0  0  0  0  0  0  0  0  0  0  0  0
    0.1570    0.3995    0.4064 C   0  0  0  0  0  0  0  0  0  0  0  0
    0.9683   -0.7682    0.8490 C   0  0  0  0  0  0  0  0  0  0  0  0
    2.1282   -0.7582   -0.1231 C   0  0  0  0  0  0  0  0  0  0  0  0
    3.2093   -0.0728    0.4075 O   0  0  0  0  0  0  0  0  0  0  0  0
    1.5563    0.0996   -1.2492 C   0  0  0  0  0  0  0  0  0  0  0  0
    0.9081    1.0941   -0.5490 O   0  0  0  0  0  0  0  0  0  0  0  0
   -2.0238   -0.4235    1.7287 H   0  0  0  0  0  0  0  0  0  0  0  0
   -3.1212   -0.5246    0.3066 H   0  0  0  0  0  0  0  0  0  0  0  0
   -1.9206   -1.8161    0.5190 H   0  0  0  0  0  0  0  0  0  0  0  0
   -1.0560   -0.5136   -1.1649 H   0  0  0  0  0  0  0  0  0  0  0  0
   -2.0121    1.9130    0.4126 H   0  0  0  0  0  0  0  0  0  0  0  0
   -1.1931    1.9283   -1.2465 H   0  0  0  0  0  0  0  0  0  0  0  0
   -2.8282    1.1205   -1.0281 H   0  0  0  0  0  0  0  0  0  0  0  0
   -0.0439    1.1390    1.2231 H   0  0  0  0  0  0  0  0  0  0  0  0
    1.3931   -0.5259    1.8532 H   0  0  0  0  0  0  0  0  0  0  0  0
    0.4370   -1.7233    0.8875 H   0  0  0  0  0  0  0  0  0  0  0  0
    2.3721   -1.7668   -0.4651 H   0  0  0  0  0  0  0  0  0  0  0  0
    2.9661    0.5785    1.1006 H   0  0  0  0  0  0  0  0  0  0  0  0
    2.3214    0.4671   -1.9341 H   0  0  0  0  0  0  0  0  0  0  0  0
    0.8693   -0.5439   -1.8431 H   0  0  0  0  0  0  0  0  0  0  0  0
  1  2  1  0
  2  3  1  0
  2  4  1  0
  4  5  1  0
  5  6  1  0
  6  7  1  0
  6  8  1  0
  8  9  1  0
  9  4  1  0
  1 10  1  0
  1 11  1  0
  1 12  1  0
  2 13  1  0
  3 14  1  0
  3 15  1  0
  3 16  1  0
  4 17  1  0
  5 18  1  0
  5 19  1  0
  6 20  1  0
  7 21  1  0
  8 22  1  0
  8 23  1  0
M  END
