
     RDKit          3D

 22 21  0  0  0  0  0  0  0  0999 V2000
   -1.6007    1.3831    0.9769 C   0  0  0  0  0  0  0  0  0  0  0  0
   -1.4461    0.0269    0.2799 C   0  0  0  0  0  0  0  0  0  0  0  0
   -2.6543   -0.1049   -0.6260 C   0  0  0  0  0  0  0  0  0  0  0  0
   -0.2570    0.0030   -0.4123 O   0  0  0  0  0  0  0  0  0  0  0  0
    0.5826   -0.9636    0.1022 C   0  0  0  0  0  0  0  0  0  0  0  0
    1.9063   -0.9888   -0.6699 C   0  0  0  0  0  0  0  0  0  0  0  0
    2.4976    0.4170   -0.4880 C   0  0  0  0  0  0  0  0  0  0  0  0
    2.6566    0.5587    0.9080 O   0  0  0  0  0  0  0  0  0  0  0  0
   -1.7662    2.1174    0.1821 H   0  0  0  0  0  0  0  0  0  0  0  0
   -0.7123    1.5622    1.5985 H   0  0  0  0  0  0  0  0  0  0  0  0
   -2.5280    1.2798    1.5982 H   0  0  0  0  0  0  0  0  0  0  0  0
   -1.4385   -0.7343    1.0797 H   0  0  0  0  0  0  0  0  0  0  0  0
   -2.8562    0.8598   -1.1360 H   0  0  0  0  0  0  0  0  0  0  0  0
   -2.5366   -0.8730   -1.3996 H   0  0  0  0  0  0  0  0  0  0  0  0
   -3.5257   -0.2908    0.0487 H   0  0  0  0  0  0  0  0  0  0  0  0
    0.7678   -0.7678    1.1750 H   0  0  0  0  0  0  0  0  0  0  0  0
    0.1739   -1.9903    0.0336 H   0  0  0  0  0  0  0  0  0  0  0  0
    2.6239   -1.6694   -0.1674 H   0  0  0  0  0  0  0  0  0  0  0  0
    1.7131   -1.2238   -1.7165 H   0  0  0  0  0  0  0  0  0  0  0  0
    3.4746    0.4001   -1.0098 H   0  0  0  0  0  0  0  0  0  0  0  0
    1.8109    1.1945   -0.8506 H   0  0  0  0  0  0  0  0  0  0  0  0
    3.1143   -0.1957    1.3083 H   0  0  0  0  0  0  0  0  0  0  0  0
  1  2  1  0
  2  3  1  0
  2  4  1  0
  4  5  1  0
  5  6  1  0
  6  7  1  0
  7  8  1  0
  1  9  1  0
  1 10  1  0
  1 11  1  0
  2 12  1  0
  3 13  1  0
  3 14  1  0
  3 15  1  0
  5 16  1  0
  5 17  1  0
  6 18  1  0
  6 19  1  0
  7 20  1  0
  7 21  1  0
  8 22  1  0
M  END
