
     RDKit          3D

 21 21  0  0  0  0  0  0  0  0999 V2000
    1.0692    0.5189   -1.1917 C   0  0  0  0  0  0  0  0  0  0  0  0
    0.4919   -0.1043    0.0537 C   0  0  0  0  0  0  0  0  0  0  0  0
    1.3850    0.0380    1.2496 C   0  0  0  0  0  0  0  0  0  0  0  0
    2.6877   -0.6171    0.9922 C   0  0  0  0  0  0  0  0  0  0  0  0
    2.8844   -1.1610   -0.0791 O   0  0  0  0  0  0  0  0  0  0  0  0
   -0.8916    0.4136    0.2683 C   0  0  0  0  0  0  0  0  0  0  0  0
   -1.8508    0.1127   -0.8709 C   0  0  0  0  0  0  0  0  0  0  0  0
   -2.0250   -0.5451    0.4594 C   0  0  0  0  0  0  0  0  0  0  0  0
   -3.1584   -0.1649    1.1671 O   0  0  0  0  0  0  0  0  0  0  0  0
    2.1140    0.8626   -1.0384 H   0  0  0  0  0  0  0  0  0  0  0  0
    0.9733   -0.1621   -2.0770 H   0  0  0  0  0  0  0  0  0  0  0  0
    0.4651    1.4261   -1.4778 H   0  0  0  0  0  0  0  0  0  0  0  0
    0.4053   -1.2033   -0.1513 H   0  0  0  0  0  0  0  0  0  0  0  0
    1.5631    1.1004    1.5302 H   0  0  0  0  0  0  0  0  0  0  0  0
    0.9300   -0.4470    2.1144 H   0  0  0  0  0  0  0  0  0  0  0  0
    3.4963   -0.6453    1.7108 H   0  0  0  0  0  0  0  0  0  0  0  0
   -0.9868    1.4601    0.6619 H   0  0  0  0  0  0  0  0  0  0  0  0
   -2.5467    0.8940   -1.2100 H   0  0  0  0  0  0  0  0  0  0  0  0
   -1.5122   -0.5669   -1.6799 H   0  0  0  0  0  0  0  0  0  0  0  0
   -1.7430   -1.6178    0.5626 H   0  0  0  0  0  0  0  0  0  0  0  0
   -3.7508    0.4083    0.6156 H   0  0  0  0  0  0  0  0  0  0  0  0
  1  2  1  0
  2  3  1  0
  3  4  1  0
  4  5  2  0
  2  6  1  0
  6  7  1  0
  7  8  1  0
  8  9  1  0
  8  6  1  0
  1 10  1  0
  1 11  1  0
  1 12  1  0
  2 13  1  0
  3 14  1  0
  3 15  1  0
  4 16  1  0
  6 17  1  0
  7 18  1  0
  7 19  1  0
  8 20  1  0
  9 21  1  0
M  END
