
     RDKit          3D

 27 26  0  0  0  0  0  0  0  0999 V2000
   -1.9657   -0.4126    1.5436 C   0  0  0  0  0  0  0  0  0  0  0  0
   -1.6972   -0.4927    0.0753 C   0  0  0  0  0  0  0  0  0  0  0  0
   -2.3881    0.6410   -0.6514 C   0  0  0  0  0  0  0  0  0  0  0  0
   -0.2129   -0.5123   -0.2420 C   0  0  0  0  0  0  0  0  0  0  0  0
   -0.0765   -0.5933   -1.7316 C   0  0  0  0  0  0  0  0  0  0  0  0
    0.4377    0.6834    0.3600 C   0  0  0  0  0  0  0  0  0  0  0  0
    1.9183    0.7585    0.1003 C   0  0  0  0  0  0  0  0  0  0  0  0
    2.6094   -0.4589    0.6769 C   0  0  0  0  0  0  0  0  0  0  0  0
    3.9886   -0.3507    0.4160 O   0  0  0  0  0  0  0  0  0  0  0  0
   -1.4349   -1.2535    2.0564 H   0  0  0  0  0  0  0  0  0  0  0  0
   -1.7165    0.5719    1.9473 H   0  0  0  0  0  0  0  0  0  0  0  0
   -3.0569   -0.6341    1.6886 H   0  0  0  0  0  0  0  0  0  0  0  0
   -2.1539   -1.4383   -0.3236 H   0  0  0  0  0  0  0  0  0  0  0  0
   -2.0126    1.6306   -0.3842 H   0  0  0  0  0  0  0  0  0  0  0  0
   -3.4619    0.6098   -0.3544 H   0  0  0  0  0  0  0  0  0  0  0  0
   -2.2882    0.4718   -1.7621 H   0  0  0  0  0  0  0  0  0  0  0  0
    0.1933   -1.4371    0.2021 H   0  0  0  0  0  0  0  0  0  0  0  0
   -0.2482    0.4097   -2.1514 H   0  0  0  0  0  0  0  0  0  0  0  0
   -0.9037   -1.2393   -2.1132 H   0  0  0  0  0  0  0  0  0  0  0  0
    0.8755   -1.0492   -2.0606 H   0  0  0  0  0  0  0  0  0  0  0  0
   -0.0052    1.6280   -0.0214 H   0  0  0  0  0  0  0  0  0  0  0  0
    0.2622    0.6547    1.4554 H   0  0  0  0  0  0  0  0  0  0  0  0
    2.3905    1.6404    0.5768 H   0  0  0  0  0  0  0  0  0  0  0  0
    2.1687    0.7937   -0.9672 H   0  0  0  0  0  0  0  0  0  0  0  0
    2.2246   -1.4119    0.2614 H   0  0  0  0  0  0  0  0  0  0  0  0
    2.4517   -0.4831    1.7649 H   0  0  0  0  0  0  0  0  0  0  0  0
    4.1019    0.2741   -0.3619 H   0  0  0  0  0  0  0  0  0  0  0  0
  1  2  1  0
  2  3  1  0
  2  4  1  0
  4  5  1  0
  4  6  1  0
  6  7  1  0
  7  8  1  0
  8  9  1  0
  1 10  1  0
  1 11  1  0
  1 12  1  0
  2 13  1  0
  3 14  1  0
  3 15  1  0
  3 16  1  0
  4 17  1  0
  5 18  1  0
  5 19  1  0
  5 20  1  0
  6 21  1  0
  6 22  1  0
  7 23  1  0
  7 24  1  0
  8 25  1  0
  8 26  1  0
  9 27  1  0
M  END
