
     RDKit          3D

 23 23  0  0  0  0  0  0  0  0999 V2000
   -1.2607   -0.4734   -1.3200 C   0  0  0  0  0  0  0  0  0  0  0  0
   -0.9127   -0.8833    0.0632 C   0  0  0  0  0  0  0  0  0  0  0  0
   -2.0278   -0.3553    0.9736 C   0  0  0  0  0  0  0  0  0  0  0  0
    0.3860   -0.3422    0.5741 C   0  0  0  0  0  0  0  0  0  0  0  0
    0.5314    1.1334    0.6429 C   0  0  0  0  0  0  0  0  0  0  0  0
    1.1600    1.5294    1.8261 O   0  0  0  0  0  0  0  0  0  0  0  0
    1.5514    1.0746   -0.4690 C   0  0  0  0  0  0  0  0  0  0  0  0
    1.5656   -0.4268   -0.3297 C   0  0  0  0  0  0  0  0  0  0  0  0
    1.4099   -1.1403   -1.5056 O   0  0  0  0  0  0  0  0  0  0  0  0
   -2.3834   -0.5550   -1.4210 H   0  0  0  0  0  0  0  0  0  0  0  0
   -1.0569    0.6163   -1.5095 H   0  0  0  0  0  0  0  0  0  0  0  0
   -0.8444   -1.0840   -2.1217 H   0  0  0  0  0  0  0  0  0  0  0  0
   -0.9188   -1.9815    0.1317 H   0  0  0  0  0  0  0  0  0  0  0  0
   -1.6147   -0.0426    1.9584 H   0  0  0  0  0  0  0  0  0  0  0  0
   -2.7890   -1.1338    1.1612 H   0  0  0  0  0  0  0  0  0  0  0  0
   -2.5486    0.4998    0.5100 H   0  0  0  0  0  0  0  0  0  0  0  0
    0.6340   -0.8631    1.5468 H   0  0  0  0  0  0  0  0  0  0  0  0
   -0.3832    1.7172    0.4163 H   0  0  0  0  0  0  0  0  0  0  0  0
    1.4870    2.4620    1.7786 H   0  0  0  0  0  0  0  0  0  0  0  0
    2.5125    1.5829   -0.2348 H   0  0  0  0  0  0  0  0  0  0  0  0
    1.1939    1.4470   -1.4514 H   0  0  0  0  0  0  0  0  0  0  0  0
    2.5310   -0.7260    0.1748 H   0  0  0  0  0  0  0  0  0  0  0  0
    1.7776   -2.0550   -1.3948 H   0  0  0  0  0  0  0  0  0  0  0  0
  1  2  1  0
  2  3  1  0
  2  4  1  0
  4  5  1  0
  5  6  1  0
  5  7  1  0
  7  8  1  0
  8  9  1  0
  8  4  1  0
  1 10  1  0
  1 11  1  0
  1 12  1  0
  2 13  1  0
  3 14  1  0
  3 15  1  0
  3 16  1  0
  4 17  1  0
  5 18  1  0
  6 19  1  0
  7 20  1  0
  7 21  1  0
  8 22  1  0
  9 23  1  0
M  END
