
     RDKit          3D

 22 21  0  0  0  0  0  0  0  0999 V2000
    1.5375   -0.7669   -0.9817 C   0  0  0  0  0  0  0  0  0  0  0  0
    0.7723   -0.4048    0.2500 C   0  0  0  0  0  0  0  0  0  0  0  0
    1.4553    0.6907    1.0202 C   0  0  0  0  0  0  0  0  0  0  0  0
   -0.6771   -0.0763   -0.0447 C   0  0  0  0  0  0  0  0  0  0  0  0
   -0.8148    1.0890   -0.9925 C   0  0  0  0  0  0  0  0  0  0  0  0
   -1.3928    0.2818    1.2403 C   0  0  0  0  0  0  0  0  0  0  0  0
   -1.3088   -1.3064   -0.5734 C   0  0  0  0  0  0  0  0  0  0  0  0
   -1.2919   -2.2989    0.1335 O   0  0  0  0  0  0  0  0  0  0  0  0
    0.8670   -0.8840   -1.8806 H   0  0  0  0  0  0  0  0  0  0  0  0
    2.1237   -1.7122   -0.8694 H   0  0  0  0  0  0  0  0  0  0  0  0
    2.2926    0.0089   -1.2664 H   0  0  0  0  0  0  0  0  0  0  0  0
    0.7440   -1.3035    0.9106 H   0  0  0  0  0  0  0  0  0  0  0  0
    0.9407    0.8198    1.9916 H   0  0  0  0  0  0  0  0  0  0  0  0
    1.4571    1.6438    0.4539 H   0  0  0  0  0  0  0  0  0  0  0  0
    2.4938    0.3593    1.2130 H   0  0  0  0  0  0  0  0  0  0  0  0
   -0.1960    0.9727   -1.8994 H   0  0  0  0  0  0  0  0  0  0  0  0
   -0.5766    2.0045   -0.4097 H   0  0  0  0  0  0  0  0  0  0  0  0
   -1.8940    1.1375   -1.2783 H   0  0  0  0  0  0  0  0  0  0  0  0
   -1.2650   -0.5423    1.9682 H   0  0  0  0  0  0  0  0  0  0  0  0
   -2.4739    0.4223    0.9542 H   0  0  0  0  0  0  0  0  0  0  0  0
   -1.0123    1.2540    1.5938 H   0  0  0  0  0  0  0  0  0  0  0  0
   -1.7807   -1.3889   -1.5332 H   0  0  0  0  0  0  0  0  0  0  0  0
  1  2  1  0
  2  3  1  0
  2  4  1  0
  4  5  1  0
  4  6  1  0
  4  7  1  0
  7  8  2  0
  1  9  1  0
  1 10  1  0
  1 11  1  0
  2 12  1  0
  3 13  1  0
  3 14  1  0
  3 15  1  0
  5 16  1  0
  5 17  1  0
  5 18  1  0
  6 19  1  0
  6 20  1  0
  6 21  1  0
  7 22  1  0
M  END
