
     RDKit          3D

 25 24  0  0  0  0  0  0  0  0999 V2000
   -2.9150   -0.7621   -0.4418 C   0  0  0  0  0  0  0  0  0  0  0  0
   -1.7924   -0.0733    0.3066 C   0  0  0  0  0  0  0  0  0  0  0  0
   -2.2527    1.3687    0.5649 C   0  0  0  0  0  0  0  0  0  0  0  0
   -0.7086    0.0055   -0.5295 O   0  0  0  0  0  0  0  0  0  0  0  0
    0.4660   -0.4775   -0.0425 C   0  0  0  0  0  0  0  0  0  0  0  0
    1.1007   -1.5696   -0.8264 C   0  0  0  0  0  0  0  0  0  0  0  0
    1.4044    0.7218    0.1341 C   0  0  0  0  0  0  0  0  0  0  0  0
    2.7454    0.2857    0.6744 C   0  0  0  0  0  0  0  0  0  0  0  0
    3.5245    1.4328    0.8007 O   0  0  0  0  0  0  0  0  0  0  0  0
   -3.2534   -1.6515    0.1014 H   0  0  0  0  0  0  0  0  0  0  0  0
   -3.7741   -0.0797   -0.6376 H   0  0  0  0  0  0  0  0  0  0  0  0
   -2.5808   -1.0965   -1.4636 H   0  0  0  0  0  0  0  0  0  0  0  0
   -1.5852   -0.5232    1.2865 H   0  0  0  0  0  0  0  0  0  0  0  0
   -3.1378    1.3926    1.2279 H   0  0  0  0  0  0  0  0  0  0  0  0
   -2.5119    1.8493   -0.3957 H   0  0  0  0  0  0  0  0  0  0  0  0
   -1.4347    1.9522    1.0495 H   0  0  0  0  0  0  0  0  0  0  0  0
    0.3106   -0.8667    1.0039 H   0  0  0  0  0  0  0  0  0  0  0  0
    1.5063   -1.2460   -1.8052 H   0  0  0  0  0  0  0  0  0  0  0  0
    0.3815   -2.3987   -0.9114 H   0  0  0  0  0  0  0  0  0  0  0  0
    1.9601   -1.9645   -0.2336 H   0  0  0  0  0  0  0  0  0  0  0  0
    0.9862    1.4443    0.8595 H   0  0  0  0  0  0  0  0  0  0  0  0
    1.5977    1.2317   -0.8322 H   0  0  0  0  0  0  0  0  0  0  0  0
    3.2740   -0.4223    0.0204 H   0  0  0  0  0  0  0  0  0  0  0  0
    2.6453   -0.1469    1.6830 H   0  0  0  0  0  0  0  0  0  0  0  0
    4.0439    1.5937   -0.0032 H   0  0  0  0  0  0  0  0  0  0  0  0
  1  2  1  0
  2  3  1  0
  2  4  1  0
  4  5  1  0
  5  6  1  0
  5  7  1  0
  7  8  1  0
  8  9  1  0
  1 10  1  0
  1 11  1  0
  1 12  1  0
  2 13  1  0
  3 14  1  0
  3 15  1  0
  3 16  1  0
  5 17  1  0
  6 18  1  0
  6 19  1  0
  6 20  1  0
  7 21  1  0
  7 22  1  0
  8 23  1  0
  8 24  1  0
  9 25  1  0
M  END
