
     RDKit          3D

 25 26  0  0  0  0  0  0  0  0999 V2000
    1.8943    0.5996   -1.0980 C   0  0  0  0  0  0  0  0  0  0  0  0
    1.2885    0.4375    0.2809 C   0  0  0  0  0  0  0  0  0  0  0  0
    2.0938   -0.5451    1.0972 C   0  0  0  0  0  0  0  0  0  0  0  0
   -0.1360    0.1787    0.2631 C   0  0  0  0  0  0  0  0  0  0  0  0
   -1.0876    1.1500   -0.3406 C   0  0  0  0  0  0  0  0  0  0  0  0
   -2.3950    0.3404   -0.2060 C   0  0  0  0  0  0  0  0  0  0  0  0
   -1.8617   -0.8343    0.5542 C   0  0  0  0  0  0  0  0  0  0  0  0
   -0.8472   -0.2184    1.5321 C   0  0  0  0  0  0  0  0  0  0  0  0
   -0.6135   -1.1768   -0.2772 C   0  0  0  0  0  0  0  0  0  0  0  0
    1.6266   -0.2406   -1.7737 H   0  0  0  0  0  0  0  0  0  0  0  0
    3.0114    0.6030   -1.0560 H   0  0  0  0  0  0  0  0  0  0  0  0
    1.5310    1.5220   -1.5927 H   0  0  0  0  0  0  0  0  0  0  0  0
    1.4450    1.4391    0.7842 H   0  0  0  0  0  0  0  0  0  0  0  0
    2.9707   -0.8893    0.4806 H   0  0  0  0  0  0  0  0  0  0  0  0
    1.4860   -1.4138    1.4241 H   0  0  0  0  0  0  0  0  0  0  0  0
    2.5270   -0.1071    2.0137 H   0  0  0  0  0  0  0  0  0  0  0  0
   -0.8755    1.4086   -1.3730 H   0  0  0  0  0  0  0  0  0  0  0  0
   -1.1826    2.0264    0.3325 H   0  0  0  0  0  0  0  0  0  0  0  0
   -2.6467    0.0185   -1.2370 H   0  0  0  0  0  0  0  0  0  0  0  0
   -3.1746    0.9055    0.2942 H   0  0  0  0  0  0  0  0  0  0  0  0
   -2.4743   -1.6203    0.8894 H   0  0  0  0  0  0  0  0  0  0  0  0
   -0.3865   -0.9951    2.1371 H   0  0  0  0  0  0  0  0  0  0  0  0
   -1.2752    0.6565    2.0467 H   0  0  0  0  0  0  0  0  0  0  0  0
   -0.7906   -1.2022   -1.3559 H   0  0  0  0  0  0  0  0  0  0  0  0
   -0.1275   -2.0427    0.1744 H   0  0  0  0  0  0  0  0  0  0  0  0
  1  2  1  0
  2  3  1  0
  2  4  1  0
  4  5  1  0
  5  6  1  0
  6  7  1  0
  7  8  1  0
  7  9  1  0
  8  4  1  0
  9  4  1  0
  1 10  1  0
  1 11  1  0
  1 12  1  0
  2 13  1  0
  3 14  1  0
  3 15  1  0
  3 16  1  0
  5 17  1  0
  5 18  1  0
  6 19  1  0
  6 20  1  0
  7 21  1  0
  8 22  1  0
  8 23  1  0
  9 24  1  0
  9 25  1  0
M  END
