
     RDKit          3D

 21 20  0  0  0  0  0  0  0  0999 V2000
   -1.2118   -0.4459    1.1322 C   0  0  0  0  0  0  0  0  0  0  0  0
   -1.6438   -0.0353   -0.2434 C   0  0  0  0  0  0  0  0  0  0  0  0
   -3.0790    0.4599   -0.1963 C   0  0  0  0  0  0  0  0  0  0  0  0
   -0.7389    1.0141   -0.8470 C   0  0  0  0  0  0  0  0  0  0  0  0
    0.6056    0.4491   -0.9223 C   0  0  0  0  0  0  0  0  0  0  0  0
    1.7292   -0.0099   -0.9965 C   0  0  0  0  0  0  0  0  0  0  0  0
    3.0935   -0.5493   -1.0877 C   0  0  0  0  0  0  0  0  0  0  0  0
    3.7275   -0.6238    0.2546 C   0  0  0  0  0  0  0  0  0  0  0  0
    4.1510    0.4043    0.7579 O   0  0  0  0  0  0  0  0  0  0  0  0
   -0.5435    0.3216    1.5989 H   0  0  0  0  0  0  0  0  0  0  0  0
   -2.1199   -0.5715    1.7556 H   0  0  0  0  0  0  0  0  0  0  0  0
   -0.7191   -1.4577    1.1298 H   0  0  0  0  0  0  0  0  0  0  0  0
   -1.6501   -0.9542   -0.8753 H   0  0  0  0  0  0  0  0  0  0  0  0
   -3.1468    1.2112    0.6407 H   0  0  0  0  0  0  0  0  0  0  0  0
   -3.7194   -0.4227   -0.0169 H   0  0  0  0  0  0  0  0  0  0  0  0
   -3.3698    1.0060   -1.1117 H   0  0  0  0  0  0  0  0  0  0  0  0
   -0.7762    1.8929   -0.1520 H   0  0  0  0  0  0  0  0  0  0  0  0
   -1.1290    1.3559   -1.8032 H   0  0  0  0  0  0  0  0  0  0  0  0
    2.9875   -1.5700   -1.5226 H   0  0  0  0  0  0  0  0  0  0  0  0
    3.7109    0.0630   -1.8075 H   0  0  0  0  0  0  0  0  0  0  0  0
    3.8420   -1.5374    0.8246 H   0  0  0  0  0  0  0  0  0  0  0  0
  1  2  1  0
  2  3  1  0
  2  4  1  0
  4  5  1  0
  5  6  3  0
  6  7  1  0
  7  8  1  0
  8  9  2  0
  1 10  1  0
  1 11  1  0
  1 12  1  0
  2 13  1  0
  3 14  1  0
  3 15  1  0
  3 16  1  0
  4 17  1  0
  4 18  1  0
  7 19  1  0
  7 20  1  0
  8 21  1  0
M  END
