
     RDKit          3D

 23 23  0  0  0  0  0  0  0  0999 V2000
   -1.3449    1.3313   -0.1424 C   0  0  0  0  0  0  0  0  0  0  0  0
   -1.4407   -0.0534    0.4452 C   0  0  0  0  0  0  0  0  0  0  0  0
   -2.8165   -0.6606    0.2658 C   0  0  0  0  0  0  0  0  0  0  0  0
   -0.4565   -0.9258   -0.3291 C   0  0  0  0  0  0  0  0  0  0  0  0
    0.9344   -0.4078   -0.1984 C   0  0  0  0  0  0  0  0  0  0  0  0
    1.7371   -0.0026   -1.1743 C   0  0  0  0  0  0  0  0  0  0  0  0
    3.0137    0.4191   -0.5257 C   0  0  0  0  0  0  0  0  0  0  0  0
    2.9793   -0.2126    0.7246 O   0  0  0  0  0  0  0  0  0  0  0  0
    1.6458   -0.2628    1.0750 C   0  0  0  0  0  0  0  0  0  0  0  0
   -0.4781    1.8614    0.2876 H   0  0  0  0  0  0  0  0  0  0  0  0
   -2.2487    1.9364   -0.0051 H   0  0  0  0  0  0  0  0  0  0  0  0
   -1.1472    1.2928   -1.2521 H   0  0  0  0  0  0  0  0  0  0  0  0
   -1.1161   -0.0599    1.5029 H   0  0  0  0  0  0  0  0  0  0  0  0
   -3.2635   -0.1887   -0.6350 H   0  0  0  0  0  0  0  0  0  0  0  0
   -3.4791   -0.4675    1.1289 H   0  0  0  0  0  0  0  0  0  0  0  0
   -2.7131   -1.7727    0.1263 H   0  0  0  0  0  0  0  0  0  0  0  0
   -0.4347   -1.9631    0.1009 H   0  0  0  0  0  0  0  0  0  0  0  0
   -0.7627   -1.0519   -1.3856 H   0  0  0  0  0  0  0  0  0  0  0  0
    1.5391    0.0289   -2.2317 H   0  0  0  0  0  0  0  0  0  0  0  0
    3.0863    1.5196   -0.4090 H   0  0  0  0  0  0  0  0  0  0  0  0
    3.9062    0.0162   -1.0506 H   0  0  0  0  0  0  0  0  0  0  0  0
    1.3790    0.7177    1.5341 H   0  0  0  0  0  0  0  0  0  0  0  0
    1.4811   -1.0940    1.7864 H   0  0  0  0  0  0  0  0  0  0  0  0
  1  2  1  0
  2  3  1  0
  2  4  1  0
  4  5  1  0
  5  6  2  0
  6  7  1  0
  7  8  1  0
  8  9  1  0
  9  5  1  0
  1 10  1  0
  1 11  1  0
  1 12  1  0
  2 13  1  0
  3 14  1  0
  3 15  1  0
  3 16  1  0
  4 17  1  0
  4 18  1  0
  6 19  1  0
  7 20  1  0
  7 21  1  0
  9 22  1  0
  9 23  1  0
M  END
