
     RDKit          3D

 25 26  0  0  0  0  0  0  0  0999 V2000
   -0.3271   -2.1857    0.2573 C   0  0  0  0  0  0  0  0  0  0  0  0
   -0.3625   -0.6346    0.4438 C   0  0  0  0  0  0  0  0  0  0  0  0
    0.7953   -0.1733   -0.3640 C   0  0  0  0  0  0  0  0  0  0  0  0
    1.1416    1.2663   -0.4420 C   0  0  0  0  0  0  0  0  0  0  0  0
    2.6214    0.7891   -0.4816 C   0  0  0  0  0  0  0  0  0  0  0  0
    2.1051   -0.3508    0.4168 C   0  0  0  0  0  0  0  0  0  0  0  0
   -1.6351   -0.1126   -0.1608 C   0  0  0  0  0  0  0  0  0  0  0  0
   -1.8564    1.3953   -0.0487 C   0  0  0  0  0  0  0  0  0  0  0  0
   -2.7786    0.3789    0.6011 C   0  0  0  0  0  0  0  0  0  0  0  0
   -1.2545   -2.6268    0.6217 H   0  0  0  0  0  0  0  0  0  0  0  0
   -0.1083   -2.3769   -0.8112 H   0  0  0  0  0  0  0  0  0  0  0  0
    0.5819   -2.4945    0.8213 H   0  0  0  0  0  0  0  0  0  0  0  0
   -0.3218   -0.4155    1.5027 H   0  0  0  0  0  0  0  0  0  0  0  0
    0.8241   -0.6571   -1.3670 H   0  0  0  0  0  0  0  0  0  0  0  0
    0.9669    1.8986    0.4525 H   0  0  0  0  0  0  0  0  0  0  0  0
    0.9092    1.8027   -1.3852 H   0  0  0  0  0  0  0  0  0  0  0  0
    3.3152    1.4664    0.0128 H   0  0  0  0  0  0  0  0  0  0  0  0
    2.8428    0.4028   -1.4702 H   0  0  0  0  0  0  0  0  0  0  0  0
    1.9761   -0.0477    1.4674 H   0  0  0  0  0  0  0  0  0  0  0  0
    2.5638   -1.3219    0.2236 H   0  0  0  0  0  0  0  0  0  0  0  0
   -1.8178   -0.5437   -1.1769 H   0  0  0  0  0  0  0  0  0  0  0  0
   -2.2207    1.8960   -0.9734 H   0  0  0  0  0  0  0  0  0  0  0  0
   -1.3278    2.0063    0.6743 H   0  0  0  0  0  0  0  0  0  0  0  0
   -3.7824    0.2882    0.0955 H   0  0  0  0  0  0  0  0  0  0  0  0
   -2.8505    0.3504    1.6854 H   0  0  0  0  0  0  0  0  0  0  0  0
  1  2  1  0
  2  3  1  0
  3  4  1  0
  4  5  1  0
  5  6  1  0
  2  7  1  0
  7  8  1  0
  8  9  1  0
  6  3  1  0
  9  7  1  0
  1 10  1  0
  1 11  1  0
  1 12  1  0
  2 13  1  0
  3 14  1  0
  4 15  1  0
  4 16  1  0
  5 17  1  0
  5 18  1  0
  6 19  1  0
  6 20  1  0
  7 21  1  0
  8 22  1  0
  8 23  1  0
  9 24  1  0
  9 25  1  0
M  END
