
     RDKit          3D

 19 20  0  0  0  0  0  0  0  0999 V2000
    1.4141   -0.5528   -1.1840 C   0  0  0  0  0  0  0  0  0  0  0  0
    0.6746    0.4206   -0.3011 C   0  0  0  0  0  0  0  0  0  0  0  0
    1.3340    0.5807    1.0310 C   0  0  0  0  0  0  0  0  0  0  0  0
   -0.7558    0.0276   -0.2495 C   0  0  0  0  0  0  0  0  0  0  0  0
   -1.2290   -1.2746    0.2498 C   0  0  0  0  0  0  0  0  0  0  0  0
   -1.5434   -0.0213    0.9906 C   0  0  0  0  0  0  0  0  0  0  0  0
   -2.5682    0.7699    0.4597 O   0  0  0  0  0  0  0  0  0  0  0  0
   -1.8026    0.9866   -0.6802 C   0  0  0  0  0  0  0  0  0  0  0  0
   -1.9678    1.7367   -1.6971 O   0  0  0  0  0  0  0  0  0  0  0  0
    0.7659   -1.4241   -1.4506 H   0  0  0  0  0  0  0  0  0  0  0  0
    1.7120   -0.1002   -2.1530 H   0  0  0  0  0  0  0  0  0  0  0  0
    2.3718   -0.9076   -0.7181 H   0  0  0  0  0  0  0  0  0  0  0  0
    0.7298    1.4241   -0.8120 H   0  0  0  0  0  0  0  0  0  0  0  0
    1.2227    1.6311    1.3837 H   0  0  0  0  0  0  0  0  0  0  0  0
    2.4274    0.4305    0.8834 H   0  0  0  0  0  0  0  0  0  0  0  0
    1.0151   -0.1605    1.7843 H   0  0  0  0  0  0  0  0  0  0  0  0
   -2.0914   -1.7569   -0.2919 H   0  0  0  0  0  0  0  0  0  0  0  0
   -0.5938   -1.9974    0.7670 H   0  0  0  0  0  0  0  0  0  0  0  0
   -1.1156    0.1877    1.9878 H   0  0  0  0  0  0  0  0  0  0  0  0
  1  2  1  0
  2  3  1  0
  2  4  1  0
  4  5  1  0
  5  6  1  0
  6  7  1  0
  7  8  1  0
  8  9  2  0
  6  4  1  0
  8  4  1  0
  1 10  1  0
  1 11  1  0
  1 12  1  0
  2 13  1  0
  3 14  1  0
  3 15  1  0
  3 16  1  0
  5 17  1  0
  5 18  1  0
  6 19  1  0
M  END
