
     RDKit          3D

 23 24  0  0  0  0  0  0  0  0999 V2000
   -2.4999   -0.1585    1.2694 C   0  0  0  0  0  0  0  0  0  0  0  0
   -1.6586   -0.0256    0.0354 C   0  0  0  0  0  0  0  0  0  0  0  0
   -2.3648    0.7420   -1.0585 C   0  0  0  0  0  0  0  0  0  0  0  0
   -0.4177    0.5316    0.2576 O   0  0  0  0  0  0  0  0  0  0  0  0
    0.6095   -0.3158   -0.0694 C   0  0  0  0  0  0  0  0  0  0  0  0
    1.5702   -0.6478    1.0607 C   0  0  0  0  0  0  0  0  0  0  0  0
    2.6878   -0.5052    0.0270 C   0  0  0  0  0  0  0  0  0  0  0  0
    2.9017    0.8680   -0.4543 C   0  0  0  0  0  0  0  0  0  0  0  0
    1.6933    0.2022   -0.9406 C   0  0  0  0  0  0  0  0  0  0  0  0
   -2.2807   -1.1323    1.7933 H   0  0  0  0  0  0  0  0  0  0  0  0
   -2.4402    0.6965    1.9459 H   0  0  0  0  0  0  0  0  0  0  0  0
   -3.5666   -0.2792    0.9218 H   0  0  0  0  0  0  0  0  0  0  0  0
   -1.4889   -1.0589   -0.3673 H   0  0  0  0  0  0  0  0  0  0  0  0
   -3.0402    0.0430   -1.5771 H   0  0  0  0  0  0  0  0  0  0  0  0
   -2.8920    1.6299   -0.6531 H   0  0  0  0  0  0  0  0  0  0  0  0
   -1.5729    1.0287   -1.7979 H   0  0  0  0  0  0  0  0  0  0  0  0
    0.1892   -1.2920   -0.4520 H   0  0  0  0  0  0  0  0  0  0  0  0
    1.4646   -1.6413    1.4994 H   0  0  0  0  0  0  0  0  0  0  0  0
    1.6765    0.1974    1.7885 H   0  0  0  0  0  0  0  0  0  0  0  0
    3.1514   -1.3923   -0.3958 H   0  0  0  0  0  0  0  0  0  0  0  0
    3.7189    1.0136   -1.1766 H   0  0  0  0  0  0  0  0  0  0  0  0
    2.8762    1.6614    0.3277 H   0  0  0  0  0  0  0  0  0  0  0  0
    1.6832   -0.1654   -1.9840 H   0  0  0  0  0  0  0  0  0  0  0  0
  1  2  1  0
  2  3  1  0
  2  4  1  0
  4  5  1  0
  5  6  1  0
  6  7  1  0
  7  8  1  0
  8  9  1  0
  9  5  1  0
  9  7  1  0
  1 10  1  0
  1 11  1  0
  1 12  1  0
  2 13  1  0
  3 14  1  0
  3 15  1  0
  3 16  1  0
  5 17  1  0
  6 18  1  0
  6 19  1  0
  7 20  1  0
  8 21  1  0
  8 22  1  0
  9 23  1  0
M  END
