
     RDKit          3D

 23 24  0  0  0  0  0  0  0  0999 V2000
    1.5775   -1.4430    0.6567 C   0  0  0  0  0  0  0  0  0  0  0  0
    1.0463   -0.4417   -0.3280 C   0  0  0  0  0  0  0  0  0  0  0  0
    2.1993    0.5130   -0.6653 C   0  0  0  0  0  0  0  0  0  0  0  0
   -0.0332    0.4071    0.2940 C   0  0  0  0  0  0  0  0  0  0  0  0
   -0.5962    1.4204   -0.6436 C   0  0  0  0  0  0  0  0  0  0  0  0
   -1.8096    1.7387   -0.0855 O   0  0  0  0  0  0  0  0  0  0  0  0
   -2.3642    0.6253    0.4732 C   0  0  0  0  0  0  0  0  0  0  0  0
   -2.3453   -0.6300   -0.2735 C   0  0  0  0  0  0  0  0  0  0  0  0
   -1.2467   -0.3883    0.6914 C   0  0  0  0  0  0  0  0  0  0  0  0
    1.5287   -2.4931    0.2556 H   0  0  0  0  0  0  0  0  0  0  0  0
    2.6625   -1.2860    0.8852 H   0  0  0  0  0  0  0  0  0  0  0  0
    1.0655   -1.4000    1.6462 H   0  0  0  0  0  0  0  0  0  0  0  0
    0.7204   -0.9696   -1.2235 H   0  0  0  0  0  0  0  0  0  0  0  0
    2.2300    1.2866    0.1570 H   0  0  0  0  0  0  0  0  0  0  0  0
    2.0585    0.9718   -1.6541 H   0  0  0  0  0  0  0  0  0  0  0  0
    3.1632   -0.0300   -0.5748 H   0  0  0  0  0  0  0  0  0  0  0  0
    0.3590    0.9053    1.1863 H   0  0  0  0  0  0  0  0  0  0  0  0
    0.0041    2.3443   -0.7259 H   0  0  0  0  0  0  0  0  0  0  0  0
   -0.7695    1.0417   -1.6684 H   0  0  0  0  0  0  0  0  0  0  0  0
   -3.0678    0.7994    1.3341 H   0  0  0  0  0  0  0  0  0  0  0  0
   -3.0185   -1.4889   -0.0185 H   0  0  0  0  0  0  0  0  0  0  0  0
   -2.1402   -0.5631   -1.3677 H   0  0  0  0  0  0  0  0  0  0  0  0
   -1.2238   -0.9199    1.6490 H   0  0  0  0  0  0  0  0  0  0  0  0
  1  2  1  0
  2  3  1  0
  2  4  1  0
  4  5  1  0
  5  6  1  0
  6  7  1  0
  7  8  1  0
  8  9  1  0
  9  4  1  0
  9  7  1  0
  1 10  1  0
  1 11  1  0
  1 12  1  0
  2 13  1  0
  3 14  1  0
  3 15  1  0
  3 16  1  0
  4 17  1  0
  5 18  1  0
  5 19  1  0
  7 20  1  0
  8 21  1  0
  8 22  1  0
  9 23  1  0
M  END
