
     RDKit          3D

 21 21  0  0  0  0  0  0  0  0999 V2000
    1.2947    0.0156   -1.3469 C   0  0  0  0  0  0  0  0  0  0  0  0
    0.7415    0.3239    0.0138 C   0  0  0  0  0  0  0  0  0  0  0  0
    1.6056   -0.2350    1.1113 C   0  0  0  0  0  0  0  0  0  0  0  0
   -0.6722   -0.1194    0.2019 C   0  0  0  0  0  0  0  0  0  0  0  0
   -0.9337   -1.5847    0.0437 C   0  0  0  0  0  0  0  0  0  0  0  0
   -1.7306    0.7498   -0.4434 C   0  0  0  0  0  0  0  0  0  0  0  0
   -1.2881    1.6429    0.6628 C   0  0  0  0  0  0  0  0  0  0  0  0
   -1.0830    2.8617    0.8828 O   0  0  0  0  0  0  0  0  0  0  0  0
   -1.1907    0.4496    1.4118 O   0  0  0  0  0  0  0  0  0  0  0  0
    2.3983    0.1585   -1.3125 H   0  0  0  0  0  0  0  0  0  0  0  0
    0.8950    0.7203   -2.0786 H   0  0  0  0  0  0  0  0  0  0  0  0
    1.0678   -1.0071   -1.6970 H   0  0  0  0  0  0  0  0  0  0  0  0
    0.7473    1.4455    0.1123 H   0  0  0  0  0  0  0  0  0  0  0  0
    2.5761   -0.4918    0.6792 H   0  0  0  0  0  0  0  0  0  0  0  0
    1.1153   -1.0686    1.6605 H   0  0  0  0  0  0  0  0  0  0  0  0
    1.8097    0.5461    1.8941 H   0  0  0  0  0  0  0  0  0  0  0  0
   -0.7090   -1.8526   -1.0093 H   0  0  0  0  0  0  0  0  0  0  0  0
   -0.3646   -2.2026    0.7363 H   0  0  0  0  0  0  0  0  0  0  0  0
   -2.0371   -1.7416    0.1583 H   0  0  0  0  0  0  0  0  0  0  0  0
   -1.5148    1.0773   -1.4480 H   0  0  0  0  0  0  0  0  0  0  0  0
   -2.7274    0.3120   -0.2332 H   0  0  0  0  0  0  0  0  0  0  0  0
  1  2  1  0
  2  3  1  0
  2  4  1  0
  4  5  1  0
  4  6  1  0
  6  7  1  0
  7  8  2  0
  7  9  1  0
  9  4  1  0
  1 10  1  0
  1 11  1  0
  1 12  1  0
  2 13  1  0
  3 14  1  0
  3 15  1  0
  3 16  1  0
  5 17  1  0
  5 18  1  0
  5 19  1  0
  6 20  1  0
  6 21  1  0
M  END
