
     RDKit          3D

 25 25  0  0  0  0  0  0  0  0999 V2000
    1.5995    0.5824   -1.1796 C   0  0  0  0  0  0  0  0  0  0  0  0
    1.4616   -0.1069    0.1338 C   0  0  0  0  0  0  0  0  0  0  0  0
    2.2920    0.5686    1.2201 C   0  0  0  0  0  0  0  0  0  0  0  0
    0.1049   -0.3208    0.6632 C   0  0  0  0  0  0  0  0  0  0  0  0
   -0.8790   -1.1359   -0.1405 C   0  0  0  0  0  0  0  0  0  0  0  0
   -1.5087   -2.2866    0.5736 C   0  0  0  0  0  0  0  0  0  0  0  0
   -1.1551    0.2831    0.2689 C   0  0  0  0  0  0  0  0  0  0  0  0
   -1.3588    1.3331   -0.7482 C   0  0  0  0  0  0  0  0  0  0  0  0
   -2.7377    1.6327   -0.8216 O   0  0  0  0  0  0  0  0  0  0  0  0
    1.1587    0.0753   -2.0275 H   0  0  0  0  0  0  0  0  0  0  0  0
    1.2955    1.6425   -1.0651 H   0  0  0  0  0  0  0  0  0  0  0  0
    2.7028    0.6587   -1.4346 H   0  0  0  0  0  0  0  0  0  0  0  0
    1.9470   -1.1229    0.0087 H   0  0  0  0  0  0  0  0  0  0  0  0
    1.6384    1.3502    1.7053 H   0  0  0  0  0  0  0  0  0  0  0  0
    3.1986    1.0314    0.7891 H   0  0  0  0  0  0  0  0  0  0  0  0
    2.5409   -0.1715    2.0257 H   0  0  0  0  0  0  0  0  0  0  0  0
    0.1612   -0.6159    1.7641 H   0  0  0  0  0  0  0  0  0  0  0  0
   -0.7090   -1.2955   -1.2175 H   0  0  0  0  0  0  0  0  0  0  0  0
   -2.3197   -2.0034    1.2667 H   0  0  0  0  0  0  0  0  0  0  0  0
   -0.6832   -2.8357    1.1033 H   0  0  0  0  0  0  0  0  0  0  0  0
   -1.9608   -3.0266   -0.1455 H   0  0  0  0  0  0  0  0  0  0  0  0
   -1.9601    0.3296    1.0689 H   0  0  0  0  0  0  0  0  0  0  0  0
   -0.9475    1.1596   -1.7409 H   0  0  0  0  0  0  0  0  0  0  0  0
   -0.8976    2.2929   -0.3700 H   0  0  0  0  0  0  0  0  0  0  0  0
   -2.9837    1.9817   -1.7004 H   0  0  0  0  0  0  0  0  0  0  0  0
  1  2  1  0
  2  3  1  0
  2  4  1  0
  4  5  1  0
  5  6  1  0
  5  7  1  0
  7  8  1  0
  8  9  1  0
  7  4  1  0
  1 10  1  0
  1 11  1  0
  1 12  1  0
  2 13  1  0
  3 14  1  0
  3 15  1  0
  3 16  1  0
  4 17  1  0
  5 18  1  0
  6 19  1  0
  6 20  1  0
  6 21  1  0
  7 22  1  0
  8 23  1  0
  8 24  1  0
  9 25  1  0
M  END
