
     RDKit          3D

 19 20  0  0  0  0  0  0  0  0999 V2000
   -1.8757    0.5350   -0.7276 C   0  0  0  0  0  0  0  0  0  0  0  0
   -1.0404   -0.5661   -0.0599 C   0  0  0  0  0  0  0  0  0  0  0  0
   -1.2988   -0.5770    1.3728 C   0  0  0  0  0  0  0  0  0  0  0  0
   -1.4706    0.4430    2.0016 O   0  0  0  0  0  0  0  0  0  0  0  0
    0.3849   -0.3082   -0.4385 C   0  0  0  0  0  0  0  0  0  0  0  0
    1.4367   -1.2293    0.0716 C   0  0  0  0  0  0  0  0  0  0  0  0
    1.3987    0.1713    0.5106 C   0  0  0  0  0  0  0  0  0  0  0  0
    1.7480    1.2026   -0.5298 C   0  0  0  0  0  0  0  0  0  0  0  0
    0.6968    0.7224   -1.3063 O   0  0  0  0  0  0  0  0  0  0  0  0
   -1.9622    0.3672   -1.8139 H   0  0  0  0  0  0  0  0  0  0  0  0
   -2.8443    0.6748   -0.2174 H   0  0  0  0  0  0  0  0  0  0  0  0
   -1.2899    1.4691   -0.5772 H   0  0  0  0  0  0  0  0  0  0  0  0
   -1.3570   -1.5216   -0.5617 H   0  0  0  0  0  0  0  0  0  0  0  0
   -1.3401   -1.5155    1.8976 H   0  0  0  0  0  0  0  0  0  0  0  0
    1.0814   -2.0066    0.7645 H   0  0  0  0  0  0  0  0  0  0  0  0
    2.2050   -1.5380   -0.6828 H   0  0  0  0  0  0  0  0  0  0  0  0
    1.1646    0.4809    1.5445 H   0  0  0  0  0  0  0  0  0  0  0  0
    2.7083    0.9356   -1.0314 H   0  0  0  0  0  0  0  0  0  0  0  0
    1.6545    2.2603   -0.2165 H   0  0  0  0  0  0  0  0  0  0  0  0
  1  2  1  0
  2  3  1  0
  3  4  2  0
  2  5  1  0
  5  6  1  0
  6  7  1  0
  7  8  1  0
  8  9  1  0
  7  5  1  0
  9  5  1  0
  1 10  1  0
  1 11  1  0
  1 12  1  0
  2 13  1  0
  3 14  1  0
  6 15  1  0
  6 16  1  0
  7 17  1  0
  8 18  1  0
  8 19  1  0
M  END
