
     RDKit          3D

 23 22  0  0  0  0  0  0  0  0999 V2000
    1.9793   -0.8424    0.7429 C   0  0  0  0  0  0  0  0  0  0  0  0
    1.3903    0.3644    0.0055 C   0  0  0  0  0  0  0  0  0  0  0  0
    2.5550    1.2420   -0.3558 C   0  0  0  0  0  0  0  0  0  0  0  0
    0.6248   -0.0584   -1.0100 O   0  0  0  0  0  0  0  0  0  0  0  0
   -0.7095    0.1938   -1.0185 C   0  0  0  0  0  0  0  0  0  0  0  0
   -1.3314   -0.4661    0.1808 C   0  0  0  0  0  0  0  0  0  0  0  0
   -1.1242   -1.8462    0.1536 O   0  0  0  0  0  0  0  0  0  0  0  0
   -2.8218   -0.2608    0.2651 C   0  0  0  0  0  0  0  0  0  0  0  0
   -3.1782    1.0863    0.3003 O   0  0  0  0  0  0  0  0  0  0  0  0
    1.2046   -1.1813    1.4485 H   0  0  0  0  0  0  0  0  0  0  0  0
    2.1985   -1.6758    0.0551 H   0  0  0  0  0  0  0  0  0  0  0  0
    2.8712   -0.5364    1.3252 H   0  0  0  0  0  0  0  0  0  0  0  0
    0.7921    0.9133    0.7558 H   0  0  0  0  0  0  0  0  0  0  0  0
    3.2896    1.1744    0.4745 H   0  0  0  0  0  0  0  0  0  0  0  0
    2.1942    2.2901   -0.3613 H   0  0  0  0  0  0  0  0  0  0  0  0
    3.0754    0.9453   -1.2748 H   0  0  0  0  0  0  0  0  0  0  0  0
   -1.1368   -0.3369   -1.9200 H   0  0  0  0  0  0  0  0  0  0  0  0
   -0.9825    1.2655   -1.0354 H   0  0  0  0  0  0  0  0  0  0  0  0
   -0.9067   -0.0889    1.1186 H   0  0  0  0  0  0  0  0  0  0  0  0
   -0.3578   -2.1045   -0.4289 H   0  0  0  0  0  0  0  0  0  0  0  0
   -3.1522   -0.6924    1.2345 H   0  0  0  0  0  0  0  0  0  0  0  0
   -3.3660   -0.8287   -0.5175 H   0  0  0  0  0  0  0  0  0  0  0  0
   -3.1079    1.4438   -0.6086 H   0  0  0  0  0  0  0  0  0  0  0  0
  1  2  1  0
  2  3  1  0
  2  4  1  0
  4  5  1  0
  5  6  1  0
  6  7  1  0
  6  8  1  0
  8  9  1  0
  1 10  1  0
  1 11  1  0
  1 12  1  0
  2 13  1  0
  3 14  1  0
  3 15  1  0
  3 16  1  0
  5 17  1  0
  5 18  1  0
  6 19  1  0
  7 20  1  0
  8 21  1  0
  8 22  1  0
  9 23  1  0
M  END
