
     RDKit          3D

 22 21  0  0  0  0  0  0  0  0999 V2000
   -1.9039   -0.8780    0.4195 C   0  0  0  0  0  0  0  0  0  0  0  0
   -0.9426   -0.2810   -0.5918 C   0  0  0  0  0  0  0  0  0  0  0  0
   -1.3272    1.1038   -1.0019 C   0  0  0  0  0  0  0  0  0  0  0  0
    0.4405   -0.4008   -0.0531 C   0  0  0  0  0  0  0  0  0  0  0  0
    1.4900    0.1594   -0.9705 C   0  0  0  0  0  0  0  0  0  0  0  0
    2.7400   -0.0060   -0.3672 O   0  0  0  0  0  0  0  0  0  0  0  0
    0.5711    0.1356    1.3586 C   0  0  0  0  0  0  0  0  0  0  0  0
    1.8785    0.0057    1.8257 O   0  0  0  0  0  0  0  0  0  0  0  0
   -1.3855   -1.5996    1.0820 H   0  0  0  0  0  0  0  0  0  0  0  0
   -2.7057   -1.4576   -0.1083 H   0  0  0  0  0  0  0  0  0  0  0  0
   -2.4135   -0.0667    1.0139 H   0  0  0  0  0  0  0  0  0  0  0  0
   -1.0154   -0.9275   -1.5030 H   0  0  0  0  0  0  0  0  0  0  0  0
   -0.6223    1.8793   -0.6384 H   0  0  0  0  0  0  0  0  0  0  0  0
   -2.3218    1.3366   -0.5669 H   0  0  0  0  0  0  0  0  0  0  0  0
   -1.3709    1.2331   -2.1088 H   0  0  0  0  0  0  0  0  0  0  0  0
    0.6610   -1.5068    0.0314 H   0  0  0  0  0  0  0  0  0  0  0  0
    1.4718   -0.4297   -1.9045 H   0  0  0  0  0  0  0  0  0  0  0  0
    1.3218    1.2229   -1.2214 H   0  0  0  0  0  0  0  0  0  0  0  0
    3.3271   -0.6246   -0.8733 H   0  0  0  0  0  0  0  0  0  0  0  0
    0.3369    1.2369    1.3121 H   0  0  0  0  0  0  0  0  0  0  0  0
   -0.0775   -0.3822    2.0655 H   0  0  0  0  0  0  0  0  0  0  0  0
    1.8476    0.2473    2.8003 H   0  0  0  0  0  0  0  0  0  0  0  0
  1  2  1  0
  2  3  1  0
  2  4  1  0
  4  5  1  0
  5  6  1  0
  4  7  1  0
  7  8  1  0
  1  9  1  0
  1 10  1  0
  1 11  1  0
  2 12  1  0
  3 13  1  0
  3 14  1  0
  3 15  1  0
  4 16  1  0
  5 17  1  0
  5 18  1  0
  6 19  1  0
  7 20  1  0
  7 21  1  0
  8 22  1  0
M  END
