
     RDKit          3D

 23 24  0  0  0  0  0  0  0  0999 V2000
    1.6333    1.3145    0.5677 C   0  0  0  0  0  0  0  0  0  0  0  0
    1.4550   -0.1804    0.5495 C   0  0  0  0  0  0  0  0  0  0  0  0
    2.5356   -0.8023   -0.3146 C   0  0  0  0  0  0  0  0  0  0  0  0
    0.0861   -0.6296    0.1952 C   0  0  0  0  0  0  0  0  0  0  0  0
   -0.5722   -0.3142   -1.0809 C   0  0  0  0  0  0  0  0  0  0  0  0
   -2.0012   -0.6949   -1.2596 C   0  0  0  0  0  0  0  0  0  0  0  0
   -2.3939   -0.1691    0.1029 C   0  0  0  0  0  0  0  0  0  0  0  0
   -3.3754    0.7913    0.1240 O   0  0  0  0  0  0  0  0  0  0  0  0
   -0.9927    0.3824    0.2313 C   0  0  0  0  0  0  0  0  0  0  0  0
    1.3663    1.7587    1.5615 H   0  0  0  0  0  0  0  0  0  0  0  0
    2.7279    1.5559    0.4429 H   0  0  0  0  0  0  0  0  0  0  0  0
    1.1132    1.8403   -0.2289 H   0  0  0  0  0  0  0  0  0  0  0  0
    1.6725   -0.5317    1.6005 H   0  0  0  0  0  0  0  0  0  0  0  0
    3.3091   -0.0274   -0.5494 H   0  0  0  0  0  0  0  0  0  0  0  0
    3.0838   -1.6126    0.2135 H   0  0  0  0  0  0  0  0  0  0  0  0
    2.1483   -1.2025   -1.2625 H   0  0  0  0  0  0  0  0  0  0  0  0
   -0.1752   -1.6445    0.6155 H   0  0  0  0  0  0  0  0  0  0  0  0
   -0.1304    0.2918   -1.8683 H   0  0  0  0  0  0  0  0  0  0  0  0
   -2.2092   -1.7843   -1.4153 H   0  0  0  0  0  0  0  0  0  0  0  0
   -2.5359   -0.0739   -2.0370 H   0  0  0  0  0  0  0  0  0  0  0  0
   -2.5430   -1.0182    0.7967 H   0  0  0  0  0  0  0  0  0  0  0  0
   -3.3816    1.2955   -0.7434 H   0  0  0  0  0  0  0  0  0  0  0  0
   -0.8203    1.4551    0.2954 H   0  0  0  0  0  0  0  0  0  0  0  0
  1  2  1  0
  2  3  1  0
  2  4  1  0
  4  5  1  0
  5  6  1  0
  6  7  1  0
  7  8  1  0
  7  9  1  0
  9  4  1  0
  9  5  1  0
  1 10  1  0
  1 11  1  0
  1 12  1  0
  2 13  1  0
  3 14  1  0
  3 15  1  0
  3 16  1  0
  4 17  1  0
  5 18  1  0
  6 19  1  0
  6 20  1  0
  7 21  1  0
  8 22  1  0
  9 23  1  0
M  END
