
     RDKit          3D

 20 21  0  0  0  0  0  0  0  0999 V2000
    1.1426    0.8935    1.3126 C   0  0  0  0  0  0  0  0  0  0  0  0
    0.7570   -0.2801    0.4049 C   0  0  0  0  0  0  0  0  0  0  0  0
    1.7123   -0.2516   -0.7717 C   0  0  0  0  0  0  0  0  0  0  0  0
   -0.6610   -0.1231    0.0338 C   0  0  0  0  0  0  0  0  0  0  0  0
   -1.1872    1.0599   -0.7003 C   0  0  0  0  0  0  0  0  0  0  0  0
   -1.9826    0.2209   -1.4997 O   0  0  0  0  0  0  0  0  0  0  0  0
   -1.4073   -0.9178   -0.9104 C   0  0  0  0  0  0  0  0  0  0  0  0
   -1.6930   -1.1283    0.5352 C   0  0  0  0  0  0  0  0  0  0  0  0
    2.2308    0.9328    1.4802 H   0  0  0  0  0  0  0  0  0  0  0  0
    0.6661    0.7968    2.3073 H   0  0  0  0  0  0  0  0  0  0  0  0
    0.7726    1.8193    0.8631 H   0  0  0  0  0  0  0  0  0  0  0  0
    0.8899   -1.2427    0.9349 H   0  0  0  0  0  0  0  0  0  0  0  0
    1.5610    0.6933   -1.3347 H   0  0  0  0  0  0  0  0  0  0  0  0
    1.5648   -1.1118   -1.4387 H   0  0  0  0  0  0  0  0  0  0  0  0
    2.7413   -0.2153   -0.3310 H   0  0  0  0  0  0  0  0  0  0  0  0
   -1.8057    1.6910   -0.0418 H   0  0  0  0  0  0  0  0  0  0  0  0
   -0.4288    1.6042   -1.2959 H   0  0  0  0  0  0  0  0  0  0  0  0
   -1.0375   -1.7298   -1.5310 H   0  0  0  0  0  0  0  0  0  0  0  0
   -2.5300   -0.6287    1.0471 H   0  0  0  0  0  0  0  0  0  0  0  0
   -1.3052   -2.0825    0.9362 H   0  0  0  0  0  0  0  0  0  0  0  0
  1  2  1  0
  2  3  1  0
  2  4  1  0
  4  5  1  0
  5  6  1  0
  6  7  1  0
  7  8  1  0
  7  4  1  0
  8  4  1  0
  1  9  1  0
  1 10  1  0
  1 11  1  0
  2 12  1  0
  3 13  1  0
  3 14  1  0
  3 15  1  0
  5 16  1  0
  5 17  1  0
  7 18  1  0
  8 19  1  0
  8 20  1  0
M  END
