
     RDKit          3D

 23 23  0  0  0  0  0  0  0  0999 V2000
   -2.3859    0.1385    1.2681 C   0  0  0  0  0  0  0  0  0  0  0  0
   -1.2968   -0.3384    0.3310 C   0  0  0  0  0  0  0  0  0  0  0  0
   -1.9558   -0.7147   -0.9811 C   0  0  0  0  0  0  0  0  0  0  0  0
   -0.3130    0.7763    0.0183 C   0  0  0  0  0  0  0  0  0  0  0  0
    0.7604    0.2655   -0.9193 C   0  0  0  0  0  0  0  0  0  0  0  0
    1.7241    0.7215    0.1579 C   0  0  0  0  0  0  0  0  0  0  0  0
    2.5513   -0.3941    0.7573 C   0  0  0  0  0  0  0  0  0  0  0  0
    3.6463   -0.7225   -0.0183 O   0  0  0  0  0  0  0  0  0  0  0  0
    0.6455    0.9870    1.0015 O   0  0  0  0  0  0  0  0  0  0  0  0
   -2.0058    0.4545    2.2417 H   0  0  0  0  0  0  0  0  0  0  0  0
   -3.1469   -0.6669    1.3219 H   0  0  0  0  0  0  0  0  0  0  0  0
   -2.8967    1.0035    0.7602 H   0  0  0  0  0  0  0  0  0  0  0  0
   -0.7676   -1.2137    0.7925 H   0  0  0  0  0  0  0  0  0  0  0  0
   -3.0592   -0.8695   -0.8358 H   0  0  0  0  0  0  0  0  0  0  0  0
   -1.5731   -1.6843   -1.3695 H   0  0  0  0  0  0  0  0  0  0  0  0
   -1.8379    0.1078   -1.7379 H   0  0  0  0  0  0  0  0  0  0  0  0
   -0.8457    1.6791   -0.3136 H   0  0  0  0  0  0  0  0  0  0  0  0
    0.7997    0.8808   -1.8548 H   0  0  0  0  0  0  0  0  0  0  0  0
    0.7844   -0.8198   -1.0656 H   0  0  0  0  0  0  0  0  0  0  0  0
    2.3271    1.5988   -0.1322 H   0  0  0  0  0  0  0  0  0  0  0  0
    1.9194   -1.2828    0.9266 H   0  0  0  0  0  0  0  0  0  0  0  0
    2.9218   -0.0435    1.7431 H   0  0  0  0  0  0  0  0  0  0  0  0
    4.0044    0.1369   -0.3837 H   0  0  0  0  0  0  0  0  0  0  0  0
  1  2  1  0
  2  3  1  0
  2  4  1  0
  4  5  1  0
  5  6  1  0
  6  7  1  0
  7  8  1  0
  6  9  1  0
  9  4  1  0
  1 10  1  0
  1 11  1  0
  1 12  1  0
  2 13  1  0
  3 14  1  0
  3 15  1  0
  3 16  1  0
  4 17  1  0
  5 18  1  0
  5 19  1  0
  6 20  1  0
  7 21  1  0
  7 22  1  0
  8 23  1  0
M  END
