
     RDKit          3D

 25 26  0  0  0  0  0  0  0  0999 V2000
   -1.8973    1.2093    0.2257 C   0  0  0  0  0  0  0  0  0  0  0  0
   -1.0107    0.0073    0.1270 C   0  0  0  0  0  0  0  0  0  0  0  0
   -1.0916   -0.5558   -1.2746 C   0  0  0  0  0  0  0  0  0  0  0  0
   -1.5695   -1.0757    1.0506 C   0  0  0  0  0  0  0  0  0  0  0  0
    0.3944    0.2229    0.5109 C   0  0  0  0  0  0  0  0  0  0  0  0
    1.1627    1.2770   -0.3133 C   0  0  0  0  0  0  0  0  0  0  0  0
    2.3200    0.4884    0.3188 C   0  0  0  0  0  0  0  0  0  0  0  0
    2.7793   -0.8087   -0.0129 C   0  0  0  0  0  0  0  0  0  0  0  0
    1.3742   -0.6708   -0.2261 C   0  0  0  0  0  0  0  0  0  0  0  0
   -2.5859    1.1196    1.0979 H   0  0  0  0  0  0  0  0  0  0  0  0
   -2.5727    1.2608   -0.6701 H   0  0  0  0  0  0  0  0  0  0  0  0
   -1.3722    2.1616    0.3104 H   0  0  0  0  0  0  0  0  0  0  0  0
   -2.1930   -0.6537   -1.5145 H   0  0  0  0  0  0  0  0  0  0  0  0
   -0.6347   -1.5701   -1.3580 H   0  0  0  0  0  0  0  0  0  0  0  0
   -0.6630    0.1035   -2.0425 H   0  0  0  0  0  0  0  0  0  0  0  0
   -1.8221   -0.5920    2.0047 H   0  0  0  0  0  0  0  0  0  0  0  0
   -0.8246   -1.8757    1.2225 H   0  0  0  0  0  0  0  0  0  0  0  0
   -2.4872   -1.4439    0.5600 H   0  0  0  0  0  0  0  0  0  0  0  0
    0.5981    0.3091    1.5970 H   0  0  0  0  0  0  0  0  0  0  0  0
    1.0583    1.1223   -1.3824 H   0  0  0  0  0  0  0  0  0  0  0  0
    1.0911    2.2934    0.0737 H   0  0  0  0  0  0  0  0  0  0  0  0
    2.2208    0.6601    1.4392 H   0  0  0  0  0  0  0  0  0  0  0  0
    3.5173   -0.8849   -0.8673 H   0  0  0  0  0  0  0  0  0  0  0  0
    3.0886   -1.5520    0.7814 H   0  0  0  0  0  0  0  0  0  0  0  0
    1.1199   -0.5518   -1.3305 H   0  0  0  0  0  0  0  0  0  0  0  0
  1  2  1  0
  2  3  1  0
  2  4  1  0
  2  5  1  0
  5  6  1  0
  6  7  1  0
  7  8  1  0
  8  9  1  0
  9  5  1  0
  9  7  1  0
  1 10  1  0
  1 11  1  0
  1 12  1  0
  3 13  1  0
  3 14  1  0
  3 15  1  0
  4 16  1  0
  4 17  1  0
  4 18  1  0
  5 19  1  0
  6 20  1  0
  6 21  1  0
  7 22  1  0
  8 23  1  0
  8 24  1  0
  9 25  1  0
M  END
