
     RDKit          3D

 19 19  0  0  0  0  0  0  0  0999 V2000
   -0.9628    0.8152   -0.9772 C   0  0  0  0  0  0  0  0  0  0  0  0
   -0.7027    0.5766    0.4918 C   0  0  0  0  0  0  0  0  0  0  0  0
   -1.7749   -0.3461    1.0165 C   0  0  0  0  0  0  0  0  0  0  0  0
    0.6872    0.0532    0.7520 C   0  0  0  0  0  0  0  0  0  0  0  0
    0.9777   -1.2447    0.0773 C   0  0  0  0  0  0  0  0  0  0  0  0
    1.7816   -0.8497   -1.0219 O   0  0  0  0  0  0  0  0  0  0  0  0
    2.4477    0.3047   -0.6313 C   0  0  0  0  0  0  0  0  0  0  0  0
    3.6259    0.6818   -0.9400 O   0  0  0  0  0  0  0  0  0  0  0  0
    1.5876    1.0156    0.1862 O   0  0  0  0  0  0  0  0  0  0  0  0
   -1.8899    1.4546   -1.0287 H   0  0  0  0  0  0  0  0  0  0  0  0
   -1.1715   -0.1282   -1.5133 H   0  0  0  0  0  0  0  0  0  0  0  0
   -0.1366    1.4035   -1.4242 H   0  0  0  0  0  0  0  0  0  0  0  0
   -0.7958    1.5348    1.0447 H   0  0  0  0  0  0  0  0  0  0  0  0
   -1.7773   -1.3294    0.5089 H   0  0  0  0  0  0  0  0  0  0  0  0
   -1.7137   -0.4776    2.0997 H   0  0  0  0  0  0  0  0  0  0  0  0
   -2.7523    0.1297    0.7519 H   0  0  0  0  0  0  0  0  0  0  0  0
    0.8736    0.0614    1.8316 H   0  0  0  0  0  0  0  0  0  0  0  0
    0.0846   -1.8063   -0.2156 H   0  0  0  0  0  0  0  0  0  0  0  0
    1.6116   -1.8492    0.7724 H   0  0  0  0  0  0  0  0  0  0  0  0
  1  2  1  0
  2  3  1  0
  2  4  1  0
  4  5  1  0
  5  6  1  0
  6  7  1  0
  7  8  2  0
  7  9  1  0
  9  4  1  0
  1 10  1  0
  1 11  1  0
  1 12  1  0
  2 13  1  0
  3 14  1  0
  3 15  1  0
  3 16  1  0
  4 17  1  0
  5 18  1  0
  5 19  1  0
M  END
