
     RDKit          3D

 27 27  0  0  0  0  0  0  0  0999 V2000
   -2.5910    1.2632    0.1452 C   0  0  0  0  0  0  0  0  0  0  0  0
   -1.9825    0.0856    0.8777 C   0  0  0  0  0  0  0  0  0  0  0  0
   -2.9923   -1.0532    0.7438 C   0  0  0  0  0  0  0  0  0  0  0  0
   -0.7388   -0.3380    0.1520 C   0  0  0  0  0  0  0  0  0  0  0  0
    0.3056    0.7246    0.0595 C   0  0  0  0  0  0  0  0  0  0  0  0
    1.4853    0.1102   -0.7063 C   0  0  0  0  0  0  0  0  0  0  0  0
    2.0159   -1.0839    0.0217 C   0  0  0  0  0  0  0  0  0  0  0  0
    3.4143   -0.4829   -0.1250 C   0  0  0  0  0  0  0  0  0  0  0  0
    2.7856    0.8521   -0.4713 C   0  0  0  0  0  0  0  0  0  0  0  0
   -1.8948    2.1205    0.2520 H   0  0  0  0  0  0  0  0  0  0  0  0
   -2.6985    0.9388   -0.9221 H   0  0  0  0  0  0  0  0  0  0  0  0
   -3.6044    1.4794    0.5041 H   0  0  0  0  0  0  0  0  0  0  0  0
   -1.8408    0.2605    1.9457 H   0  0  0  0  0  0  0  0  0  0  0  0
   -3.8912   -0.7687    1.3111 H   0  0  0  0  0  0  0  0  0  0  0  0
   -3.2943   -1.1904   -0.3060 H   0  0  0  0  0  0  0  0  0  0  0  0
   -2.5554   -2.0107    1.0927 H   0  0  0  0  0  0  0  0  0  0  0  0
   -0.2741   -1.2368    0.6067 H   0  0  0  0  0  0  0  0  0  0  0  0
   -1.0422   -0.6374   -0.8731 H   0  0  0  0  0  0  0  0  0  0  0  0
    0.6360    1.0745    1.0563 H   0  0  0  0  0  0  0  0  0  0  0  0
   -0.0182    1.6198   -0.5033 H   0  0  0  0  0  0  0  0  0  0  0  0
    1.2999    0.0026   -1.7855 H   0  0  0  0  0  0  0  0  0  0  0  0
    1.8943   -2.0414   -0.5496 H   0  0  0  0  0  0  0  0  0  0  0  0
    1.7103   -1.1490    1.0854 H   0  0  0  0  0  0  0  0  0  0  0  0
    3.9373   -0.9264   -0.9925 H   0  0  0  0  0  0  0  0  0  0  0  0
    3.9726   -0.4990    0.8298 H   0  0  0  0  0  0  0  0  0  0  0  0
    3.2057    1.3045   -1.3771 H   0  0  0  0  0  0  0  0  0  0  0  0
    2.7560    1.5815    0.3667 H   0  0  0  0  0  0  0  0  0  0  0  0
  1  2  1  0
  2  3  1  0
  2  4  1  0
  4  5  1  0
  5  6  1  0
  6  7  1  0
  7  8  1  0
  8  9  1  0
  9  6  1  0
  1 10  1  0
  1 11  1  0
  1 12  1  0
  2 13  1  0
  3 14  1  0
  3 15  1  0
  3 16  1  0
  4 17  1  0
  4 18  1  0
  5 19  1  0
  5 20  1  0
  6 21  1  0
  7 22  1  0
  7 23  1  0
  8 24  1  0
  8 25  1  0
  9 26  1  0
  9 27  1  0
M  END
