
     RDKit          3D

 16 15  0  0  0  0  0  0  0  0999 V2000
   -1.8080    0.8958    0.3311 C   0  0  0  0  0  0  0  0  0  0  0  0
   -0.6056    0.0069    0.1151 C   0  0  0  0  0  0  0  0  0  0  0  0
   -1.1054   -1.3409   -0.2751 C   0  0  0  0  0  0  0  0  0  0  0  0
   -0.7562   -1.9050   -1.3103 O   0  0  0  0  0  0  0  0  0  0  0  0
    0.2549    0.4587   -0.8354 O   0  0  0  0  0  0  0  0  0  0  0  0
    1.5342    0.6916   -0.4351 C   0  0  0  0  0  0  0  0  0  0  0  0
    2.1554   -0.5494    0.0897 C   0  0  0  0  0  0  0  0  0  0  0  0
    3.2958   -0.5961    0.5084 O   0  0  0  0  0  0  0  0  0  0  0  0
   -1.6232    1.5785    1.2118 H   0  0  0  0  0  0  0  0  0  0  0  0
   -2.0881    1.4406   -0.5692 H   0  0  0  0  0  0  0  0  0  0  0  0
   -2.6563    0.2539    0.6465 H   0  0  0  0  0  0  0  0  0  0  0  0
   -0.1321   -0.1169    1.1287 H   0  0  0  0  0  0  0  0  0  0  0  0
   -1.8071   -1.8804    0.3522 H   0  0  0  0  0  0  0  0  0  0  0  0
    1.6565    1.5200    0.2848 H   0  0  0  0  0  0  0  0  0  0  0  0
    2.1237    0.9960   -1.3415 H   0  0  0  0  0  0  0  0  0  0  0  0
    1.5616   -1.4532    0.0982 H   0  0  0  0  0  0  0  0  0  0  0  0
  1  2  1  0
  2  3  1  0
  3  4  2  0
  2  5  1  0
  5  6  1  0
  6  7  1  0
  7  8  2  0
  1  9  1  0
  1 10  1  0
  1 11  1  0
  2 12  1  0
  3 13  1  0
  6 14  1  0
  6 15  1  0
  7 16  1  0
M  END
