
     RDKit          3D

 19 18  0  0  0  0  0  0  0  0999 V2000
   -2.5060   -0.4937    1.3434 C   0  0  0  0  0  0  0  0  0  0  0  0
   -1.8374   -0.6656    0.0017 C   0  0  0  0  0  0  0  0  0  0  0  0
   -0.3785   -0.6166    0.1116 C   0  0  0  0  0  0  0  0  0  0  0  0
    0.8271   -0.5802    0.1863 C   0  0  0  0  0  0  0  0  0  0  0  0
    2.2881   -0.5290    0.2707 C   0  0  0  0  0  0  0  0  0  0  0  0
    2.7665    0.5595   -0.6508 C   0  0  0  0  0  0  0  0  0  0  0  0
    2.2491    1.8062   -0.3040 O   0  0  0  0  0  0  0  0  0  0  0  0
   -2.2808    0.4249   -0.8785 C   0  0  0  0  0  0  0  0  0  0  0  0
   -2.3982    0.2400   -2.0610 O   0  0  0  0  0  0  0  0  0  0  0  0
   -1.9378   -1.0141    2.1338 H   0  0  0  0  0  0  0  0  0  0  0  0
   -3.5310   -0.9173    1.3005 H   0  0  0  0  0  0  0  0  0  0  0  0
   -2.5783    0.5949    1.5975 H   0  0  0  0  0  0  0  0  0  0  0  0
   -2.1822   -1.6636   -0.3887 H   0  0  0  0  0  0  0  0  0  0  0  0
    2.7613   -1.4748   -0.0699 H   0  0  0  0  0  0  0  0  0  0  0  0
    2.6402   -0.2982    1.2996 H   0  0  0  0  0  0  0  0  0  0  0  0
    2.5748    0.2931   -1.7019 H   0  0  0  0  0  0  0  0  0  0  0  0
    3.8694    0.6426   -0.5439 H   0  0  0  0  0  0  0  0  0  0  0  0
    2.1544    2.3053   -1.1742 H   0  0  0  0  0  0  0  0  0  0  0  0
   -2.5008    1.3865   -0.4722 H   0  0  0  0  0  0  0  0  0  0  0  0
  1  2  1  0
  2  3  1  0
  3  4  3  0
  4  5  1  0
  5  6  1  0
  6  7  1  0
  2  8  1  0
  8  9  2  0
  1 10  1  0
  1 11  1  0
  1 12  1  0
  2 13  1  0
  5 14  1  0
  5 15  1  0
  6 16  1  0
  6 17  1  0
  7 18  1  0
  8 19  1  0
M  END
