
     RDKit          3D

 21 21  0  0  0  0  0  0  0  0999 V2000
   -2.1545    0.8256    0.1785 C   0  0  0  0  0  0  0  0  0  0  0  0
   -1.2038   -0.1651   -0.4643 C   0  0  0  0  0  0  0  0  0  0  0  0
   -1.2925   -1.4976    0.1948 C   0  0  0  0  0  0  0  0  0  0  0  0
   -1.7204   -1.5387    1.3336 O   0  0  0  0  0  0  0  0  0  0  0  0
    0.1740    0.4155   -0.3301 C   0  0  0  0  0  0  0  0  0  0  0  0
    1.2432   -0.4867   -0.9413 C   0  0  0  0  0  0  0  0  0  0  0  0
    2.4485    0.1014   -0.2164 C   0  0  0  0  0  0  0  0  0  0  0  0
    2.0352    0.4574    1.0413 O   0  0  0  0  0  0  0  0  0  0  0  0
    0.6673    0.4370    1.0979 C   0  0  0  0  0  0  0  0  0  0  0  0
   -1.8502    1.8448   -0.1960 H   0  0  0  0  0  0  0  0  0  0  0  0
   -1.9766    0.8843    1.2884 H   0  0  0  0  0  0  0  0  0  0  0  0
   -3.2008    0.6446   -0.0631 H   0  0  0  0  0  0  0  0  0  0  0  0
   -1.4799   -0.2387   -1.5279 H   0  0  0  0  0  0  0  0  0  0  0  0
   -0.9973   -2.4183   -0.2875 H   0  0  0  0  0  0  0  0  0  0  0  0
    0.2777    1.4191   -0.7340 H   0  0  0  0  0  0  0  0  0  0  0  0
    1.3028   -0.3931   -2.0223 H   0  0  0  0  0  0  0  0  0  0  0  0
    1.1425   -1.5248   -0.5666 H   0  0  0  0  0  0  0  0  0  0  0  0
    2.6844    1.0596   -0.7644 H   0  0  0  0  0  0  0  0  0  0  0  0
    3.3142   -0.5811   -0.2196 H   0  0  0  0  0  0  0  0  0  0  0  0
    0.2108    1.2917    1.6128 H   0  0  0  0  0  0  0  0  0  0  0  0
    0.3755   -0.5369    1.5862 H   0  0  0  0  0  0  0  0  0  0  0  0
  1  2  1  0
  2  3  1  0
  3  4  2  0
  2  5  1  0
  5  6  1  0
  6  7  1  0
  7  8  1  0
  8  9  1  0
  9  5  1  0
  1 10  1  0
  1 11  1  0
  1 12  1  0
  2 13  1  0
  3 14  1  0
  5 15  1  0
  6 16  1  0
  6 17  1  0
  7 18  1  0
  7 19  1  0
  9 20  1  0
  9 21  1  0
M  END
