
     RDKit          3D

 24 23  0  0  0  0  0  0  0  0999 V2000
   -2.6956    1.2769   -0.5635 C   0  0  0  0  0  0  0  0  0  0  0  0
   -1.7699    0.0637   -0.6341 C   0  0  0  0  0  0  0  0  0  0  0  0
   -2.3098   -0.9577    0.3216 C   0  0  0  0  0  0  0  0  0  0  0  0
   -0.4052    0.5706   -0.2727 C   0  0  0  0  0  0  0  0  0  0  0  0
    0.6539   -0.5041   -0.2900 C   0  0  0  0  0  0  0  0  0  0  0  0
    1.9554    0.1688    0.0931 C   0  0  0  0  0  0  0  0  0  0  0  0
    3.1116   -0.8023    0.1152 C   0  0  0  0  0  0  0  0  0  0  0  0
    4.2468   -0.0723    0.4783 O   0  0  0  0  0  0  0  0  0  0  0  0
   -3.0073    1.4170    0.4884 H   0  0  0  0  0  0  0  0  0  0  0  0
   -3.5345    1.2006   -1.2713 H   0  0  0  0  0  0  0  0  0  0  0  0
   -2.1174    2.1809   -0.8485 H   0  0  0  0  0  0  0  0  0  0  0  0
   -1.8327   -0.3144   -1.6717 H   0  0  0  0  0  0  0  0  0  0  0  0
   -3.0684   -1.5693   -0.2473 H   0  0  0  0  0  0  0  0  0  0  0  0
   -1.5595   -1.6739    0.6909 H   0  0  0  0  0  0  0  0  0  0  0  0
   -2.9088   -0.4918    1.1504 H   0  0  0  0  0  0  0  0  0  0  0  0
   -0.4674    0.9931    0.7494 H   0  0  0  0  0  0  0  0  0  0  0  0
   -0.1170    1.3253   -1.0211 H   0  0  0  0  0  0  0  0  0  0  0  0
    0.6996   -1.0573   -1.2238 H   0  0  0  0  0  0  0  0  0  0  0  0
    0.4229   -1.2143    0.5523 H   0  0  0  0  0  0  0  0  0  0  0  0
    2.1999    0.9917   -0.6250 H   0  0  0  0  0  0  0  0  0  0  0  0
    1.8576    0.5875    1.1015 H   0  0  0  0  0  0  0  0  0  0  0  0
    2.9547   -1.5472    0.9249 H   0  0  0  0  0  0  0  0  0  0  0  0
    3.2797   -1.2524   -0.8703 H   0  0  0  0  0  0  0  0  0  0  0  0
    4.4112    0.6807   -0.1444 H   0  0  0  0  0  0  0  0  0  0  0  0
  1  2  1  0
  2  3  1  0
  2  4  1  0
  4  5  1  0
  5  6  1  0
  6  7  1  0
  7  8  1  0
  1  9  1  0
  1 10  1  0
  1 11  1  0
  2 12  1  0
  3 13  1  0
  3 14  1  0
  3 15  1  0
  4 16  1  0
  4 17  1  0
  5 18  1  0
  5 19  1  0
  6 20  1  0
  6 21  1  0
  7 22  1  0
  7 23  1  0
  8 24  1  0
M  END
