
     RDKit          3D

 13 12  0  0  0  0  0  0  0  0999 V2000
   -0.2588    1.3218   -0.0371 C   0  0  0  0  0  0  0  0  0  0  0  0
    0.0786   -0.1176   -0.4087 C   0  0  0  0  0  0  0  0  0  0  0  0
   -0.8735   -1.0430    0.2798 C   0  0  0  0  0  0  0  0  0  0  0  0
    1.4952   -0.3240    0.0081 C   0  0  0  0  0  0  0  0  0  0  0  0
    2.3377    0.3220   -0.6000 O   0  0  0  0  0  0  0  0  0  0  0  0
   -0.7210    1.2876    0.9591 H   0  0  0  0  0  0  0  0  0  0  0  0
    0.6732    1.9383   -0.0659 H   0  0  0  0  0  0  0  0  0  0  0  0
   -1.0144    1.6784   -0.7646 H   0  0  0  0  0  0  0  0  0  0  0  0
    0.0339   -0.2054   -1.5196 H   0  0  0  0  0  0  0  0  0  0  0  0
   -1.4391   -1.6849   -0.4541 H   0  0  0  0  0  0  0  0  0  0  0  0
   -1.6834   -0.4553    0.8028 H   0  0  0  0  0  0  0  0  0  0  0  0
   -0.4263   -1.7210    1.0027 H   0  0  0  0  0  0  0  0  0  0  0  0
    1.7979   -0.9968    0.7975 H   0  0  0  0  0  0  0  0  0  0  0  0
  1  2  1  0
  2  3  1  0
  2  4  1  0
  4  5  2  0
  1  6  1  0
  1  7  1  0
  1  8  1  0
  2  9  1  0
  3 10  1  0
  3 11  1  0
  3 12  1  0
  4 13  1  0
M  END
