
     RDKit          3D

 23 23  0  0  0  0  0  0  0  0999 V2000
   -2.0714    0.0645   -0.9471 C   0  0  0  0  0  0  0  0  0  0  0  0
   -0.9366   -0.7594   -0.3072 C   0  0  0  0  0  0  0  0  0  0  0  0
   -1.2465   -0.8552    1.1332 C   0  0  0  0  0  0  0  0  0  0  0  0
    0.3280   -0.0487   -0.6788 C   0  0  0  0  0  0  0  0  0  0  0  0
    0.4552   -0.0011   -2.0985 O   0  0  0  0  0  0  0  0  0  0  0  0
    1.5794   -0.0821    0.0323 C   0  0  0  0  0  0  0  0  0  0  0  0
    1.8339   -0.5723    1.4096 C   0  0  0  0  0  0  0  0  0  0  0  0
    0.7408    1.2138   -0.0372 C   0  0  0  0  0  0  0  0  0  0  0  0
    1.2635    2.2661   -0.7991 O   0  0  0  0  0  0  0  0  0  0  0  0
   -1.9548    1.1268   -0.5907 H   0  0  0  0  0  0  0  0  0  0  0  0
   -3.0411   -0.2885   -0.5802 H   0  0  0  0  0  0  0  0  0  0  0  0
   -1.9690    0.0929   -2.0324 H   0  0  0  0  0  0  0  0  0  0  0  0
   -0.9886   -1.7425   -0.7817 H   0  0  0  0  0  0  0  0  0  0  0  0
   -0.7535   -0.0929    1.7739 H   0  0  0  0  0  0  0  0  0  0  0  0
   -1.1137   -1.8991    1.5492 H   0  0  0  0  0  0  0  0  0  0  0  0
   -2.3526   -0.6826    1.3135 H   0  0  0  0  0  0  0  0  0  0  0  0
    0.0052    0.8037   -2.4243 H   0  0  0  0  0  0  0  0  0  0  0  0
    2.5445   -0.0072   -0.5589 H   0  0  0  0  0  0  0  0  0  0  0  0
    1.2262   -1.4409    1.7200 H   0  0  0  0  0  0  0  0  0  0  0  0
    2.8971   -0.9265    1.5735 H   0  0  0  0  0  0  0  0  0  0  0  0
    1.7254    0.2758    2.1171 H   0  0  0  0  0  0  0  0  0  0  0  0
    0.2860    1.5670    0.9061 H   0  0  0  0  0  0  0  0  0  0  0  0
    1.5427    1.9882   -1.6923 H   0  0  0  0  0  0  0  0  0  0  0  0
  1  2  1  0
  2  3  1  0
  2  4  1  0
  4  5  1  0
  4  6  1  0
  6  7  1  0
  6  8  1  0
  8  9  1  0
  8  4  1  0
  1 10  1  0
  1 11  1  0
  1 12  1  0
  2 13  1  0
  3 14  1  0
  3 15  1  0
  3 16  1  0
  5 17  1  0
  6 18  1  0
  7 19  1  0
  7 20  1  0
  7 21  1  0
  8 22  1  0
  9 23  1  0
M  END
