
     RDKit          3D

 21 21  0  0  0  0  0  0  0  0999 V2000
   -1.3040    0.8276    1.0983 C   0  0  0  0  0  0  0  0  0  0  0  0
   -0.5805   -0.1658    0.1780 C   0  0  0  0  0  0  0  0  0  0  0  0
   -0.8139   -1.5302    0.7602 C   0  0  0  0  0  0  0  0  0  0  0  0
   -1.2012   -0.0551   -1.1734 C   0  0  0  0  0  0  0  0  0  0  0  0
    0.8692    0.2006    0.2132 C   0  0  0  0  0  0  0  0  0  0  0  0
    1.1897    1.4797   -0.2128 O   0  0  0  0  0  0  0  0  0  0  0  0
    2.4263    0.9555   -0.5937 C   0  0  0  0  0  0  0  0  0  0  0  0
    1.6884   -0.2946   -0.9236 C   0  0  0  0  0  0  0  0  0  0  0  0
    1.8216   -1.1583   -1.7336 O   0  0  0  0  0  0  0  0  0  0  0  0
   -2.1123    0.3023    1.6779 H   0  0  0  0  0  0  0  0  0  0  0  0
   -1.7977    1.6212    0.5292 H   0  0  0  0  0  0  0  0  0  0  0  0
   -0.6048    1.2270    1.8682 H   0  0  0  0  0  0  0  0  0  0  0  0
   -1.8121   -1.8792    0.4171 H   0  0  0  0  0  0  0  0  0  0  0  0
   -0.8482   -1.4724    1.8706 H   0  0  0  0  0  0  0  0  0  0  0  0
   -0.0276   -2.2609    0.5129 H   0  0  0  0  0  0  0  0  0  0  0  0
   -2.1702   -0.5949   -1.1517 H   0  0  0  0  0  0  0  0  0  0  0  0
   -0.5813   -0.4598   -1.9917 H   0  0  0  0  0  0  0  0  0  0  0  0
   -1.4690    1.0233   -1.3551 H   0  0  0  0  0  0  0  0  0  0  0  0
    1.3178    0.0275    1.2138 H   0  0  0  0  0  0  0  0  0  0  0  0
    3.1109    0.7502    0.2572 H   0  0  0  0  0  0  0  0  0  0  0  0
    2.8989    1.4564   -1.4610 H   0  0  0  0  0  0  0  0  0  0  0  0
  1  2  1  0
  2  3  1  0
  2  4  1  0
  2  5  1  0
  5  6  1  0
  6  7  1  0
  7  8  1  0
  8  9  2  0
  8  5  1  0
  1 10  1  0
  1 11  1  0
  1 12  1  0
  3 13  1  0
  3 14  1  0
  3 15  1  0
  4 16  1  0
  4 17  1  0
  4 18  1  0
  5 19  1  0
  7 20  1  0
  7 21  1  0
M  END
