
     RDKit          3D

 25 25  0  0  0  0  0  0  0  0999 V2000
   -1.6323   -1.5187    0.1399 C   0  0  0  0  0  0  0  0  0  0  0  0
   -1.4175   -0.2349   -0.5795 C   0  0  0  0  0  0  0  0  0  0  0  0
   -2.7566    0.5279   -0.5524 C   0  0  0  0  0  0  0  0  0  0  0  0
   -0.4112    0.6959   -0.0261 C   0  0  0  0  0  0  0  0  0  0  0  0
    0.9979    0.2432    0.0784 C   0  0  0  0  0  0  0  0  0  0  0  0
    1.4006   -0.9443    0.8990 C   0  0  0  0  0  0  0  0  0  0  0  0
    2.7608   -1.2205    0.8824 O   0  0  0  0  0  0  0  0  0  0  0  0
    1.9995    1.4301    0.1815 C   0  0  0  0  0  0  0  0  0  0  0  0
    1.9532    0.6068   -1.0286 C   0  0  0  0  0  0  0  0  0  0  0  0
   -1.3644   -1.4846    1.2132 H   0  0  0  0  0  0  0  0  0  0  0  0
   -2.7498   -1.7133    0.1590 H   0  0  0  0  0  0  0  0  0  0  0  0
   -1.2435   -2.4125   -0.3990 H   0  0  0  0  0  0  0  0  0  0  0  0
   -1.2609   -0.4716   -1.6587 H   0  0  0  0  0  0  0  0  0  0  0  0
   -3.0817    0.5018    0.5107 H   0  0  0  0  0  0  0  0  0  0  0  0
   -2.5534    1.5758   -0.8122 H   0  0  0  0  0  0  0  0  0  0  0  0
   -3.4823    0.0488   -1.2392 H   0  0  0  0  0  0  0  0  0  0  0  0
   -0.3997    1.5876   -0.7262 H   0  0  0  0  0  0  0  0  0  0  0  0
   -0.7996    1.1233    0.9241 H   0  0  0  0  0  0  0  0  0  0  0  0
    0.8624   -1.8268    0.4773 H   0  0  0  0  0  0  0  0  0  0  0  0
    1.1084   -0.8532    1.9659 H   0  0  0  0  0  0  0  0  0  0  0  0
    3.3549   -0.5027    0.6518 H   0  0  0  0  0  0  0  0  0  0  0  0
    2.7891    1.3842    0.9308 H   0  0  0  0  0  0  0  0  0  0  0  0
    1.5723    2.4581    0.0921 H   0  0  0  0  0  0  0  0  0  0  0  0
    1.5503    1.0613   -1.9593 H   0  0  0  0  0  0  0  0  0  0  0  0
    2.8034   -0.0615   -1.2397 H   0  0  0  0  0  0  0  0  0  0  0  0
  1  2  1  0
  2  3  1  0
  2  4  1  0
  4  5  1  0
  5  6  1  0
  6  7  1  0
  5  8  1  0
  8  9  1  0
  9  5  1  0
  1 10  1  0
  1 11  1  0
  1 12  1  0
  2 13  1  0
  3 14  1  0
  3 15  1  0
  3 16  1  0
  4 17  1  0
  4 18  1  0
  6 19  1  0
  6 20  1  0
  7 21  1  0
  8 22  1  0
  8 23  1  0
  9 24  1  0
  9 25  1  0
M  END
