
     RDKit          3D

 23 23  0  0  0  0  0  0  0  0999 V2000
   -0.2775    0.4145    1.6539 C   0  0  0  0  0  0  0  0  0  0  0  0
   -0.7174    0.0739    0.2916 C   0  0  0  0  0  0  0  0  0  0  0  0
   -1.5405   -1.2228    0.3888 C   0  0  0  0  0  0  0  0  0  0  0  0
   -1.7218    1.1298   -0.1720 C   0  0  0  0  0  0  0  0  0  0  0  0
    0.2679   -0.1202   -0.7730 C   0  0  0  0  0  0  0  0  0  0  0  0
    1.2875   -1.2625   -0.4953 C   0  0  0  0  0  0  0  0  0  0  0  0
    1.6804    0.1689   -0.8211 C   0  0  0  0  0  0  0  0  0  0  0  0
    2.4721    0.9402    0.1264 C   0  0  0  0  0  0  0  0  0  0  0  0
    3.4676    1.5313   -0.2335 O   0  0  0  0  0  0  0  0  0  0  0  0
    0.4470   -0.3018    2.0888 H   0  0  0  0  0  0  0  0  0  0  0  0
   -0.0271    1.4833    1.8309 H   0  0  0  0  0  0  0  0  0  0  0  0
   -1.1926    0.2725    2.3181 H   0  0  0  0  0  0  0  0  0  0  0  0
   -1.9696   -1.3385    1.3870 H   0  0  0  0  0  0  0  0  0  0  0  0
   -0.8088   -2.0462    0.2403 H   0  0  0  0  0  0  0  0  0  0  0  0
   -2.2872   -1.2807   -0.4122 H   0  0  0  0  0  0  0  0  0  0  0  0
   -1.5393    2.0909    0.3621 H   0  0  0  0  0  0  0  0  0  0  0  0
   -1.6364    1.3380   -1.2441 H   0  0  0  0  0  0  0  0  0  0  0  0
   -2.7619    0.8406    0.0638 H   0  0  0  0  0  0  0  0  0  0  0  0
   -0.2415   -0.2851   -1.7808 H   0  0  0  0  0  0  0  0  0  0  0  0
    1.3938   -1.5688    0.5623 H   0  0  0  0  0  0  0  0  0  0  0  0
    1.3814   -2.0630   -1.2252 H   0  0  0  0  0  0  0  0  0  0  0  0
    2.1301    0.2027   -1.8706 H   0  0  0  0  0  0  0  0  0  0  0  0
    2.1937    1.0027    1.1622 H   0  0  0  0  0  0  0  0  0  0  0  0
  1  2  1  0
  2  3  1  0
  2  4  1  0
  2  5  1  0
  5  6  1  0
  6  7  1  0
  7  8  1  0
  8  9  2  0
  7  5  1  0
  1 10  1  0
  1 11  1  0
  1 12  1  0
  3 13  1  0
  3 14  1  0
  3 15  1  0
  4 16  1  0
  4 17  1  0
  4 18  1  0
  5 19  1  0
  6 20  1  0
  6 21  1  0
  7 22  1  0
  8 23  1  0
M  END
