
     RDKit          3D

 19 19  0  0  0  0  0  0  0  0999 V2000
   -1.1557   -0.8827   -0.9262 C   0  0  0  0  0  0  0  0  0  0  0  0
   -0.6399   -0.2902    0.3274 C   0  0  0  0  0  0  0  0  0  0  0  0
   -1.3818    0.9900    0.6834 C   0  0  0  0  0  0  0  0  0  0  0  0
    0.8186   -0.0326    0.3831 C   0  0  0  0  0  0  0  0  0  0  0  0
    1.2864    0.5214    1.5610 O   0  0  0  0  0  0  0  0  0  0  0  0
    1.3615    0.7590   -0.7962 C   0  0  0  0  0  0  0  0  0  0  0  0
    2.5781    0.0527   -0.4960 O   0  0  0  0  0  0  0  0  0  0  0  0
    1.7384   -1.0120   -0.1746 C   0  0  0  0  0  0  0  0  0  0  0  0
    1.9291   -2.2365   -0.3881 O   0  0  0  0  0  0  0  0  0  0  0  0
   -2.2813   -0.7935   -0.9040 H   0  0  0  0  0  0  0  0  0  0  0  0
   -0.8383   -0.4088   -1.8520 H   0  0  0  0  0  0  0  0  0  0  0  0
   -0.9733   -1.9905   -0.9062 H   0  0  0  0  0  0  0  0  0  0  0  0
   -0.8897   -1.0000    1.1670 H   0  0  0  0  0  0  0  0  0  0  0  0
   -1.0067    1.3005    1.6767 H   0  0  0  0  0  0  0  0  0  0  0  0
   -2.4601    0.7590    0.7889 H   0  0  0  0  0  0  0  0  0  0  0  0
   -1.2842    1.7638   -0.0752 H   0  0  0  0  0  0  0  0  0  0  0  0
    0.7599    0.2237    2.3334 H   0  0  0  0  0  0  0  0  0  0  0  0
    1.4206    1.8454   -0.6155 H   0  0  0  0  0  0  0  0  0  0  0  0
    1.0185    0.4313   -1.7868 H   0  0  0  0  0  0  0  0  0  0  0  0
  1  2  1  0
  2  3  1  0
  2  4  1  0
  4  5  1  0
  4  6  1  0
  6  7  1  0
  7  8  1  0
  8  9  2  0
  8  4  1  0
  1 10  1  0
  1 11  1  0
  1 12  1  0
  2 13  1  0
  3 14  1  0
  3 15  1  0
  3 16  1  0
  5 17  1  0
  6 18  1  0
  6 19  1  0
M  END
