
     RDKit          3D

 23 24  0  0  0  0  0  0  0  0999 V2000
   -1.9345   -0.9804   -0.7060 C   0  0  0  0  0  0  0  0  0  0  0  0
   -1.0444   -0.4291    0.4114 C   0  0  0  0  0  0  0  0  0  0  0  0
   -1.4435    0.9859    0.6573 C   0  0  0  0  0  0  0  0  0  0  0  0
   -1.2527   -1.1511    1.5770 O   0  0  0  0  0  0  0  0  0  0  0  0
    0.3823   -0.6034    0.0123 C   0  0  0  0  0  0  0  0  0  0  0  0
    0.7550    0.1314   -1.2963 C   0  0  0  0  0  0  0  0  0  0  0  0
    2.1388   -0.0997   -0.6696 C   0  0  0  0  0  0  0  0  0  0  0  0
    2.7202    0.5852    0.4216 C   0  0  0  0  0  0  0  0  0  0  0  0
    1.3135    0.4845    0.5582 C   0  0  0  0  0  0  0  0  0  0  0  0
   -1.3382   -1.3877   -1.5296 H   0  0  0  0  0  0  0  0  0  0  0  0
   -2.6436   -1.7257   -0.2634 H   0  0  0  0  0  0  0  0  0  0  0  0
   -2.5731   -0.1777   -1.1411 H   0  0  0  0  0  0  0  0  0  0  0  0
   -2.5260    0.9813    0.9439 H   0  0  0  0  0  0  0  0  0  0  0  0
   -1.4044    1.5811   -0.3002 H   0  0  0  0  0  0  0  0  0  0  0  0
   -0.9087    1.4798    1.4675 H   0  0  0  0  0  0  0  0  0  0  0  0
   -1.6745   -0.6176    2.2757 H   0  0  0  0  0  0  0  0  0  0  0  0
    0.7655   -1.6155    0.0178 H   0  0  0  0  0  0  0  0  0  0  0  0
    0.4499    1.1789   -1.3054 H   0  0  0  0  0  0  0  0  0  0  0  0
    0.5981   -0.4516   -2.1992 H   0  0  0  0  0  0  0  0  0  0  0  0
    2.2598   -1.2306   -0.6298 H   0  0  0  0  0  0  0  0  0  0  0  0
    3.3472    0.0351    1.1859 H   0  0  0  0  0  0  0  0  0  0  0  0
    3.2369    1.5664    0.1941 H   0  0  0  0  0  0  0  0  0  0  0  0
    0.7765    1.4604    0.3179 H   0  0  0  0  0  0  0  0  0  0  0  0
  1  2  1  0
  2  3  1  0
  2  4  1  0
  2  5  1  0
  5  6  1  0
  6  7  1  0
  7  8  1  0
  8  9  1  0
  9  5  1  0
  9  7  1  0
  1 10  1  0
  1 11  1  0
  1 12  1  0
  3 13  1  0
  3 14  1  0
  3 15  1  0
  4 16  1  0
  5 17  1  0
  6 18  1  0
  6 19  1  0
  7 20  1  0
  8 21  1  0
  8 22  1  0
  9 23  1  0
M  END
