
     RDKit          3D

 25 25  0  0  0  0  0  0  0  0999 V2000
   -1.6769    0.7196   -1.0141 C   0  0  0  0  0  0  0  0  0  0  0  0
   -1.1213    0.0280    0.2068 C   0  0  0  0  0  0  0  0  0  0  0  0
   -0.9000    1.0394    1.2942 C   0  0  0  0  0  0  0  0  0  0  0  0
   -2.2111   -0.9243    0.7229 C   0  0  0  0  0  0  0  0  0  0  0  0
    0.0598   -0.8068   -0.1049 C   0  0  0  0  0  0  0  0  0  0  0  0
    1.2258   -0.0758   -0.6899 C   0  0  0  0  0  0  0  0  0  0  0  0
    2.4182   -1.0040   -0.9893 C   0  0  0  0  0  0  0  0  0  0  0  0
    2.4941    0.1170    0.0071 C   0  0  0  0  0  0  0  0  0  0  0  0
    3.3000    1.1885   -0.4334 O   0  0  0  0  0  0  0  0  0  0  0  0
   -2.7033    0.3841   -1.2522 H   0  0  0  0  0  0  0  0  0  0  0  0
   -1.7444    1.8250   -0.8666 H   0  0  0  0  0  0  0  0  0  0  0  0
   -1.0495    0.4650   -1.8976 H   0  0  0  0  0  0  0  0  0  0  0  0
   -1.9141    1.3802    1.6332 H   0  0  0  0  0  0  0  0  0  0  0  0
   -0.4642    0.5040    2.1701 H   0  0  0  0  0  0  0  0  0  0  0  0
   -0.3531    1.9276    0.9924 H   0  0  0  0  0  0  0  0  0  0  0  0
   -3.2200   -0.4946    0.4945 H   0  0  0  0  0  0  0  0  0  0  0  0
   -2.1064   -1.9257    0.2865 H   0  0  0  0  0  0  0  0  0  0  0  0
   -2.1655   -1.0277    1.8227 H   0  0  0  0  0  0  0  0  0  0  0  0
    0.3508   -1.3546    0.8339 H   0  0  0  0  0  0  0  0  0  0  0  0
   -0.2431   -1.5979   -0.8179 H   0  0  0  0  0  0  0  0  0  0  0  0
    0.9441    0.6403   -1.5036 H   0  0  0  0  0  0  0  0  0  0  0  0
    2.8531   -0.8913   -1.9926 H   0  0  0  0  0  0  0  0  0  0  0  0
    2.4236   -2.0086   -0.5331 H   0  0  0  0  0  0  0  0  0  0  0  0
    2.6496   -0.1094    1.0761 H   0  0  0  0  0  0  0  0  0  0  0  0
    3.1537    2.0022    0.0892 H   0  0  0  0  0  0  0  0  0  0  0  0
  1  2  1  0
  2  3  1  0
  2  4  1  0
  2  5  1  0
  5  6  1  0
  6  7  1  0
  7  8  1  0
  8  9  1  0
  8  6  1  0
  1 10  1  0
  1 11  1  0
  1 12  1  0
  3 13  1  0
  3 14  1  0
  3 15  1  0
  4 16  1  0
  4 17  1  0
  4 18  1  0
  5 19  1  0
  5 20  1  0
  6 21  1  0
  7 22  1  0
  7 23  1  0
  8 24  1  0
  9 25  1  0
M  END
