
     RDKit          3D

 23 23  0  0  0  0  0  0  0  0999 V2000
   -1.8178    1.0285    0.5697 C   0  0  0  0  0  0  0  0  0  0  0  0
   -1.2381   -0.0813   -0.2846 C   0  0  0  0  0  0  0  0  0  0  0  0
   -1.2128   -1.3529    0.4466 C   0  0  0  0  0  0  0  0  0  0  0  0
    0.0176    0.4036   -0.9064 C   0  0  0  0  0  0  0  0  0  0  0  0
   -0.2589    1.5402   -1.7189 O   0  0  0  0  0  0  0  0  0  0  0  0
    0.9662   -0.6184   -1.5510 C   0  0  0  0  0  0  0  0  0  0  0  0
    1.3606    0.2895   -0.4150 C   0  0  0  0  0  0  0  0  0  0  0  0
    1.7485   -0.2900    0.9216 C   0  0  0  0  0  0  0  0  0  0  0  0
    1.1933    0.3906    1.9936 O   0  0  0  0  0  0  0  0  0  0  0  0
   -1.0457    1.7417    0.9157 H   0  0  0  0  0  0  0  0  0  0  0  0
   -2.5927    1.6148    0.0536 H   0  0  0  0  0  0  0  0  0  0  0  0
   -2.3129    0.6152    1.4952 H   0  0  0  0  0  0  0  0  0  0  0  0
   -1.9785   -0.1979   -1.1359 H   0  0  0  0  0  0  0  0  0  0  0  0
   -2.2483   -1.8159    0.4682 H   0  0  0  0  0  0  0  0  0  0  0  0
   -1.0171   -1.1752    1.5469 H   0  0  0  0  0  0  0  0  0  0  0  0
   -0.5731   -2.1411    0.0391 H   0  0  0  0  0  0  0  0  0  0  0  0
    0.5503    1.7232   -2.2475 H   0  0  0  0  0  0  0  0  0  0  0  0
    0.8411   -1.6776   -1.3481 H   0  0  0  0  0  0  0  0  0  0  0  0
    1.2899   -0.3912   -2.5841 H   0  0  0  0  0  0  0  0  0  0  0  0
    2.1084    1.0715   -0.7491 H   0  0  0  0  0  0  0  0  0  0  0  0
    2.8587   -0.2305    1.0771 H   0  0  0  0  0  0  0  0  0  0  0  0
    1.5192   -1.3703    0.9092 H   0  0  0  0  0  0  0  0  0  0  0  0
    1.8423    0.9235    2.5040 H   0  0  0  0  0  0  0  0  0  0  0  0
  1  2  1  0
  2  3  1  0
  2  4  1  0
  4  5  1  0
  4  6  1  0
  6  7  1  0
  7  8  1  0
  8  9  1  0
  7  4  1  0
  1 10  1  0
  1 11  1  0
  1 12  1  0
  2 13  1  0
  3 14  1  0
  3 15  1  0
  3 16  1  0
  5 17  1  0
  6 18  1  0
  6 19  1  0
  7 20  1  0
  8 21  1  0
  8 22  1  0
  9 23  1  0
M  END
