
     RDKit          3D

 25 25  0  0  0  0  0  0  0  0999 V2000
    1.7214    1.5180    0.0896 C   0  0  0  0  0  0  0  0  0  0  0  0
    1.6747    0.0093    0.1494 C   0  0  0  0  0  0  0  0  0  0  0  0
    1.9513   -0.6414   -1.1789 C   0  0  0  0  0  0  0  0  0  0  0  0
    0.4810   -0.5209    0.8613 C   0  0  0  0  0  0  0  0  0  0  0  0
   -0.8411   -0.1757    0.3259 C   0  0  0  0  0  0  0  0  0  0  0  0
   -1.9354   -0.8145    1.1948 C   0  0  0  0  0  0  0  0  0  0  0  0
   -1.1636   -0.3435   -1.1011 C   0  0  0  0  0  0  0  0  0  0  0  0
   -2.0847    0.8294   -0.7440 C   0  0  0  0  0  0  0  0  0  0  0  0
   -1.0933    1.1875    0.2001 O   0  0  0  0  0  0  0  0  0  0  0  0
    2.7931    1.8021   -0.0874 H   0  0  0  0  0  0  0  0  0  0  0  0
    1.4087    1.8974    1.0705 H   0  0  0  0  0  0  0  0  0  0  0  0
    1.1429    1.9451   -0.7273 H   0  0  0  0  0  0  0  0  0  0  0  0
    2.5608   -0.2655    0.8054 H   0  0  0  0  0  0  0  0  0  0  0  0
    1.9057    0.0812   -2.0330 H   0  0  0  0  0  0  0  0  0  0  0  0
    2.9986   -1.0621   -1.2478 H   0  0  0  0  0  0  0  0  0  0  0  0
    1.3000   -1.5373   -1.3568 H   0  0  0  0  0  0  0  0  0  0  0  0
    0.5902   -1.6241    0.9305 H   0  0  0  0  0  0  0  0  0  0  0  0
    0.5373   -0.1574    1.9209 H   0  0  0  0  0  0  0  0  0  0  0  0
   -2.3380   -0.0419    1.8691 H   0  0  0  0  0  0  0  0  0  0  0  0
   -2.7048   -1.3131    0.5763 H   0  0  0  0  0  0  0  0  0  0  0  0
   -1.5087   -1.6087    1.8525 H   0  0  0  0  0  0  0  0  0  0  0  0
   -0.4817   -0.0217   -1.8744 H   0  0  0  0  0  0  0  0  0  0  0  0
   -1.7171   -1.2598   -1.3818 H   0  0  0  0  0  0  0  0  0  0  0  0
   -2.9976    0.5479   -0.2044 H   0  0  0  0  0  0  0  0  0  0  0  0
   -2.1998    1.5700   -1.5521 H   0  0  0  0  0  0  0  0  0  0  0  0
  1  2  1  0
  2  3  1  0
  2  4  1  0
  4  5  1  0
  5  6  1  0
  5  7  1  0
  7  8  1  0
  8  9  1  0
  9  5  1  0
  1 10  1  0
  1 11  1  0
  1 12  1  0
  2 13  1  0
  3 14  1  0
  3 15  1  0
  3 16  1  0
  4 17  1  0
  4 18  1  0
  6 19  1  0
  6 20  1  0
  6 21  1  0
  7 22  1  0
  7 23  1  0
  8 24  1  0
  8 25  1  0
M  END
