
     RDKit          3D

 21 21  0  0  0  0  0  0  0  0999 V2000
    1.3808    1.2414    0.1936 C   0  0  0  0  0  0  0  0  0  0  0  0
    0.6118    0.0182   -0.3367 C   0  0  0  0  0  0  0  0  0  0  0  0
    1.1761   -1.1937    0.3273 C   0  0  0  0  0  0  0  0  0  0  0  0
    2.5477   -1.2159   -0.0350 O   0  0  0  0  0  0  0  0  0  0  0  0
   -0.8633    0.2285   -0.1770 C   0  0  0  0  0  0  0  0  0  0  0  0
   -1.4150    1.3989   -0.8870 C   0  0  0  0  0  0  0  0  0  0  0  0
   -2.5925    1.6437   -0.8138 O   0  0  0  0  0  0  0  0  0  0  0  0
   -1.5710   -0.1466    1.0665 C   0  0  0  0  0  0  0  0  0  0  0  0
   -1.6781   -1.0423   -0.0989 C   0  0  0  0  0  0  0  0  0  0  0  0
    1.2651    2.0171   -0.5951 H   0  0  0  0  0  0  0  0  0  0  0  0
    2.4167    0.9513    0.3879 H   0  0  0  0  0  0  0  0  0  0  0  0
    0.9361    1.6092    1.1346 H   0  0  0  0  0  0  0  0  0  0  0  0
    0.8430   -0.0417   -1.4193 H   0  0  0  0  0  0  0  0  0  0  0  0
    1.0567   -1.2010    1.4226 H   0  0  0  0  0  0  0  0  0  0  0  0
    0.7809   -2.1282   -0.1581 H   0  0  0  0  0  0  0  0  0  0  0  0
    3.1275   -1.1295    0.7409 H   0  0  0  0  0  0  0  0  0  0  0  0
   -0.7790    2.0306   -1.4650 H   0  0  0  0  0  0  0  0  0  0  0  0
   -0.9356   -0.4215    1.9222 H   0  0  0  0  0  0  0  0  0  0  0  0
   -2.4825    0.4005    1.3515 H   0  0  0  0  0  0  0  0  0  0  0  0
   -1.2215   -2.0273   -0.0499 H   0  0  0  0  0  0  0  0  0  0  0  0
   -2.6036   -0.9920   -0.7181 H   0  0  0  0  0  0  0  0  0  0  0  0
  1  2  1  0
  2  3  1  0
  3  4  1  0
  2  5  1  0
  5  6  1  0
  6  7  2  0
  5  8  1  0
  8  9  1  0
  9  5  1  0
  1 10  1  0
  1 11  1  0
  1 12  1  0
  2 13  1  0
  3 14  1  0
  3 15  1  0
  4 16  1  0
  6 17  1  0
  8 18  1  0
  8 19  1  0
  9 20  1  0
  9 21  1  0
M  END
