
     RDKit          3D

 27 27  0  0  0  0  0  0  0  0999 V2000
    1.4943   -1.3598   -0.2376 C   0  0  0  0  0  0  0  0  0  0  0  0
    1.8071    0.0414    0.1612 C   0  0  0  0  0  0  0  0  0  0  0  0
    3.2096    0.0305    0.7982 C   0  0  0  0  0  0  0  0  0  0  0  0
    0.8379    0.7612    0.9791 C   0  0  0  0  0  0  0  0  0  0  0  0
   -0.4810    1.0986    0.5236 C   0  0  0  0  0  0  0  0  0  0  0  0
   -1.5379    0.1950    0.0551 C   0  0  0  0  0  0  0  0  0  0  0  0
   -1.3405   -0.6183   -1.1913 C   0  0  0  0  0  0  0  0  0  0  0  0
   -2.5441   -0.3543    1.0216 C   0  0  0  0  0  0  0  0  0  0  0  0
   -2.9694    0.7856    0.1877 C   0  0  0  0  0  0  0  0  0  0  0  0
    2.3767   -2.0204    0.0282 H   0  0  0  0  0  0  0  0  0  0  0  0
    1.3435   -1.4732   -1.3116 H   0  0  0  0  0  0  0  0  0  0  0  0
    0.6719   -1.7673    0.4111 H   0  0  0  0  0  0  0  0  0  0  0  0
    1.9610    0.6049   -0.8326 H   0  0  0  0  0  0  0  0  0  0  0  0
    3.6330    1.0362    0.8329 H   0  0  0  0  0  0  0  0  0  0  0  0
    3.8047   -0.6838    0.1909 H   0  0  0  0  0  0  0  0  0  0  0  0
    3.0946   -0.4166    1.8099 H   0  0  0  0  0  0  0  0  0  0  0  0
    1.3453    1.7527    1.3117 H   0  0  0  0  0  0  0  0  0  0  0  0
    0.8119    0.2160    2.0083 H   0  0  0  0  0  0  0  0  0  0  0  0
   -0.3469    1.9282   -0.2933 H   0  0  0  0  0  0  0  0  0  0  0  0
   -0.9547    1.7928    1.3435 H   0  0  0  0  0  0  0  0  0  0  0  0
   -2.3245   -0.5664   -1.7834 H   0  0  0  0  0  0  0  0  0  0  0  0
   -1.1940   -1.6974   -1.0271 H   0  0  0  0  0  0  0  0  0  0  0  0
   -0.5497   -0.2121   -1.8528 H   0  0  0  0  0  0  0  0  0  0  0  0
   -2.4521   -0.1549    2.1046 H   0  0  0  0  0  0  0  0  0  0  0  0
   -2.9789   -1.3458    0.7924 H   0  0  0  0  0  0  0  0  0  0  0  0
   -3.6617    0.6161   -0.6600 H   0  0  0  0  0  0  0  0  0  0  0  0
   -3.0558    1.8111    0.5973 H   0  0  0  0  0  0  0  0  0  0  0  0
  1  2  1  0
  2  3  1  0
  2  4  1  0
  4  5  1  0
  5  6  1  0
  6  7  1  0
  6  8  1  0
  8  9  1  0
  9  6  1  0
  1 10  1  0
  1 11  1  0
  1 12  1  0
  2 13  1  0
  3 14  1  0
  3 15  1  0
  3 16  1  0
  4 17  1  0
  4 18  1  0
  5 19  1  0
  5 20  1  0
  7 21  1  0
  7 22  1  0
  7 23  1  0
  8 24  1  0
  8 25  1  0
  9 26  1  0
  9 27  1  0
M  END
