
     RDKit          3D

 23 24  0  0  0  0  0  0  0  0999 V2000
   -2.0101   -1.0897    0.6643 C   0  0  0  0  0  0  0  0  0  0  0  0
   -1.1604   -0.2989   -0.2933 C   0  0  0  0  0  0  0  0  0  0  0  0
   -1.9644    0.9250   -0.7206 C   0  0  0  0  0  0  0  0  0  0  0  0
    0.1213    0.1862    0.3426 C   0  0  0  0  0  0  0  0  0  0  0  0
    0.9170    0.9596   -0.6509 C   0  0  0  0  0  0  0  0  0  0  0  0
    2.3489    0.5122   -0.4968 C   0  0  0  0  0  0  0  0  0  0  0  0
    2.3501   -0.5592    0.5557 C   0  0  0  0  0  0  0  0  0  0  0  0
    1.6979   -1.7477    0.1024 O   0  0  0  0  0  0  0  0  0  0  0  0
    0.9616   -0.9073    0.8980 C   0  0  0  0  0  0  0  0  0  0  0  0
   -1.3505   -1.5686    1.4417 H   0  0  0  0  0  0  0  0  0  0  0  0
   -2.5582   -1.9098    0.1196 H   0  0  0  0  0  0  0  0  0  0  0  0
   -2.7631   -0.4420    1.1567 H   0  0  0  0  0  0  0  0  0  0  0  0
   -0.9732   -0.8994   -1.1896 H   0  0  0  0  0  0  0  0  0  0  0  0
   -2.5890    1.2505    0.1607 H   0  0  0  0  0  0  0  0  0  0  0  0
   -1.2369    1.7117   -0.9809 H   0  0  0  0  0  0  0  0  0  0  0  0
   -2.5873    0.6951   -1.6038 H   0  0  0  0  0  0  0  0  0  0  0  0
   -0.1579    0.8678    1.1892 H   0  0  0  0  0  0  0  0  0  0  0  0
    0.8281    2.0539   -0.4613 H   0  0  0  0  0  0  0  0  0  0  0  0
    0.5285    0.7986   -1.6783 H   0  0  0  0  0  0  0  0  0  0  0  0
    2.6314    0.0083   -1.4622 H   0  0  0  0  0  0  0  0  0  0  0  0
    3.0391    1.3295   -0.3124 H   0  0  0  0  0  0  0  0  0  0  0  0
    3.1715   -0.6650    1.2674 H   0  0  0  0  0  0  0  0  0  0  0  0
    0.7555   -1.2108    1.9518 H   0  0  0  0  0  0  0  0  0  0  0  0
  1  2  1  0
  2  3  1  0
  2  4  1  0
  4  5  1  0
  5  6  1  0
  6  7  1  0
  7  8  1  0
  8  9  1  0
  9  4  1  0
  9  7  1  0
  1 10  1  0
  1 11  1  0
  1 12  1  0
  2 13  1  0
  3 14  1  0
  3 15  1  0
  3 16  1  0
  4 17  1  0
  5 18  1  0
  5 19  1  0
  6 20  1  0
  6 21  1  0
  7 22  1  0
  9 23  1  0
M  END
