
     RDKit          3D

 19 20  0  0  0  0  0  0  0  0999 V2000
   -2.0939   -0.9685    0.2315 C   0  0  0  0  0  0  0  0  0  0  0  0
   -1.1187    0.0103   -0.3816 C   0  0  0  0  0  0  0  0  0  0  0  0
   -1.6482    1.3753   -0.1420 C   0  0  0  0  0  0  0  0  0  0  0  0
   -1.4270    1.9995    0.8740 O   0  0  0  0  0  0  0  0  0  0  0  0
    0.1677   -0.0919    0.3963 C   0  0  0  0  0  0  0  0  0  0  0  0
    0.7813   -1.3204    0.4077 O   0  0  0  0  0  0  0  0  0  0  0  0
    1.9938   -0.6034    0.5541 C   0  0  0  0  0  0  0  0  0  0  0  0
    2.5354   -0.0897   -0.6980 C   0  0  0  0  0  0  0  0  0  0  0  0
    1.3492    0.6156   -0.1617 C   0  0  0  0  0  0  0  0  0  0  0  0
   -3.0486   -0.4594    0.5472 H   0  0  0  0  0  0  0  0  0  0  0  0
   -2.4171   -1.7551   -0.4841 H   0  0  0  0  0  0  0  0  0  0  0  0
   -1.6796   -1.4639    1.1451 H   0  0  0  0  0  0  0  0  0  0  0  0
   -0.9962   -0.1853   -1.4566 H   0  0  0  0  0  0  0  0  0  0  0  0
   -2.2530    1.8198   -0.9099 H   0  0  0  0  0  0  0  0  0  0  0  0
   -0.0379    0.2250    1.4603 H   0  0  0  0  0  0  0  0  0  0  0  0
    2.3554   -0.3701    1.5504 H   0  0  0  0  0  0  0  0  0  0  0  0
    3.5327    0.4062   -0.6422 H   0  0  0  0  0  0  0  0  0  0  0  0
    2.4548   -0.7550   -1.5946 H   0  0  0  0  0  0  0  0  0  0  0  0
    1.5498    1.6110    0.2788 H   0  0  0  0  0  0  0  0  0  0  0  0
  1  2  1  0
  2  3  1  0
  3  4  2  0
  2  5  1  0
  5  6  1  0
  6  7  1  0
  7  8  1  0
  8  9  1  0
  9  5  1  0
  9  7  1  0
  1 10  1  0
  1 11  1  0
  1 12  1  0
  2 13  1  0
  3 14  1  0
  5 15  1  0
  7 16  1  0
  8 17  1  0
  8 18  1  0
  9 19  1  0
M  END
