
     RDKit          3D

 23 24  0  0  0  0  0  0  0  0999 V2000
   -2.2014   -0.9629   -0.4062 C   0  0  0  0  0  0  0  0  0  0  0  0
   -1.1690    0.1500   -0.3248 C   0  0  0  0  0  0  0  0  0  0  0  0
   -1.8453    1.3345    0.3349 C   0  0  0  0  0  0  0  0  0  0  0  0
    0.0056   -0.2964    0.4668 C   0  0  0  0  0  0  0  0  0  0  0  0
    1.1266    0.6417    0.6656 C   0  0  0  0  0  0  0  0  0  0  0  0
    2.2382    0.1533    1.5574 C   0  0  0  0  0  0  0  0  0  0  0  0
    2.3303   -0.9810    0.7169 O   0  0  0  0  0  0  0  0  0  0  0  0
    1.3104   -0.6109   -0.1183 C   0  0  0  0  0  0  0  0  0  0  0  0
    1.6139   -0.5552   -1.5698 C   0  0  0  0  0  0  0  0  0  0  0  0
   -1.8231   -1.8510    0.1525 H   0  0  0  0  0  0  0  0  0  0  0  0
   -3.1567   -0.6842    0.0916 H   0  0  0  0  0  0  0  0  0  0  0  0
   -2.4566   -1.2213   -1.4453 H   0  0  0  0  0  0  0  0  0  0  0  0
   -0.9183    0.4582   -1.3633 H   0  0  0  0  0  0  0  0  0  0  0  0
   -2.8252    1.4709   -0.1986 H   0  0  0  0  0  0  0  0  0  0  0  0
   -1.2860    2.2774    0.1826 H   0  0  0  0  0  0  0  0  0  0  0  0
   -2.0596    1.1148    1.3935 H   0  0  0  0  0  0  0  0  0  0  0  0
   -0.2694   -0.8943    1.3834 H   0  0  0  0  0  0  0  0  0  0  0  0
    1.1822    1.6278    0.1925 H   0  0  0  0  0  0  0  0  0  0  0  0
    1.8099   -0.1967    2.5318 H   0  0  0  0  0  0  0  0  0  0  0  0
    3.1362    0.7645    1.6137 H   0  0  0  0  0  0  0  0  0  0  0  0
    2.5878   -0.0060   -1.7092 H   0  0  0  0  0  0  0  0  0  0  0  0
    0.8396   -0.1373   -2.2097 H   0  0  0  0  0  0  0  0  0  0  0  0
    1.8297   -1.5960   -1.9380 H   0  0  0  0  0  0  0  0  0  0  0  0
  1  2  1  0
  2  3  1  0
  2  4  1  0
  4  5  1  0
  5  6  1  0
  6  7  1  0
  7  8  1  0
  8  9  1  0
  8  4  1  0
  8  5  1  0
  1 10  1  0
  1 11  1  0
  1 12  1  0
  2 13  1  0
  3 14  1  0
  3 15  1  0
  3 16  1  0
  4 17  1  0
  5 18  1  0
  6 19  1  0
  6 20  1  0
  9 21  1  0
  9 22  1  0
  9 23  1  0
M  END
