
     RDKit          3D

 23 23  0  0  0  0  0  0  0  0999 V2000
   -2.4642    0.4023   -1.0408 C   0  0  0  0  0  0  0  0  0  0  0  0
   -1.3492   -0.3164   -0.3372 C   0  0  0  0  0  0  0  0  0  0  0  0
   -1.9711   -1.1510    0.7621 C   0  0  0  0  0  0  0  0  0  0  0  0
   -0.3264    0.6475    0.2479 C   0  0  0  0  0  0  0  0  0  0  0  0
    0.7276   -0.1734    0.9182 C   0  0  0  0  0  0  0  0  0  0  0  0
    1.3557   -1.0591   -0.0858 O   0  0  0  0  0  0  0  0  0  0  0  0
    2.1313   -0.1125    0.6533 C   0  0  0  0  0  0  0  0  0  0  0  0
    2.8040    0.9683   -0.1774 C   0  0  0  0  0  0  0  0  0  0  0  0
    3.6730    0.3342   -1.0933 O   0  0  0  0  0  0  0  0  0  0  0  0
   -3.2501   -0.3518   -1.2573 H   0  0  0  0  0  0  0  0  0  0  0  0
   -2.9345    1.1642   -0.3927 H   0  0  0  0  0  0  0  0  0  0  0  0
   -2.1665    0.8432   -2.0110 H   0  0  0  0  0  0  0  0  0  0  0  0
   -0.8654   -1.0018   -1.0403 H   0  0  0  0  0  0  0  0  0  0  0  0
   -1.3416   -2.0041    1.0551 H   0  0  0  0  0  0  0  0  0  0  0  0
   -2.9205   -1.5819    0.3508 H   0  0  0  0  0  0  0  0  0  0  0  0
   -2.2677   -0.5188    1.6311 H   0  0  0  0  0  0  0  0  0  0  0  0
    0.0752    1.2903   -0.5615 H   0  0  0  0  0  0  0  0  0  0  0  0
   -0.8769    1.2837    0.9645 H   0  0  0  0  0  0  0  0  0  0  0  0
    0.3779   -0.7118    1.8193 H   0  0  0  0  0  0  0  0  0  0  0  0
    2.8226   -0.6229    1.3480 H   0  0  0  0  0  0  0  0  0  0  0  0
    2.0805    1.6254   -0.6927 H   0  0  0  0  0  0  0  0  0  0  0  0
    3.4523    1.5793    0.4686 H   0  0  0  0  0  0  0  0  0  0  0  0
    3.2340   -0.5330   -1.3549 H   0  0  0  0  0  0  0  0  0  0  0  0
  1  2  1  0
  2  3  1  0
  2  4  1  0
  4  5  1  0
  5  6  1  0
  6  7  1  0
  7  8  1  0
  8  9  1  0
  7  5  1  0
  1 10  1  0
  1 11  1  0
  1 12  1  0
  2 13  1  0
  3 14  1  0
  3 15  1  0
  3 16  1  0
  4 17  1  0
  4 18  1  0
  5 19  1  0
  7 20  1  0
  8 21  1  0
  8 22  1  0
  9 23  1  0
M  END
