
     RDKit          3D

 21 22  0  0  0  0  0  0  0  0999 V2000
   -2.0749    1.1144    0.4150 C   0  0  0  0  0  0  0  0  0  0  0  0
   -0.9334    0.1347    0.5645 C   0  0  0  0  0  0  0  0  0  0  0  0
   -1.4169   -1.2562    0.1370 C   0  0  0  0  0  0  0  0  0  0  0  0
   -0.6287    0.0886    1.9383 O   0  0  0  0  0  0  0  0  0  0  0  0
    0.2519    0.4732   -0.2683 C   0  0  0  0  0  0  0  0  0  0  0  0
    1.3970   -0.4874   -0.1345 C   0  0  0  0  0  0  0  0  0  0  0  0
    2.6210   -0.1846   -0.9593 C   0  0  0  0  0  0  0  0  0  0  0  0
    2.6792    1.0523   -0.3036 O   0  0  0  0  0  0  0  0  0  0  0  0
    1.4925    0.9770    0.3723 C   0  0  0  0  0  0  0  0  0  0  0  0
   -2.9758    0.6102    0.8405 H   0  0  0  0  0  0  0  0  0  0  0  0
   -1.8311    2.0049    1.0181 H   0  0  0  0  0  0  0  0  0  0  0  0
   -2.2012    1.4114   -0.6354 H   0  0  0  0  0  0  0  0  0  0  0  0
   -0.5632   -1.9237   -0.0778 H   0  0  0  0  0  0  0  0  0  0  0  0
   -2.0446   -1.1863   -0.7800 H   0  0  0  0  0  0  0  0  0  0  0  0
   -1.9831   -1.7346    0.9688 H   0  0  0  0  0  0  0  0  0  0  0  0
   -0.5967   -0.8644    2.2516 H   0  0  0  0  0  0  0  0  0  0  0  0
    0.0439    0.8635   -1.2816 H   0  0  0  0  0  0  0  0  0  0  0  0
    1.4201   -1.2359    0.6610 H   0  0  0  0  0  0  0  0  0  0  0  0
    3.4362   -0.8845   -0.6897 H   0  0  0  0  0  0  0  0  0  0  0  0
    2.4538   -0.0984   -2.0546 H   0  0  0  0  0  0  0  0  0  0  0  0
    1.4539    1.1260    1.4627 H   0  0  0  0  0  0  0  0  0  0  0  0
  1  2  1  0
  2  3  1  0
  2  4  1  0
  2  5  1  0
  5  6  1  0
  6  7  1  0
  7  8  1  0
  8  9  1  0
  9  5  1  0
  9  6  1  0
  1 10  1  0
  1 11  1  0
  1 12  1  0
  3 13  1  0
  3 14  1  0
  3 15  1  0
  4 16  1  0
  5 17  1  0
  6 18  1  0
  7 19  1  0
  7 20  1  0
  9 21  1  0
M  END
