
     RDKit          3D

 21 21  0  0  0  0  0  0  0  0999 V2000
    1.4989   -0.0456   -1.2708 C   0  0  0  0  0  0  0  0  0  0  0  0
    0.8427    0.5132   -0.0137 C   0  0  0  0  0  0  0  0  0  0  0  0
    1.6181   -0.0629    1.1772 C   0  0  0  0  0  0  0  0  0  0  0  0
   -0.5755    0.0336    0.1276 C   0  0  0  0  0  0  0  0  0  0  0  0
   -0.6140   -1.4700    0.2121 C   0  0  0  0  0  0  0  0  0  0  0  0
   -1.2016    0.7029    1.1805 O   0  0  0  0  0  0  0  0  0  0  0  0
   -2.1853    1.2067    0.3279 C   0  0  0  0  0  0  0  0  0  0  0  0
   -1.5477    0.5393   -0.8358 C   0  0  0  0  0  0  0  0  0  0  0  0
   -1.8254    0.5150   -2.0137 O   0  0  0  0  0  0  0  0  0  0  0  0
    2.2994    0.6801   -1.5854 H   0  0  0  0  0  0  0  0  0  0  0  0
    0.7413   -0.0666   -2.0818 H   0  0  0  0  0  0  0  0  0  0  0  0
    1.9320   -1.0339   -1.0984 H   0  0  0  0  0  0  0  0  0  0  0  0
    0.9437    1.6156    0.0518 H   0  0  0  0  0  0  0  0  0  0  0  0
    2.6451    0.3426    1.2273 H   0  0  0  0  0  0  0  0  0  0  0  0
    1.0530    0.1102    2.1145 H   0  0  0  0  0  0  0  0  0  0  0  0
    1.7224   -1.1627    1.0792 H   0  0  0  0  0  0  0  0  0  0  0  0
    0.2191   -1.8974   -0.3826 H   0  0  0  0  0  0  0  0  0  0  0  0
   -0.6210   -1.8394    1.2590 H   0  0  0  0  0  0  0  0  0  0  0  0
   -1.5593   -1.8735   -0.2484 H   0  0  0  0  0  0  0  0  0  0  0  0
   -3.2187    0.8728    0.5576 H   0  0  0  0  0  0  0  0  0  0  0  0
   -2.1669    2.3200    0.2158 H   0  0  0  0  0  0  0  0  0  0  0  0
  1  2  1  0
  2  3  1  0
  2  4  1  0
  4  5  1  0
  4  6  1  0
  6  7  1  0
  7  8  1  0
  8  9  2  0
  8  4  1  0
  1 10  1  0
  1 11  1  0
  1 12  1  0
  2 13  1  0
  3 14  1  0
  3 15  1  0
  3 16  1  0
  5 17  1  0
  5 18  1  0
  5 19  1  0
  7 20  1  0
  7 21  1  0
M  END
