
     RDKit          3D

 23 23  0  0  0  0  0  0  0  0999 V2000
   -2.2791   -0.6362   -1.0212 C   0  0  0  0  0  0  0  0  0  0  0  0
   -1.5222    0.4025   -0.2555 C   0  0  0  0  0  0  0  0  0  0  0  0
   -2.0624    0.4436    1.1615 C   0  0  0  0  0  0  0  0  0  0  0  0
   -0.0556    0.1491   -0.2868 C   0  0  0  0  0  0  0  0  0  0  0  0
    0.5828   -0.8636   -0.8614 C   0  0  0  0  0  0  0  0  0  0  0  0
    2.0452   -0.7248   -0.6493 C   0  0  0  0  0  0  0  0  0  0  0  0
    2.0829    0.0979    0.6312 C   0  0  0  0  0  0  0  0  0  0  0  0
    3.2869    0.7726    0.7637 O   0  0  0  0  0  0  0  0  0  0  0  0
    0.9366    1.0650    0.3679 C   0  0  0  0  0  0  0  0  0  0  0  0
   -1.7406   -0.9980   -1.9283 H   0  0  0  0  0  0  0  0  0  0  0  0
   -2.5290   -1.5430   -0.3981 H   0  0  0  0  0  0  0  0  0  0  0  0
   -3.2517   -0.2238   -1.4214 H   0  0  0  0  0  0  0  0  0  0  0  0
   -1.7400    1.3974   -0.7411 H   0  0  0  0  0  0  0  0  0  0  0  0
   -3.1635    0.5490    1.0720 H   0  0  0  0  0  0  0  0  0  0  0  0
   -1.5979    1.2604    1.7377 H   0  0  0  0  0  0  0  0  0  0  0  0
   -1.8375   -0.5632    1.6194 H   0  0  0  0  0  0  0  0  0  0  0  0
    0.1127   -1.6681   -1.4020 H   0  0  0  0  0  0  0  0  0  0  0  0
    2.4857   -0.1022   -1.4422 H   0  0  0  0  0  0  0  0  0  0  0  0
    2.5557   -1.6952   -0.5170 H   0  0  0  0  0  0  0  0  0  0  0  0
    1.8624   -0.5395    1.5274 H   0  0  0  0  0  0  0  0  0  0  0  0
    3.9502    0.1105    1.0864 H   0  0  0  0  0  0  0  0  0  0  0  0
    0.5541    1.4935    1.3045 H   0  0  0  0  0  0  0  0  0  0  0  0
    1.3242    1.8159   -0.3472 H   0  0  0  0  0  0  0  0  0  0  0  0
  1  2  1  0
  2  3  1  0
  2  4  1  0
  4  5  2  0
  5  6  1  0
  6  7  1  0
  7  8  1  0
  7  9  1  0
  9  4  1  0
  1 10  1  0
  1 11  1  0
  1 12  1  0
  2 13  1  0
  3 14  1  0
  3 15  1  0
  3 16  1  0
  5 17  1  0
  6 18  1  0
  6 19  1  0
  7 20  1  0
  8 21  1  0
  9 22  1  0
  9 23  1  0
M  END
