
     RDKit          3D

 25 25  0  0  0  0  0  0  0  0999 V2000
    1.8119   -1.1019    0.7993 C   0  0  0  0  0  0  0  0  0  0  0  0
    1.0502    0.0547    0.1226 C   0  0  0  0  0  0  0  0  0  0  0  0
    1.1399   -0.0976   -1.3379 C   0  0  0  0  0  0  0  0  0  0  0  0
   -0.2422    0.1833    0.7787 C   0  0  0  0  0  0  0  0  0  0  0  0
   -1.0785    1.3000    0.1876 C   0  0  0  0  0  0  0  0  0  0  0  0
   -0.3703    2.4593   -0.3991 C   0  0  0  0  0  0  0  0  0  0  0  0
   -1.5409    0.3303   -0.7357 O   0  0  0  0  0  0  0  0  0  0  0  0
   -1.4447   -0.5490    0.3388 C   0  0  0  0  0  0  0  0  0  0  0  0
   -1.4014   -1.9908    0.0733 C   0  0  0  0  0  0  0  0  0  0  0  0
    1.6628   -1.0284    1.8827 H   0  0  0  0  0  0  0  0  0  0  0  0
    2.8920   -0.9142    0.6004 H   0  0  0  0  0  0  0  0  0  0  0  0
    1.5158   -2.0787    0.3620 H   0  0  0  0  0  0  0  0  0  0  0  0
    1.6757    0.9581    0.4010 H   0  0  0  0  0  0  0  0  0  0  0  0
    1.3890    0.8789   -1.8527 H   0  0  0  0  0  0  0  0  0  0  0  0
    2.0307   -0.7338   -1.5730 H   0  0  0  0  0  0  0  0  0  0  0  0
    0.2931   -0.5090   -1.8757 H   0  0  0  0  0  0  0  0  0  0  0  0
   -0.1608    0.2799    1.8907 H   0  0  0  0  0  0  0  0  0  0  0  0
   -1.8767    1.5852    0.9108 H   0  0  0  0  0  0  0  0  0  0  0  0
   -0.3543    2.4739   -1.5076 H   0  0  0  0  0  0  0  0  0  0  0  0
   -0.9589    3.3913   -0.1356 H   0  0  0  0  0  0  0  0  0  0  0  0
    0.6226    2.6524    0.0578 H   0  0  0  0  0  0  0  0  0  0  0  0
   -2.3005   -0.3085    1.0401 H   0  0  0  0  0  0  0  0  0  0  0  0
   -1.1285   -2.2203   -0.9890 H   0  0  0  0  0  0  0  0  0  0  0  0
   -0.7868   -2.5816    0.7841 H   0  0  0  0  0  0  0  0  0  0  0  0
   -2.4393   -2.4332    0.1765 H   0  0  0  0  0  0  0  0  0  0  0  0
  1  2  1  0
  2  3  1  0
  2  4  1  0
  4  5  1  0
  5  6  1  0
  5  7  1  0
  7  8  1  0
  8  9  1  0
  8  4  1  0
  1 10  1  0
  1 11  1  0
  1 12  1  0
  2 13  1  0
  3 14  1  0
  3 15  1  0
  3 16  1  0
  4 17  1  0
  5 18  1  0
  6 19  1  0
  6 20  1  0
  6 21  1  0
  8 22  1  0
  9 23  1  0
  9 24  1  0
  9 25  1  0
M  END
