
     RDKit          3D

 20 19  0  0  0  0  0  0  0  0999 V2000
    1.1622   -0.9243   -0.9459 C   0  0  0  0  0  0  0  0  0  0  0  0
    0.8676   -0.2375    0.3465 C   0  0  0  0  0  0  0  0  0  0  0  0
    1.7498    0.9978    0.5538 C   0  0  0  0  0  0  0  0  0  0  0  0
   -0.5432    0.2126    0.5005 C   0  0  0  0  0  0  0  0  0  0  0  0
   -0.8497    1.1761   -0.6044 C   0  0  0  0  0  0  0  0  0  0  0  0
   -1.4201    0.8298   -1.6251 O   0  0  0  0  0  0  0  0  0  0  0  0
   -1.5446   -0.9126    0.4210 C   0  0  0  0  0  0  0  0  0  0  0  0
   -2.8314   -0.4190    0.5723 O   0  0  0  0  0  0  0  0  0  0  0  0
    2.1877   -0.6607   -1.2628 H   0  0  0  0  0  0  0  0  0  0  0  0
    0.4015   -0.6540   -1.7218 H   0  0  0  0  0  0  0  0  0  0  0  0
    1.0485   -2.0182   -0.7946 H   0  0  0  0  0  0  0  0  0  0  0  0
    1.1579   -0.9340    1.1791 H   0  0  0  0  0  0  0  0  0  0  0  0
    1.9347    1.5309   -0.3945 H   0  0  0  0  0  0  0  0  0  0  0  0
    1.2602    1.7082    1.2558 H   0  0  0  0  0  0  0  0  0  0  0  0
    2.7144    0.7142    1.0459 H   0  0  0  0  0  0  0  0  0  0  0  0
   -0.6268    0.7535    1.4656 H   0  0  0  0  0  0  0  0  0  0  0  0
   -0.5733    2.2341   -0.5403 H   0  0  0  0  0  0  0  0  0  0  0  0
   -1.4398   -1.5183   -0.4744 H   0  0  0  0  0  0  0  0  0  0  0  0
   -1.3508   -1.5703    1.3172 H   0  0  0  0  0  0  0  0  0  0  0  0
   -3.3048   -0.3082   -0.2940 H   0  0  0  0  0  0  0  0  0  0  0  0
  1  2  1  0
  2  3  1  0
  2  4  1  0
  4  5  1  0
  5  6  2  0
  4  7  1  0
  7  8  1  0
  1  9  1  0
  1 10  1  0
  1 11  1  0
  2 12  1  0
  3 13  1  0
  3 14  1  0
  3 15  1  0
  4 16  1  0
  5 17  1  0
  7 18  1  0
  7 19  1  0
  8 20  1  0
M  END
