
     RDKit          3D

 25 25  0  0  0  0  0  0  0  0999 V2000
   -2.1235    1.2212    0.5985 C   0  0  0  0  0  0  0  0  0  0  0  0
   -1.3135    0.2334   -0.1870 C   0  0  0  0  0  0  0  0  0  0  0  0
   -2.2018   -0.9863   -0.4583 C   0  0  0  0  0  0  0  0  0  0  0  0
   -0.1112   -0.2701    0.5592 C   0  0  0  0  0  0  0  0  0  0  0  0
    0.7151   -1.2740   -0.2347 C   0  0  0  0  0  0  0  0  0  0  0  0
    0.4423   -1.4343   -1.5917 O   0  0  0  0  0  0  0  0  0  0  0  0
    1.2599    0.0493    0.1944 C   0  0  0  0  0  0  0  0  0  0  0  0
    2.3078   -0.0165    1.2944 C   0  0  0  0  0  0  0  0  0  0  0  0
    1.5898    1.0499   -0.8937 C   0  0  0  0  0  0  0  0  0  0  0  0
   -2.3077    0.9002    1.6299 H   0  0  0  0  0  0  0  0  0  0  0  0
   -1.6015    2.2003    0.6242 H   0  0  0  0  0  0  0  0  0  0  0  0
   -3.0765    1.3925    0.0662 H   0  0  0  0  0  0  0  0  0  0  0  0
   -1.0484    0.6927   -1.1612 H   0  0  0  0  0  0  0  0  0  0  0  0
   -3.2737   -0.6983   -0.4343 H   0  0  0  0  0  0  0  0  0  0  0  0
   -1.8867   -1.4354   -1.3966 H   0  0  0  0  0  0  0  0  0  0  0  0
   -2.0454   -1.7126    0.3558 H   0  0  0  0  0  0  0  0  0  0  0  0
   -0.3240   -0.5067    1.6357 H   0  0  0  0  0  0  0  0  0  0  0  0
    1.0453   -2.2040    0.2696 H   0  0  0  0  0  0  0  0  0  0  0  0
    1.1654   -1.0776   -2.1495 H   0  0  0  0  0  0  0  0  0  0  0  0
    1.8027   -0.0861    2.2617 H   0  0  0  0  0  0  0  0  0  0  0  0
    2.9377    0.9008    1.3237 H   0  0  0  0  0  0  0  0  0  0  0  0
    2.9794   -0.8815    1.1498 H   0  0  0  0  0  0  0  0  0  0  0  0
    0.9076    0.9591   -1.7642 H   0  0  0  0  0  0  0  0  0  0  0  0
    1.5264    2.0732   -0.4640 H   0  0  0  0  0  0  0  0  0  0  0  0
    2.6346    0.9106   -1.2281 H   0  0  0  0  0  0  0  0  0  0  0  0
  1  2  1  0
  2  3  1  0
  2  4  1  0
  4  5  1  0
  5  6  1  0
  5  7  1  0
  7  8  1  0
  7  9  1  0
  7  4  1  0
  1 10  1  0
  1 11  1  0
  1 12  1  0
  2 13  1  0
  3 14  1  0
  3 15  1  0
  3 16  1  0
  4 17  1  0
  5 18  1  0
  6 19  1  0
  8 20  1  0
  8 21  1  0
  8 22  1  0
  9 23  1  0
  9 24  1  0
  9 25  1  0
M  END
