
     RDKit          3D

 27 27  0  0  0  0  0  0  0  0999 V2000
   -2.3878   -0.1470   -0.9706 C   0  0  0  0  0  0  0  0  0  0  0  0
   -1.2229    0.5882   -0.3500 C   0  0  0  0  0  0  0  0  0  0  0  0
   -1.6647    1.1146    1.0080 C   0  0  0  0  0  0  0  0  0  0  0  0
   -0.0088   -0.2696   -0.1446 C   0  0  0  0  0  0  0  0  0  0  0  0
    1.2112    0.3394    0.4620 C   0  0  0  0  0  0  0  0  0  0  0  0
    2.3657   -0.6198    0.6143 C   0  0  0  0  0  0  0  0  0  0  0  0
    1.7453    1.5146   -0.3211 C   0  0  0  0  0  0  0  0  0  0  0  0
   -0.3525   -1.6524    0.3857 C   0  0  0  0  0  0  0  0  0  0  0  0
    0.2281   -1.4819   -1.0024 C   0  0  0  0  0  0  0  0  0  0  0  0
   -3.1141    0.6680   -1.2726 H   0  0  0  0  0  0  0  0  0  0  0  0
   -2.1360   -0.6554   -1.9026 H   0  0  0  0  0  0  0  0  0  0  0  0
   -2.9313   -0.7753   -0.2347 H   0  0  0  0  0  0  0  0  0  0  0  0
   -1.0303    1.4778   -0.9804 H   0  0  0  0  0  0  0  0  0  0  0  0
   -1.5103    2.2101    1.0974 H   0  0  0  0  0  0  0  0  0  0  0  0
   -2.7448    0.9289    1.1774 H   0  0  0  0  0  0  0  0  0  0  0  0
   -1.0579    0.6586    1.8291 H   0  0  0  0  0  0  0  0  0  0  0  0
    0.9679    0.6997    1.4969 H   0  0  0  0  0  0  0  0  0  0  0  0
    2.1572   -1.5197    1.1845 H   0  0  0  0  0  0  0  0  0  0  0  0
    3.1587   -0.0327    1.1710 H   0  0  0  0  0  0  0  0  0  0  0  0
    2.8600   -0.8204   -0.3765 H   0  0  0  0  0  0  0  0  0  0  0  0
    1.0537    2.3579   -0.3683 H   0  0  0  0  0  0  0  0  0  0  0  0
    2.0760    1.1792   -1.3099 H   0  0  0  0  0  0  0  0  0  0  0  0
    2.6459    1.8797    0.2450 H   0  0  0  0  0  0  0  0  0  0  0  0
   -1.4154   -1.9989    0.3454 H   0  0  0  0  0  0  0  0  0  0  0  0
    0.2210   -2.1098    1.1873 H   0  0  0  0  0  0  0  0  0  0  0  0
    1.2637   -1.8654   -1.0801 H   0  0  0  0  0  0  0  0  0  0  0  0
   -0.3774   -1.6687   -1.8903 H   0  0  0  0  0  0  0  0  0  0  0  0
  1  2  1  0
  2  3  1  0
  2  4  1  0
  4  5  1  0
  5  6  1  0
  5  7  1  0
  4  8  1  0
  8  9  1  0
  9  4  1  0
  1 10  1  0
  1 11  1  0
  1 12  1  0
  2 13  1  0
  3 14  1  0
  3 15  1  0
  3 16  1  0
  5 17  1  0
  6 18  1  0
  6 19  1  0
  6 20  1  0
  7 21  1  0
  7 22  1  0
  7 23  1  0
  8 24  1  0
  8 25  1  0
  9 26  1  0
  9 27  1  0
M  END
