
     RDKit          3D

 27 26  0  0  0  0  0  0  0  0999 V2000
   -3.4514   -1.1712    0.2867 C   0  0  0  0  0  0  0  0  0  0  0  0
   -2.2810   -0.2910    0.7001 C   0  0  0  0  0  0  0  0  0  0  0  0
   -2.7069    1.1186    0.5516 C   0  0  0  0  0  0  0  0  0  0  0  0
   -1.0948   -0.7143   -0.0597 C   0  0  0  0  0  0  0  0  0  0  0  0
    0.1663    0.0516    0.2223 C   0  0  0  0  0  0  0  0  0  0  0  0
    1.2432   -0.3974   -0.5254 O   0  0  0  0  0  0  0  0  0  0  0  0
    2.4058    0.2816   -0.2897 C   0  0  0  0  0  0  0  0  0  0  0  0
    2.9569    1.0064   -1.4796 C   0  0  0  0  0  0  0  0  0  0  0  0
    3.4877   -0.6112    0.2779 C   0  0  0  0  0  0  0  0  0  0  0  0
   -4.3993   -0.6095    0.3011 H   0  0  0  0  0  0  0  0  0  0  0  0
   -3.4826   -2.0905    0.9206 H   0  0  0  0  0  0  0  0  0  0  0  0
   -3.2864   -1.4827   -0.7798 H   0  0  0  0  0  0  0  0  0  0  0  0
   -2.1081   -0.5268    1.7866 H   0  0  0  0  0  0  0  0  0  0  0  0
   -3.4393    1.3682    1.3504 H   0  0  0  0  0  0  0  0  0  0  0  0
   -3.2602    1.2587   -0.4232 H   0  0  0  0  0  0  0  0  0  0  0  0
   -1.9167    1.8694    0.5669 H   0  0  0  0  0  0  0  0  0  0  0  0
   -0.8823   -1.7833    0.1893 H   0  0  0  0  0  0  0  0  0  0  0  0
   -1.3370   -0.7104   -1.1432 H   0  0  0  0  0  0  0  0  0  0  0  0
    0.4619    0.0579    1.2680 H   0  0  0  0  0  0  0  0  0  0  0  0
   -0.0216    1.1087   -0.0965 H   0  0  0  0  0  0  0  0  0  0  0  0
    2.1804    1.0674    0.4869 H   0  0  0  0  0  0  0  0  0  0  0  0
    4.0568    1.0971   -1.3399 H   0  0  0  0  0  0  0  0  0  0  0  0
    2.8096    0.4693   -2.4382 H   0  0  0  0  0  0  0  0  0  0  0  0
    2.5866    2.0637   -1.5558 H   0  0  0  0  0  0  0  0  0  0  0  0
    4.1736   -0.9183   -0.5406 H   0  0  0  0  0  0  0  0  0  0  0  0
    4.0945   -0.0317    0.9954 H   0  0  0  0  0  0  0  0  0  0  0  0
    3.0443   -1.4805    0.7680 H   0  0  0  0  0  0  0  0  0  0  0  0
  1  2  1  0
  2  3  1  0
  2  4  1  0
  4  5  1  0
  5  6  1  0
  6  7  1  0
  7  8  1  0
  7  9  1  0
  1 10  1  0
  1 11  1  0
  1 12  1  0
  2 13  1  0
  3 14  1  0
  3 15  1  0
  3 16  1  0
  4 17  1  0
  4 18  1  0
  5 19  1  0
  5 20  1  0
  7 21  1  0
  8 22  1  0
  8 23  1  0
  8 24  1  0
  9 25  1  0
  9 26  1  0
  9 27  1  0
M  END
