
     RDKit          3D

 23 23  0  0  0  0  0  0  0  0999 V2000
   -0.7556    1.5796   -0.1210 C   0  0  0  0  0  0  0  0  0  0  0  0
   -0.7505    0.1119    0.2216 C   0  0  0  0  0  0  0  0  0  0  0  0
   -1.4163   -0.6518   -0.9044 C   0  0  0  0  0  0  0  0  0  0  0  0
   -1.6075   -0.0984    1.4565 C   0  0  0  0  0  0  0  0  0  0  0  0
    0.6189   -0.4156    0.5204 C   0  0  0  0  0  0  0  0  0  0  0  0
    0.4875   -1.7756    0.8202 O   0  0  0  0  0  0  0  0  0  0  0  0
    1.5575   -0.3122   -0.6617 C   0  0  0  0  0  0  0  0  0  0  0  0
    2.7554    0.4740   -0.6070 C   0  0  0  0  0  0  0  0  0  0  0  0
    2.8501   -0.9155   -0.2378 O   0  0  0  0  0  0  0  0  0  0  0  0
   -0.6183    1.7222   -1.2129 H   0  0  0  0  0  0  0  0  0  0  0  0
   -0.0334    2.1491    0.4863 H   0  0  0  0  0  0  0  0  0  0  0  0
   -1.7734    1.9726    0.1117 H   0  0  0  0  0  0  0  0  0  0  0  0
   -2.4508   -0.2283   -0.9981 H   0  0  0  0  0  0  0  0  0  0  0  0
   -0.8539   -0.4398   -1.8497 H   0  0  0  0  0  0  0  0  0  0  0  0
   -1.4560   -1.7384   -0.6905 H   0  0  0  0  0  0  0  0  0  0  0  0
   -1.5354   -1.1342    1.8421 H   0  0  0  0  0  0  0  0  0  0  0  0
   -2.6442    0.1366    1.1724 H   0  0  0  0  0  0  0  0  0  0  0  0
   -1.2938    0.6315    2.2340 H   0  0  0  0  0  0  0  0  0  0  0  0
    1.0581    0.0646    1.3942 H   0  0  0  0  0  0  0  0  0  0  0  0
    0.4278   -2.2441   -0.0614 H   0  0  0  0  0  0  0  0  0  0  0  0
    1.2173   -0.7441   -1.6206 H   0  0  0  0  0  0  0  0  0  0  0  0
    3.3290    0.6589   -1.5191 H   0  0  0  0  0  0  0  0  0  0  0  0
    2.8872    1.1969    0.2248 H   0  0  0  0  0  0  0  0  0  0  0  0
  1  2  1  0
  2  3  1  0
  2  4  1  0
  2  5  1  0
  5  6  1  0
  5  7  1  0
  7  8  1  0
  8  9  1  0
  9  7  1  0
  1 10  1  0
  1 11  1  0
  1 12  1  0
  3 13  1  0
  3 14  1  0
  3 15  1  0
  4 16  1  0
  4 17  1  0
  4 18  1  0
  5 19  1  0
  6 20  1  0
  7 21  1  0
  8 22  1  0
  8 23  1  0
M  END
