
     RDKit          3D

 23 23  0  0  0  0  0  0  0  0999 V2000
    0.0276    1.7257    0.4601 C   0  0  0  0  0  0  0  0  0  0  0  0
   -0.0264    0.2315    0.6470 C   0  0  0  0  0  0  0  0  0  0  0  0
    1.3502   -0.3314    0.5156 C   0  0  0  0  0  0  0  0  0  0  0  0
    1.9822   -0.0654   -0.8211 C   0  0  0  0  0  0  0  0  0  0  0  0
    3.2645   -0.6559   -0.7818 O   0  0  0  0  0  0  0  0  0  0  0  0
   -1.0555   -0.4247   -0.2065 C   0  0  0  0  0  0  0  0  0  0  0  0
   -0.8802   -0.2456   -1.5907 O   0  0  0  0  0  0  0  0  0  0  0  0
   -2.5100   -0.3277    0.2256 C   0  0  0  0  0  0  0  0  0  0  0  0
   -1.7980   -1.6134    0.2789 C   0  0  0  0  0  0  0  0  0  0  0  0
    0.9105    2.1459    0.9595 H   0  0  0  0  0  0  0  0  0  0  0  0
    0.0193    2.0413   -0.5943 H   0  0  0  0  0  0  0  0  0  0  0  0
   -0.9088    2.1337    0.9235 H   0  0  0  0  0  0  0  0  0  0  0  0
   -0.3374    0.0672    1.7194 H   0  0  0  0  0  0  0  0  0  0  0  0
    1.9892    0.1693    1.2808 H   0  0  0  0  0  0  0  0  0  0  0  0
    1.4153   -1.4118    0.7243 H   0  0  0  0  0  0  0  0  0  0  0  0
    2.1046    1.0201   -1.0268 H   0  0  0  0  0  0  0  0  0  0  0  0
    1.4326   -0.5707   -1.6518 H   0  0  0  0  0  0  0  0  0  0  0  0
    3.9566   -0.0066   -0.5164 H   0  0  0  0  0  0  0  0  0  0  0  0
   -1.4169    0.5803   -1.8073 H   0  0  0  0  0  0  0  0  0  0  0  0
   -2.7609    0.1920    1.1629 H   0  0  0  0  0  0  0  0  0  0  0  0
   -3.2925   -0.2359   -0.5563 H   0  0  0  0  0  0  0  0  0  0  0  0
   -1.5009   -2.0140    1.2564 H   0  0  0  0  0  0  0  0  0  0  0  0
   -1.9651   -2.4038   -0.4830 H   0  0  0  0  0  0  0  0  0  0  0  0
  1  2  1  0
  2  3  1  0
  3  4  1  0
  4  5  1  0
  2  6  1  0
  6  7  1  0
  6  8  1  0
  8  9  1  0
  9  6  1  0
  1 10  1  0
  1 11  1  0
  1 12  1  0
  2 13  1  0
  3 14  1  0
  3 15  1  0
  4 16  1  0
  4 17  1  0
  5 18  1  0
  7 19  1  0
  8 20  1  0
  8 21  1  0
  9 22  1  0
  9 23  1  0
M  END
