
     RDKit          3D

 21 21  0  0  0  0  0  0  0  0999 V2000
   -1.5310   -1.5382   -0.3929 C   0  0  0  0  0  0  0  0  0  0  0  0
   -0.9045   -0.4585    0.4852 C   0  0  0  0  0  0  0  0  0  0  0  0
   -1.5735    0.8327    0.1458 C   0  0  0  0  0  0  0  0  0  0  0  0
   -1.0917    1.9083    0.8817 O   0  0  0  0  0  0  0  0  0  0  0  0
    0.5671   -0.4817    0.2366 C   0  0  0  0  0  0  0  0  0  0  0  0
    1.1171   -0.2313   -1.1362 C   0  0  0  0  0  0  0  0  0  0  0  0
    1.3851    0.7053    0.0179 C   0  0  0  0  0  0  0  0  0  0  0  0
    2.8257    0.6688    0.4684 C   0  0  0  0  0  0  0  0  0  0  0  0
    3.4766    1.6699    0.6428 O   0  0  0  0  0  0  0  0  0  0  0  0
   -2.0973   -2.2758    0.2267 H   0  0  0  0  0  0  0  0  0  0  0  0
   -0.7637   -2.1278   -0.9348 H   0  0  0  0  0  0  0  0  0  0  0  0
   -2.2109   -1.1176   -1.1377 H   0  0  0  0  0  0  0  0  0  0  0  0
   -1.1217   -0.7085    1.5218 H   0  0  0  0  0  0  0  0  0  0  0  0
   -1.5572    1.0689   -0.9368 H   0  0  0  0  0  0  0  0  0  0  0  0
   -2.6504    0.7282    0.4149 H   0  0  0  0  0  0  0  0  0  0  0  0
   -1.6197    2.0205    1.7105 H   0  0  0  0  0  0  0  0  0  0  0  0
    1.0845   -1.3402    0.7574 H   0  0  0  0  0  0  0  0  0  0  0  0
    0.4191    0.1035   -1.9479 H   0  0  0  0  0  0  0  0  0  0  0  0
    1.9383   -0.8606   -1.5383 H   0  0  0  0  0  0  0  0  0  0  0  0
    1.0055    1.7217   -0.1296 H   0  0  0  0  0  0  0  0  0  0  0  0
    3.3026   -0.2877    0.6446 H   0  0  0  0  0  0  0  0  0  0  0  0
  1  2  1  0
  2  3  1  0
  3  4  1  0
  2  5  1  0
  5  6  1  0
  6  7  1  0
  7  8  1  0
  8  9  2  0
  7  5  1  0
  1 10  1  0
  1 11  1  0
  1 12  1  0
  2 13  1  0
  3 14  1  0
  3 15  1  0
  4 16  1  0
  5 17  1  0
  6 18  1  0
  6 19  1  0
  7 20  1  0
  8 21  1  0
M  END
