
     RDKit          3D

 23 23  0  0  0  0  0  0  0  0999 V2000
   -0.6832   -1.8351    0.0340 C   0  0  0  0  0  0  0  0  0  0  0  0
   -0.3997   -0.3453    0.0796 C   0  0  0  0  0  0  0  0  0  0  0  0
   -0.3373   -0.0233    1.5653 C   0  0  0  0  0  0  0  0  0  0  0  0
   -1.5910    0.3511   -0.5670 C   0  0  0  0  0  0  0  0  0  0  0  0
   -1.4368    1.8093   -0.5876 C   0  0  0  0  0  0  0  0  0  0  0  0
   -1.1111    2.3818   -1.6044 O   0  0  0  0  0  0  0  0  0  0  0  0
    0.8216    0.0363   -0.6800 C   0  0  0  0  0  0  0  0  0  0  0  0
    2.1666   -0.5017   -0.3268 C   0  0  0  0  0  0  0  0  0  0  0  0
    1.8363    0.9850   -0.2069 C   0  0  0  0  0  0  0  0  0  0  0  0
   -0.9018   -2.1741   -0.9832 H   0  0  0  0  0  0  0  0  0  0  0  0
   -1.6361   -1.9704    0.6253 H   0  0  0  0  0  0  0  0  0  0  0  0
    0.1083   -2.4095    0.5528 H   0  0  0  0  0  0  0  0  0  0  0  0
    0.2024   -0.8338    2.0897 H   0  0  0  0  0  0  0  0  0  0  0  0
    0.1484    0.9227    1.8028 H   0  0  0  0  0  0  0  0  0  0  0  0
   -1.4007   -0.0802    1.9192 H   0  0  0  0  0  0  0  0  0  0  0  0
   -2.4876   -0.0009   -0.0268 H   0  0  0  0  0  0  0  0  0  0  0  0
   -1.6527   -0.0886   -1.5970 H   0  0  0  0  0  0  0  0  0  0  0  0
   -1.6110    2.3873    0.3061 H   0  0  0  0  0  0  0  0  0  0  0  0
    0.6160    0.0813   -1.7943 H   0  0  0  0  0  0  0  0  0  0  0  0
    2.8596   -0.7670   -1.1513 H   0  0  0  0  0  0  0  0  0  0  0  0
    2.2959   -1.0259    0.6498 H   0  0  0  0  0  0  0  0  0  0  0  0
    1.8480    1.4093    0.8233 H   0  0  0  0  0  0  0  0  0  0  0  0
    2.3459    1.6916   -0.9225 H   0  0  0  0  0  0  0  0  0  0  0  0
  1  2  1  0
  2  3  1  0
  2  4  1  0
  4  5  1  0
  5  6  2  0
  2  7  1  0
  7  8  1  0
  8  9  1  0
  9  7  1  0
  1 10  1  0
  1 11  1  0
  1 12  1  0
  3 13  1  0
  3 14  1  0
  3 15  1  0
  4 16  1  0
  4 17  1  0
  5 18  1  0
  7 19  1  0
  8 20  1  0
  8 21  1  0
  9 22  1  0
  9 23  1  0
M  END
