
     RDKit          3D

 22 21  0  0  0  0  0  0  0  0999 V2000
   -2.0244   -0.0652    1.4073 C   0  0  0  0  0  0  0  0  0  0  0  0
   -1.2852    0.3480    0.1327 C   0  0  0  0  0  0  0  0  0  0  0  0
   -2.2394    0.0942   -1.0201 C   0  0  0  0  0  0  0  0  0  0  0  0
   -0.2166   -0.4718   -0.0220 O   0  0  0  0  0  0  0  0  0  0  0  0
    1.0110    0.0393   -0.1395 C   0  0  0  0  0  0  0  0  0  0  0  0
    1.8136   -0.3596    1.0970 C   0  0  0  0  0  0  0  0  0  0  0  0
    1.8228   -0.3053   -1.3295 C   0  0  0  0  0  0  0  0  0  0  0  0
    3.0594    0.3587   -1.2047 O   0  0  0  0  0  0  0  0  0  0  0  0
   -1.7207    0.5641    2.2654 H   0  0  0  0  0  0  0  0  0  0  0  0
   -3.1217   -0.0371    1.2293 H   0  0  0  0  0  0  0  0  0  0  0  0
   -1.7768   -1.1181    1.6354 H   0  0  0  0  0  0  0  0  0  0  0  0
   -1.0924    1.4194    0.1554 H   0  0  0  0  0  0  0  0  0  0  0  0
   -2.1219   -0.9536   -1.4083 H   0  0  0  0  0  0  0  0  0  0  0  0
   -3.3088    0.1463   -0.6864 H   0  0  0  0  0  0  0  0  0  0  0  0
   -2.0738    0.7801   -1.8697 H   0  0  0  0  0  0  0  0  0  0  0  0
    0.9503    1.1661   -0.0860 H   0  0  0  0  0  0  0  0  0  0  0  0
    2.0286   -1.4447    0.9818 H   0  0  0  0  0  0  0  0  0  0  0  0
    1.1204   -0.2177    1.9581 H   0  0  0  0  0  0  0  0  0  0  0  0
    2.7311    0.2173    1.2106 H   0  0  0  0  0  0  0  0  0  0  0  0
    1.4133    0.0491   -2.2941 H   0  0  0  0  0  0  0  0  0  0  0  0
    2.0555   -1.3824   -1.3545 H   0  0  0  0  0  0  0  0  0  0  0  0
    2.9758    1.1728   -0.6582 H   0  0  0  0  0  0  0  0  0  0  0  0
  1  2  1  0
  2  3  1  0
  2  4  1  0
  4  5  1  0
  5  6  1  0
  5  7  1  0
  7  8  1  0
  1  9  1  0
  1 10  1  0
  1 11  1  0
  2 12  1  0
  3 13  1  0
  3 14  1  0
  3 15  1  0
  5 16  1  0
  6 17  1  0
  6 18  1  0
  6 19  1  0
  7 20  1  0
  7 21  1  0
  8 22  1  0
M  END
