
     RDKit          3D

 21 21  0  0  0  0  0  0  0  0999 V2000
    1.7301   -1.2615    0.4701 C   0  0  0  0  0  0  0  0  0  0  0  0
    1.1669   -0.0958   -0.2923 C   0  0  0  0  0  0  0  0  0  0  0  0
    2.0275    1.0895    0.0019 C   0  0  0  0  0  0  0  0  0  0  0  0
    1.7897    1.6729    1.0660 O   0  0  0  0  0  0  0  0  0  0  0  0
   -0.2380    0.2536    0.1386 C   0  0  0  0  0  0  0  0  0  0  0  0
   -0.6860    1.4333   -0.6981 C   0  0  0  0  0  0  0  0  0  0  0  0
   -1.2024   -0.8871   -0.0740 C   0  0  0  0  0  0  0  0  0  0  0  0
   -2.6224   -0.5780    0.3453 C   0  0  0  0  0  0  0  0  0  0  0  0
   -1.7538   -1.5456    1.0009 O   0  0  0  0  0  0  0  0  0  0  0  0
    2.7968   -1.3645    0.1621 H   0  0  0  0  0  0  0  0  0  0  0  0
    1.2455   -2.2200    0.2081 H   0  0  0  0  0  0  0  0  0  0  0  0
    1.7529   -1.0831    1.5659 H   0  0  0  0  0  0  0  0  0  0  0  0
    1.2153   -0.3463   -1.3719 H   0  0  0  0  0  0  0  0  0  0  0  0
    2.8102    1.4223   -0.6674 H   0  0  0  0  0  0  0  0  0  0  0  0
   -0.2099    0.5621    1.2029 H   0  0  0  0  0  0  0  0  0  0  0  0
   -1.7795    1.5899   -0.6306 H   0  0  0  0  0  0  0  0  0  0  0  0
   -0.1384    2.3596   -0.4634 H   0  0  0  0  0  0  0  0  0  0  0  0
   -0.4901    1.2186   -1.7880 H   0  0  0  0  0  0  0  0  0  0  0  0
   -1.1426   -1.3808   -1.0663 H   0  0  0  0  0  0  0  0  0  0  0  0
   -3.4590   -1.1044   -0.1420 H   0  0  0  0  0  0  0  0  0  0  0  0
   -2.8129    0.2654    1.0320 H   0  0  0  0  0  0  0  0  0  0  0  0
  1  2  1  0
  2  3  1  0
  3  4  2  0
  2  5  1  0
  5  6  1  0
  5  7  1  0
  7  8  1  0
  8  9  1  0
  9  7  1  0
  1 10  1  0
  1 11  1  0
  1 12  1  0
  2 13  1  0
  3 14  1  0
  5 15  1  0
  6 16  1  0
  6 17  1  0
  6 18  1  0
  7 19  1  0
  8 20  1  0
  8 21  1  0
M  END
