
     RDKit          3D

 21 20  0  0  0  0  0  0  0  0999 V2000
   -1.6667   -1.3595    0.7035 C   0  0  0  0  0  0  0  0  0  0  0  0
   -1.3234   -0.2362   -0.2102 C   0  0  0  0  0  0  0  0  0  0  0  0
   -1.6616    1.1176    0.3849 C   0  0  0  0  0  0  0  0  0  0  0  0
   -1.3049    2.0865   -0.5400 O   0  0  0  0  0  0  0  0  0  0  0  0
    0.0707   -0.2623   -0.7465 C   0  0  0  0  0  0  0  0  0  0  0  0
    1.1286   -0.2103    0.2591 C   0  0  0  0  0  0  0  0  0  0  0  0
    0.9713   -0.1494    1.4594 O   0  0  0  0  0  0  0  0  0  0  0  0
    2.5431   -0.2331   -0.2094 C   0  0  0  0  0  0  0  0  0  0  0  0
    3.4605   -0.1799    0.8206 O   0  0  0  0  0  0  0  0  0  0  0  0
   -2.4270   -1.0021    1.4317 H   0  0  0  0  0  0  0  0  0  0  0  0
   -2.1562   -2.2179    0.1684 H   0  0  0  0  0  0  0  0  0  0  0  0
   -0.8127   -1.7941    1.2474 H   0  0  0  0  0  0  0  0  0  0  0  0
   -2.0062   -0.3344   -1.1078 H   0  0  0  0  0  0  0  0  0  0  0  0
   -1.1866    1.2639    1.3766 H   0  0  0  0  0  0  0  0  0  0  0  0
   -2.7583    1.1585    0.5092 H   0  0  0  0  0  0  0  0  0  0  0  0
   -0.7815    2.8254   -0.1632 H   0  0  0  0  0  0  0  0  0  0  0  0
    0.1848    0.6321   -1.4079 H   0  0  0  0  0  0  0  0  0  0  0  0
    0.2384   -1.1388   -1.4052 H   0  0  0  0  0  0  0  0  0  0  0  0
    2.7579   -1.1881   -0.7739 H   0  0  0  0  0  0  0  0  0  0  0  0
    2.7471    0.5770   -0.9411 H   0  0  0  0  0  0  0  0  0  0  0  0
    3.9828    0.6453    0.8458 H   0  0  0  0  0  0  0  0  0  0  0  0
  1  2  1  0
  2  3  1  0
  3  4  1  0
  2  5  1  0
  5  6  1  0
  6  7  2  0
  6  8  1  0
  8  9  1  0
  1 10  1  0
  1 11  1  0
  1 12  1  0
  2 13  1  0
  3 14  1  0
  3 15  1  0
  4 16  1  0
  5 17  1  0
  5 18  1  0
  8 19  1  0
  8 20  1  0
  9 21  1  0
M  END
