
     RDKit          3D

 25 25  0  0  0  0  0  0  0  0999 V2000
    2.5367    0.7641   -0.8655 C   0  0  0  0  0  0  0  0  0  0  0  0
    2.0197    0.2028    0.4272 C   0  0  0  0  0  0  0  0  0  0  0  0
    2.3289   -1.2791    0.4905 C   0  0  0  0  0  0  0  0  0  0  0  0
    0.5637    0.4524    0.6510 C   0  0  0  0  0  0  0  0  0  0  0  0
   -0.2111   -0.1067   -0.3423 O   0  0  0  0  0  0  0  0  0  0  0  0
   -1.5514    0.0721   -0.2182 C   0  0  0  0  0  0  0  0  0  0  0  0
   -2.1832    1.4327   -0.1876 C   0  0  0  0  0  0  0  0  0  0  0  0
   -2.4070   -0.9891   -0.9481 C   0  0  0  0  0  0  0  0  0  0  0  0
   -2.2964   -0.9822    0.5637 C   0  0  0  0  0  0  0  0  0  0  0  0
    1.9108    0.4336   -1.7245 H   0  0  0  0  0  0  0  0  0  0  0  0
    3.5556    0.3484   -1.0265 H   0  0  0  0  0  0  0  0  0  0  0  0
    2.6569    1.8727   -0.8316 H   0  0  0  0  0  0  0  0  0  0  0  0
    2.5759    0.6894    1.2653 H   0  0  0  0  0  0  0  0  0  0  0  0
    2.2476   -1.5596    1.5772 H   0  0  0  0  0  0  0  0  0  0  0  0
    3.3703   -1.4356    0.1151 H   0  0  0  0  0  0  0  0  0  0  0  0
    1.5834   -1.8299   -0.1252 H   0  0  0  0  0  0  0  0  0  0  0  0
    0.2854   -0.0344    1.6111 H   0  0  0  0  0  0  0  0  0  0  0  0
    0.3562    1.5261    0.7490 H   0  0  0  0  0  0  0  0  0  0  0  0
   -2.7938    1.6334   -1.1166 H   0  0  0  0  0  0  0  0  0  0  0  0
   -2.9027    1.5109    0.6541 H   0  0  0  0  0  0  0  0  0  0  0  0
   -1.4681    2.2600   -0.1048 H   0  0  0  0  0  0  0  0  0  0  0  0
   -1.8661   -1.8022   -1.4694 H   0  0  0  0  0  0  0  0  0  0  0  0
   -3.3888   -0.6855   -1.3226 H   0  0  0  0  0  0  0  0  0  0  0  0
   -3.1851   -0.6820    1.1555 H   0  0  0  0  0  0  0  0  0  0  0  0
   -1.7374   -1.8123    1.0233 H   0  0  0  0  0  0  0  0  0  0  0  0
  1  2  1  0
  2  3  1  0
  2  4  1  0
  4  5  1  0
  5  6  1  0
  6  7  1  0
  6  8  1  0
  8  9  1  0
  9  6  1  0
  1 10  1  0
  1 11  1  0
  1 12  1  0
  2 13  1  0
  3 14  1  0
  3 15  1  0
  3 16  1  0
  4 17  1  0
  4 18  1  0
  7 19  1  0
  7 20  1  0
  7 21  1  0
  8 22  1  0
  8 23  1  0
  9 24  1  0
  9 25  1  0
M  END
