
     RDKit          3D

 21 21  0  0  0  0  0  0  0  0999 V2000
    0.0099    2.3534    0.9657 C   0  0  0  0  0  0  0  0  0  0  0  0
    0.2501    1.6328   -0.3429 C   0  0  0  0  0  0  0  0  0  0  0  0
    1.3612    2.3308   -1.0333 C   0  0  0  0  0  0  0  0  0  0  0  0
    2.3750    1.7315   -1.3266 O   0  0  0  0  0  0  0  0  0  0  0  0
    0.5106    0.3085   -0.0998 O   0  0  0  0  0  0  0  0  0  0  0  0
   -0.4474   -0.5288   -0.6652 C   0  0  0  0  0  0  0  0  0  0  0  0
   -0.1826   -1.9735   -0.4124 C   0  0  0  0  0  0  0  0  0  0  0  0
   -0.1117   -2.5317    0.9593 C   0  0  0  0  0  0  0  0  0  0  0  0
    1.1342   -2.4006    0.1464 C   0  0  0  0  0  0  0  0  0  0  0  0
   -0.9533    2.9276    0.9493 H   0  0  0  0  0  0  0  0  0  0  0  0
    0.0225    1.6327    1.7978 H   0  0  0  0  0  0  0  0  0  0  0  0
    0.7968    3.1111    1.1832 H   0  0  0  0  0  0  0  0  0  0  0  0
   -0.6910    1.6886   -0.9489 H   0  0  0  0  0  0  0  0  0  0  0  0
    1.2487    3.3779   -1.2678 H   0  0  0  0  0  0  0  0  0  0  0  0
   -0.4590   -0.3778   -1.7799 H   0  0  0  0  0  0  0  0  0  0  0  0
   -1.4365   -0.2371   -0.2507 H   0  0  0  0  0  0  0  0  0  0  0  0
   -0.6182   -2.6681   -1.1717 H   0  0  0  0  0  0  0  0  0  0  0  0
   -0.2510   -1.8784    1.8564 H   0  0  0  0  0  0  0  0  0  0  0  0
   -0.4879   -3.5615    1.1473 H   0  0  0  0  0  0  0  0  0  0  0  0
    1.6311   -3.3272   -0.1834 H   0  0  0  0  0  0  0  0  0  0  0  0
    1.8544   -1.6101    0.4770 H   0  0  0  0  0  0  0  0  0  0  0  0
  1  2  1  0
  2  3  1  0
  3  4  2  0
  2  5  1  0
  5  6  1  0
  6  7  1  0
  7  8  1  0
  8  9  1  0
  9  7  1  0
  1 10  1  0
  1 11  1  0
  1 12  1  0
  2 13  1  0
  3 14  1  0
  6 15  1  0
  6 16  1  0
  7 17  1  0
  8 18  1  0
  8 19  1  0
  9 20  1  0
  9 21  1  0
M  END
