
     RDKit          3D

 23 23  0  0  0  0  0  0  0  0999 V2000
   -1.5910    1.3466   -0.6126 C   0  0  0  0  0  0  0  0  0  0  0  0
   -0.9014    0.4765    0.3985 C   0  0  0  0  0  0  0  0  0  0  0  0
   -1.8552   -0.5275    1.0062 C   0  0  0  0  0  0  0  0  0  0  0  0
    0.3157   -0.2216   -0.1522 C   0  0  0  0  0  0  0  0  0  0  0  0
   -0.0018   -1.1235   -1.3163 C   0  0  0  0  0  0  0  0  0  0  0  0
    1.3507    0.7346   -0.5642 C   0  0  0  0  0  0  0  0  0  0  0  0
    2.4338    0.5484    0.1663 C   0  0  0  0  0  0  0  0  0  0  0  0
    2.1434   -0.5503    1.0947 C   0  0  0  0  0  0  0  0  0  0  0  0
    0.8756   -1.0009    0.8385 O   0  0  0  0  0  0  0  0  0  0  0  0
   -1.5603    0.9793   -1.6347 H   0  0  0  0  0  0  0  0  0  0  0  0
   -1.1956    2.4005   -0.5259 H   0  0  0  0  0  0  0  0  0  0  0  0
   -2.6725    1.4440   -0.3017 H   0  0  0  0  0  0  0  0  0  0  0  0
   -0.5457    1.1326    1.2222 H   0  0  0  0  0  0  0  0  0  0  0  0
   -2.7174   -0.6837    0.3025 H   0  0  0  0  0  0  0  0  0  0  0  0
   -2.2457   -0.2056    1.9919 H   0  0  0  0  0  0  0  0  0  0  0  0
   -1.3433   -1.5099    1.1727 H   0  0  0  0  0  0  0  0  0  0  0  0
    0.7246   -0.9703   -2.1660 H   0  0  0  0  0  0  0  0  0  0  0  0
    0.1341   -2.2142   -1.0508 H   0  0  0  0  0  0  0  0  0  0  0  0
   -1.0282   -0.9882   -1.7098 H   0  0  0  0  0  0  0  0  0  0  0  0
    1.2269    1.4710   -1.3477 H   0  0  0  0  0  0  0  0  0  0  0  0
    3.3448    1.0953    0.0922 H   0  0  0  0  0  0  0  0  0  0  0  0
    2.2485   -0.2312    2.1454 H   0  0  0  0  0  0  0  0  0  0  0  0
    2.8601   -1.4020    0.9509 H   0  0  0  0  0  0  0  0  0  0  0  0
  1  2  1  0
  2  3  1  0
  2  4  1  0
  4  5  1  0
  4  6  1  0
  6  7  2  0
  7  8  1  0
  8  9  1  0
  9  4  1  0
  1 10  1  0
  1 11  1  0
  1 12  1  0
  2 13  1  0
  3 14  1  0
  3 15  1  0
  3 16  1  0
  5 17  1  0
  5 18  1  0
  5 19  1  0
  6 20  1  0
  7 21  1  0
  8 22  1  0
  8 23  1  0
M  END
