
     RDKit          3D

 21 21  0  0  0  0  0  0  0  0999 V2000
   -2.7689   -0.7300   -0.1271 C   0  0  0  0  0  0  0  0  0  0  0  0
   -1.3892   -0.2991    0.3250 C   0  0  0  0  0  0  0  0  0  0  0  0
   -1.3643    1.2091    0.3570 C   0  0  0  0  0  0  0  0  0  0  0  0
   -0.3348   -0.8345   -0.5933 C   0  0  0  0  0  0  0  0  0  0  0  0
   -0.7250   -1.4943   -1.5498 O   0  0  0  0  0  0  0  0  0  0  0  0
    1.1074   -0.6089   -0.4030 C   0  0  0  0  0  0  0  0  0  0  0  0
    1.4698   -1.1246    0.9489 O   0  0  0  0  0  0  0  0  0  0  0  0
    1.7287    0.2057    0.5924 C   0  0  0  0  0  0  0  0  0  0  0  0
    3.2089    0.4907    0.4543 C   0  0  0  0  0  0  0  0  0  0  0  0
   -3.5034   -0.7215    0.6791 H   0  0  0  0  0  0  0  0  0  0  0  0
   -2.6434   -1.7552   -0.5852 H   0  0  0  0  0  0  0  0  0  0  0  0
   -3.1549   -0.0894   -0.9473 H   0  0  0  0  0  0  0  0  0  0  0  0
   -1.2114   -0.7012    1.3562 H   0  0  0  0  0  0  0  0  0  0  0  0
   -1.1228    1.5244    1.4069 H   0  0  0  0  0  0  0  0  0  0  0  0
   -0.6138    1.6297   -0.3436 H   0  0  0  0  0  0  0  0  0  0  0  0
   -2.3874    1.5757    0.1435 H   0  0  0  0  0  0  0  0  0  0  0  0
    1.7614   -1.0628   -1.1787 H   0  0  0  0  0  0  0  0  0  0  0  0
    1.1870    1.0072    1.1009 H   0  0  0  0  0  0  0  0  0  0  0  0
    3.7120    0.3105    1.4264 H   0  0  0  0  0  0  0  0  0  0  0  0
    3.7006   -0.1005   -0.3226 H   0  0  0  0  0  0  0  0  0  0  0  0
    3.3436    1.5688    0.1599 H   0  0  0  0  0  0  0  0  0  0  0  0
  1  2  1  0
  2  3  1  0
  2  4  1  0
  4  5  2  0
  4  6  1  0
  6  7  1  0
  7  8  1  0
  8  9  1  0
  8  6  1  0
  1 10  1  0
  1 11  1  0
  1 12  1  0
  2 13  1  0
  3 14  1  0
  3 15  1  0
  3 16  1  0
  6 17  1  0
  8 18  1  0
  9 19  1  0
  9 20  1  0
  9 21  1  0
M  END
