
     RDKit          3D

 23 23  0  0  0  0  0  0  0  0999 V2000
   -1.4872   -1.0221    1.1618 C   0  0  0  0  0  0  0  0  0  0  0  0
   -0.9224    0.1718    0.4234 C   0  0  0  0  0  0  0  0  0  0  0  0
   -1.7321    0.3824   -0.8361 C   0  0  0  0  0  0  0  0  0  0  0  0
   -1.2361    1.4839   -1.5487 O   0  0  0  0  0  0  0  0  0  0  0  0
    0.5285   -0.1200    0.1156 C   0  0  0  0  0  0  0  0  0  0  0  0
    0.7609   -1.3331   -0.7349 C   0  0  0  0  0  0  0  0  0  0  0  0
    1.3514    1.0634   -0.3059 C   0  0  0  0  0  0  0  0  0  0  0  0
    2.2638    0.5853    0.7870 C   0  0  0  0  0  0  0  0  0  0  0  0
    1.2525   -0.2275    1.3036 O   0  0  0  0  0  0  0  0  0  0  0  0
   -1.3896   -1.9089    0.4736 H   0  0  0  0  0  0  0  0  0  0  0  0
   -0.9213   -1.1509    2.0908 H   0  0  0  0  0  0  0  0  0  0  0  0
   -2.5708   -0.8666    1.3121 H   0  0  0  0  0  0  0  0  0  0  0  0
   -1.0266    1.0836    1.0456 H   0  0  0  0  0  0  0  0  0  0  0  0
   -1.7469   -0.5223   -1.4761 H   0  0  0  0  0  0  0  0  0  0  0  0
   -2.7711    0.6460   -0.5569 H   0  0  0  0  0  0  0  0  0  0  0  0
   -1.3867    2.2770   -0.9517 H   0  0  0  0  0  0  0  0  0  0  0  0
    1.8053   -1.2562   -1.1446 H   0  0  0  0  0  0  0  0  0  0  0  0
    0.7373   -2.2188   -0.0554 H   0  0  0  0  0  0  0  0  0  0  0  0
    0.0930   -1.4209   -1.5888 H   0  0  0  0  0  0  0  0  0  0  0  0
    1.8344    0.9219   -1.2978 H   0  0  0  0  0  0  0  0  0  0  0  0
    0.8892    2.0508   -0.1612 H   0  0  0  0  0  0  0  0  0  0  0  0
    2.5194    1.3615    1.5268 H   0  0  0  0  0  0  0  0  0  0  0  0
    3.1551    0.0196    0.4177 H   0  0  0  0  0  0  0  0  0  0  0  0
  1  2  1  0
  2  3  1  0
  3  4  1  0
  2  5  1  0
  5  6  1  0
  5  7  1  0
  7  8  1  0
  8  9  1  0
  9  5  1  0
  1 10  1  0
  1 11  1  0
  1 12  1  0
  2 13  1  0
  3 14  1  0
  3 15  1  0
  4 16  1  0
  6 17  1  0
  6 18  1  0
  6 19  1  0
  7 20  1  0
  7 21  1  0
  8 22  1  0
  8 23  1  0
M  END
