
     RDKit          3D

 18 18  0  0  0  0  0  0  0  0999 V2000
   -2.2879   -1.0375    0.0288 C   0  0  0  0  0  0  0  0  0  0  0  0
   -1.4276   -0.0023   -0.6943 C   0  0  0  0  0  0  0  0  0  0  0  0
   -1.9794    1.3547   -0.3652 C   0  0  0  0  0  0  0  0  0  0  0  0
   -0.0333   -0.1024   -0.2580 C   0  0  0  0  0  0  0  0  0  0  0  0
    1.1350   -0.1749    0.0948 C   0  0  0  0  0  0  0  0  0  0  0  0
    2.5374   -0.2839    0.5074 C   0  0  0  0  0  0  0  0  0  0  0  0
    3.5420   -0.1009   -0.5238 C   0  0  0  0  0  0  0  0  0  0  0  0
    3.2949    0.8823    0.4223 O   0  0  0  0  0  0  0  0  0  0  0  0
   -1.5931   -1.6994    0.6185 H   0  0  0  0  0  0  0  0  0  0  0  0
   -2.7810   -1.7041   -0.6989 H   0  0  0  0  0  0  0  0  0  0  0  0
   -2.9705   -0.5753    0.7581 H   0  0  0  0  0  0  0  0  0  0  0  0
   -1.5373   -0.1587   -1.7945 H   0  0  0  0  0  0  0  0  0  0  0  0
   -3.1030    1.2476   -0.3511 H   0  0  0  0  0  0  0  0  0  0  0  0
   -1.6206    1.6571    0.6231 H   0  0  0  0  0  0  0  0  0  0  0  0
   -1.7798    2.1068   -1.1636 H   0  0  0  0  0  0  0  0  0  0  0  0
    2.7959   -0.9036    1.3835 H   0  0  0  0  0  0  0  0  0  0  0  0
    3.3246    0.1964   -1.5602 H   0  0  0  0  0  0  0  0  0  0  0  0
    4.4836   -0.7020   -0.4434 H   0  0  0  0  0  0  0  0  0  0  0  0
  1  2  1  0
  2  3  1  0
  2  4  1  0
  4  5  3  0
  5  6  1  0
  6  7  1  0
  7  8  1  0
  8  6  1  0
  1  9  1  0
  1 10  1  0
  1 11  1  0
  2 12  1  0
  3 13  1  0
  3 14  1  0
  3 15  1  0
  6 16  1  0
  7 17  1  0
  7 18  1  0
M  END
