
     RDKit          3D

 21 20  0  0  0  0  0  0  0  0999 V2000
   -2.2643    0.9134   -0.6198 C   0  0  0  0  0  0  0  0  0  0  0  0
   -0.9408    0.6092    0.0433 C   0  0  0  0  0  0  0  0  0  0  0  0
   -1.2006    0.0446    1.3942 C   0  0  0  0  0  0  0  0  0  0  0  0
   -1.9490   -0.9276    1.5403 O   0  0  0  0  0  0  0  0  0  0  0  0
   -0.1601   -0.3961   -0.7734 C   0  0  0  0  0  0  0  0  0  0  0  0
    0.0933    0.0910   -2.0448 O   0  0  0  0  0  0  0  0  0  0  0  0
    1.0404   -0.9269   -0.0681 C   0  0  0  0  0  0  0  0  0  0  0  0
    2.0489    0.1075    0.3162 C   0  0  0  0  0  0  0  0  0  0  0  0
    3.1028   -0.5607    0.9639 O   0  0  0  0  0  0  0  0  0  0  0  0
   -2.1516    1.0562   -1.7163 H   0  0  0  0  0  0  0  0  0  0  0  0
   -2.9904    0.0836   -0.4509 H   0  0  0  0  0  0  0  0  0  0  0  0
   -2.6995    1.8192   -0.1263 H   0  0  0  0  0  0  0  0  0  0  0  0
   -0.4080    1.5679    0.1644 H   0  0  0  0  0  0  0  0  0  0  0  0
   -0.7509    0.4551    2.2996 H   0  0  0  0  0  0  0  0  0  0  0  0
   -0.8616   -1.2670   -0.9116 H   0  0  0  0  0  0  0  0  0  0  0  0
    0.7766   -0.4200   -2.5136 H   0  0  0  0  0  0  0  0  0  0  0  0
    0.7086   -1.4491    0.8419 H   0  0  0  0  0  0  0  0  0  0  0  0
    1.5321   -1.6593   -0.7242 H   0  0  0  0  0  0  0  0  0  0  0  0
    2.5207    0.5953   -0.5749 H   0  0  0  0  0  0  0  0  0  0  0  0
    1.6902    0.8673    1.0164 H   0  0  0  0  0  0  0  0  0  0  0  0
    2.8632   -0.6037    1.9437 H   0  0  0  0  0  0  0  0  0  0  0  0
  1  2  1  0
  2  3  1  0
  3  4  2  0
  2  5  1  0
  5  6  1  0
  5  7  1  0
  7  8  1  0
  8  9  1  0
  1 10  1  0
  1 11  1  0
  1 12  1  0
  2 13  1  0
  3 14  1  0
  5 15  1  0
  6 16  1  0
  7 17  1  0
  7 18  1  0
  8 19  1  0
  8 20  1  0
  9 21  1  0
M  END
