
     RDKit          3D

 23 22  0  0  0  0  0  0  0  0999 V2000
   -1.9822    0.3070   -1.0187 C   0  0  0  0  0  0  0  0  0  0  0  0
   -1.0062   -0.1294    0.0676 C   0  0  0  0  0  0  0  0  0  0  0  0
   -1.3776    0.6485    1.3114 C   0  0  0  0  0  0  0  0  0  0  0  0
   -1.1266   -1.6083    0.2566 C   0  0  0  0  0  0  0  0  0  0  0  0
    0.3679    0.2850   -0.4006 C   0  0  0  0  0  0  0  0  0  0  0  0
    1.3601   -0.1188    0.6274 C   0  0  0  0  0  0  0  0  0  0  0  0
    0.9783   -0.6810    1.6283 O   0  0  0  0  0  0  0  0  0  0  0  0
    2.8099    0.1868    0.3868 C   0  0  0  0  0  0  0  0  0  0  0  0
    2.9580    0.8337   -0.8356 O   0  0  0  0  0  0  0  0  0  0  0  0
   -2.0738   -0.4884   -1.7863 H   0  0  0  0  0  0  0  0  0  0  0  0
   -1.5828    1.2074   -1.5192 H   0  0  0  0  0  0  0  0  0  0  0  0
   -2.9330    0.5514   -0.5395 H   0  0  0  0  0  0  0  0  0  0  0  0
   -2.3525    1.1616    1.2150 H   0  0  0  0  0  0  0  0  0  0  0  0
   -1.4075   -0.0459    2.1954 H   0  0  0  0  0  0  0  0  0  0  0  0
   -0.6325    1.4296    1.5649 H   0  0  0  0  0  0  0  0  0  0  0  0
   -0.1423   -2.1441    0.1924 H   0  0  0  0  0  0  0  0  0  0  0  0
   -1.5522   -1.8400    1.2599 H   0  0  0  0  0  0  0  0  0  0  0  0
   -1.7514   -2.0446   -0.5393 H   0  0  0  0  0  0  0  0  0  0  0  0
    0.4183    1.3677   -0.6058 H   0  0  0  0  0  0  0  0  0  0  0  0
    0.6417   -0.2835   -1.3298 H   0  0  0  0  0  0  0  0  0  0  0  0
    3.3466   -0.7732    0.4370 H   0  0  0  0  0  0  0  0  0  0  0  0
    3.1965    0.8954    1.1617 H   0  0  0  0  0  0  0  0  0  0  0  0
    3.8432    1.2830   -0.8253 H   0  0  0  0  0  0  0  0  0  0  0  0
  1  2  1  0
  2  3  1  0
  2  4  1  0
  2  5  1  0
  5  6  1  0
  6  7  2  0
  6  8  1  0
  8  9  1  0
  1 10  1  0
  1 11  1  0
  1 12  1  0
  3 13  1  0
  3 14  1  0
  3 15  1  0
  4 16  1  0
  4 17  1  0
  4 18  1  0
  5 19  1  0
  5 20  1  0
  8 21  1  0
  8 22  1  0
  9 23  1  0
M  END
