
     RDKit          3D

 23 22  0  0  0  0  0  0  0  0999 V2000
   -2.8846   -0.9051   -0.2788 C   0  0  0  0  0  0  0  0  0  0  0  0
   -1.5420   -0.3729    0.3157 C   0  0  0  0  0  0  0  0  0  0  0  0
   -1.5230    1.0594   -0.0910 C   0  0  0  0  0  0  0  0  0  0  0  0
   -0.5086   -1.2813   -0.1991 C   0  0  0  0  0  0  0  0  0  0  0  0
    0.9059   -1.1078    0.1640 C   0  0  0  0  0  0  0  0  0  0  0  0
    1.6276    0.0807   -0.2425 C   0  0  0  0  0  0  0  0  0  0  0  0
    1.2044    0.9425   -0.9330 O   0  0  0  0  0  0  0  0  0  0  0  0
    3.0434    0.2188    0.2684 C   0  0  0  0  0  0  0  0  0  0  0  0
    3.6087    1.4038   -0.1359 O   0  0  0  0  0  0  0  0  0  0  0  0
   -2.9389   -0.5937   -1.3428 H   0  0  0  0  0  0  0  0  0  0  0  0
   -2.8648   -2.0089   -0.2400 H   0  0  0  0  0  0  0  0  0  0  0  0
   -3.7365   -0.4716    0.2338 H   0  0  0  0  0  0  0  0  0  0  0  0
   -1.7182   -0.4802    1.4317 H   0  0  0  0  0  0  0  0  0  0  0  0
   -1.4183    1.2801   -1.1416 H   0  0  0  0  0  0  0  0  0  0  0  0
   -0.8530    1.6458    0.5624 H   0  0  0  0  0  0  0  0  0  0  0  0
   -2.5776    1.4486    0.1685 H   0  0  0  0  0  0  0  0  0  0  0  0
   -0.7703   -2.3507    0.1154 H   0  0  0  0  0  0  0  0  0  0  0  0
   -0.6329   -1.3343   -1.3185 H   0  0  0  0  0  0  0  0  0  0  0  0
    1.4380   -2.0528   -0.2120 H   0  0  0  0  0  0  0  0  0  0  0  0
    1.0234   -1.2270    1.2885 H   0  0  0  0  0  0  0  0  0  0  0  0
    3.6741   -0.6094   -0.1312 H   0  0  0  0  0  0  0  0  0  0  0  0
    2.9737    0.1736    1.3664 H   0  0  0  0  0  0  0  0  0  0  0  0
    4.4694    1.4966    0.3519 H   0  0  0  0  0  0  0  0  0  0  0  0
  1  2  1  0
  2  3  1  0
  2  4  1  0
  4  5  1  0
  5  6  1  0
  6  7  2  0
  6  8  1  0
  8  9  1  0
  1 10  1  0
  1 11  1  0
  1 12  1  0
  2 13  1  0
  3 14  1  0
  3 15  1  0
  3 16  1  0
  4 17  1  0
  4 18  1  0
  5 19  1  0
  5 20  1  0
  8 21  1  0
  8 22  1  0
  9 23  1  0
M  END
