
     RDKit          3D

 23 22  0  0  0  0  0  0  0  0999 V2000
   -1.3111   -1.1523    1.2349 C   0  0  0  0  0  0  0  0  0  0  0  0
   -0.9885   -0.4450   -0.0516 C   0  0  0  0  0  0  0  0  0  0  0  0
   -2.2440    0.2017   -0.5592 C   0  0  0  0  0  0  0  0  0  0  0  0
    0.1680    0.4576    0.1151 C   0  0  0  0  0  0  0  0  0  0  0  0
    0.5389    1.2216   -1.1421 C   0  0  0  0  0  0  0  0  0  0  0  0
    1.3612   -0.3566    0.5908 C   0  0  0  0  0  0  0  0  0  0  0  0
    1.1631   -0.9834    1.7975 O   0  0  0  0  0  0  0  0  0  0  0  0
    2.5992    0.4126    0.6477 C   0  0  0  0  0  0  0  0  0  0  0  0
    3.2913    0.4452    1.6386 O   0  0  0  0  0  0  0  0  0  0  0  0
   -1.0510   -0.5157    2.1046 H   0  0  0  0  0  0  0  0  0  0  0  0
   -2.4172   -1.3766    1.2322 H   0  0  0  0  0  0  0  0  0  0  0  0
   -0.7514   -2.0869    1.2703 H   0  0  0  0  0  0  0  0  0  0  0  0
   -0.7536   -1.2600   -0.8051 H   0  0  0  0  0  0  0  0  0  0  0  0
   -2.7375    0.7608    0.2698 H   0  0  0  0  0  0  0  0  0  0  0  0
   -2.1321    0.7735   -1.4751 H   0  0  0  0  0  0  0  0  0  0  0  0
   -2.9578   -0.6413   -0.7996 H   0  0  0  0  0  0  0  0  0  0  0  0
   -0.0244    1.2229    0.8934 H   0  0  0  0  0  0  0  0  0  0  0  0
   -0.3610    1.7854   -1.4620 H   0  0  0  0  0  0  0  0  0  0  0  0
    1.2688    2.0159   -0.8063 H   0  0  0  0  0  0  0  0  0  0  0  0
    0.9824    0.6031   -1.9182 H   0  0  0  0  0  0  0  0  0  0  0  0
    1.5222   -1.2052   -0.1487 H   0  0  0  0  0  0  0  0  0  0  0  0
    1.9156   -0.8509    2.4416 H   0  0  0  0  0  0  0  0  0  0  0  0
    2.9186    0.9735   -0.2126 H   0  0  0  0  0  0  0  0  0  0  0  0
  1  2  1  0
  2  3  1  0
  2  4  1  0
  4  5  1  0
  4  6  1  0
  6  7  1  0
  6  8  1  0
  8  9  2  0
  1 10  1  0
  1 11  1  0
  1 12  1  0
  2 13  1  0
  3 14  1  0
  3 15  1  0
  3 16  1  0
  4 17  1  0
  5 18  1  0
  5 19  1  0
  5 20  1  0
  6 21  1  0
  7 22  1  0
  8 23  1  0
M  END
