
     RDKit          3D

 25 24  0  0  0  0  0  0  0  0999 V2000
   -3.2293   -0.1669   -0.6625 C   0  0  0  0  0  0  0  0  0  0  0  0
   -2.0259    0.7508   -0.7400 C   0  0  0  0  0  0  0  0  0  0  0  0
   -2.4488    2.0970   -0.2314 C   0  0  0  0  0  0  0  0  0  0  0  0
   -0.8963    0.2251    0.0568 C   0  0  0  0  0  0  0  0  0  0  0  0
    0.0230   -0.1896    0.7216 C   0  0  0  0  0  0  0  0  0  0  0  0
    1.1335   -0.7178    1.5397 C   0  0  0  0  0  0  0  0  0  0  0  0
    2.3406   -0.8277    0.6362 C   0  0  0  0  0  0  0  0  0  0  0  0
    2.7603    0.4769    0.0450 C   0  0  0  0  0  0  0  0  0  0  0  0
    2.0946   -1.8045   -0.4864 C   0  0  0  0  0  0  0  0  0  0  0  0
   -3.3852   -0.7562   -1.5870 H   0  0  0  0  0  0  0  0  0  0  0  0
   -3.0103   -0.8855    0.1813 H   0  0  0  0  0  0  0  0  0  0  0  0
   -4.1433    0.3791   -0.3493 H   0  0  0  0  0  0  0  0  0  0  0  0
   -1.7192    0.8386   -1.7981 H   0  0  0  0  0  0  0  0  0  0  0  0
   -3.5470    2.1726   -0.1356 H   0  0  0  0  0  0  0  0  0  0  0  0
   -1.9880    2.9445   -0.7692 H   0  0  0  0  0  0  0  0  0  0  0  0
   -2.0589    2.1738    0.8250 H   0  0  0  0  0  0  0  0  0  0  0  0
    1.3526   -0.1076    2.4145 H   0  0  0  0  0  0  0  0  0  0  0  0
    0.9144   -1.7488    1.8946 H   0  0  0  0  0  0  0  0  0  0  0  0
    3.1739   -1.2249    1.2502 H   0  0  0  0  0  0  0  0  0  0  0  0
    2.2428    0.6465   -0.9340 H   0  0  0  0  0  0  0  0  0  0  0  0
    2.6268    1.3274    0.7273 H   0  0  0  0  0  0  0  0  0  0  0  0
    3.8668    0.4075   -0.1553 H   0  0  0  0  0  0  0  0  0  0  0  0
    2.7001   -1.4919   -1.3588 H   0  0  0  0  0  0  0  0  0  0  0  0
    1.0167   -1.6683   -0.7816 H   0  0  0  0  0  0  0  0  0  0  0  0
    2.2060   -2.8503   -0.2078 H   0  0  0  0  0  0  0  0  0  0  0  0
  1  2  1  0
  2  3  1  0
  2  4  1  0
  4  5  3  0
  5  6  1  0
  6  7  1  0
  7  8  1  0
  7  9  1  0
  1 10  1  0
  1 11  1  0
  1 12  1  0
  2 13  1  0
  3 14  1  0
  3 15  1  0
  3 16  1  0
  6 17  1  0
  6 18  1  0
  7 19  1  0
  8 20  1  0
  8 21  1  0
  8 22  1  0
  9 23  1  0
  9 24  1  0
  9 25  1  0
M  END
