
     RDKit          3D

 25 26  0  0  0  0  0  0  0  0999 V2000
    1.5980    1.4088    0.6464 C   0  0  0  0  0  0  0  0  0  0  0  0
    1.3650   -0.0297    0.3561 C   0  0  0  0  0  0  0  0  0  0  0  0
    2.2606   -0.4110   -0.8288 C   0  0  0  0  0  0  0  0  0  0  0  0
   -0.0452   -0.3489   -0.0589 C   0  0  0  0  0  0  0  0  0  0  0  0
   -0.4163   -1.7333   -0.3762 C   0  0  0  0  0  0  0  0  0  0  0  0
   -0.8174   -1.2388    0.9476 C   0  0  0  0  0  0  0  0  0  0  0  0
   -1.7186   -0.0859    1.1690 C   0  0  0  0  0  0  0  0  0  0  0  0
   -1.1184    0.6755   -0.0129 C   0  0  0  0  0  0  0  0  0  0  0  0
   -2.1290    0.6258   -1.1600 C   0  0  0  0  0  0  0  0  0  0  0  0
    0.8573    1.8850    1.3018 H   0  0  0  0  0  0  0  0  0  0  0  0
    1.7400    1.9979   -0.2792 H   0  0  0  0  0  0  0  0  0  0  0  0
    2.5802    1.4835    1.1967 H   0  0  0  0  0  0  0  0  0  0  0  0
    1.6796   -0.6939    1.1898 H   0  0  0  0  0  0  0  0  0  0  0  0
    2.5767   -1.4657   -0.7672 H   0  0  0  0  0  0  0  0  0  0  0  0
    1.7427   -0.1997   -1.7904 H   0  0  0  0  0  0  0  0  0  0  0  0
    3.1771    0.2193   -0.8372 H   0  0  0  0  0  0  0  0  0  0  0  0
    0.4118   -2.4723   -0.3886 H   0  0  0  0  0  0  0  0  0  0  0  0
   -1.1287   -1.8800   -1.2122 H   0  0  0  0  0  0  0  0  0  0  0  0
   -0.2616   -1.5879    1.8356 H   0  0  0  0  0  0  0  0  0  0  0  0
   -1.4743    0.4944    2.1028 H   0  0  0  0  0  0  0  0  0  0  0  0
   -2.7930   -0.2374    1.1193 H   0  0  0  0  0  0  0  0  0  0  0  0
   -0.8484    1.7105    0.1970 H   0  0  0  0  0  0  0  0  0  0  0  0
   -2.9994    1.2483   -0.8111 H   0  0  0  0  0  0  0  0  0  0  0  0
   -1.7057    1.0372   -2.0942 H   0  0  0  0  0  0  0  0  0  0  0  0
   -2.5330   -0.4017   -1.2797 H   0  0  0  0  0  0  0  0  0  0  0  0
  1  2  1  0
  2  3  1  0
  2  4  1  0
  4  5  1  0
  5  6  1  0
  6  7  1  0
  7  8  1  0
  8  9  1  0
  6  4  1  0
  8  4  1  0
  1 10  1  0
  1 11  1  0
  1 12  1  0
  2 13  1  0
  3 14  1  0
  3 15  1  0
  3 16  1  0
  5 17  1  0
  5 18  1  0
  6 19  1  0
  7 20  1  0
  7 21  1  0
  8 22  1  0
  9 23  1  0
  9 24  1  0
  9 25  1  0
M  END
