
     RDKit          3D

 27 27  0  0  0  0  0  0  0  0999 V2000
   -1.2594    1.5945    0.3799 C   0  0  0  0  0  0  0  0  0  0  0  0
   -1.1751    0.0896    0.4301 C   0  0  0  0  0  0  0  0  0  0  0  0
   -2.6165   -0.4000    0.5447 C   0  0  0  0  0  0  0  0  0  0  0  0
   -0.5174   -0.5027   -0.7653 C   0  0  0  0  0  0  0  0  0  0  0  0
   -0.4766   -2.0362   -0.6623 C   0  0  0  0  0  0  0  0  0  0  0  0
    0.8243   -0.0061   -1.1367 C   0  0  0  0  0  0  0  0  0  0  0  0
    1.9359   -0.1691   -0.1743 C   0  0  0  0  0  0  0  0  0  0  0  0
    1.9802    0.4078    1.1594 C   0  0  0  0  0  0  0  0  0  0  0  0
    2.8224    1.0137    0.0761 C   0  0  0  0  0  0  0  0  0  0  0  0
   -0.6245    2.0431   -0.3964 H   0  0  0  0  0  0  0  0  0  0  0  0
   -0.9755    2.0004    1.3920 H   0  0  0  0  0  0  0  0  0  0  0  0
   -2.3128    1.9701    0.2338 H   0  0  0  0  0  0  0  0  0  0  0  0
   -0.6637   -0.2641    1.3470 H   0  0  0  0  0  0  0  0  0  0  0  0
   -3.3094    0.3287    0.0511 H   0  0  0  0  0  0  0  0  0  0  0  0
   -2.7728   -1.3690    0.0761 H   0  0  0  0  0  0  0  0  0  0  0  0
   -2.9165   -0.4386    1.6019 H   0  0  0  0  0  0  0  0  0  0  0  0
   -1.1915   -0.3080   -1.6441 H   0  0  0  0  0  0  0  0  0  0  0  0
   -1.4305   -2.4652   -1.0336 H   0  0  0  0  0  0  0  0  0  0  0  0
    0.3214   -2.4146   -1.3335 H   0  0  0  0  0  0  0  0  0  0  0  0
   -0.3046   -2.2787    0.3989 H   0  0  0  0  0  0  0  0  0  0  0  0
    1.1147   -0.5614   -2.0866 H   0  0  0  0  0  0  0  0  0  0  0  0
    0.7638    1.0546   -1.4954 H   0  0  0  0  0  0  0  0  0  0  0  0
    2.5552   -1.1095   -0.3327 H   0  0  0  0  0  0  0  0  0  0  0  0
    2.5243   -0.1804    1.9464 H   0  0  0  0  0  0  0  0  0  0  0  0
    1.2394    1.0954    1.5756 H   0  0  0  0  0  0  0  0  0  0  0  0
    2.5456    2.0069   -0.3385 H   0  0  0  0  0  0  0  0  0  0  0  0
    3.9194    0.8987    0.1865 H   0  0  0  0  0  0  0  0  0  0  0  0
  1  2  1  0
  2  3  1  0
  2  4  1  0
  4  5  1  0
  4  6  1  0
  6  7  1  0
  7  8  1  0
  8  9  1  0
  9  7  1  0
  1 10  1  0
  1 11  1  0
  1 12  1  0
  2 13  1  0
  3 14  1  0
  3 15  1  0
  3 16  1  0
  4 17  1  0
  5 18  1  0
  5 19  1  0
  5 20  1  0
  6 21  1  0
  6 22  1  0
  7 23  1  0
  8 24  1  0
  8 25  1  0
  9 26  1  0
  9 27  1  0
M  END
