
     RDKit          3D

 21 21  0  0  0  0  0  0  0  0999 V2000
   -1.5657   -1.3928   -0.2965 C   0  0  0  0  0  0  0  0  0  0  0  0
   -1.1133   -0.1774    0.4353 C   0  0  0  0  0  0  0  0  0  0  0  0
   -1.5078    1.0795   -0.3015 C   0  0  0  0  0  0  0  0  0  0  0  0
    0.3476   -0.1527    0.7566 C   0  0  0  0  0  0  0  0  0  0  0  0
    0.6778    1.1141    1.4895 C   0  0  0  0  0  0  0  0  0  0  0  0
    0.1724    1.8309    2.3884 O   0  0  0  0  0  0  0  0  0  0  0  0
    1.8391    1.2211    0.7584 O   0  0  0  0  0  0  0  0  0  0  0  0
    1.2618    0.4151   -0.2793 C   0  0  0  0  0  0  0  0  0  0  0  0
    2.3293   -0.5260   -0.7983 C   0  0  0  0  0  0  0  0  0  0  0  0
   -1.7248   -2.2555    0.4080 H   0  0  0  0  0  0  0  0  0  0  0  0
   -2.6027   -1.1722   -0.6877 H   0  0  0  0  0  0  0  0  0  0  0  0
   -0.9651   -1.6716   -1.1607 H   0  0  0  0  0  0  0  0  0  0  0  0
   -1.6693   -0.1550    1.4086 H   0  0  0  0  0  0  0  0  0  0  0  0
   -1.5405    0.8246   -1.3797 H   0  0  0  0  0  0  0  0  0  0  0  0
   -0.8139    1.9005   -0.0931 H   0  0  0  0  0  0  0  0  0  0  0  0
   -2.5369    1.3802   -0.0063 H   0  0  0  0  0  0  0  0  0  0  0  0
    0.7537   -1.0519    1.2131 H   0  0  0  0  0  0  0  0  0  0  0  0
    0.8286    1.0640   -1.0433 H   0  0  0  0  0  0  0  0  0  0  0  0
    3.0572   -0.8152   -0.0070 H   0  0  0  0  0  0  0  0  0  0  0  0
    2.8680    0.0086   -1.6161 H   0  0  0  0  0  0  0  0  0  0  0  0
    1.9045   -1.4681   -1.1885 H   0  0  0  0  0  0  0  0  0  0  0  0
  1  2  1  0
  2  3  1  0
  2  4  1  0
  4  5  1  0
  5  6  2  0
  5  7  1  0
  7  8  1  0
  8  9  1  0
  8  4  1  0
  1 10  1  0
  1 11  1  0
  1 12  1  0
  2 13  1  0
  3 14  1  0
  3 15  1  0
  3 16  1  0
  4 17  1  0
  8 18  1  0
  9 19  1  0
  9 20  1  0
  9 21  1  0
M  END
