
     RDKit          3D

 23 23  0  0  0  0  0  0  0  0999 V2000
   -1.9629   -0.9847   -0.4032 C   0  0  0  0  0  0  0  0  0  0  0  0
   -0.8888   -0.0945    0.1621 C   0  0  0  0  0  0  0  0  0  0  0  0
   -1.3670    1.3542    0.0002 C   0  0  0  0  0  0  0  0  0  0  0  0
   -2.5428    1.4614    0.7026 O   0  0  0  0  0  0  0  0  0  0  0  0
    0.4136   -0.2026   -0.5680 C   0  0  0  0  0  0  0  0  0  0  0  0
    1.3860    0.7475    0.1157 C   0  0  0  0  0  0  0  0  0  0  0  0
    2.6236   -0.1168    0.2156 C   0  0  0  0  0  0  0  0  0  0  0  0
    2.0856   -1.3637    0.5193 O   0  0  0  0  0  0  0  0  0  0  0  0
    1.0841   -1.5323   -0.4312 C   0  0  0  0  0  0  0  0  0  0  0  0
   -2.0086   -0.9842   -1.4949 H   0  0  0  0  0  0  0  0  0  0  0  0
   -2.9395   -0.6355   -0.0075 H   0  0  0  0  0  0  0  0  0  0  0  0
   -1.7883   -2.0085   -0.0085 H   0  0  0  0  0  0  0  0  0  0  0  0
   -0.7284   -0.3473    1.2200 H   0  0  0  0  0  0  0  0  0  0  0  0
   -1.4820    1.5002   -1.0945 H   0  0  0  0  0  0  0  0  0  0  0  0
   -0.5520    2.0023    0.3658 H   0  0  0  0  0  0  0  0  0  0  0  0
   -2.6517    2.3963    0.9804 H   0  0  0  0  0  0  0  0  0  0  0  0
    0.3025    0.1209   -1.6342 H   0  0  0  0  0  0  0  0  0  0  0  0
    1.0710    0.9683    1.1650 H   0  0  0  0  0  0  0  0  0  0  0  0
    1.5526    1.6703   -0.4501 H   0  0  0  0  0  0  0  0  0  0  0  0
    3.1400   -0.1029   -0.7693 H   0  0  0  0  0  0  0  0  0  0  0  0
    3.2742    0.2725    1.0122 H   0  0  0  0  0  0  0  0  0  0  0  0
    1.5691   -1.7517   -1.4270 H   0  0  0  0  0  0  0  0  0  0  0  0
    0.4098   -2.3692   -0.2224 H   0  0  0  0  0  0  0  0  0  0  0  0
  1  2  1  0
  2  3  1  0
  3  4  1  0
  2  5  1  0
  5  6  1  0
  6  7  1  0
  7  8  1  0
  8  9  1  0
  9  5  1  0
  1 10  1  0
  1 11  1  0
  1 12  1  0
  2 13  1  0
  3 14  1  0
  3 15  1  0
  4 16  1  0
  5 17  1  0
  6 18  1  0
  6 19  1  0
  7 20  1  0
  7 21  1  0
  9 22  1  0
  9 23  1  0
M  END
