
     RDKit          3D

 27 26  0  0  0  0  0  0  0  0999 V2000
    2.7444   -1.1821    1.0135 C   0  0  0  0  0  0  0  0  0  0  0  0
    2.0008    0.0417    0.5215 C   0  0  0  0  0  0  0  0  0  0  0  0
    2.8727    0.7485   -0.4814 C   0  0  0  0  0  0  0  0  0  0  0  0
    0.7705   -0.2784   -0.0457 O   0  0  0  0  0  0  0  0  0  0  0  0
   -0.2473    0.3709    0.6517 C   0  0  0  0  0  0  0  0  0  0  0  0
   -1.6043    0.0820    0.1083 C   0  0  0  0  0  0  0  0  0  0  0  0
   -1.9051   -1.4159    0.1727 C   0  0  0  0  0  0  0  0  0  0  0  0
   -1.7835    0.4970   -1.3244 C   0  0  0  0  0  0  0  0  0  0  0  0
   -2.6114    0.8632    0.9332 C   0  0  0  0  0  0  0  0  0  0  0  0
    2.3930   -2.0451    0.4195 H   0  0  0  0  0  0  0  0  0  0  0  0
    3.8391   -1.0938    0.8080 H   0  0  0  0  0  0  0  0  0  0  0  0
    2.6372   -1.3349    2.1034 H   0  0  0  0  0  0  0  0  0  0  0  0
    1.8826    0.7358    1.3920 H   0  0  0  0  0  0  0  0  0  0  0  0
    3.4298    1.6060   -0.0023 H   0  0  0  0  0  0  0  0  0  0  0  0
    2.3224    1.1336   -1.3485 H   0  0  0  0  0  0  0  0  0  0  0  0
    3.6648    0.0735   -0.8679 H   0  0  0  0  0  0  0  0  0  0  0  0
   -0.0988    1.4614    0.7052 H   0  0  0  0  0  0  0  0  0  0  0  0
   -0.2062   -0.0118    1.6923 H   0  0  0  0  0  0  0  0  0  0  0  0
   -1.6633   -1.8093    1.1564 H   0  0  0  0  0  0  0  0  0  0  0  0
   -1.3422   -1.8752   -0.6661 H   0  0  0  0  0  0  0  0  0  0  0  0
   -2.9877   -1.5481   -0.0679 H   0  0  0  0  0  0  0  0  0  0  0  0
   -1.0356    0.0256   -1.9875 H   0  0  0  0  0  0  0  0  0  0  0  0
   -2.7811    0.0887   -1.6566 H   0  0  0  0  0  0  0  0  0  0  0  0
   -1.7267    1.5941   -1.4629 H   0  0  0  0  0  0  0  0  0  0  0  0
   -2.1708    1.1297    1.9157 H   0  0  0  0  0  0  0  0  0  0  0  0
   -3.5487    0.3003    1.1008 H   0  0  0  0  0  0  0  0  0  0  0  0
   -2.8447    1.8429    0.4371 H   0  0  0  0  0  0  0  0  0  0  0  0
  1  2  1  0
  2  3  1  0
  2  4  1  0
  4  5  1  0
  5  6  1  0
  6  7  1  0
  6  8  1  0
  6  9  1  0
  1 10  1  0
  1 11  1  0
  1 12  1  0
  2 13  1  0
  3 14  1  0
  3 15  1  0
  3 16  1  0
  5 17  1  0
  5 18  1  0
  7 19  1  0
  7 20  1  0
  7 21  1  0
  8 22  1  0
  8 23  1  0
  8 24  1  0
  9 25  1  0
  9 26  1  0
  9 27  1  0
M  END
