
     RDKit          3D

 25 25  0  0  0  0  0  0  0  0999 V2000
    1.7975    1.2730    0.2802 C   0  0  0  0  0  0  0  0  0  0  0  0
    1.1985    0.0876   -0.3849 C   0  0  0  0  0  0  0  0  0  0  0  0
    1.7810   -1.2217    0.1064 C   0  0  0  0  0  0  0  0  0  0  0  0
   -0.3071    0.0646   -0.3671 C   0  0  0  0  0  0  0  0  0  0  0  0
   -0.9240    1.2599   -1.0634 C   0  0  0  0  0  0  0  0  0  0  0  0
   -0.9083   -1.2721   -0.7524 C   0  0  0  0  0  0  0  0  0  0  0  0
   -2.0084   -0.9658    0.2691 C   0  0  0  0  0  0  0  0  0  0  0  0
   -0.9433   -0.1201    0.9835 C   0  0  0  0  0  0  0  0  0  0  0  0
   -1.5064    1.0176    1.5106 O   0  0  0  0  0  0  0  0  0  0  0  0
    1.1991    1.7158    1.0872 H   0  0  0  0  0  0  0  0  0  0  0  0
    2.0324    2.1068   -0.4274 H   0  0  0  0  0  0  0  0  0  0  0  0
    2.8024    0.9571    0.6876 H   0  0  0  0  0  0  0  0  0  0  0  0
    1.4868    0.1421   -1.4778 H   0  0  0  0  0  0  0  0  0  0  0  0
    2.8845   -1.0243    0.2430 H   0  0  0  0  0  0  0  0  0  0  0  0
    1.7089   -1.9663   -0.7112 H   0  0  0  0  0  0  0  0  0  0  0  0
    1.3610   -1.5551    1.0607 H   0  0  0  0  0  0  0  0  0  0  0  0
   -0.9329    1.1554   -2.1616 H   0  0  0  0  0  0  0  0  0  0  0  0
   -0.2588    2.1286   -0.8367 H   0  0  0  0  0  0  0  0  0  0  0  0
   -1.9190    1.5121   -0.6466 H   0  0  0  0  0  0  0  0  0  0  0  0
   -1.2621   -1.3336   -1.7900 H   0  0  0  0  0  0  0  0  0  0  0  0
   -0.3028   -2.1062   -0.4038 H   0  0  0  0  0  0  0  0  0  0  0  0
   -2.8007   -0.3901   -0.2067 H   0  0  0  0  0  0  0  0  0  0  0  0
   -2.3619   -1.8232    0.8358 H   0  0  0  0  0  0  0  0  0  0  0  0
   -0.4152   -0.7743    1.6928 H   0  0  0  0  0  0  0  0  0  0  0  0
   -1.4012    1.1324    2.4725 H   0  0  0  0  0  0  0  0  0  0  0  0
  1  2  1  0
  2  3  1  0
  2  4  1  0
  4  5  1  0
  4  6  1  0
  6  7  1  0
  7  8  1  0
  8  9  1  0
  8  4  1  0
  1 10  1  0
  1 11  1  0
  1 12  1  0
  2 13  1  0
  3 14  1  0
  3 15  1  0
  3 16  1  0
  5 17  1  0
  5 18  1  0
  5 19  1  0
  6 20  1  0
  6 21  1  0
  7 22  1  0
  7 23  1  0
  8 24  1  0
  9 25  1  0
M  END
