
     RDKit          3D

 19 18  0  0  0  0  0  0  0  0999 V2000
   -1.7012    1.4917    0.3829 C   0  0  0  0  0  0  0  0  0  0  0  0
   -0.8785    0.2446    0.0597 C   0  0  0  0  0  0  0  0  0  0  0  0
   -1.7669   -0.8728   -0.2966 C   0  0  0  0  0  0  0  0  0  0  0  0
   -2.2461   -1.6239    0.5262 O   0  0  0  0  0  0  0  0  0  0  0  0
   -0.0489   -0.0424    1.2970 C   0  0  0  0  0  0  0  0  0  0  0  0
    0.7505   -1.1431    1.1619 O   0  0  0  0  0  0  0  0  0  0  0  0
    1.6729   -1.1139    0.1461 C   0  0  0  0  0  0  0  0  0  0  0  0
    2.6856   -0.0444    0.2387 C   0  0  0  0  0  0  0  0  0  0  0  0
    2.7999    0.7812    1.1140 O   0  0  0  0  0  0  0  0  0  0  0  0
   -2.6189    1.5233   -0.2411 H   0  0  0  0  0  0  0  0  0  0  0  0
   -1.1013    2.3888    0.1607 H   0  0  0  0  0  0  0  0  0  0  0  0
   -1.9493    1.4466    1.4640 H   0  0  0  0  0  0  0  0  0  0  0  0
   -0.1636    0.5128   -0.7430 H   0  0  0  0  0  0  0  0  0  0  0  0
   -2.0159   -1.0494   -1.3299 H   0  0  0  0  0  0  0  0  0  0  0  0
   -0.7358   -0.1359    2.1935 H   0  0  0  0  0  0  0  0  0  0  0  0
    0.5606    0.8433    1.5407 H   0  0  0  0  0  0  0  0  0  0  0  0
    2.1624   -2.1360    0.1376 H   0  0  0  0  0  0  0  0  0  0  0  0
    1.1691   -1.0901   -0.8679 H   0  0  0  0  0  0  0  0  0  0  0  0
    3.4254    0.0197   -0.5734 H   0  0  0  0  0  0  0  0  0  0  0  0
  1  2  1  0
  2  3  1  0
  3  4  2  0
  2  5  1  0
  5  6  1  0
  6  7  1  0
  7  8  1  0
  8  9  2  0
  1 10  1  0
  1 11  1  0
  1 12  1  0
  2 13  1  0
  3 14  1  0
  5 15  1  0
  5 16  1  0
  7 17  1  0
  7 18  1  0
  8 19  1  0
M  END
