
     RDKit          3D

 21 21  0  0  0  0  0  0  0  0999 V2000
   -2.3744    1.1150   -0.2787 C   0  0  0  0  0  0  0  0  0  0  0  0
   -1.3006    0.1969   -0.8656 C   0  0  0  0  0  0  0  0  0  0  0  0
   -1.6226   -1.1972   -0.3602 C   0  0  0  0  0  0  0  0  0  0  0  0
    0.0098    0.7073   -0.2930 C   0  0  0  0  0  0  0  0  0  0  0  0
    1.1958   -0.0555   -0.7426 C   0  0  0  0  0  0  0  0  0  0  0  0
    1.3714   -1.3877   -0.5171 O   0  0  0  0  0  0  0  0  0  0  0  0
    2.0603   -0.5974    0.3942 C   0  0  0  0  0  0  0  0  0  0  0  0
    3.4914   -0.3289    0.2155 C   0  0  0  0  0  0  0  0  0  0  0  0
    4.0589   -0.3817   -0.8666 O   0  0  0  0  0  0  0  0  0  0  0  0
   -3.3783    0.6987   -0.3883 H   0  0  0  0  0  0  0  0  0  0  0  0
   -2.2341    2.0936   -0.7794 H   0  0  0  0  0  0  0  0  0  0  0  0
   -2.1017    1.2593    0.7876 H   0  0  0  0  0  0  0  0  0  0  0  0
   -1.3156    0.2224   -1.9660 H   0  0  0  0  0  0  0  0  0  0  0  0
   -1.6897   -1.1649    0.7419 H   0  0  0  0  0  0  0  0  0  0  0  0
   -2.6462   -1.4314   -0.7339 H   0  0  0  0  0  0  0  0  0  0  0  0
   -0.9536   -1.9613   -0.7570 H   0  0  0  0  0  0  0  0  0  0  0  0
   -0.1123    0.6912    0.8095 H   0  0  0  0  0  0  0  0  0  0  0  0
    0.0833    1.7689   -0.5856 H   0  0  0  0  0  0  0  0  0  0  0  0
    1.6945    0.3366   -1.6485 H   0  0  0  0  0  0  0  0  0  0  0  0
    1.6714   -0.5157    1.4248 H   0  0  0  0  0  0  0  0  0  0  0  0
    4.0921   -0.0683    1.0802 H   0  0  0  0  0  0  0  0  0  0  0  0
  1  2  1  0
  2  3  1  0
  2  4  1  0
  4  5  1  0
  5  6  1  0
  6  7  1  0
  7  8  1  0
  8  9  2  0
  7  5  1  0
  1 10  1  0
  1 11  1  0
  1 12  1  0
  2 13  1  0
  3 14  1  0
  3 15  1  0
  3 16  1  0
  4 17  1  0
  4 18  1  0
  5 19  1  0
  7 20  1  0
  8 21  1  0
M  END
