
     RDKit          3D

 13 12  0  0  0  0  0  0  0  0999 V2000
   -0.9745   -1.1791    0.1200 C   0  0  0  0  0  0  0  0  0  0  0  0
   -0.2177    0.1029   -0.2304 C   0  0  0  0  0  0  0  0  0  0  0  0
   -1.0674    1.2319    0.2420 C   0  0  0  0  0  0  0  0  0  0  0  0
   -2.1791    1.4550   -0.2202 O   0  0  0  0  0  0  0  0  0  0  0  0
    0.9910    0.1319    0.5060 O   0  0  0  0  0  0  0  0  0  0  0  0
    2.2380    0.2000   -0.0627 C   0  0  0  0  0  0  0  0  0  0  0  0
    2.3141    0.2393   -1.3163 O   0  0  0  0  0  0  0  0  0  0  0  0
   -0.6427   -1.4764    1.1360 H   0  0  0  0  0  0  0  0  0  0  0  0
   -2.0725   -0.9929    0.0953 H   0  0  0  0  0  0  0  0  0  0  0  0
   -0.7485   -1.9939   -0.5887 H   0  0  0  0  0  0  0  0  0  0  0  0
   -0.0078    0.1427   -1.3116 H   0  0  0  0  0  0  0  0  0  0  0  0
   -0.7299    1.9218    1.0348 H   0  0  0  0  0  0  0  0  0  0  0  0
    3.0970    0.2167    0.5959 H   0  0  0  0  0  0  0  0  0  0  0  0
  1  2  1  0
  2  3  1  0
  3  4  2  0
  2  5  1  0
  5  6  1  0
  6  7  2  0
  1  8  1  0
  1  9  1  0
  1 10  1  0
  2 11  1  0
  3 12  1  0
  6 13  1  0
M  END
