
     RDKit          3D

 25 25  0  0  0  0  0  0  0  0999 V2000
   -1.0345   -1.4367    0.9928 C   0  0  0  0  0  0  0  0  0  0  0  0
   -1.0588   -0.0494    0.4818 C   0  0  0  0  0  0  0  0  0  0  0  0
   -2.1166    0.1142   -0.5871 C   0  0  0  0  0  0  0  0  0  0  0  0
    0.2454    0.4693   -0.0297 C   0  0  0  0  0  0  0  0  0  0  0  0
    0.0066    1.9018   -0.5056 C   0  0  0  0  0  0  0  0  0  0  0  0
    0.8016   -0.3286   -1.1694 C   0  0  0  0  0  0  0  0  0  0  0  0
    1.9169   -1.0871   -0.5697 C   0  0  0  0  0  0  0  0  0  0  0  0
    2.2120   -0.6176    0.6193 C   0  0  0  0  0  0  0  0  0  0  0  0
    1.3433    0.5042    0.9685 C   0  0  0  0  0  0  0  0  0  0  0  0
   -0.1055   -1.7714    1.4518 H   0  0  0  0  0  0  0  0  0  0  0  0
   -1.8357   -1.5239    1.7842 H   0  0  0  0  0  0  0  0  0  0  0  0
   -1.3177   -2.2129    0.2329 H   0  0  0  0  0  0  0  0  0  0  0  0
   -1.3697    0.6400    1.3199 H   0  0  0  0  0  0  0  0  0  0  0  0
   -2.9315   -0.6457   -0.4565 H   0  0  0  0  0  0  0  0  0  0  0  0
   -1.7243   -0.0497   -1.6111 H   0  0  0  0  0  0  0  0  0  0  0  0
   -2.5592    1.1305   -0.5876 H   0  0  0  0  0  0  0  0  0  0  0  0
   -0.7760    1.8539   -1.2755 H   0  0  0  0  0  0  0  0  0  0  0  0
   -0.3642    2.4696    0.3575 H   0  0  0  0  0  0  0  0  0  0  0  0
    0.9680    2.3403   -0.8933 H   0  0  0  0  0  0  0  0  0  0  0  0
    0.0623   -1.0323   -1.6212 H   0  0  0  0  0  0  0  0  0  0  0  0
    1.2327    0.3482   -1.9585 H   0  0  0  0  0  0  0  0  0  0  0  0
    2.4115   -1.9366   -1.0925 H   0  0  0  0  0  0  0  0  0  0  0  0
    3.0249   -1.0336    1.2669 H   0  0  0  0  0  0  0  0  0  0  0  0
    1.0079    0.5080    2.0215 H   0  0  0  0  0  0  0  0  0  0  0  0
    1.9609    1.4452    0.8606 H   0  0  0  0  0  0  0  0  0  0  0  0
  1  2  1  0
  2  3  1  0
  2  4  1  0
  4  5  1  0
  4  6  1  0
  6  7  1  0
  7  8  2  0
  8  9  1  0
  9  4  1  0
  1 10  1  0
  1 11  1  0
  1 12  1  0
  2 13  1  0
  3 14  1  0
  3 15  1  0
  3 16  1  0
  5 17  1  0
  5 18  1  0
  5 19  1  0
  6 20  1  0
  6 21  1  0
  7 22  1  0
  8 23  1  0
  9 24  1  0
  9 25  1  0
M  END
