
     RDKit          3D

 25 25  0  0  0  0  0  0  0  0999 V2000
    3.0185    0.8493   -0.6243 C   0  0  0  0  0  0  0  0  0  0  0  0
    2.0265   -0.2245   -0.1751 C   0  0  0  0  0  0  0  0  0  0  0  0
    2.5372   -0.7457    1.1579 C   0  0  0  0  0  0  0  0  0  0  0  0
    0.7852    0.3251    0.0136 O   0  0  0  0  0  0  0  0  0  0  0  0
   -0.2041   -0.2841   -0.7797 C   0  0  0  0  0  0  0  0  0  0  0  0
   -1.4957    0.4161   -0.4677 C   0  0  0  0  0  0  0  0  0  0  0  0
   -1.8826    0.3025    0.9994 C   0  0  0  0  0  0  0  0  0  0  0  0
   -3.3347    0.2582    0.4994 C   0  0  0  0  0  0  0  0  0  0  0  0
   -2.7504   -0.4229   -0.7469 C   0  0  0  0  0  0  0  0  0  0  0  0
    3.9166    0.8757    0.0072 H   0  0  0  0  0  0  0  0  0  0  0  0
    2.5572    1.8483   -0.6152 H   0  0  0  0  0  0  0  0  0  0  0  0
    3.3640    0.6509   -1.6698 H   0  0  0  0  0  0  0  0  0  0  0  0
    2.0077   -1.0548   -0.9279 H   0  0  0  0  0  0  0  0  0  0  0  0
    3.6470   -0.8117    1.0840 H   0  0  0  0  0  0  0  0  0  0  0  0
    2.2176   -0.0078    1.9304 H   0  0  0  0  0  0  0  0  0  0  0  0
    2.0724   -1.7132    1.4347 H   0  0  0  0  0  0  0  0  0  0  0  0
    0.0527   -0.1413   -1.8369 H   0  0  0  0  0  0  0  0  0  0  0  0
   -0.3140   -1.3628   -0.5416 H   0  0  0  0  0  0  0  0  0  0  0  0
   -1.5962    1.4378   -0.8661 H   0  0  0  0  0  0  0  0  0  0  0  0
   -1.6193    1.1849    1.5750 H   0  0  0  0  0  0  0  0  0  0  0  0
   -1.5271   -0.6794    1.3949 H   0  0  0  0  0  0  0  0  0  0  0  0
   -4.0043   -0.3643    1.0885 H   0  0  0  0  0  0  0  0  0  0  0  0
   -3.6614    1.2985    0.2819 H   0  0  0  0  0  0  0  0  0  0  0  0
   -2.5223   -1.4776   -0.5622 H   0  0  0  0  0  0  0  0  0  0  0  0
   -3.2906   -0.1571   -1.6534 H   0  0  0  0  0  0  0  0  0  0  0  0
  1  2  1  0
  2  3  1  0
  2  4  1  0
  4  5  1  0
  5  6  1  0
  6  7  1  0
  7  8  1  0
  8  9  1  0
  9  6  1  0
  1 10  1  0
  1 11  1  0
  1 12  1  0
  2 13  1  0
  3 14  1  0
  3 15  1  0
  3 16  1  0
  5 17  1  0
  5 18  1  0
  6 19  1  0
  7 20  1  0
  7 21  1  0
  8 22  1  0
  8 23  1  0
  9 24  1  0
  9 25  1  0
M  END
