
     RDKit          3D

 23 23  0  0  0  0  0  0  0  0999 V2000
   -1.1033    1.7638   -0.1217 C   0  0  0  0  0  0  0  0  0  0  0  0
   -0.9970    0.4466    0.5710 C   0  0  0  0  0  0  0  0  0  0  0  0
   -2.1707   -0.4232    0.1052 C   0  0  0  0  0  0  0  0  0  0  0  0
   -2.1095   -1.6505    0.7226 O   0  0  0  0  0  0  0  0  0  0  0  0
    0.2554   -0.3038    0.2704 C   0  0  0  0  0  0  0  0  0  0  0  0
    0.3512   -1.5390    0.9222 O   0  0  0  0  0  0  0  0  0  0  0  0
    0.6423   -0.3251   -1.1869 C   0  0  0  0  0  0  0  0  0  0  0  0
    1.5072    0.3707   -0.1387 C   0  0  0  0  0  0  0  0  0  0  0  0
    2.8352   -0.2823    0.0728 C   0  0  0  0  0  0  0  0  0  0  0  0
   -1.1843    1.6937   -1.2145 H   0  0  0  0  0  0  0  0  0  0  0  0
   -0.2979    2.4480    0.2201 H   0  0  0  0  0  0  0  0  0  0  0  0
   -2.0591    2.2411    0.2260 H   0  0  0  0  0  0  0  0  0  0  0  0
   -1.1733    0.6114    1.6615 H   0  0  0  0  0  0  0  0  0  0  0  0
   -2.0881   -0.5206   -0.9836 H   0  0  0  0  0  0  0  0  0  0  0  0
   -3.1356    0.0803    0.3199 H   0  0  0  0  0  0  0  0  0  0  0  0
   -1.9656   -2.3895    0.0553 H   0  0  0  0  0  0  0  0  0  0  0  0
    0.4411   -1.4227    1.8954 H   0  0  0  0  0  0  0  0  0  0  0  0
    0.9966   -1.2824   -1.6156 H   0  0  0  0  0  0  0  0  0  0  0  0
    0.1988    0.3627   -1.9049 H   0  0  0  0  0  0  0  0  0  0  0  0
    1.5229    1.4745   -0.1099 H   0  0  0  0  0  0  0  0  0  0  0  0
    3.3479   -0.3172   -0.9228 H   0  0  0  0  0  0  0  0  0  0  0  0
    2.7025   -1.3300    0.3956 H   0  0  0  0  0  0  0  0  0  0  0  0
    3.4833    0.2934    0.7606 H   0  0  0  0  0  0  0  0  0  0  0  0
  1  2  1  0
  2  3  1  0
  3  4  1  0
  2  5  1  0
  5  6  1  0
  5  7  1  0
  7  8  1  0
  8  9  1  0
  8  5  1  0
  1 10  1  0
  1 11  1  0
  1 12  1  0
  2 13  1  0
  3 14  1  0
  3 15  1  0
  4 16  1  0
  6 17  1  0
  7 18  1  0
  7 19  1  0
  8 20  1  0
  9 21  1  0
  9 22  1  0
  9 23  1  0
M  END
