
     RDKit          3D

 23 24  0  0  0  0  0  0  0  0999 V2000
    1.8701    0.4409   -1.0195 C   0  0  0  0  0  0  0  0  0  0  0  0
    1.0266   -0.3735   -0.0671 C   0  0  0  0  0  0  0  0  0  0  0  0
    1.7368   -0.4299    1.2627 C   0  0  0  0  0  0  0  0  0  0  0  0
   -0.3552    0.0194   -0.0199 C   0  0  0  0  0  0  0  0  0  0  0  0
   -0.8285    1.3616    0.3708 C   0  0  0  0  0  0  0  0  0  0  0  0
   -2.2326    1.1905    0.2244 O   0  0  0  0  0  0  0  0  0  0  0  0
   -2.3419   -0.1073   -0.2073 C   0  0  0  0  0  0  0  0  0  0  0  0
   -1.3623   -0.8743    0.7019 C   0  0  0  0  0  0  0  0  0  0  0  0
   -1.2234   -0.2579   -1.2517 C   0  0  0  0  0  0  0  0  0  0  0  0
    1.2536    1.0572   -1.7108 H   0  0  0  0  0  0  0  0  0  0  0  0
    2.5722    1.0904   -0.4284 H   0  0  0  0  0  0  0  0  0  0  0  0
    2.5228   -0.1819   -1.6654 H   0  0  0  0  0  0  0  0  0  0  0  0
    1.0810   -1.4318   -0.4674 H   0  0  0  0  0  0  0  0  0  0  0  0
    2.8231   -0.5035    1.0563 H   0  0  0  0  0  0  0  0  0  0  0  0
    1.4929    0.4480    1.9025 H   0  0  0  0  0  0  0  0  0  0  0  0
    1.4204   -1.3415    1.8011 H   0  0  0  0  0  0  0  0  0  0  0  0
   -0.6879    1.5398    1.4679 H   0  0  0  0  0  0  0  0  0  0  0  0
   -0.4560    2.2041   -0.2090 H   0  0  0  0  0  0  0  0  0  0  0  0
   -3.2750   -0.5601   -0.4135 H   0  0  0  0  0  0  0  0  0  0  0  0
   -1.2874   -1.9379    0.4880 H   0  0  0  0  0  0  0  0  0  0  0  0
   -1.4468   -0.5534    1.7491 H   0  0  0  0  0  0  0  0  0  0  0  0
   -1.0985   -1.3073   -1.5451 H   0  0  0  0  0  0  0  0  0  0  0  0
   -1.2040    0.5084   -2.0193 H   0  0  0  0  0  0  0  0  0  0  0  0
  1  2  1  0
  2  3  1  0
  2  4  1  0
  4  5  1  0
  5  6  1  0
  6  7  1  0
  7  8  1  0
  7  9  1  0
  8  4  1  0
  9  4  1  0
  1 10  1  0
  1 11  1  0
  1 12  1  0
  2 13  1  0
  3 14  1  0
  3 15  1  0
  3 16  1  0
  5 17  1  0
  5 18  1  0
  7 19  1  0
  8 20  1  0
  8 21  1  0
  9 22  1  0
  9 23  1  0
M  END
