
     RDKit          3D

 19 18  0  0  0  0  0  0  0  0999 V2000
    1.4882   -0.9643   -0.3670 C   0  0  0  0  0  0  0  0  0  0  0  0
    0.5778    0.2439   -0.2902 C   0  0  0  0  0  0  0  0  0  0  0  0
    1.2492    1.3330    0.5051 C   0  0  0  0  0  0  0  0  0  0  0  0
   -0.7633   -0.1466    0.3317 C   0  0  0  0  0  0  0  0  0  0  0  0
   -1.3896   -1.2094   -0.5438 C   0  0  0  0  0  0  0  0  0  0  0  0
   -1.6376    1.0385    0.5070 C   0  0  0  0  0  0  0  0  0  0  0  0
   -2.5463    0.9792    1.3107 O   0  0  0  0  0  0  0  0  0  0  0  0
    1.0911   -1.7122   -1.0490 H   0  0  0  0  0  0  0  0  0  0  0  0
    2.4513   -0.6037   -0.7898 H   0  0  0  0  0  0  0  0  0  0  0  0
    1.6788   -1.3164    0.6620 H   0  0  0  0  0  0  0  0  0  0  0  0
    0.3923    0.5648   -1.3492 H   0  0  0  0  0  0  0  0  0  0  0  0
    0.5091    1.8973    1.0993 H   0  0  0  0  0  0  0  0  0  0  0  0
    1.9722    0.8868    1.2083 H   0  0  0  0  0  0  0  0  0  0  0  0
    1.7229    2.0288   -0.2233 H   0  0  0  0  0  0  0  0  0  0  0  0
   -0.5157   -0.5640    1.3337 H   0  0  0  0  0  0  0  0  0  0  0  0
   -0.8669   -1.3357   -1.5076 H   0  0  0  0  0  0  0  0  0  0  0  0
   -2.4384   -0.8993   -0.8106 H   0  0  0  0  0  0  0  0  0  0  0  0
   -1.4548   -2.1824    0.0103 H   0  0  0  0  0  0  0  0  0  0  0  0
   -1.5204    1.9618   -0.0374 H   0  0  0  0  0  0  0  0  0  0  0  0
  1  2  1  0
  2  3  1  0
  2  4  1  0
  4  5  1  0
  4  6  1  0
  6  7  2  0
  1  8  1  0
  1  9  1  0
  1 10  1  0
  2 11  1  0
  3 12  1  0
  3 13  1  0
  3 14  1  0
  4 15  1  0
  5 16  1  0
  5 17  1  0
  5 18  1  0
  6 19  1  0
M  END
