
     RDKit          3D

 21 21  0  0  0  0  0  0  0  0999 V2000
   -1.6401    1.4086   -0.3066 C   0  0  0  0  0  0  0  0  0  0  0  0
   -0.9464    0.1068    0.0996 C   0  0  0  0  0  0  0  0  0  0  0  0
   -2.0602   -0.9424    0.1911 C   0  0  0  0  0  0  0  0  0  0  0  0
   -0.3507    0.2428    1.3232 O   0  0  0  0  0  0  0  0  0  0  0  0
   -0.0486   -0.2763   -1.0283 C   0  0  0  0  0  0  0  0  0  0  0  0
    0.6528   -1.5071   -0.9274 O   0  0  0  0  0  0  0  0  0  0  0  0
    1.3575   -0.2053   -1.0870 C   0  0  0  0  0  0  0  0  0  0  0  0
    2.3344   -0.0545    0.0174 C   0  0  0  0  0  0  0  0  0  0  0  0
    3.2425   -1.1363   -0.0769 O   0  0  0  0  0  0  0  0  0  0  0  0
   -2.7309    1.3378   -0.2569 H   0  0  0  0  0  0  0  0  0  0  0  0
   -1.3644    1.7336   -1.3151 H   0  0  0  0  0  0  0  0  0  0  0  0
   -1.2905    2.2219    0.3867 H   0  0  0  0  0  0  0  0  0  0  0  0
   -1.6644   -1.9628    0.2311 H   0  0  0  0  0  0  0  0  0  0  0  0
   -2.7575   -0.7091    1.0226 H   0  0  0  0  0  0  0  0  0  0  0  0
   -2.6782   -0.8607   -0.7488 H   0  0  0  0  0  0  0  0  0  0  0  0
   -0.2005    1.1999    1.5035 H   0  0  0  0  0  0  0  0  0  0  0  0
   -0.6084   -0.2537   -2.0131 H   0  0  0  0  0  0  0  0  0  0  0  0
    1.8553   -0.1632   -2.1026 H   0  0  0  0  0  0  0  0  0  0  0  0
    2.9784    0.8534   -0.1444 H   0  0  0  0  0  0  0  0  0  0  0  0
    1.9469    0.0146    1.0237 H   0  0  0  0  0  0  0  0  0  0  0  0
    3.9731   -1.0481    0.5774 H   0  0  0  0  0  0  0  0  0  0  0  0
  1  2  1  0
  2  3  1  0
  2  4  1  0
  2  5  1  0
  5  6  1  0
  6  7  1  0
  7  8  1  0
  8  9  1  0
  7  5  1  0
  1 10  1  0
  1 11  1  0
  1 12  1  0
  3 13  1  0
  3 14  1  0
  3 15  1  0
  4 16  1  0
  5 17  1  0
  7 18  1  0
  8 19  1  0
  8 20  1  0
  9 21  1  0
M  END
