
     RDKit          3D

 15 14  0  0  0  0  0  0  0  0999 V2000
   -1.0069    0.5622   -1.6222 C   0  0  0  0  0  0  0  0  0  0  0  0
   -0.9307    0.3030   -0.1256 C   0  0  0  0  0  0  0  0  0  0  0  0
   -1.4939   -1.0460    0.2207 C   0  0  0  0  0  0  0  0  0  0  0  0
    0.5113    0.3106    0.2553 C   0  0  0  0  0  0  0  0  0  0  0  0
    1.7273    0.3229    0.5599 C   0  0  0  0  0  0  0  0  0  0  0  0
    3.1011    0.3224    0.9243 C   0  0  0  0  0  0  0  0  0  0  0  0
    3.6472    0.4855    1.9682 O   0  0  0  0  0  0  0  0  0  0  0  0
   -1.1481   -0.4430   -2.1207 H   0  0  0  0  0  0  0  0  0  0  0  0
   -0.0125    0.9415   -1.9114 H   0  0  0  0  0  0  0  0  0  0  0  0
   -1.7906    1.2927   -1.9222 H   0  0  0  0  0  0  0  0  0  0  0  0
   -1.4539    1.0882    0.4521 H   0  0  0  0  0  0  0  0  0  0  0  0
   -0.8813   -1.5901    1.0248 H   0  0  0  0  0  0  0  0  0  0  0  0
   -2.5343   -0.9219    0.6262 H   0  0  0  0  0  0  0  0  0  0  0  0
   -1.5520   -1.7551   -0.6056 H   0  0  0  0  0  0  0  0  0  0  0  0
    3.8173    0.1270    0.0318 H   0  0  0  0  0  0  0  0  0  0  0  0
  1  2  1  0
  2  3  1  0
  2  4  1  0
  4  5  3  0
  5  6  1  0
  6  7  2  0
  1  8  1  0
  1  9  1  0
  1 10  1  0
  2 11  1  0
  3 12  1  0
  3 13  1  0
  3 14  1  0
  6 15  1  0
M  END
