
     RDKit          3D

 21 22  0  0  0  0  0  0  0  0999 V2000
   -1.8610   -1.2261    0.2077 C   0  0  0  0  0  0  0  0  0  0  0  0
   -1.0121    0.0071    0.3848 C   0  0  0  0  0  0  0  0  0  0  0  0
   -1.8671    1.1920   -0.0689 C   0  0  0  0  0  0  0  0  0  0  0  0
    0.1668   -0.0941   -0.5474 C   0  0  0  0  0  0  0  0  0  0  0  0
    1.0497   -1.2477   -0.3487 C   0  0  0  0  0  0  0  0  0  0  0  0
    0.8546   -2.4603   -0.5148 O   0  0  0  0  0  0  0  0  0  0  0  0
    2.1574   -0.3790    0.0935 C   0  0  0  0  0  0  0  0  0  0  0  0
    2.5737    0.6803   -0.8771 C   0  0  0  0  0  0  0  0  0  0  0  0
    1.3100    0.8102   -0.1505 C   0  0  0  0  0  0  0  0  0  0  0  0
   -2.9032   -1.0247    0.5251 H   0  0  0  0  0  0  0  0  0  0  0  0
   -1.8339   -1.5195   -0.8657 H   0  0  0  0  0  0  0  0  0  0  0  0
   -1.4518   -2.1026    0.7662 H   0  0  0  0  0  0  0  0  0  0  0  0
   -0.7126    0.1756    1.4215 H   0  0  0  0  0  0  0  0  0  0  0  0
   -2.5422    1.5042    0.7555 H   0  0  0  0  0  0  0  0  0  0  0  0
   -2.5223    0.9007   -0.9231 H   0  0  0  0  0  0  0  0  0  0  0  0
   -1.1577    2.0026   -0.3329 H   0  0  0  0  0  0  0  0  0  0  0  0
   -0.0830    0.0616   -1.6047 H   0  0  0  0  0  0  0  0  0  0  0  0
    2.6813   -0.5548    1.0302 H   0  0  0  0  0  0  0  0  0  0  0  0
    3.3783    1.3972   -0.6222 H   0  0  0  0  0  0  0  0  0  0  0  0
    2.5912    0.3472   -1.9361 H   0  0  0  0  0  0  0  0  0  0  0  0
    1.1839    1.5298    0.6676 H   0  0  0  0  0  0  0  0  0  0  0  0
  1  2  1  0
  2  3  1  0
  2  4  1  0
  4  5  1  0
  5  6  2  0
  5  7  1  0
  7  8  1  0
  8  9  1  0
  9  4  1  0
  9  7  1  0
  1 10  1  0
  1 11  1  0
  1 12  1  0
  2 13  1  0
  3 14  1  0
  3 15  1  0
  3 16  1  0
  4 17  1  0
  7 18  1  0
  8 19  1  0
  8 20  1  0
  9 21  1  0
M  END
