
     RDKit          3D

 21 22  0  0  0  0  0  0  0  0999 V2000
   -0.3571    1.7635    0.5028 C   0  0  0  0  0  0  0  0  0  0  0  0
    0.2432    0.5834   -0.2786 C   0  0  0  0  0  0  0  0  0  0  0  0
    1.5821    0.2890    0.2428 C   0  0  0  0  0  0  0  0  0  0  0  0
    2.5051   -0.7031   -0.1633 C   0  0  0  0  0  0  0  0  0  0  0  0
    2.6247    0.5314   -0.7870 O   0  0  0  0  0  0  0  0  0  0  0  0
   -0.7254   -0.5604   -0.2987 C   0  0  0  0  0  0  0  0  0  0  0  0
   -2.0608   -0.2595   -0.9419 C   0  0  0  0  0  0  0  0  0  0  0  0
   -0.8110   -1.4903    0.8794 C   0  0  0  0  0  0  0  0  0  0  0  0
   -0.3188   -1.8574   -0.3803 O   0  0  0  0  0  0  0  0  0  0  0  0
   -1.4605    1.6924    0.5492 H   0  0  0  0  0  0  0  0  0  0  0  0
    0.0012    2.7184    0.0747 H   0  0  0  0  0  0  0  0  0  0  0  0
    0.0366    1.7493    1.5587 H   0  0  0  0  0  0  0  0  0  0  0  0
    0.3124    0.9657   -1.3164 H   0  0  0  0  0  0  0  0  0  0  0  0
    1.8283    0.8389    1.2008 H   0  0  0  0  0  0  0  0  0  0  0  0
    2.3153   -1.5358   -0.8823 H   0  0  0  0  0  0  0  0  0  0  0  0
    3.3649   -0.9462    0.4946 H   0  0  0  0  0  0  0  0  0  0  0  0
   -2.8777   -0.2462   -0.1742 H   0  0  0  0  0  0  0  0  0  0  0  0
   -2.2831   -1.0057   -1.7098 H   0  0  0  0  0  0  0  0  0  0  0  0
   -2.0687    0.7805   -1.3773 H   0  0  0  0  0  0  0  0  0  0  0  0
   -0.0794   -1.3104    1.6941 H   0  0  0  0  0  0  0  0  0  0  0  0
   -1.7713   -1.9975    1.1125 H   0  0  0  0  0  0  0  0  0  0  0  0
  1  2  1  0
  2  3  1  0
  3  4  1  0
  4  5  1  0
  2  6  1  0
  6  7  1  0
  6  8  1  0
  8  9  1  0
  5  3  1  0
  9  6  1  0
  1 10  1  0
  1 11  1  0
  1 12  1  0
  2 13  1  0
  3 14  1  0
  4 15  1  0
  4 16  1  0
  7 17  1  0
  7 18  1  0
  7 19  1  0
  8 20  1  0
  8 21  1  0
M  END
