
     RDKit          3D

 19 20  0  0  0  0  0  0  0  0999 V2000
   -1.5234    1.0536   -0.7915 C   0  0  0  0  0  0  0  0  0  0  0  0
   -0.8057    0.2711    0.3114 C   0  0  0  0  0  0  0  0  0  0  0  0
   -1.5443   -1.0678    0.4623 C   0  0  0  0  0  0  0  0  0  0  0  0
    0.5256    0.0825    0.0127 C   0  0  0  0  0  0  0  0  0  0  0  0
    1.5453   -0.6318    0.8437 C   0  0  0  0  0  0  0  0  0  0  0  0
    2.1732   -0.2937   -0.4753 C   0  0  0  0  0  0  0  0  0  0  0  0
    0.9962   -0.7090   -1.0605 O   0  0  0  0  0  0  0  0  0  0  0  0
    1.5459    1.0433   -0.3529 C   0  0  0  0  0  0  0  0  0  0  0  0
    1.7964    2.2216   -0.4926 O   0  0  0  0  0  0  0  0  0  0  0  0
   -1.0436    2.0554   -0.8202 H   0  0  0  0  0  0  0  0  0  0  0  0
   -1.2544    0.5447   -1.7389 H   0  0  0  0  0  0  0  0  0  0  0  0
   -2.5933    1.1382   -0.6094 H   0  0  0  0  0  0  0  0  0  0  0  0
   -1.0171    0.8197    1.2512 H   0  0  0  0  0  0  0  0  0  0  0  0
   -0.8120   -1.8692    0.7046 H   0  0  0  0  0  0  0  0  0  0  0  0
   -2.2845   -1.0430    1.2678 H   0  0  0  0  0  0  0  0  0  0  0  0
   -2.0808   -1.3289   -0.4720 H   0  0  0  0  0  0  0  0  0  0  0  0
    1.9307   -0.1062    1.7288 H   0  0  0  0  0  0  0  0  0  0  0  0
    1.3288   -1.6919    0.9991 H   0  0  0  0  0  0  0  0  0  0  0  0
    3.1169   -0.4887   -0.7682 H   0  0  0  0  0  0  0  0  0  0  0  0
  1  2  1  0
  2  3  1  0
  2  4  1  0
  4  5  1  0
  5  6  1  0
  6  7  1  0
  6  8  1  0
  8  9  2  0
  7  4  1  0
  8  4  1  0
  1 10  1  0
  1 11  1  0
  1 12  1  0
  2 13  1  0
  3 14  1  0
  3 15  1  0
  3 16  1  0
  5 17  1  0
  5 18  1  0
  6 19  1  0
M  END
