
     RDKit          3D

 23 22  0  0  0  0  0  0  0  0999 V2000
    1.6135   -0.7601   -1.2199 C   0  0  0  0  0  0  0  0  0  0  0  0
    0.9759    0.2408   -0.2741 C   0  0  0  0  0  0  0  0  0  0  0  0
    1.3948   -0.0831    1.1053 C   0  0  0  0  0  0  0  0  0  0  0  0
    0.8878    0.7620    2.0742 O   0  0  0  0  0  0  0  0  0  0  0  0
   -0.4767    0.3561   -0.5508 C   0  0  0  0  0  0  0  0  0  0  0  0
   -1.2368    1.3090    0.3055 C   0  0  0  0  0  0  0  0  0  0  0  0
   -2.6088    1.3393   -0.0573 O   0  0  0  0  0  0  0  0  0  0  0  0
   -1.2084   -0.9637   -0.5456 C   0  0  0  0  0  0  0  0  0  0  0  0
   -1.0918   -1.5908    0.6960 O   0  0  0  0  0  0  0  0  0  0  0  0
    1.1313   -1.7425   -1.1897 H   0  0  0  0  0  0  0  0  0  0  0  0
    2.6959   -0.8333   -0.9507 H   0  0  0  0  0  0  0  0  0  0  0  0
    1.5642   -0.3702   -2.2469 H   0  0  0  0  0  0  0  0  0  0  0  0
    1.4421    1.2344   -0.5436 H   0  0  0  0  0  0  0  0  0  0  0  0
    1.1913   -1.1244    1.4190 H   0  0  0  0  0  0  0  0  0  0  0  0
    2.5196    0.0102    1.1436 H   0  0  0  0  0  0  0  0  0  0  0  0
    1.5128    0.8047    2.8622 H   0  0  0  0  0  0  0  0  0  0  0  0
   -0.5638    0.7589   -1.6053 H   0  0  0  0  0  0  0  0  0  0  0  0
   -1.2848    0.9803    1.3872 H   0  0  0  0  0  0  0  0  0  0  0  0
   -0.8132    2.3197    0.2152 H   0  0  0  0  0  0  0  0  0  0  0  0
   -2.6236    1.9331   -0.8698 H   0  0  0  0  0  0  0  0  0  0  0  0
   -0.9091   -1.6270   -1.3831 H   0  0  0  0  0  0  0  0  0  0  0  0
   -2.2928   -0.7671   -0.6849 H   0  0  0  0  0  0  0  0  0  0  0  0
   -1.8194   -2.1863    0.9134 H   0  0  0  0  0  0  0  0  0  0  0  0
  1  2  1  0
  2  3  1  0
  3  4  1  0
  2  5  1  0
  5  6  1  0
  6  7  1  0
  5  8  1  0
  8  9  1  0
  1 10  1  0
  1 11  1  0
  1 12  1  0
  2 13  1  0
  3 14  1  0
  3 15  1  0
  4 16  1  0
  5 17  1  0
  6 18  1  0
  6 19  1  0
  7 20  1  0
  8 21  1  0
  8 22  1  0
  9 23  1  0
M  END
