
     RDKit          3D

 23 22  0  0  0  0  0  0  0  0999 V2000
   -0.9077   -1.2140   -1.3146 C   0  0  0  0  0  0  0  0  0  0  0  0
   -0.2703   -0.0966   -0.5157 C   0  0  0  0  0  0  0  0  0  0  0  0
   -1.0098    0.0453    0.7771 C   0  0  0  0  0  0  0  0  0  0  0  0
   -2.4546    0.3762    0.4692 C   0  0  0  0  0  0  0  0  0  0  0  0
   -2.5117    1.5705   -0.2513 O   0  0  0  0  0  0  0  0  0  0  0  0
    1.1879   -0.4269   -0.3363 C   0  0  0  0  0  0  0  0  0  0  0  0
    1.9365    0.6135    0.4473 C   0  0  0  0  0  0  0  0  0  0  0  0
    3.3617    0.1461    0.5388 C   0  0  0  0  0  0  0  0  0  0  0  0
    3.6824   -0.7412    1.3285 O   0  0  0  0  0  0  0  0  0  0  0  0
   -1.0903   -2.0618   -0.5980 H   0  0  0  0  0  0  0  0  0  0  0  0
   -1.8778   -0.8947   -1.7475 H   0  0  0  0  0  0  0  0  0  0  0  0
   -0.1615   -1.4905   -2.0997 H   0  0  0  0  0  0  0  0  0  0  0  0
   -0.3843    0.8614   -1.0763 H   0  0  0  0  0  0  0  0  0  0  0  0
   -0.9926   -0.9349    1.3379 H   0  0  0  0  0  0  0  0  0  0  0  0
   -0.5822    0.8035    1.4503 H   0  0  0  0  0  0  0  0  0  0  0  0
   -3.0437    0.4757    1.4263 H   0  0  0  0  0  0  0  0  0  0  0  0
   -2.9679   -0.4276   -0.0911 H   0  0  0  0  0  0  0  0  0  0  0  0
   -2.4926    2.3704    0.2978 H   0  0  0  0  0  0  0  0  0  0  0  0
    1.6358   -0.4216   -1.3700 H   0  0  0  0  0  0  0  0  0  0  0  0
    1.3314   -1.4380    0.0522 H   0  0  0  0  0  0  0  0  0  0  0  0
    1.5222    0.7694    1.4692 H   0  0  0  0  0  0  0  0  0  0  0  0
    1.9367    1.5546   -0.1197 H   0  0  0  0  0  0  0  0  0  0  0  0
    4.1525    0.5612   -0.0743 H   0  0  0  0  0  0  0  0  0  0  0  0
  1  2  1  0
  2  3  1  0
  3  4  1  0
  4  5  1  0
  2  6  1  0
  6  7  1  0
  7  8  1  0
  8  9  2  0
  1 10  1  0
  1 11  1  0
  1 12  1  0
  2 13  1  0
  3 14  1  0
  3 15  1  0
  4 16  1  0
  4 17  1  0
  5 18  1  0
  6 19  1  0
  6 20  1  0
  7 21  1  0
  7 22  1  0
  8 23  1  0
M  END
