
     RDKit          3D

 21 20  0  0  0  0  0  0  0  0999 V2000
    2.0161   -1.7553    0.9359 C   0  0  0  0  0  0  0  0  0  0  0  0
    1.5387   -1.0656   -0.3402 C   0  0  0  0  0  0  0  0  0  0  0  0
    2.6562   -0.3026   -1.0061 C   0  0  0  0  0  0  0  0  0  0  0  0
    0.4241   -0.1495   -0.0342 C   0  0  0  0  0  0  0  0  0  0  0  0
   -0.4935    0.6078    0.1968 C   0  0  0  0  0  0  0  0  0  0  0  0
   -1.5917    1.5451    0.4682 C   0  0  0  0  0  0  0  0  0  0  0  0
   -1.4277    2.6726   -0.3265 O   0  0  0  0  0  0  0  0  0  0  0  0
   -2.8744    0.8751    0.0487 C   0  0  0  0  0  0  0  0  0  0  0  0
   -3.1155   -0.2698    0.7996 O   0  0  0  0  0  0  0  0  0  0  0  0
    1.1523   -2.1420    1.4784 H   0  0  0  0  0  0  0  0  0  0  0  0
    2.6640   -1.0924    1.5445 H   0  0  0  0  0  0  0  0  0  0  0  0
    2.6417   -2.6093    0.6082 H   0  0  0  0  0  0  0  0  0  0  0  0
    1.1199   -1.8619   -0.9992 H   0  0  0  0  0  0  0  0  0  0  0  0
    3.2138   -0.9636   -1.7178 H   0  0  0  0  0  0  0  0  0  0  0  0
    3.4153    0.0163   -0.2447 H   0  0  0  0  0  0  0  0  0  0  0  0
    2.2504    0.5587   -1.5647 H   0  0  0  0  0  0  0  0  0  0  0  0
   -1.6208    1.8412    1.5416 H   0  0  0  0  0  0  0  0  0  0  0  0
   -1.4424    2.4072   -1.2768 H   0  0  0  0  0  0  0  0  0  0  0  0
   -2.7727    0.6177   -1.0267 H   0  0  0  0  0  0  0  0  0  0  0  0
   -3.6957    1.6131    0.1274 H   0  0  0  0  0  0  0  0  0  0  0  0
   -4.0581   -0.5429    0.7876 H   0  0  0  0  0  0  0  0  0  0  0  0
  1  2  1  0
  2  3  1  0
  2  4  1  0
  4  5  3  0
  5  6  1  0
  6  7  1  0
  6  8  1  0
  8  9  1  0
  1 10  1  0
  1 11  1  0
  1 12  1  0
  2 13  1  0
  3 14  1  0
  3 15  1  0
  3 16  1  0
  6 17  1  0
  7 18  1  0
  8 19  1  0
  8 20  1  0
  9 21  1  0
M  END
