
     RDKit          3D

 23 22  0  0  0  0  0  0  0  0999 V2000
   -2.4454    0.8747    0.6464 C   0  0  0  0  0  0  0  0  0  0  0  0
   -1.9394    0.4504   -0.6952 C   0  0  0  0  0  0  0  0  0  0  0  0
   -2.9214   -0.5384   -1.2878 C   0  0  0  0  0  0  0  0  0  0  0  0
   -0.5757   -0.2209   -0.5801 C   0  0  0  0  0  0  0  0  0  0  0  0
    0.4052    0.7612    0.0277 C   0  0  0  0  0  0  0  0  0  0  0  0
    1.7075    0.1013    0.1301 C   0  0  0  0  0  0  0  0  0  0  0  0
    2.7908   -0.4363    0.1965 C   0  0  0  0  0  0  0  0  0  0  0  0
    4.1093   -1.0856    0.2867 C   0  0  0  0  0  0  0  0  0  0  0  0
    5.0902   -0.3357   -0.3699 O   0  0  0  0  0  0  0  0  0  0  0  0
   -2.0085    1.8744    0.8847 H   0  0  0  0  0  0  0  0  0  0  0  0
   -3.5664    0.9362    0.6331 H   0  0  0  0  0  0  0  0  0  0  0  0
   -2.1270    0.1851    1.4749 H   0  0  0  0  0  0  0  0  0  0  0  0
   -1.8091    1.3409   -1.3259 H   0  0  0  0  0  0  0  0  0  0  0  0
   -2.5333   -1.5556   -1.0731 H   0  0  0  0  0  0  0  0  0  0  0  0
   -2.9526   -0.3382   -2.3948 H   0  0  0  0  0  0  0  0  0  0  0  0
   -3.9126   -0.3565   -0.8345 H   0  0  0  0  0  0  0  0  0  0  0  0
   -0.7266   -1.1072    0.0650 H   0  0  0  0  0  0  0  0  0  0  0  0
   -0.2253   -0.4958   -1.5795 H   0  0  0  0  0  0  0  0  0  0  0  0
    0.4493    1.7062   -0.5485 H   0  0  0  0  0  0  0  0  0  0  0  0
    0.1109    1.0472    1.0605 H   0  0  0  0  0  0  0  0  0  0  0  0
    4.3280   -1.2327    1.3577 H   0  0  0  0  0  0  0  0  0  0  0  0
    4.0932   -2.0813   -0.2458 H   0  0  0  0  0  0  0  0  0  0  0  0
    4.6591    0.5067   -0.6591 H   0  0  0  0  0  0  0  0  0  0  0  0
  1  2  1  0
  2  3  1  0
  2  4  1  0
  4  5  1  0
  5  6  1  0
  6  7  3  0
  7  8  1  0
  8  9  1  0
  1 10  1  0
  1 11  1  0
  1 12  1  0
  2 13  1  0
  3 14  1  0
  3 15  1  0
  3 16  1  0
  4 17  1  0
  4 18  1  0
  5 19  1  0
  5 20  1  0
  8 21  1  0
  8 22  1  0
  9 23  1  0
M  END
