
     RDKit          3D

 25 25  0  0  0  0  0  0  0  0999 V2000
   -0.4271    0.8274   -1.6200 C   0  0  0  0  0  0  0  0  0  0  0  0
   -0.0521    0.6627   -0.1768 C   0  0  0  0  0  0  0  0  0  0  0  0
   -1.2088    0.4038    0.7300 C   0  0  0  0  0  0  0  0  0  0  0  0
   -2.0883   -0.7724    0.5659 C   0  0  0  0  0  0  0  0  0  0  0  0
   -2.5971    0.5639    0.1882 C   0  0  0  0  0  0  0  0  0  0  0  0
    1.0619   -0.3454   -0.0147 C   0  0  0  0  0  0  0  0  0  0  0  0
    1.4246   -0.4968    1.4488 C   0  0  0  0  0  0  0  0  0  0  0  0
    2.3053    0.0560   -0.7539 C   0  0  0  0  0  0  0  0  0  0  0  0
    0.6242   -1.6028   -0.4501 O   0  0  0  0  0  0  0  0  0  0  0  0
   -0.8470   -0.1114   -2.0195 H   0  0  0  0  0  0  0  0  0  0  0  0
   -1.1053    1.6919   -1.7496 H   0  0  0  0  0  0  0  0  0  0  0  0
    0.5137    1.1047   -2.1646 H   0  0  0  0  0  0  0  0  0  0  0  0
    0.3904    1.6519    0.1459 H   0  0  0  0  0  0  0  0  0  0  0  0
   -1.0291    0.7083    1.7946 H   0  0  0  0  0  0  0  0  0  0  0  0
   -1.8762   -1.5183   -0.2401 H   0  0  0  0  0  0  0  0  0  0  0  0
   -2.5649   -1.2331    1.4499 H   0  0  0  0  0  0  0  0  0  0  0  0
   -2.7363    0.7374   -0.8967 H   0  0  0  0  0  0  0  0  0  0  0  0
   -3.2880    1.1318    0.8247 H   0  0  0  0  0  0  0  0  0  0  0  0
    0.7666   -1.2281    1.9686 H   0  0  0  0  0  0  0  0  0  0  0  0
    2.4768   -0.7751    1.6050 H   0  0  0  0  0  0  0  0  0  0  0  0
    1.2713    0.4752    1.9945 H   0  0  0  0  0  0  0  0  0  0  0  0
    2.6077    1.0647   -0.3685 H   0  0  0  0  0  0  0  0  0  0  0  0
    2.2132    0.0218   -1.8474 H   0  0  0  0  0  0  0  0  0  0  0  0
    3.0936   -0.6936   -0.4858 H   0  0  0  0  0  0  0  0  0  0  0  0
    1.0710   -2.3244    0.0717 H   0  0  0  0  0  0  0  0  0  0  0  0
  1  2  1  0
  2  3  1  0
  3  4  1  0
  4  5  1  0
  2  6  1  0
  6  7  1  0
  6  8  1  0
  6  9  1  0
  5  3  1  0
  1 10  1  0
  1 11  1  0
  1 12  1  0
  2 13  1  0
  3 14  1  0
  4 15  1  0
  4 16  1  0
  5 17  1  0
  5 18  1  0
  7 19  1  0
  7 20  1  0
  7 21  1  0
  8 22  1  0
  8 23  1  0
  8 24  1  0
  9 25  1  0
M  END
