
     RDKit          3D

 25 25  0  0  0  0  0  0  0  0999 V2000
    0.4648   -1.2686    0.4798 C   0  0  0  0  0  0  0  0  0  0  0  0
    0.4794   -0.1676   -0.4912 C   0  0  0  0  0  0  0  0  0  0  0  0
    1.4589    0.8675    0.0684 C   0  0  0  0  0  0  0  0  0  0  0  0
    2.8402    0.3602    0.2463 C   0  0  0  0  0  0  0  0  0  0  0  0
    2.9477   -0.6971    1.1166 O   0  0  0  0  0  0  0  0  0  0  0  0
   -0.7925    0.5405   -0.8078 C   0  0  0  0  0  0  0  0  0  0  0  0
   -1.5439    1.2488    0.2996 C   0  0  0  0  0  0  0  0  0  0  0  0
   -2.1560    0.1415   -0.6215 C   0  0  0  0  0  0  0  0  0  0  0  0
   -2.7704   -0.9338    0.1514 C   0  0  0  0  0  0  0  0  0  0  0  0
   -0.4239   -1.9149    0.4952 H   0  0  0  0  0  0  0  0  0  0  0  0
    0.6731   -0.9990    1.5318 H   0  0  0  0  0  0  0  0  0  0  0  0
    1.2927   -1.9909    0.1924 H   0  0  0  0  0  0  0  0  0  0  0  0
    0.9878   -0.5020   -1.4471 H   0  0  0  0  0  0  0  0  0  0  0  0
    1.4346    1.7935   -0.5547 H   0  0  0  0  0  0  0  0  0  0  0  0
    1.1032    1.2170    1.0817 H   0  0  0  0  0  0  0  0  0  0  0  0
    3.3476    0.1431   -0.7170 H   0  0  0  0  0  0  0  0  0  0  0  0
    3.4303    1.2052    0.7022 H   0  0  0  0  0  0  0  0  0  0  0  0
    2.9352   -0.3319    2.0418 H   0  0  0  0  0  0  0  0  0  0  0  0
   -0.6126    1.2624   -1.6731 H   0  0  0  0  0  0  0  0  0  0  0  0
   -1.9240    2.2712    0.1702 H   0  0  0  0  0  0  0  0  0  0  0  0
   -1.2155    0.9212    1.3078 H   0  0  0  0  0  0  0  0  0  0  0  0
   -2.9091    0.5852   -1.3568 H   0  0  0  0  0  0  0  0  0  0  0  0
   -2.6568   -1.9243   -0.3332 H   0  0  0  0  0  0  0  0  0  0  0  0
   -2.4979   -1.0455    1.2035 H   0  0  0  0  0  0  0  0  0  0  0  0
   -3.8928   -0.7817    0.1682 H   0  0  0  0  0  0  0  0  0  0  0  0
  1  2  1  0
  2  3  1  0
  3  4  1  0
  4  5  1  0
  2  6  1  0
  6  7  1  0
  7  8  1  0
  8  9  1  0
  8  6  1  0
  1 10  1  0
  1 11  1  0
  1 12  1  0
  2 13  1  0
  3 14  1  0
  3 15  1  0
  4 16  1  0
  4 17  1  0
  5 18  1  0
  6 19  1  0
  7 20  1  0
  7 21  1  0
  8 22  1  0
  9 23  1  0
  9 24  1  0
  9 25  1  0
M  END
