
     RDKit          3D

 21 20  0  0  0  0  0  0  0  0999 V2000
    1.3167   -0.3351    1.1830 C   0  0  0  0  0  0  0  0  0  0  0  0
    0.8436   -0.3415   -0.2200 C   0  0  0  0  0  0  0  0  0  0  0  0
    1.3959    0.8938   -0.9421 C   0  0  0  0  0  0  0  0  0  0  0  0
   -0.6355   -0.4668   -0.4152 C   0  0  0  0  0  0  0  0  0  0  0  0
   -0.8530   -0.4501   -1.8102 O   0  0  0  0  0  0  0  0  0  0  0  0
   -1.1076   -1.7847    0.0599 C   0  0  0  0  0  0  0  0  0  0  0  0
   -1.0371   -2.0726    1.2587 O   0  0  0  0  0  0  0  0  0  0  0  0
   -1.4250    0.6814    0.1468 C   0  0  0  0  0  0  0  0  0  0  0  0
   -1.3388    0.8311    1.5058 O   0  0  0  0  0  0  0  0  0  0  0  0
    1.9103    0.5996    1.3994 H   0  0  0  0  0  0  0  0  0  0  0  0
    2.0503   -1.1607    1.3443 H   0  0  0  0  0  0  0  0  0  0  0  0
    0.5317   -0.4917    1.9507 H   0  0  0  0  0  0  0  0  0  0  0  0
    1.3046   -1.2072   -0.7659 H   0  0  0  0  0  0  0  0  0  0  0  0
    1.0608    0.9081   -2.0113 H   0  0  0  0  0  0  0  0  0  0  0  0
    2.5033    0.7620   -0.9313 H   0  0  0  0  0  0  0  0  0  0  0  0
    1.0988    1.7981   -0.3886 H   0  0  0  0  0  0  0  0  0  0  0  0
   -0.9404    0.4947   -2.0775 H   0  0  0  0  0  0  0  0  0  0  0  0
   -1.5237   -2.5338   -0.6027 H   0  0  0  0  0  0  0  0  0  0  0  0
   -1.1478    1.6412   -0.3322 H   0  0  0  0  0  0  0  0  0  0  0  0
   -2.5066    0.4497   -0.0847 H   0  0  0  0  0  0  0  0  0  0  0  0
   -1.5005    1.7848    1.7330 H   0  0  0  0  0  0  0  0  0  0  0  0
  1  2  1  0
  2  3  1  0
  2  4  1  0
  4  5  1  0
  4  6  1  0
  6  7  2  0
  4  8  1  0
  8  9  1  0
  1 10  1  0
  1 11  1  0
  1 12  1  0
  2 13  1  0
  3 14  1  0
  3 15  1  0
  3 16  1  0
  5 17  1  0
  6 18  1  0
  8 19  1  0
  8 20  1  0
  9 21  1  0
M  END
