
     RDKit          3D

 21 21  0  0  0  0  0  0  0  0999 V2000
   -0.8710    0.8242   -1.0935 C   0  0  0  0  0  0  0  0  0  0  0  0
   -0.8070   -0.2323   -0.0088 C   0  0  0  0  0  0  0  0  0  0  0  0
   -0.8689   -1.6299   -0.5906 C   0  0  0  0  0  0  0  0  0  0  0  0
   -1.9477   -0.0859    0.9248 C   0  0  0  0  0  0  0  0  0  0  0  0
   -1.9479   -0.5576    2.0397 O   0  0  0  0  0  0  0  0  0  0  0  0
    0.4671   -0.0185    0.7768 C   0  0  0  0  0  0  0  0  0  0  0  0
    1.7065   -0.1325   -0.0868 C   0  0  0  0  0  0  0  0  0  0  0  0
    2.0524    1.2531    0.3438 C   0  0  0  0  0  0  0  0  0  0  0  0
    0.7899    1.3259    0.9619 O   0  0  0  0  0  0  0  0  0  0  0  0
   -1.3963    0.4700   -1.9966 H   0  0  0  0  0  0  0  0  0  0  0  0
    0.1397    1.2114   -1.3262 H   0  0  0  0  0  0  0  0  0  0  0  0
   -1.4892    1.6659   -0.6626 H   0  0  0  0  0  0  0  0  0  0  0  0
   -0.3515   -1.6925   -1.5762 H   0  0  0  0  0  0  0  0  0  0  0  0
   -0.3899   -2.3009    0.1678 H   0  0  0  0  0  0  0  0  0  0  0  0
   -1.9062   -1.9470   -0.7650 H   0  0  0  0  0  0  0  0  0  0  0  0
   -2.8075    0.4655    0.5863 H   0  0  0  0  0  0  0  0  0  0  0  0
    0.5705   -0.6609    1.6654 H   0  0  0  0  0  0  0  0  0  0  0  0
    2.4339   -0.9120    0.2629 H   0  0  0  0  0  0  0  0  0  0  0  0
    1.5400   -0.2624   -1.1595 H   0  0  0  0  0  0  0  0  0  0  0  0
    2.2352    1.9817   -0.4461 H   0  0  0  0  0  0  0  0  0  0  0  0
    2.8477    1.2345    1.1167 H   0  0  0  0  0  0  0  0  0  0  0  0
  1  2  1  0
  2  3  1  0
  2  4  1  0
  4  5  2  0
  2  6  1  0
  6  7  1  0
  7  8  1  0
  8  9  1  0
  9  6  1  0
  1 10  1  0
  1 11  1  0
  1 12  1  0
  3 13  1  0
  3 14  1  0
  3 15  1  0
  4 16  1  0
  6 17  1  0
  7 18  1  0
  7 19  1  0
  8 20  1  0
  8 21  1  0
M  END
