
     RDKit          3D

 19 20  0  0  0  0  0  0  0  0999 V2000
   -1.6591    0.0871    1.1084 C   0  0  0  0  0  0  0  0  0  0  0  0
   -1.0164    0.2290   -0.2271 C   0  0  0  0  0  0  0  0  0  0  0  0
   -1.3466   -1.0406   -1.0254 C   0  0  0  0  0  0  0  0  0  0  0  0
    0.4599    0.3501   -0.2056 C   0  0  0  0  0  0  0  0  0  0  0  0
    0.9619    0.4836   -1.5992 O   0  0  0  0  0  0  0  0  0  0  0  0
    1.3901    1.2605   -0.3996 C   0  0  0  0  0  0  0  0  0  0  0  0
    2.4277    0.4179    0.3224 C   0  0  0  0  0  0  0  0  0  0  0  0
    1.3118   -0.5392    0.5917 C   0  0  0  0  0  0  0  0  0  0  0  0
    1.2731   -1.5773    1.2231 O   0  0  0  0  0  0  0  0  0  0  0  0
   -0.9489    0.3179    1.9378 H   0  0  0  0  0  0  0  0  0  0  0  0
   -2.5204    0.7889    1.2576 H   0  0  0  0  0  0  0  0  0  0  0  0
   -2.1082   -0.9364    1.2692 H   0  0  0  0  0  0  0  0  0  0  0  0
   -1.5286    1.0543   -0.7635 H   0  0  0  0  0  0  0  0  0  0  0  0
   -0.6373   -1.1776   -1.8558 H   0  0  0  0  0  0  0  0  0  0  0  0
   -2.3623   -0.9421   -1.4669 H   0  0  0  0  0  0  0  0  0  0  0  0
   -1.3639   -1.9163   -0.3296 H   0  0  0  0  0  0  0  0  0  0  0  0
    1.5757    2.2817   -0.6713 H   0  0  0  0  0  0  0  0  0  0  0  0
    2.8869    0.8797    1.1907 H   0  0  0  0  0  0  0  0  0  0  0  0
    3.2048   -0.0212   -0.3569 H   0  0  0  0  0  0  0  0  0  0  0  0
  1  2  1  0
  2  3  1  0
  2  4  1  0
  4  5  1  0
  5  6  1  0
  6  7  1  0
  7  8  1  0
  8  9  2  0
  6  4  1  0
  8  4  1  0
  1 10  1  0
  1 11  1  0
  1 12  1  0
  2 13  1  0
  3 14  1  0
  3 15  1  0
  3 16  1  0
  6 17  1  0
  7 18  1  0
  7 19  1  0
M  END
