
     RDKit          3D

 16 15  0  0  0  0  0  0  0  0999 V2000
   -1.7768    1.1847   -0.5320 C   0  0  0  0  0  0  0  0  0  0  0  0
   -1.4161   -0.2329   -0.0781 C   0  0  0  0  0  0  0  0  0  0  0  0
    0.0377   -0.4076   -0.0532 C   0  0  0  0  0  0  0  0  0  0  0  0
    1.2373   -0.5365   -0.0447 C   0  0  0  0  0  0  0  0  0  0  0  0
    2.7123   -0.6795   -0.0139 C   0  0  0  0  0  0  0  0  0  0  0  0
    3.3445    0.5017   -0.3834 O   0  0  0  0  0  0  0  0  0  0  0  0
   -1.9292   -0.4198    1.2832 C   0  0  0  0  0  0  0  0  0  0  0  0
   -3.0074   -0.9724    1.4297 O   0  0  0  0  0  0  0  0  0  0  0  0
   -1.0307    1.4409   -1.3394 H   0  0  0  0  0  0  0  0  0  0  0  0
   -2.8044    1.2591   -0.8753 H   0  0  0  0  0  0  0  0  0  0  0  0
   -1.6261    1.8268    0.3603 H   0  0  0  0  0  0  0  0  0  0  0  0
   -1.8368   -0.9894   -0.7584 H   0  0  0  0  0  0  0  0  0  0  0  0
    3.0618   -1.4757   -0.6893 H   0  0  0  0  0  0  0  0  0  0  0  0
    2.9658   -0.8634    1.0469 H   0  0  0  0  0  0  0  0  0  0  0  0
    3.4920    0.4680   -1.3524 H   0  0  0  0  0  0  0  0  0  0  0  0
   -1.4240   -0.1039    2.1823 H   0  0  0  0  0  0  0  0  0  0  0  0
  1  2  1  0
  2  3  1  0
  3  4  3  0
  4  5  1  0
  5  6  1  0
  2  7  1  0
  7  8  2  0
  1  9  1  0
  1 10  1  0
  1 11  1  0
  2 12  1  0
  5 13  1  0
  5 14  1  0
  6 15  1  0
  7 16  1  0
M  END
