
     RDKit          3D

 21 21  0  0  0  0  0  0  0  0999 V2000
   -2.1073   -0.7567    0.7996 C   0  0  0  0  0  0  0  0  0  0  0  0
   -1.1395   -0.1203   -0.1868 C   0  0  0  0  0  0  0  0  0  0  0  0
   -1.6919    1.2704   -0.5104 C   0  0  0  0  0  0  0  0  0  0  0  0
   -1.1233   -0.8190   -1.3907 O   0  0  0  0  0  0  0  0  0  0  0  0
    0.2072    0.0648    0.3808 C   0  0  0  0  0  0  0  0  0  0  0  0
    0.3316    0.6619    1.4357 O   0  0  0  0  0  0  0  0  0  0  0  0
    1.4574   -0.4346   -0.2528 C   0  0  0  0  0  0  0  0  0  0  0  0
    2.6165    0.5242   -0.1389 C   0  0  0  0  0  0  0  0  0  0  0  0
    2.6402   -0.7966    0.5499 C   0  0  0  0  0  0  0  0  0  0  0  0
   -3.1258   -0.4956    0.4473 H   0  0  0  0  0  0  0  0  0  0  0  0
   -1.8737   -0.3712    1.8040 H   0  0  0  0  0  0  0  0  0  0  0  0
   -1.9524   -1.8665    0.8502 H   0  0  0  0  0  0  0  0  0  0  0  0
   -2.3859    1.2238   -1.3773 H   0  0  0  0  0  0  0  0  0  0  0  0
   -0.8264    1.8925   -0.8225 H   0  0  0  0  0  0  0  0  0  0  0  0
   -2.1233    1.7331    0.3797 H   0  0  0  0  0  0  0  0  0  0  0  0
   -1.7832   -0.4640   -2.0367 H   0  0  0  0  0  0  0  0  0  0  0  0
    1.3368   -0.9824   -1.2218 H   0  0  0  0  0  0  0  0  0  0  0  0
    2.5197    1.4133    0.5162 H   0  0  0  0  0  0  0  0  0  0  0  0
    3.2261    0.7145   -1.0378 H   0  0  0  0  0  0  0  0  0  0  0  0
    3.3140   -1.5870    0.1597 H   0  0  0  0  0  0  0  0  0  0  0  0
    2.4831   -0.8048    1.6524 H   0  0  0  0  0  0  0  0  0  0  0  0
  1  2  1  0
  2  3  1  0
  2  4  1  0
  2  5  1  0
  5  6  2  0
  5  7  1  0
  7  8  1  0
  8  9  1  0
  9  7  1  0
  1 10  1  0
  1 11  1  0
  1 12  1  0
  3 13  1  0
  3 14  1  0
  3 15  1  0
  4 16  1  0
  7 17  1  0
  8 18  1  0
  8 19  1  0
  9 20  1  0
  9 21  1  0
M  END
