
     RDKit          3D

 19 18  0  0  0  0  0  0  0  0999 V2000
   -0.8456   -1.2568   -1.0812 C   0  0  0  0  0  0  0  0  0  0  0  0
   -0.9098   -0.2116   -0.0173 C   0  0  0  0  0  0  0  0  0  0  0  0
    0.3424   -0.1976    0.8115 C   0  0  0  0  0  0  0  0  0  0  0  0
    1.5862    0.0850    0.0289 C   0  0  0  0  0  0  0  0  0  0  0  0
    2.7236    0.0619    0.9931 C   0  0  0  0  0  0  0  0  0  0  0  0
    3.1860   -0.9998    1.4177 O   0  0  0  0  0  0  0  0  0  0  0  0
   -1.2095    1.0857   -0.4651 O   0  0  0  0  0  0  0  0  0  0  0  0
   -2.3342    1.8004   -0.0979 C   0  0  0  0  0  0  0  0  0  0  0  0
   -3.1322    1.2457    0.6861 O   0  0  0  0  0  0  0  0  0  0  0  0
   -1.8166   -1.7566   -1.2626 H   0  0  0  0  0  0  0  0  0  0  0  0
   -0.3558   -0.8948   -1.9946 H   0  0  0  0  0  0  0  0  0  0  0  0
   -0.1761   -2.0756   -0.6887 H   0  0  0  0  0  0  0  0  0  0  0  0
   -1.7546   -0.5004    0.6670 H   0  0  0  0  0  0  0  0  0  0  0  0
    0.4840   -1.1401    1.3866 H   0  0  0  0  0  0  0  0  0  0  0  0
    0.2300    0.6027    1.5704 H   0  0  0  0  0  0  0  0  0  0  0  0
    1.5443    1.0827   -0.4382 H   0  0  0  0  0  0  0  0  0  0  0  0
    1.8056   -0.7147   -0.7159 H   0  0  0  0  0  0  0  0  0  0  0  0
    3.1479    0.9913    1.3238 H   0  0  0  0  0  0  0  0  0  0  0  0
   -2.5157    2.7925   -0.4716 H   0  0  0  0  0  0  0  0  0  0  0  0
  1  2  1  0
  2  3  1  0
  3  4  1  0
  4  5  1  0
  5  6  2  0
  2  7  1  0
  7  8  1  0
  8  9  2  0
  1 10  1  0
  1 11  1  0
  1 12  1  0
  2 13  1  0
  3 14  1  0
  3 15  1  0
  4 16  1  0
  4 17  1  0
  5 18  1  0
  8 19  1  0
M  END
