
     RDKit          3D

 22 22  0  0  0  0  0  0  0  0999 V2000
   -1.0475   -1.3921   -0.7393 C   0  0  0  0  0  0  0  0  0  0  0  0
   -0.6337   -0.1544    0.0058 C   0  0  0  0  0  0  0  0  0  0  0  0
   -1.0783   -0.1931    1.4279 C   0  0  0  0  0  0  0  0  0  0  0  0
   -1.3588    1.0156   -0.6677 C   0  0  0  0  0  0  0  0  0  0  0  0
    0.8291    0.0645   -0.1762 C   0  0  0  0  0  0  0  0  0  0  0  0
    1.4502    1.2801    0.5071 C   0  0  0  0  0  0  0  0  0  0  0  0
    1.8265   -0.1260    0.8730 C   0  0  0  0  0  0  0  0  0  0  0  0
    3.1034   -0.5906    0.4790 O   0  0  0  0  0  0  0  0  0  0  0  0
   -2.1295   -1.3350   -0.9134 H   0  0  0  0  0  0  0  0  0  0  0  0
   -0.4678   -1.4051   -1.6895 H   0  0  0  0  0  0  0  0  0  0  0  0
   -0.8605   -2.3182   -0.1374 H   0  0  0  0  0  0  0  0  0  0  0  0
   -0.5672   -0.9605    2.0296 H   0  0  0  0  0  0  0  0  0  0  0  0
   -2.1682   -0.4509    1.4303 H   0  0  0  0  0  0  0  0  0  0  0  0
   -1.0070    0.8032    1.8980 H   0  0  0  0  0  0  0  0  0  0  0  0
   -0.8858    1.1581   -1.6642 H   0  0  0  0  0  0  0  0  0  0  0  0
   -2.4436    0.8095   -0.7751 H   0  0  0  0  0  0  0  0  0  0  0  0
   -1.1719    1.9592   -0.1056 H   0  0  0  0  0  0  0  0  0  0  0  0
    1.1793   -0.0536   -1.2267 H   0  0  0  0  0  0  0  0  0  0  0  0
    0.7870    1.8349    1.2136 H   0  0  0  0  0  0  0  0  0  0  0  0
    2.1264    1.9293   -0.0513 H   0  0  0  0  0  0  0  0  0  0  0  0
    1.5910   -0.4137    1.9080 H   0  0  0  0  0  0  0  0  0  0  0  0
    2.9268   -1.4613    0.0389 H   0  0  0  0  0  0  0  0  0  0  0  0
  1  2  1  0
  2  3  1  0
  2  4  1  0
  2  5  1  0
  5  6  1  0
  6  7  1  0
  7  8  1  0
  7  5  1  0
  1  9  1  0
  1 10  1  0
  1 11  1  0
  3 12  1  0
  3 13  1  0
  3 14  1  0
  4 15  1  0
  4 16  1  0
  4 17  1  0
  5 18  1  0
  6 19  1  0
  6 20  1  0
  7 21  1  0
  8 22  1  0
M  END
