
     RDKit          3D

 21 20  0  0  0  0  0  0  0  0999 V2000
   -1.5711   -0.9819    1.0314 C   0  0  0  0  0  0  0  0  0  0  0  0
   -1.2193   -0.0468   -0.1077 C   0  0  0  0  0  0  0  0  0  0  0  0
   -2.0416    1.2133    0.0233 C   0  0  0  0  0  0  0  0  0  0  0  0
   -1.4193   -0.6841   -1.4390 C   0  0  0  0  0  0  0  0  0  0  0  0
    0.2281    0.2516    0.0397 C   0  0  0  0  0  0  0  0  0  0  0  0
    1.4034    0.4907    0.1392 C   0  0  0  0  0  0  0  0  0  0  0  0
    2.8489    0.7888    0.2394 C   0  0  0  0  0  0  0  0  0  0  0  0
    3.6772   -0.4180    0.2781 C   0  0  0  0  0  0  0  0  0  0  0  0
    4.3194   -0.7782   -0.7066 O   0  0  0  0  0  0  0  0  0  0  0  0
   -1.0107   -0.6251    1.9367 H   0  0  0  0  0  0  0  0  0  0  0  0
   -2.6596   -0.9610    1.1605 H   0  0  0  0  0  0  0  0  0  0  0  0
   -1.2084   -1.9942    0.7837 H   0  0  0  0  0  0  0  0  0  0  0  0
   -3.0894    0.9152    0.2039 H   0  0  0  0  0  0  0  0  0  0  0  0
   -1.5976    1.7933    0.8674 H   0  0  0  0  0  0  0  0  0  0  0  0
   -1.9190    1.8319   -0.8808 H   0  0  0  0  0  0  0  0  0  0  0  0
   -2.2683   -1.4321   -1.3391 H   0  0  0  0  0  0  0  0  0  0  0  0
   -1.7914    0.0210   -2.2139 H   0  0  0  0  0  0  0  0  0  0  0  0
   -0.5502   -1.2493   -1.7925 H   0  0  0  0  0  0  0  0  0  0  0  0
    3.0800    1.4688   -0.5979 H   0  0  0  0  0  0  0  0  0  0  0  0
    3.0832    1.3864    1.1657 H   0  0  0  0  0  0  0  0  0  0  0  0
    3.7056   -0.9904    1.2084 H   0  0  0  0  0  0  0  0  0  0  0  0
  1  2  1  0
  2  3  1  0
  2  4  1  0
  2  5  1  0
  5  6  3  0
  6  7  1  0
  7  8  1  0
  8  9  2  0
  1 10  1  0
  1 11  1  0
  1 12  1  0
  3 13  1  0
  3 14  1  0
  3 15  1  0
  4 16  1  0
  4 17  1  0
  4 18  1  0
  7 19  1  0
  7 20  1  0
  8 21  1  0
M  END
