
     RDKit          3D

 23 24  0  0  0  0  0  0  0  0999 V2000
    0.3078    1.7504   -0.3630 C   0  0  0  0  0  0  0  0  0  0  0  0
   -0.0526    0.3114   -0.5800 C   0  0  0  0  0  0  0  0  0  0  0  0
    1.1163   -0.6247   -0.5283 C   0  0  0  0  0  0  0  0  0  0  0  0
    1.9264   -0.6837    0.7537 C   0  0  0  0  0  0  0  0  0  0  0  0
    2.5182   -0.1868   -0.5263 C   0  0  0  0  0  0  0  0  0  0  0  0
   -1.1923   -0.1356    0.3071 C   0  0  0  0  0  0  0  0  0  0  0  0
   -1.6372   -1.5715    0.1764 C   0  0  0  0  0  0  0  0  0  0  0  0
   -2.3105    0.8118    0.5415 C   0  0  0  0  0  0  0  0  0  0  0  0
   -1.3299    0.5672    1.4712 O   0  0  0  0  0  0  0  0  0  0  0  0
    0.2436    2.3731   -1.2717 H   0  0  0  0  0  0  0  0  0  0  0  0
   -0.4372    2.1569    0.3816 H   0  0  0  0  0  0  0  0  0  0  0  0
    1.2857    1.8857    0.1781 H   0  0  0  0  0  0  0  0  0  0  0  0
   -0.4599    0.2610   -1.6345 H   0  0  0  0  0  0  0  0  0  0  0  0
    0.9029   -1.6249   -1.0120 H   0  0  0  0  0  0  0  0  0  0  0  0
    1.6300    0.0518    1.5158 H   0  0  0  0  0  0  0  0  0  0  0  0
    2.2311   -1.6977    1.0868 H   0  0  0  0  0  0  0  0  0  0  0  0
    3.2733   -0.8679   -1.0209 H   0  0  0  0  0  0  0  0  0  0  0  0
    2.8505    0.8667   -0.6056 H   0  0  0  0  0  0  0  0  0  0  0  0
   -2.2349   -1.9021    1.0453 H   0  0  0  0  0  0  0  0  0  0  0  0
   -2.2385   -1.6518   -0.7654 H   0  0  0  0  0  0  0  0  0  0  0  0
   -0.7193   -2.1965    0.0832 H   0  0  0  0  0  0  0  0  0  0  0  0
   -2.3547    1.7002   -0.0838 H   0  0  0  0  0  0  0  0  0  0  0  0
   -3.3187    0.4071    0.8508 H   0  0  0  0  0  0  0  0  0  0  0  0
  1  2  1  0
  2  3  1  0
  3  4  1  0
  4  5  1  0
  2  6  1  0
  6  7  1  0
  6  8  1  0
  8  9  1  0
  5  3  1  0
  9  6  1  0
  1 10  1  0
  1 11  1  0
  1 12  1  0
  2 13  1  0
  3 14  1  0
  4 15  1  0
  4 16  1  0
  5 17  1  0
  5 18  1  0
  7 19  1  0
  7 20  1  0
  7 21  1  0
  8 22  1  0
  8 23  1  0
M  END
