
     RDKit          3D

 21 21  0  0  0  0  0  0  0  0999 V2000
   -0.5863   -1.7293   -0.7762 C   0  0  0  0  0  0  0  0  0  0  0  0
   -0.6546   -0.4295   -0.0129 C   0  0  0  0  0  0  0  0  0  0  0  0
    0.5778    0.3997   -0.2583 C   0  0  0  0  0  0  0  0  0  0  0  0
    1.8316   -0.3335    0.1845 C   0  0  0  0  0  0  0  0  0  0  0  0
    3.0496    0.4643   -0.0508 C   0  0  0  0  0  0  0  0  0  0  0  0
    3.5098    0.4845   -1.1930 O   0  0  0  0  0  0  0  0  0  0  0  0
   -1.9200    0.2779   -0.3727 C   0  0  0  0  0  0  0  0  0  0  0  0
   -2.3161    1.5490    0.1630 C   0  0  0  0  0  0  0  0  0  0  0  0
   -1.7506    1.4440   -1.1582 O   0  0  0  0  0  0  0  0  0  0  0  0
   -1.5832   -2.0209   -1.2049 H   0  0  0  0  0  0  0  0  0  0  0  0
   -0.2578   -2.5724   -0.1322 H   0  0  0  0  0  0  0  0  0  0  0  0
    0.0892   -1.6094   -1.6591 H   0  0  0  0  0  0  0  0  0  0  0  0
   -0.6741   -0.6577    1.0717 H   0  0  0  0  0  0  0  0  0  0  0  0
    0.5210    1.3474    0.3130 H   0  0  0  0  0  0  0  0  0  0  0  0
    0.6498    0.6703   -1.3281 H   0  0  0  0  0  0  0  0  0  0  0  0
    1.9593   -1.2869   -0.3948 H   0  0  0  0  0  0  0  0  0  0  0  0
    1.7730   -0.5449    1.2720 H   0  0  0  0  0  0  0  0  0  0  0  0
    3.5866    1.0403    0.6835 H   0  0  0  0  0  0  0  0  0  0  0  0
   -2.7267   -0.3902   -0.7701 H   0  0  0  0  0  0  0  0  0  0  0  0
   -3.3902    1.8315    0.1169 H   0  0  0  0  0  0  0  0  0  0  0  0
   -1.6883    2.0659    0.9080 H   0  0  0  0  0  0  0  0  0  0  0  0
  1  2  1  0
  2  3  1  0
  3  4  1  0
  4  5  1  0
  5  6  2  0
  2  7  1  0
  7  8  1  0
  8  9  1  0
  9  7  1  0
  1 10  1  0
  1 11  1  0
  1 12  1  0
  2 13  1  0
  3 14  1  0
  3 15  1  0
  4 16  1  0
  4 17  1  0
  5 18  1  0
  7 19  1  0
  8 20  1  0
  8 21  1  0
M  END
