
     RDKit          3D

 21 20  0  0  0  0  0  0  0  0999 V2000
   -2.1127   -0.6200   -0.2857 C   0  0  0  0  0  0  0  0  0  0  0  0
   -0.9011   -0.0790    0.4478 C   0  0  0  0  0  0  0  0  0  0  0  0
   -0.9833    1.4193    0.4212 C   0  0  0  0  0  0  0  0  0  0  0  0
   -0.9098   -0.5441    1.7804 O   0  0  0  0  0  0  0  0  0  0  0  0
    0.3187   -0.6283   -0.2147 C   0  0  0  0  0  0  0  0  0  0  0  0
    1.5910   -0.1288    0.4676 C   0  0  0  0  0  0  0  0  0  0  0  0
    1.6213    1.2462    0.3934 O   0  0  0  0  0  0  0  0  0  0  0  0
    2.7826   -0.7296   -0.1792 C   0  0  0  0  0  0  0  0  0  0  0  0
    3.6050    0.0152   -0.6737 O   0  0  0  0  0  0  0  0  0  0  0  0
   -1.9472   -0.5118   -1.3842 H   0  0  0  0  0  0  0  0  0  0  0  0
   -3.0203   -0.0277   -0.0295 H   0  0  0  0  0  0  0  0  0  0  0  0
   -2.3117   -1.6729    0.0028 H   0  0  0  0  0  0  0  0  0  0  0  0
   -0.5834    1.8355   -0.5274 H   0  0  0  0  0  0  0  0  0  0  0  0
   -2.0674    1.6942    0.4394 H   0  0  0  0  0  0  0  0  0  0  0  0
   -0.4854    1.9035    1.2838 H   0  0  0  0  0  0  0  0  0  0  0  0
   -1.8201   -0.4083    2.1693 H   0  0  0  0  0  0  0  0  0  0  0  0
    0.3453   -0.4469   -1.2948 H   0  0  0  0  0  0  0  0  0  0  0  0
    0.3098   -1.7341   -0.0594 H   0  0  0  0  0  0  0  0  0  0  0  0
    1.6071   -0.4540    1.5282 H   0  0  0  0  0  0  0  0  0  0  0  0
    2.0015    1.6637    1.2311 H   0  0  0  0  0  0  0  0  0  0  0  0
    2.9600   -1.7919   -0.2350 H   0  0  0  0  0  0  0  0  0  0  0  0
  1  2  1  0
  2  3  1  0
  2  4  1  0
  2  5  1  0
  5  6  1  0
  6  7  1  0
  6  8  1  0
  8  9  2  0
  1 10  1  0
  1 11  1  0
  1 12  1  0
  3 13  1  0
  3 14  1  0
  3 15  1  0
  4 16  1  0
  5 17  1  0
  5 18  1  0
  6 19  1  0
  7 20  1  0
  8 21  1  0
M  END
