
     RDKit          3D

 21 21  0  0  0  0  0  0  0  0999 V2000
   -1.3214   -0.0105   -1.5202 C   0  0  0  0  0  0  0  0  0  0  0  0
   -0.7792    0.8967   -0.4359 C   0  0  0  0  0  0  0  0  0  0  0  0
    0.6652    0.5764   -0.3251 C   0  0  0  0  0  0  0  0  0  0  0  0
    1.8419    0.3349   -0.2259 C   0  0  0  0  0  0  0  0  0  0  0  0
    3.2748    0.0328   -0.0923 C   0  0  0  0  0  0  0  0  0  0  0  0
    3.8137   -0.0226   -1.3986 O   0  0  0  0  0  0  0  0  0  0  0  0
   -1.3886    0.6175    0.8945 C   0  0  0  0  0  0  0  0  0  0  0  0
   -1.1454   -0.8186    1.3871 C   0  0  0  0  0  0  0  0  0  0  0  0
   -2.5079   -0.2898    1.1169 C   0  0  0  0  0  0  0  0  0  0  0  0
   -1.0132    0.3066   -2.5168 H   0  0  0  0  0  0  0  0  0  0  0  0
   -2.4343   -0.0447   -1.5172 H   0  0  0  0  0  0  0  0  0  0  0  0
   -0.9780   -1.0526   -1.3460 H   0  0  0  0  0  0  0  0  0  0  0  0
   -0.9301    1.9580   -0.7239 H   0  0  0  0  0  0  0  0  0  0  0  0
    3.8095    0.7422    0.5380 H   0  0  0  0  0  0  0  0  0  0  0  0
    3.3432   -0.9734    0.3720 H   0  0  0  0  0  0  0  0  0  0  0  0
    4.7126   -0.4234   -1.2964 H   0  0  0  0  0  0  0  0  0  0  0  0
   -1.1990    1.4254    1.6533 H   0  0  0  0  0  0  0  0  0  0  0  0
   -0.7665   -1.5532    0.6746 H   0  0  0  0  0  0  0  0  0  0  0  0
   -0.7674   -0.9170    2.4085 H   0  0  0  0  0  0  0  0  0  0  0  0
   -3.1130   -0.1107    2.0544 H   0  0  0  0  0  0  0  0  0  0  0  0
   -3.1170   -0.6738    0.2991 H   0  0  0  0  0  0  0  0  0  0  0  0
  1  2  1  0
  2  3  1  0
  3  4  3  0
  4  5  1  0
  5  6  1  0
  2  7  1  0
  7  8  1  0
  8  9  1  0
  9  7  1  0
  1 10  1  0
  1 11  1  0
  1 12  1  0
  2 13  1  0
  5 14  1  0
  5 15  1  0
  6 16  1  0
  7 17  1  0
  8 18  1  0
  8 19  1  0
  9 20  1  0
  9 21  1  0
M  END
