
     RDKit          3D

 21 21  0  0  0  0  0  0  0  0999 V2000
    1.5204   -1.4122   -0.4400 C   0  0  0  0  0  0  0  0  0  0  0  0
    1.1019    0.0266   -0.4479 C   0  0  0  0  0  0  0  0  0  0  0  0
    1.7740    0.7031    0.6956 C   0  0  0  0  0  0  0  0  0  0  0  0
    1.3871    0.3898    1.8072 O   0  0  0  0  0  0  0  0  0  0  0  0
   -0.3781    0.2199   -0.2755 C   0  0  0  0  0  0  0  0  0  0  0  0
   -0.7111    1.6972   -0.2955 C   0  0  0  0  0  0  0  0  0  0  0  0
   -0.9797   -0.5591    0.8448 C   0  0  0  0  0  0  0  0  0  0  0  0
   -2.1282   -0.5855   -0.1322 C   0  0  0  0  0  0  0  0  0  0  0  0
   -1.1933   -0.4585   -1.1614 O   0  0  0  0  0  0  0  0  0  0  0  0
    2.6055   -1.4400   -0.6804 H   0  0  0  0  0  0  0  0  0  0  0  0
    1.0162   -2.0310   -1.1941 H   0  0  0  0  0  0  0  0  0  0  0  0
    1.4435   -1.8502    0.5949 H   0  0  0  0  0  0  0  0  0  0  0  0
    1.4656    0.4815   -1.3804 H   0  0  0  0  0  0  0  0  0  0  0  0
    2.5500    1.4223    0.5784 H   0  0  0  0  0  0  0  0  0  0  0  0
    0.0708    2.2855    0.2634 H   0  0  0  0  0  0  0  0  0  0  0  0
   -0.6224    2.0418   -1.3527 H   0  0  0  0  0  0  0  0  0  0  0  0
   -1.7022    1.9291    0.0932 H   0  0  0  0  0  0  0  0  0  0  0  0
   -1.1647   -0.0007    1.7807 H   0  0  0  0  0  0  0  0  0  0  0  0
   -0.5439   -1.5527    0.9486 H   0  0  0  0  0  0  0  0  0  0  0  0
   -2.8431    0.2407   -0.0287 H   0  0  0  0  0  0  0  0  0  0  0  0
   -2.6684   -1.5478   -0.2181 H   0  0  0  0  0  0  0  0  0  0  0  0
  1  2  1  0
  2  3  1  0
  3  4  2  0
  2  5  1  0
  5  6  1  0
  5  7  1  0
  7  8  1  0
  8  9  1  0
  9  5  1  0
  1 10  1  0
  1 11  1  0
  1 12  1  0
  2 13  1  0
  3 14  1  0
  6 15  1  0
  6 16  1  0
  6 17  1  0
  7 18  1  0
  7 19  1  0
  8 20  1  0
  8 21  1  0
M  END
