
     RDKit          3D

 25 25  0  0  0  0  0  0  0  0999 V2000
   -1.8156    0.8000   -0.9906 C   0  0  0  0  0  0  0  0  0  0  0  0
   -1.4243    0.1029    0.2962 C   0  0  0  0  0  0  0  0  0  0  0  0
   -2.2705    0.6286    1.4248 C   0  0  0  0  0  0  0  0  0  0  0  0
   -1.6743   -1.3761    0.0840 C   0  0  0  0  0  0  0  0  0  0  0  0
    0.0322    0.3638    0.6340 C   0  0  0  0  0  0  0  0  0  0  0  0
    0.8548   -0.1072   -0.3881 O   0  0  0  0  0  0  0  0  0  0  0  0
    2.1723    0.1320   -0.0762 C   0  0  0  0  0  0  0  0  0  0  0  0
    3.2112   -0.9355   -0.4103 C   0  0  0  0  0  0  0  0  0  0  0  0
    3.0944    0.2814   -1.2398 C   0  0  0  0  0  0  0  0  0  0  0  0
   -2.9285    0.7757   -1.0386 H   0  0  0  0  0  0  0  0  0  0  0  0
   -1.3906    0.2004   -1.8215 H   0  0  0  0  0  0  0  0  0  0  0  0
   -1.4837    1.8575   -1.0087 H   0  0  0  0  0  0  0  0  0  0  0  0
   -1.7235    0.5594    2.3858 H   0  0  0  0  0  0  0  0  0  0  0  0
   -2.5208    1.6963    1.1894 H   0  0  0  0  0  0  0  0  0  0  0  0
   -3.2108    0.0608    1.4505 H   0  0  0  0  0  0  0  0  0  0  0  0
   -2.7847   -1.5056    0.0760 H   0  0  0  0  0  0  0  0  0  0  0  0
   -1.2197   -1.7013   -0.8661 H   0  0  0  0  0  0  0  0  0  0  0  0
   -1.1976   -1.9333    0.9095 H   0  0  0  0  0  0  0  0  0  0  0  0
    0.1894    1.4282    0.8661 H   0  0  0  0  0  0  0  0  0  0  0  0
    0.2767   -0.2565    1.5312 H   0  0  0  0  0  0  0  0  0  0  0  0
    2.3703    0.6303    0.8776 H   0  0  0  0  0  0  0  0  0  0  0  0
    4.0861   -1.0553    0.2459 H   0  0  0  0  0  0  0  0  0  0  0  0
    2.7574   -1.8937   -0.7208 H   0  0  0  0  0  0  0  0  0  0  0  0
    2.6879    0.2101   -2.2617 H   0  0  0  0  0  0  0  0  0  0  0  0
    3.9119    1.0370   -1.1487 H   0  0  0  0  0  0  0  0  0  0  0  0
  1  2  1  0
  2  3  1  0
  2  4  1  0
  2  5  1  0
  5  6  1  0
  6  7  1  0
  7  8  1  0
  8  9  1  0
  9  7  1  0
  1 10  1  0
  1 11  1  0
  1 12  1  0
  3 13  1  0
  3 14  1  0
  3 15  1  0
  4 16  1  0
  4 17  1  0
  4 18  1  0
  5 19  1  0
  5 20  1  0
  7 21  1  0
  8 22  1  0
  8 23  1  0
  9 24  1  0
  9 25  1  0
M  END
