
     RDKit          3D

 21 21  0  0  0  0  0  0  0  0999 V2000
   -1.7441   -1.0137    0.5149 C   0  0  0  0  0  0  0  0  0  0  0  0
   -1.3100   -0.0728   -0.5579 C   0  0  0  0  0  0  0  0  0  0  0  0
   -2.2343    1.0657   -0.7427 C   0  0  0  0  0  0  0  0  0  0  0  0
   -2.8960    1.4553    0.1870 O   0  0  0  0  0  0  0  0  0  0  0  0
    0.0663    0.4811   -0.3938 C   0  0  0  0  0  0  0  0  0  0  0  0
    0.1619    1.1892    0.8078 O   0  0  0  0  0  0  0  0  0  0  0  0
    1.1244    0.3681    1.3492 C   0  0  0  0  0  0  0  0  0  0  0  0
    1.1429   -0.4188    0.0730 C   0  0  0  0  0  0  0  0  0  0  0  0
    2.4553   -0.2012   -0.6562 C   0  0  0  0  0  0  0  0  0  0  0  0
   -2.5484   -0.5160    1.0987 H   0  0  0  0  0  0  0  0  0  0  0  0
   -2.2136   -1.9474    0.1069 H   0  0  0  0  0  0  0  0  0  0  0  0
   -0.9712   -1.3261    1.2119 H   0  0  0  0  0  0  0  0  0  0  0  0
   -1.3223   -0.6539   -1.5260 H   0  0  0  0  0  0  0  0  0  0  0  0
   -2.3054    1.5325   -1.7037 H   0  0  0  0  0  0  0  0  0  0  0  0
    0.3635    1.0827   -1.2585 H   0  0  0  0  0  0  0  0  0  0  0  0
    2.0554    0.9621    1.5571 H   0  0  0  0  0  0  0  0  0  0  0  0
    0.8560   -0.1827    2.2674 H   0  0  0  0  0  0  0  0  0  0  0  0
    0.9131   -1.4938    0.1576 H   0  0  0  0  0  0  0  0  0  0  0  0
    3.2497   -0.8791   -0.2659 H   0  0  0  0  0  0  0  0  0  0  0  0
    2.8298    0.8483   -0.4780 H   0  0  0  0  0  0  0  0  0  0  0  0
    2.3272   -0.2794   -1.7490 H   0  0  0  0  0  0  0  0  0  0  0  0
  1  2  1  0
  2  3  1  0
  3  4  2  0
  2  5  1  0
  5  6  1  0
  6  7  1  0
  7  8  1  0
  8  9  1  0
  8  5  1  0
  1 10  1  0
  1 11  1  0
  1 12  1  0
  2 13  1  0
  3 14  1  0
  5 15  1  0
  7 16  1  0
  7 17  1  0
  8 18  1  0
  9 19  1  0
  9 20  1  0
  9 21  1  0
M  END
