
     RDKit          3D

 23 22  0  0  0  0  0  0  0  0999 V2000
    1.9813   -0.8324   -0.5140 C   0  0  0  0  0  0  0  0  0  0  0  0
    1.5353    0.1584    0.5141 C   0  0  0  0  0  0  0  0  0  0  0  0
    1.8652    1.5335    0.0936 C   0  0  0  0  0  0  0  0  0  0  0  0
    2.8616    1.7410   -0.5534 O   0  0  0  0  0  0  0  0  0  0  0  0
    0.1392    0.0148    0.9969 C   0  0  0  0  0  0  0  0  0  0  0  0
   -0.9524    0.1338    0.0130 C   0  0  0  0  0  0  0  0  0  0  0  0
   -0.9733   -0.8416   -1.1107 C   0  0  0  0  0  0  0  0  0  0  0  0
   -2.2820   -0.0507    0.7640 C   0  0  0  0  0  0  0  0  0  0  0  0
   -1.0373    1.4126   -0.5540 O   0  0  0  0  0  0  0  0  0  0  0  0
    2.0727   -0.3892   -1.5458 H   0  0  0  0  0  0  0  0  0  0  0  0
    3.0433   -1.1810   -0.3152 H   0  0  0  0  0  0  0  0  0  0  0  0
    1.3769   -1.7385   -0.5090 H   0  0  0  0  0  0  0  0  0  0  0  0
    2.1920   -0.0373    1.4223 H   0  0  0  0  0  0  0  0  0  0  0  0
    1.2177    2.3418    0.3652 H   0  0  0  0  0  0  0  0  0  0  0  0
   -0.0449    0.7887    1.7937 H   0  0  0  0  0  0  0  0  0  0  0  0
    0.0141   -0.9573    1.5336 H   0  0  0  0  0  0  0  0  0  0  0  0
   -0.2566   -0.6942   -1.9108 H   0  0  0  0  0  0  0  0  0  0  0  0
   -0.9816   -1.9123   -0.7610 H   0  0  0  0  0  0  0  0  0  0  0  0
   -1.9870   -0.7492   -1.6130 H   0  0  0  0  0  0  0  0  0  0  0  0
   -2.3802   -1.1241    1.0105 H   0  0  0  0  0  0  0  0  0  0  0  0
   -2.3550    0.5991    1.6364 H   0  0  0  0  0  0  0  0  0  0  0  0
   -3.0698    0.1863    0.0315 H   0  0  0  0  0  0  0  0  0  0  0  0
   -1.9792    1.5976   -0.7880 H   0  0  0  0  0  0  0  0  0  0  0  0
  1  2  1  0
  2  3  1  0
  3  4  2  0
  2  5  1  0
  5  6  1  0
  6  7  1  0
  6  8  1  0
  6  9  1  0
  1 10  1  0
  1 11  1  0
  1 12  1  0
  2 13  1  0
  3 14  1  0
  5 15  1  0
  5 16  1  0
  7 17  1  0
  7 18  1  0
  7 19  1  0
  8 20  1  0
  8 21  1  0
  8 22  1  0
  9 23  1  0
M  END
