
     RDKit          3D

 21 21  0  0  0  0  0  0  0  0999 V2000
   -2.0220    0.4194   -0.9428 C   0  0  0  0  0  0  0  0  0  0  0  0
   -1.3004   -0.4488    0.0650 C   0  0  0  0  0  0  0  0  0  0  0  0
   -1.7368   -0.1409    1.4646 C   0  0  0  0  0  0  0  0  0  0  0  0
    0.1750   -0.2585   -0.0087 C   0  0  0  0  0  0  0  0  0  0  0  0
    1.0472   -1.2012   -0.3326 C   0  0  0  0  0  0  0  0  0  0  0  0
    2.4238   -0.6535   -0.3021 C   0  0  0  0  0  0  0  0  0  0  0  0
    2.1910    0.8297   -0.4241 C   0  0  0  0  0  0  0  0  0  0  0  0
    0.8801    0.9884    0.2567 C   0  0  0  0  0  0  0  0  0  0  0  0
    0.5068    1.9797    0.8992 O   0  0  0  0  0  0  0  0  0  0  0  0
   -1.6532    0.1787   -1.9588 H   0  0  0  0  0  0  0  0  0  0  0  0
   -3.0942    0.0798   -0.9302 H   0  0  0  0  0  0  0  0  0  0  0  0
   -2.0188    1.4795   -0.6976 H   0  0  0  0  0  0  0  0  0  0  0  0
   -1.5927   -1.4951   -0.1532 H   0  0  0  0  0  0  0  0  0  0  0  0
   -1.2303    0.7597    1.8922 H   0  0  0  0  0  0  0  0  0  0  0  0
   -2.8318    0.0601    1.4664 H   0  0  0  0  0  0  0  0  0  0  0  0
   -1.4849   -1.0080    2.1095 H   0  0  0  0  0  0  0  0  0  0  0  0
    0.8048   -2.2331   -0.5869 H   0  0  0  0  0  0  0  0  0  0  0  0
    2.8468   -0.8350    0.7070 H   0  0  0  0  0  0  0  0  0  0  0  0
    3.0588   -1.0548   -1.1127 H   0  0  0  0  0  0  0  0  0  0  0  0
    2.0381    1.1438   -1.4831 H   0  0  0  0  0  0  0  0  0  0  0  0
    2.9927    1.4100    0.0724 H   0  0  0  0  0  0  0  0  0  0  0  0
  1  2  1  0
  2  3  1  0
  2  4  1  0
  4  5  2  0
  5  6  1  0
  6  7  1  0
  7  8  1  0
  8  9  2  0
  8  4  1  0
  1 10  1  0
  1 11  1  0
  1 12  1  0
  2 13  1  0
  3 14  1  0
  3 15  1  0
  3 16  1  0
  5 17  1  0
  6 18  1  0
  6 19  1  0
  7 20  1  0
  7 21  1  0
M  END
