
     RDKit          3D

 21 20  0  0  0  0  0  0  0  0999 V2000
   -1.4037    1.0909    0.2150 C   0  0  0  0  0  0  0  0  0  0  0  0
   -0.2899    0.0354    0.0280 C   0  0  0  0  0  0  0  0  0  0  0  0
   -0.7237   -0.9035   -1.0440 C   0  0  0  0  0  0  0  0  0  0  0  0
   -0.9345   -0.2419   -2.2512 O   0  0  0  0  0  0  0  0  0  0  0  0
   -0.2163   -0.6638    1.3819 C   0  0  0  0  0  0  0  0  0  0  0  0
    0.7286   -1.6589    1.4271 O   0  0  0  0  0  0  0  0  0  0  0  0
    0.9414    0.8119   -0.2625 C   0  0  0  0  0  0  0  0  0  0  0  0
    2.1676    0.0593   -0.5012 C   0  0  0  0  0  0  0  0  0  0  0  0
    2.3421   -1.1248   -0.5250 O   0  0  0  0  0  0  0  0  0  0  0  0
   -2.3843    0.6240    0.1375 H   0  0  0  0  0  0  0  0  0  0  0  0
   -1.2293    1.8713   -0.5519 H   0  0  0  0  0  0  0  0  0  0  0  0
   -1.1932    1.5632    1.1957 H   0  0  0  0  0  0  0  0  0  0  0  0
   -0.0429   -1.7306   -1.2367 H   0  0  0  0  0  0  0  0  0  0  0  0
   -1.7405   -1.3006   -0.7551 H   0  0  0  0  0  0  0  0  0  0  0  0
   -0.7641    0.7303   -2.1738 H   0  0  0  0  0  0  0  0  0  0  0  0
   -0.0755    0.0934    2.1869 H   0  0  0  0  0  0  0  0  0  0  0  0
   -1.2350   -1.1023    1.5657 H   0  0  0  0  0  0  0  0  0  0  0  0
    1.0718   -1.8149    2.3218 H   0  0  0  0  0  0  0  0  0  0  0  0
    0.7827    1.5155   -1.1062 H   0  0  0  0  0  0  0  0  0  0  0  0
    1.1283    1.4709    0.6361 H   0  0  0  0  0  0  0  0  0  0  0  0
    3.0703    0.6752   -0.6880 H   0  0  0  0  0  0  0  0  0  0  0  0
  1  2  1  0
  2  3  1  0
  3  4  1  0
  2  5  1  0
  5  6  1  0
  2  7  1  0
  7  8  1  0
  8  9  2  0
  1 10  1  0
  1 11  1  0
  1 12  1  0
  3 13  1  0
  3 14  1  0
  4 15  1  0
  5 16  1  0
  5 17  1  0
  6 18  1  0
  7 19  1  0
  7 20  1  0
  8 21  1  0
M  END
