
     RDKit          3D

 17 16  0  0  0  0  0  0  0  0999 V2000
   -1.3629   -0.9023    0.1266 C   0  0  0  0  0  0  0  0  0  0  0  0
   -0.5843    0.1062   -0.6816 C   0  0  0  0  0  0  0  0  0  0  0  0
   -1.4784    1.2572   -0.9421 C   0  0  0  0  0  0  0  0  0  0  0  0
   -2.3201    1.6143   -0.1509 O   0  0  0  0  0  0  0  0  0  0  0  0
    0.6126    0.6391    0.0593 C   0  0  0  0  0  0  0  0  0  0  0  0
    1.5985   -0.4303    0.4414 C   0  0  0  0  0  0  0  0  0  0  0  0
    2.0831   -1.0839   -0.6900 O   0  0  0  0  0  0  0  0  0  0  0  0
   -2.0259   -0.4099    0.8396 H   0  0  0  0  0  0  0  0  0  0  0  0
   -0.7364   -1.6130    0.6690 H   0  0  0  0  0  0  0  0  0  0  0  0
   -1.9975   -1.5059   -0.5806 H   0  0  0  0  0  0  0  0  0  0  0  0
   -0.3142   -0.3533   -1.6574 H   0  0  0  0  0  0  0  0  0  0  0  0
   -1.3758    1.7931   -1.8650 H   0  0  0  0  0  0  0  0  0  0  0  0
    1.1263    1.3533   -0.5996 H   0  0  0  0  0  0  0  0  0  0  0  0
    0.2397    1.2055    0.9357 H   0  0  0  0  0  0  0  0  0  0  0  0
    2.4573    0.0820    0.9241 H   0  0  0  0  0  0  0  0  0  0  0  0
    1.2009   -1.1635    1.1598 H   0  0  0  0  0  0  0  0  0  0  0  0
    2.8771   -0.5887   -1.0209 H   0  0  0  0  0  0  0  0  0  0  0  0
  1  2  1  0
  2  3  1  0
  3  4  2  0
  2  5  1  0
  5  6  1  0
  6  7  1  0
  1  8  1  0
  1  9  1  0
  1 10  1  0
  2 11  1  0
  3 12  1  0
  5 13  1  0
  5 14  1  0
  6 15  1  0
  6 16  1  0
  7 17  1  0
M  END
