
     RDKit          3D

 23 23  0  0  0  0  0  0  0  0999 V2000
   -2.6013    0.2141   -0.8366 C   0  0  0  0  0  0  0  0  0  0  0  0
   -1.5516    0.4716    0.2237 C   0  0  0  0  0  0  0  0  0  0  0  0
   -2.2397    0.4029    1.5679 C   0  0  0  0  0  0  0  0  0  0  0  0
   -0.5694   -0.4967    0.1007 O   0  0  0  0  0  0  0  0  0  0  0  0
    0.6784    0.0116   -0.1454 C   0  0  0  0  0  0  0  0  0  0  0  0
    1.7262   -0.5109    0.8462 C   0  0  0  0  0  0  0  0  0  0  0  0
    2.7088   -0.4706   -0.3298 C   0  0  0  0  0  0  0  0  0  0  0  0
    3.1494    0.8293   -0.5358 O   0  0  0  0  0  0  0  0  0  0  0  0
    1.4840   -0.7278   -1.2188 C   0  0  0  0  0  0  0  0  0  0  0  0
   -2.1110   -0.2856   -1.6973 H   0  0  0  0  0  0  0  0  0  0  0  0
   -3.3242   -0.5154   -0.3963 H   0  0  0  0  0  0  0  0  0  0  0  0
   -3.0974    1.1653   -1.1303 H   0  0  0  0  0  0  0  0  0  0  0  0
   -1.1519    1.5002    0.1001 H   0  0  0  0  0  0  0  0  0  0  0  0
   -1.6703    0.9439    2.3413 H   0  0  0  0  0  0  0  0  0  0  0  0
   -2.4456   -0.6631    1.8593 H   0  0  0  0  0  0  0  0  0  0  0  0
   -3.2294    0.8803    1.4556 H   0  0  0  0  0  0  0  0  0  0  0  0
    0.7711    1.1101   -0.2186 H   0  0  0  0  0  0  0  0  0  0  0  0
    1.9579    0.1573    1.6694 H   0  0  0  0  0  0  0  0  0  0  0  0
    1.4954   -1.5612    1.0660 H   0  0  0  0  0  0  0  0  0  0  0  0
    3.4558   -1.2607   -0.3383 H   0  0  0  0  0  0  0  0  0  0  0  0
    3.8529    0.8532   -1.2328 H   0  0  0  0  0  0  0  0  0  0  0  0
    1.1966   -1.8031   -1.1947 H   0  0  0  0  0  0  0  0  0  0  0  0
    1.5153   -0.2447   -2.1926 H   0  0  0  0  0  0  0  0  0  0  0  0
  1  2  1  0
  2  3  1  0
  2  4  1  0
  4  5  1  0
  5  6  1  0
  6  7  1  0
  7  8  1  0
  7  9  1  0
  9  5  1  0
  1 10  1  0
  1 11  1  0
  1 12  1  0
  2 13  1  0
  3 14  1  0
  3 15  1  0
  3 16  1  0
  5 17  1  0
  6 18  1  0
  6 19  1  0
  7 20  1  0
  8 21  1  0
  9 22  1  0
  9 23  1  0
M  END
