
     RDKit          3D

 25 25  0  0  0  0  0  0  0  0999 V2000
   -1.6993    1.1805   -0.3114 C   0  0  0  0  0  0  0  0  0  0  0  0
   -0.8996   -0.0251    0.1158 C   0  0  0  0  0  0  0  0  0  0  0  0
   -0.9552   -1.0311   -0.9961 C   0  0  0  0  0  0  0  0  0  0  0  0
   -1.5401   -0.6242    1.3333 C   0  0  0  0  0  0  0  0  0  0  0  0
    0.4865    0.4249    0.4583 C   0  0  0  0  0  0  0  0  0  0  0  0
    1.4474   -0.6307    0.9103 C   0  0  0  0  0  0  0  0  0  0  0  0
    2.0253   -0.6403   -0.4992 C   0  0  0  0  0  0  0  0  0  0  0  0
    1.3995    0.7244   -0.6938 C   0  0  0  0  0  0  0  0  0  0  0  0
    2.3649    1.6923   -0.4046 O   0  0  0  0  0  0  0  0  0  0  0  0
   -2.1463    1.6185    0.6066 H   0  0  0  0  0  0  0  0  0  0  0  0
   -2.5309    0.8303   -0.9571 H   0  0  0  0  0  0  0  0  0  0  0  0
   -1.0527    1.8857   -0.8544 H   0  0  0  0  0  0  0  0  0  0  0  0
   -0.6340   -2.0405   -0.7119 H   0  0  0  0  0  0  0  0  0  0  0  0
   -2.0450   -1.1221   -1.2826 H   0  0  0  0  0  0  0  0  0  0  0  0
   -0.4614   -0.6452   -1.9177 H   0  0  0  0  0  0  0  0  0  0  0  0
   -1.1990   -1.6796    1.4209 H   0  0  0  0  0  0  0  0  0  0  0  0
   -2.6409   -0.6952    1.1196 H   0  0  0  0  0  0  0  0  0  0  0  0
   -1.3278   -0.1047    2.2672 H   0  0  0  0  0  0  0  0  0  0  0  0
    0.4440    1.2717    1.1738 H   0  0  0  0  0  0  0  0  0  0  0  0
    2.1898   -0.2417    1.6512 H   0  0  0  0  0  0  0  0  0  0  0  0
    1.0398   -1.5716    1.2676 H   0  0  0  0  0  0  0  0  0  0  0  0
    3.1485   -0.6427   -0.5161 H   0  0  0  0  0  0  0  0  0  0  0  0
    1.6569   -1.4453   -1.1236 H   0  0  0  0  0  0  0  0  0  0  0  0
    0.9371    0.9044   -1.6648 H   0  0  0  0  0  0  0  0  0  0  0  0
    1.9923    2.6073   -0.3916 H   0  0  0  0  0  0  0  0  0  0  0  0
  1  2  1  0
  2  3  1  0
  2  4  1  0
  2  5  1  0
  5  6  1  0
  6  7  1  0
  7  8  1  0
  8  9  1  0
  8  5  1  0
  1 10  1  0
  1 11  1  0
  1 12  1  0
  3 13  1  0
  3 14  1  0
  3 15  1  0
  4 16  1  0
  4 17  1  0
  4 18  1  0
  5 19  1  0
  6 20  1  0
  6 21  1  0
  7 22  1  0
  7 23  1  0
  8 24  1  0
  9 25  1  0
M  END
