
     RDKit          3D

 25 25  0  0  0  0  0  0  0  0999 V2000
   -1.8888   -0.1555    1.3436 C   0  0  0  0  0  0  0  0  0  0  0  0
   -1.5258    0.4572    0.0056 C   0  0  0  0  0  0  0  0  0  0  0  0
   -2.7097    0.2526   -0.9198 C   0  0  0  0  0  0  0  0  0  0  0  0
   -0.3539   -0.2413   -0.6260 C   0  0  0  0  0  0  0  0  0  0  0  0
    0.8884   -0.1954    0.1999 C   0  0  0  0  0  0  0  0  0  0  0  0
    0.8011   -0.7732    1.4569 O   0  0  0  0  0  0  0  0  0  0  0  0
    1.6654    1.1056    0.1410 C   0  0  0  0  0  0  0  0  0  0  0  0
    2.9258    0.2511   -0.0494 C   0  0  0  0  0  0  0  0  0  0  0  0
    2.0261   -0.8173   -0.6251 C   0  0  0  0  0  0  0  0  0  0  0  0
   -1.5026   -1.1719    1.4701 H   0  0  0  0  0  0  0  0  0  0  0  0
   -3.0119   -0.2217    1.4411 H   0  0  0  0  0  0  0  0  0  0  0  0
   -1.5629    0.5289    2.1604 H   0  0  0  0  0  0  0  0  0  0  0  0
   -1.2964    1.5280    0.1550 H   0  0  0  0  0  0  0  0  0  0  0  0
   -2.9253    1.2391   -1.4156 H   0  0  0  0  0  0  0  0  0  0  0  0
   -3.5979   -0.1157   -0.3692 H   0  0  0  0  0  0  0  0  0  0  0  0
   -2.5027   -0.4963   -1.7097 H   0  0  0  0  0  0  0  0  0  0  0  0
   -0.1412    0.2850   -1.5840 H   0  0  0  0  0  0  0  0  0  0  0  0
   -0.6239   -1.2826   -0.8915 H   0  0  0  0  0  0  0  0  0  0  0  0
    1.1014   -1.7118    1.4703 H   0  0  0  0  0  0  0  0  0  0  0  0
    1.6992    1.6881    1.0663 H   0  0  0  0  0  0  0  0  0  0  0  0
    1.4318    1.6630   -0.7885 H   0  0  0  0  0  0  0  0  0  0  0  0
    3.5944    0.7487   -0.7797 H   0  0  0  0  0  0  0  0  0  0  0  0
    3.3850   -0.0826    0.8865 H   0  0  0  0  0  0  0  0  0  0  0  0
    2.2163   -1.8413   -0.3225 H   0  0  0  0  0  0  0  0  0  0  0  0
    1.9079   -0.6405   -1.7158 H   0  0  0  0  0  0  0  0  0  0  0  0
  1  2  1  0
  2  3  1  0
  2  4  1  0
  4  5  1  0
  5  6  1  0
  5  7  1  0
  7  8  1  0
  8  9  1  0
  9  5  1  0
  1 10  1  0
  1 11  1  0
  1 12  1  0
  2 13  1  0
  3 14  1  0
  3 15  1  0
  3 16  1  0
  4 17  1  0
  4 18  1  0
  6 19  1  0
  7 20  1  0
  7 21  1  0
  8 22  1  0
  8 23  1  0
  9 24  1  0
  9 25  1  0
M  END
