
     RDKit          3D

 21 21  0  0  0  0  0  0  0  0999 V2000
   -2.3903   -0.2722   -1.4151 C   0  0  0  0  0  0  0  0  0  0  0  0
   -1.9401   -0.3413    0.0191 C   0  0  0  0  0  0  0  0  0  0  0  0
   -2.8281    0.5507    0.8835 C   0  0  0  0  0  0  0  0  0  0  0  0
   -0.5290    0.0267    0.1728 C   0  0  0  0  0  0  0  0  0  0  0  0
    0.6374    0.3146    0.2965 C   0  0  0  0  0  0  0  0  0  0  0  0
    2.0708    0.6475    0.4640 C   0  0  0  0  0  0  0  0  0  0  0  0
    2.9685   -0.5200    0.5089 C   0  0  0  0  0  0  0  0  0  0  0  0
    2.9042    0.3728   -0.7264 C   0  0  0  0  0  0  0  0  0  0  0  0
    2.3402   -0.2572   -1.8279 O   0  0  0  0  0  0  0  0  0  0  0  0
   -1.5541   -0.2133   -2.1350 H   0  0  0  0  0  0  0  0  0  0  0  0
   -2.9786   -1.1832   -1.7071 H   0  0  0  0  0  0  0  0  0  0  0  0
   -3.0185    0.6421   -1.5957 H   0  0  0  0  0  0  0  0  0  0  0  0
   -2.0431   -1.3786    0.3790 H   0  0  0  0  0  0  0  0  0  0  0  0
   -2.4222    0.4274    1.9281 H   0  0  0  0  0  0  0  0  0  0  0  0
   -2.7687    1.6027    0.5854 H   0  0  0  0  0  0  0  0  0  0  0  0
   -3.8541    0.1409    0.8208 H   0  0  0  0  0  0  0  0  0  0  0  0
    2.3356    1.4951    1.1228 H   0  0  0  0  0  0  0  0  0  0  0  0
    2.5414   -1.5373    0.4544 H   0  0  0  0  0  0  0  0  0  0  0  0
    3.8937   -0.4594    1.1103 H   0  0  0  0  0  0  0  0  0  0  0  0
    3.7891    1.0165   -0.9440 H   0  0  0  0  0  0  0  0  0  0  0  0
    2.8458   -1.0744   -2.0683 H   0  0  0  0  0  0  0  0  0  0  0  0
  1  2  1  0
  2  3  1  0
  2  4  1  0
  4  5  3  0
  5  6  1  0
  6  7  1  0
  7  8  1  0
  8  9  1  0
  8  6  1  0
  1 10  1  0
  1 11  1  0
  1 12  1  0
  2 13  1  0
  3 14  1  0
  3 15  1  0
  3 16  1  0
  6 17  1  0
  7 18  1  0
  7 19  1  0
  8 20  1  0
  9 21  1  0
M  END
