
     RDKit          3D

 21 22  0  0  0  0  0  0  0  0999 V2000
   -2.1566   -0.5267    0.9635 C   0  0  0  0  0  0  0  0  0  0  0  0
   -1.3363    0.3352    0.0002 C   0  0  0  0  0  0  0  0  0  0  0  0
   -2.2507    0.7971   -1.1152 C   0  0  0  0  0  0  0  0  0  0  0  0
   -0.3206   -0.4911   -0.4796 O   0  0  0  0  0  0  0  0  0  0  0  0
    0.9036    0.0387   -0.1415 C   0  0  0  0  0  0  0  0  0  0  0  0
    1.9244   -0.9217    0.3762 C   0  0  0  0  0  0  0  0  0  0  0  0
    2.9676    0.0499   -0.0777 C   0  0  0  0  0  0  0  0  0  0  0  0
    1.9664   -0.0964   -1.1801 C   0  0  0  0  0  0  0  0  0  0  0  0
    1.9701   -1.4554   -0.9027 O   0  0  0  0  0  0  0  0  0  0  0  0
   -2.6672   -1.2782    0.3306 H   0  0  0  0  0  0  0  0  0  0  0  0
   -2.8237    0.0758    1.5817 H   0  0  0  0  0  0  0  0  0  0  0  0
   -1.3966   -1.0902    1.5618 H   0  0  0  0  0  0  0  0  0  0  0  0
   -0.9134    1.1958    0.5239 H   0  0  0  0  0  0  0  0  0  0  0  0
   -2.8178   -0.0559   -1.5415 H   0  0  0  0  0  0  0  0  0  0  0  0
   -2.9954    1.4871   -0.6270 H   0  0  0  0  0  0  0  0  0  0  0  0
   -1.7060    1.3911   -1.8571 H   0  0  0  0  0  0  0  0  0  0  0  0
    0.9178    0.9755    0.4213 H   0  0  0  0  0  0  0  0  0  0  0  0
    1.9019   -1.4311    1.2446 H   0  0  0  0  0  0  0  0  0  0  0  0
    3.9705   -0.3406   -0.2465 H   0  0  0  0  0  0  0  0  0  0  0  0
    2.8663    1.0066    0.4453 H   0  0  0  0  0  0  0  0  0  0  0  0
    1.9958    0.3347   -2.0902 H   0  0  0  0  0  0  0  0  0  0  0  0
  1  2  1  0
  2  3  1  0
  2  4  1  0
  4  5  1  0
  5  6  1  0
  6  7  1  0
  7  8  1  0
  8  9  1  0
  8  5  1  0
  9  6  1  0
  1 10  1  0
  1 11  1  0
  1 12  1  0
  2 13  1  0
  3 14  1  0
  3 15  1  0
  3 16  1  0
  5 17  1  0
  6 18  1  0
  7 19  1  0
  7 20  1  0
  8 21  1  0
M  END
