
     RDKit          3D

 25 25  0  0  0  0  0  0  0  0999 V2000
    1.7108    0.8807   -1.2009 C   0  0  0  0  0  0  0  0  0  0  0  0
    1.2777    0.3104    0.1032 C   0  0  0  0  0  0  0  0  0  0  0  0
    2.3888   -0.5178    0.6732 C   0  0  0  0  0  0  0  0  0  0  0  0
   -0.0337   -0.4177    0.0500 C   0  0  0  0  0  0  0  0  0  0  0  0
   -1.2495    0.3568   -0.3794 C   0  0  0  0  0  0  0  0  0  0  0  0
   -2.4911   -0.4701   -0.3937 C   0  0  0  0  0  0  0  0  0  0  0  0
   -1.4555    1.4539    0.6751 C   0  0  0  0  0  0  0  0  0  0  0  0
   -0.1521   -1.8697    0.1853 C   0  0  0  0  0  0  0  0  0  0  0  0
   -0.3819   -1.0553    1.3500 O   0  0  0  0  0  0  0  0  0  0  0  0
    1.3504    0.3237   -2.0903 H   0  0  0  0  0  0  0  0  0  0  0  0
    2.8382    0.8493   -1.2913 H   0  0  0  0  0  0  0  0  0  0  0  0
    1.4822    1.9835   -1.2830 H   0  0  0  0  0  0  0  0  0  0  0  0
    1.1306    1.1772    0.8128 H   0  0  0  0  0  0  0  0  0  0  0  0
    3.3812   -0.0554    0.4907 H   0  0  0  0  0  0  0  0  0  0  0  0
    2.4513   -1.5396    0.2524 H   0  0  0  0  0  0  0  0  0  0  0  0
    2.3201   -0.6199    1.7930 H   0  0  0  0  0  0  0  0  0  0  0  0
   -1.1358    0.8172   -1.3795 H   0  0  0  0  0  0  0  0  0  0  0  0
   -2.5042   -1.1244   -1.2983 H   0  0  0  0  0  0  0  0  0  0  0  0
   -2.6840   -1.0101    0.5399 H   0  0  0  0  0  0  0  0  0  0  0  0
   -3.3551    0.2339   -0.5422 H   0  0  0  0  0  0  0  0  0  0  0  0
   -2.5267    1.6932    0.7933 H   0  0  0  0  0  0  0  0  0  0  0  0
   -0.9424    2.3775    0.3642 H   0  0  0  0  0  0  0  0  0  0  0  0
   -1.0544    1.1413    1.6527 H   0  0  0  0  0  0  0  0  0  0  0  0
   -1.0472   -2.3746   -0.2389 H   0  0  0  0  0  0  0  0  0  0  0  0
    0.6826   -2.5440    0.3615 H   0  0  0  0  0  0  0  0  0  0  0  0
  1  2  1  0
  2  3  1  0
  2  4  1  0
  4  5  1  0
  5  6  1  0
  5  7  1  0
  4  8  1  0
  8  9  1  0
  9  4  1  0
  1 10  1  0
  1 11  1  0
  1 12  1  0
  2 13  1  0
  3 14  1  0
  3 15  1  0
  3 16  1  0
  5 17  1  0
  6 18  1  0
  6 19  1  0
  6 20  1  0
  7 21  1  0
  7 22  1  0
  7 23  1  0
  8 24  1  0
  8 25  1  0
M  END
