
     RDKit          3D

 21 21  0  0  0  0  0  0  0  0999 V2000
    1.6462    1.1721    0.4688 C   0  0  0  0  0  0  0  0  0  0  0  0
    1.1130    0.2367   -0.5917 C   0  0  0  0  0  0  0  0  0  0  0  0
    2.2584   -0.6000   -1.0539 C   0  0  0  0  0  0  0  0  0  0  0  0
    3.2836   -0.7418   -0.4161 O   0  0  0  0  0  0  0  0  0  0  0  0
    0.0965   -0.6837    0.0134 C   0  0  0  0  0  0  0  0  0  0  0  0
   -0.3891   -1.5439   -0.9777 O   0  0  0  0  0  0  0  0  0  0  0  0
   -1.0510    0.0311    0.6606 C   0  0  0  0  0  0  0  0  0  0  0  0
   -1.9379    0.9363   -0.1028 C   0  0  0  0  0  0  0  0  0  0  0  0
   -2.4627   -0.4132    0.2165 C   0  0  0  0  0  0  0  0  0  0  0  0
    1.5081    0.7220    1.4855 H   0  0  0  0  0  0  0  0  0  0  0  0
    1.1777    2.1591    0.4107 H   0  0  0  0  0  0  0  0  0  0  0  0
    2.7656    1.2901    0.3733 H   0  0  0  0  0  0  0  0  0  0  0  0
    0.7413    0.7799   -1.4801 H   0  0  0  0  0  0  0  0  0  0  0  0
    2.1968   -1.1243   -2.0152 H   0  0  0  0  0  0  0  0  0  0  0  0
    0.6077   -1.3038    0.7788 H   0  0  0  0  0  0  0  0  0  0  0  0
   -0.7227   -2.3532   -0.4817 H   0  0  0  0  0  0  0  0  0  0  0  0
   -0.9323    0.2652    1.7441 H   0  0  0  0  0  0  0  0  0  0  0  0
   -2.4351    1.7746    0.4212 H   0  0  0  0  0  0  0  0  0  0  0  0
   -1.7514    1.1501   -1.1807 H   0  0  0  0  0  0  0  0  0  0  0  0
   -2.5023   -1.1577   -0.6192 H   0  0  0  0  0  0  0  0  0  0  0  0
   -3.2104   -0.5955    0.9973 H   0  0  0  0  0  0  0  0  0  0  0  0
  1  2  1  0
  2  3  1  0
  3  4  2  0
  2  5  1  0
  5  6  1  0
  5  7  1  0
  7  8  1  0
  8  9  1  0
  9  7  1  0
  1 10  1  0
  1 11  1  0
  1 12  1  0
  2 13  1  0
  3 14  1  0
  5 15  1  0
  6 16  1  0
  7 17  1  0
  8 18  1  0
  8 19  1  0
  9 20  1  0
  9 21  1  0
M  END
