
     RDKit          3D

 17 17  0  0  0  0  0  0  0  0999 V2000
   -2.3588    0.3561   -0.9803 C   0  0  0  0  0  0  0  0  0  0  0  0
   -1.6732   -0.2615    0.2338 C   0  0  0  0  0  0  0  0  0  0  0  0
   -0.2357   -0.4112   -0.0273 C   0  0  0  0  0  0  0  0  0  0  0  0
    0.9517   -0.5318   -0.2219 C   0  0  0  0  0  0  0  0  0  0  0  0
    2.4091   -0.6542   -0.4584 C   0  0  0  0  0  0  0  0  0  0  0  0
    3.3330    0.1123    0.3510 C   0  0  0  0  0  0  0  0  0  0  0  0
    3.0574   -1.2188    0.6521 O   0  0  0  0  0  0  0  0  0  0  0  0
   -1.9299    0.5713    1.4262 C   0  0  0  0  0  0  0  0  0  0  0  0
   -0.9991    0.9383    2.1022 O   0  0  0  0  0  0  0  0  0  0  0  0
   -2.3810   -0.4345   -1.7669 H   0  0  0  0  0  0  0  0  0  0  0  0
   -1.8688    1.2724   -1.3136 H   0  0  0  0  0  0  0  0  0  0  0  0
   -3.4036    0.5994   -0.6969 H   0  0  0  0  0  0  0  0  0  0  0  0
   -2.0639   -1.2867    0.3866 H   0  0  0  0  0  0  0  0  0  0  0  0
    2.7491   -1.0786   -1.4027 H   0  0  0  0  0  0  0  0  0  0  0  0
    3.0190    0.8094    1.1480 H   0  0  0  0  0  0  0  0  0  0  0  0
    4.3208    0.3664   -0.0841 H   0  0  0  0  0  0  0  0  0  0  0  0
   -2.9261    0.8517    1.6964 H   0  0  0  0  0  0  0  0  0  0  0  0
  1  2  1  0
  2  3  1  0
  3  4  3  0
  4  5  1  0
  5  6  1  0
  6  7  1  0
  2  8  1  0
  8  9  2  0
  7  5  1  0
  1 10  1  0
  1 11  1  0
  1 12  1  0
  2 13  1  0
  5 14  1  0
  6 15  1  0
  6 16  1  0
  8 17  1  0
M  END
