
     RDKit          3D

 27 26  0  0  0  0  0  0  0  0999 V2000
    2.8257   -1.1385   -0.5701 C   0  0  0  0  0  0  0  0  0  0  0  0
    1.9229    0.0749   -0.4803 C   0  0  0  0  0  0  0  0  0  0  0  0
    2.5288    1.0241    0.5048 C   0  0  0  0  0  0  0  0  0  0  0  0
    0.5468   -0.3952   -0.0925 C   0  0  0  0  0  0  0  0  0  0  0  0
   -0.4520    0.7028    0.0335 C   0  0  0  0  0  0  0  0  0  0  0  0
   -1.7794    0.1119    0.4224 C   0  0  0  0  0  0  0  0  0  0  0  0
   -2.2833   -0.8791   -0.6050 C   0  0  0  0  0  0  0  0  0  0  0  0
   -2.8488    1.1381    0.6374 C   0  0  0  0  0  0  0  0  0  0  0  0
   -1.5862   -0.5549    1.6461 O   0  0  0  0  0  0  0  0  0  0  0  0
    3.8735   -0.8097   -0.7366 H   0  0  0  0  0  0  0  0  0  0  0  0
    2.4562   -1.7345   -1.4399 H   0  0  0  0  0  0  0  0  0  0  0  0
    2.6973   -1.7461    0.3315 H   0  0  0  0  0  0  0  0  0  0  0  0
    1.9201    0.5464   -1.4791 H   0  0  0  0  0  0  0  0  0  0  0  0
    2.1274    2.0461    0.4594 H   0  0  0  0  0  0  0  0  0  0  0  0
    2.5071    0.6445    1.5448 H   0  0  0  0  0  0  0  0  0  0  0  0
    3.6201    1.1116    0.2412 H   0  0  0  0  0  0  0  0  0  0  0  0
    0.1923   -1.0915   -0.8800 H   0  0  0  0  0  0  0  0  0  0  0  0
    0.5751   -0.9755    0.8494 H   0  0  0  0  0  0  0  0  0  0  0  0
   -0.1737    1.4337    0.8182 H   0  0  0  0  0  0  0  0  0  0  0  0
   -0.5675    1.2229   -0.9436 H   0  0  0  0  0  0  0  0  0  0  0  0
   -1.7229   -0.7486   -1.5425 H   0  0  0  0  0  0  0  0  0  0  0  0
   -2.2325   -1.9059   -0.1911 H   0  0  0  0  0  0  0  0  0  0  0  0
   -3.3656   -0.7046   -0.8513 H   0  0  0  0  0  0  0  0  0  0  0  0
   -3.2912    1.4357   -0.3370 H   0  0  0  0  0  0  0  0  0  0  0  0
   -2.4960    2.0245    1.2111 H   0  0  0  0  0  0  0  0  0  0  0  0
   -3.6527    0.6636    1.2585 H   0  0  0  0  0  0  0  0  0  0  0  0
   -1.3411   -1.4966    1.4238 H   0  0  0  0  0  0  0  0  0  0  0  0
  1  2  1  0
  2  3  1  0
  2  4  1  0
  4  5  1  0
  5  6  1  0
  6  7  1  0
  6  8  1  0
  6  9  1  0
  1 10  1  0
  1 11  1  0
  1 12  1  0
  2 13  1  0
  3 14  1  0
  3 15  1  0
  3 16  1  0
  4 17  1  0
  4 18  1  0
  5 19  1  0
  5 20  1  0
  7 21  1  0
  7 22  1  0
  7 23  1  0
  8 24  1  0
  8 25  1  0
  8 26  1  0
  9 27  1  0
M  END
