
     RDKit          3D

 23 22  0  0  0  0  0  0  0  0999 V2000
    1.5291    1.5372    0.6797 C   0  0  0  0  0  0  0  0  0  0  0  0
    1.0893    0.3477   -0.1480 C   0  0  0  0  0  0  0  0  0  0  0  0
    2.2677   -0.5885   -0.3117 C   0  0  0  0  0  0  0  0  0  0  0  0
    2.7258   -1.0042    0.9314 O   0  0  0  0  0  0  0  0  0  0  0  0
    0.0314   -0.2573    0.5119 O   0  0  0  0  0  0  0  0  0  0  0  0
   -1.0702   -0.2199   -0.3124 C   0  0  0  0  0  0  0  0  0  0  0  0
   -1.5145   -1.6644   -0.5282 C   0  0  0  0  0  0  0  0  0  0  0  0
   -2.2362    0.5182    0.2888 C   0  0  0  0  0  0  0  0  0  0  0  0
   -1.9490    1.8365    0.5828 O   0  0  0  0  0  0  0  0  0  0  0  0
    1.6173    1.1930    1.7439 H   0  0  0  0  0  0  0  0  0  0  0  0
    0.7611    2.3168    0.5587 H   0  0  0  0  0  0  0  0  0  0  0  0
    2.5165    1.8554    0.2915 H   0  0  0  0  0  0  0  0  0  0  0  0
    0.7938    0.7112   -1.1700 H   0  0  0  0  0  0  0  0  0  0  0  0
    1.9447   -1.4770   -0.9140 H   0  0  0  0  0  0  0  0  0  0  0  0
    3.0547   -0.0962   -0.9150 H   0  0  0  0  0  0  0  0  0  0  0  0
    2.4095   -1.9151    1.0842 H   0  0  0  0  0  0  0  0  0  0  0  0
   -0.8444    0.2765   -1.2853 H   0  0  0  0  0  0  0  0  0  0  0  0
   -0.6526   -2.1783   -1.0178 H   0  0  0  0  0  0  0  0  0  0  0  0
   -2.4413   -1.7334   -1.0995 H   0  0  0  0  0  0  0  0  0  0  0  0
   -1.6664   -2.0917    0.4954 H   0  0  0  0  0  0  0  0  0  0  0  0
   -3.0477    0.5264   -0.4759 H   0  0  0  0  0  0  0  0  0  0  0  0
   -2.6341   -0.0406    1.1620 H   0  0  0  0  0  0  0  0  0  0  0  0
   -2.6844    2.1479    1.2008 H   0  0  0  0  0  0  0  0  0  0  0  0
  1  2  1  0
  2  3  1  0
  3  4  1  0
  2  5  1  0
  5  6  1  0
  6  7  1  0
  6  8  1  0
  8  9  1  0
  1 10  1  0
  1 11  1  0
  1 12  1  0
  2 13  1  0
  3 14  1  0
  3 15  1  0
  4 16  1  0
  6 17  1  0
  7 18  1  0
  7 19  1  0
  7 20  1  0
  8 21  1  0
  8 22  1  0
  9 23  1  0
M  END
