
     RDKit          3D

 23 23  0  0  0  0  0  0  0  0999 V2000
   -0.8493    0.8448    1.3535 C   0  0  0  0  0  0  0  0  0  0  0  0
   -0.8517    0.7190   -0.1195 C   0  0  0  0  0  0  0  0  0  0  0  0
   -2.2949    0.3999   -0.5533 C   0  0  0  0  0  0  0  0  0  0  0  0
    0.0037   -0.2995   -0.7374 C   0  0  0  0  0  0  0  0  0  0  0  0
   -0.3674   -1.7057   -0.2503 C   0  0  0  0  0  0  0  0  0  0  0  0
    0.6918   -1.6042    0.6806 O   0  0  0  0  0  0  0  0  0  0  0  0
    1.2882   -0.7247   -0.1881 C   0  0  0  0  0  0  0  0  0  0  0  0
    2.2318    0.2702    0.3955 C   0  0  0  0  0  0  0  0  0  0  0  0
    2.7882    1.1188   -0.5440 O   0  0  0  0  0  0  0  0  0  0  0  0
   -1.8984    0.9447    1.7431 H   0  0  0  0  0  0  0  0  0  0  0  0
   -0.3536    1.8161    1.6519 H   0  0  0  0  0  0  0  0  0  0  0  0
   -0.3454    0.0665    1.9252 H   0  0  0  0  0  0  0  0  0  0  0  0
   -0.6505    1.7383   -0.5684 H   0  0  0  0  0  0  0  0  0  0  0  0
   -2.3007   -0.2137   -1.4717 H   0  0  0  0  0  0  0  0  0  0  0  0
   -2.8566    1.3263   -0.7784 H   0  0  0  0  0  0  0  0  0  0  0  0
   -2.7980   -0.2072    0.2407 H   0  0  0  0  0  0  0  0  0  0  0  0
   -0.0255   -0.2284   -1.8428 H   0  0  0  0  0  0  0  0  0  0  0  0
   -1.3657   -1.7312    0.1778 H   0  0  0  0  0  0  0  0  0  0  0  0
   -0.1203   -2.4256   -1.0334 H   0  0  0  0  0  0  0  0  0  0  0  0
    1.8488   -1.3305   -0.9648 H   0  0  0  0  0  0  0  0  0  0  0  0
    1.7941    0.8690    1.2118 H   0  0  0  0  0  0  0  0  0  0  0  0
    3.1073   -0.2598    0.8775 H   0  0  0  0  0  0  0  0  0  0  0  0
    3.3242    0.6169   -1.2057 H   0  0  0  0  0  0  0  0  0  0  0  0
  1  2  1  0
  2  3  1  0
  2  4  1  0
  4  5  1  0
  5  6  1  0
  6  7  1  0
  7  8  1  0
  8  9  1  0
  7  4  1  0
  1 10  1  0
  1 11  1  0
  1 12  1  0
  2 13  1  0
  3 14  1  0
  3 15  1  0
  3 16  1  0
  4 17  1  0
  5 18  1  0
  5 19  1  0
  7 20  1  0
  8 21  1  0
  8 22  1  0
  9 23  1  0
M  END
