
     RDKit          3D

 20 20  0  0  0  0  0  0  0  0999 V2000
   -1.1218   -1.4648   -0.4834 C   0  0  0  0  0  0  0  0  0  0  0  0
   -0.5727   -0.2741    0.2869 C   0  0  0  0  0  0  0  0  0  0  0  0
   -1.1552    0.9616   -0.3190 C   0  0  0  0  0  0  0  0  0  0  0  0
   -2.5435    0.8786   -0.2002 O   0  0  0  0  0  0  0  0  0  0  0  0
    0.9277   -0.3077    0.2911 C   0  0  0  0  0  0  0  0  0  0  0  0
    1.4561   -1.4574    0.8824 O   0  0  0  0  0  0  0  0  0  0  0  0
    1.7324    0.3218   -0.7626 C   0  0  0  0  0  0  0  0  0  0  0  0
    1.6657    0.9433    0.6016 C   0  0  0  0  0  0  0  0  0  0  0  0
   -2.1985   -1.5496   -0.1677 H   0  0  0  0  0  0  0  0  0  0  0  0
   -0.5980   -2.3617   -0.0848 H   0  0  0  0  0  0  0  0  0  0  0  0
   -1.0145   -1.3424   -1.5621 H   0  0  0  0  0  0  0  0  0  0  0  0
   -0.9520   -0.3629    1.3261 H   0  0  0  0  0  0  0  0  0  0  0  0
   -0.9416    1.0589   -1.4015 H   0  0  0  0  0  0  0  0  0  0  0  0
   -0.8559    1.8868    0.2258 H   0  0  0  0  0  0  0  0  0  0  0  0
   -2.9946    1.7237   -0.3564 H   0  0  0  0  0  0  0  0  0  0  0  0
    1.4843   -2.2139    0.2303 H   0  0  0  0  0  0  0  0  0  0  0  0
    1.2614    0.8708   -1.6255 H   0  0  0  0  0  0  0  0  0  0  0  0
    2.7205   -0.1110   -1.0272 H   0  0  0  0  0  0  0  0  0  0  0  0
    2.5877    0.9063    1.2493 H   0  0  0  0  0  0  0  0  0  0  0  0
    1.1127    1.8938    0.7595 H   0  0  0  0  0  0  0  0  0  0  0  0
  1  2  1  0
  2  3  1  0
  3  4  1  0
  2  5  1  0
  5  6  1  0
  5  7  1  0
  7  8  1  0
  8  5  1  0
  1  9  1  0
  1 10  1  0
  1 11  1  0
  2 12  1  0
  3 13  1  0
  3 14  1  0
  4 15  1  0
  6 16  1  0
  7 17  1  0
  7 18  1  0
  8 19  1  0
  8 20  1  0
M  END
