
     RDKit          3D

 21 20  0  0  0  0  0  0  0  0999 V2000
   -1.3842   -1.2965   -0.2043 C   0  0  0  0  0  0  0  0  0  0  0  0
   -0.9456   -0.0535    0.5849 C   0  0  0  0  0  0  0  0  0  0  0  0
   -2.1825    0.8172    0.6951 C   0  0  0  0  0  0  0  0  0  0  0  0
    0.1359    0.6621   -0.1572 C   0  0  0  0  0  0  0  0  0  0  0  0
    1.3706   -0.1284   -0.4066 C   0  0  0  0  0  0  0  0  0  0  0  0
    2.0670   -0.6155    0.7843 C   0  0  0  0  0  0  0  0  0  0  0  0
    3.1789   -1.0950    0.6196 O   0  0  0  0  0  0  0  0  0  0  0  0
    2.3023    0.6877   -1.2054 C   0  0  0  0  0  0  0  0  0  0  0  0
    2.2928    0.6520   -2.4049 O   0  0  0  0  0  0  0  0  0  0  0  0
   -1.7570   -0.8838   -1.1847 H   0  0  0  0  0  0  0  0  0  0  0  0
   -2.2713   -1.7438    0.2881 H   0  0  0  0  0  0  0  0  0  0  0  0
   -0.5617   -1.9881   -0.3794 H   0  0  0  0  0  0  0  0  0  0  0  0
   -0.6844   -0.4133    1.5727 H   0  0  0  0  0  0  0  0  0  0  0  0
   -2.1532    1.4833    1.5818 H   0  0  0  0  0  0  0  0  0  0  0  0
   -2.1993    1.4448   -0.2256 H   0  0  0  0  0  0  0  0  0  0  0  0
   -3.1181    0.2051    0.7387 H   0  0  0  0  0  0  0  0  0  0  0  0
   -0.2757    0.9688   -1.1423 H   0  0  0  0  0  0  0  0  0  0  0  0
    0.3668    1.6055    0.3809 H   0  0  0  0  0  0  0  0  0  0  0  0
    1.1182   -1.0325   -1.0323 H   0  0  0  0  0  0  0  0  0  0  0  0
    1.7033   -0.5974    1.7991 H   0  0  0  0  0  0  0  0  0  0  0  0
    2.9970    1.3212   -0.7026 H   0  0  0  0  0  0  0  0  0  0  0  0
  1  2  1  0
  2  3  1  0
  2  4  1  0
  4  5  1  0
  5  6  1  0
  6  7  2  0
  5  8  1  0
  8  9  2  0
  1 10  1  0
  1 11  1  0
  1 12  1  0
  2 13  1  0
  3 14  1  0
  3 15  1  0
  3 16  1  0
  4 17  1  0
  4 18  1  0
  5 19  1  0
  6 20  1  0
  8 21  1  0
M  END
