
     RDKit          3D

 19 18  0  0  0  0  0  0  0  0999 V2000
   -1.2321    1.5695   -0.6129 C   0  0  0  0  0  0  0  0  0  0  0  0
   -0.3798    0.3186   -0.6727 C   0  0  0  0  0  0  0  0  0  0  0  0
    0.8275    0.5132    0.2318 C   0  0  0  0  0  0  0  0  0  0  0  0
    1.7023   -0.7433    0.1843 C   0  0  0  0  0  0  0  0  0  0  0  0
    2.8046   -0.5743    1.0058 O   0  0  0  0  0  0  0  0  0  0  0  0
   -1.1244   -0.9001   -0.3627 C   0  0  0  0  0  0  0  0  0  0  0  0
   -1.2025   -1.8180   -1.2191 O   0  0  0  0  0  0  0  0  0  0  0  0
   -1.8012   -1.1243    0.9137 C   0  0  0  0  0  0  0  0  0  0  0  0
   -1.7681   -0.2523    1.8203 O   0  0  0  0  0  0  0  0  0  0  0  0
   -1.8052    1.7058   -1.5594 H   0  0  0  0  0  0  0  0  0  0  0  0
   -1.8994    1.6052    0.2516 H   0  0  0  0  0  0  0  0  0  0  0  0
   -0.5177    2.4270   -0.5740 H   0  0  0  0  0  0  0  0  0  0  0  0
    0.0245    0.2664   -1.7036 H   0  0  0  0  0  0  0  0  0  0  0  0
    0.5585    0.7648    1.2560 H   0  0  0  0  0  0  0  0  0  0  0  0
    1.4203    1.3379   -0.2136 H   0  0  0  0  0  0  0  0  0  0  0  0
    2.0324   -0.8905   -0.8748 H   0  0  0  0  0  0  0  0  0  0  0  0
    1.0874   -1.5954    0.5188 H   0  0  0  0  0  0  0  0  0  0  0  0
    3.6201   -0.5836    0.4793 H   0  0  0  0  0  0  0  0  0  0  0  0
   -2.3473   -2.0268    1.1313 H   0  0  0  0  0  0  0  0  0  0  0  0
  1  2  1  0
  2  3  1  0
  3  4  1  0
  4  5  1  0
  2  6  1  0
  6  7  2  0
  6  8  1  0
  8  9  2  0
  1 10  1  0
  1 11  1  0
  1 12  1  0
  2 13  1  0
  3 14  1  0
  3 15  1  0
  4 16  1  0
  4 17  1  0
  5 18  1  0
  8 19  1  0
M  END
