
     RDKit          3D

 25 25  0  0  0  0  0  0  0  0999 V2000
   -1.5981   -1.0098    1.2155 C   0  0  0  0  0  0  0  0  0  0  0  0
   -1.3885   -0.3390   -0.0919 C   0  0  0  0  0  0  0  0  0  0  0  0
   -1.9413    1.0762   -0.0618 C   0  0  0  0  0  0  0  0  0  0  0  0
   -0.0068   -0.3216   -0.6357 C   0  0  0  0  0  0  0  0  0  0  0  0
    0.0558    0.4004   -2.0045 C   0  0  0  0  0  0  0  0  0  0  0  0
    0.8032   -1.4326   -0.6051 O   0  0  0  0  0  0  0  0  0  0  0  0
    1.2302   -0.3323    0.1282 C   0  0  0  0  0  0  0  0  0  0  0  0
    2.3675    0.5118   -0.4277 C   0  0  0  0  0  0  0  0  0  0  0  0
    1.3501   -0.5745    1.5932 C   0  0  0  0  0  0  0  0  0  0  0  0
   -1.2576   -2.0649    1.1616 H   0  0  0  0  0  0  0  0  0  0  0  0
   -2.7226   -1.0714    1.3636 H   0  0  0  0  0  0  0  0  0  0  0  0
   -1.2218   -0.4358    2.0582 H   0  0  0  0  0  0  0  0  0  0  0  0
   -2.0466   -0.8798   -0.8374 H   0  0  0  0  0  0  0  0  0  0  0  0
   -2.5499    1.2543    0.8333 H   0  0  0  0  0  0  0  0  0  0  0  0
   -1.0895    1.8150   -0.0299 H   0  0  0  0  0  0  0  0  0  0  0  0
   -2.5297    1.3186   -0.9693 H   0  0  0  0  0  0  0  0  0  0  0  0
    1.0724    0.7175   -2.2406 H   0  0  0  0  0  0  0  0  0  0  0  0
   -0.5924    1.2909   -1.9860 H   0  0  0  0  0  0  0  0  0  0  0  0
   -0.2754   -0.3165   -2.7725 H   0  0  0  0  0  0  0  0  0  0  0  0
    3.2125    0.6076    0.2854 H   0  0  0  0  0  0  0  0  0  0  0  0
    1.9583    1.5338   -0.5721 H   0  0  0  0  0  0  0  0  0  0  0  0
    2.7949    0.0784   -1.3545 H   0  0  0  0  0  0  0  0  0  0  0  0
    1.0219    0.3401    2.1293 H   0  0  0  0  0  0  0  0  0  0  0  0
    2.4429   -0.6566    1.8703 H   0  0  0  0  0  0  0  0  0  0  0  0
    0.9105   -1.5097    1.9503 H   0  0  0  0  0  0  0  0  0  0  0  0
  1  2  1  0
  2  3  1  0
  2  4  1  0
  4  5  1  0
  4  6  1  0
  6  7  1  0
  7  8  1  0
  7  9  1  0
  7  4  1  0
  1 10  1  0
  1 11  1  0
  1 12  1  0
  2 13  1  0
  3 14  1  0
  3 15  1  0
  3 16  1  0
  5 17  1  0
  5 18  1  0
  5 19  1  0
  8 20  1  0
  8 21  1  0
  8 22  1  0
  9 23  1  0
  9 24  1  0
  9 25  1  0
M  END
