
     RDKit          3D

 25 25  0  0  0  0  0  0  0  0999 V2000
   -0.9808   -1.5627    0.4280 C   0  0  0  0  0  0  0  0  0  0  0  0
   -0.8397   -0.1008    0.0115 C   0  0  0  0  0  0  0  0  0  0  0  0
   -1.2633    0.0966   -1.4279 C   0  0  0  0  0  0  0  0  0  0  0  0
   -1.6828    0.7125    0.9666 C   0  0  0  0  0  0  0  0  0  0  0  0
    0.6099    0.3132    0.1839 C   0  0  0  0  0  0  0  0  0  0  0  0
    0.8274    1.7511   -0.2096 C   0  0  0  0  0  0  0  0  0  0  0  0
    1.5758   -0.5692   -0.5955 C   0  0  0  0  0  0  0  0  0  0  0  0
    2.2101   -0.7655    0.7450 C   0  0  0  0  0  0  0  0  0  0  0  0
    1.1700   -0.0800    1.3836 O   0  0  0  0  0  0  0  0  0  0  0  0
   -2.0714   -1.7122    0.6189 H   0  0  0  0  0  0  0  0  0  0  0  0
   -0.3991   -1.6803    1.3783 H   0  0  0  0  0  0  0  0  0  0  0  0
   -0.6219   -2.2544   -0.3389 H   0  0  0  0  0  0  0  0  0  0  0  0
   -1.9645    0.9561   -1.4868 H   0  0  0  0  0  0  0  0  0  0  0  0
   -0.3989    0.2489   -2.1056 H   0  0  0  0  0  0  0  0  0  0  0  0
   -1.8124   -0.8346   -1.7464 H   0  0  0  0  0  0  0  0  0  0  0  0
   -1.1040    1.1272    1.8108 H   0  0  0  0  0  0  0  0  0  0  0  0
   -2.4711    0.0585    1.4415 H   0  0  0  0  0  0  0  0  0  0  0  0
   -2.2244    1.5306    0.4199 H   0  0  0  0  0  0  0  0  0  0  0  0
    0.4432    2.4725    0.5320 H   0  0  0  0  0  0  0  0  0  0  0  0
    1.9078    1.9676   -0.4152 H   0  0  0  0  0  0  0  0  0  0  0  0
    0.2813    1.9227   -1.1572 H   0  0  0  0  0  0  0  0  0  0  0  0
    1.1250   -1.4710   -1.0445 H   0  0  0  0  0  0  0  0  0  0  0  0
    2.2468   -0.0400   -1.2829 H   0  0  0  0  0  0  0  0  0  0  0  0
    2.2562   -1.8521    0.9892 H   0  0  0  0  0  0  0  0  0  0  0  0
    3.1809   -0.2347    0.9012 H   0  0  0  0  0  0  0  0  0  0  0  0
  1  2  1  0
  2  3  1  0
  2  4  1  0
  2  5  1  0
  5  6  1  0
  5  7  1  0
  7  8  1  0
  8  9  1  0
  9  5  1  0
  1 10  1  0
  1 11  1  0
  1 12  1  0
  3 13  1  0
  3 14  1  0
  3 15  1  0
  4 16  1  0
  4 17  1  0
  4 18  1  0
  6 19  1  0
  6 20  1  0
  6 21  1  0
  7 22  1  0
  7 23  1  0
  8 24  1  0
  8 25  1  0
M  END
