
     RDKit          3D

 23 24  0  0  0  0  0  0  0  0999 V2000
   -2.1569   -0.7382   -0.6627 C   0  0  0  0  0  0  0  0  0  0  0  0
   -1.2379    0.3456   -0.1334 C   0  0  0  0  0  0  0  0  0  0  0  0
   -1.9693    1.1940    0.8495 C   0  0  0  0  0  0  0  0  0  0  0  0
    0.0226   -0.2926    0.4786 C   0  0  0  0  0  0  0  0  0  0  0  0
   -0.3575   -1.1508    1.5434 O   0  0  0  0  0  0  0  0  0  0  0  0
    1.2147    0.4483    0.6649 C   0  0  0  0  0  0  0  0  0  0  0  0
    2.6591    0.0079    0.4057 C   0  0  0  0  0  0  0  0  0  0  0  0
    2.1437    0.2017   -1.0409 C   0  0  0  0  0  0  0  0  0  0  0  0
    1.0316   -0.6737   -0.4459 C   0  0  0  0  0  0  0  0  0  0  0  0
   -1.8426   -1.7306   -0.2802 H   0  0  0  0  0  0  0  0  0  0  0  0
   -2.1423   -0.7757   -1.7687 H   0  0  0  0  0  0  0  0  0  0  0  0
   -3.2061   -0.5988   -0.2750 H   0  0  0  0  0  0  0  0  0  0  0  0
   -0.9488    0.9905   -0.9958 H   0  0  0  0  0  0  0  0  0  0  0  0
   -1.9193    2.2916    0.5856 H   0  0  0  0  0  0  0  0  0  0  0  0
   -3.0643    0.9678    0.8603 H   0  0  0  0  0  0  0  0  0  0  0  0
   -1.5691    1.1256    1.8788 H   0  0  0  0  0  0  0  0  0  0  0  0
   -0.1584   -2.0954    1.3238 H   0  0  0  0  0  0  0  0  0  0  0  0
    1.1429    1.5065    0.2506 H   0  0  0  0  0  0  0  0  0  0  0  0
    3.3854    0.7565    0.7234 H   0  0  0  0  0  0  0  0  0  0  0  0
    2.8689   -1.0379    0.6184 H   0  0  0  0  0  0  0  0  0  0  0  0
    2.7207   -0.3209   -1.7968 H   0  0  0  0  0  0  0  0  0  0  0  0
    1.8494    1.2375   -1.2465 H   0  0  0  0  0  0  0  0  0  0  0  0
    1.5336   -1.6590   -0.1796 H   0  0  0  0  0  0  0  0  0  0  0  0
  1  2  1  0
  2  3  1  0
  2  4  1  0
  4  5  1  0
  4  6  1  0
  6  7  1  0
  7  8  1  0
  8  9  1  0
  9  4  1  0
  9  6  1  0
  1 10  1  0
  1 11  1  0
  1 12  1  0
  2 13  1  0
  3 14  1  0
  3 15  1  0
  3 16  1  0
  5 17  1  0
  6 18  1  0
  7 19  1  0
  7 20  1  0
  8 21  1  0
  8 22  1  0
  9 23  1  0
M  END
