
     RDKit          3D

 25 25  0  0  0  0  0  0  0  0999 V2000
   -2.0555   -1.2104   -0.3396 C   0  0  0  0  0  0  0  0  0  0  0  0
   -1.7114    0.0872    0.3239 C   0  0  0  0  0  0  0  0  0  0  0  0
   -3.0015    0.9232    0.3455 C   0  0  0  0  0  0  0  0  0  0  0  0
   -0.6941    0.8963   -0.4031 C   0  0  0  0  0  0  0  0  0  0  0  0
    0.6317    0.2703   -0.6083 C   0  0  0  0  0  0  0  0  0  0  0  0
    1.3581   -0.1051    0.6560 C   0  0  0  0  0  0  0  0  0  0  0  0
    2.6783   -0.7273    0.3954 C   0  0  0  0  0  0  0  0  0  0  0  0
    3.7757   -0.1368   -0.2957 C   0  0  0  0  0  0  0  0  0  0  0  0
    3.7755   -0.0338    1.0847 O   0  0  0  0  0  0  0  0  0  0  0  0
   -3.0977   -1.4751   -0.0061 H   0  0  0  0  0  0  0  0  0  0  0  0
   -2.1254   -1.1286   -1.4478 H   0  0  0  0  0  0  0  0  0  0  0  0
   -1.4241   -2.0582   -0.0218 H   0  0  0  0  0  0  0  0  0  0  0  0
   -1.4738   -0.1163    1.3744 H   0  0  0  0  0  0  0  0  0  0  0  0
   -3.0839    1.5214    1.2614 H   0  0  0  0  0  0  0  0  0  0  0  0
   -3.8941    0.2827    0.2791 H   0  0  0  0  0  0  0  0  0  0  0  0
   -3.0419    1.5883   -0.5636 H   0  0  0  0  0  0  0  0  0  0  0  0
   -1.1152    1.1498   -1.3991 H   0  0  0  0  0  0  0  0  0  0  0  0
   -0.5902    1.8674    0.1314 H   0  0  0  0  0  0  0  0  0  0  0  0
    1.2730    0.9907   -1.1560 H   0  0  0  0  0  0  0  0  0  0  0  0
    0.5609   -0.6388   -1.2398 H   0  0  0  0  0  0  0  0  0  0  0  0
    0.7048   -0.8938    1.1356 H   0  0  0  0  0  0  0  0  0  0  0  0
    1.4750    0.7307    1.3492 H   0  0  0  0  0  0  0  0  0  0  0  0
    2.7685   -1.8222    0.6545 H   0  0  0  0  0  0  0  0  0  0  0  0
    4.5717   -0.7982   -0.6946 H   0  0  0  0  0  0  0  0  0  0  0  0
    3.7354    0.8366   -0.8156 H   0  0  0  0  0  0  0  0  0  0  0  0
  1  2  1  0
  2  3  1  0
  2  4  1  0
  4  5  1  0
  5  6  1  0
  6  7  1  0
  7  8  1  0
  8  9  1  0
  9  7  1  0
  1 10  1  0
  1 11  1  0
  1 12  1  0
  2 13  1  0
  3 14  1  0
  3 15  1  0
  3 16  1  0
  4 17  1  0
  4 18  1  0
  5 19  1  0
  5 20  1  0
  6 21  1  0
  6 22  1  0
  7 23  1  0
  8 24  1  0
  8 25  1  0
M  END
