
     RDKit          3D

 22 22  0  0  0  0  0  0  0  0999 V2000
   -2.1352   -0.2924   -1.1061 C   0  0  0  0  0  0  0  0  0  0  0  0
   -0.9575    0.4317   -0.4048 C   0  0  0  0  0  0  0  0  0  0  0  0
   -1.2582    0.1990    1.0576 C   0  0  0  0  0  0  0  0  0  0  0  0
   -2.5366    0.7747    1.2929 O   0  0  0  0  0  0  0  0  0  0  0  0
    0.2944   -0.2099   -0.8539 C   0  0  0  0  0  0  0  0  0  0  0  0
    1.5910    0.2564   -0.3651 C   0  0  0  0  0  0  0  0  0  0  0  0
    2.1162    0.3021    0.9793 C   0  0  0  0  0  0  0  0  0  0  0  0
    2.5412   -0.8501    0.1405 C   0  0  0  0  0  0  0  0  0  0  0  0
   -3.0871   -0.0378   -0.6300 H   0  0  0  0  0  0  0  0  0  0  0  0
   -2.0904   -0.1516   -2.1868 H   0  0  0  0  0  0  0  0  0  0  0  0
   -1.9546   -1.3805   -0.9147 H   0  0  0  0  0  0  0  0  0  0  0  0
   -1.0783    1.4899   -0.6874 H   0  0  0  0  0  0  0  0  0  0  0  0
   -1.2661   -0.8732    1.2778 H   0  0  0  0  0  0  0  0  0  0  0  0
   -0.5880    0.7775    1.7229 H   0  0  0  0  0  0  0  0  0  0  0  0
   -2.3776    1.7637    1.2326 H   0  0  0  0  0  0  0  0  0  0  0  0
    0.1531   -1.3242   -0.6665 H   0  0  0  0  0  0  0  0  0  0  0  0
    0.2748   -0.1838   -1.9891 H   0  0  0  0  0  0  0  0  0  0  0  0
    2.1253    0.9577   -1.0997 H   0  0  0  0  0  0  0  0  0  0  0  0
    1.6066    0.0621    1.9175 H   0  0  0  0  0  0  0  0  0  0  0  0
    2.9728    1.0144    1.1937 H   0  0  0  0  0  0  0  0  0  0  0  0
    3.5432   -0.9088   -0.3074 H   0  0  0  0  0  0  0  0  0  0  0  0
    2.1110   -1.8170    0.3965 H   0  0  0  0  0  0  0  0  0  0  0  0
  1  2  1  0
  2  3  1  0
  3  4  1  0
  2  5  1  0
  5  6  1  0
  6  7  1  0
  7  8  1  0
  8  6  1  0
  1  9  1  0
  1 10  1  0
  1 11  1  0
  2 12  1  0
  3 13  1  0
  3 14  1  0
  4 15  1  0
  5 16  1  0
  5 17  1  0
  6 18  1  0
  7 19  1  0
  7 20  1  0
  8 21  1  0
  8 22  1  0
M  END
