
     RDKit          3D

 24 24  0  0  0  0  0  0  0  0999 V2000
   -2.3583   -0.5171    0.8328 C   0  0  0  0  0  0  0  0  0  0  0  0
   -1.3272    0.5434    0.4128 C   0  0  0  0  0  0  0  0  0  0  0  0
   -1.6009    0.8855   -0.9945 C   0  0  0  0  0  0  0  0  0  0  0  0
    0.0157    0.0736    0.7771 C   0  0  0  0  0  0  0  0  0  0  0  0
    0.4041   -1.2567    0.0972 C   0  0  0  0  0  0  0  0  0  0  0  0
    1.2327    0.0235    0.0306 C   0  0  0  0  0  0  0  0  0  0  0  0
    2.5462   -0.1132    0.8264 C   0  0  0  0  0  0  0  0  0  0  0  0
    1.5280    0.4912   -1.3357 C   0  0  0  0  0  0  0  0  0  0  0  0
   -2.5633   -1.2021   -0.0278 H   0  0  0  0  0  0  0  0  0  0  0  0
   -1.9340   -1.0267    1.7045 H   0  0  0  0  0  0  0  0  0  0  0  0
   -3.3111   -0.0521    1.0998 H   0  0  0  0  0  0  0  0  0  0  0  0
   -1.6132    1.4426    1.0324 H   0  0  0  0  0  0  0  0  0  0  0  0
   -2.6959    1.1751   -1.0501 H   0  0  0  0  0  0  0  0  0  0  0  0
   -1.5486   -0.0171   -1.6640 H   0  0  0  0  0  0  0  0  0  0  0  0
   -1.0655    1.7552   -1.3882 H   0  0  0  0  0  0  0  0  0  0  0  0
    0.1262   -0.0085    1.9057 H   0  0  0  0  0  0  0  0  0  0  0  0
   -0.1634   -1.5489   -0.8085 H   0  0  0  0  0  0  0  0  0  0  0  0
    0.7323   -2.0924    0.7037 H   0  0  0  0  0  0  0  0  0  0  0  0
    3.0826   -0.9828    0.3879 H   0  0  0  0  0  0  0  0  0  0  0  0
    2.3187   -0.2746    1.8943 H   0  0  0  0  0  0  0  0  0  0  0  0
    3.1234    0.8160    0.7077 H   0  0  0  0  0  0  0  0  0  0  0  0
    0.7718    0.3902   -2.0898 H   0  0  0  0  0  0  0  0  0  0  0  0
    2.4302   -0.0702   -1.7233 H   0  0  0  0  0  0  0  0  0  0  0  0
    1.8694    1.5662   -1.3310 H   0  0  0  0  0  0  0  0  0  0  0  0
  1  2  1  0
  2  3  1  0
  2  4  1  0
  4  5  1  0
  5  6  1  0
  6  7  1  0
  6  8  1  0
  6  4  1  0
  1  9  1  0
  1 10  1  0
  1 11  1  0
  2 12  1  0
  3 13  1  0
  3 14  1  0
  3 15  1  0
  4 16  1  0
  5 17  1  0
  5 18  1  0
  7 19  1  0
  7 20  1  0
  7 21  1  0
  8 22  1  0
  8 23  1  0
  8 24  1  0
M  END
