
     RDKit          3D

 24 24  0  0  0  0  0  0  0  0999 V2000
   -1.6549    1.0779    0.0134 C   0  0  0  0  0  0  0  0  0  0  0  0
   -0.9904   -0.2878   -0.0190 C   0  0  0  0  0  0  0  0  0  0  0  0
   -1.8792   -1.2140    0.7895 C   0  0  0  0  0  0  0  0  0  0  0  0
   -0.9643   -0.7476   -1.4387 C   0  0  0  0  0  0  0  0  0  0  0  0
    0.3365   -0.2230    0.6486 C   0  0  0  0  0  0  0  0  0  0  0  0
    1.3064    0.7357    0.0278 C   0  0  0  0  0  0  0  0  0  0  0  0
    2.6579    0.7682    0.7487 C   0  0  0  0  0  0  0  0  0  0  0  0
    2.5350    0.2582   -0.6641 C   0  0  0  0  0  0  0  0  0  0  0  0
   -1.1331    1.8095   -0.6360 H   0  0  0  0  0  0  0  0  0  0  0  0
   -1.6941    1.3893    1.0706 H   0  0  0  0  0  0  0  0  0  0  0  0
   -2.7009    0.9356   -0.3287 H   0  0  0  0  0  0  0  0  0  0  0  0
   -1.8206   -0.8338    1.8523 H   0  0  0  0  0  0  0  0  0  0  0  0
   -2.9396   -1.1320    0.4885 H   0  0  0  0  0  0  0  0  0  0  0  0
   -1.4848   -2.2387    0.7585 H   0  0  0  0  0  0  0  0  0  0  0  0
   -0.7014   -1.8416   -1.5292 H   0  0  0  0  0  0  0  0  0  0  0  0
   -2.0108   -0.6854   -1.8245 H   0  0  0  0  0  0  0  0  0  0  0  0
   -0.3340   -0.1342   -2.0877 H   0  0  0  0  0  0  0  0  0  0  0  0
    0.1754    0.0938    1.7000 H   0  0  0  0  0  0  0  0  0  0  0  0
    0.8143   -1.2229    0.6790 H   0  0  0  0  0  0  0  0  0  0  0  0
    0.9226    1.7149   -0.3280 H   0  0  0  0  0  0  0  0  0  0  0  0
    3.1112    1.7760    0.8809 H   0  0  0  0  0  0  0  0  0  0  0  0
    2.8829   -0.0259    1.4844 H   0  0  0  0  0  0  0  0  0  0  0  0
    2.5575   -0.8383   -0.8546 H   0  0  0  0  0  0  0  0  0  0  0  0
    3.0082    0.8662   -1.4315 H   0  0  0  0  0  0  0  0  0  0  0  0
  1  2  1  0
  2  3  1  0
  2  4  1  0
  2  5  1  0
  5  6  1  0
  6  7  1  0
  7  8  1  0
  8  6  1  0
  1  9  1  0
  1 10  1  0
  1 11  1  0
  3 12  1  0
  3 13  1  0
  3 14  1  0
  4 15  1  0
  4 16  1  0
  4 17  1  0
  5 18  1  0
  5 19  1  0
  6 20  1  0
  7 21  1  0
  7 22  1  0
  8 23  1  0
  8 24  1  0
M  END
