
     RDKit          3D

 23 24  0  0  0  0  0  0  0  0999 V2000
    1.6960    1.3167    0.0548 C   0  0  0  0  0  0  0  0  0  0  0  0
    0.9991    0.0896   -0.5039 C   0  0  0  0  0  0  0  0  0  0  0  0
    1.9217   -1.0865   -0.4390 C   0  0  0  0  0  0  0  0  0  0  0  0
   -0.2826   -0.0915    0.2423 C   0  0  0  0  0  0  0  0  0  0  0  0
   -1.2376    1.0782    0.1294 C   0  0  0  0  0  0  0  0  0  0  0  0
   -2.4029    0.4674   -0.5910 C   0  0  0  0  0  0  0  0  0  0  0  0
   -2.4713   -0.8254   -0.0580 O   0  0  0  0  0  0  0  0  0  0  0  0
   -1.1559   -1.2641    0.0376 C   0  0  0  0  0  0  0  0  0  0  0  0
   -0.4540   -0.9719    1.3850 C   0  0  0  0  0  0  0  0  0  0  0  0
    1.4576    2.2120   -0.5873 H   0  0  0  0  0  0  0  0  0  0  0  0
    1.3537    1.5036    1.0933 H   0  0  0  0  0  0  0  0  0  0  0  0
    2.7905    1.2047    0.0900 H   0  0  0  0  0  0  0  0  0  0  0  0
    0.7429    0.3092   -1.5642 H   0  0  0  0  0  0  0  0  0  0  0  0
    1.5595   -1.9302    0.1442 H   0  0  0  0  0  0  0  0  0  0  0  0
    2.1923   -1.4400   -1.4617 H   0  0  0  0  0  0  0  0  0  0  0  0
    2.9078   -0.7862    0.0230 H   0  0  0  0  0  0  0  0  0  0  0  0
   -0.8337    1.8937   -0.4857 H   0  0  0  0  0  0  0  0  0  0  0  0
   -1.5572    1.4424    1.1318 H   0  0  0  0  0  0  0  0  0  0  0  0
   -2.2075    0.3660   -1.6730 H   0  0  0  0  0  0  0  0  0  0  0  0
   -3.2977    1.0616   -0.3761 H   0  0  0  0  0  0  0  0  0  0  0  0
   -0.8395   -2.1550   -0.5187 H   0  0  0  0  0  0  0  0  0  0  0  0
   -1.1412   -0.6570    2.2213 H   0  0  0  0  0  0  0  0  0  0  0  0
    0.2600   -1.7375    1.7060 H   0  0  0  0  0  0  0  0  0  0  0  0
  1  2  1  0
  2  3  1  0
  2  4  1  0
  4  5  1  0
  5  6  1  0
  6  7  1  0
  7  8  1  0
  8  9  1  0
  8  4  1  0
  9  4  1  0
  1 10  1  0
  1 11  1  0
  1 12  1  0
  2 13  1  0
  3 14  1  0
  3 15  1  0
  3 16  1  0
  5 17  1  0
  5 18  1  0
  6 19  1  0
  6 20  1  0
  8 21  1  0
  9 22  1  0
  9 23  1  0
M  END
