
     RDKit          3D

 14 13  0  0  0  0  0  0  0  0999 V2000
   -1.1594   -0.9670    0.3795 C   0  0  0  0  0  0  0  0  0  0  0  0
   -0.0659   -0.0580   -0.1383 C   0  0  0  0  0  0  0  0  0  0  0  0
   -0.7456    1.2502   -0.5395 C   0  0  0  0  0  0  0  0  0  0  0  0
    0.9463    0.1563    0.8127 O   0  0  0  0  0  0  0  0  0  0  0  0
    2.2349   -0.2025    0.5165 C   0  0  0  0  0  0  0  0  0  0  0  0
    2.4822   -0.7171   -0.6035 O   0  0  0  0  0  0  0  0  0  0  0  0
   -0.7978   -2.0031    0.3749 H   0  0  0  0  0  0  0  0  0  0  0  0
   -1.5732   -0.6218    1.3348 H   0  0  0  0  0  0  0  0  0  0  0  0
   -1.9926   -0.9060   -0.3663 H   0  0  0  0  0  0  0  0  0  0  0  0
    0.3243   -0.5194   -1.0689 H   0  0  0  0  0  0  0  0  0  0  0  0
   -0.6512    1.9495    0.3076 H   0  0  0  0  0  0  0  0  0  0  0  0
   -0.2597    1.6302   -1.4678 H   0  0  0  0  0  0  0  0  0  0  0  0
   -1.8216    1.0853   -0.7255 H   0  0  0  0  0  0  0  0  0  0  0  0
    3.0794   -0.0765    1.1837 H   0  0  0  0  0  0  0  0  0  0  0  0
  1  2  1  0
  2  3  1  0
  2  4  1  0
  4  5  1  0
  5  6  2  0
  1  7  1  0
  1  8  1  0
  1  9  1  0
  2 10  1  0
  3 11  1  0
  3 12  1  0
  3 13  1  0
  5 14  1  0
M  END
