
     RDKit          3D

 25 25  0  0  0  0  0  0  0  0999 V2000
    1.2211   -1.2709   -0.5379 C   0  0  0  0  0  0  0  0  0  0  0  0
    1.4279    0.2155   -0.3877 C   0  0  0  0  0  0  0  0  0  0  0  0
    2.8398    0.4020    0.1922 C   0  0  0  0  0  0  0  0  0  0  0  0
    0.4988    0.8308    0.5789 C   0  0  0  0  0  0  0  0  0  0  0  0
   -0.9422    0.7820    0.3572 C   0  0  0  0  0  0  0  0  0  0  0  0
   -1.5098    1.4237   -0.8883 C   0  0  0  0  0  0  0  0  0  0  0  0
   -2.6159    0.5489   -0.7096 O   0  0  0  0  0  0  0  0  0  0  0  0
   -1.6333   -0.3786   -0.2385 C   0  0  0  0  0  0  0  0  0  0  0  0
   -2.3317   -1.3146    0.7505 C   0  0  0  0  0  0  0  0  0  0  0  0
    0.9477   -1.5860   -1.5669 H   0  0  0  0  0  0  0  0  0  0  0  0
    2.1976   -1.8291   -0.3618 H   0  0  0  0  0  0  0  0  0  0  0  0
    0.5201   -1.6362    0.2391 H   0  0  0  0  0  0  0  0  0  0  0  0
    1.4246    0.7349   -1.3715 H   0  0  0  0  0  0  0  0  0  0  0  0
    3.3035    1.3271   -0.1987 H   0  0  0  0  0  0  0  0  0  0  0  0
    2.8097    0.4613    1.2954 H   0  0  0  0  0  0  0  0  0  0  0  0
    3.4765   -0.4641   -0.1008 H   0  0  0  0  0  0  0  0  0  0  0  0
    0.7804    1.9030    0.7883 H   0  0  0  0  0  0  0  0  0  0  0  0
    0.6979    0.3391    1.5839 H   0  0  0  0  0  0  0  0  0  0  0  0
   -1.4936    1.1549    1.2530 H   0  0  0  0  0  0  0  0  0  0  0  0
   -0.9600    1.2689   -1.8133 H   0  0  0  0  0  0  0  0  0  0  0  0
   -1.8683    2.4616   -0.7260 H   0  0  0  0  0  0  0  0  0  0  0  0
   -1.2472   -0.8791   -1.1193 H   0  0  0  0  0  0  0  0  0  0  0  0
   -3.0246   -1.9596    0.1662 H   0  0  0  0  0  0  0  0  0  0  0  0
   -2.9015   -0.6520    1.4568 H   0  0  0  0  0  0  0  0  0  0  0  0
   -1.6177   -1.8836    1.3588 H   0  0  0  0  0  0  0  0  0  0  0  0
  1  2  1  0
  2  3  1  0
  2  4  1  0
  4  5  1  0
  5  6  1  0
  6  7  1  0
  7  8  1  0
  8  9  1  0
  8  5  1  0
  1 10  1  0
  1 11  1  0
  1 12  1  0
  2 13  1  0
  3 14  1  0
  3 15  1  0
  3 16  1  0
  4 17  1  0
  4 18  1  0
  5 19  1  0
  6 20  1  0
  6 21  1  0
  8 22  1  0
  9 23  1  0
  9 24  1  0
  9 25  1  0
M  END
