
     RDKit          3D

 25 25  0  0  0  0  0  0  0  0999 V2000
    2.0948   -0.5879   -0.6753 C   0  0  0  0  0  0  0  0  0  0  0  0
    1.0982    0.4738   -0.2845 C   0  0  0  0  0  0  0  0  0  0  0  0
    1.7750    1.4631    0.6089 C   0  0  0  0  0  0  0  0  0  0  0  0
   -0.0764   -0.2124    0.3540 C   0  0  0  0  0  0  0  0  0  0  0  0
    0.2285   -0.9303    1.4691 O   0  0  0  0  0  0  0  0  0  0  0  0
   -0.6604   -1.1468   -0.6864 C   0  0  0  0  0  0  0  0  0  0  0  0
   -2.0180   -0.5902   -1.0052 C   0  0  0  0  0  0  0  0  0  0  0  0
   -2.4419   -0.0324    0.3349 C   0  0  0  0  0  0  0  0  0  0  0  0
   -1.1869    0.7657    0.7119 C   0  0  0  0  0  0  0  0  0  0  0  0
    2.3854   -0.4126   -1.7344 H   0  0  0  0  0  0  0  0  0  0  0  0
    1.6958   -1.6227   -0.5366 H   0  0  0  0  0  0  0  0  0  0  0  0
    2.9920   -0.5218   -0.0427 H   0  0  0  0  0  0  0  0  0  0  0  0
    0.7412    1.0271   -1.1829 H   0  0  0  0  0  0  0  0  0  0  0  0
    2.7208    1.7706    0.1147 H   0  0  0  0  0  0  0  0  0  0  0  0
    1.1775    2.4025    0.7309 H   0  0  0  0  0  0  0  0  0  0  0  0
    2.0639    1.0281    1.5840 H   0  0  0  0  0  0  0  0  0  0  0  0
    1.0615   -0.7179    1.9197 H   0  0  0  0  0  0  0  0  0  0  0  0
   -0.7887   -2.1802   -0.2952 H   0  0  0  0  0  0  0  0  0  0  0  0
   -0.0124   -1.2418   -1.5837 H   0  0  0  0  0  0  0  0  0  0  0  0
   -2.7208   -1.3623   -1.3767 H   0  0  0  0  0  0  0  0  0  0  0  0
   -1.9553    0.2706   -1.7133 H   0  0  0  0  0  0  0  0  0  0  0  0
   -3.3318    0.5887    0.2929 H   0  0  0  0  0  0  0  0  0  0  0  0
   -2.5134   -0.8839    1.0569 H   0  0  0  0  0  0  0  0  0  0  0  0
   -1.1228    1.6930    0.1373 H   0  0  0  0  0  0  0  0  0  0  0  0
   -1.2058    0.9599    1.8016 H   0  0  0  0  0  0  0  0  0  0  0  0
  1  2  1  0
  2  3  1  0
  2  4  1  0
  4  5  1  0
  4  6  1  0
  6  7  1  0
  7  8  1  0
  8  9  1  0
  9  4  1  0
  1 10  1  0
  1 11  1  0
  1 12  1  0
  2 13  1  0
  3 14  1  0
  3 15  1  0
  3 16  1  0
  5 17  1  0
  6 18  1  0
  6 19  1  0
  7 20  1  0
  7 21  1  0
  8 22  1  0
  8 23  1  0
  9 24  1  0
  9 25  1  0
M  END
