
     RDKit          3D

 19 19  0  0  0  0  0  0  0  0999 V2000
   -1.3113   -1.2209   -0.3999 C   0  0  0  0  0  0  0  0  0  0  0  0
   -0.6646    0.1190   -0.6155 C   0  0  0  0  0  0  0  0  0  0  0  0
   -1.7346    1.1761   -0.4425 C   0  0  0  0  0  0  0  0  0  0  0  0
   -2.3020    1.1452    0.8196 O   0  0  0  0  0  0  0  0  0  0  0  0
    0.4992    0.3517    0.2544 C   0  0  0  0  0  0  0  0  0  0  0  0
    0.4913    1.2932    1.0282 O   0  0  0  0  0  0  0  0  0  0  0  0
    1.6650   -0.5411    0.1947 C   0  0  0  0  0  0  0  0  0  0  0  0
    2.9636    0.0002    0.6422 C   0  0  0  0  0  0  0  0  0  0  0  0
    2.1721   -0.8071    1.5350 O   0  0  0  0  0  0  0  0  0  0  0  0
   -1.1911   -1.8325   -1.3239 H   0  0  0  0  0  0  0  0  0  0  0  0
   -0.8546   -1.7856    0.4563 H   0  0  0  0  0  0  0  0  0  0  0  0
   -2.4024   -1.1515   -0.2075 H   0  0  0  0  0  0  0  0  0  0  0  0
   -0.2998    0.2255   -1.6774 H   0  0  0  0  0  0  0  0  0  0  0  0
   -2.5391    0.9375   -1.1926 H   0  0  0  0  0  0  0  0  0  0  0  0
   -1.3581    2.1928   -0.7137 H   0  0  0  0  0  0  0  0  0  0  0  0
   -1.7329    0.7471    1.5118 H   0  0  0  0  0  0  0  0  0  0  0  0
    1.6970   -1.3896   -0.4883 H   0  0  0  0  0  0  0  0  0  0  0  0
    3.9067   -0.5408    0.4037 H   0  0  0  0  0  0  0  0  0  0  0  0
    2.9954    1.0807    0.8787 H   0  0  0  0  0  0  0  0  0  0  0  0
  1  2  1  0
  2  3  1  0
  3  4  1  0
  2  5  1  0
  5  6  2  0
  5  7  1  0
  7  8  1  0
  8  9  1  0
  9  7  1  0
  1 10  1  0
  1 11  1  0
  1 12  1  0
  2 13  1  0
  3 14  1  0
  3 15  1  0
  4 16  1  0
  7 17  1  0
  8 18  1  0
  8 19  1  0
M  END
