
     RDKit          3D

 25 24  0  0  0  0  0  0  0  0999 V2000
   -0.7365   -2.2566   -0.0658 C   0  0  0  0  0  0  0  0  0  0  0  0
   -0.7385   -0.8218   -0.5816 C   0  0  0  0  0  0  0  0  0  0  0  0
   -1.6516    0.0139    0.2473 C   0  0  0  0  0  0  0  0  0  0  0  0
   -1.6694    1.4339   -0.2460 C   0  0  0  0  0  0  0  0  0  0  0  0
   -2.5382    2.2195    0.5228 O   0  0  0  0  0  0  0  0  0  0  0  0
    0.6416   -0.2851   -0.7446 C   0  0  0  0  0  0  0  0  0  0  0  0
    1.4394   -0.2510    0.5223 C   0  0  0  0  0  0  0  0  0  0  0  0
    2.8062    0.3157    0.1873 C   0  0  0  0  0  0  0  0  0  0  0  0
    2.5977    1.5962   -0.3243 O   0  0  0  0  0  0  0  0  0  0  0  0
   -1.7938   -2.5670    0.0038 H   0  0  0  0  0  0  0  0  0  0  0  0
   -0.2940   -2.2674    0.9489 H   0  0  0  0  0  0  0  0  0  0  0  0
   -0.1815   -2.8562   -0.8007 H   0  0  0  0  0  0  0  0  0  0  0  0
   -1.1887   -0.8849   -1.6098 H   0  0  0  0  0  0  0  0  0  0  0  0
   -1.4091   -0.0603    1.3265 H   0  0  0  0  0  0  0  0  0  0  0  0
   -2.6804   -0.3940    0.1414 H   0  0  0  0  0  0  0  0  0  0  0  0
   -1.9942    1.4186   -1.3058 H   0  0  0  0  0  0  0  0  0  0  0  0
   -0.6511    1.8765   -0.1851 H   0  0  0  0  0  0  0  0  0  0  0  0
   -3.1950    2.6379   -0.0572 H   0  0  0  0  0  0  0  0  0  0  0  0
    1.2018   -0.9483   -1.4457 H   0  0  0  0  0  0  0  0  0  0  0  0
    0.6108    0.7052   -1.1854 H   0  0  0  0  0  0  0  0  0  0  0  0
    1.0016    0.4538    1.2805 H   0  0  0  0  0  0  0  0  0  0  0  0
    1.5328   -1.2323    1.0134 H   0  0  0  0  0  0  0  0  0  0  0  0
    3.4803    0.3069    1.0566 H   0  0  0  0  0  0  0  0  0  0  0  0
    3.2113   -0.3034   -0.6444 H   0  0  0  0  0  0  0  0  0  0  0  0
    2.1984    2.1500    0.3917 H   0  0  0  0  0  0  0  0  0  0  0  0
  1  2  1  0
  2  3  1  0
  3  4  1  0
  4  5  1  0
  2  6  1  0
  6  7  1  0
  7  8  1  0
  8  9  1  0
  1 10  1  0
  1 11  1  0
  1 12  1  0
  2 13  1  0
  3 14  1  0
  3 15  1  0
  4 16  1  0
  4 17  1  0
  5 18  1  0
  6 19  1  0
  6 20  1  0
  7 21  1  0
  7 22  1  0
  8 23  1  0
  8 24  1  0
  9 25  1  0
M  END
