
     RDKit          3D

 23 23  0  0  0  0  0  0  0  0999 V2000
   -1.2420    1.2123    0.9456 C   0  0  0  0  0  0  0  0  0  0  0  0
   -0.7684   -0.1989    0.6396 C   0  0  0  0  0  0  0  0  0  0  0  0
   -1.8232   -0.9085   -0.1539 C   0  0  0  0  0  0  0  0  0  0  0  0
   -2.1211   -0.3026   -1.3584 O   0  0  0  0  0  0  0  0  0  0  0  0
    0.5531   -0.1120   -0.0483 C   0  0  0  0  0  0  0  0  0  0  0  0
    0.5753    0.6531   -1.3669 C   0  0  0  0  0  0  0  0  0  0  0  0
    1.7069    0.2643    0.9051 C   0  0  0  0  0  0  0  0  0  0  0  0
    1.6521   -1.0433    0.1967 C   0  0  0  0  0  0  0  0  0  0  0  0
    2.6226   -1.2049   -0.7990 O   0  0  0  0  0  0  0  0  0  0  0  0
   -0.3425    1.8964    0.9623 H   0  0  0  0  0  0  0  0  0  0  0  0
   -1.9206    1.6134    0.1908 H   0  0  0  0  0  0  0  0  0  0  0  0
   -1.6493    1.2838    1.9923 H   0  0  0  0  0  0  0  0  0  0  0  0
   -0.6568   -0.7256    1.6023 H   0  0  0  0  0  0  0  0  0  0  0  0
   -2.7561   -0.8984    0.4622 H   0  0  0  0  0  0  0  0  0  0  0  0
   -1.5669   -1.9557   -0.3529 H   0  0  0  0  0  0  0  0  0  0  0  0
   -2.9886   -0.6185   -1.6810 H   0  0  0  0  0  0  0  0  0  0  0  0
   -0.3558    1.2217   -1.5222 H   0  0  0  0  0  0  0  0  0  0  0  0
    0.7193   -0.1378   -2.1571 H   0  0  0  0  0  0  0  0  0  0  0  0
    1.4069    1.3888   -1.3843 H   0  0  0  0  0  0  0  0  0  0  0  0
    2.4007    1.0660    0.5639 H   0  0  0  0  0  0  0  0  0  0  0  0
    1.5166    0.2716    1.9765 H   0  0  0  0  0  0  0  0  0  0  0  0
    1.5519   -1.9538    0.8392 H   0  0  0  0  0  0  0  0  0  0  0  0
    3.4858   -0.8116   -0.4525 H   0  0  0  0  0  0  0  0  0  0  0  0
  1  2  1  0
  2  3  1  0
  3  4  1  0
  2  5  1  0
  5  6  1  0
  5  7  1  0
  7  8  1  0
  8  9  1  0
  8  5  1  0
  1 10  1  0
  1 11  1  0
  1 12  1  0
  2 13  1  0
  3 14  1  0
  3 15  1  0
  4 16  1  0
  6 17  1  0
  6 18  1  0
  6 19  1  0
  7 20  1  0
  7 21  1  0
  8 22  1  0
  9 23  1  0
M  END
