
     RDKit          3D

 23 23  0  0  0  0  0  0  0  0999 V2000
   -1.3902   -0.3147    1.4214 C   0  0  0  0  0  0  0  0  0  0  0  0
   -1.1056    0.3010    0.0877 C   0  0  0  0  0  0  0  0  0  0  0  0
   -2.2983   -0.0666   -0.8111 C   0  0  0  0  0  0  0  0  0  0  0  0
   -1.1126    1.7026    0.1422 O   0  0  0  0  0  0  0  0  0  0  0  0
    0.1154   -0.2225   -0.5782 C   0  0  0  0  0  0  0  0  0  0  0  0
    1.3869   -0.0436    0.1470 C   0  0  0  0  0  0  0  0  0  0  0  0
    2.6038   -0.6038   -0.5883 C   0  0  0  0  0  0  0  0  0  0  0  0
    1.6251    0.7202    1.3227 C   0  0  0  0  0  0  0  0  0  0  0  0
    1.2689   -0.6174    1.5150 O   0  0  0  0  0  0  0  0  0  0  0  0
   -0.9830    0.2051    2.2810 H   0  0  0  0  0  0  0  0  0  0  0  0
   -2.4856   -0.4002    1.5725 H   0  0  0  0  0  0  0  0  0  0  0  0
   -0.9558   -1.3515    1.3994 H   0  0  0  0  0  0  0  0  0  0  0  0
   -3.2361    0.0061   -0.2374 H   0  0  0  0  0  0  0  0  0  0  0  0
   -2.2899    0.5118   -1.7423 H   0  0  0  0  0  0  0  0  0  0  0  0
   -2.1570   -1.1300   -1.0714 H   0  0  0  0  0  0  0  0  0  0  0  0
   -1.3576    2.0712   -0.7650 H   0  0  0  0  0  0  0  0  0  0  0  0
    0.1873    0.2680   -1.5815 H   0  0  0  0  0  0  0  0  0  0  0  0
   -0.0777   -1.3080   -0.8193 H   0  0  0  0  0  0  0  0  0  0  0  0
    3.5252   -0.0803   -0.2628 H   0  0  0  0  0  0  0  0  0  0  0  0
    2.4399   -0.3744   -1.6575 H   0  0  0  0  0  0  0  0  0  0  0  0
    2.6686   -1.7038   -0.4593 H   0  0  0  0  0  0  0  0  0  0  0  0
    2.6799    0.9177    1.6225 H   0  0  0  0  0  0  0  0  0  0  0  0
    0.9484    1.5130    1.7345 H   0  0  0  0  0  0  0  0  0  0  0  0
  1  2  1  0
  2  3  1  0
  2  4  1  0
  2  5  1  0
  5  6  1  0
  6  7  1  0
  6  8  1  0
  8  9  1  0
  9  6  1  0
  1 10  1  0
  1 11  1  0
  1 12  1  0
  3 13  1  0
  3 14  1  0
  3 15  1  0
  4 16  1  0
  5 17  1  0
  5 18  1  0
  7 19  1  0
  7 20  1  0
  7 21  1  0
  8 22  1  0
  8 23  1  0
M  END
