
     RDKit          3D

 20 19  0  0  0  0  0  0  0  0999 V2000
    1.8906   -0.8490   -0.6314 C   0  0  0  0  0  0  0  0  0  0  0  0
    1.0684    0.2557    0.0173 C   0  0  0  0  0  0  0  0  0  0  0  0
    1.7807    0.6509    1.2866 C   0  0  0  0  0  0  0  0  0  0  0  0
   -0.1441   -0.3040    0.3809 O   0  0  0  0  0  0  0  0  0  0  0  0
   -1.2308    0.3015   -0.1974 C   0  0  0  0  0  0  0  0  0  0  0  0
   -1.9017   -0.7382   -1.0966 C   0  0  0  0  0  0  0  0  0  0  0  0
   -2.2260    0.7784    0.7892 C   0  0  0  0  0  0  0  0  0  0  0  0
   -2.0424    0.6206    1.9737 O   0  0  0  0  0  0  0  0  0  0  0  0
    1.6234   -0.9270   -1.7093 H   0  0  0  0  0  0  0  0  0  0  0  0
    2.9713   -0.6437   -0.4770 H   0  0  0  0  0  0  0  0  0  0  0  0
    1.6321   -1.7993   -0.1152 H   0  0  0  0  0  0  0  0  0  0  0  0
    0.9555    1.1067   -0.6863 H   0  0  0  0  0  0  0  0  0  0  0  0
    2.2986   -0.2630    1.6822 H   0  0  0  0  0  0  0  0  0  0  0  0
    1.0044    0.9764    2.0092 H   0  0  0  0  0  0  0  0  0  0  0  0
    2.5095    1.4674    1.1319 H   0  0  0  0  0  0  0  0  0  0  0  0
   -0.8845    1.1480   -0.8620 H   0  0  0  0  0  0  0  0  0  0  0  0
   -2.8690   -1.0443   -0.6520 H   0  0  0  0  0  0  0  0  0  0  0  0
   -1.2929   -1.6609   -1.1783 H   0  0  0  0  0  0  0  0  0  0  0  0
   -2.0182   -0.3472   -2.1316 H   0  0  0  0  0  0  0  0  0  0  0  0
   -3.1249    1.2712    0.4660 H   0  0  0  0  0  0  0  0  0  0  0  0
  1  2  1  0
  2  3  1  0
  2  4  1  0
  4  5  1  0
  5  6  1  0
  5  7  1  0
  7  8  2  0
  1  9  1  0
  1 10  1  0
  1 11  1  0
  2 12  1  0
  3 13  1  0
  3 14  1  0
  3 15  1  0
  5 16  1  0
  6 17  1  0
  6 18  1  0
  6 19  1  0
  7 20  1  0
M  END
