
     RDKit          3D

 25 25  0  0  0  0  0  0  0  0999 V2000
   -1.6246   -1.5149   -0.5872 C   0  0  0  0  0  0  0  0  0  0  0  0
   -1.5818   -0.0132   -0.5067 C   0  0  0  0  0  0  0  0  0  0  0  0
   -2.1557    0.4627    0.7866 C   0  0  0  0  0  0  0  0  0  0  0  0
   -0.1537    0.4436   -0.7119 C   0  0  0  0  0  0  0  0  0  0  0  0
   -0.1092    1.9661   -0.6302 C   0  0  0  0  0  0  0  0  0  0  0  0
    0.6997   -0.1143    0.3778 C   0  0  0  0  0  0  0  0  0  0  0  0
    0.8227   -1.4694    0.5689 O   0  0  0  0  0  0  0  0  0  0  0  0
    1.9335   -0.9089   -0.0037 C   0  0  0  0  0  0  0  0  0  0  0  0
    3.1535   -0.5795    0.8074 C   0  0  0  0  0  0  0  0  0  0  0  0
   -0.7537   -1.8591   -1.1505 H   0  0  0  0  0  0  0  0  0  0  0  0
   -2.5896   -1.7791   -1.0881 H   0  0  0  0  0  0  0  0  0  0  0  0
   -1.5683   -1.9852    0.4354 H   0  0  0  0  0  0  0  0  0  0  0  0
   -2.1879    0.4395   -1.3353 H   0  0  0  0  0  0  0  0  0  0  0  0
   -1.5470    0.1909    1.6609 H   0  0  0  0  0  0  0  0  0  0  0  0
   -2.3541    1.5379    0.8210 H   0  0  0  0  0  0  0  0  0  0  0  0
   -3.1404   -0.0475    0.9219 H   0  0  0  0  0  0  0  0  0  0  0  0
    0.1872    0.1864   -1.7319 H   0  0  0  0  0  0  0  0  0  0  0  0
   -0.0793    2.2949    0.4347 H   0  0  0  0  0  0  0  0  0  0  0  0
    0.7693    2.3109   -1.2045 H   0  0  0  0  0  0  0  0  0  0  0  0
   -1.0364    2.3735   -1.0855 H   0  0  0  0  0  0  0  0  0  0  0  0
    0.7392    0.5092    1.2946 H   0  0  0  0  0  0  0  0  0  0  0  0
    2.1256   -1.1044   -1.0673 H   0  0  0  0  0  0  0  0  0  0  0  0
    3.7309    0.1803    0.2025 H   0  0  0  0  0  0  0  0  0  0  0  0
    2.9203   -0.0898    1.7733 H   0  0  0  0  0  0  0  0  0  0  0  0
    3.7998   -1.4307    1.0178 H   0  0  0  0  0  0  0  0  0  0  0  0
  1  2  1  0
  2  3  1  0
  2  4  1  0
  4  5  1  0
  4  6  1  0
  6  7  1  0
  7  8  1  0
  8  9  1  0
  8  6  1  0
  1 10  1  0
  1 11  1  0
  1 12  1  0
  2 13  1  0
  3 14  1  0
  3 15  1  0
  3 16  1  0
  4 17  1  0
  5 18  1  0
  5 19  1  0
  5 20  1  0
  6 21  1  0
  8 22  1  0
  9 23  1  0
  9 24  1  0
  9 25  1  0
M  END
