
     RDKit          3D

 19 19  0  0  0  0  0  0  0  0999 V2000
   -2.0422    0.9378   -0.4187 C   0  0  0  0  0  0  0  0  0  0  0  0
   -0.9120   -0.0340   -0.2701 C   0  0  0  0  0  0  0  0  0  0  0  0
   -1.3854   -1.1264    0.6932 C   0  0  0  0  0  0  0  0  0  0  0  0
    0.3361    0.5495    0.2856 C   0  0  0  0  0  0  0  0  0  0  0  0
    1.0143    1.5714   -0.3186 O   0  0  0  0  0  0  0  0  0  0  0  0
    1.5633    0.3630   -0.6063 C   0  0  0  0  0  0  0  0  0  0  0  0
    2.7335   -0.2160    0.1022 C   0  0  0  0  0  0  0  0  0  0  0  0
   -2.3146    1.3486    0.5729 H   0  0  0  0  0  0  0  0  0  0  0  0
   -2.9015    0.3687   -0.8618 H   0  0  0  0  0  0  0  0  0  0  0  0
   -1.8332    1.7588   -1.1233 H   0  0  0  0  0  0  0  0  0  0  0  0
   -0.7746   -0.5524   -1.2513 H   0  0  0  0  0  0  0  0  0  0  0  0
   -1.7467   -0.6837    1.6491 H   0  0  0  0  0  0  0  0  0  0  0  0
   -0.5036   -1.7701    0.9075 H   0  0  0  0  0  0  0  0  0  0  0  0
   -2.1930   -1.6722    0.1606 H   0  0  0  0  0  0  0  0  0  0  0  0
    0.4704    0.4795    1.3764 H   0  0  0  0  0  0  0  0  0  0  0  0
    1.4058   -0.0030   -1.6328 H   0  0  0  0  0  0  0  0  0  0  0  0
    2.9333    0.1823    1.0914 H   0  0  0  0  0  0  0  0  0  0  0  0
    2.5346   -1.3199    0.2351 H   0  0  0  0  0  0  0  0  0  0  0  0
    3.6157   -0.1819   -0.5912 H   0  0  0  0  0  0  0  0  0  0  0  0
  1  2  1  0
  2  3  1  0
  2  4  1  0
  4  5  1  0
  5  6  1  0
  6  7  1  0
  6  4  1  0
  1  8  1  0
  1  9  1  0
  1 10  1  0
  2 11  1  0
  3 12  1  0
  3 13  1  0
  3 14  1  0
  4 15  1  0
  6 16  1  0
  7 17  1  0
  7 18  1  0
  7 19  1  0
M  END
