
     RDKit          3D

 23 23  0  0  0  0  0  0  0  0999 V2000
   -0.9949   -0.7585   -1.2276 C   0  0  0  0  0  0  0  0  0  0  0  0
   -0.5920   -0.1770    0.0881 C   0  0  0  0  0  0  0  0  0  0  0  0
   -0.7847   -1.2554    1.1445 C   0  0  0  0  0  0  0  0  0  0  0  0
   -1.5959    0.9443    0.3948 C   0  0  0  0  0  0  0  0  0  0  0  0
   -1.3010    1.5520    1.6118 O   0  0  0  0  0  0  0  0  0  0  0  0
    0.8010    0.3368    0.1464 C   0  0  0  0  0  0  0  0  0  0  0  0
    1.8870   -0.6320   -0.1128 C   0  0  0  0  0  0  0  0  0  0  0  0
    1.6381    0.5734   -1.0283 C   0  0  0  0  0  0  0  0  0  0  0  0
    2.6498    1.5592   -0.9465 O   0  0  0  0  0  0  0  0  0  0  0  0
   -0.4478   -1.6790   -1.5016 H   0  0  0  0  0  0  0  0  0  0  0  0
   -2.0684   -1.0611   -1.1376 H   0  0  0  0  0  0  0  0  0  0  0  0
   -0.9817   -0.0038   -2.0496 H   0  0  0  0  0  0  0  0  0  0  0  0
   -1.3534   -0.8454    2.0151 H   0  0  0  0  0  0  0  0  0  0  0  0
   -1.2140   -2.1753    0.7371 H   0  0  0  0  0  0  0  0  0  0  0  0
    0.2204   -1.5351    1.5769 H   0  0  0  0  0  0  0  0  0  0  0  0
   -1.5589    1.6815   -0.4149 H   0  0  0  0  0  0  0  0  0  0  0  0
   -2.6168    0.5248    0.4893 H   0  0  0  0  0  0  0  0  0  0  0  0
   -1.7996    2.4208    1.6082 H   0  0  0  0  0  0  0  0  0  0  0  0
    0.9832    1.0367    1.0151 H   0  0  0  0  0  0  0  0  0  0  0  0
    1.7035   -1.6004   -0.6179 H   0  0  0  0  0  0  0  0  0  0  0  0
    2.7788   -0.6173    0.5385 H   0  0  0  0  0  0  0  0  0  0  0  0
    1.3251    0.3893   -2.0625 H   0  0  0  0  0  0  0  0  0  0  0  0
    3.3223    1.3216   -0.2666 H   0  0  0  0  0  0  0  0  0  0  0  0
  1  2  1  0
  2  3  1  0
  2  4  1  0
  4  5  1  0
  2  6  1  0
  6  7  1  0
  7  8  1  0
  8  9  1  0
  8  6  1  0
  1 10  1  0
  1 11  1  0
  1 12  1  0
  3 13  1  0
  3 14  1  0
  3 15  1  0
  4 16  1  0
  4 17  1  0
  5 18  1  0
  6 19  1  0
  7 20  1  0
  7 21  1  0
  8 22  1  0
  9 23  1  0
M  END
