
     RDKit          3D

 22 22  0  0  0  0  0  0  0  0999 V2000
    2.2190    0.8949   -0.9823 C   0  0  0  0  0  0  0  0  0  0  0  0
    1.1441    0.4073    0.0001 C   0  0  0  0  0  0  0  0  0  0  0  0
    1.6283   -0.7603    0.7989 C   0  0  0  0  0  0  0  0  0  0  0  0
   -0.0767    0.0348   -0.8378 C   0  0  0  0  0  0  0  0  0  0  0  0
   -1.1481   -0.4459    0.0979 C   0  0  0  0  0  0  0  0  0  0  0  0
   -0.8389   -1.5448    0.8641 O   0  0  0  0  0  0  0  0  0  0  0  0
   -1.9799    0.6750    0.7740 C   0  0  0  0  0  0  0  0  0  0  0  0
   -2.5831   -0.2281   -0.2077 C   0  0  0  0  0  0  0  0  0  0  0  0
    3.2011    0.9547   -0.4749 H   0  0  0  0  0  0  0  0  0  0  0  0
    1.9014    1.9219   -1.2943 H   0  0  0  0  0  0  0  0  0  0  0  0
    2.2376    0.2193   -1.8542 H   0  0  0  0  0  0  0  0  0  0  0  0
    0.9203    1.2835    0.6405 H   0  0  0  0  0  0  0  0  0  0  0  0
    1.4144   -1.7092    0.2791 H   0  0  0  0  0  0  0  0  0  0  0  0
    1.1535   -0.7506    1.7843 H   0  0  0  0  0  0  0  0  0  0  0  0
    2.7378   -0.6278    0.9265 H   0  0  0  0  0  0  0  0  0  0  0  0
    0.2099   -0.7255   -1.5905 H   0  0  0  0  0  0  0  0  0  0  0  0
   -0.4396    0.9253   -1.3912 H   0  0  0  0  0  0  0  0  0  0  0  0
   -1.6432   -2.0138    1.1569 H   0  0  0  0  0  0  0  0  0  0  0  0
   -1.7646    1.7197    0.4035 H   0  0  0  0  0  0  0  0  0  0  0  0
   -2.0767    0.5613    1.8597 H   0  0  0  0  0  0  0  0  0  0  0  0
   -3.3040   -0.9750    0.1844 H   0  0  0  0  0  0  0  0  0  0  0  0
   -2.9126    0.1831   -1.1929 H   0  0  0  0  0  0  0  0  0  0  0  0
  1  2  1  0
  2  3  1  0
  2  4  1  0
  4  5  1  0
  5  6  1  0
  5  7  1  0
  7  8  1  0
  8  5  1  0
  1  9  1  0
  1 10  1  0
  1 11  1  0
  2 12  1  0
  3 13  1  0
  3 14  1  0
  3 15  1  0
  4 16  1  0
  4 17  1  0
  6 18  1  0
  7 19  1  0
  7 20  1  0
  8 21  1  0
  8 22  1  0
M  END
