
     RDKit          3D

 21 20  0  0  0  0  0  0  0  0999 V2000
   -0.5886    1.4131    0.0854 C   0  0  0  0  0  0  0  0  0  0  0  0
   -0.5197   -0.0932    0.0089 C   0  0  0  0  0  0  0  0  0  0  0  0
   -0.5172   -0.6199   -1.3897 C   0  0  0  0  0  0  0  0  0  0  0  0
   -1.7508   -0.6303    0.7091 C   0  0  0  0  0  0  0  0  0  0  0  0
   -2.9103   -0.2390    0.0523 O   0  0  0  0  0  0  0  0  0  0  0  0
    0.6154   -0.5009    0.6881 O   0  0  0  0  0  0  0  0  0  0  0  0
    1.7596    0.0491    0.1163 C   0  0  0  0  0  0  0  0  0  0  0  0
    2.9888   -0.3890    0.8473 C   0  0  0  0  0  0  0  0  0  0  0  0
    2.9572   -1.1318    1.8145 O   0  0  0  0  0  0  0  0  0  0  0  0
   -0.0798    1.7842    1.0152 H   0  0  0  0  0  0  0  0  0  0  0  0
   -0.1165    1.9144   -0.7702 H   0  0  0  0  0  0  0  0  0  0  0  0
   -1.6442    1.7378    0.1256 H   0  0  0  0  0  0  0  0  0  0  0  0
   -0.3024    0.1456   -2.1611 H   0  0  0  0  0  0  0  0  0  0  0  0
    0.2903   -1.3860   -1.4795 H   0  0  0  0  0  0  0  0  0  0  0  0
   -1.4652   -1.1261   -1.6505 H   0  0  0  0  0  0  0  0  0  0  0  0
   -1.7124   -1.7455    0.6974 H   0  0  0  0  0  0  0  0  0  0  0  0
   -1.8048   -0.3057    1.7724 H   0  0  0  0  0  0  0  0  0  0  0  0
   -2.6982    0.2408   -0.7728 H   0  0  0  0  0  0  0  0  0  0  0  0
    1.6498    1.1551    0.1359 H   0  0  0  0  0  0  0  0  0  0  0  0
    1.8813   -0.2232   -0.9530 H   0  0  0  0  0  0  0  0  0  0  0  0
    3.9676   -0.0497    0.5296 H   0  0  0  0  0  0  0  0  0  0  0  0
  1  2  1  0
  2  3  1  0
  2  4  1  0
  4  5  1  0
  2  6  1  0
  6  7  1  0
  7  8  1  0
  8  9  2  0
  1 10  1  0
  1 11  1  0
  1 12  1  0
  3 13  1  0
  3 14  1  0
  3 15  1  0
  4 16  1  0
  4 17  1  0
  5 18  1  0
  7 19  1  0
  7 20  1  0
  8 21  1  0
M  END
