
     RDKit          3D

 16 15  0  0  0  0  0  0  0  0999 V2000
   -1.8011   -0.0503   -0.2023 C   0  0  0  0  0  0  0  0  0  0  0  0
   -0.4074    0.5124   -0.0236 C   0  0  0  0  0  0  0  0  0  0  0  0
   -0.1910    1.0957    1.3192 C   0  0  0  0  0  0  0  0  0  0  0  0
    0.0689    0.4217    2.3090 O   0  0  0  0  0  0  0  0  0  0  0  0
    0.5785   -0.5991   -0.3154 C   0  0  0  0  0  0  0  0  0  0  0  0
    0.4387   -1.0793   -1.6133 O   0  0  0  0  0  0  0  0  0  0  0  0
    1.9465   -0.0728   -0.1170 C   0  0  0  0  0  0  0  0  0  0  0  0
    2.7292   -0.1122   -1.0239 O   0  0  0  0  0  0  0  0  0  0  0  0
   -2.2000   -0.2147    0.8315 H   0  0  0  0  0  0  0  0  0  0  0  0
   -1.7701   -1.0086   -0.7287 H   0  0  0  0  0  0  0  0  0  0  0  0
   -2.4451    0.6905   -0.7464 H   0  0  0  0  0  0  0  0  0  0  0  0
   -0.2146    1.3089   -0.7819 H   0  0  0  0  0  0  0  0  0  0  0  0
   -0.2515    2.1798    1.5089 H   0  0  0  0  0  0  0  0  0  0  0  0
    0.3797   -1.4523    0.3661 H   0  0  0  0  0  0  0  0  0  0  0  0
    0.9360   -1.9551   -1.6293 H   0  0  0  0  0  0  0  0  0  0  0  0
    2.2032    0.3354    0.8473 H   0  0  0  0  0  0  0  0  0  0  0  0
  1  2  1  0
  2  3  1  0
  3  4  2  0
  2  5  1  0
  5  6  1  0
  5  7  1  0
  7  8  2  0
  1  9  1  0
  1 10  1  0
  1 11  1  0
  2 12  1  0
  3 13  1  0
  5 14  1  0
  6 15  1  0
  7 16  1  0
M  END
