
     RDKit          3D

 25 25  0  0  0  0  0  0  0  0999 V2000
    1.4010   -1.0234   -1.1218 C   0  0  0  0  0  0  0  0  0  0  0  0
    1.0539    0.2131   -0.3164 C   0  0  0  0  0  0  0  0  0  0  0  0
    2.2389    0.5459    0.5529 C   0  0  0  0  0  0  0  0  0  0  0  0
    3.3811    0.7993   -0.2036 O   0  0  0  0  0  0  0  0  0  0  0  0
   -0.1920   -0.0632    0.4392 C   0  0  0  0  0  0  0  0  0  0  0  0
   -0.7120    1.0649    1.3188 C   0  0  0  0  0  0  0  0  0  0  0  0
   -2.1029    0.4773    1.0210 C   0  0  0  0  0  0  0  0  0  0  0  0
   -1.4856    0.1013   -0.3355 C   0  0  0  0  0  0  0  0  0  0  0  0
   -2.0800   -1.1635   -0.8683 C   0  0  0  0  0  0  0  0  0  0  0  0
    0.8680   -1.0603   -2.0804 H   0  0  0  0  0  0  0  0  0  0  0  0
    2.5066   -1.0100   -1.3081 H   0  0  0  0  0  0  0  0  0  0  0  0
    1.2232   -1.9306   -0.4861 H   0  0  0  0  0  0  0  0  0  0  0  0
    0.9299    1.0376   -1.0396 H   0  0  0  0  0  0  0  0  0  0  0  0
    2.4964   -0.2930    1.2473 H   0  0  0  0  0  0  0  0  0  0  0  0
    2.0375    1.4187    1.2063 H   0  0  0  0  0  0  0  0  0  0  0  0
    3.1848    1.4509   -0.9188 H   0  0  0  0  0  0  0  0  0  0  0  0
   -0.2015   -1.0005    1.0010 H   0  0  0  0  0  0  0  0  0  0  0  0
   -0.6854    2.0624    0.8419 H   0  0  0  0  0  0  0  0  0  0  0  0
   -0.4387    1.0099    2.3713 H   0  0  0  0  0  0  0  0  0  0  0  0
   -2.3108   -0.4429    1.5964 H   0  0  0  0  0  0  0  0  0  0  0  0
   -2.8954    1.2182    0.9663 H   0  0  0  0  0  0  0  0  0  0  0  0
   -1.5233    0.9791   -1.0092 H   0  0  0  0  0  0  0  0  0  0  0  0
   -3.1374   -0.9729   -1.1210 H   0  0  0  0  0  0  0  0  0  0  0  0
   -1.4752   -1.5140   -1.7278 H   0  0  0  0  0  0  0  0  0  0  0  0
   -2.0812   -1.9043   -0.0257 H   0  0  0  0  0  0  0  0  0  0  0  0
  1  2  1  0
  2  3  1  0
  3  4  1  0
  2  5  1  0
  5  6  1  0
  6  7  1  0
  7  8  1  0
  8  9  1  0
  8  5  1  0
  1 10  1  0
  1 11  1  0
  1 12  1  0
  2 13  1  0
  3 14  1  0
  3 15  1  0
  4 16  1  0
  5 17  1  0
  6 18  1  0
  6 19  1  0
  7 20  1  0
  7 21  1  0
  8 22  1  0
  9 23  1  0
  9 24  1  0
  9 25  1  0
M  END
