
     RDKit          3D

 25 24  0  0  0  0  0  0  0  0999 V2000
   -1.3104   -0.6273   -1.1950 C   0  0  0  0  0  0  0  0  0  0  0  0
   -0.7672   -0.3460    0.1828 C   0  0  0  0  0  0  0  0  0  0  0  0
   -1.5147    0.8177    0.7510 C   0  0  0  0  0  0  0  0  0  0  0  0
   -2.8774    0.4367    0.7984 O   0  0  0  0  0  0  0  0  0  0  0  0
    0.7182   -0.2068    0.2146 C   0  0  0  0  0  0  0  0  0  0  0  0
    1.1923    0.0741    1.6262 C   0  0  0  0  0  0  0  0  0  0  0  0
    1.3376   -1.5272   -0.1988 C   0  0  0  0  0  0  0  0  0  0  0  0
    1.2734    0.8640   -0.6566 C   0  0  0  0  0  0  0  0  0  0  0  0
    1.0024    0.7307   -1.9910 O   0  0  0  0  0  0  0  0  0  0  0  0
   -2.3803   -0.9248   -1.0587 H   0  0  0  0  0  0  0  0  0  0  0  0
   -1.2924    0.2925   -1.8020 H   0  0  0  0  0  0  0  0  0  0  0  0
   -0.8140   -1.4832   -1.6865 H   0  0  0  0  0  0  0  0  0  0  0  0
   -1.0243   -1.2381    0.8127 H   0  0  0  0  0  0  0  0  0  0  0  0
   -1.2317    1.0814    1.7829 H   0  0  0  0  0  0  0  0  0  0  0  0
   -1.4888    1.6934    0.0638 H   0  0  0  0  0  0  0  0  0  0  0  0
   -3.4699    1.1525    0.4917 H   0  0  0  0  0  0  0  0  0  0  0  0
    0.8782   -0.7507    2.2963 H   0  0  0  0  0  0  0  0  0  0  0  0
    0.8019    1.0528    1.9422 H   0  0  0  0  0  0  0  0  0  0  0  0
    2.3203    0.0746    1.6015 H   0  0  0  0  0  0  0  0  0  0  0  0
    2.4389   -1.4394    0.0291 H   0  0  0  0  0  0  0  0  0  0  0  0
    0.9778   -2.3704    0.4099 H   0  0  0  0  0  0  0  0  0  0  0  0
    1.1978   -1.7025   -1.2752 H   0  0  0  0  0  0  0  0  0  0  0  0
    2.3752    0.8710   -0.5281 H   0  0  0  0  0  0  0  0  0  0  0  0
    0.9308    1.8640   -0.2683 H   0  0  0  0  0  0  0  0  0  0  0  0
    0.7265    1.6110   -2.3428 H   0  0  0  0  0  0  0  0  0  0  0  0
  1  2  1  0
  2  3  1  0
  3  4  1  0
  2  5  1  0
  5  6  1  0
  5  7  1  0
  5  8  1  0
  8  9  1  0
  1 10  1  0
  1 11  1  0
  1 12  1  0
  2 13  1  0
  3 14  1  0
  3 15  1  0
  4 16  1  0
  6 17  1  0
  6 18  1  0
  6 19  1  0
  7 20  1  0
  7 21  1  0
  7 22  1  0
  8 23  1  0
  8 24  1  0
  9 25  1  0
M  END
