
     RDKit          3D

 23 23  0  0  0  0  0  0  0  0999 V2000
    3.2951    0.0924    0.6267 C   0  0  0  0  0  0  0  0  0  0  0  0
    2.2829   -0.3758   -0.3705 C   0  0  0  0  0  0  0  0  0  0  0  0
    2.5747    0.1973   -1.7545 C   0  0  0  0  0  0  0  0  0  0  0  0
    0.9108   -0.0793    0.0523 C   0  0  0  0  0  0  0  0  0  0  0  0
   -0.2247    0.1650    0.3997 C   0  0  0  0  0  0  0  0  0  0  0  0
   -1.5828    0.4467    0.8059 C   0  0  0  0  0  0  0  0  0  0  0  0
   -2.5884    0.5599   -0.3408 C   0  0  0  0  0  0  0  0  0  0  0  0
   -3.5803   -0.1439    0.5934 C   0  0  0  0  0  0  0  0  0  0  0  0
   -2.3463   -0.8205    1.2053 C   0  0  0  0  0  0  0  0  0  0  0  0
    4.2887    0.1097    0.1368 H   0  0  0  0  0  0  0  0  0  0  0  0
    3.0187    1.1215    0.9383 H   0  0  0  0  0  0  0  0  0  0  0  0
    3.2915   -0.6275    1.4721 H   0  0  0  0  0  0  0  0  0  0  0  0
    2.3436   -1.4903   -0.4915 H   0  0  0  0  0  0  0  0  0  0  0  0
    3.4776   -0.2676   -2.1582 H   0  0  0  0  0  0  0  0  0  0  0  0
    2.7340    1.2867   -1.6710 H   0  0  0  0  0  0  0  0  0  0  0  0
    1.7005    0.0267   -2.4168 H   0  0  0  0  0  0  0  0  0  0  0  0
   -1.7281    1.2920    1.4971 H   0  0  0  0  0  0  0  0  0  0  0  0
   -2.8655    1.5755   -0.6189 H   0  0  0  0  0  0  0  0  0  0  0  0
   -2.2899   -0.1256   -1.1396 H   0  0  0  0  0  0  0  0  0  0  0  0
   -4.0302    0.5308    1.3364 H   0  0  0  0  0  0  0  0  0  0  0  0
   -4.2723   -0.8158    0.0913 H   0  0  0  0  0  0  0  0  0  0  0  0
   -1.9978   -1.6562    0.5648 H   0  0  0  0  0  0  0  0  0  0  0  0
   -2.4118   -1.0019    2.2769 H   0  0  0  0  0  0  0  0  0  0  0  0
  1  2  1  0
  2  3  1  0
  2  4  1  0
  4  5  3  0
  5  6  1  0
  6  7  1  0
  7  8  1  0
  8  9  1  0
  9  6  1  0
  1 10  1  0
  1 11  1  0
  1 12  1  0
  2 13  1  0
  3 14  1  0
  3 15  1  0
  3 16  1  0
  6 17  1  0
  7 18  1  0
  7 19  1  0
  8 20  1  0
  8 21  1  0
  9 22  1  0
  9 23  1  0
M  END
