
     RDKit          3D

 17 16  0  0  0  0  0  0  0  0999 V2000
   -0.5068   -1.3446   -0.3869 C   0  0  0  0  0  0  0  0  0  0  0  0
   -0.2854    0.0063    0.2717 C   0  0  0  0  0  0  0  0  0  0  0  0
   -0.9059    1.1319   -0.5354 C   0  0  0  0  0  0  0  0  0  0  0  0
   -0.8902   -0.0713    1.6236 C   0  0  0  0  0  0  0  0  0  0  0  0
   -1.5740    0.7953    2.1189 O   0  0  0  0  0  0  0  0  0  0  0  0
    1.1778    0.2033    0.3830 C   0  0  0  0  0  0  0  0  0  0  0  0
    1.6756    0.3584    1.5271 O   0  0  0  0  0  0  0  0  0  0  0  0
    2.0331    0.2197   -0.7927 C   0  0  0  0  0  0  0  0  0  0  0  0
    1.6021    0.0712   -1.9564 O   0  0  0  0  0  0  0  0  0  0  0  0
   -0.3963   -1.1721   -1.4860 H   0  0  0  0  0  0  0  0  0  0  0  0
    0.2728   -2.0256   -0.0189 H   0  0  0  0  0  0  0  0  0  0  0  0
   -1.4987   -1.7688   -0.1569 H   0  0  0  0  0  0  0  0  0  0  0  0
   -0.4077    1.1733   -1.5016 H   0  0  0  0  0  0  0  0  0  0  0  0
   -0.7243    2.0616    0.0479 H   0  0  0  0  0  0  0  0  0  0  0  0
   -1.9787    0.9933   -0.6569 H   0  0  0  0  0  0  0  0  0  0  0  0
   -0.6808   -0.9975    2.1874 H   0  0  0  0  0  0  0  0  0  0  0  0
    3.0875    0.3656   -0.6678 H   0  0  0  0  0  0  0  0  0  0  0  0
  1  2  1  0
  2  3  1  0
  2  4  1  0
  4  5  2  0
  2  6  1  0
  6  7  2  0
  6  8  1  0
  8  9  2  0
  1 10  1  0
  1 11  1  0
  1 12  1  0
  3 13  1  0
  3 14  1  0
  3 15  1  0
  4 16  1  0
  8 17  1  0
M  END
