
     RDKit          3D

 19 18  0  0  0  0  0  0  0  0999 V2000
   -2.2858    0.3235    0.8471 C   0  0  0  0  0  0  0  0  0  0  0  0
   -1.2492    0.3350   -0.2653 C   0  0  0  0  0  0  0  0  0  0  0  0
   -1.4250   -0.8395   -1.1669 C   0  0  0  0  0  0  0  0  0  0  0  0
   -1.9267   -0.7649   -2.2727 O   0  0  0  0  0  0  0  0  0  0  0  0
    0.1093    0.2045    0.4222 C   0  0  0  0  0  0  0  0  0  0  0  0
    1.1633    0.2085   -0.5965 C   0  0  0  0  0  0  0  0  0  0  0  0
    0.9042    0.3044   -1.7734 O   0  0  0  0  0  0  0  0  0  0  0  0
    2.5967    0.0943   -0.2175 C   0  0  0  0  0  0  0  0  0  0  0  0
    2.7708   -0.0100    1.1592 O   0  0  0  0  0  0  0  0  0  0  0  0
   -3.1773   -0.2873    0.5268 H   0  0  0  0  0  0  0  0  0  0  0  0
   -1.8670   -0.0899    1.7864 H   0  0  0  0  0  0  0  0  0  0  0  0
   -2.6484    1.3804    0.9959 H   0  0  0  0  0  0  0  0  0  0  0  0
   -1.2892    1.2770   -0.8473 H   0  0  0  0  0  0  0  0  0  0  0  0
   -1.0790   -1.7971   -0.7924 H   0  0  0  0  0  0  0  0  0  0  0  0
    0.1055   -0.7129    1.0406 H   0  0  0  0  0  0  0  0  0  0  0  0
    0.2632    1.1025    1.0798 H   0  0  0  0  0  0  0  0  0  0  0  0
    3.0995    1.0338   -0.5511 H   0  0  0  0  0  0  0  0  0  0  0  0
    3.0112   -0.7943   -0.7324 H   0  0  0  0  0  0  0  0  0  0  0  0
    2.9239   -0.9682    1.3576 H   0  0  0  0  0  0  0  0  0  0  0  0
  1  2  1  0
  2  3  1  0
  3  4  2  0
  2  5  1  0
  5  6  1  0
  6  7  2  0
  6  8  1  0
  8  9  1  0
  1 10  1  0
  1 11  1  0
  1 12  1  0
  2 13  1  0
  3 14  1  0
  5 15  1  0
  5 16  1  0
  8 17  1  0
  8 18  1  0
  9 19  1  0
M  END
