
     RDKit          3D

 23 23  0  0  0  0  0  0  0  0999 V2000
   -1.7876    0.7332   -0.9066 C   0  0  0  0  0  0  0  0  0  0  0  0
   -1.2023   -0.3523   -0.0073 C   0  0  0  0  0  0  0  0  0  0  0  0
   -1.3465   -0.0716    1.4456 C   0  0  0  0  0  0  0  0  0  0  0  0
    0.1894   -0.7301   -0.4533 C   0  0  0  0  0  0  0  0  0  0  0  0
    1.2609    0.3114   -0.4877 C   0  0  0  0  0  0  0  0  0  0  0  0
    1.5654    0.9625    0.8190 C   0  0  0  0  0  0  0  0  0  0  0  0
    2.5959    1.8974    0.5821 O   0  0  0  0  0  0  0  0  0  0  0  0
    0.4474   -2.1479   -0.6801 C   0  0  0  0  0  0  0  0  0  0  0  0
    0.0812   -1.3958   -1.7794 O   0  0  0  0  0  0  0  0  0  0  0  0
   -1.6401    0.3949   -1.9459 H   0  0  0  0  0  0  0  0  0  0  0  0
   -1.3385    1.7128   -0.7310 H   0  0  0  0  0  0  0  0  0  0  0  0
   -2.8702    0.8067   -0.6318 H   0  0  0  0  0  0  0  0  0  0  0  0
   -1.8880   -1.2354   -0.2081 H   0  0  0  0  0  0  0  0  0  0  0  0
   -2.2490   -0.5767    1.9065 H   0  0  0  0  0  0  0  0  0  0  0  0
   -0.4596   -0.3187    2.0616 H   0  0  0  0  0  0  0  0  0  0  0  0
   -1.5605    1.0081    1.5889 H   0  0  0  0  0  0  0  0  0  0  0  0
    2.2246   -0.0733   -0.8954 H   0  0  0  0  0  0  0  0  0  0  0  0
    0.9642    1.1222   -1.2005 H   0  0  0  0  0  0  0  0  0  0  0  0
    1.9425    0.2019    1.5213 H   0  0  0  0  0  0  0  0  0  0  0  0
    0.7280    1.5717    1.2183 H   0  0  0  0  0  0  0  0  0  0  0  0
    3.1877    1.6274   -0.1417 H   0  0  0  0  0  0  0  0  0  0  0  0
   -0.3069   -2.8677   -0.3235 H   0  0  0  0  0  0  0  0  0  0  0  0
    1.4620   -2.5807   -0.7510 H   0  0  0  0  0  0  0  0  0  0  0  0
  1  2  1  0
  2  3  1  0
  2  4  1  0
  4  5  1  0
  5  6  1  0
  6  7  1  0
  4  8  1  0
  8  9  1  0
  9  4  1  0
  1 10  1  0
  1 11  1  0
  1 12  1  0
  2 13  1  0
  3 14  1  0
  3 15  1  0
  3 16  1  0
  5 17  1  0
  5 18  1  0
  6 19  1  0
  6 20  1  0
  7 21  1  0
  8 22  1  0
  8 23  1  0
M  END
