
     RDKit          3D

 23 23  0  0  0  0  0  0  0  0999 V2000
    1.9387    0.7813    0.1456 C   0  0  0  0  0  0  0  0  0  0  0  0
    1.0438   -0.3922    0.3413 C   0  0  0  0  0  0  0  0  0  0  0  0
    1.0822   -1.2318   -0.9166 C   0  0  0  0  0  0  0  0  0  0  0  0
   -0.3222   -0.1063    0.8288 C   0  0  0  0  0  0  0  0  0  0  0  0
   -0.9741   -1.3608    0.9380 O   0  0  0  0  0  0  0  0  0  0  0  0
   -1.8082   -1.4721   -0.1440 C   0  0  0  0  0  0  0  0  0  0  0  0
   -1.6116   -0.4004   -0.9814 O   0  0  0  0  0  0  0  0  0  0  0  0
   -1.2321    0.6040   -0.0982 C   0  0  0  0  0  0  0  0  0  0  0  0
   -0.7446    1.8375   -0.7372 C   0  0  0  0  0  0  0  0  0  0  0  0
    1.8752    1.5217    0.9903 H   0  0  0  0  0  0  0  0  0  0  0  0
    3.0128    0.4279    0.1946 H   0  0  0  0  0  0  0  0  0  0  0  0
    1.8597    1.2698   -0.8467 H   0  0  0  0  0  0  0  0  0  0  0  0
    1.5328   -1.0413    1.1306 H   0  0  0  0  0  0  0  0  0  0  0  0
    2.1739   -1.3998   -1.1401 H   0  0  0  0  0  0  0  0  0  0  0  0
    0.6828   -2.2336   -0.6332 H   0  0  0  0  0  0  0  0  0  0  0  0
    0.5772   -0.7882   -1.7649 H   0  0  0  0  0  0  0  0  0  0  0  0
   -0.2743    0.3691    1.8088 H   0  0  0  0  0  0  0  0  0  0  0  0
   -1.7093   -2.4170   -0.7076 H   0  0  0  0  0  0  0  0  0  0  0  0
   -2.8846   -1.4340    0.1822 H   0  0  0  0  0  0  0  0  0  0  0  0
   -2.1664    0.8471    0.4918 H   0  0  0  0  0  0  0  0  0  0  0  0
   -0.1017    2.3959   -0.0439 H   0  0  0  0  0  0  0  0  0  0  0  0
   -1.6370    2.5140   -0.9120 H   0  0  0  0  0  0  0  0  0  0  0  0
   -0.3131    1.7092   -1.7514 H   0  0  0  0  0  0  0  0  0  0  0  0
  1  2  1  0
  2  3  1  0
  2  4  1  0
  4  5  1  0
  5  6  1  0
  6  7  1  0
  7  8  1  0
  8  9  1  0
  8  4  1  0
  1 10  1  0
  1 11  1  0
  1 12  1  0
  2 13  1  0
  3 14  1  0
  3 15  1  0
  3 16  1  0
  4 17  1  0
  6 18  1  0
  6 19  1  0
  8 20  1  0
  9 21  1  0
  9 22  1  0
  9 23  1  0
M  END
