
     RDKit          3D

 25 25  0  0  0  0  0  0  0  0999 V2000
   -2.1895   -0.8383   -0.8448 C   0  0  0  0  0  0  0  0  0  0  0  0
   -1.6993    0.2320    0.1380 C   0  0  0  0  0  0  0  0  0  0  0  0
   -2.8248    0.5863    1.0478 C   0  0  0  0  0  0  0  0  0  0  0  0
   -0.5590   -0.1999    0.7007 O   0  0  0  0  0  0  0  0  0  0  0  0
    0.5977    0.4311    0.4589 C   0  0  0  0  0  0  0  0  0  0  0  0
    1.5444    0.6383    1.6415 C   0  0  0  0  0  0  0  0  0  0  0  0
    2.6715    0.3352    0.6389 C   0  0  0  0  0  0  0  0  0  0  0  0
    1.6549   -0.5460   -0.0511 C   0  0  0  0  0  0  0  0  0  0  0  0
    1.7335   -0.6134   -1.5349 C   0  0  0  0  0  0  0  0  0  0  0  0
   -3.3050   -0.8100   -0.8717 H   0  0  0  0  0  0  0  0  0  0  0  0
   -1.7453   -0.6892   -1.8378 H   0  0  0  0  0  0  0  0  0  0  0  0
   -1.8658   -1.8277   -0.4164 H   0  0  0  0  0  0  0  0  0  0  0  0
   -1.4858    1.1253   -0.4972 H   0  0  0  0  0  0  0  0  0  0  0  0
   -2.7491    1.5498    1.5426 H   0  0  0  0  0  0  0  0  0  0  0  0
   -3.7975    0.5555    0.5126 H   0  0  0  0  0  0  0  0  0  0  0  0
   -2.8933   -0.2108    1.8412 H   0  0  0  0  0  0  0  0  0  0  0  0
    0.6219    1.3114   -0.2056 H   0  0  0  0  0  0  0  0  0  0  0  0
    1.5263   -0.1736    2.3816 H   0  0  0  0  0  0  0  0  0  0  0  0
    1.5690    1.6707    2.0260 H   0  0  0  0  0  0  0  0  0  0  0  0
    3.5133   -0.1794    1.1083 H   0  0  0  0  0  0  0  0  0  0  0  0
    2.9229    1.2652    0.1174 H   0  0  0  0  0  0  0  0  0  0  0  0
    1.5937   -1.5290    0.4260 H   0  0  0  0  0  0  0  0  0  0  0  0
    1.1975   -1.5555   -1.8531 H   0  0  0  0  0  0  0  0  0  0  0  0
    2.7681   -0.7373   -1.9039 H   0  0  0  0  0  0  0  0  0  0  0  0
    1.1997    0.2092   -2.0552 H   0  0  0  0  0  0  0  0  0  0  0  0
  1  2  1  0
  2  3  1  0
  2  4  1  0
  4  5  1  0
  5  6  1  0
  6  7  1  0
  7  8  1  0
  8  9  1  0
  8  5  1  0
  1 10  1  0
  1 11  1  0
  1 12  1  0
  2 13  1  0
  3 14  1  0
  3 15  1  0
  3 16  1  0
  5 17  1  0
  6 18  1  0
  6 19  1  0
  7 20  1  0
  7 21  1  0
  8 22  1  0
  9 23  1  0
  9 24  1  0
  9 25  1  0
M  END
