
     RDKit          3D

 18 17  0  0  0  0  0  0  0  0999 V2000
   -1.3853   -0.8503   -0.4698 C   0  0  0  0  0  0  0  0  0  0  0  0
   -0.6410    0.0800    0.4204 C   0  0  0  0  0  0  0  0  0  0  0  0
   -1.4412    1.2642    0.8790 C   0  0  0  0  0  0  0  0  0  0  0  0
    0.5666    0.6045   -0.3584 C   0  0  0  0  0  0  0  0  0  0  0  0
    1.4248   -0.5389   -0.7464 C   0  0  0  0  0  0  0  0  0  0  0  0
    1.1103   -1.2405   -1.7424 O   0  0  0  0  0  0  0  0  0  0  0  0
    2.6218   -0.8489    0.0180 C   0  0  0  0  0  0  0  0  0  0  0  0
    2.9883   -0.1863    1.0233 O   0  0  0  0  0  0  0  0  0  0  0  0
   -2.4761   -0.8153   -0.3593 H   0  0  0  0  0  0  0  0  0  0  0  0
   -1.1595   -0.7062   -1.5528 H   0  0  0  0  0  0  0  0  0  0  0  0
   -1.0544   -1.8969   -0.2344 H   0  0  0  0  0  0  0  0  0  0  0  0
   -0.2618   -0.4601    1.3165 H   0  0  0  0  0  0  0  0  0  0  0  0
   -1.5766    1.2468    1.9953 H   0  0  0  0  0  0  0  0  0  0  0  0
   -0.9398    2.2273    0.6291 H   0  0  0  0  0  0  0  0  0  0  0  0
   -2.4334    1.3110    0.3701 H   0  0  0  0  0  0  0  0  0  0  0  0
    0.2505    1.2146   -1.2210 H   0  0  0  0  0  0  0  0  0  0  0  0
    1.1555    1.2830    0.3005 H   0  0  0  0  0  0  0  0  0  0  0  0
    3.2514   -1.6879   -0.2677 H   0  0  0  0  0  0  0  0  0  0  0  0
  1  2  1  0
  2  3  1  0
  2  4  1  0
  4  5  1  0
  5  6  2  0
  5  7  1  0
  7  8  2  0
  1  9  1  0
  1 10  1  0
  1 11  1  0
  2 12  1  0
  3 13  1  0
  3 14  1  0
  3 15  1  0
  4 16  1  0
  4 17  1  0
  7 18  1  0
M  END
