
     RDKit          3D

 22 22  0  0  0  0  0  0  0  0999 V2000
   -1.8887   -1.3882   -0.1855 C   0  0  0  0  0  0  0  0  0  0  0  0
   -1.2163   -0.0747   -0.3806 C   0  0  0  0  0  0  0  0  0  0  0  0
   -1.6451    0.8548    0.7244 C   0  0  0  0  0  0  0  0  0  0  0  0
    0.2667   -0.1527   -0.5581 C   0  0  0  0  0  0  0  0  0  0  0  0
    1.0607   -0.7464    0.5441 C   0  0  0  0  0  0  0  0  0  0  0  0
    2.0153    0.4422    0.5193 C   0  0  0  0  0  0  0  0  0  0  0  0
    3.1592    0.2668   -0.2171 O   0  0  0  0  0  0  0  0  0  0  0  0
    0.9672    1.1677   -0.3176 C   0  0  0  0  0  0  0  0  0  0  0  0
   -1.2756   -2.2080   -0.5792 H   0  0  0  0  0  0  0  0  0  0  0  0
   -2.8642   -1.4353   -0.7459 H   0  0  0  0  0  0  0  0  0  0  0  0
   -2.1541   -1.5119    0.8818 H   0  0  0  0  0  0  0  0  0  0  0  0
   -1.6283    0.3695   -1.3346 H   0  0  0  0  0  0  0  0  0  0  0  0
   -1.1518    0.6323    1.6886 H   0  0  0  0  0  0  0  0  0  0  0  0
   -2.7396    0.6379    0.9020 H   0  0  0  0  0  0  0  0  0  0  0  0
   -1.6086    1.9213    0.4399 H   0  0  0  0  0  0  0  0  0  0  0  0
    0.5257   -0.6084   -1.5349 H   0  0  0  0  0  0  0  0  0  0  0  0
    0.5714   -0.8605    1.5220 H   0  0  0  0  0  0  0  0  0  0  0  0
    1.6579   -1.6586    0.2565 H   0  0  0  0  0  0  0  0  0  0  0  0
    2.2226    0.8867    1.4981 H   0  0  0  0  0  0  0  0  0  0  0  0
    3.9408   -0.0216    0.3096 H   0  0  0  0  0  0  0  0  0  0  0  0
    0.4401    1.8770    0.3395 H   0  0  0  0  0  0  0  0  0  0  0  0
    1.3446    1.6102   -1.2495 H   0  0  0  0  0  0  0  0  0  0  0  0
  1  2  1  0
  2  3  1  0
  2  4  1  0
  4  5  1  0
  5  6  1  0
  6  7  1  0
  6  8  1  0
  8  4  1  0
  1  9  1  0
  1 10  1  0
  1 11  1  0
  2 12  1  0
  3 13  1  0
  3 14  1  0
  3 15  1  0
  4 16  1  0
  5 17  1  0
  5 18  1  0
  6 19  1  0
  7 20  1  0
  8 21  1  0
  8 22  1  0
M  END
