
     RDKit          3D

 25 25  0  0  0  0  0  0  0  0999 V2000
    1.4196   -1.0695    0.4812 C   0  0  0  0  0  0  0  0  0  0  0  0
    1.2720    0.2451   -0.2547 C   0  0  0  0  0  0  0  0  0  0  0  0
    1.7601    1.3343    0.6350 C   0  0  0  0  0  0  0  0  0  0  0  0
   -0.0458    0.4400   -0.8842 C   0  0  0  0  0  0  0  0  0  0  0  0
   -0.2508   -0.6595   -1.8633 C   0  0  0  0  0  0  0  0  0  0  0  0
   -1.1362   -1.5113   -1.3714 C   0  0  0  0  0  0  0  0  0  0  0  0
   -1.6080   -1.0715   -0.0280 C   0  0  0  0  0  0  0  0  0  0  0  0
   -1.2624    0.3990   -0.0997 C   0  0  0  0  0  0  0  0  0  0  0  0
   -1.2956    1.0720    1.2252 C   0  0  0  0  0  0  0  0  0  0  0  0
    1.0429   -1.9314   -0.0880 H   0  0  0  0  0  0  0  0  0  0  0  0
    1.0533   -1.0167    1.5241 H   0  0  0  0  0  0  0  0  0  0  0  0
    2.5333   -1.2425    0.5727 H   0  0  0  0  0  0  0  0  0  0  0  0
    2.0192    0.1719   -1.1038 H   0  0  0  0  0  0  0  0  0  0  0  0
    1.4850    1.1140    1.6998 H   0  0  0  0  0  0  0  0  0  0  0  0
    2.8874    1.2986    0.6451 H   0  0  0  0  0  0  0  0  0  0  0  0
    1.4904    2.3458    0.3252 H   0  0  0  0  0  0  0  0  0  0  0  0
   -0.0333    1.3975   -1.4865 H   0  0  0  0  0  0  0  0  0  0  0  0
    0.2723   -0.7016   -2.8145 H   0  0  0  0  0  0  0  0  0  0  0  0
   -1.4726   -2.4045   -1.8735 H   0  0  0  0  0  0  0  0  0  0  0  0
   -1.1580   -1.6012    0.8052 H   0  0  0  0  0  0  0  0  0  0  0  0
   -2.7165   -1.1997   -0.0338 H   0  0  0  0  0  0  0  0  0  0  0  0
   -2.0864    0.8579   -0.7065 H   0  0  0  0  0  0  0  0  0  0  0  0
   -0.8115    0.5078    2.0449 H   0  0  0  0  0  0  0  0  0  0  0  0
   -2.3862    1.1198    1.5262 H   0  0  0  0  0  0  0  0  0  0  0  0
   -0.9723    2.1056    1.1232 H   0  0  0  0  0  0  0  0  0  0  0  0
  1  2  1  0
  2  3  1  0
  2  4  1  0
  4  5  1  0
  5  6  2  0
  6  7  1  0
  7  8  1  0
  8  9  1  0
  8  4  1  0
  1 10  1  0
  1 11  1  0
  1 12  1  0
  2 13  1  0
  3 14  1  0
  3 15  1  0
  3 16  1  0
  4 17  1  0
  5 18  1  0
  6 19  1  0
  7 20  1  0
  7 21  1  0
  8 22  1  0
  9 23  1  0
  9 24  1  0
  9 25  1  0
M  END
