
     RDKit          3D

 23 22  0  0  0  0  0  0  0  0999 V2000
    3.1929    0.2434    1.4472 C   0  0  0  0  0  0  0  0  0  0  0  0
    2.2828   -0.7898    0.8145 C   0  0  0  0  0  0  0  0  0  0  0  0
    2.7990   -1.1382   -0.5482 C   0  0  0  0  0  0  0  0  0  0  0  0
    0.9093   -0.2839    0.6976 C   0  0  0  0  0  0  0  0  0  0  0  0
   -0.2238    0.1330    0.6219 C   0  0  0  0  0  0  0  0  0  0  0  0
   -1.6177    0.6192    0.5359 C   0  0  0  0  0  0  0  0  0  0  0  0
   -2.0428    0.3751   -0.9064 C   0  0  0  0  0  0  0  0  0  0  0  0
   -3.4880    0.8684   -1.0349 C   0  0  0  0  0  0  0  0  0  0  0  0
   -4.2180    0.0881   -0.1070 O   0  0  0  0  0  0  0  0  0  0  0  0
    3.4446    1.0650    0.7368 H   0  0  0  0  0  0  0  0  0  0  0  0
    2.7517    0.6979    2.3567 H   0  0  0  0  0  0  0  0  0  0  0  0
    4.1294   -0.2669    1.7452 H   0  0  0  0  0  0  0  0  0  0  0  0
    2.2594   -1.6727    1.4847 H   0  0  0  0  0  0  0  0  0  0  0  0
    2.9753   -0.1896   -1.1116 H   0  0  0  0  0  0  0  0  0  0  0  0
    3.7468   -1.7150   -0.4559 H   0  0  0  0  0  0  0  0  0  0  0  0
    2.0400   -1.7160   -1.1331 H   0  0  0  0  0  0  0  0  0  0  0  0
   -1.7001    1.6855    0.7392 H   0  0  0  0  0  0  0  0  0  0  0  0
   -2.2893    0.0142    1.1713 H   0  0  0  0  0  0  0  0  0  0  0  0
   -1.9738   -0.7037   -1.1525 H   0  0  0  0  0  0  0  0  0  0  0  0
   -1.3942    0.9078   -1.6297 H   0  0  0  0  0  0  0  0  0  0  0  0
   -3.5774    1.9088   -0.6652 H   0  0  0  0  0  0  0  0  0  0  0  0
   -3.8775    0.7217   -2.0491 H   0  0  0  0  0  0  0  0  0  0  0  0
   -4.1285   -0.8523   -0.4566 H   0  0  0  0  0  0  0  0  0  0  0  0
  1  2  1  0
  2  3  1  0
  2  4  1  0
  4  5  3  0
  5  6  1  0
  6  7  1  0
  7  8  1  0
  8  9  1  0
  1 10  1  0
  1 11  1  0
  1 12  1  0
  2 13  1  0
  3 14  1  0
  3 15  1  0
  3 16  1  0
  6 17  1  0
  6 18  1  0
  7 19  1  0
  7 20  1  0
  8 21  1  0
  8 22  1  0
  9 23  1  0
M  END
