
     RDKit          3D

 23 24  0  0  0  0  0  0  0  0999 V2000
   -1.9068    1.5193   -0.0084 C   0  0  0  0  0  0  0  0  0  0  0  0
   -1.2270    0.2367    0.3459 C   0  0  0  0  0  0  0  0  0  0  0  0
   -1.6859   -0.8243   -0.6242 C   0  0  0  0  0  0  0  0  0  0  0  0
   -3.0686   -0.9780   -0.5343 O   0  0  0  0  0  0  0  0  0  0  0  0
    0.2542    0.3408    0.4638 C   0  0  0  0  0  0  0  0  0  0  0  0
    1.1313   -0.7655    0.7972 C   0  0  0  0  0  0  0  0  0  0  0  0
    2.5948   -0.4525    0.9865 C   0  0  0  0  0  0  0  0  0  0  0  0
    2.6167    0.0384   -0.4503 C   0  0  0  0  0  0  0  0  0  0  0  0
    1.1462   -0.2003   -0.6207 C   0  0  0  0  0  0  0  0  0  0  0  0
   -2.9913    1.4074    0.2827 H   0  0  0  0  0  0  0  0  0  0  0  0
   -1.9022    1.7578   -1.0790 H   0  0  0  0  0  0  0  0  0  0  0  0
   -1.5012    2.3281    0.6343 H   0  0  0  0  0  0  0  0  0  0  0  0
   -1.6290   -0.0753    1.3531 H   0  0  0  0  0  0  0  0  0  0  0  0
   -1.4381   -0.5525   -1.6719 H   0  0  0  0  0  0  0  0  0  0  0  0
   -1.2452   -1.8159   -0.4206 H   0  0  0  0  0  0  0  0  0  0  0  0
   -3.5535   -0.2662   -1.0343 H   0  0  0  0  0  0  0  0  0  0  0  0
    0.5999    1.3617    0.8077 H   0  0  0  0  0  0  0  0  0  0  0  0
    0.8795   -1.8157    0.8410 H   0  0  0  0  0  0  0  0  0  0  0  0
    3.2310   -1.3376    1.1789 H   0  0  0  0  0  0  0  0  0  0  0  0
    2.7259    0.3512    1.7443 H   0  0  0  0  0  0  0  0  0  0  0  0
    3.2864   -0.5714   -1.0844 H   0  0  0  0  0  0  0  0  0  0  0  0
    2.9395    1.1032   -0.4665 H   0  0  0  0  0  0  0  0  0  0  0  0
    0.7431   -0.7893   -1.4408 H   0  0  0  0  0  0  0  0  0  0  0  0
  1  2  1  0
  2  3  1  0
  3  4  1  0
  2  5  1  0
  5  6  1  0
  6  7  1  0
  7  8  1  0
  8  9  1  0
  9  5  1  0
  9  6  1  0
  1 10  1  0
  1 11  1  0
  1 12  1  0
  2 13  1  0
  3 14  1  0
  3 15  1  0
  4 16  1  0
  5 17  1  0
  6 18  1  0
  7 19  1  0
  7 20  1  0
  8 21  1  0
  8 22  1  0
  9 23  1  0
M  END
