
     RDKit          3D

 21 20  0  0  0  0  0  0  0  0999 V2000
   -2.0422   -0.9373   -0.2614 C   0  0  0  0  0  0  0  0  0  0  0  0
   -1.2531    0.2906   -0.6422 C   0  0  0  0  0  0  0  0  0  0  0  0
   -2.0804    1.4905   -0.2166 C   0  0  0  0  0  0  0  0  0  0  0  0
    0.0670    0.3956    0.0610 C   0  0  0  0  0  0  0  0  0  0  0  0
    0.9746   -0.7248   -0.2010 C   0  0  0  0  0  0  0  0  0  0  0  0
    0.7120   -1.6757   -0.9260 O   0  0  0  0  0  0  0  0  0  0  0  0
    2.3096   -0.7159    0.4534 C   0  0  0  0  0  0  0  0  0  0  0  0
    3.3610   -0.2073   -0.4645 C   0  0  0  0  0  0  0  0  0  0  0  0
    3.1370    0.1501   -1.6013 O   0  0  0  0  0  0  0  0  0  0  0  0
   -1.5858   -1.8793   -0.5770 H   0  0  0  0  0  0  0  0  0  0  0  0
   -3.0123   -0.8636   -0.8310 H   0  0  0  0  0  0  0  0  0  0  0  0
   -2.2629   -0.9158    0.8259 H   0  0  0  0  0  0  0  0  0  0  0  0
   -1.1637    0.3187   -1.7454 H   0  0  0  0  0  0  0  0  0  0  0  0
   -3.1594    1.3255   -0.3533 H   0  0  0  0  0  0  0  0  0  0  0  0
   -1.8955    1.7167    0.8616 H   0  0  0  0  0  0  0  0  0  0  0  0
   -1.7126    2.3866   -0.7813 H   0  0  0  0  0  0  0  0  0  0  0  0
   -0.1676    0.4070    1.1641 H   0  0  0  0  0  0  0  0  0  0  0  0
    0.5353    1.3475   -0.2638 H   0  0  0  0  0  0  0  0  0  0  0  0
    2.2901   -0.0281    1.3309 H   0  0  0  0  0  0  0  0  0  0  0  0
    2.5764   -1.7276    0.8531 H   0  0  0  0  0  0  0  0  0  0  0  0
    4.3724   -0.1531   -0.1034 H   0  0  0  0  0  0  0  0  0  0  0  0
  1  2  1  0
  2  3  1  0
  2  4  1  0
  4  5  1  0
  5  6  2  0
  5  7  1  0
  7  8  1  0
  8  9  2  0
  1 10  1  0
  1 11  1  0
  1 12  1  0
  2 13  1  0
  3 14  1  0
  3 15  1  0
  3 16  1  0
  4 17  1  0
  4 18  1  0
  7 19  1  0
  7 20  1  0
  8 21  1  0
M  END
