
     RDKit          3D

 18 17  0  0  0  0  0  0  0  0999 V2000
   -1.8876   -1.3106   -0.0341 C   0  0  0  0  0  0  0  0  0  0  0  0
   -0.9393   -0.1959    0.3500 C   0  0  0  0  0  0  0  0  0  0  0  0
   -1.4118    1.1188   -0.1575 C   0  0  0  0  0  0  0  0  0  0  0  0
   -2.3367    1.7182    0.3237 O   0  0  0  0  0  0  0  0  0  0  0  0
    0.4618   -0.4708   -0.1458 C   0  0  0  0  0  0  0  0  0  0  0  0
    1.3420    0.6805    0.2752 C   0  0  0  0  0  0  0  0  0  0  0  0
    2.7501    0.4966   -0.1714 C   0  0  0  0  0  0  0  0  0  0  0  0
    3.1398   -0.4693   -0.8009 O   0  0  0  0  0  0  0  0  0  0  0  0
   -1.7649   -1.6536   -1.0628 H   0  0  0  0  0  0  0  0  0  0  0  0
   -2.9177   -0.9798    0.2152 H   0  0  0  0  0  0  0  0  0  0  0  0
   -1.6778   -2.1852    0.6432 H   0  0  0  0  0  0  0  0  0  0  0  0
   -0.9225   -0.1434    1.4538 H   0  0  0  0  0  0  0  0  0  0  0  0
   -0.8938    1.5535   -1.0023 H   0  0  0  0  0  0  0  0  0  0  0  0
    0.4083   -0.4450   -1.2627 H   0  0  0  0  0  0  0  0  0  0  0  0
    0.8464   -1.4423    0.1466 H   0  0  0  0  0  0  0  0  0  0  0  0
    1.0007    1.6420   -0.1614 H   0  0  0  0  0  0  0  0  0  0  0  0
    1.3581    0.8035    1.3775 H   0  0  0  0  0  0  0  0  0  0  0  0
    3.4447    1.2830    0.0932 H   0  0  0  0  0  0  0  0  0  0  0  0
  1  2  1  0
  2  3  1  0
  3  4  2  0
  2  5  1  0
  5  6  1  0
  6  7  1  0
  7  8  2  0
  1  9  1  0
  1 10  1  0
  1 11  1  0
  2 12  1  0
  3 13  1  0
  5 14  1  0
  5 15  1  0
  6 16  1  0
  6 17  1  0
  7 18  1  0
M  END
