
     RDKit          3D

 20 20  0  0  0  0  0  0  0  0999 V2000
   -1.3407    1.0611    0.2781 C   0  0  0  0  0  0  0  0  0  0  0  0
   -0.5526   -0.2343    0.2867 C   0  0  0  0  0  0  0  0  0  0  0  0
   -0.7450   -0.8822   -1.0644 C   0  0  0  0  0  0  0  0  0  0  0  0
   -1.0955   -1.0968    1.3649 C   0  0  0  0  0  0  0  0  0  0  0  0
   -0.4400   -1.9959    1.8391 O   0  0  0  0  0  0  0  0  0  0  0  0
    0.8848    0.1177    0.5525 C   0  0  0  0  0  0  0  0  0  0  0  0
    1.4801    1.0491   -0.5037 C   0  0  0  0  0  0  0  0  0  0  0  0
    1.9879   -0.3176   -0.3000 C   0  0  0  0  0  0  0  0  0  0  0  0
   -2.3024    0.9893    0.7860 H   0  0  0  0  0  0  0  0  0  0  0  0
   -1.4360    1.4315   -0.7813 H   0  0  0  0  0  0  0  0  0  0  0  0
   -0.7665    1.8731    0.7998 H   0  0  0  0  0  0  0  0  0  0  0  0
   -0.5423   -0.1456   -1.8693 H   0  0  0  0  0  0  0  0  0  0  0  0
   -0.0818   -1.7746   -1.1193 H   0  0  0  0  0  0  0  0  0  0  0  0
   -1.7727   -1.2231   -1.1695 H   0  0  0  0  0  0  0  0  0  0  0  0
   -2.0954   -0.9283    1.7427 H   0  0  0  0  0  0  0  0  0  0  0  0
    1.0875    0.3657    1.6209 H   0  0  0  0  0  0  0  0  0  0  0  0
    0.9087    1.2236   -1.4359 H   0  0  0  0  0  0  0  0  0  0  0  0
    1.9532    1.9467   -0.1004 H   0  0  0  0  0  0  0  0  0  0  0  0
    1.8684   -1.0773   -1.1044 H   0  0  0  0  0  0  0  0  0  0  0  0
    3.0002   -0.3821    0.1777 H   0  0  0  0  0  0  0  0  0  0  0  0
  1  2  1  0
  2  3  1  0
  2  4  1  0
  4  5  2  0
  2  6  1  0
  6  7  1  0
  7  8  1  0
  8  6  1  0
  1  9  1  0
  1 10  1  0
  1 11  1  0
  3 12  1  0
  3 13  1  0
  3 14  1  0
  4 15  1  0
  6 16  1  0
  7 17  1  0
  7 18  1  0
  8 19  1  0
  8 20  1  0
M  END
