
     RDKit          3D

 21 20  0  0  0  0  0  0  0  0999 V2000
   -1.0451   -1.7231   -0.0051 C   0  0  0  0  0  0  0  0  0  0  0  0
   -0.9841   -0.2469   -0.2509 C   0  0  0  0  0  0  0  0  0  0  0  0
   -1.5871    0.4996    0.8954 C   0  0  0  0  0  0  0  0  0  0  0  0
   -1.9671    1.6470    0.8090 O   0  0  0  0  0  0  0  0  0  0  0  0
    0.3115    0.2825   -0.7088 C   0  0  0  0  0  0  0  0  0  0  0  0
    0.0913    1.8028   -0.9106 C   0  0  0  0  0  0  0  0  0  0  0  0
    1.4687    0.2512    0.2238 C   0  0  0  0  0  0  0  0  0  0  0  0
    1.9190   -1.0139    0.7585 C   0  0  0  0  0  0  0  0  0  0  0  0
    1.7768   -1.2122    1.9787 O   0  0  0  0  0  0  0  0  0  0  0  0
   -1.2395   -2.2926   -0.9629 H   0  0  0  0  0  0  0  0  0  0  0  0
   -1.9643   -1.9133    0.6000 H   0  0  0  0  0  0  0  0  0  0  0  0
   -0.2169   -2.2065    0.4721 H   0  0  0  0  0  0  0  0  0  0  0  0
   -1.7117   -0.0758   -1.1010 H   0  0  0  0  0  0  0  0  0  0  0  0
   -1.6920   -0.0002    1.8462 H   0  0  0  0  0  0  0  0  0  0  0  0
    0.5306   -0.1009   -1.7181 H   0  0  0  0  0  0  0  0  0  0  0  0
    0.1527    2.2532    0.0979 H   0  0  0  0  0  0  0  0  0  0  0  0
   -0.8417    2.0110   -1.4404 H   0  0  0  0  0  0  0  0  0  0  0  0
    0.9934    2.1732   -1.4599 H   0  0  0  0  0  0  0  0  0  0  0  0
    2.3437    0.6765   -0.3615 H   0  0  0  0  0  0  0  0  0  0  0  0
    1.2897    1.0047    1.0345 H   0  0  0  0  0  0  0  0  0  0  0  0
    2.3723   -1.8163    0.2032 H   0  0  0  0  0  0  0  0  0  0  0  0
  1  2  1  0
  2  3  1  0
  3  4  2  0
  2  5  1  0
  5  6  1  0
  5  7  1  0
  7  8  1  0
  8  9  2  0
  1 10  1  0
  1 11  1  0
  1 12  1  0
  2 13  1  0
  3 14  1  0
  5 15  1  0
  6 16  1  0
  6 17  1  0
  6 18  1  0
  7 19  1  0
  7 20  1  0
  8 21  1  0
M  END
