
     RDKit          3D

 21 22  0  0  0  0  0  0  0  0999 V2000
    0.8831   -1.8709   -0.4350 C   0  0  0  0  0  0  0  0  0  0  0  0
    0.2191   -0.5745    0.0441 C   0  0  0  0  0  0  0  0  0  0  0  0
   -0.9721   -0.3648   -0.8804 C   0  0  0  0  0  0  0  0  0  0  0  0
   -1.7001    0.8937   -0.4922 C   0  0  0  0  0  0  0  0  0  0  0  0
   -2.2389    0.8960    0.9218 C   0  0  0  0  0  0  0  0  0  0  0  0
   -3.0611    0.8179   -0.2044 O   0  0  0  0  0  0  0  0  0  0  0  0
    1.1184    0.6035   -0.1010 C   0  0  0  0  0  0  0  0  0  0  0  0
    2.4160    0.6988    0.5717 C   0  0  0  0  0  0  0  0  0  0  0  0
    1.2224    1.3922    1.1190 O   0  0  0  0  0  0  0  0  0  0  0  0
    1.4454   -1.6542   -1.3436 H   0  0  0  0  0  0  0  0  0  0  0  0
    0.1021   -2.6327   -0.6417 H   0  0  0  0  0  0  0  0  0  0  0  0
    1.5836   -2.1951    0.3600 H   0  0  0  0  0  0  0  0  0  0  0  0
   -0.1141   -0.7738    1.0734 H   0  0  0  0  0  0  0  0  0  0  0  0
   -0.5536   -0.2853   -1.9133 H   0  0  0  0  0  0  0  0  0  0  0  0
   -1.5888   -1.2602   -0.8143 H   0  0  0  0  0  0  0  0  0  0  0  0
   -1.3974    1.8593   -0.9500 H   0  0  0  0  0  0  0  0  0  0  0  0
   -2.1060    1.8577    1.4388 H   0  0  0  0  0  0  0  0  0  0  0  0
   -2.1782   -0.0246    1.4997 H   0  0  0  0  0  0  0  0  0  0  0  0
    0.9941    1.2409   -1.0104 H   0  0  0  0  0  0  0  0  0  0  0  0
    3.1458    1.4404    0.2187 H   0  0  0  0  0  0  0  0  0  0  0  0
    2.7803   -0.0644    1.2737 H   0  0  0  0  0  0  0  0  0  0  0  0
  1  2  1  0
  2  3  1  0
  3  4  1  0
  4  5  1  0
  5  6  1  0
  2  7  1  0
  7  8  1  0
  8  9  1  0
  6  4  1  0
  9  7  1  0
  1 10  1  0
  1 11  1  0
  1 12  1  0
  2 13  1  0
  3 14  1  0
  3 15  1  0
  4 16  1  0
  5 17  1  0
  5 18  1  0
  7 19  1  0
  8 20  1  0
  8 21  1  0
M  END
