
     RDKit          3D

 19 18  0  0  0  0  0  0  0  0999 V2000
   -1.5535   -1.3529    0.6528 C   0  0  0  0  0  0  0  0  0  0  0  0
   -1.0725   -0.1720   -0.1500 C   0  0  0  0  0  0  0  0  0  0  0  0
   -1.6520    1.1269    0.3377 C   0  0  0  0  0  0  0  0  0  0  0  0
    0.3768   -0.1048   -0.0065 C   0  0  0  0  0  0  0  0  0  0  0  0
    1.5744   -0.0554    0.1323 C   0  0  0  0  0  0  0  0  0  0  0  0
    3.0359    0.0246    0.3184 C   0  0  0  0  0  0  0  0  0  0  0  0
    3.3512    1.3731    0.4670 O   0  0  0  0  0  0  0  0  0  0  0  0
   -1.4178   -0.3427   -1.5708 C   0  0  0  0  0  0  0  0  0  0  0  0
   -1.4150    0.6218   -2.3126 O   0  0  0  0  0  0  0  0  0  0  0  0
   -1.0741   -1.3882    1.6491 H   0  0  0  0  0  0  0  0  0  0  0  0
   -1.2201   -2.2773    0.1091 H   0  0  0  0  0  0  0  0  0  0  0  0
   -2.6543   -1.4131    0.7294 H   0  0  0  0  0  0  0  0  0  0  0  0
   -1.2359    1.9295   -0.3224 H   0  0  0  0  0  0  0  0  0  0  0  0
   -1.2960    1.3594    1.3668 H   0  0  0  0  0  0  0  0  0  0  0  0
   -2.7607    1.1592    0.2530 H   0  0  0  0  0  0  0  0  0  0  0  0
    3.3165   -0.5481    1.2308 H   0  0  0  0  0  0  0  0  0  0  0  0
    3.5800   -0.3565   -0.5611 H   0  0  0  0  0  0  0  0  0  0  0  0
    3.7932    1.7187   -0.3402 H   0  0  0  0  0  0  0  0  0  0  0  0
   -1.6762   -1.3024   -1.9828 H   0  0  0  0  0  0  0  0  0  0  0  0
  1  2  1  0
  2  3  1  0
  2  4  1  0
  4  5  3  0
  5  6  1  0
  6  7  1  0
  2  8  1  0
  8  9  2  0
  1 10  1  0
  1 11  1  0
  1 12  1  0
  3 13  1  0
  3 14  1  0
  3 15  1  0
  6 16  1  0
  6 17  1  0
  7 18  1  0
  8 19  1  0
M  END
