
     RDKit          3D

 23 23  0  0  0  0  0  0  0  0999 V2000
   -1.2866    1.2633    0.2065 C   0  0  0  0  0  0  0  0  0  0  0  0
   -1.1057   -0.1998    0.4254 C   0  0  0  0  0  0  0  0  0  0  0  0
   -2.2749   -1.0188   -0.0882 C   0  0  0  0  0  0  0  0  0  0  0  0
    0.1756   -0.7091   -0.2460 C   0  0  0  0  0  0  0  0  0  0  0  0
    0.2870   -2.0944   -0.0081 O   0  0  0  0  0  0  0  0  0  0  0  0
    1.3242    0.0408    0.3408 C   0  0  0  0  0  0  0  0  0  0  0  0
    1.4407   -0.0696    1.7165 O   0  0  0  0  0  0  0  0  0  0  0  0
    2.5725    0.2729   -0.4224 C   0  0  0  0  0  0  0  0  0  0  0  0
    1.6103    1.4032   -0.2530 C   0  0  0  0  0  0  0  0  0  0  0  0
   -2.2810    1.5388    0.6447 H   0  0  0  0  0  0  0  0  0  0  0  0
   -1.2278    1.5777   -0.8550 H   0  0  0  0  0  0  0  0  0  0  0  0
   -0.5436    1.8097    0.8210 H   0  0  0  0  0  0  0  0  0  0  0  0
   -1.0636   -0.3757    1.5181 H   0  0  0  0  0  0  0  0  0  0  0  0
   -3.2244   -0.4697   -0.0054 H   0  0  0  0  0  0  0  0  0  0  0  0
   -2.3111   -1.9674    0.4853 H   0  0  0  0  0  0  0  0  0  0  0  0
   -2.0707   -1.3176   -1.1541 H   0  0  0  0  0  0  0  0  0  0  0  0
    0.1431   -0.5800   -1.3403 H   0  0  0  0  0  0  0  0  0  0  0  0
   -0.3239   -2.3885    0.7152 H   0  0  0  0  0  0  0  0  0  0  0  0
    0.9664   -0.8587    2.0776 H   0  0  0  0  0  0  0  0  0  0  0  0
    3.5059    0.3034    0.1748 H   0  0  0  0  0  0  0  0  0  0  0  0
    2.7258   -0.1365   -1.4308 H   0  0  0  0  0  0  0  0  0  0  0  0
    1.1198    1.7356   -1.1835 H   0  0  0  0  0  0  0  0  0  0  0  0
    1.8417    2.2404    0.4377 H   0  0  0  0  0  0  0  0  0  0  0  0
  1  2  1  0
  2  3  1  0
  2  4  1  0
  4  5  1  0
  4  6  1  0
  6  7  1  0
  6  8  1  0
  8  9  1  0
  9  6  1  0
  1 10  1  0
  1 11  1  0
  1 12  1  0
  2 13  1  0
  3 14  1  0
  3 15  1  0
  3 16  1  0
  4 17  1  0
  5 18  1  0
  7 19  1  0
  8 20  1  0
  8 21  1  0
  9 22  1  0
  9 23  1  0
M  END
