
     RDKit          3D

 21 22  0  0  0  0  0  0  0  0999 V2000
   -1.4965   -1.2397    0.3428 C   0  0  0  0  0  0  0  0  0  0  0  0
   -0.7370   -0.0956   -0.3395 C   0  0  0  0  0  0  0  0  0  0  0  0
   -1.2494    1.1807    0.2427 C   0  0  0  0  0  0  0  0  0  0  0  0
   -0.9815   -0.2116   -1.7121 O   0  0  0  0  0  0  0  0  0  0  0  0
    0.7190   -0.3403   -0.1056 C   0  0  0  0  0  0  0  0  0  0  0  0
    1.1315   -0.3791    1.3484 C   0  0  0  0  0  0  0  0  0  0  0  0
    2.2771    0.3588    1.0867 O   0  0  0  0  0  0  0  0  0  0  0  0
    1.7175    0.7490   -0.1215 C   0  0  0  0  0  0  0  0  0  0  0  0
    1.7126   -0.2645   -1.1898 C   0  0  0  0  0  0  0  0  0  0  0  0
   -0.8823   -2.1450    0.1748 H   0  0  0  0  0  0  0  0  0  0  0  0
   -2.5245   -1.3109   -0.0186 H   0  0  0  0  0  0  0  0  0  0  0  0
   -1.4299   -1.0161    1.4347 H   0  0  0  0  0  0  0  0  0  0  0  0
   -2.1433    1.4854   -0.3757 H   0  0  0  0  0  0  0  0  0  0  0  0
   -0.5201    2.0220    0.1859 H   0  0  0  0  0  0  0  0  0  0  0  0
   -1.6498    1.0370    1.2662 H   0  0  0  0  0  0  0  0  0  0  0  0
   -1.0271    0.6721   -2.1533 H   0  0  0  0  0  0  0  0  0  0  0  0
    0.3909    0.0921    2.0123 H   0  0  0  0  0  0  0  0  0  0  0  0
    1.3886   -1.4370    1.6138 H   0  0  0  0  0  0  0  0  0  0  0  0
    1.4663    1.7994   -0.2725 H   0  0  0  0  0  0  0  0  0  0  0  0
    2.5137   -1.0319   -1.2453 H   0  0  0  0  0  0  0  0  0  0  0  0
    1.3243    0.0752   -2.1745 H   0  0  0  0  0  0  0  0  0  0  0  0
  1  2  1  0
  2  3  1  0
  2  4  1  0
  2  5  1  0
  5  6  1  0
  6  7  1  0
  7  8  1  0
  8  9  1  0
  8  5  1  0
  9  5  1  0
  1 10  1  0
  1 11  1  0
  1 12  1  0
  3 13  1  0
  3 14  1  0
  3 15  1  0
  4 16  1  0
  6 17  1  0
  6 18  1  0
  8 19  1  0
  9 20  1  0
  9 21  1  0
M  END
