
     RDKit          3D

 23 22  0  0  0  0  0  0  0  0999 V2000
   -1.5096    1.5406   -0.5986 C   0  0  0  0  0  0  0  0  0  0  0  0
   -1.4967    0.0792   -0.2091 C   0  0  0  0  0  0  0  0  0  0  0  0
   -1.9941   -0.1751    1.1435 C   0  0  0  0  0  0  0  0  0  0  0  0
   -1.3109   -0.2729    2.1465 O   0  0  0  0  0  0  0  0  0  0  0  0
   -0.1132   -0.4721   -0.4651 C   0  0  0  0  0  0  0  0  0  0  0  0
    0.0150   -1.9142   -0.1143 C   0  0  0  0  0  0  0  0  0  0  0  0
    0.9017    0.4160    0.2022 C   0  0  0  0  0  0  0  0  0  0  0  0
    2.3079   -0.0572   -0.0002 C   0  0  0  0  0  0  0  0  0  0  0  0
    3.1538    0.8466    0.6641 O   0  0  0  0  0  0  0  0  0  0  0  0
   -2.5598    1.9144   -0.7279 H   0  0  0  0  0  0  0  0  0  0  0  0
   -1.0464    2.1929    0.1741 H   0  0  0  0  0  0  0  0  0  0  0  0
   -0.9431    1.6107   -1.5566 H   0  0  0  0  0  0  0  0  0  0  0  0
   -2.2064   -0.4289   -0.9275 H   0  0  0  0  0  0  0  0  0  0  0  0
   -3.0795   -0.2943    1.3073 H   0  0  0  0  0  0  0  0  0  0  0  0
    0.0450   -0.3747   -1.5793 H   0  0  0  0  0  0  0  0  0  0  0  0
    0.3418   -2.5376   -0.9635 H   0  0  0  0  0  0  0  0  0  0  0  0
    0.6698   -2.1077    0.7588 H   0  0  0  0  0  0  0  0  0  0  0  0
   -0.9992   -2.2888    0.1909 H   0  0  0  0  0  0  0  0  0  0  0  0
    0.7188    0.4999    1.2825 H   0  0  0  0  0  0  0  0  0  0  0  0
    0.8014    1.4288   -0.2586 H   0  0  0  0  0  0  0  0  0  0  0  0
    2.5958   -0.1820   -1.0456 H   0  0  0  0  0  0  0  0  0  0  0  0
    2.4588   -1.0403    0.5238 H   0  0  0  0  0  0  0  0  0  0  0  0
    3.2493    1.6165    0.0527 H   0  0  0  0  0  0  0  0  0  0  0  0
  1  2  1  0
  2  3  1  0
  3  4  2  0
  2  5  1  0
  5  6  1  0
  5  7  1  0
  7  8  1  0
  8  9  1  0
  1 10  1  0
  1 11  1  0
  1 12  1  0
  2 13  1  0
  3 14  1  0
  5 15  1  0
  6 16  1  0
  6 17  1  0
  6 18  1  0
  7 19  1  0
  7 20  1  0
  8 21  1  0
  8 22  1  0
  9 23  1  0
M  END
