
     RDKit          3D

 23 23  0  0  0  0  0  0  0  0999 V2000
   -1.3350   -1.1848    0.4753 C   0  0  0  0  0  0  0  0  0  0  0  0
   -1.2927    0.3115    0.5919 C   0  0  0  0  0  0  0  0  0  0  0  0
   -2.6563    0.8432    0.1231 C   0  0  0  0  0  0  0  0  0  0  0  0
   -0.2398    0.9666   -0.2253 C   0  0  0  0  0  0  0  0  0  0  0  0
    1.1632    0.5844    0.0738 C   0  0  0  0  0  0  0  0  0  0  0  0
    1.4533    0.8893    1.4214 O   0  0  0  0  0  0  0  0  0  0  0  0
    1.5614   -0.8183   -0.1844 C   0  0  0  0  0  0  0  0  0  0  0  0
    2.7149   -0.9457   -1.1926 C   0  0  0  0  0  0  0  0  0  0  0  0
    1.4135   -1.4326   -1.4067 O   0  0  0  0  0  0  0  0  0  0  0  0
   -0.6583   -1.6765    1.2081 H   0  0  0  0  0  0  0  0  0  0  0  0
   -2.4047   -1.4830    0.6779 H   0  0  0  0  0  0  0  0  0  0  0  0
   -1.1624   -1.4675   -0.5644 H   0  0  0  0  0  0  0  0  0  0  0  0
   -1.2153    0.5770    1.6849 H   0  0  0  0  0  0  0  0  0  0  0  0
   -3.4162    0.0426    0.3320 H   0  0  0  0  0  0  0  0  0  0  0  0
   -2.9290    1.7583    0.6731 H   0  0  0  0  0  0  0  0  0  0  0  0
   -2.6001    1.0500   -0.9601 H   0  0  0  0  0  0  0  0  0  0  0  0
   -0.3029    2.0868   -0.0708 H   0  0  0  0  0  0  0  0  0  0  0  0
   -0.4120    0.8477   -1.3204 H   0  0  0  0  0  0  0  0  0  0  0  0
    1.8221    1.3101   -0.4961 H   0  0  0  0  0  0  0  0  0  0  0  0
    2.4282    0.9010    1.5565 H   0  0  0  0  0  0  0  0  0  0  0  0
    1.6337   -1.4680    0.7157 H   0  0  0  0  0  0  0  0  0  0  0  0
    2.9348   -0.0713   -1.8365 H   0  0  0  0  0  0  0  0  0  0  0  0
    3.4997   -1.6209   -0.8652 H   0  0  0  0  0  0  0  0  0  0  0  0
  1  2  1  0
  2  3  1  0
  2  4  1  0
  4  5  1  0
  5  6  1  0
  5  7  1  0
  7  8  1  0
  8  9  1  0
  9  7  1  0
  1 10  1  0
  1 11  1  0
  1 12  1  0
  2 13  1  0
  3 14  1  0
  3 15  1  0
  3 16  1  0
  4 17  1  0
  4 18  1  0
  5 19  1  0
  6 20  1  0
  7 21  1  0
  8 22  1  0
  8 23  1  0
M  END
