
     RDKit          3D

 21 22  0  0  0  0  0  0  0  0999 V2000
    2.1873   -0.8272   -0.4469 C   0  0  0  0  0  0  0  0  0  0  0  0
    1.1803   -0.0447    0.3750 C   0  0  0  0  0  0  0  0  0  0  0  0
    1.8120    1.3004    0.6379 C   0  0  0  0  0  0  0  0  0  0  0  0
    2.4906    1.5009    1.6250 O   0  0  0  0  0  0  0  0  0  0  0  0
   -0.0925    0.2203   -0.3756 C   0  0  0  0  0  0  0  0  0  0  0  0
   -0.8592   -0.9756   -0.8406 C   0  0  0  0  0  0  0  0  0  0  0  0
   -2.1105   -0.5471   -0.1544 C   0  0  0  0  0  0  0  0  0  0  0  0
   -2.4959    0.8607    0.0208 C   0  0  0  0  0  0  0  0  0  0  0  0
   -1.2222    0.4696    0.6304 C   0  0  0  0  0  0  0  0  0  0  0  0
    1.7251   -1.6284   -1.0396 H   0  0  0  0  0  0  0  0  0  0  0  0
    2.8674   -0.1787   -1.0225 H   0  0  0  0  0  0  0  0  0  0  0  0
    2.8441   -1.3493    0.3079 H   0  0  0  0  0  0  0  0  0  0  0  0
    0.9830   -0.5186    1.3598 H   0  0  0  0  0  0  0  0  0  0  0  0
    1.6602    2.1131   -0.0684 H   0  0  0  0  0  0  0  0  0  0  0  0
   -0.0066    0.9939   -1.1549 H   0  0  0  0  0  0  0  0  0  0  0  0
   -0.4781   -1.9661   -0.5407 H   0  0  0  0  0  0  0  0  0  0  0  0
   -1.0163   -0.9766   -1.9577 H   0  0  0  0  0  0  0  0  0  0  0  0
   -2.6212   -1.3144    0.4368 H   0  0  0  0  0  0  0  0  0  0  0  0
   -3.3486    1.0622    0.6791 H   0  0  0  0  0  0  0  0  0  0  0  0
   -2.4183    1.6080   -0.8145 H   0  0  0  0  0  0  0  0  0  0  0  0
   -1.0808    0.1976    1.6713 H   0  0  0  0  0  0  0  0  0  0  0  0
  1  2  1  0
  2  3  1  0
  3  4  2  0
  2  5  1  0
  5  6  1  0
  6  7  1  0
  7  8  1  0
  8  9  1  0
  9  5  1  0
  9  7  1  0
  1 10  1  0
  1 11  1  0
  1 12  1  0
  2 13  1  0
  3 14  1  0
  5 15  1  0
  6 16  1  0
  6 17  1  0
  7 18  1  0
  8 19  1  0
  8 20  1  0
  9 21  1  0
M  END
