
     RDKit          3D

 23 23  0  0  0  0  0  0  0  0999 V2000
   -1.3288   -1.4961    0.1324 C   0  0  0  0  0  0  0  0  0  0  0  0
   -0.8024   -0.0588    0.0302 C   0  0  0  0  0  0  0  0  0  0  0  0
   -1.5494    0.7616    1.0238 C   0  0  0  0  0  0  0  0  0  0  0  0
   -1.0555    0.3963   -1.3695 C   0  0  0  0  0  0  0  0  0  0  0  0
    0.6635   -0.1170    0.3401 C   0  0  0  0  0  0  0  0  0  0  0  0
    1.3596    1.1999    0.2908 C   0  0  0  0  0  0  0  0  0  0  0  0
    2.6399    0.8716   -0.1925 O   0  0  0  0  0  0  0  0  0  0  0  0
    2.6476   -0.5002   -0.3789 C   0  0  0  0  0  0  0  0  0  0  0  0
    1.3155   -0.8065   -0.7097 O   0  0  0  0  0  0  0  0  0  0  0  0
   -0.5201   -2.2251    0.2485 H   0  0  0  0  0  0  0  0  0  0  0  0
   -1.9203   -1.7780   -0.7541 H   0  0  0  0  0  0  0  0  0  0  0  0
   -1.9999   -1.6160    1.0085 H   0  0  0  0  0  0  0  0  0  0  0  0
   -1.2952    0.4232    2.0498 H   0  0  0  0  0  0  0  0  0  0  0  0
   -1.3431    1.8341    0.9767 H   0  0  0  0  0  0  0  0  0  0  0  0
   -2.6444    0.5499    0.8945 H   0  0  0  0  0  0  0  0  0  0  0  0
   -2.1248    0.7589   -1.4083 H   0  0  0  0  0  0  0  0  0  0  0  0
   -1.0472   -0.4902   -2.0563 H   0  0  0  0  0  0  0  0  0  0  0  0
   -0.4216    1.2027   -1.7273 H   0  0  0  0  0  0  0  0  0  0  0  0
    0.9099   -0.6492    1.2535 H   0  0  0  0  0  0  0  0  0  0  0  0
    0.8626    1.9601   -0.3365 H   0  0  0  0  0  0  0  0  0  0  0  0
    1.4575    1.6625    1.3053 H   0  0  0  0  0  0  0  0  0  0  0  0
    3.3428   -0.8165   -1.1802 H   0  0  0  0  0  0  0  0  0  0  0  0
    2.8535   -1.0673    0.5592 H   0  0  0  0  0  0  0  0  0  0  0  0
  1  2  1  0
  2  3  1  0
  2  4  1  0
  2  5  1  0
  5  6  1  0
  6  7  1  0
  7  8  1  0
  8  9  1  0
  9  5  1  0
  1 10  1  0
  1 11  1  0
  1 12  1  0
  3 13  1  0
  3 14  1  0
  3 15  1  0
  4 16  1  0
  4 17  1  0
  4 18  1  0
  5 19  1  0
  6 20  1  0
  6 21  1  0
  8 22  1  0
  8 23  1  0
M  END
