
     RDKit          3D

 25 24  0  0  0  0  0  0  0  0999 V2000
   -2.6193   -1.3160    0.6994 C   0  0  0  0  0  0  0  0  0  0  0  0
   -1.8144   -0.1135    0.2553 C   0  0  0  0  0  0  0  0  0  0  0  0
   -2.1529    0.1790   -1.1998 C   0  0  0  0  0  0  0  0  0  0  0  0
   -1.4447    1.2767   -1.6718 O   0  0  0  0  0  0  0  0  0  0  0  0
   -0.3609   -0.4572    0.4186 C   0  0  0  0  0  0  0  0  0  0  0  0
    0.4969    0.5519    0.0499 O   0  0  0  0  0  0  0  0  0  0  0  0
    1.7994    0.1051    0.2496 C   0  0  0  0  0  0  0  0  0  0  0  0
    2.5552    1.0027    1.2038 C   0  0  0  0  0  0  0  0  0  0  0  0
    2.5749    0.1183   -1.0740 C   0  0  0  0  0  0  0  0  0  0  0  0
   -2.1965   -1.6159    1.6976 H   0  0  0  0  0  0  0  0  0  0  0  0
   -3.6828   -1.1116    0.8227 H   0  0  0  0  0  0  0  0  0  0  0  0
   -2.3820   -2.1383   -0.0027 H   0  0  0  0  0  0  0  0  0  0  0  0
   -2.0979    0.8058    0.8235 H   0  0  0  0  0  0  0  0  0  0  0  0
   -3.2261    0.4211   -1.2681 H   0  0  0  0  0  0  0  0  0  0  0  0
   -1.8938   -0.6765   -1.8629 H   0  0  0  0  0  0  0  0  0  0  0  0
   -1.5046    1.9795   -0.9512 H   0  0  0  0  0  0  0  0  0  0  0  0
   -0.1978   -0.6918    1.4919 H   0  0  0  0  0  0  0  0  0  0  0  0
   -0.1684   -1.3734   -0.1645 H   0  0  0  0  0  0  0  0  0  0  0  0
    1.8054   -0.9158    0.6415 H   0  0  0  0  0  0  0  0  0  0  0  0
    3.5972    0.6160    1.2400 H   0  0  0  0  0  0  0  0  0  0  0  0
    2.4955    2.0673    0.9214 H   0  0  0  0  0  0  0  0  0  0  0  0
    2.1690    0.9310    2.2406 H   0  0  0  0  0  0  0  0  0  0  0  0
    2.2089    1.0104   -1.6197 H   0  0  0  0  0  0  0  0  0  0  0  0
    2.4007   -0.8300   -1.6177 H   0  0  0  0  0  0  0  0  0  0  0  0
    3.6390    0.1752   -0.7971 H   0  0  0  0  0  0  0  0  0  0  0  0
  1  2  1  0
  2  3  1  0
  3  4  1  0
  2  5  1  0
  5  6  1  0
  6  7  1  0
  7  8  1  0
  7  9  1  0
  1 10  1  0
  1 11  1  0
  1 12  1  0
  2 13  1  0
  3 14  1  0
  3 15  1  0
  4 16  1  0
  5 17  1  0
  5 18  1  0
  7 19  1  0
  8 20  1  0
  8 21  1  0
  8 22  1  0
  9 23  1  0
  9 24  1  0
  9 25  1  0
M  END
