
     RDKit          3D

 21 21  0  0  0  0  0  0  0  0999 V2000
   -1.0034   -1.4713   -0.0894 C   0  0  0  0  0  0  0  0  0  0  0  0
   -0.5594   -0.2423   -0.7703 C   0  0  0  0  0  0  0  0  0  0  0  0
   -1.6276    0.8432   -0.5837 C   0  0  0  0  0  0  0  0  0  0  0  0
   -1.8209    1.1137    0.7697 O   0  0  0  0  0  0  0  0  0  0  0  0
    0.7395    0.3300   -0.3586 C   0  0  0  0  0  0  0  0  0  0  0  0
    0.9518    0.7561    1.0431 C   0  0  0  0  0  0  0  0  0  0  0  0
    2.3510    0.2703    0.9150 C   0  0  0  0  0  0  0  0  0  0  0  0
    3.4183    0.5240    1.4152 O   0  0  0  0  0  0  0  0  0  0  0  0
    1.8572   -0.6777   -0.1122 C   0  0  0  0  0  0  0  0  0  0  0  0
   -0.5308   -1.6951    0.8748 H   0  0  0  0  0  0  0  0  0  0  0  0
   -2.1128   -1.4235    0.1199 H   0  0  0  0  0  0  0  0  0  0  0  0
   -0.8866   -2.4030   -0.7113 H   0  0  0  0  0  0  0  0  0  0  0  0
   -0.5276   -0.4297   -1.8654 H   0  0  0  0  0  0  0  0  0  0  0  0
   -2.5990    0.5365   -0.9924 H   0  0  0  0  0  0  0  0  0  0  0  0
   -1.3429    1.7823   -1.0937 H   0  0  0  0  0  0  0  0  0  0  0  0
   -2.6970    1.5387    0.9045 H   0  0  0  0  0  0  0  0  0  0  0  0
    1.1114    1.0841   -1.0699 H   0  0  0  0  0  0  0  0  0  0  0  0
    0.4605    0.1409    1.8349 H   0  0  0  0  0  0  0  0  0  0  0  0
    0.8557    1.8415    1.2585 H   0  0  0  0  0  0  0  0  0  0  0  0
    1.4377   -1.5876    0.3398 H   0  0  0  0  0  0  0  0  0  0  0  0
    2.5248   -0.8310   -0.9816 H   0  0  0  0  0  0  0  0  0  0  0  0
  1  2  1  0
  2  3  1  0
  3  4  1  0
  2  5  1  0
  5  6  1  0
  6  7  1  0
  7  8  2  0
  7  9  1  0
  9  5  1  0
  1 10  1  0
  1 11  1  0
  1 12  1  0
  2 13  1  0
  3 14  1  0
  3 15  1  0
  4 16  1  0
  5 17  1  0
  6 18  1  0
  6 19  1  0
  9 20  1  0
  9 21  1  0
M  END
