
     RDKit          3D

 25 25  0  0  0  0  0  0  0  0999 V2000
   -2.2579   -0.1587    1.1098 C   0  0  0  0  0  0  0  0  0  0  0  0
   -1.0942   -0.0151    0.1079 C   0  0  0  0  0  0  0  0  0  0  0  0
   -1.3708    1.2679   -0.6157 C   0  0  0  0  0  0  0  0  0  0  0  0
   -1.2875   -1.1456   -0.8883 C   0  0  0  0  0  0  0  0  0  0  0  0
    0.0377   -0.0962    0.8319 O   0  0  0  0  0  0  0  0  0  0  0  0
    1.2509   -0.0226    0.2396 C   0  0  0  0  0  0  0  0  0  0  0  0
    1.5739    1.2548   -0.5157 C   0  0  0  0  0  0  0  0  0  0  0  0
    2.3967   -0.4732    1.1998 C   0  0  0  0  0  0  0  0  0  0  0  0
    2.0849   -1.1907   -0.0980 C   0  0  0  0  0  0  0  0  0  0  0  0
   -2.5208   -1.2291    1.2420 H   0  0  0  0  0  0  0  0  0  0  0  0
   -1.9600    0.2178    2.1009 H   0  0  0  0  0  0  0  0  0  0  0  0
   -3.1438    0.3847    0.7820 H   0  0  0  0  0  0  0  0  0  0  0  0
   -0.8396    1.4065   -1.5600 H   0  0  0  0  0  0  0  0  0  0  0  0
   -1.3691    2.1451    0.0651 H   0  0  0  0  0  0  0  0  0  0  0  0
   -2.4612    1.1918   -0.9247 H   0  0  0  0  0  0  0  0  0  0  0  0
   -1.0865   -2.1362   -0.4360 H   0  0  0  0  0  0  0  0  0  0  0  0
   -0.7413   -0.9767   -1.8332 H   0  0  0  0  0  0  0  0  0  0  0  0
   -2.3693   -1.1397   -1.1505 H   0  0  0  0  0  0  0  0  0  0  0  0
    1.5252    1.1144   -1.6216 H   0  0  0  0  0  0  0  0  0  0  0  0
    2.6552    1.5471   -0.3479 H   0  0  0  0  0  0  0  0  0  0  0  0
    0.9989    2.1235   -0.2048 H   0  0  0  0  0  0  0  0  0  0  0  0
    2.1349   -0.9204    2.1519 H   0  0  0  0  0  0  0  0  0  0  0  0
    3.2934    0.1751    1.2381 H   0  0  0  0  0  0  0  0  0  0  0  0
    2.7991   -1.0938   -0.9388 H   0  0  0  0  0  0  0  0  0  0  0  0
    1.7511   -2.2306    0.0660 H   0  0  0  0  0  0  0  0  0  0  0  0
  1  2  1  0
  2  3  1  0
  2  4  1  0
  2  5  1  0
  5  6  1  0
  6  7  1  0
  6  8  1  0
  8  9  1  0
  9  6  1  0
  1 10  1  0
  1 11  1  0
  1 12  1  0
  3 13  1  0
  3 14  1  0
  3 15  1  0
  4 16  1  0
  4 17  1  0
  4 18  1  0
  7 19  1  0
  7 20  1  0
  7 21  1  0
  8 22  1  0
  8 23  1  0
  9 24  1  0
  9 25  1  0
M  END
