
     RDKit          3D

 23 24  0  0  0  0  0  0  0  0999 V2000
    2.2701   -0.8379   -0.5296 C   0  0  0  0  0  0  0  0  0  0  0  0
    1.2219    0.2694   -0.4434 C   0  0  0  0  0  0  0  0  0  0  0  0
    1.3347    0.8977    0.8946 C   0  0  0  0  0  0  0  0  0  0  0  0
   -0.1212   -0.2502   -0.8077 C   0  0  0  0  0  0  0  0  0  0  0  0
   -0.6078   -1.3869    0.0974 C   0  0  0  0  0  0  0  0  0  0  0  0
   -2.0207   -0.8454   -0.1624 C   0  0  0  0  0  0  0  0  0  0  0  0
   -1.3322    0.4791   -0.4812 C   0  0  0  0  0  0  0  0  0  0  0  0
   -2.0053    1.5652   -0.9241 C   0  0  0  0  0  0  0  0  0  0  0  0
   -1.4622    1.4400    0.4733 O   0  0  0  0  0  0  0  0  0  0  0  0
    2.6306   -0.9184   -1.5884 H   0  0  0  0  0  0  0  0  0  0  0  0
    1.8362   -1.8305   -0.2907 H   0  0  0  0  0  0  0  0  0  0  0  0
    3.1605   -0.6090    0.0867 H   0  0  0  0  0  0  0  0  0  0  0  0
    1.5203    1.0217   -1.2043 H   0  0  0  0  0  0  0  0  0  0  0  0
    1.0468    1.9768    0.8176 H   0  0  0  0  0  0  0  0  0  0  0  0
    0.8424    0.3702    1.7111 H   0  0  0  0  0  0  0  0  0  0  0  0
    2.4335    0.9237    1.1574 H   0  0  0  0  0  0  0  0  0  0  0  0
   -0.1156   -0.6455   -1.8455 H   0  0  0  0  0  0  0  0  0  0  0  0
   -0.4287   -2.3934   -0.2874 H   0  0  0  0  0  0  0  0  0  0  0  0
   -0.3765   -1.2393    1.1693 H   0  0  0  0  0  0  0  0  0  0  0  0
   -2.6697   -0.8205    0.7151 H   0  0  0  0  0  0  0  0  0  0  0  0
   -2.4606   -1.2634   -1.0863 H   0  0  0  0  0  0  0  0  0  0  0  0
   -3.1271    1.6531   -0.8584 H   0  0  0  0  0  0  0  0  0  0  0  0
   -1.5695    2.4435   -1.4409 H   0  0  0  0  0  0  0  0  0  0  0  0
  1  2  1  0
  2  3  1  0
  2  4  1  0
  4  5  1  0
  5  6  1  0
  6  7  1  0
  7  8  1  0
  8  9  1  0
  7  4  1  0
  9  7  1  0
  1 10  1  0
  1 11  1  0
  1 12  1  0
  2 13  1  0
  3 14  1  0
  3 15  1  0
  3 16  1  0
  4 17  1  0
  5 18  1  0
  5 19  1  0
  6 20  1  0
  6 21  1  0
  8 22  1  0
  8 23  1  0
M  END
