
     RDKit          3D

 23 22  0  0  0  0  0  0  0  0999 V2000
   -2.2681    1.3312   -0.4200 C   0  0  0  0  0  0  0  0  0  0  0  0
   -1.3875    0.1065   -0.4440 C   0  0  0  0  0  0  0  0  0  0  0  0
   -2.2794   -1.0651   -0.0012 C   0  0  0  0  0  0  0  0  0  0  0  0
   -0.3278    0.1354    0.3863 O   0  0  0  0  0  0  0  0  0  0  0  0
    0.9125   -0.0664   -0.0713 C   0  0  0  0  0  0  0  0  0  0  0  0
    1.8896    1.0562    0.0601 C   0  0  0  0  0  0  0  0  0  0  0  0
    2.1216    1.4655    1.3549 O   0  0  0  0  0  0  0  0  0  0  0  0
    1.5711   -1.3572    0.4276 C   0  0  0  0  0  0  0  0  0  0  0  0
    2.8458   -1.3961   -0.1482 O   0  0  0  0  0  0  0  0  0  0  0  0
   -1.7811    2.2191   -0.8916 H   0  0  0  0  0  0  0  0  0  0  0  0
   -3.1619    1.1336   -1.0497 H   0  0  0  0  0  0  0  0  0  0  0  0
   -2.6525    1.5674    0.5916 H   0  0  0  0  0  0  0  0  0  0  0  0
   -1.1394   -0.0941   -1.5078 H   0  0  0  0  0  0  0  0  0  0  0  0
   -3.1298   -1.2088   -0.6758 H   0  0  0  0  0  0  0  0  0  0  0  0
   -1.7130   -2.0039    0.0471 H   0  0  0  0  0  0  0  0  0  0  0  0
   -2.6806   -0.8811    1.0184 H   0  0  0  0  0  0  0  0  0  0  0  0
    0.8216   -0.2413   -1.1884 H   0  0  0  0  0  0  0  0  0  0  0  0
    1.6522    1.9237   -0.5879 H   0  0  0  0  0  0  0  0  0  0  0  0
    2.8783    0.6692   -0.3291 H   0  0  0  0  0  0  0  0  0  0  0  0
    1.6787    2.3295    1.5598 H   0  0  0  0  0  0  0  0  0  0  0  0
    1.0213   -2.2247    0.0166 H   0  0  0  0  0  0  0  0  0  0  0  0
    1.6923   -1.3764    1.5082 H   0  0  0  0  0  0  0  0  0  0  0  0
    3.4362   -2.0223    0.3444 H   0  0  0  0  0  0  0  0  0  0  0  0
  1  2  1  0
  2  3  1  0
  2  4  1  0
  4  5  1  0
  5  6  1  0
  6  7  1  0
  5  8  1  0
  8  9  1  0
  1 10  1  0
  1 11  1  0
  1 12  1  0
  2 13  1  0
  3 14  1  0
  3 15  1  0
  3 16  1  0
  5 17  1  0
  6 18  1  0
  6 19  1  0
  7 20  1  0
  8 21  1  0
  8 22  1  0
  9 23  1  0
M  END
