
     RDKit          3D

 27 27  0  0  0  0  0  0  0  0999 V2000
   -2.5885    0.2071    0.6368 C   0  0  0  0  0  0  0  0  0  0  0  0
   -1.4134   -0.5344   -0.0458 C   0  0  0  0  0  0  0  0  0  0  0  0
   -1.5314   -0.1827   -1.5060 C   0  0  0  0  0  0  0  0  0  0  0  0
   -0.1961   -0.0426    0.6241 C   0  0  0  0  0  0  0  0  0  0  0  0
    0.0774    1.4502    0.5218 C   0  0  0  0  0  0  0  0  0  0  0  0
    1.5286    1.0385    0.8296 C   0  0  0  0  0  0  0  0  0  0  0  0
    1.1588   -0.2744    0.1028 C   0  0  0  0  0  0  0  0  0  0  0  0
    1.9116   -1.4287    0.7881 C   0  0  0  0  0  0  0  0  0  0  0  0
    1.4706   -0.1701   -1.3413 C   0  0  0  0  0  0  0  0  0  0  0  0
   -2.3113    0.5534    1.6365 H   0  0  0  0  0  0  0  0  0  0  0  0
   -2.9015    1.0723    0.0476 H   0  0  0  0  0  0  0  0  0  0  0  0
   -3.4116   -0.5208    0.7559 H   0  0  0  0  0  0  0  0  0  0  0  0
   -1.5642   -1.6254    0.0825 H   0  0  0  0  0  0  0  0  0  0  0  0
   -2.5909   -0.4313   -1.8046 H   0  0  0  0  0  0  0  0  0  0  0  0
   -1.3637    0.9161   -1.6301 H   0  0  0  0  0  0  0  0  0  0  0  0
   -0.8918   -0.7550   -2.1765 H   0  0  0  0  0  0  0  0  0  0  0  0
   -0.1851   -0.2733    1.7475 H   0  0  0  0  0  0  0  0  0  0  0  0
    0.0271    1.8761   -0.4878 H   0  0  0  0  0  0  0  0  0  0  0  0
   -0.3868    2.0370    1.3338 H   0  0  0  0  0  0  0  0  0  0  0  0
    1.6785    0.8299    1.8916 H   0  0  0  0  0  0  0  0  0  0  0  0
    2.2843    1.6334    0.3270 H   0  0  0  0  0  0  0  0  0  0  0  0
    1.6338   -2.3751    0.2618 H   0  0  0  0  0  0  0  0  0  0  0  0
    1.5721   -1.4170    1.8348 H   0  0  0  0  0  0  0  0  0  0  0  0
    3.0045   -1.2252    0.6838 H   0  0  0  0  0  0  0  0  0  0  0  0
    1.4253   -1.1270   -1.8946 H   0  0  0  0  0  0  0  0  0  0  0  0
    2.5811    0.0862   -1.3832 H   0  0  0  0  0  0  0  0  0  0  0  0
    0.9827    0.6828   -1.8362 H   0  0  0  0  0  0  0  0  0  0  0  0
  1  2  1  0
  2  3  1  0
  2  4  1  0
  4  5  1  0
  5  6  1  0
  6  7  1  0
  7  8  1  0
  7  9  1  0
  7  4  1  0
  1 10  1  0
  1 11  1  0
  1 12  1  0
  2 13  1  0
  3 14  1  0
  3 15  1  0
  3 16  1  0
  4 17  1  0
  5 18  1  0
  5 19  1  0
  6 20  1  0
  6 21  1  0
  8 22  1  0
  8 23  1  0
  8 24  1  0
  9 25  1  0
  9 26  1  0
  9 27  1  0
M  END
