
     RDKit          3D

 19 19  0  0  0  0  0  0  0  0999 V2000
   -1.5626    0.0460    1.7062 C   0  0  0  0  0  0  0  0  0  0  0  0
   -1.4582   -0.3473    0.2330 C   0  0  0  0  0  0  0  0  0  0  0  0
   -2.2263    0.6655   -0.5899 C   0  0  0  0  0  0  0  0  0  0  0  0
   -2.0264   -1.6252    0.0858 O   0  0  0  0  0  0  0  0  0  0  0  0
   -0.0634   -0.3259   -0.1490 C   0  0  0  0  0  0  0  0  0  0  0  0
    1.1132   -0.3283   -0.4716 C   0  0  0  0  0  0  0  0  0  0  0  0
    2.5140   -0.3178   -0.8544 C   0  0  0  0  0  0  0  0  0  0  0  0
    3.4932    0.3983   -0.0837 C   0  0  0  0  0  0  0  0  0  0  0  0
    3.0029    0.9522   -1.3954 O   0  0  0  0  0  0  0  0  0  0  0  0
   -1.0152   -0.7353    2.2699 H   0  0  0  0  0  0  0  0  0  0  0  0
   -1.1318    1.0409    1.8315 H   0  0  0  0  0  0  0  0  0  0  0  0
   -2.6475   -0.0034    2.0145 H   0  0  0  0  0  0  0  0  0  0  0  0
   -1.5926    1.0135   -1.4181 H   0  0  0  0  0  0  0  0  0  0  0  0
   -2.5475    1.5295    0.0477 H   0  0  0  0  0  0  0  0  0  0  0  0
   -3.1707    0.1761   -0.9464 H   0  0  0  0  0  0  0  0  0  0  0  0
   -1.3619   -2.1999   -0.3893 H   0  0  0  0  0  0  0  0  0  0  0  0
    2.8469   -1.1501   -1.4980 H   0  0  0  0  0  0  0  0  0  0  0  0
    3.2715    1.1179    0.7018 H   0  0  0  0  0  0  0  0  0  0  0  0
    4.5623    0.0932   -0.1664 H   0  0  0  0  0  0  0  0  0  0  0  0
  1  2  1  0
  2  3  1  0
  2  4  1  0
  2  5  1  0
  5  6  3  0
  6  7  1  0
  7  8  1  0
  8  9  1  0
  9  7  1  0
  1 10  1  0
  1 11  1  0
  1 12  1  0
  3 13  1  0
  3 14  1  0
  3 15  1  0
  4 16  1  0
  7 17  1  0
  8 18  1  0
  8 19  1  0
M  END
