
     RDKit          3D

 23 24  0  0  0  0  0  0  0  0999 V2000
    1.4267   -0.3599    1.2123 C   0  0  0  0  0  0  0  0  0  0  0  0
    1.3650    0.3817   -0.0778 C   0  0  0  0  0  0  0  0  0  0  0  0
    2.1828   -0.2972   -1.1617 C   0  0  0  0  0  0  0  0  0  0  0  0
   -0.0134    0.6464   -0.5897 C   0  0  0  0  0  0  0  0  0  0  0  0
   -0.8783    1.4875    0.3750 C   0  0  0  0  0  0  0  0  0  0  0  0
   -1.2348    0.1539   -0.0200 C   0  0  0  0  0  0  0  0  0  0  0  0
   -1.4350   -1.0268    0.8239 C   0  0  0  0  0  0  0  0  0  0  0  0
   -2.6389   -1.2857    0.1277 O   0  0  0  0  0  0  0  0  0  0  0  0
   -2.4603   -0.2365   -0.7752 C   0  0  0  0  0  0  0  0  0  0  0  0
    2.3737   -0.0960    1.7705 H   0  0  0  0  0  0  0  0  0  0  0  0
    1.5658   -1.4517    0.9656 H   0  0  0  0  0  0  0  0  0  0  0  0
    0.6086   -0.1705    1.9005 H   0  0  0  0  0  0  0  0  0  0  0  0
    1.8485    1.3843    0.0924 H   0  0  0  0  0  0  0  0  0  0  0  0
    2.6676   -1.2236   -0.7517 H   0  0  0  0  0  0  0  0  0  0  0  0
    1.5709   -0.5819   -2.0297 H   0  0  0  0  0  0  0  0  0  0  0  0
    3.0120    0.3332   -1.5276 H   0  0  0  0  0  0  0  0  0  0  0  0
   -0.0301    0.9516   -1.6669 H   0  0  0  0  0  0  0  0  0  0  0  0
   -0.4496    1.7590    1.3481 H   0  0  0  0  0  0  0  0  0  0  0  0
   -1.3708    2.3670   -0.1255 H   0  0  0  0  0  0  0  0  0  0  0  0
   -1.7146   -0.7710    1.8736 H   0  0  0  0  0  0  0  0  0  0  0  0
   -0.7777   -1.8996    0.7101 H   0  0  0  0  0  0  0  0  0  0  0  0
   -3.3304    0.4729   -0.6492 H   0  0  0  0  0  0  0  0  0  0  0  0
   -2.2876   -0.5370   -1.8249 H   0  0  0  0  0  0  0  0  0  0  0  0
  1  2  1  0
  2  3  1  0
  2  4  1  0
  4  5  1  0
  5  6  1  0
  6  7  1  0
  7  8  1  0
  8  9  1  0
  6  4  1  0
  9  6  1  0
  1 10  1  0
  1 11  1  0
  1 12  1  0
  2 13  1  0
  3 14  1  0
  3 15  1  0
  3 16  1  0
  4 17  1  0
  5 18  1  0
  5 19  1  0
  7 20  1  0
  7 21  1  0
  9 22  1  0
  9 23  1  0
M  END
