
     RDKit          3D

 20 21  0  0  0  0  0  0  0  0999 V2000
    0.1305    1.7513   -0.9085 C   0  0  0  0  0  0  0  0  0  0  0  0
    0.2540    0.2624   -0.5540 C   0  0  0  0  0  0  0  0  0  0  0  0
   -0.7575   -0.0075    0.5171 C   0  0  0  0  0  0  0  0  0  0  0  0
   -2.1920    0.2014    0.3227 C   0  0  0  0  0  0  0  0  0  0  0  0
   -1.6693   -1.2194    0.2716 C   0  0  0  0  0  0  0  0  0  0  0  0
    1.6652    0.0565   -0.0882 C   0  0  0  0  0  0  0  0  0  0  0  0
    2.1518   -1.2699    0.3402 C   0  0  0  0  0  0  0  0  0  0  0  0
    2.3699   -0.8515   -1.0308 O   0  0  0  0  0  0  0  0  0  0  0  0
   -0.7127    1.9215   -1.5788 H   0  0  0  0  0  0  0  0  0  0  0  0
    0.0993    2.3359    0.0315 H   0  0  0  0  0  0  0  0  0  0  0  0
    1.0807    2.0225   -1.4180 H   0  0  0  0  0  0  0  0  0  0  0  0
   -0.0260   -0.2991   -1.4513 H   0  0  0  0  0  0  0  0  0  0  0  0
   -0.3409    0.0807    1.5500 H   0  0  0  0  0  0  0  0  0  0  0  0
   -2.8204    0.4164    1.2015 H   0  0  0  0  0  0  0  0  0  0  0  0
   -2.6149    0.6024   -0.6193 H   0  0  0  0  0  0  0  0  0  0  0  0
   -1.8372   -1.8888    1.1178 H   0  0  0  0  0  0  0  0  0  0  0  0
   -1.6295   -1.6815   -0.7513 H   0  0  0  0  0  0  0  0  0  0  0  0
    2.3004    0.9456    0.1454 H   0  0  0  0  0  0  0  0  0  0  0  0
    1.4301   -2.0902    0.4796 H   0  0  0  0  0  0  0  0  0  0  0  0
    3.1181   -1.2888    0.8693 H   0  0  0  0  0  0  0  0  0  0  0  0
  1  2  1  0
  2  3  1  0
  3  4  1  0
  4  5  1  0
  2  6  1  0
  6  7  1  0
  7  8  1  0
  5  3  1  0
  8  6  1  0
  1  9  1  0
  1 10  1  0
  1 11  1  0
  2 12  1  0
  3 13  1  0
  4 14  1  0
  4 15  1  0
  5 16  1  0
  5 17  1  0
  6 18  1  0
  7 19  1  0
  7 20  1  0
M  END
