
     RDKit          3D

 23 23  0  0  0  0  0  0  0  0999 V2000
   -0.9365    1.1277   -0.8845 C   0  0  0  0  0  0  0  0  0  0  0  0
   -0.7693   -0.0777    0.0416 C   0  0  0  0  0  0  0  0  0  0  0  0
   -1.3642   -1.2685   -0.6965 C   0  0  0  0  0  0  0  0  0  0  0  0
   -1.6062    0.1706    1.2560 C   0  0  0  0  0  0  0  0  0  0  0  0
    0.6603   -0.3738    0.3244 C   0  0  0  0  0  0  0  0  0  0  0  0
    1.5772    0.5776    0.9688 C   0  0  0  0  0  0  0  0  0  0  0  0
    2.7059    0.1084    1.6080 O   0  0  0  0  0  0  0  0  0  0  0  0
    1.6417    0.4033   -0.5450 C   0  0  0  0  0  0  0  0  0  0  0  0
    2.6662   -0.3265   -1.1001 O   0  0  0  0  0  0  0  0  0  0  0  0
   -0.4985    2.0074   -0.4008 H   0  0  0  0  0  0  0  0  0  0  0  0
   -2.0336    1.2998   -0.9518 H   0  0  0  0  0  0  0  0  0  0  0  0
   -0.5470    0.8717   -1.8629 H   0  0  0  0  0  0  0  0  0  0  0  0
   -2.1720   -1.7589   -0.1140 H   0  0  0  0  0  0  0  0  0  0  0  0
   -1.7415   -1.0071   -1.6932 H   0  0  0  0  0  0  0  0  0  0  0  0
   -0.5936   -2.0706   -0.8614 H   0  0  0  0  0  0  0  0  0  0  0  0
   -2.6785    0.2145    0.9030 H   0  0  0  0  0  0  0  0  0  0  0  0
   -1.4208    1.1937    1.6792 H   0  0  0  0  0  0  0  0  0  0  0  0
   -1.5547   -0.6234    2.0099 H   0  0  0  0  0  0  0  0  0  0  0  0
    0.8880   -1.4669    0.4700 H   0  0  0  0  0  0  0  0  0  0  0  0
    1.1920    1.5345    1.3756 H   0  0  0  0  0  0  0  0  0  0  0  0
    2.9820   -0.7780    1.2667 H   0  0  0  0  0  0  0  0  0  0  0  0
    1.3102    1.2775   -1.0955 H   0  0  0  0  0  0  0  0  0  0  0  0
    2.2930   -1.0351   -1.6976 H   0  0  0  0  0  0  0  0  0  0  0  0
  1  2  1  0
  2  3  1  0
  2  4  1  0
  2  5  1  0
  5  6  1  0
  6  7  1  0
  6  8  1  0
  8  9  1  0
  8  5  1  0
  1 10  1  0
  1 11  1  0
  1 12  1  0
  3 13  1  0
  3 14  1  0
  3 15  1  0
  4 16  1  0
  4 17  1  0
  4 18  1  0
  5 19  1  0
  6 20  1  0
  7 21  1  0
  8 22  1  0
  9 23  1  0
M  END
