
     RDKit          3D

 25 26  0  0  0  0  0  0  0  0999 V2000
   -2.1018    0.4206   -1.3792 C   0  0  0  0  0  0  0  0  0  0  0  0
   -1.5082   -0.3079   -0.1897 C   0  0  0  0  0  0  0  0  0  0  0  0
   -2.2909    0.1835    1.0312 C   0  0  0  0  0  0  0  0  0  0  0  0
   -0.1632   -0.1753   -0.0345 C   0  0  0  0  0  0  0  0  0  0  0  0
    0.6795    1.0264    0.1716 C   0  0  0  0  0  0  0  0  0  0  0  0
    1.6860   -0.0893    0.1567 C   0  0  0  0  0  0  0  0  0  0  0  0
    3.0475   -0.0060    0.2925 C   0  0  0  0  0  0  0  0  0  0  0  0
    0.9095   -0.6283   -1.0211 C   0  0  0  0  0  0  0  0  0  0  0  0
    0.7096   -0.8479    1.0090 C   0  0  0  0  0  0  0  0  0  0  0  0
   -3.1508    0.0686   -1.4715 H   0  0  0  0  0  0  0  0  0  0  0  0
   -2.0928    1.5217   -1.2475 H   0  0  0  0  0  0  0  0  0  0  0  0
   -1.5957    0.1092   -2.3248 H   0  0  0  0  0  0  0  0  0  0  0  0
   -1.8461   -1.3809   -0.3118 H   0  0  0  0  0  0  0  0  0  0  0  0
   -1.8960    1.1705    1.3576 H   0  0  0  0  0  0  0  0  0  0  0  0
   -2.0935   -0.5707    1.8280 H   0  0  0  0  0  0  0  0  0  0  0  0
   -3.3711    0.2855    0.8062 H   0  0  0  0  0  0  0  0  0  0  0  0
    0.5696    1.5620    1.1301 H   0  0  0  0  0  0  0  0  0  0  0  0
    0.7313    1.7482   -0.6557 H   0  0  0  0  0  0  0  0  0  0  0  0
    3.4819    0.9790    0.0149 H   0  0  0  0  0  0  0  0  0  0  0  0
    3.4293   -0.2129    1.3173 H   0  0  0  0  0  0  0  0  0  0  0  0
    3.6068   -0.7431   -0.3585 H   0  0  0  0  0  0  0  0  0  0  0  0
    0.9907   -0.0021   -1.9254 H   0  0  0  0  0  0  0  0  0  0  0  0
    0.9478   -1.7090   -1.1449 H   0  0  0  0  0  0  0  0  0  0  0  0
    0.7759   -1.9343    0.9203 H   0  0  0  0  0  0  0  0  0  0  0  0
    0.5446   -0.4674    2.0292 H   0  0  0  0  0  0  0  0  0  0  0  0
  1  2  1  0
  2  3  1  0
  2  4  1  0
  4  5  1  0
  5  6  1  0
  6  7  1  0
  6  8  1  0
  6  9  1  0
  8  4  1  0
  9  4  1  0
  1 10  1  0
  1 11  1  0
  1 12  1  0
  2 13  1  0
  3 14  1  0
  3 15  1  0
  3 16  1  0
  5 17  1  0
  5 18  1  0
  7 19  1  0
  7 20  1  0
  7 21  1  0
  8 22  1  0
  8 23  1  0
  9 24  1  0
  9 25  1  0
M  END
