
     RDKit          3D

 23 23  0  0  0  0  0  0  0  0999 V2000
    2.1863   -0.5878   -0.3100 C   0  0  0  0  0  0  0  0  0  0  0  0
    1.0622    0.3849   -0.3688 C   0  0  0  0  0  0  0  0  0  0  0  0
    1.1423    1.3254    0.7804 C   0  0  0  0  0  0  0  0  0  0  0  0
   -0.2589   -0.2994   -0.5338 C   0  0  0  0  0  0  0  0  0  0  0  0
   -0.1950   -1.0181   -1.7318 O   0  0  0  0  0  0  0  0  0  0  0  0
   -1.4234    0.6239   -0.5426 C   0  0  0  0  0  0  0  0  0  0  0  0
   -2.2493    0.1206    0.6316 C   0  0  0  0  0  0  0  0  0  0  0  0
   -2.0026   -1.2587    0.5492 O   0  0  0  0  0  0  0  0  0  0  0  0
   -0.5879   -1.2693    0.5597 C   0  0  0  0  0  0  0  0  0  0  0  0
    3.0278   -0.1563    0.2856 H   0  0  0  0  0  0  0  0  0  0  0  0
    1.9364   -1.5500    0.1741 H   0  0  0  0  0  0  0  0  0  0  0  0
    2.6085   -0.7841   -1.3286 H   0  0  0  0  0  0  0  0  0  0  0  0
    1.2044    0.9971   -1.3078 H   0  0  0  0  0  0  0  0  0  0  0  0
    0.1958    1.6064    1.2324 H   0  0  0  0  0  0  0  0  0  0  0  0
    1.7919    0.9231    1.6131 H   0  0  0  0  0  0  0  0  0  0  0  0
    1.6565    2.2898    0.4924 H   0  0  0  0  0  0  0  0  0  0  0  0
   -1.0443   -1.0097   -2.2188 H   0  0  0  0  0  0  0  0  0  0  0  0
   -1.1902    1.6873   -0.4833 H   0  0  0  0  0  0  0  0  0  0  0  0
   -2.0613    0.4525   -1.4506 H   0  0  0  0  0  0  0  0  0  0  0  0
   -3.3238    0.3528    0.4931 H   0  0  0  0  0  0  0  0  0  0  0  0
   -1.8798    0.4587    1.5986 H   0  0  0  0  0  0  0  0  0  0  0  0
   -0.3174   -2.3265    0.3069 H   0  0  0  0  0  0  0  0  0  0  0  0
   -0.2778   -0.9626    1.5588 H   0  0  0  0  0  0  0  0  0  0  0  0
  1  2  1  0
  2  3  1  0
  2  4  1  0
  4  5  1  0
  4  6  1  0
  6  7  1  0
  7  8  1  0
  8  9  1  0
  9  4  1  0
  1 10  1  0
  1 11  1  0
  1 12  1  0
  2 13  1  0
  3 14  1  0
  3 15  1  0
  3 16  1  0
  5 17  1  0
  6 18  1  0
  6 19  1  0
  7 20  1  0
  7 21  1  0
  9 22  1  0
  9 23  1  0
M  END
