
     RDKit          3D

 22 22  0  0  0  0  0  0  0  0999 V2000
    2.3962   -0.4911    0.9647 C   0  0  0  0  0  0  0  0  0  0  0  0
    1.4318   -0.1890   -0.1405 C   0  0  0  0  0  0  0  0  0  0  0  0
    2.0743    0.5250   -1.3054 C   0  0  0  0  0  0  0  0  0  0  0  0
    0.3511    0.5600    0.3720 O   0  0  0  0  0  0  0  0  0  0  0  0
   -0.7971   -0.1758    0.2101 C   0  0  0  0  0  0  0  0  0  0  0  0
   -1.8630    0.6754   -0.4951 C   0  0  0  0  0  0  0  0  0  0  0  0
   -2.8790   -0.0685    0.3784 C   0  0  0  0  0  0  0  0  0  0  0  0
   -1.7460   -0.1723    1.4103 C   0  0  0  0  0  0  0  0  0  0  0  0
    1.9714   -1.3246    1.5667 H   0  0  0  0  0  0  0  0  0  0  0  0
    3.3298   -0.8838    0.4830 H   0  0  0  0  0  0  0  0  0  0  0  0
    2.6050    0.3917    1.6123 H   0  0  0  0  0  0  0  0  0  0  0  0
    1.0716   -1.1718   -0.5381 H   0  0  0  0  0  0  0  0  0  0  0  0
    3.1579    0.3490   -1.3773 H   0  0  0  0  0  0  0  0  0  0  0  0
    1.9369    1.6187   -1.1156 H   0  0  0  0  0  0  0  0  0  0  0  0
    1.6050    0.2079   -2.2636 H   0  0  0  0  0  0  0  0  0  0  0  0
   -0.6909   -1.1662   -0.2631 H   0  0  0  0  0  0  0  0  0  0  0  0
   -1.9575    0.5081   -1.5634 H   0  0  0  0  0  0  0  0  0  0  0  0
   -1.7880    1.7180   -0.1387 H   0  0  0  0  0  0  0  0  0  0  0  0
   -3.0929   -1.0945    0.0065 H   0  0  0  0  0  0  0  0  0  0  0  0
   -3.7321    0.5221    0.7045 H   0  0  0  0  0  0  0  0  0  0  0  0
   -1.6064    0.7565    1.9999 H   0  0  0  0  0  0  0  0  0  0  0  0
   -1.7782   -1.0949    1.9832 H   0  0  0  0  0  0  0  0  0  0  0  0
  1  2  1  0
  2  3  1  0
  2  4  1  0
  4  5  1  0
  5  6  1  0
  6  7  1  0
  7  8  1  0
  8  5  1  0
  1  9  1  0
  1 10  1  0
  1 11  1  0
  2 12  1  0
  3 13  1  0
  3 14  1  0
  3 15  1  0
  5 16  1  0
  6 17  1  0
  6 18  1  0
  7 19  1  0
  7 20  1  0
  8 21  1  0
  8 22  1  0
M  END
