
     RDKit          3D

 21 20  0  0  0  0  0  0  0  0999 V2000
   -0.8233   -0.3503   -1.4693 C   0  0  0  0  0  0  0  0  0  0  0  0
   -0.9230    0.1514   -0.0701 C   0  0  0  0  0  0  0  0  0  0  0  0
   -2.3448    0.2752    0.3671 C   0  0  0  0  0  0  0  0  0  0  0  0
   -0.2941    1.5455   -0.0435 C   0  0  0  0  0  0  0  0  0  0  0  0
   -0.1845   -0.7121    0.9244 C   0  0  0  0  0  0  0  0  0  0  0  0
    1.2495   -0.7665    0.5787 C   0  0  0  0  0  0  0  0  0  0  0  0
    2.4285   -0.8187    0.3108 C   0  0  0  0  0  0  0  0  0  0  0  0
    3.8431   -0.8635    0.0072 C   0  0  0  0  0  0  0  0  0  0  0  0
    4.6012    0.1161    0.3198 O   0  0  0  0  0  0  0  0  0  0  0  0
   -1.2879   -1.3466   -1.6197 H   0  0  0  0  0  0  0  0  0  0  0  0
    0.2310   -0.4110   -1.7992 H   0  0  0  0  0  0  0  0  0  0  0  0
   -1.3120    0.3931   -2.1332 H   0  0  0  0  0  0  0  0  0  0  0  0
   -2.4021    1.0710    1.1434 H   0  0  0  0  0  0  0  0  0  0  0  0
   -2.7739   -0.6505    0.7820 H   0  0  0  0  0  0  0  0  0  0  0  0
   -2.9357    0.6538   -0.4981 H   0  0  0  0  0  0  0  0  0  0  0  0
    0.8087    1.3931   -0.2117 H   0  0  0  0  0  0  0  0  0  0  0  0
   -0.4935    1.9428    0.9683 H   0  0  0  0  0  0  0  0  0  0  0  0
   -0.7368    2.1615   -0.8544 H   0  0  0  0  0  0  0  0  0  0  0  0
   -0.5611   -1.7554    0.9075 H   0  0  0  0  0  0  0  0  0  0  0  0
   -0.3489   -0.3167    1.9477 H   0  0  0  0  0  0  0  0  0  0  0  0
    4.2596   -1.7123   -0.4779 H   0  0  0  0  0  0  0  0  0  0  0  0
  1  2  1  0
  2  3  1  0
  2  4  1  0
  2  5  1  0
  5  6  1  0
  6  7  3  0
  7  8  1  0
  8  9  2  0
  1 10  1  0
  1 11  1  0
  1 12  1  0
  3 13  1  0
  3 14  1  0
  3 15  1  0
  4 16  1  0
  4 17  1  0
  4 18  1  0
  5 19  1  0
  5 20  1  0
  8 21  1  0
M  END
