
     RDKit          3D

 27 26  0  0  0  0  0  0  0  0999 V2000
    1.5514   -1.4196   -0.0748 C   0  0  0  0  0  0  0  0  0  0  0  0
    1.2597   -0.0485    0.4542 C   0  0  0  0  0  0  0  0  0  0  0  0
    2.5280    0.7828    0.1745 C   0  0  0  0  0  0  0  0  0  0  0  0
    2.7780    0.8122   -1.2020 O   0  0  0  0  0  0  0  0  0  0  0  0
    0.0873    0.6400   -0.0913 C   0  0  0  0  0  0  0  0  0  0  0  0
   -1.2642    0.0979    0.0457 C   0  0  0  0  0  0  0  0  0  0  0  0
   -1.4463   -1.2465   -0.6052 C   0  0  0  0  0  0  0  0  0  0  0  0
   -1.7362   -0.0648    1.4749 C   0  0  0  0  0  0  0  0  0  0  0  0
   -2.2232    1.1210   -0.6006 C   0  0  0  0  0  0  0  0  0  0  0  0
    1.1602   -1.6461   -1.0652 H   0  0  0  0  0  0  0  0  0  0  0  0
    1.2843   -2.2285    0.6722 H   0  0  0  0  0  0  0  0  0  0  0  0
    2.6774   -1.5851   -0.1745 H   0  0  0  0  0  0  0  0  0  0  0  0
    1.1860   -0.0790    1.5673 H   0  0  0  0  0  0  0  0  0  0  0  0
    2.4752    1.7709    0.6253 H   0  0  0  0  0  0  0  0  0  0  0  0
    3.3619    0.2180    0.6414 H   0  0  0  0  0  0  0  0  0  0  0  0
    3.4440    1.5382   -1.3376 H   0  0  0  0  0  0  0  0  0  0  0  0
    0.2790    0.7537   -1.2121 H   0  0  0  0  0  0  0  0  0  0  0  0
    0.1337    1.7219    0.2459 H   0  0  0  0  0  0  0  0  0  0  0  0
   -0.9412   -2.0153   -0.0120 H   0  0  0  0  0  0  0  0  0  0  0  0
   -1.0741   -1.2823   -1.6513 H   0  0  0  0  0  0  0  0  0  0  0  0
   -2.5575   -1.4889   -0.6875 H   0  0  0  0  0  0  0  0  0  0  0  0
   -1.5345   -1.1214    1.8197 H   0  0  0  0  0  0  0  0  0  0  0  0
   -1.2620    0.6143    2.1795 H   0  0  0  0  0  0  0  0  0  0  0  0
   -2.8418    0.0239    1.4655 H   0  0  0  0  0  0  0  0  0  0  0  0
   -2.3939    1.9382    0.1234 H   0  0  0  0  0  0  0  0  0  0  0  0
   -1.7510    1.5480   -1.5097 H   0  0  0  0  0  0  0  0  0  0  0  0
   -3.1800    0.6452   -0.8718 H   0  0  0  0  0  0  0  0  0  0  0  0
  1  2  1  0
  2  3  1  0
  3  4  1  0
  2  5  1  0
  5  6  1  0
  6  7  1  0
  6  8  1  0
  6  9  1  0
  1 10  1  0
  1 11  1  0
  1 12  1  0
  2 13  1  0
  3 14  1  0
  3 15  1  0
  4 16  1  0
  5 17  1  0
  5 18  1  0
  7 19  1  0
  7 20  1  0
  7 21  1  0
  8 22  1  0
  8 23  1  0
  8 24  1  0
  9 25  1  0
  9 26  1  0
  9 27  1  0
M  END
