
     RDKit          3D

 25 26  0  0  0  0  0  0  0  0999 V2000
   -2.4534    0.8149    0.6968 C   0  0  0  0  0  0  0  0  0  0  0  0
   -1.4813   -0.3658    0.5833 C   0  0  0  0  0  0  0  0  0  0  0  0
   -2.2036   -1.4610   -0.1507 C   0  0  0  0  0  0  0  0  0  0  0  0
   -0.3208    0.1182   -0.2288 C   0  0  0  0  0  0  0  0  0  0  0  0
    0.7812   -0.8434   -0.4922 C   0  0  0  0  0  0  0  0  0  0  0  0
    1.8157    0.1754   -0.1852 C   0  0  0  0  0  0  0  0  0  0  0  0
    2.9502   -0.2810    0.6829 C   0  0  0  0  0  0  0  0  0  0  0  0
    1.6659    1.6125   -0.3916 C   0  0  0  0  0  0  0  0  0  0  0  0
    0.6775    0.9861    0.5061 C   0  0  0  0  0  0  0  0  0  0  0  0
   -3.1701    0.6964    1.4986 H   0  0  0  0  0  0  0  0  0  0  0  0
   -2.9994    0.8261   -0.2816 H   0  0  0  0  0  0  0  0  0  0  0  0
   -1.8585    1.7452    0.7224 H   0  0  0  0  0  0  0  0  0  0  0  0
   -1.2127   -0.6472    1.6128 H   0  0  0  0  0  0  0  0  0  0  0  0
   -1.9882   -1.3535   -1.2399 H   0  0  0  0  0  0  0  0  0  0  0  0
   -1.9176   -2.4818    0.1949 H   0  0  0  0  0  0  0  0  0  0  0  0
   -3.3076   -1.3250   -0.0519 H   0  0  0  0  0  0  0  0  0  0  0  0
   -0.6642    0.5993   -1.1687 H   0  0  0  0  0  0  0  0  0  0  0  0
    0.7678   -1.6651    0.2826 H   0  0  0  0  0  0  0  0  0  0  0  0
    0.7721   -1.2568   -1.5181 H   0  0  0  0  0  0  0  0  0  0  0  0
    3.2011   -1.3254    0.3875 H   0  0  0  0  0  0  0  0  0  0  0  0
    2.7187   -0.1714    1.7478 H   0  0  0  0  0  0  0  0  0  0  0  0
    3.8498    0.3306    0.3802 H   0  0  0  0  0  0  0  0  0  0  0  0
    2.3979    2.2769    0.0644 H   0  0  0  0  0  0  0  0  0  0  0  0
    1.2323    2.0284   -1.3491 H   0  0  0  0  0  0  0  0  0  0  0  0
    0.7470    0.9673    1.5875 H   0  0  0  0  0  0  0  0  0  0  0  0
  1  2  1  0
  2  3  1  0
  2  4  1  0
  4  5  1  0
  5  6  1  0
  6  7  1  0
  6  8  1  0
  8  9  1  0
  9  4  1  0
  9  6  1  0
  1 10  1  0
  1 11  1  0
  1 12  1  0
  2 13  1  0
  3 14  1  0
  3 15  1  0
  3 16  1  0
  4 17  1  0
  5 18  1  0
  5 19  1  0
  7 20  1  0
  7 21  1  0
  7 22  1  0
  8 23  1  0
  8 24  1  0
  9 25  1  0
M  END
