
     RDKit          3D

 20 19  0  0  0  0  0  0  0  0999 V2000
   -0.8749   -0.3893    1.4993 C   0  0  0  0  0  0  0  0  0  0  0  0
   -0.7547   -0.4366    0.0098 C   0  0  0  0  0  0  0  0  0  0  0  0
   -1.9645    0.1413   -0.6876 C   0  0  0  0  0  0  0  0  0  0  0  0
   -2.1799    1.4705   -0.3555 O   0  0  0  0  0  0  0  0  0  0  0  0
    0.4770    0.2782   -0.5108 C   0  0  0  0  0  0  0  0  0  0  0  0
    1.6590   -0.4296    0.1183 C   0  0  0  0  0  0  0  0  0  0  0  0
    2.9516    0.1614   -0.2993 C   0  0  0  0  0  0  0  0  0  0  0  0
    3.9628   -0.3435    0.1574 O   0  0  0  0  0  0  0  0  0  0  0  0
   -1.9203   -0.1023    1.7441 H   0  0  0  0  0  0  0  0  0  0  0  0
   -0.2097    0.3683    1.9750 H   0  0  0  0  0  0  0  0  0  0  0  0
   -0.6287   -1.3914    1.9061 H   0  0  0  0  0  0  0  0  0  0  0  0
   -0.6657   -1.4952   -0.3459 H   0  0  0  0  0  0  0  0  0  0  0  0
   -2.8686   -0.4816   -0.4370 H   0  0  0  0  0  0  0  0  0  0  0  0
   -1.8009   -0.0060   -1.7804 H   0  0  0  0  0  0  0  0  0  0  0  0
   -2.3455    1.9510   -1.2189 H   0  0  0  0  0  0  0  0  0  0  0  0
    0.4646    0.1717   -1.6118 H   0  0  0  0  0  0  0  0  0  0  0  0
    0.4457    1.3361   -0.2727 H   0  0  0  0  0  0  0  0  0  0  0  0
    1.5576   -0.3058    1.2109 H   0  0  0  0  0  0  0  0  0  0  0  0
    1.6726   -1.5035   -0.1209 H   0  0  0  0  0  0  0  0  0  0  0  0
    3.0223    1.0063   -0.9802 H   0  0  0  0  0  0  0  0  0  0  0  0
  1  2  1  0
  2  3  1  0
  3  4  1  0
  2  5  1  0
  5  6  1  0
  6  7  1  0
  7  8  2  0
  1  9  1  0
  1 10  1  0
  1 11  1  0
  2 12  1  0
  3 13  1  0
  3 14  1  0
  4 15  1  0
  5 16  1  0
  5 17  1  0
  6 18  1  0
  6 19  1  0
  7 20  1  0
M  END
