
     RDKit          3D

 23 23  0  0  0  0  0  0  0  0999 V2000
   -2.4424   -0.6627    0.5357 C   0  0  0  0  0  0  0  0  0  0  0  0
   -1.2668    0.2438    0.1634 C   0  0  0  0  0  0  0  0  0  0  0  0
   -1.4324    0.6589   -1.2787 C   0  0  0  0  0  0  0  0  0  0  0  0
    0.0402   -0.4569    0.4479 C   0  0  0  0  0  0  0  0  0  0  0  0
    0.0249   -0.7322    1.8245 O   0  0  0  0  0  0  0  0  0  0  0  0
    1.1752    0.5092    0.2362 C   0  0  0  0  0  0  0  0  0  0  0  0
    2.5233   -0.1744    0.5341 C   0  0  0  0  0  0  0  0  0  0  0  0
    2.5419   -0.5897   -0.7794 O   0  0  0  0  0  0  0  0  0  0  0  0
    1.8004    0.5539   -1.1158 C   0  0  0  0  0  0  0  0  0  0  0  0
   -2.3022   -1.0545    1.5536 H   0  0  0  0  0  0  0  0  0  0  0  0
   -3.3452   -0.0253    0.5335 H   0  0  0  0  0  0  0  0  0  0  0  0
   -2.4827   -1.4646   -0.2408 H   0  0  0  0  0  0  0  0  0  0  0  0
   -1.2879    1.1509    0.8284 H   0  0  0  0  0  0  0  0  0  0  0  0
   -2.5092    0.9048   -1.4123 H   0  0  0  0  0  0  0  0  0  0  0  0
   -0.7860    1.5244   -1.4609 H   0  0  0  0  0  0  0  0  0  0  0  0
   -1.1158   -0.1838   -1.9158 H   0  0  0  0  0  0  0  0  0  0  0  0
    0.1711   -1.3725   -0.1490 H   0  0  0  0  0  0  0  0  0  0  0  0
    0.2631   -1.6523    2.0302 H   0  0  0  0  0  0  0  0  0  0  0  0
    1.0972    1.4601    0.7701 H   0  0  0  0  0  0  0  0  0  0  0  0
    3.2901    0.5769    0.8148 H   0  0  0  0  0  0  0  0  0  0  0  0
    2.3677   -0.9959    1.2642 H   0  0  0  0  0  0  0  0  0  0  0  0
    1.2037    0.3369   -1.9971 H   0  0  0  0  0  0  0  0  0  0  0  0
    2.4716    1.4450   -1.1867 H   0  0  0  0  0  0  0  0  0  0  0  0
  1  2  1  0
  2  3  1  0
  2  4  1  0
  4  5  1  0
  4  6  1  0
  6  7  1  0
  7  8  1  0
  8  9  1  0
  9  6  1  0
  1 10  1  0
  1 11  1  0
  1 12  1  0
  2 13  1  0
  3 14  1  0
  3 15  1  0
  3 16  1  0
  4 17  1  0
  5 18  1  0
  6 19  1  0
  7 20  1  0
  7 21  1  0
  9 22  1  0
  9 23  1  0
M  END
