
     RDKit          3D

 20 21  0  0  0  0  0  0  0  0999 V2000
   -1.7555    1.0370    0.8651 C   0  0  0  0  0  0  0  0  0  0  0  0
   -0.9926   -0.0840    0.1685 C   0  0  0  0  0  0  0  0  0  0  0  0
   -1.7690   -0.7284   -0.9219 C   0  0  0  0  0  0  0  0  0  0  0  0
    0.3161    0.5234   -0.2867 C   0  0  0  0  0  0  0  0  0  0  0  0
    1.0005    0.9940    0.8591 O   0  0  0  0  0  0  0  0  0  0  0  0
    1.7361   -0.2024    0.8001 C   0  0  0  0  0  0  0  0  0  0  0  0
    2.8208   -0.2031   -0.2026 C   0  0  0  0  0  0  0  0  0  0  0  0
    1.4073   -0.4361   -0.6157 C   0  0  0  0  0  0  0  0  0  0  0  0
   -1.7807    1.8984    0.1366 H   0  0  0  0  0  0  0  0  0  0  0  0
   -1.1075    1.3660    1.7139 H   0  0  0  0  0  0  0  0  0  0  0  0
   -2.7550    0.7306    1.1875 H   0  0  0  0  0  0  0  0  0  0  0  0
   -0.7425   -0.8305    0.9698 H   0  0  0  0  0  0  0  0  0  0  0  0
   -2.0532   -1.7771   -0.6284 H   0  0  0  0  0  0  0  0  0  0  0  0
   -2.7366   -0.1939   -1.0345 H   0  0  0  0  0  0  0  0  0  0  0  0
   -1.2821   -0.7472   -1.9016 H   0  0  0  0  0  0  0  0  0  0  0  0
    0.1092    1.3273   -1.0196 H   0  0  0  0  0  0  0  0  0  0  0  0
    1.5624   -0.9918    1.5212 H   0  0  0  0  0  0  0  0  0  0  0  0
    3.5081   -1.0448   -0.1948 H   0  0  0  0  0  0  0  0  0  0  0  0
    3.3145    0.7794   -0.3674 H   0  0  0  0  0  0  0  0  0  0  0  0
    1.1999   -1.4168   -1.0485 H   0  0  0  0  0  0  0  0  0  0  0  0
  1  2  1  0
  2  3  1  0
  2  4  1  0
  4  5  1  0
  5  6  1  0
  6  7  1  0
  7  8  1  0
  8  4  1  0
  8  6  1  0
  1  9  1  0
  1 10  1  0
  1 11  1  0
  2 12  1  0
  3 13  1  0
  3 14  1  0
  3 15  1  0
  4 16  1  0
  6 17  1  0
  7 18  1  0
  7 19  1  0
  8 20  1  0
M  END
