
     RDKit          3D

 23 24  0  0  0  0  0  0  0  0999 V2000
   -2.0947    1.3877    0.1144 C   0  0  0  0  0  0  0  0  0  0  0  0
   -1.4171    0.1258    0.5989 C   0  0  0  0  0  0  0  0  0  0  0  0
   -2.2952   -1.0390    0.1256 C   0  0  0  0  0  0  0  0  0  0  0  0
   -0.0367    0.0027    0.0883 C   0  0  0  0  0  0  0  0  0  0  0  0
    0.5971    0.8673   -0.6840 C   0  0  0  0  0  0  0  0  0  0  0  0
    1.9707    0.3945   -0.9875 C   0  0  0  0  0  0  0  0  0  0  0  0
    2.9196    0.4225    0.1606 C   0  0  0  0  0  0  0  0  0  0  0  0
    2.2094   -0.8316   -0.1897 C   0  0  0  0  0  0  0  0  0  0  0  0
    0.8603   -1.1506    0.3828 C   0  0  0  0  0  0  0  0  0  0  0  0
   -1.4390    2.2596    0.1215 H   0  0  0  0  0  0  0  0  0  0  0  0
   -2.5609    1.1901   -0.8852 H   0  0  0  0  0  0  0  0  0  0  0  0
   -2.9372    1.5944    0.8111 H   0  0  0  0  0  0  0  0  0  0  0  0
   -1.4538    0.0818    1.7150 H   0  0  0  0  0  0  0  0  0  0  0  0
   -2.1926   -1.1763   -0.9825 H   0  0  0  0  0  0  0  0  0  0  0  0
   -3.3385   -0.7088    0.3020 H   0  0  0  0  0  0  0  0  0  0  0  0
   -2.0951   -1.9498    0.6892 H   0  0  0  0  0  0  0  0  0  0  0  0
    0.1838    1.7882   -1.0473 H   0  0  0  0  0  0  0  0  0  0  0  0
    2.3238    0.4167   -2.0292 H   0  0  0  0  0  0  0  0  0  0  0  0
    4.0156    0.4104   -0.0475 H   0  0  0  0  0  0  0  0  0  0  0  0
    2.6685    1.0103    1.0568 H   0  0  0  0  0  0  0  0  0  0  0  0
    2.7769   -1.6868   -0.5474 H   0  0  0  0  0  0  0  0  0  0  0  0
    0.8857   -1.4010    1.4624 H   0  0  0  0  0  0  0  0  0  0  0  0
    0.4494   -2.0080   -0.2281 H   0  0  0  0  0  0  0  0  0  0  0  0
  1  2  1  0
  2  3  1  0
  2  4  1  0
  4  5  2  0
  5  6  1  0
  6  7  1  0
  7  8  1  0
  8  9  1  0
  9  4  1  0
  8  6  1  0
  1 10  1  0
  1 11  1  0
  1 12  1  0
  2 13  1  0
  3 14  1  0
  3 15  1  0
  3 16  1  0
  5 17  1  0
  6 18  1  0
  7 19  1  0
  7 20  1  0
  8 21  1  0
  9 22  1  0
  9 23  1  0
M  END
