
     RDKit          3D

 15 14  0  0  0  0  0  0  0  0999 V2000
   -0.0518    1.6638    0.4736 C   0  0  0  0  0  0  0  0  0  0  0  0
    0.0412    0.2853   -0.1372 C   0  0  0  0  0  0  0  0  0  0  0  0
   -1.2367   -0.4562    0.2533 C   0  0  0  0  0  0  0  0  0  0  0  0
   -1.1759   -1.7199   -0.3194 O   0  0  0  0  0  0  0  0  0  0  0  0
    1.1079   -0.4652    0.3699 O   0  0  0  0  0  0  0  0  0  0  0  0
    2.0832   -0.9807   -0.4349 C   0  0  0  0  0  0  0  0  0  0  0  0
    2.0006   -0.7605   -1.6780 O   0  0  0  0  0  0  0  0  0  0  0  0
   -0.8863    1.7467    1.2009 H   0  0  0  0  0  0  0  0  0  0  0  0
   -0.2949    2.3979   -0.3377 H   0  0  0  0  0  0  0  0  0  0  0  0
    0.8696    1.9592    1.0012 H   0  0  0  0  0  0  0  0  0  0  0  0
    0.1540    0.3598   -1.2250 H   0  0  0  0  0  0  0  0  0  0  0  0
   -2.0912    0.0648   -0.1863 H   0  0  0  0  0  0  0  0  0  0  0  0
   -1.2707   -0.5012    1.3635 H   0  0  0  0  0  0  0  0  0  0  0  0
   -2.1279   -2.0433   -0.3607 H   0  0  0  0  0  0  0  0  0  0  0  0
    2.8790   -1.5505    0.0168 H   0  0  0  0  0  0  0  0  0  0  0  0
  1  2  1  0
  2  3  1  0
  3  4  1  0
  2  5  1  0
  5  6  1  0
  6  7  2  0
  1  8  1  0
  1  9  1  0
  1 10  1  0
  2 11  1  0
  3 12  1  0
  3 13  1  0
  4 14  1  0
  6 15  1  0
M  END
