
     RDKit          3D

 25 25  0  0  0  0  0  0  0  0999 V2000
   -1.6400   -1.3332   -0.2066 C   0  0  0  0  0  0  0  0  0  0  0  0
   -1.1384    0.0552    0.0668 C   0  0  0  0  0  0  0  0  0  0  0  0
   -1.6245    0.9549   -1.0631 C   0  0  0  0  0  0  0  0  0  0  0  0
   -1.6800    0.5850    1.3593 C   0  0  0  0  0  0  0  0  0  0  0  0
    0.3429    0.1013    0.0642 C   0  0  0  0  0  0  0  0  0  0  0  0
    1.1146    0.4690    1.0790 C   0  0  0  0  0  0  0  0  0  0  0  0
    2.5406    0.3768    0.6728 C   0  0  0  0  0  0  0  0  0  0  0  0
    2.4707   -0.7160   -0.3753 C   0  0  0  0  0  0  0  0  0  0  0  0
    1.2004   -0.2721   -1.1188 C   0  0  0  0  0  0  0  0  0  0  0  0
   -2.3940   -1.6120    0.5667 H   0  0  0  0  0  0  0  0  0  0  0  0
   -2.1337   -1.4089   -1.1976 H   0  0  0  0  0  0  0  0  0  0  0  0
   -0.8086   -2.0863   -0.1496 H   0  0  0  0  0  0  0  0  0  0  0  0
   -1.8610    1.9330   -0.6461 H   0  0  0  0  0  0  0  0  0  0  0  0
   -2.5812    0.5219   -1.4687 H   0  0  0  0  0  0  0  0  0  0  0  0
   -0.9037    1.0095   -1.8792 H   0  0  0  0  0  0  0  0  0  0  0  0
   -1.3314    1.6320    1.4775 H   0  0  0  0  0  0  0  0  0  0  0  0
   -1.3192   -0.0261    2.1943 H   0  0  0  0  0  0  0  0  0  0  0  0
   -2.7889    0.5286    1.3081 H   0  0  0  0  0  0  0  0  0  0  0  0
    0.7638    0.7883    2.0558 H   0  0  0  0  0  0  0  0  0  0  0  0
    2.8348    1.2998    0.1518 H   0  0  0  0  0  0  0  0  0  0  0  0
    3.2081    0.1138    1.5125 H   0  0  0  0  0  0  0  0  0  0  0  0
    2.2123   -1.7055    0.0654 H   0  0  0  0  0  0  0  0  0  0  0  0
    3.3390   -0.7428   -1.0344 H   0  0  0  0  0  0  0  0  0  0  0  0
    1.4200    0.6302   -1.7417 H   0  0  0  0  0  0  0  0  0  0  0  0
    0.7576   -1.0965   -1.6931 H   0  0  0  0  0  0  0  0  0  0  0  0
  1  2  1  0
  2  3  1  0
  2  4  1  0
  2  5  1  0
  5  6  2  0
  6  7  1  0
  7  8  1  0
  8  9  1  0
  9  5  1  0
  1 10  1  0
  1 11  1  0
  1 12  1  0
  3 13  1  0
  3 14  1  0
  3 15  1  0
  4 16  1  0
  4 17  1  0
  4 18  1  0
  6 19  1  0
  7 20  1  0
  7 21  1  0
  8 22  1  0
  8 23  1  0
  9 24  1  0
  9 25  1  0
M  END
