
     RDKit          3D

 23 23  0  0  0  0  0  0  0  0999 V2000
   -1.7083   -1.2049    0.9950 C   0  0  0  0  0  0  0  0  0  0  0  0
   -0.9653   -0.7361   -0.1993 C   0  0  0  0  0  0  0  0  0  0  0  0
   -1.9569    0.0554   -1.0675 C   0  0  0  0  0  0  0  0  0  0  0  0
   -2.4226    1.1304   -0.2898 O   0  0  0  0  0  0  0  0  0  0  0  0
    0.1902    0.1625    0.0680 C   0  0  0  0  0  0  0  0  0  0  0  0
    1.2722   -0.3831    0.9055 C   0  0  0  0  0  0  0  0  0  0  0  0
    2.5316    0.1374    0.1996 C   0  0  0  0  0  0  0  0  0  0  0  0
    1.9253    1.1394   -0.7658 C   0  0  0  0  0  0  0  0  0  0  0  0
    0.7724    0.4778   -1.1767 O   0  0  0  0  0  0  0  0  0  0  0  0
   -2.6652   -1.6602    0.6546 H   0  0  0  0  0  0  0  0  0  0  0  0
   -2.0188   -0.3301    1.6300 H   0  0  0  0  0  0  0  0  0  0  0  0
   -1.2028   -1.9762    1.5941 H   0  0  0  0  0  0  0  0  0  0  0  0
   -0.6786   -1.6098   -0.8201 H   0  0  0  0  0  0  0  0  0  0  0  0
   -2.7732   -0.6284   -1.3563 H   0  0  0  0  0  0  0  0  0  0  0  0
   -1.4205    0.3982   -1.9511 H   0  0  0  0  0  0  0  0  0  0  0  0
   -1.8117    1.9077   -0.4202 H   0  0  0  0  0  0  0  0  0  0  0  0
   -0.1316    1.1377    0.4898 H   0  0  0  0  0  0  0  0  0  0  0  0
    1.3445   -1.4776    0.9548 H   0  0  0  0  0  0  0  0  0  0  0  0
    1.2919    0.0599    1.9224 H   0  0  0  0  0  0  0  0  0  0  0  0
    2.9887   -0.6777   -0.3666 H   0  0  0  0  0  0  0  0  0  0  0  0
    3.2104    0.6477    0.8944 H   0  0  0  0  0  0  0  0  0  0  0  0
    2.6076    1.3547   -1.6121 H   0  0  0  0  0  0  0  0  0  0  0  0
    1.6206    2.0753   -0.2828 H   0  0  0  0  0  0  0  0  0  0  0  0
  1  2  1  0
  2  3  1  0
  3  4  1  0
  2  5  1  0
  5  6  1  0
  6  7  1  0
  7  8  1  0
  8  9  1  0
  9  5  1  0
  1 10  1  0
  1 11  1  0
  1 12  1  0
  2 13  1  0
  3 14  1  0
  3 15  1  0
  4 16  1  0
  5 17  1  0
  6 18  1  0
  6 19  1  0
  7 20  1  0
  7 21  1  0
  8 22  1  0
  8 23  1  0
M  END
