
     RDKit          3D

 19 18  0  0  0  0  0  0  0  0999 V2000
    2.0948   -0.4192   -0.6259 C   0  0  0  0  0  0  0  0  0  0  0  0
    1.1102    0.4341    0.1772 C   0  0  0  0  0  0  0  0  0  0  0  0
    1.7595    0.6994    1.4847 C   0  0  0  0  0  0  0  0  0  0  0  0
    1.2548    0.2720    2.5053 O   0  0  0  0  0  0  0  0  0  0  0  0
   -0.0215   -0.2982    0.3837 O   0  0  0  0  0  0  0  0  0  0  0  0
   -1.1762    0.2131   -0.1242 C   0  0  0  0  0  0  0  0  0  0  0  0
   -1.6752   -0.7655   -1.1894 C   0  0  0  0  0  0  0  0  0  0  0  0
   -2.2685    0.3395    0.8666 C   0  0  0  0  0  0  0  0  0  0  0  0
   -2.1491    0.0171    2.0293 O   0  0  0  0  0  0  0  0  0  0  0  0
    2.5732   -1.1853    0.0478 H   0  0  0  0  0  0  0  0  0  0  0  0
    1.5445   -1.0097   -1.3873 H   0  0  0  0  0  0  0  0  0  0  0  0
    2.9042    0.1880   -1.0284 H   0  0  0  0  0  0  0  0  0  0  0  0
    0.9587    1.3730   -0.3874 H   0  0  0  0  0  0  0  0  0  0  0  0
    2.6779    1.2623    1.6062 H   0  0  0  0  0  0  0  0  0  0  0  0
   -1.0508    1.1869   -0.6568 H   0  0  0  0  0  0  0  0  0  0  0  0
   -1.9692   -1.6942   -0.6389 H   0  0  0  0  0  0  0  0  0  0  0  0
   -0.8140   -1.0000   -1.8318 H   0  0  0  0  0  0  0  0  0  0  0  0
   -2.5408   -0.3553   -1.7455 H   0  0  0  0  0  0  0  0  0  0  0  0
   -3.2125    0.7421    0.5146 H   0  0  0  0  0  0  0  0  0  0  0  0
  1  2  1  0
  2  3  1  0
  3  4  2  0
  2  5  1  0
  5  6  1  0
  6  7  1  0
  6  8  1  0
  8  9  2  0
  1 10  1  0
  1 11  1  0
  1 12  1  0
  2 13  1  0
  3 14  1  0
  6 15  1  0
  7 16  1  0
  7 17  1  0
  7 18  1  0
  8 19  1  0
M  END
