
     RDKit          3D

 25 26  0  0  0  0  0  0  0  0999 V2000
   -1.2061   -1.3973    0.5717 C   0  0  0  0  0  0  0  0  0  0  0  0
   -0.9081   -0.0095    0.0779 C   0  0  0  0  0  0  0  0  0  0  0  0
   -1.6727    0.2196   -1.1862 C   0  0  0  0  0  0  0  0  0  0  0  0
   -1.4426    0.9775    1.1139 C   0  0  0  0  0  0  0  0  0  0  0  0
    0.5568    0.2681   -0.0695 C   0  0  0  0  0  0  0  0  0  0  0  0
    1.4924    0.1909    1.0738 C   0  0  0  0  0  0  0  0  0  0  0  0
    2.5231   -0.4919    0.1704 C   0  0  0  0  0  0  0  0  0  0  0  0
    1.4535   -0.4988   -0.9138 C   0  0  0  0  0  0  0  0  0  0  0  0
    1.0027    0.8411   -1.3699 C   0  0  0  0  0  0  0  0  0  0  0  0
   -0.7098   -2.1721   -0.0355 H   0  0  0  0  0  0  0  0  0  0  0  0
   -2.3227   -1.5190    0.5167 H   0  0  0  0  0  0  0  0  0  0  0  0
   -0.9429   -1.4422    1.6418 H   0  0  0  0  0  0  0  0  0  0  0  0
   -1.6455    1.2589   -1.5399 H   0  0  0  0  0  0  0  0  0  0  0  0
   -1.3045   -0.4660   -2.0019 H   0  0  0  0  0  0  0  0  0  0  0  0
   -2.7274   -0.0501   -1.0160 H   0  0  0  0  0  0  0  0  0  0  0  0
   -1.1533    0.6123    2.1273 H   0  0  0  0  0  0  0  0  0  0  0  0
   -2.5379    1.1067    1.0164 H   0  0  0  0  0  0  0  0  0  0  0  0
   -0.9257    1.9646    0.9885 H   0  0  0  0  0  0  0  0  0  0  0  0
    1.8807    1.1752    1.4502 H   0  0  0  0  0  0  0  0  0  0  0  0
    1.2056   -0.4576    1.9020 H   0  0  0  0  0  0  0  0  0  0  0  0
    2.8450   -1.4765    0.5163 H   0  0  0  0  0  0  0  0  0  0  0  0
    3.3662    0.1803   -0.1128 H   0  0  0  0  0  0  0  0  0  0  0  0
    1.2179   -1.4140   -1.4491 H   0  0  0  0  0  0  0  0  0  0  0  0
    0.2845    0.8723   -2.2024 H   0  0  0  0  0  0  0  0  0  0  0  0
    1.6709    1.7271   -1.2700 H   0  0  0  0  0  0  0  0  0  0  0  0
  1  2  1  0
  2  3  1  0
  2  4  1  0
  2  5  1  0
  5  6  1  0
  6  7  1  0
  7  8  1  0
  8  9  1  0
  8  5  1  0
  9  5  1  0
  1 10  1  0
  1 11  1  0
  1 12  1  0
  3 13  1  0
  3 14  1  0
  3 15  1  0
  4 16  1  0
  4 17  1  0
  4 18  1  0
  6 19  1  0
  6 20  1  0
  7 21  1  0
  7 22  1  0
  8 23  1  0
  9 24  1  0
  9 25  1  0
M  END
