
     RDKit          3D

 25 25  0  0  0  0  0  0  0  0999 V2000
    0.9346    1.7033   -0.8332 C   0  0  0  0  0  0  0  0  0  0  0  0
    1.1783    0.3322   -0.2535 C   0  0  0  0  0  0  0  0  0  0  0  0
    1.8500    0.4217    1.0952 C   0  0  0  0  0  0  0  0  0  0  0  0
   -0.0386   -0.5308   -0.2007 C   0  0  0  0  0  0  0  0  0  0  0  0
   -1.2498   -0.1325    0.5773 C   0  0  0  0  0  0  0  0  0  0  0  0
   -1.9180    1.1317    0.1975 C   0  0  0  0  0  0  0  0  0  0  0  0
   -2.1959   -1.1746    0.4104 O   0  0  0  0  0  0  0  0  0  0  0  0
   -0.2291   -1.5083   -1.3573 C   0  0  0  0  0  0  0  0  0  0  0  0
    0.2834   -2.0397   -0.0890 C   0  0  0  0  0  0  0  0  0  0  0  0
    0.4435    2.3244   -0.0648 H   0  0  0  0  0  0  0  0  0  0  0  0
    1.9342    2.2051   -1.0065 H   0  0  0  0  0  0  0  0  0  0  0  0
    0.4533    1.6824   -1.8077 H   0  0  0  0  0  0  0  0  0  0  0  0
    1.9247   -0.1508   -0.9378 H   0  0  0  0  0  0  0  0  0  0  0  0
    2.4125   -0.5267    1.2858 H   0  0  0  0  0  0  0  0  0  0  0  0
    1.1154    0.5692    1.9190 H   0  0  0  0  0  0  0  0  0  0  0  0
    2.5515    1.2786    1.1562 H   0  0  0  0  0  0  0  0  0  0  0  0
   -1.0668   -0.1061    1.6814 H   0  0  0  0  0  0  0  0  0  0  0  0
   -1.7042    1.5344   -0.7838 H   0  0  0  0  0  0  0  0  0  0  0  0
   -3.0452    1.0427    0.2506 H   0  0  0  0  0  0  0  0  0  0  0  0
   -1.7032    1.9635    0.9338 H   0  0  0  0  0  0  0  0  0  0  0  0
   -2.1343   -1.8325    1.1489 H   0  0  0  0  0  0  0  0  0  0  0  0
   -1.2659   -1.7795   -1.6368 H   0  0  0  0  0  0  0  0  0  0  0  0
    0.4472   -1.4189   -2.2107 H   0  0  0  0  0  0  0  0  0  0  0  0
    1.3537   -2.3372   -0.0683 H   0  0  0  0  0  0  0  0  0  0  0  0
   -0.3315   -2.6519    0.5938 H   0  0  0  0  0  0  0  0  0  0  0  0
  1  2  1  0
  2  3  1  0
  2  4  1  0
  4  5  1  0
  5  6  1  0
  5  7  1  0
  4  8  1  0
  8  9  1  0
  9  4  1  0
  1 10  1  0
  1 11  1  0
  1 12  1  0
  2 13  1  0
  3 14  1  0
  3 15  1  0
  3 16  1  0
  5 17  1  0
  6 18  1  0
  6 19  1  0
  6 20  1  0
  7 21  1  0
  8 22  1  0
  8 23  1  0
  9 24  1  0
  9 25  1  0
M  END
