
     RDKit          3D

 19 18  0  0  0  0  0  0  0  0999 V2000
   -2.5374   -0.7092   -0.0913 C   0  0  0  0  0  0  0  0  0  0  0  0
   -1.3311    0.1539   -0.3154 C   0  0  0  0  0  0  0  0  0  0  0  0
   -1.4020    1.4224    0.4768 C   0  0  0  0  0  0  0  0  0  0  0  0
   -1.1747    1.3790    1.6825 O   0  0  0  0  0  0  0  0  0  0  0  0
   -0.0620   -0.5290    0.1328 C   0  0  0  0  0  0  0  0  0  0  0  0
   -0.0378   -1.6294    0.6087 O   0  0  0  0  0  0  0  0  0  0  0  0
    1.1792    0.2874   -0.0668 C   0  0  0  0  0  0  0  0  0  0  0  0
    2.3999   -0.4635    0.4047 C   0  0  0  0  0  0  0  0  0  0  0  0
    3.5092    0.3250    0.2011 O   0  0  0  0  0  0  0  0  0  0  0  0
   -3.2254   -0.5703   -0.9734 H   0  0  0  0  0  0  0  0  0  0  0  0
   -3.1002   -0.3108    0.7903 H   0  0  0  0  0  0  0  0  0  0  0  0
   -2.3229   -1.7761   -0.0159 H   0  0  0  0  0  0  0  0  0  0  0  0
   -1.1894    0.3778   -1.3881 H   0  0  0  0  0  0  0  0  0  0  0  0
   -1.6483    2.3238   -0.0347 H   0  0  0  0  0  0  0  0  0  0  0  0
    1.0739    1.2477    0.4591 H   0  0  0  0  0  0  0  0  0  0  0  0
    1.2250    0.4826   -1.1724 H   0  0  0  0  0  0  0  0  0  0  0  0
    2.4762   -1.3992   -0.1630 H   0  0  0  0  0  0  0  0  0  0  0  0
    2.2350   -0.6765    1.4915 H   0  0  0  0  0  0  0  0  0  0  0  0
    3.9327    0.0643   -0.6675 H   0  0  0  0  0  0  0  0  0  0  0  0
  1  2  1  0
  2  3  1  0
  3  4  2  0
  2  5  1  0
  5  6  2  0
  5  7  1  0
  7  8  1  0
  8  9  1  0
  1 10  1  0
  1 11  1  0
  1 12  1  0
  2 13  1  0
  3 14  1  0
  7 15  1  0
  7 16  1  0
  8 17  1  0
  8 18  1  0
  9 19  1  0
M  END
