
     RDKit          3D

 20 20  0  0  0  0  0  0  0  0999 V2000
   -1.7497   -1.2185   -0.0088 C   0  0  0  0  0  0  0  0  0  0  0  0
   -0.8491   -0.0279   -0.3145 C   0  0  0  0  0  0  0  0  0  0  0  0
   -1.6523    1.2122   -0.0321 C   0  0  0  0  0  0  0  0  0  0  0  0
    0.4096   -0.0600    0.5179 C   0  0  0  0  0  0  0  0  0  0  0  0
    1.1488   -1.2197    0.2745 O   0  0  0  0  0  0  0  0  0  0  0  0
    2.3015   -0.4459    0.5447 C   0  0  0  0  0  0  0  0  0  0  0  0
    1.5637    0.7073   -0.1408 C   0  0  0  0  0  0  0  0  0  0  0  0
    1.6107    0.5966   -1.5157 O   0  0  0  0  0  0  0  0  0  0  0  0
   -2.6604   -1.0680   -0.6531 H   0  0  0  0  0  0  0  0  0  0  0  0
   -2.0955   -1.1982    1.0413 H   0  0  0  0  0  0  0  0  0  0  0  0
   -1.3034   -2.1693   -0.3222 H   0  0  0  0  0  0  0  0  0  0  0  0
   -0.5484   -0.0846   -1.3721 H   0  0  0  0  0  0  0  0  0  0  0  0
   -2.3878    0.9887    0.7945 H   0  0  0  0  0  0  0  0  0  0  0  0
   -1.0533    2.0609    0.3138 H   0  0  0  0  0  0  0  0  0  0  0  0
   -2.2769    1.4285   -0.9226 H   0  0  0  0  0  0  0  0  0  0  0  0
    0.3101    0.2113    1.5714 H   0  0  0  0  0  0  0  0  0  0  0  0
    2.3989   -0.2533    1.6273 H   0  0  0  0  0  0  0  0  0  0  0  0
    3.2114   -0.7776    0.0504 H   0  0  0  0  0  0  0  0  0  0  0  0
    1.7850    1.6760    0.3014 H   0  0  0  0  0  0  0  0  0  0  0  0
    1.8370   -0.3584   -1.7552 H   0  0  0  0  0  0  0  0  0  0  0  0
  1  2  1  0
  2  3  1  0
  2  4  1  0
  4  5  1  0
  5  6  1  0
  6  7  1  0
  7  8  1  0
  7  4  1  0
  1  9  1  0
  1 10  1  0
  1 11  1  0
  2 12  1  0
  3 13  1  0
  3 14  1  0
  3 15  1  0
  4 16  1  0
  6 17  1  0
  6 18  1  0
  7 19  1  0
  8 20  1  0
M  END
