
     RDKit          3D

 27 26  0  0  0  0  0  0  0  0999 V2000
   -2.6964   -1.2147    0.0444 C   0  0  0  0  0  0  0  0  0  0  0  0
   -2.2499   -0.0683    0.9290 C   0  0  0  0  0  0  0  0  0  0  0  0
   -3.3496    0.9743    0.9441 C   0  0  0  0  0  0  0  0  0  0  0  0
   -1.0471    0.5740    0.2859 C   0  0  0  0  0  0  0  0  0  0  0  0
    0.0171   -0.3261    0.1372 O   0  0  0  0  0  0  0  0  0  0  0  0
    1.0523    0.3820   -0.4607 C   0  0  0  0  0  0  0  0  0  0  0  0
    2.2783   -0.4803   -0.6821 C   0  0  0  0  0  0  0  0  0  0  0  0
    2.7268   -0.9743    0.6679 C   0  0  0  0  0  0  0  0  0  0  0  0
    3.3505    0.4304   -1.2525 C   0  0  0  0  0  0  0  0  0  0  0  0
   -3.6316   -0.9896   -0.5044 H   0  0  0  0  0  0  0  0  0  0  0  0
   -1.9403   -1.4855   -0.7112 H   0  0  0  0  0  0  0  0  0  0  0  0
   -2.9225   -2.1250    0.6655 H   0  0  0  0  0  0  0  0  0  0  0  0
   -2.0147   -0.4301    1.9569 H   0  0  0  0  0  0  0  0  0  0  0  0
   -3.2346    1.5744    0.0183 H   0  0  0  0  0  0  0  0  0  0  0  0
   -3.1982    1.6785    1.7960 H   0  0  0  0  0  0  0  0  0  0  0  0
   -4.3203    0.4443    0.9948 H   0  0  0  0  0  0  0  0  0  0  0  0
   -0.7552    1.4829    0.8436 H   0  0  0  0  0  0  0  0  0  0  0  0
   -1.3795    0.9369   -0.7237 H   0  0  0  0  0  0  0  0  0  0  0  0
    1.3750    1.2520    0.1527 H   0  0  0  0  0  0  0  0  0  0  0  0
    0.6892    0.8060   -1.4350 H   0  0  0  0  0  0  0  0  0  0  0  0
    2.0771   -1.3076   -1.3913 H   0  0  0  0  0  0  0  0  0  0  0  0
    3.0571   -0.0838    1.2523 H   0  0  0  0  0  0  0  0  0  0  0  0
    1.8655   -1.4803    1.1830 H   0  0  0  0  0  0  0  0  0  0  0  0
    3.5904   -1.6303    0.5480 H   0  0  0  0  0  0  0  0  0  0  0  0
    2.9259    0.8461   -2.1989 H   0  0  0  0  0  0  0  0  0  0  0  0
    4.3089   -0.0794   -1.4066 H   0  0  0  0  0  0  0  0  0  0  0  0
    3.4256    1.2933   -0.5515 H   0  0  0  0  0  0  0  0  0  0  0  0
  1  2  1  0
  2  3  1  0
  2  4  1  0
  4  5  1  0
  5  6  1  0
  6  7  1  0
  7  8  1  0
  7  9  1  0
  1 10  1  0
  1 11  1  0
  1 12  1  0
  2 13  1  0
  3 14  1  0
  3 15  1  0
  3 16  1  0
  4 17  1  0
  4 18  1  0
  6 19  1  0
  6 20  1  0
  7 21  1  0
  8 22  1  0
  8 23  1  0
  8 24  1  0
  9 25  1  0
  9 26  1  0
  9 27  1  0
M  END
