
     RDKit          3D

 19 20  0  0  0  0  0  0  0  0999 V2000
   -1.8579    0.9445    0.5877 C   0  0  0  0  0  0  0  0  0  0  0  0
   -1.0025   -0.2850    0.5435 C   0  0  0  0  0  0  0  0  0  0  0  0
   -1.3911   -1.1965   -0.5747 C   0  0  0  0  0  0  0  0  0  0  0  0
   -2.2851   -0.9158   -1.3420 O   0  0  0  0  0  0  0  0  0  0  0  0
    0.4694   -0.0034    0.5539 C   0  0  0  0  0  0  0  0  0  0  0  0
    1.0030    0.8180   -0.5708 C   0  0  0  0  0  0  0  0  0  0  0  0
    2.3468    0.2114   -0.2862 C   0  0  0  0  0  0  0  0  0  0  0  0
    1.3275   -0.8868   -0.2865 C   0  0  0  0  0  0  0  0  0  0  0  0
    0.7694   -0.2665   -1.3931 O   0  0  0  0  0  0  0  0  0  0  0  0
   -2.3137    1.0743   -0.4170 H   0  0  0  0  0  0  0  0  0  0  0  0
   -2.7168    0.8293    1.2923 H   0  0  0  0  0  0  0  0  0  0  0  0
   -1.2496    1.8213    0.8939 H   0  0  0  0  0  0  0  0  0  0  0  0
   -1.2214   -0.8667    1.4851 H   0  0  0  0  0  0  0  0  0  0  0  0
   -0.8666   -2.1263   -0.7056 H   0  0  0  0  0  0  0  0  0  0  0  0
    0.9160    0.2513    1.5207 H   0  0  0  0  0  0  0  0  0  0  0  0
    0.8136    1.7876   -0.7680 H   0  0  0  0  0  0  0  0  0  0  0  0
    2.6790    0.4568    0.7267 H   0  0  0  0  0  0  0  0  0  0  0  0
    3.0797    0.2252   -1.0917 H   0  0  0  0  0  0  0  0  0  0  0  0
    1.5001   -1.8727   -0.1682 H   0  0  0  0  0  0  0  0  0  0  0  0
  1  2  1  0
  2  3  1  0
  3  4  2  0
  2  5  1  0
  5  6  1  0
  6  7  1  0
  7  8  1  0
  8  9  1  0
  8  5  1  0
  9  6  1  0
  1 10  1  0
  1 11  1  0
  1 12  1  0
  2 13  1  0
  3 14  1  0
  5 15  1  0
  6 16  1  0
  7 17  1  0
  7 18  1  0
  8 19  1  0
M  END
