
     RDKit          3D

 25 25  0  0  0  0  0  0  0  0999 V2000
    1.9336   -0.9940    0.8669 C   0  0  0  0  0  0  0  0  0  0  0  0
    1.1238    0.0543    0.0888 C   0  0  0  0  0  0  0  0  0  0  0  0
    1.1855   -0.3345   -1.3512 C   0  0  0  0  0  0  0  0  0  0  0  0
    1.8457    1.3595    0.2632 C   0  0  0  0  0  0  0  0  0  0  0  0
   -0.2358    0.0835    0.6873 C   0  0  0  0  0  0  0  0  0  0  0  0
   -0.8297   -1.2753    0.5473 O   0  0  0  0  0  0  0  0  0  0  0  0
   -1.4941   -0.0324    0.1048 C   0  0  0  0  0  0  0  0  0  0  0  0
   -2.7198    0.1737    1.0022 C   0  0  0  0  0  0  0  0  0  0  0  0
   -1.8744   -0.0503   -1.3345 C   0  0  0  0  0  0  0  0  0  0  0  0
    1.9664   -0.7456    1.9458 H   0  0  0  0  0  0  0  0  0  0  0  0
    1.4058   -1.9749    0.7676 H   0  0  0  0  0  0  0  0  0  0  0  0
    2.9589   -1.0814    0.4708 H   0  0  0  0  0  0  0  0  0  0  0  0
    0.6728    0.3753   -2.0112 H   0  0  0  0  0  0  0  0  0  0  0  0
    2.2764   -0.2762   -1.6445 H   0  0  0  0  0  0  0  0  0  0  0  0
    0.9096   -1.3908   -1.4992 H   0  0  0  0  0  0  0  0  0  0  0  0
    2.7115    1.3044    0.9414 H   0  0  0  0  0  0  0  0  0  0  0  0
    1.1685    2.1566    0.6377 H   0  0  0  0  0  0  0  0  0  0  0  0
    2.2530    1.7495   -0.7120 H   0  0  0  0  0  0  0  0  0  0  0  0
   -0.1719    0.3621    1.7745 H   0  0  0  0  0  0  0  0  0  0  0  0
   -3.4994   -0.5659    0.7007 H   0  0  0  0  0  0  0  0  0  0  0  0
   -2.4691   -0.0341    2.0478 H   0  0  0  0  0  0  0  0  0  0  0  0
   -3.1278    1.1944    0.8916 H   0  0  0  0  0  0  0  0  0  0  0  0
   -1.3872   -0.8485   -1.9236 H   0  0  0  0  0  0  0  0  0  0  0  0
   -2.9638   -0.1794   -1.5067 H   0  0  0  0  0  0  0  0  0  0  0  0
   -1.6385    0.9700   -1.7556 H   0  0  0  0  0  0  0  0  0  0  0  0
  1  2  1  0
  2  3  1  0
  2  4  1  0
  2  5  1  0
  5  6  1  0
  6  7  1  0
  7  8  1  0
  7  9  1  0
  7  5  1  0
  1 10  1  0
  1 11  1  0
  1 12  1  0
  3 13  1  0
  3 14  1  0
  3 15  1  0
  4 16  1  0
  4 17  1  0
  4 18  1  0
  5 19  1  0
  8 20  1  0
  8 21  1  0
  8 22  1  0
  9 23  1  0
  9 24  1  0
  9 25  1  0
M  END
