
     RDKit          3D

 17 16  0  0  0  0  0  0  0  0999 V2000
   -1.0296    0.9773    1.1650 C   0  0  0  0  0  0  0  0  0  0  0  0
   -0.5891    0.2570   -0.1130 C   0  0  0  0  0  0  0  0  0  0  0  0
   -1.4274   -0.9567   -0.3698 C   0  0  0  0  0  0  0  0  0  0  0  0
    0.8056   -0.2093    0.0363 C   0  0  0  0  0  0  0  0  0  0  0  0
    1.9502   -0.5899    0.1379 C   0  0  0  0  0  0  0  0  0  0  0  0
    3.3057   -1.0462    0.2656 C   0  0  0  0  0  0  0  0  0  0  0  0
    4.2826   -0.2396    0.2874 O   0  0  0  0  0  0  0  0  0  0  0  0
   -0.7243    1.2010   -1.2469 C   0  0  0  0  0  0  0  0  0  0  0  0
   -1.0503    0.7573   -2.3287 O   0  0  0  0  0  0  0  0  0  0  0  0
   -1.1399    2.0666    0.9760 H   0  0  0  0  0  0  0  0  0  0  0  0
   -0.2848    0.8549    1.9734 H   0  0  0  0  0  0  0  0  0  0  0  0
   -2.0408    0.6149    1.4659 H   0  0  0  0  0  0  0  0  0  0  0  0
   -1.1981   -1.8107    0.2821 H   0  0  0  0  0  0  0  0  0  0  0  0
   -2.5206   -0.7573   -0.2753 H   0  0  0  0  0  0  0  0  0  0  0  0
   -1.2452   -1.2625   -1.4357 H   0  0  0  0  0  0  0  0  0  0  0  0
    3.4550   -2.1179    0.3429 H   0  0  0  0  0  0  0  0  0  0  0  0
   -0.5489    2.2613   -1.1633 H   0  0  0  0  0  0  0  0  0  0  0  0
  1  2  1  0
  2  3  1  0
  2  4  1  0
  4  5  3  0
  5  6  1  0
  6  7  2  0
  2  8  1  0
  8  9  2  0
  1 10  1  0
  1 11  1  0
  1 12  1  0
  3 13  1  0
  3 14  1  0
  3 15  1  0
  6 16  1  0
  8 17  1  0
M  END
