
     RDKit          3D

 23 22  0  0  0  0  0  0  0  0999 V2000
    1.4176    0.1495    1.2930 C   0  0  0  0  0  0  0  0  0  0  0  0
    0.7710   -0.4619    0.0501 C   0  0  0  0  0  0  0  0  0  0  0  0
    1.3934    0.2288   -1.1307 C   0  0  0  0  0  0  0  0  0  0  0  0
    1.0435   -1.8160   -0.0341 O   0  0  0  0  0  0  0  0  0  0  0  0
   -0.7143   -0.1892    0.1390 C   0  0  0  0  0  0  0  0  0  0  0  0
   -1.4295   -0.7906   -1.0566 C   0  0  0  0  0  0  0  0  0  0  0  0
   -1.2388   -0.8083    1.2728 O   0  0  0  0  0  0  0  0  0  0  0  0
   -0.9968    1.2846    0.2669 C   0  0  0  0  0  0  0  0  0  0  0  0
   -2.3578    1.4909    0.3446 O   0  0  0  0  0  0  0  0  0  0  0  0
    0.8829   -0.1163    2.2087 H   0  0  0  0  0  0  0  0  0  0  0  0
    2.5023   -0.1543    1.3490 H   0  0  0  0  0  0  0  0  0  0  0  0
    1.4447    1.2536    1.1447 H   0  0  0  0  0  0  0  0  0  0  0  0
    1.6296    1.2903   -0.8816 H   0  0  0  0  0  0  0  0  0  0  0  0
    2.3911   -0.2679   -1.2985 H   0  0  0  0  0  0  0  0  0  0  0  0
    0.8234    0.1480   -2.0575 H   0  0  0  0  0  0  0  0  0  0  0  0
    1.7796   -2.0592    0.5552 H   0  0  0  0  0  0  0  0  0  0  0  0
   -2.5305   -0.6855   -0.8768 H   0  0  0  0  0  0  0  0  0  0  0  0
   -1.1782   -0.2957   -1.9946 H   0  0  0  0  0  0  0  0  0  0  0  0
   -1.2172   -1.8741   -1.0631 H   0  0  0  0  0  0  0  0  0  0  0  0
   -0.5692   -1.4272    1.6291 H   0  0  0  0  0  0  0  0  0  0  0  0
   -0.5637    1.5970    1.2614 H   0  0  0  0  0  0  0  0  0  0  0  0
   -0.5655    1.8817   -0.5503 H   0  0  0  0  0  0  0  0  0  0  0  0
   -2.7175    1.6219   -0.5708 H   0  0  0  0  0  0  0  0  0  0  0  0
  1  2  1  0
  2  3  1  0
  2  4  1  0
  2  5  1  0
  5  6  1  0
  5  7  1  0
  5  8  1  0
  8  9  1  0
  1 10  1  0
  1 11  1  0
  1 12  1  0
  3 13  1  0
  3 14  1  0
  3 15  1  0
  4 16  1  0
  6 17  1  0
  6 18  1  0
  6 19  1  0
  7 20  1  0
  8 21  1  0
  8 22  1  0
  9 23  1  0
M  END
