
     RDKit          3D

 25 24  0  0  0  0  0  0  0  0999 V2000
    2.1172   -0.3744    1.2312 C   0  0  0  0  0  0  0  0  0  0  0  0
    1.9196    0.2737   -0.0865 C   0  0  0  0  0  0  0  0  0  0  0  0
    2.9481   -0.3190   -1.0448 C   0  0  0  0  0  0  0  0  0  0  0  0
    0.5729    0.0856   -0.6990 C   0  0  0  0  0  0  0  0  0  0  0  0
   -0.5457    0.5985    0.0941 C   0  0  0  0  0  0  0  0  0  0  0  0
   -0.4334    1.1369    1.1620 O   0  0  0  0  0  0  0  0  0  0  0  0
   -1.9254    0.4499   -0.4475 C   0  0  0  0  0  0  0  0  0  0  0  0
   -2.9713    1.0257    0.4810 C   0  0  0  0  0  0  0  0  0  0  0  0
   -2.2661   -1.0225   -0.6629 C   0  0  0  0  0  0  0  0  0  0  0  0
    3.2091   -0.4611    1.4205 H   0  0  0  0  0  0  0  0  0  0  0  0
    1.7350   -1.4194    1.1868 H   0  0  0  0  0  0  0  0  0  0  0  0
    1.6998    0.1885    2.0882 H   0  0  0  0  0  0  0  0  0  0  0  0
    2.1269    1.3597    0.0072 H   0  0  0  0  0  0  0  0  0  0  0  0
    3.9008    0.2217   -0.8898 H   0  0  0  0  0  0  0  0  0  0  0  0
    2.5996   -0.2782   -2.0967 H   0  0  0  0  0  0  0  0  0  0  0  0
    3.1585   -1.3877   -0.8046 H   0  0  0  0  0  0  0  0  0  0  0  0
    0.5610    0.6002   -1.6825 H   0  0  0  0  0  0  0  0  0  0  0  0
    0.3674   -0.9877   -0.9212 H   0  0  0  0  0  0  0  0  0  0  0  0
   -2.0438    0.9400   -1.4328 H   0  0  0  0  0  0  0  0  0  0  0  0
   -2.4472    1.3759    1.3926 H   0  0  0  0  0  0  0  0  0  0  0  0
   -3.4564    1.9373    0.0347 H   0  0  0  0  0  0  0  0  0  0  0  0
   -3.7567    0.2930    0.7462 H   0  0  0  0  0  0  0  0  0  0  0  0
   -2.3398   -1.2745   -1.7354 H   0  0  0  0  0  0  0  0  0  0  0  0
   -3.2305   -1.2846   -0.1909 H   0  0  0  0  0  0  0  0  0  0  0  0
   -1.4997   -1.6773   -0.1925 H   0  0  0  0  0  0  0  0  0  0  0  0
  1  2  1  0
  2  3  1  0
  2  4  1  0
  4  5  1  0
  5  6  2  0
  5  7  1  0
  7  8  1  0
  7  9  1  0
  1 10  1  0
  1 11  1  0
  1 12  1  0
  2 13  1  0
  3 14  1  0
  3 15  1  0
  3 16  1  0
  4 17  1  0
  4 18  1  0
  7 19  1  0
  8 20  1  0
  8 21  1  0
  8 22  1  0
  9 23  1  0
  9 24  1  0
  9 25  1  0
M  END
