
     RDKit          3D

 19 18  0  0  0  0  0  0  0  0999 V2000
   -1.8900    0.3931   -0.6379 C   0  0  0  0  0  0  0  0  0  0  0  0
   -0.6839   -0.4619   -0.2233 C   0  0  0  0  0  0  0  0  0  0  0  0
   -0.9398   -1.0159    1.1167 C   0  0  0  0  0  0  0  0  0  0  0  0
   -1.2674   -2.1657    1.3080 O   0  0  0  0  0  0  0  0  0  0  0  0
    0.5123    0.4550   -0.2577 C   0  0  0  0  0  0  0  0  0  0  0  0
    0.3349    1.5868    0.6771 C   0  0  0  0  0  0  0  0  0  0  0  0
    1.1203    1.7839    1.5787 O   0  0  0  0  0  0  0  0  0  0  0  0
    1.8041   -0.2717    0.0202 C   0  0  0  0  0  0  0  0  0  0  0  0
    2.0757   -1.2696   -0.8796 O   0  0  0  0  0  0  0  0  0  0  0  0
   -1.5650    1.3283   -1.1392 H   0  0  0  0  0  0  0  0  0  0  0  0
   -2.5600   -0.1875   -1.3135 H   0  0  0  0  0  0  0  0  0  0  0  0
   -2.5042    0.6071    0.2702 H   0  0  0  0  0  0  0  0  0  0  0  0
   -0.5889   -1.2381   -1.0094 H   0  0  0  0  0  0  0  0  0  0  0  0
   -0.8291   -0.3634    1.9657 H   0  0  0  0  0  0  0  0  0  0  0  0
    0.5714    0.8435   -1.3150 H   0  0  0  0  0  0  0  0  0  0  0  0
   -0.5026    2.2534    0.5645 H   0  0  0  0  0  0  0  0  0  0  0  0
    2.6343    0.4561    0.1154 H   0  0  0  0  0  0  0  0  0  0  0  0
    1.6742   -0.7623    1.0294 H   0  0  0  0  0  0  0  0  0  0  0  0
    2.6037   -1.9714   -0.4154 H   0  0  0  0  0  0  0  0  0  0  0  0
  1  2  1  0
  2  3  1  0
  3  4  2  0
  2  5  1  0
  5  6  1  0
  6  7  2  0
  5  8  1  0
  8  9  1  0
  1 10  1  0
  1 11  1  0
  1 12  1  0
  2 13  1  0
  3 14  1  0
  5 15  1  0
  6 16  1  0
  8 17  1  0
  8 18  1  0
  9 19  1  0
M  END
