
     RDKit          3D

 19 18  0  0  0  0  0  0  0  0999 V2000
   -2.4031   -0.3031    0.7246 C   0  0  0  0  0  0  0  0  0  0  0  0
   -0.9143    0.1219    0.8455 C   0  0  0  0  0  0  0  0  0  0  0  0
   -0.8340    1.4037    0.0978 C   0  0  0  0  0  0  0  0  0  0  0  0
   -0.1071   -1.0232    0.3564 C   0  0  0  0  0  0  0  0  0  0  0  0
    1.2508   -0.9554    0.3561 O   0  0  0  0  0  0  0  0  0  0  0  0
    2.1171   -0.1639   -0.3283 C   0  0  0  0  0  0  0  0  0  0  0  0
    1.6381    0.6742   -1.1310 O   0  0  0  0  0  0  0  0  0  0  0  0
    3.5808   -0.2552   -0.1621 C   0  0  0  0  0  0  0  0  0  0  0  0
    4.0205   -1.1075    0.6515 O   0  0  0  0  0  0  0  0  0  0  0  0
   -2.5681   -1.0985    1.4553 H   0  0  0  0  0  0  0  0  0  0  0  0
   -2.5076   -0.6876   -0.2963 H   0  0  0  0  0  0  0  0  0  0  0  0
   -3.0601    0.5744    0.8391 H   0  0  0  0  0  0  0  0  0  0  0  0
   -0.7900    0.3145    1.9356 H   0  0  0  0  0  0  0  0  0  0  0  0
   -0.0155    2.0799    0.4181 H   0  0  0  0  0  0  0  0  0  0  0  0
   -0.9534    1.2910   -0.9808 H   0  0  0  0  0  0  0  0  0  0  0  0
   -1.7689    2.0009    0.3966 H   0  0  0  0  0  0  0  0  0  0  0  0
   -0.5505   -1.3074   -0.6471 H   0  0  0  0  0  0  0  0  0  0  0  0
   -0.3841   -1.9394    0.9827 H   0  0  0  0  0  0  0  0  0  0  0  0
    4.2495    0.3804   -0.7130 H   0  0  0  0  0  0  0  0  0  0  0  0
  1  2  1  0
  2  3  1  0
  2  4  1  0
  4  5  1  0
  5  6  1  0
  6  7  2  0
  6  8  1  0
  8  9  2  0
  1 10  1  0
  1 11  1  0
  1 12  1  0
  2 13  1  0
  3 14  1  0
  3 15  1  0
  3 16  1  0
  4 17  1  0
  4 18  1  0
  8 19  1  0
M  END
