
     RDKit          3D

 25 24  0  0  0  0  0  0  0  0999 V2000
    1.0679   -1.5074   -0.6449 C   0  0  0  0  0  0  0  0  0  0  0  0
    1.0693   -0.0697   -0.3174 C   0  0  0  0  0  0  0  0  0  0  0  0
    2.4523    0.2737    0.2615 C   0  0  0  0  0  0  0  0  0  0  0  0
    0.0681    0.4251    0.6393 C   0  0  0  0  0  0  0  0  0  0  0  0
    0.2747    1.8853    0.7988 C   0  0  0  0  0  0  0  0  0  0  0  0
    0.7402    2.5787   -0.0771 O   0  0  0  0  0  0  0  0  0  0  0  0
   -1.3664    0.1874    0.3187 C   0  0  0  0  0  0  0  0  0  0  0  0
   -1.8275    0.7975   -0.9620 C   0  0  0  0  0  0  0  0  0  0  0  0
   -1.7799   -1.2703    0.4163 C   0  0  0  0  0  0  0  0  0  0  0  0
    0.8538   -2.1866    0.1944 H   0  0  0  0  0  0  0  0  0  0  0  0
    2.1171   -1.7779   -0.9760 H   0  0  0  0  0  0  0  0  0  0  0  0
    0.4606   -1.7611   -1.5649 H   0  0  0  0  0  0  0  0  0  0  0  0
    1.0193    0.5101   -1.2759 H   0  0  0  0  0  0  0  0  0  0  0  0
    2.4431    1.2290    0.7826 H   0  0  0  0  0  0  0  0  0  0  0  0
    2.7041   -0.5897    0.9207 H   0  0  0  0  0  0  0  0  0  0  0  0
    3.1529    0.2161   -0.5959 H   0  0  0  0  0  0  0  0  0  0  0  0
    0.2525   -0.0403    1.6521 H   0  0  0  0  0  0  0  0  0  0  0  0
   -0.0003    2.3464    1.7300 H   0  0  0  0  0  0  0  0  0  0  0  0
   -1.9585    0.6960    1.1403 H   0  0  0  0  0  0  0  0  0  0  0  0
   -1.0771    1.5385   -1.2870 H   0  0  0  0  0  0  0  0  0  0  0  0
   -2.7877    1.3769   -0.8486 H   0  0  0  0  0  0  0  0  0  0  0  0
   -2.0467    0.0328   -1.7301 H   0  0  0  0  0  0  0  0  0  0  0  0
   -1.2537   -1.7664    1.2598 H   0  0  0  0  0  0  0  0  0  0  0  0
   -2.8726   -1.3178    0.7017 H   0  0  0  0  0  0  0  0  0  0  0  0
   -1.7056   -1.8063   -0.5363 H   0  0  0  0  0  0  0  0  0  0  0  0
  1  2  1  0
  2  3  1  0
  2  4  1  0
  4  5  1  0
  5  6  2  0
  4  7  1  0
  7  8  1  0
  7  9  1  0
  1 10  1  0
  1 11  1  0
  1 12  1  0
  2 13  1  0
  3 14  1  0
  3 15  1  0
  3 16  1  0
  4 17  1  0
  5 18  1  0
  7 19  1  0
  8 20  1  0
  8 21  1  0
  8 22  1  0
  9 23  1  0
  9 24  1  0
  9 25  1  0
M  END
