
     RDKit          3D

 19 20  0  0  0  0  0  0  0  0999 V2000
   -1.2071    0.4105    1.2924 C   0  0  0  0  0  0  0  0  0  0  0  0
   -0.8104    0.5609   -0.1470 C   0  0  0  0  0  0  0  0  0  0  0  0
   -1.6995   -0.2885   -0.9798 C   0  0  0  0  0  0  0  0  0  0  0  0
   -2.1177    0.0761   -2.0801 O   0  0  0  0  0  0  0  0  0  0  0  0
    0.6038    0.1856   -0.4222 C   0  0  0  0  0  0  0  0  0  0  0  0
    1.7110    0.9242    0.2755 C   0  0  0  0  0  0  0  0  0  0  0  0
    2.4601   -0.2419    0.4433 O   0  0  0  0  0  0  0  0  0  0  0  0
    1.2741   -0.9561    0.2262 C   0  0  0  0  0  0  0  0  0  0  0  0
    0.8526   -1.0634   -1.1778 C   0  0  0  0  0  0  0  0  0  0  0  0
   -1.1460   -0.6694    1.5781 H   0  0  0  0  0  0  0  0  0  0  0  0
   -2.2809    0.7252    1.3700 H   0  0  0  0  0  0  0  0  0  0  0  0
   -0.6334    1.0457    1.9729 H   0  0  0  0  0  0  0  0  0  0  0  0
   -0.9857    1.6354   -0.4425 H   0  0  0  0  0  0  0  0  0  0  0  0
   -1.9932   -1.2752   -0.6000 H   0  0  0  0  0  0  0  0  0  0  0  0
    2.2065    1.7271   -0.3047 H   0  0  0  0  0  0  0  0  0  0  0  0
    1.4337    1.3349    1.2802 H   0  0  0  0  0  0  0  0  0  0  0  0
    0.7609   -1.4238    1.0660 H   0  0  0  0  0  0  0  0  0  0  0  0
   -0.0313   -1.7037   -1.3723 H   0  0  0  0  0  0  0  0  0  0  0  0
    1.6025   -1.0037   -1.9785 H   0  0  0  0  0  0  0  0  0  0  0  0
  1  2  1  0
  2  3  1  0
  3  4  2  0
  2  5  1  0
  5  6  1  0
  6  7  1  0
  7  8  1  0
  8  9  1  0
  8  5  1  0
  9  5  1  0
  1 10  1  0
  1 11  1  0
  1 12  1  0
  2 13  1  0
  3 14  1  0
  6 15  1  0
  6 16  1  0
  8 17  1  0
  9 18  1  0
  9 19  1  0
M  END
