
     RDKit          3D

 23 23  0  0  0  0  0  0  0  0999 V2000
    1.6038   -1.8309   -0.1484 C   0  0  0  0  0  0  0  0  0  0  0  0
    1.1141   -0.4024   -0.0075 C   0  0  0  0  0  0  0  0  0  0  0  0
    2.2472    0.4310    0.5411 C   0  0  0  0  0  0  0  0  0  0  0  0
    1.8320    1.7628    0.5820 O   0  0  0  0  0  0  0  0  0  0  0  0
   -0.0261   -0.3355    0.7470 O   0  0  0  0  0  0  0  0  0  0  0  0
   -1.1378    0.1343    0.0808 C   0  0  0  0  0  0  0  0  0  0  0  0
   -1.6455   -0.6099   -1.1366 C   0  0  0  0  0  0  0  0  0  0  0  0
   -2.2846    0.5587    1.0170 C   0  0  0  0  0  0  0  0  0  0  0  0
   -1.4684    1.5811    0.2296 C   0  0  0  0  0  0  0  0  0  0  0  0
    2.3439   -2.1167    0.5938 H   0  0  0  0  0  0  0  0  0  0  0  0
    2.0675   -1.9705   -1.1546 H   0  0  0  0  0  0  0  0  0  0  0  0
    0.7543   -2.5570   -0.1162 H   0  0  0  0  0  0  0  0  0  0  0  0
    0.8906   -0.0498   -1.0337 H   0  0  0  0  0  0  0  0  0  0  0  0
    3.1111    0.3968   -0.1510 H   0  0  0  0  0  0  0  0  0  0  0  0
    2.6030    0.0871    1.5178 H   0  0  0  0  0  0  0  0  0  0  0  0
    1.6911    2.0845   -0.3439 H   0  0  0  0  0  0  0  0  0  0  0  0
   -2.4171   -1.3266   -0.7865 H   0  0  0  0  0  0  0  0  0  0  0  0
   -0.8627   -1.2058   -1.6356 H   0  0  0  0  0  0  0  0  0  0  0  0
   -2.1543    0.0781   -1.8414 H   0  0  0  0  0  0  0  0  0  0  0  0
   -2.1180    0.4723    2.1071 H   0  0  0  0  0  0  0  0  0  0  0  0
   -3.3123    0.4681    0.6736 H   0  0  0  0  0  0  0  0  0  0  0  0
   -0.8633    2.2242    0.8671 H   0  0  0  0  0  0  0  0  0  0  0  0
   -1.9686    2.1260   -0.6018 H   0  0  0  0  0  0  0  0  0  0  0  0
  1  2  1  0
  2  3  1  0
  3  4  1  0
  2  5  1  0
  5  6  1  0
  6  7  1  0
  6  8  1  0
  8  9  1  0
  9  6  1  0
  1 10  1  0
  1 11  1  0
  1 12  1  0
  2 13  1  0
  3 14  1  0
  3 15  1  0
  4 16  1  0
  7 17  1  0
  7 18  1  0
  7 19  1  0
  8 20  1  0
  8 21  1  0
  9 22  1  0
  9 23  1  0
M  END
