
     RDKit          3D

 18 17  0  0  0  0  0  0  0  0999 V2000
   -1.0114    0.9043    1.0741 C   0  0  0  0  0  0  0  0  0  0  0  0
   -0.5751   -0.1035    0.0374 C   0  0  0  0  0  0  0  0  0  0  0  0
   -1.3021    0.1377   -1.2631 C   0  0  0  0  0  0  0  0  0  0  0  0
   -0.8507   -1.4787    0.5960 C   0  0  0  0  0  0  0  0  0  0  0  0
    0.8632    0.0771   -0.1709 C   0  0  0  0  0  0  0  0  0  0  0  0
    2.0504    0.2389   -0.3339 C   0  0  0  0  0  0  0  0  0  0  0  0
    3.4639    0.4375   -0.5049 C   0  0  0  0  0  0  0  0  0  0  0  0
    3.9666    1.5567   -0.7863 O   0  0  0  0  0  0  0  0  0  0  0  0
   -0.9792    0.4794    2.1081 H   0  0  0  0  0  0  0  0  0  0  0  0
   -2.0835    1.1422    0.8625 H   0  0  0  0  0  0  0  0  0  0  0  0
   -0.4356    1.8310    1.0621 H   0  0  0  0  0  0  0  0  0  0  0  0
   -0.8545   -0.4507   -2.0663 H   0  0  0  0  0  0  0  0  0  0  0  0
   -2.3775   -0.1495   -1.0659 H   0  0  0  0  0  0  0  0  0  0  0  0
   -1.3429    1.2165   -1.5136 H   0  0  0  0  0  0  0  0  0  0  0  0
   -0.1765   -2.2461    0.1513 H   0  0  0  0  0  0  0  0  0  0  0  0
   -0.5955   -1.4458    1.6939 H   0  0  0  0  0  0  0  0  0  0  0  0
   -1.9110   -1.7568    0.5132 H   0  0  0  0  0  0  0  0  0  0  0  0
    4.1514   -0.3900   -0.3935 H   0  0  0  0  0  0  0  0  0  0  0  0
  1  2  1  0
  2  3  1  0
  2  4  1  0
  2  5  1  0
  5  6  3  0
  6  7  1  0
  7  8  2  0
  1  9  1  0
  1 10  1  0
  1 11  1  0
  3 12  1  0
  3 13  1  0
  3 14  1  0
  4 15  1  0
  4 16  1  0
  4 17  1  0
  7 18  1  0
M  END
