
     RDKit          3D

 25 25  0  0  0  0  0  0  0  0999 V2000
   -2.2356   -1.2780   -0.0471 C   0  0  0  0  0  0  0  0  0  0  0  0
   -1.7761    0.1609   -0.1377 C   0  0  0  0  0  0  0  0  0  0  0  0
   -2.8034    1.0920    0.4179 C   0  0  0  0  0  0  0  0  0  0  0  0
   -0.4891    0.3687    0.6711 C   0  0  0  0  0  0  0  0  0  0  0  0
    0.5691   -0.5296    0.1109 C   0  0  0  0  0  0  0  0  0  0  0  0
    0.8577   -0.2829   -1.2272 O   0  0  0  0  0  0  0  0  0  0  0  0
    1.8826   -0.0794   -0.3098 C   0  0  0  0  0  0  0  0  0  0  0  0
    2.2897    1.3200    0.0560 C   0  0  0  0  0  0  0  0  0  0  0  0
    2.9851   -1.1235   -0.4242 C   0  0  0  0  0  0  0  0  0  0  0  0
   -1.4174   -1.9209   -0.4360 H   0  0  0  0  0  0  0  0  0  0  0  0
   -2.5294   -1.5463    0.9831 H   0  0  0  0  0  0  0  0  0  0  0  0
   -3.0688   -1.3879   -0.7731 H   0  0  0  0  0  0  0  0  0  0  0  0
   -1.5756    0.3825   -1.1984 H   0  0  0  0  0  0  0  0  0  0  0  0
   -2.3478    2.0340    0.7316 H   0  0  0  0  0  0  0  0  0  0  0  0
   -3.5603    1.3125   -0.3623 H   0  0  0  0  0  0  0  0  0  0  0  0
   -3.3174    0.6473    1.2881 H   0  0  0  0  0  0  0  0  0  0  0  0
   -0.2101    1.4296    0.5029 H   0  0  0  0  0  0  0  0  0  0  0  0
   -0.6906    0.1964    1.7413 H   0  0  0  0  0  0  0  0  0  0  0  0
    0.4904   -1.5833    0.4615 H   0  0  0  0  0  0  0  0  0  0  0  0
    1.7583    1.7078    0.9594 H   0  0  0  0  0  0  0  0  0  0  0  0
    3.3642    1.2970    0.3344 H   0  0  0  0  0  0  0  0  0  0  0  0
    2.1121    2.0557   -0.7602 H   0  0  0  0  0  0  0  0  0  0  0  0
    3.6423   -1.1137    0.4665 H   0  0  0  0  0  0  0  0  0  0  0  0
    2.5154   -2.1375   -0.4523 H   0  0  0  0  0  0  0  0  0  0  0  0
    3.5549   -1.0212   -1.3718 H   0  0  0  0  0  0  0  0  0  0  0  0
  1  2  1  0
  2  3  1  0
  2  4  1  0
  4  5  1  0
  5  6  1  0
  6  7  1  0
  7  8  1  0
  7  9  1  0
  7  5  1  0
  1 10  1  0
  1 11  1  0
  1 12  1  0
  2 13  1  0
  3 14  1  0
  3 15  1  0
  3 16  1  0
  4 17  1  0
  4 18  1  0
  5 19  1  0
  8 20  1  0
  8 21  1  0
  8 22  1  0
  9 23  1  0
  9 24  1  0
  9 25  1  0
M  END
