
     RDKit          3D

 18 18  0  0  0  0  0  0  0  0999 V2000
   -1.1597    1.0398    0.5824 C   0  0  0  0  0  0  0  0  0  0  0  0
   -0.7624    0.2233   -0.6022 C   0  0  0  0  0  0  0  0  0  0  0  0
   -1.6251   -0.9909   -0.6423 C   0  0  0  0  0  0  0  0  0  0  0  0
   -2.5193   -1.1995    0.1713 O   0  0  0  0  0  0  0  0  0  0  0  0
    0.6803   -0.2012   -0.5843 C   0  0  0  0  0  0  0  0  0  0  0  0
    1.1147   -1.0367    0.5706 C   0  0  0  0  0  0  0  0  0  0  0  0
    1.5620    0.0909    1.2736 O   0  0  0  0  0  0  0  0  0  0  0  0
    1.6500    0.7414    0.0428 C   0  0  0  0  0  0  0  0  0  0  0  0
   -1.6656    0.3823    1.3354 H   0  0  0  0  0  0  0  0  0  0  0  0
   -0.3319    1.5461    1.0964 H   0  0  0  0  0  0  0  0  0  0  0  0
   -1.9514    1.7617    0.2309 H   0  0  0  0  0  0  0  0  0  0  0  0
   -0.9099    0.7985   -1.5589 H   0  0  0  0  0  0  0  0  0  0  0  0
   -1.4815   -1.7410   -1.4110 H   0  0  0  0  0  0  0  0  0  0  0  0
    1.0321   -0.5694   -1.5566 H   0  0  0  0  0  0  0  0  0  0  0  0
    2.0069   -1.6671    0.3311 H   0  0  0  0  0  0  0  0  0  0  0  0
    0.2709   -1.5711    1.0298 H   0  0  0  0  0  0  0  0  0  0  0  0
    1.3956    1.8115    0.0445 H   0  0  0  0  0  0  0  0  0  0  0  0
    2.6942    0.5815   -0.3533 H   0  0  0  0  0  0  0  0  0  0  0  0
  1  2  1  0
  2  3  1  0
  3  4  2  0
  2  5  1  0
  5  6  1  0
  6  7  1  0
  7  8  1  0
  8  5  1  0
  1  9  1  0
  1 10  1  0
  1 11  1  0
  2 12  1  0
  3 13  1  0
  5 14  1  0
  6 15  1  0
  6 16  1  0
  8 17  1  0
  8 18  1  0
M  END
