
     RDKit          3D

 23 24  0  0  0  0  0  0  0  0999 V2000
    0.1845   -1.6638    0.6695 C   0  0  0  0  0  0  0  0  0  0  0  0
   -0.3318   -0.2742    0.3552 C   0  0  0  0  0  0  0  0  0  0  0  0
   -1.3119    0.1089    1.4067 C   0  0  0  0  0  0  0  0  0  0  0  0
    0.7913    0.7260    0.1947 C   0  0  0  0  0  0  0  0  0  0  0  0
    1.7877    0.4305   -0.9047 C   0  0  0  0  0  0  0  0  0  0  0  0
    2.1746    0.4183    0.5559 C   0  0  0  0  0  0  0  0  0  0  0  0
   -1.0825   -0.3142   -0.9794 C   0  0  0  0  0  0  0  0  0  0  0  0
   -1.6586    0.9422   -1.4554 C   0  0  0  0  0  0  0  0  0  0  0  0
   -0.4601    0.2845   -2.0836 O   0  0  0  0  0  0  0  0  0  0  0  0
    0.5928   -2.1756   -0.2195 H   0  0  0  0  0  0  0  0  0  0  0  0
   -0.7230   -2.2641    0.9736 H   0  0  0  0  0  0  0  0  0  0  0  0
    0.8397   -1.6507    1.5396 H   0  0  0  0  0  0  0  0  0  0  0  0
   -1.6658   -0.7625    2.0214 H   0  0  0  0  0  0  0  0  0  0  0  0
   -2.2619    0.5448    0.9813 H   0  0  0  0  0  0  0  0  0  0  0  0
   -0.9419    0.8532    2.1299 H   0  0  0  0  0  0  0  0  0  0  0  0
    0.4370    1.7801    0.1988 H   0  0  0  0  0  0  0  0  0  0  0  0
    2.1296    1.2483   -1.5586 H   0  0  0  0  0  0  0  0  0  0  0  0
    1.7209   -0.5786   -1.3671 H   0  0  0  0  0  0  0  0  0  0  0  0
    2.4613   -0.5179    1.0416 H   0  0  0  0  0  0  0  0  0  0  0  0
    2.7818    1.2970    0.9229 H   0  0  0  0  0  0  0  0  0  0  0  0
   -1.6397   -1.2437   -1.2305 H   0  0  0  0  0  0  0  0  0  0  0  0
   -2.5357    0.8976   -2.1211 H   0  0  0  0  0  0  0  0  0  0  0  0
   -1.2886    1.9137   -1.0712 H   0  0  0  0  0  0  0  0  0  0  0  0
  1  2  1  0
  2  3  1  0
  2  4  1  0
  4  5  1  0
  5  6  1  0
  2  7  1  0
  7  8  1  0
  8  9  1  0
  6  4  1  0
  9  7  1  0
  1 10  1  0
  1 11  1  0
  1 12  1  0
  3 13  1  0
  3 14  1  0
  3 15  1  0
  4 16  1  0
  5 17  1  0
  5 18  1  0
  6 19  1  0
  6 20  1  0
  7 21  1  0
  8 22  1  0
  8 23  1  0
M  END
