
     RDKit          3D

 17 17  0  0  0  0  0  0  0  0999 V2000
   -1.0559    1.0433    0.5906 C   0  0  0  0  0  0  0  0  0  0  0  0
   -0.7465   -0.0101   -0.4426 C   0  0  0  0  0  0  0  0  0  0  0  0
   -2.0269   -0.6248   -0.8562 C   0  0  0  0  0  0  0  0  0  0  0  0
   -2.7994   -0.9668    0.0298 O   0  0  0  0  0  0  0  0  0  0  0  0
    0.1740   -1.0439    0.0120 C   0  0  0  0  0  0  0  0  0  0  0  0
   -0.2057   -2.2028    0.0180 O   0  0  0  0  0  0  0  0  0  0  0  0
    1.5805   -0.7596    0.4789 C   0  0  0  0  0  0  0  0  0  0  0  0
    2.2416    0.3620   -0.1652 C   0  0  0  0  0  0  0  0  0  0  0  0
    1.7579    0.3840    1.2465 O   0  0  0  0  0  0  0  0  0  0  0  0
   -2.0230    1.5099    0.2818 H   0  0  0  0  0  0  0  0  0  0  0  0
   -1.2142    0.6092    1.5799 H   0  0  0  0  0  0  0  0  0  0  0  0
   -0.3236    1.8823    0.5784 H   0  0  0  0  0  0  0  0  0  0  0  0
   -0.3075    0.5454   -1.3218 H   0  0  0  0  0  0  0  0  0  0  0  0
   -2.2430   -0.7535   -1.9077 H   0  0  0  0  0  0  0  0  0  0  0  0
    2.1956   -1.6076    0.8021 H   0  0  0  0  0  0  0  0  0  0  0  0
    3.3216    0.5588   -0.1296 H   0  0  0  0  0  0  0  0  0  0  0  0
    1.6746    1.0741   -0.7949 H   0  0  0  0  0  0  0  0  0  0  0  0
  1  2  1  0
  2  3  1  0
  3  4  2  0
  2  5  1  0
  5  6  2  0
  5  7  1  0
  7  8  1  0
  8  9  1  0
  9  7  1  0
  1 10  1  0
  1 11  1  0
  1 12  1  0
  2 13  1  0
  3 14  1  0
  7 15  1  0
  8 16  1  0
  8 17  1  0
M  END
