
     RDKit          3D

 21 21  0  0  0  0  0  0  0  0999 V2000
   -1.6808    1.2661   -0.1883 C   0  0  0  0  0  0  0  0  0  0  0  0
   -1.0975   -0.0503    0.3086 C   0  0  0  0  0  0  0  0  0  0  0  0
   -1.2665   -1.0427   -0.8043 C   0  0  0  0  0  0  0  0  0  0  0  0
    0.3360    0.2076    0.6622 C   0  0  0  0  0  0  0  0  0  0  0  0
    1.0601   -1.0063    1.1751 C   0  0  0  0  0  0  0  0  0  0  0  0
    2.4271   -0.5855    1.0419 O   0  0  0  0  0  0  0  0  0  0  0  0
    2.5359    0.2508   -0.0556 C   0  0  0  0  0  0  0  0  0  0  0  0
    3.6074    0.6744   -0.5391 O   0  0  0  0  0  0  0  0  0  0  0  0
    1.1764    0.5588   -0.5594 C   0  0  0  0  0  0  0  0  0  0  0  0
   -0.9807    1.6850   -0.9242 H   0  0  0  0  0  0  0  0  0  0  0  0
   -1.8158    1.9134    0.7132 H   0  0  0  0  0  0  0  0  0  0  0  0
   -2.7037    1.0976   -0.6325 H   0  0  0  0  0  0  0  0  0  0  0  0
   -1.6297   -0.4061    1.1852 H   0  0  0  0  0  0  0  0  0  0  0  0
   -2.3684   -1.2899   -0.8410 H   0  0  0  0  0  0  0  0  0  0  0  0
   -0.7652   -2.0095   -0.6004 H   0  0  0  0  0  0  0  0  0  0  0  0
   -1.0286   -0.6338   -1.7993 H   0  0  0  0  0  0  0  0  0  0  0  0
    0.4423    1.0261    1.3771 H   0  0  0  0  0  0  0  0  0  0  0  0
    0.8159   -1.2468    2.2183 H   0  0  0  0  0  0  0  0  0  0  0  0
    0.9536   -1.8746    0.4956 H   0  0  0  0  0  0  0  0  0  0  0  0
    1.0568    1.6096   -0.8637 H   0  0  0  0  0  0  0  0  0  0  0  0
    0.9254   -0.1437   -1.3695 H   0  0  0  0  0  0  0  0  0  0  0  0
  1  2  1  0
  2  3  1  0
  2  4  1  0
  4  5  1  0
  5  6  1  0
  6  7  1  0
  7  8  2  0
  7  9  1  0
  9  4  1  0
  1 10  1  0
  1 11  1  0
  1 12  1  0
  2 13  1  0
  3 14  1  0
  3 15  1  0
  3 16  1  0
  4 17  1  0
  5 18  1  0
  5 19  1  0
  9 20  1  0
  9 21  1  0
M  END
