
     RDKit          3D

 20 20  0  0  0  0  0  0  0  0999 V2000
   -1.1307    1.5348    0.0733 C   0  0  0  0  0  0  0  0  0  0  0  0
   -0.7528    0.1146   -0.3465 C   0  0  0  0  0  0  0  0  0  0  0  0
   -1.2997   -0.8283    0.6515 C   0  0  0  0  0  0  0  0  0  0  0  0
   -1.4232   -0.1047   -1.5669 O   0  0  0  0  0  0  0  0  0  0  0  0
    0.7048    0.0634   -0.5791 C   0  0  0  0  0  0  0  0  0  0  0  0
    1.5523    0.4201    0.6400 C   0  0  0  0  0  0  0  0  0  0  0  0
    1.6119   -0.9315   -0.0047 C   0  0  0  0  0  0  0  0  0  0  0  0
    2.8332   -1.1637   -0.6788 O   0  0  0  0  0  0  0  0  0  0  0  0
   -0.8362    1.7331    1.1338 H   0  0  0  0  0  0  0  0  0  0  0  0
   -2.2344    1.6790    0.0452 H   0  0  0  0  0  0  0  0  0  0  0  0
   -0.6122    2.2273   -0.6142 H   0  0  0  0  0  0  0  0  0  0  0  0
   -1.3902   -0.3576    1.6720 H   0  0  0  0  0  0  0  0  0  0  0  0
   -0.7625   -1.7665    0.7854 H   0  0  0  0  0  0  0  0  0  0  0  0
   -2.3642   -1.1141    0.3998 H   0  0  0  0  0  0  0  0  0  0  0  0
   -2.3747    0.0918   -1.3780 H   0  0  0  0  0  0  0  0  0  0  0  0
    1.0321    0.5318   -1.5525 H   0  0  0  0  0  0  0  0  0  0  0  0
    1.0812    0.4368    1.6273 H   0  0  0  0  0  0  0  0  0  0  0  0
    2.3540    1.1630    0.4564 H   0  0  0  0  0  0  0  0  0  0  0  0
    1.2625   -1.8066    0.5438 H   0  0  0  0  0  0  0  0  0  0  0  0
    2.7490   -1.9229   -1.3081 H   0  0  0  0  0  0  0  0  0  0  0  0
  1  2  1  0
  2  3  1  0
  2  4  1  0
  2  5  1  0
  5  6  1  0
  6  7  1  0
  7  8  1  0
  7  5  1  0
  1  9  1  0
  1 10  1  0
  1 11  1  0
  3 12  1  0
  3 13  1  0
  3 14  1  0
  4 15  1  0
  5 16  1  0
  6 17  1  0
  6 18  1  0
  7 19  1  0
  8 20  1  0
M  END
