
     RDKit          3D

 23 22  0  0  0  0  0  0  0  0999 V2000
   -3.0136   -0.3051    0.7674 C   0  0  0  0  0  0  0  0  0  0  0  0
   -1.9938   -0.7122   -0.2831 C   0  0  0  0  0  0  0  0  0  0  0  0
   -2.5794   -0.5269   -1.5326 O   0  0  0  0  0  0  0  0  0  0  0  0
   -0.8065    0.2510   -0.1171 C   0  0  0  0  0  0  0  0  0  0  0  0
    0.1265    0.0060   -1.0951 O   0  0  0  0  0  0  0  0  0  0  0  0
    1.2126    0.8461   -1.0265 C   0  0  0  0  0  0  0  0  0  0  0  0
    1.9725    0.7537    0.2515 C   0  0  0  0  0  0  0  0  0  0  0  0
    2.5134   -0.6283    0.5200 C   0  0  0  0  0  0  0  0  0  0  0  0
    3.1983   -0.5818    1.7353 O   0  0  0  0  0  0  0  0  0  0  0  0
   -3.1495    0.8052    0.6400 H   0  0  0  0  0  0  0  0  0  0  0  0
   -2.6424   -0.4581    1.7938 H   0  0  0  0  0  0  0  0  0  0  0  0
   -3.9688   -0.8190    0.5914 H   0  0  0  0  0  0  0  0  0  0  0  0
   -1.6790   -1.7530   -0.1972 H   0  0  0  0  0  0  0  0  0  0  0  0
   -3.4520   -0.9959   -1.5070 H   0  0  0  0  0  0  0  0  0  0  0  0
   -0.4073    0.1086    0.9260 H   0  0  0  0  0  0  0  0  0  0  0  0
   -1.2061    1.2858   -0.1434 H   0  0  0  0  0  0  0  0  0  0  0  0
    1.8782    0.7573   -1.9152 H   0  0  0  0  0  0  0  0  0  0  0  0
    0.8216    1.9051   -1.0803 H   0  0  0  0  0  0  0  0  0  0  0  0
    2.8327    1.4645    0.2278 H   0  0  0  0  0  0  0  0  0  0  0  0
    1.3343    1.0436    1.1023 H   0  0  0  0  0  0  0  0  0  0  0  0
    1.7092   -1.3722    0.5958 H   0  0  0  0  0  0  0  0  0  0  0  0
    3.2338   -0.9659   -0.2444 H   0  0  0  0  0  0  0  0  0  0  0  0
    4.0652   -0.1084    1.6706 H   0  0  0  0  0  0  0  0  0  0  0  0
  1  2  1  0
  2  3  1  0
  2  4  1  0
  4  5  1  0
  5  6  1  0
  6  7  1  0
  7  8  1  0
  8  9  1  0
  1 10  1  0
  1 11  1  0
  1 12  1  0
  2 13  1  0
  3 14  1  0
  4 15  1  0
  4 16  1  0
  6 17  1  0
  6 18  1  0
  7 19  1  0
  7 20  1  0
  8 21  1  0
  8 22  1  0
  9 23  1  0
M  END
