
     RDKit          3D

 25 25  0  0  0  0  0  0  0  0999 V2000
    3.1729   -0.0982   -0.9261 C   0  0  0  0  0  0  0  0  0  0  0  0
    2.0350   -0.7034   -0.0911 C   0  0  0  0  0  0  0  0  0  0  0  0
    2.5688   -0.9134    1.1805 O   0  0  0  0  0  0  0  0  0  0  0  0
    0.9486    0.3302   -0.0453 C   0  0  0  0  0  0  0  0  0  0  0  0
   -0.2612   -0.0740    0.7309 C   0  0  0  0  0  0  0  0  0  0  0  0
   -1.0951   -1.2207    0.4295 C   0  0  0  0  0  0  0  0  0  0  0  0
   -1.6234    0.1521    0.1380 C   0  0  0  0  0  0  0  0  0  0  0  0
   -1.7422    0.5818   -1.3068 C   0  0  0  0  0  0  0  0  0  0  0  0
   -2.7152    0.7348    1.0224 C   0  0  0  0  0  0  0  0  0  0  0  0
    2.6677    0.4582   -1.7541 H   0  0  0  0  0  0  0  0  0  0  0  0
    3.6557    0.6851   -0.2958 H   0  0  0  0  0  0  0  0  0  0  0  0
    3.8629   -0.8636   -1.2871 H   0  0  0  0  0  0  0  0  0  0  0  0
    1.7348   -1.6704   -0.4879 H   0  0  0  0  0  0  0  0  0  0  0  0
    1.9532   -0.6972    1.9040 H   0  0  0  0  0  0  0  0  0  0  0  0
    1.3937    1.2534    0.3834 H   0  0  0  0  0  0  0  0  0  0  0  0
    0.6249    0.5902   -1.0745 H   0  0  0  0  0  0  0  0  0  0  0  0
   -0.1982    0.2201    1.8191 H   0  0  0  0  0  0  0  0  0  0  0  0
   -1.0081   -1.8633   -0.4563 H   0  0  0  0  0  0  0  0  0  0  0  0
   -1.6312   -1.7362    1.2714 H   0  0  0  0  0  0  0  0  0  0  0  0
   -2.8002    0.3616   -1.6119 H   0  0  0  0  0  0  0  0  0  0  0  0
   -1.1045    0.0133   -1.9900 H   0  0  0  0  0  0  0  0  0  0  0  0
   -1.6305    1.6690   -1.3625 H   0  0  0  0  0  0  0  0  0  0  0  0
   -2.2005    1.5437    1.6187 H   0  0  0  0  0  0  0  0  0  0  0  0
   -3.1114    0.0046    1.7440 H   0  0  0  0  0  0  0  0  0  0  0  0
   -3.4967    1.2424    0.4476 H   0  0  0  0  0  0  0  0  0  0  0  0
  1  2  1  0
  2  3  1  0
  2  4  1  0
  4  5  1  0
  5  6  1  0
  6  7  1  0
  7  8  1  0
  7  9  1  0
  7  5  1  0
  1 10  1  0
  1 11  1  0
  1 12  1  0
  2 13  1  0
  3 14  1  0
  4 15  1  0
  4 16  1  0
  5 17  1  0
  6 18  1  0
  6 19  1  0
  8 20  1  0
  8 21  1  0
  8 22  1  0
  9 23  1  0
  9 24  1  0
  9 25  1  0
M  END
