
     RDKit          3D

 22 22  0  0  0  0  0  0  0  0999 V2000
   -2.5425   -0.1497   -0.1202 C   0  0  0  0  0  0  0  0  0  0  0  0
   -1.2082   -0.8631   -0.0963 C   0  0  0  0  0  0  0  0  0  0  0  0
   -1.1250   -1.6243   -1.2564 O   0  0  0  0  0  0  0  0  0  0  0  0
   -0.1268    0.1646    0.0056 C   0  0  0  0  0  0  0  0  0  0  0  0
   -0.3358    0.9474    1.2844 C   0  0  0  0  0  0  0  0  0  0  0  0
    1.2527   -0.4372    0.0693 C   0  0  0  0  0  0  0  0  0  0  0  0
    2.3573    0.6332    0.1742 C   0  0  0  0  0  0  0  0  0  0  0  0
    2.2287   -0.2609   -1.0143 C   0  0  0  0  0  0  0  0  0  0  0  0
   -3.1268   -0.3795   -1.0417 H   0  0  0  0  0  0  0  0  0  0  0  0
   -2.4372    0.9557   -0.0924 H   0  0  0  0  0  0  0  0  0  0  0  0
   -3.1714   -0.5105    0.7403 H   0  0  0  0  0  0  0  0  0  0  0  0
   -1.1327   -1.5802    0.7550 H   0  0  0  0  0  0  0  0  0  0  0  0
   -0.9855   -1.0208   -2.0440 H   0  0  0  0  0  0  0  0  0  0  0  0
   -0.2411    0.8558   -0.8556 H   0  0  0  0  0  0  0  0  0  0  0  0
   -1.0705    1.7477    1.1982 H   0  0  0  0  0  0  0  0  0  0  0  0
   -0.5677    0.2157    2.1049 H   0  0  0  0  0  0  0  0  0  0  0  0
    0.6502    1.4023    1.5466 H   0  0  0  0  0  0  0  0  0  0  0  0
    1.3675   -1.3286    0.7191 H   0  0  0  0  0  0  0  0  0  0  0  0
    2.0861    1.6843    0.0962 H   0  0  0  0  0  0  0  0  0  0  0  0
    3.1592    0.4332    0.9226 H   0  0  0  0  0  0  0  0  0  0  0  0
    1.9298    0.1393   -1.9999 H   0  0  0  0  0  0  0  0  0  0  0  0
    3.0398   -1.0245   -1.0956 H   0  0  0  0  0  0  0  0  0  0  0  0
  1  2  1  0
  2  3  1  0
  2  4  1  0
  4  5  1  0
  4  6  1  0
  6  7  1  0
  7  8  1  0
  8  6  1  0
  1  9  1  0
  1 10  1  0
  1 11  1  0
  2 12  1  0
  3 13  1  0
  4 14  1  0
  5 15  1  0
  5 16  1  0
  5 17  1  0
  6 18  1  0
  7 19  1  0
  7 20  1  0
  8 21  1  0
  8 22  1  0
M  END
