
     RDKit          3D

 21 22  0  0  0  0  0  0  0  0999 V2000
    2.1299    0.7724    0.2522 C   0  0  0  0  0  0  0  0  0  0  0  0
    1.2234   -0.4074    0.1046 C   0  0  0  0  0  0  0  0  0  0  0  0
    1.9062   -1.3515   -0.6956 O   0  0  0  0  0  0  0  0  0  0  0  0
   -0.0513   -0.0790   -0.6346 C   0  0  0  0  0  0  0  0  0  0  0  0
   -0.9114    0.9797    0.0035 C   0  0  0  0  0  0  0  0  0  0  0  0
   -1.4082    1.8362   -1.0052 O   0  0  0  0  0  0  0  0  0  0  0  0
   -1.9574   -0.0165    0.4031 C   0  0  0  0  0  0  0  0  0  0  0  0
   -1.6091   -1.3509    0.9228 C   0  0  0  0  0  0  0  0  0  0  0  0
   -1.1737   -1.0439   -0.4666 C   0  0  0  0  0  0  0  0  0  0  0  0
    1.6129    1.7262    0.4347 H   0  0  0  0  0  0  0  0  0  0  0  0
    2.8440    0.9028   -0.5825 H   0  0  0  0  0  0  0  0  0  0  0  0
    2.7714    0.6024    1.1663 H   0  0  0  0  0  0  0  0  0  0  0  0
    1.0680   -0.8827    1.0731 H   0  0  0  0  0  0  0  0  0  0  0  0
    2.8791   -1.2198   -0.5920 H   0  0  0  0  0  0  0  0  0  0  0  0
    0.1714    0.0659   -1.7115 H   0  0  0  0  0  0  0  0  0  0  0  0
   -0.4870    1.5256    0.8463 H   0  0  0  0  0  0  0  0  0  0  0  0
   -1.0226    2.7241   -0.9230 H   0  0  0  0  0  0  0  0  0  0  0  0
   -2.9942    0.1911    0.1111 H   0  0  0  0  0  0  0  0  0  0  0  0
   -0.7894   -1.5059    1.6442 H   0  0  0  0  0  0  0  0  0  0  0  0
   -2.4478   -2.0721    0.9961 H   0  0  0  0  0  0  0  0  0  0  0  0
   -1.7545   -1.3969   -1.3471 H   0  0  0  0  0  0  0  0  0  0  0  0
  1  2  1  0
  2  3  1  0
  2  4  1  0
  4  5  1  0
  5  6  1  0
  5  7  1  0
  7  8  1  0
  8  9  1  0
  9  4  1  0
  9  7  1  0
  1 10  1  0
  1 11  1  0
  1 12  1  0
  2 13  1  0
  3 14  1  0
  4 15  1  0
  5 16  1  0
  6 17  1  0
  7 18  1  0
  8 19  1  0
  8 20  1  0
  9 21  1  0
M  END
