
     RDKit          3D

 21 22  0  0  0  0  0  0  0  0999 V2000
   -1.6376   -0.4885    0.9062 C   0  0  0  0  0  0  0  0  0  0  0  0
   -1.1562   -0.5055   -0.5072 C   0  0  0  0  0  0  0  0  0  0  0  0
   -2.1676    0.1073   -1.2850 O   0  0  0  0  0  0  0  0  0  0  0  0
    0.0962    0.2868   -0.7392 C   0  0  0  0  0  0  0  0  0  0  0  0
    0.1749    1.7347   -0.4710 C   0  0  0  0  0  0  0  0  0  0  0  0
    1.4245    1.5441    0.1610 O   0  0  0  0  0  0  0  0  0  0  0  0
    1.3096    0.1478    0.0424 C   0  0  0  0  0  0  0  0  0  0  0  0
    1.4806   -0.7243    1.2271 C   0  0  0  0  0  0  0  0  0  0  0  0
    1.2461   -0.3937   -1.3378 C   0  0  0  0  0  0  0  0  0  0  0  0
   -1.7313   -1.5569    1.2649 H   0  0  0  0  0  0  0  0  0  0  0  0
   -2.6442   -0.0372    1.0252 H   0  0  0  0  0  0  0  0  0  0  0  0
   -0.9313   -0.0175    1.6153 H   0  0  0  0  0  0  0  0  0  0  0  0
   -1.0663   -1.5324   -0.9137 H   0  0  0  0  0  0  0  0  0  0  0  0
   -2.1566    1.0632   -1.0244 H   0  0  0  0  0  0  0  0  0  0  0  0
    0.2878    2.4083   -1.3386 H   0  0  0  0  0  0  0  0  0  0  0  0
   -0.5189    2.1716    0.2661 H   0  0  0  0  0  0  0  0  0  0  0  0
    0.8257   -1.6112    1.2500 H   0  0  0  0  0  0  0  0  0  0  0  0
    1.4057   -0.1153    2.1517 H   0  0  0  0  0  0  0  0  0  0  0  0
    2.5425   -1.1090    1.2255 H   0  0  0  0  0  0  0  0  0  0  0  0
    1.9392    0.1197   -2.0577 H   0  0  0  0  0  0  0  0  0  0  0  0
    1.2770   -1.4920   -1.4606 H   0  0  0  0  0  0  0  0  0  0  0  0
  1  2  1  0
  2  3  1  0
  2  4  1  0
  4  5  1  0
  5  6  1  0
  6  7  1  0
  7  8  1  0
  7  9  1  0
  7  4  1  0
  9  4  1  0
  1 10  1  0
  1 11  1  0
  1 12  1  0
  2 13  1  0
  3 14  1  0
  5 15  1  0
  5 16  1  0
  8 17  1  0
  8 18  1  0
  8 19  1  0
  9 20  1  0
  9 21  1  0
M  END
