
     RDKit          3D

 18 19  0  0  0  0  0  0  0  0999 V2000
   -2.0145   -0.4241    0.3063 C   0  0  0  0  0  0  0  0  0  0  0  0
   -0.9475    0.1118   -0.6587 C   0  0  0  0  0  0  0  0  0  0  0  0
   -1.3500    1.4415   -0.9281 O   0  0  0  0  0  0  0  0  0  0  0  0
    0.3101    0.0721   -0.0803 C   0  0  0  0  0  0  0  0  0  0  0  0
    1.1003   -1.0926    0.3392 C   0  0  0  0  0  0  0  0  0  0  0  0
    1.8727    0.1293    0.7228 C   0  0  0  0  0  0  0  0  0  0  0  0
    1.5609    0.6859   -0.6276 C   0  0  0  0  0  0  0  0  0  0  0  0
    0.6529    0.6753    1.1278 O   0  0  0  0  0  0  0  0  0  0  0  0
   -2.5848    0.3824    0.7846 H   0  0  0  0  0  0  0  0  0  0  0  0
   -2.7248   -1.0950   -0.2066 H   0  0  0  0  0  0  0  0  0  0  0  0
   -1.5022   -0.9928    1.1341 H   0  0  0  0  0  0  0  0  0  0  0  0
   -1.0327   -0.4748   -1.5781 H   0  0  0  0  0  0  0  0  0  0  0  0
   -1.8714    1.8123   -0.1501 H   0  0  0  0  0  0  0  0  0  0  0  0
    1.5477   -1.7408   -0.4121 H   0  0  0  0  0  0  0  0  0  0  0  0
    0.6110   -1.6267    1.1986 H   0  0  0  0  0  0  0  0  0  0  0  0
    2.7423    0.1765    1.2268 H   0  0  0  0  0  0  0  0  0  0  0  0
    2.0305    0.1857   -1.4890 H   0  0  0  0  0  0  0  0  0  0  0  0
    1.5998    1.7738   -0.7096 H   0  0  0  0  0  0  0  0  0  0  0  0
  1  2  1  0
  2  3  1  0
  2  4  1  0
  4  5  1  0
  5  6  1  0
  6  7  1  0
  6  8  1  0
  7  4  1  0
  8  4  1  0
  1  9  1  0
  1 10  1  0
  1 11  1  0
  2 12  1  0
  3 13  1  0
  5 14  1  0
  5 15  1  0
  6 16  1  0
  7 17  1  0
  7 18  1  0
M  END
