
     RDKit          3D

 23 23  0  0  0  0  0  0  0  0999 V2000
   -2.7761    0.6374    0.0173 C   0  0  0  0  0  0  0  0  0  0  0  0
   -1.2365    0.7649    0.0245 C   0  0  0  0  0  0  0  0  0  0  0  0
   -0.9773    1.3391    1.2925 O   0  0  0  0  0  0  0  0  0  0  0  0
   -0.6989   -0.6021   -0.0741 C   0  0  0  0  0  0  0  0  0  0  0  0
    0.7507   -0.8348   -0.0928 C   0  0  0  0  0  0  0  0  0  0  0  0
    1.0173   -2.3612   -0.2010 C   0  0  0  0  0  0  0  0  0  0  0  0
    1.3416   -0.4011    1.2043 O   0  0  0  0  0  0  0  0  0  0  0  0
    1.8587   -0.0126   -0.1161 C   0  0  0  0  0  0  0  0  0  0  0  0
    2.0370    1.4523   -0.2352 C   0  0  0  0  0  0  0  0  0  0  0  0
   -3.0181    0.0995    0.9568 H   0  0  0  0  0  0  0  0  0  0  0  0
   -3.1051   -0.0191   -0.8196 H   0  0  0  0  0  0  0  0  0  0  0  0
   -3.2440    1.6352   -0.0028 H   0  0  0  0  0  0  0  0  0  0  0  0
   -1.0200    1.4385   -0.8051 H   0  0  0  0  0  0  0  0  0  0  0  0
   -1.2166    2.2934    1.2060 H   0  0  0  0  0  0  0  0  0  0  0  0
   -1.1704   -1.0824   -0.9859 H   0  0  0  0  0  0  0  0  0  0  0  0
   -1.1538   -1.1997    0.7738 H   0  0  0  0  0  0  0  0  0  0  0  0
    0.3546   -2.7651   -0.9703 H   0  0  0  0  0  0  0  0  0  0  0  0
    2.0683   -2.5467   -0.4719 H   0  0  0  0  0  0  0  0  0  0  0  0
    0.7815   -2.8552    0.7597 H   0  0  0  0  0  0  0  0  0  0  0  0
    2.8847   -0.5014   -0.1883 H   0  0  0  0  0  0  0  0  0  0  0  0
    2.7332    1.7729    0.5974 H   0  0  0  0  0  0  0  0  0  0  0  0
    2.6009    1.6459   -1.1917 H   0  0  0  0  0  0  0  0  0  0  0  0
    1.1883    2.1023   -0.1981 H   0  0  0  0  0  0  0  0  0  0  0  0
  1  2  1  0
  2  3  1  0
  2  4  1  0
  4  5  1  0
  5  6  1  0
  5  7  1  0
  7  8  1  0
  8  9  1  0
  8  5  1  0
  1 10  1  0
  1 11  1  0
  1 12  1  0
  2 13  1  0
  3 14  1  0
  4 15  1  0
  4 16  1  0
  6 17  1  0
  6 18  1  0
  6 19  1  0
  8 20  1  0
  9 21  1  0
  9 22  1  0
  9 23  1  0
M  END
