
     RDKit          3D

 23 23  0  0  0  0  0  0  0  0999 V2000
    2.6529    0.4156    0.2484 C   0  0  0  0  0  0  0  0  0  0  0  0
    2.0128   -0.4809   -0.7550 C   0  0  0  0  0  0  0  0  0  0  0  0
    1.8518    0.2264   -1.9462 O   0  0  0  0  0  0  0  0  0  0  0  0
    0.6547   -1.0080   -0.2678 C   0  0  0  0  0  0  0  0  0  0  0  0
   -0.2006    0.1960   -0.0386 C   0  0  0  0  0  0  0  0  0  0  0  0
   -1.5808   -0.1055    0.4449 C   0  0  0  0  0  0  0  0  0  0  0  0
   -1.6731   -0.7884    1.6537 O   0  0  0  0  0  0  0  0  0  0  0  0
   -2.7441   -0.1789   -0.4555 C   0  0  0  0  0  0  0  0  0  0  0  0
   -2.5397    1.0964    0.3201 C   0  0  0  0  0  0  0  0  0  0  0  0
    3.7734    0.3693    0.1472 H   0  0  0  0  0  0  0  0  0  0  0  0
    2.4002    1.4933    0.1161 H   0  0  0  0  0  0  0  0  0  0  0  0
    2.4278    0.1641    1.2997 H   0  0  0  0  0  0  0  0  0  0  0  0
    2.6680   -1.3509   -1.0038 H   0  0  0  0  0  0  0  0  0  0  0  0
    2.3981    1.0524   -1.9303 H   0  0  0  0  0  0  0  0  0  0  0  0
    0.7799   -1.6479    0.6118 H   0  0  0  0  0  0  0  0  0  0  0  0
    0.2162   -1.6341   -1.0716 H   0  0  0  0  0  0  0  0  0  0  0  0
    0.3014    0.8167    0.7418 H   0  0  0  0  0  0  0  0  0  0  0  0
   -0.2219    0.7904   -0.9744 H   0  0  0  0  0  0  0  0  0  0  0  0
   -1.5557   -1.7594    1.4553 H   0  0  0  0  0  0  0  0  0  0  0  0
   -2.6032   -0.1835   -1.5573 H   0  0  0  0  0  0  0  0  0  0  0  0
   -3.6178   -0.7644   -0.1275 H   0  0  0  0  0  0  0  0  0  0  0  0
   -2.2252    1.9462   -0.2975 H   0  0  0  0  0  0  0  0  0  0  0  0
   -3.1751    1.3351    1.1816 H   0  0  0  0  0  0  0  0  0  0  0  0
  1  2  1  0
  2  3  1  0
  2  4  1  0
  4  5  1  0
  5  6  1  0
  6  7  1  0
  6  8  1  0
  8  9  1  0
  9  6  1  0
  1 10  1  0
  1 11  1  0
  1 12  1  0
  2 13  1  0
  3 14  1  0
  4 15  1  0
  4 16  1  0
  5 17  1  0
  5 18  1  0
  7 19  1  0
  8 20  1  0
  8 21  1  0
  9 22  1  0
  9 23  1  0
M  END
