
     RDKit          3D

 20 20  0  0  0  0  0  0  0  0999 V2000
   -2.2318   -0.4115   -0.4458 C   0  0  0  0  0  0  0  0  0  0  0  0
   -1.6313    0.1670    0.8015 C   0  0  0  0  0  0  0  0  0  0  0  0
   -2.0787   -0.6090    1.8767 O   0  0  0  0  0  0  0  0  0  0  0  0
   -0.1253    0.1112    0.8175 C   0  0  0  0  0  0  0  0  0  0  0  0
    0.4908    0.8754   -0.3341 C   0  0  0  0  0  0  0  0  0  0  0  0
    1.9909    0.7413   -0.2026 C   0  0  0  0  0  0  0  0  0  0  0  0
    2.5793   -0.6005   -0.2387 C   0  0  0  0  0  0  0  0  0  0  0  0
    2.7116    0.3466   -1.3810 O   0  0  0  0  0  0  0  0  0  0  0  0
   -2.1802   -1.5295   -0.3664 H   0  0  0  0  0  0  0  0  0  0  0  0
   -3.3180   -0.1081   -0.4409 H   0  0  0  0  0  0  0  0  0  0  0  0
   -1.7550   -0.1057   -1.3734 H   0  0  0  0  0  0  0  0  0  0  0  0
   -1.9507    1.2051    1.0019 H   0  0  0  0  0  0  0  0  0  0  0  0
   -1.5088   -1.4215    1.8741 H   0  0  0  0  0  0  0  0  0  0  0  0
    0.2753   -0.9055    0.7885 H   0  0  0  0  0  0  0  0  0  0  0  0
    0.1998    0.6335    1.7510 H   0  0  0  0  0  0  0  0  0  0  0  0
    0.2126    0.4288   -1.3111 H   0  0  0  0  0  0  0  0  0  0  0  0
    0.1990    1.9619   -0.3005 H   0  0  0  0  0  0  0  0  0  0  0  0
    2.5109    1.4849    0.4416 H   0  0  0  0  0  0  0  0  0  0  0  0
    3.5589   -0.7748    0.2190 H   0  0  0  0  0  0  0  0  0  0  0  0
    2.0506   -1.4896   -0.5921 H   0  0  0  0  0  0  0  0  0  0  0  0
  1  2  1  0
  2  3  1  0
  2  4  1  0
  4  5  1  0
  5  6  1  0
  6  7  1  0
  7  8  1  0
  8  6  1  0
  1  9  1  0
  1 10  1  0
  1 11  1  0
  2 12  1  0
  3 13  1  0
  4 14  1  0
  4 15  1  0
  5 16  1  0
  5 17  1  0
  6 18  1  0
  7 19  1  0
  7 20  1  0
M  END
