
     RDKit          3D

 21 21  0  0  0  0  0  0  0  0999 V2000
   -2.6579   -0.6354   -0.2334 C   0  0  0  0  0  0  0  0  0  0  0  0
   -1.4712    0.2805    0.0892 C   0  0  0  0  0  0  0  0  0  0  0  0
   -1.8352    1.0128    1.2080 O   0  0  0  0  0  0  0  0  0  0  0  0
   -0.2910   -0.6110    0.3328 C   0  0  0  0  0  0  0  0  0  0  0  0
    0.9637    0.1214    0.6637 C   0  0  0  0  0  0  0  0  0  0  0  0
    1.4209    1.0640   -0.4009 C   0  0  0  0  0  0  0  0  0  0  0  0
    2.8123    0.8047   -0.4238 O   0  0  0  0  0  0  0  0  0  0  0  0
    2.7789   -0.6049   -0.3500 C   0  0  0  0  0  0  0  0  0  0  0  0
    1.9983   -0.8123    0.7686 O   0  0  0  0  0  0  0  0  0  0  0  0
   -3.0702   -1.0503    0.7268 H   0  0  0  0  0  0  0  0  0  0  0  0
   -2.3578   -1.4527   -0.9221 H   0  0  0  0  0  0  0  0  0  0  0  0
   -3.4609   -0.0528   -0.7396 H   0  0  0  0  0  0  0  0  0  0  0  0
   -1.3318    0.9211   -0.8191 H   0  0  0  0  0  0  0  0  0  0  0  0
   -2.0779    1.9538    0.9610 H   0  0  0  0  0  0  0  0  0  0  0  0
   -0.1413   -1.2610   -0.5287 H   0  0  0  0  0  0  0  0  0  0  0  0
   -0.5432   -1.2632    1.1972 H   0  0  0  0  0  0  0  0  0  0  0  0
    0.9139    0.6513    1.6272 H   0  0  0  0  0  0  0  0  0  0  0  0
    1.2871    2.1218   -0.1709 H   0  0  0  0  0  0  0  0  0  0  0  0
    1.0682    0.7805   -1.4268 H   0  0  0  0  0  0  0  0  0  0  0  0
    2.2181   -0.9252   -1.2758 H   0  0  0  0  0  0  0  0  0  0  0  0
    3.7771   -1.0429   -0.2832 H   0  0  0  0  0  0  0  0  0  0  0  0
  1  2  1  0
  2  3  1  0
  2  4  1  0
  4  5  1  0
  5  6  1  0
  6  7  1  0
  7  8  1  0
  8  9  1  0
  9  5  1  0
  1 10  1  0
  1 11  1  0
  1 12  1  0
  2 13  1  0
  3 14  1  0
  4 15  1  0
  4 16  1  0
  5 17  1  0
  6 18  1  0
  6 19  1  0
  8 20  1  0
  8 21  1  0
M  END
