
     RDKit          3D

 21 21  0  0  0  0  0  0  0  0999 V2000
    2.3991    0.4492   -0.5552 C   0  0  0  0  0  0  0  0  0  0  0  0
    1.3769   -0.2466    0.2908 C   0  0  0  0  0  0  0  0  0  0  0  0
    1.0831    0.5553    1.3896 O   0  0  0  0  0  0  0  0  0  0  0  0
    0.1298   -0.6268   -0.4400 C   0  0  0  0  0  0  0  0  0  0  0  0
   -0.6274    0.4859   -1.0422 C   0  0  0  0  0  0  0  0  0  0  0  0
   -1.9638    0.5943   -0.3304 C   0  0  0  0  0  0  0  0  0  0  0  0
   -1.7960   -0.1950    0.9665 C   0  0  0  0  0  0  0  0  0  0  0  0
   -0.8103   -1.2223    0.5538 C   0  0  0  0  0  0  0  0  0  0  0  0
   -0.7889   -2.3682    0.9730 O   0  0  0  0  0  0  0  0  0  0  0  0
    2.0398    0.7638   -1.5397 H   0  0  0  0  0  0  0  0  0  0  0  0
    3.2893   -0.1924   -0.7247 H   0  0  0  0  0  0  0  0  0  0  0  0
    2.7972    1.3731   -0.0473 H   0  0  0  0  0  0  0  0  0  0  0  0
    1.8335   -1.1782    0.6870 H   0  0  0  0  0  0  0  0  0  0  0  0
    0.8679   -0.0336    2.1560 H   0  0  0  0  0  0  0  0  0  0  0  0
    0.4059   -1.3879   -1.2270 H   0  0  0  0  0  0  0  0  0  0  0  0
   -0.8838    0.2453   -2.1152 H   0  0  0  0  0  0  0  0  0  0  0  0
   -0.1464    1.4618   -1.0587 H   0  0  0  0  0  0  0  0  0  0  0  0
   -2.2225    1.6235   -0.0603 H   0  0  0  0  0  0  0  0  0  0  0  0
   -2.7737    0.0676   -0.8931 H   0  0  0  0  0  0  0  0  0  0  0  0
   -2.7720   -0.6560    1.2774 H   0  0  0  0  0  0  0  0  0  0  0  0
   -1.4377    0.4873    1.7399 H   0  0  0  0  0  0  0  0  0  0  0  0
  1  2  1  0
  2  3  1  0
  2  4  1  0
  4  5  1  0
  5  6  1  0
  6  7  1  0
  7  8  1  0
  8  9  2  0
  8  4  1  0
  1 10  1  0
  1 11  1  0
  1 12  1  0
  2 13  1  0
  3 14  1  0
  4 15  1  0
  5 16  1  0
  5 17  1  0
  6 18  1  0
  6 19  1  0
  7 20  1  0
  7 21  1  0
M  END
