
     RDKit          3D

 21 22  0  0  0  0  0  0  0  0999 V2000
    2.4788   -0.1901    0.1441 C   0  0  0  0  0  0  0  0  0  0  0  0
    1.0993   -0.7731   -0.1502 C   0  0  0  0  0  0  0  0  0  0  0  0
    0.9161   -0.8812   -1.5103 O   0  0  0  0  0  0  0  0  0  0  0  0
    0.1000    0.1772    0.4589 C   0  0  0  0  0  0  0  0  0  0  0  0
    0.1581    1.5782   -0.0872 C   0  0  0  0  0  0  0  0  0  0  0  0
   -1.0632    1.4060   -0.7740 O   0  0  0  0  0  0  0  0  0  0  0  0
   -1.2389    0.2344   -0.1127 C   0  0  0  0  0  0  0  0  0  0  0  0
   -2.1837   -0.8015   -0.3816 C   0  0  0  0  0  0  0  0  0  0  0  0
   -2.4351    0.0416    0.8193 C   0  0  0  0  0  0  0  0  0  0  0  0
    2.9360   -0.7260    1.0164 H   0  0  0  0  0  0  0  0  0  0  0  0
    3.1531   -0.2989   -0.7437 H   0  0  0  0  0  0  0  0  0  0  0  0
    2.4104    0.8896    0.3903 H   0  0  0  0  0  0  0  0  0  0  0  0
    1.0609   -1.7789    0.2814 H   0  0  0  0  0  0  0  0  0  0  0  0
    1.7007   -1.2230   -1.9951 H   0  0  0  0  0  0  0  0  0  0  0  0
    0.0954    0.1921    1.5679 H   0  0  0  0  0  0  0  0  0  0  0  0
    0.9987    1.8109   -0.7583 H   0  0  0  0  0  0  0  0  0  0  0  0
    0.0522    2.3917    0.6673 H   0  0  0  0  0  0  0  0  0  0  0  0
   -1.9593   -1.8693   -0.2168 H   0  0  0  0  0  0  0  0  0  0  0  0
   -2.9296   -0.6572   -1.2080 H   0  0  0  0  0  0  0  0  0  0  0  0
   -2.2364   -0.4323    1.8016 H   0  0  0  0  0  0  0  0  0  0  0  0
   -3.1134    0.9096    0.7905 H   0  0  0  0  0  0  0  0  0  0  0  0
  1  2  1  0
  2  3  1  0
  2  4  1  0
  4  5  1  0
  5  6  1  0
  6  7  1  0
  7  8  1  0
  8  9  1  0
  7  4  1  0
  9  7  1  0
  1 10  1  0
  1 11  1  0
  1 12  1  0
  2 13  1  0
  3 14  1  0
  4 15  1  0
  5 16  1  0
  5 17  1  0
  8 18  1  0
  8 19  1  0
  9 20  1  0
  9 21  1  0
M  END
