
     RDKit          3D

 21 20  0  0  0  0  0  0  0  0999 V2000
    1.3792   -0.5226   -1.0751 C   0  0  0  0  0  0  0  0  0  0  0  0
    1.1497    0.5045   -0.0186 C   0  0  0  0  0  0  0  0  0  0  0  0
    2.3416    0.7011    0.6839 O   0  0  0  0  0  0  0  0  0  0  0  0
    0.0031    0.2004    0.9150 C   0  0  0  0  0  0  0  0  0  0  0  0
    0.1887   -1.0701    1.6443 C   0  0  0  0  0  0  0  0  0  0  0  0
    0.0658   -1.1732    2.8684 O   0  0  0  0  0  0  0  0  0  0  0  0
   -1.3372    0.3693    0.2814 C   0  0  0  0  0  0  0  0  0  0  0  0
   -1.6208   -0.4784   -0.9014 C   0  0  0  0  0  0  0  0  0  0  0  0
   -1.4458    1.7370   -0.0689 O   0  0  0  0  0  0  0  0  0  0  0  0
    1.2898   -1.5583   -0.6849 H   0  0  0  0  0  0  0  0  0  0  0  0
    2.4654   -0.4381   -1.3794 H   0  0  0  0  0  0  0  0  0  0  0  0
    0.8071   -0.3448   -1.9901 H   0  0  0  0  0  0  0  0  0  0  0  0
    0.9487    1.4899   -0.5263 H   0  0  0  0  0  0  0  0  0  0  0  0
    2.4099    1.6226    1.0577 H   0  0  0  0  0  0  0  0  0  0  0  0
    0.0680    1.0073    1.7094 H   0  0  0  0  0  0  0  0  0  0  0  0
    0.4506   -2.0178    1.1462 H   0  0  0  0  0  0  0  0  0  0  0  0
   -2.1276    0.2350    1.0716 H   0  0  0  0  0  0  0  0  0  0  0  0
   -2.7170   -0.7552   -0.8610 H   0  0  0  0  0  0  0  0  0  0  0  0
   -1.0837   -1.4162   -0.9772 H   0  0  0  0  0  0  0  0  0  0  0  0
   -1.5441    0.0920   -1.8723 H   0  0  0  0  0  0  0  0  0  0  0  0
   -1.6915    1.8154   -1.0227 H   0  0  0  0  0  0  0  0  0  0  0  0
  1  2  1  0
  2  3  1  0
  2  4  1  0
  4  5  1  0
  5  6  2  0
  4  7  1  0
  7  8  1  0
  7  9  1  0
  1 10  1  0
  1 11  1  0
  1 12  1  0
  2 13  1  0
  3 14  1  0
  4 15  1  0
  5 16  1  0
  7 17  1  0
  8 18  1  0
  8 19  1  0
  8 20  1  0
  9 21  1  0
M  END
