
     RDKit          3D

 21 22  0  0  0  0  0  0  0  0999 V2000
    1.8442   -1.1803    0.5208 C   0  0  0  0  0  0  0  0  0  0  0  0
    1.5028    0.1238   -0.1436 C   0  0  0  0  0  0  0  0  0  0  0  0
    2.1418    0.1875   -1.3814 O   0  0  0  0  0  0  0  0  0  0  0  0
    0.0329    0.3089   -0.3643 C   0  0  0  0  0  0  0  0  0  0  0  0
   -0.4562    1.7702   -0.3243 C   0  0  0  0  0  0  0  0  0  0  0  0
   -0.8672    0.8041    0.7001 C   0  0  0  0  0  0  0  0  0  0  0  0
   -2.1630    0.0510    0.4293 C   0  0  0  0  0  0  0  0  0  0  0  0
   -1.6213   -1.1315   -0.3782 C   0  0  0  0  0  0  0  0  0  0  0  0
   -0.6406   -0.5807   -1.1627 O   0  0  0  0  0  0  0  0  0  0  0  0
    2.9514   -1.1558    0.7148 H   0  0  0  0  0  0  0  0  0  0  0  0
    1.6700   -2.0026   -0.2025 H   0  0  0  0  0  0  0  0  0  0  0  0
    1.2780   -1.3145    1.4617 H   0  0  0  0  0  0  0  0  0  0  0  0
    1.9024    0.9495    0.4815 H   0  0  0  0  0  0  0  0  0  0  0  0
    2.9691    0.6957   -1.3299 H   0  0  0  0  0  0  0  0  0  0  0  0
    0.2920    2.5268   -0.0236 H   0  0  0  0  0  0  0  0  0  0  0  0
   -1.1473    2.0978   -1.1220 H   0  0  0  0  0  0  0  0  0  0  0  0
   -0.4947    0.8710    1.7362 H   0  0  0  0  0  0  0  0  0  0  0  0
   -2.6751   -0.2654    1.3371 H   0  0  0  0  0  0  0  0  0  0  0  0
   -2.8461    0.6556   -0.2138 H   0  0  0  0  0  0  0  0  0  0  0  0
   -1.2445   -1.9149    0.3049 H   0  0  0  0  0  0  0  0  0  0  0  0
   -2.4287   -1.4963   -1.0401 H   0  0  0  0  0  0  0  0  0  0  0  0
  1  2  1  0
  2  3  1  0
  2  4  1  0
  4  5  1  0
  5  6  1  0
  6  7  1  0
  7  8  1  0
  8  9  1  0
  6  4  1  0
  9  4  1  0
  1 10  1  0
  1 11  1  0
  1 12  1  0
  2 13  1  0
  3 14  1  0
  5 15  1  0
  5 16  1  0
  6 17  1  0
  7 18  1  0
  7 19  1  0
  8 20  1  0
  8 21  1  0
M  END
