
     RDKit          3D

 25 25  0  0  0  0  0  0  0  0999 V2000
    2.8970    0.5315    0.0102 C   0  0  0  0  0  0  0  0  0  0  0  0
    1.5613    0.0433   -0.5646 C   0  0  0  0  0  0  0  0  0  0  0  0
    1.7614   -1.2962   -0.8972 O   0  0  0  0  0  0  0  0  0  0  0  0
    0.4914    0.1973    0.4948 C   0  0  0  0  0  0  0  0  0  0  0  0
   -0.8017   -0.2803   -0.0758 C   0  0  0  0  0  0  0  0  0  0  0  0
   -0.7735   -1.7157   -0.5032 C   0  0  0  0  0  0  0  0  0  0  0  0
   -2.0247    0.0030    0.7960 C   0  0  0  0  0  0  0  0  0  0  0  0
   -2.0992    1.3500    0.1003 C   0  0  0  0  0  0  0  0  0  0  0  0
   -1.3952    0.6806   -1.0893 C   0  0  0  0  0  0  0  0  0  0  0  0
    3.4407   -0.2943    0.5121 H   0  0  0  0  0  0  0  0  0  0  0  0
    3.4842    0.8758   -0.8586 H   0  0  0  0  0  0  0  0  0  0  0  0
    2.7220    1.3633    0.7422 H   0  0  0  0  0  0  0  0  0  0  0  0
    1.2886    0.5779   -1.4833 H   0  0  0  0  0  0  0  0  0  0  0  0
    2.6536   -1.3398   -1.3337 H   0  0  0  0  0  0  0  0  0  0  0  0
    0.7924   -0.4319    1.3532 H   0  0  0  0  0  0  0  0  0  0  0  0
    0.4183    1.2433    0.7983 H   0  0  0  0  0  0  0  0  0  0  0  0
   -0.0863   -2.2875    0.1356 H   0  0  0  0  0  0  0  0  0  0  0  0
   -1.7845   -2.1973   -0.3784 H   0  0  0  0  0  0  0  0  0  0  0  0
   -0.5244   -1.7604   -1.5821 H   0  0  0  0  0  0  0  0  0  0  0  0
   -2.8630   -0.6622    0.4748 H   0  0  0  0  0  0  0  0  0  0  0  0
   -1.8235    0.0397    1.8728 H   0  0  0  0  0  0  0  0  0  0  0  0
   -1.4463    2.0932    0.5890 H   0  0  0  0  0  0  0  0  0  0  0  0
   -3.0923    1.6715   -0.2035 H   0  0  0  0  0  0  0  0  0  0  0  0
   -0.6898    1.3951   -1.5366 H   0  0  0  0  0  0  0  0  0  0  0  0
   -2.1065    0.2003   -1.7838 H   0  0  0  0  0  0  0  0  0  0  0  0
  1  2  1  0
  2  3  1  0
  2  4  1  0
  4  5  1  0
  5  6  1  0
  5  7  1  0
  7  8  1  0
  8  9  1  0
  9  5  1  0
  1 10  1  0
  1 11  1  0
  1 12  1  0
  2 13  1  0
  3 14  1  0
  4 15  1  0
  4 16  1  0
  6 17  1  0
  6 18  1  0
  6 19  1  0
  7 20  1  0
  7 21  1  0
  8 22  1  0
  8 23  1  0
  9 24  1  0
  9 25  1  0
M  END
