
     RDKit          3D

 19 19  0  0  0  0  0  0  0  0999 V2000
   -2.5181   -0.1295    0.7162 C   0  0  0  0  0  0  0  0  0  0  0  0
   -1.7296   -0.1966   -0.5789 C   0  0  0  0  0  0  0  0  0  0  0  0
   -1.7958    1.0728   -1.1987 O   0  0  0  0  0  0  0  0  0  0  0  0
   -0.3088   -0.4923   -0.1999 C   0  0  0  0  0  0  0  0  0  0  0  0
   -0.1052   -1.5633    0.3475 O   0  0  0  0  0  0  0  0  0  0  0  0
    0.8069    0.4455   -0.4630 C   0  0  0  0  0  0  0  0  0  0  0  0
    1.9039    0.4942    0.5496 C   0  0  0  0  0  0  0  0  0  0  0  0
    2.1534   -0.0895   -0.8168 C   0  0  0  0  0  0  0  0  0  0  0  0
    2.3668   -1.4611   -0.9259 O   0  0  0  0  0  0  0  0  0  0  0  0
   -1.8863    0.4490    1.4370 H   0  0  0  0  0  0  0  0  0  0  0  0
   -3.4376    0.4484    0.5541 H   0  0  0  0  0  0  0  0  0  0  0  0
   -2.7046   -1.1643    1.0944 H   0  0  0  0  0  0  0  0  0  0  0  0
   -2.0676   -0.9861   -1.2511 H   0  0  0  0  0  0  0  0  0  0  0  0
   -1.4699    1.7550   -0.5900 H   0  0  0  0  0  0  0  0  0  0  0  0
    0.5024    1.3856   -0.9646 H   0  0  0  0  0  0  0  0  0  0  0  0
    2.3616    1.4389    0.8523 H   0  0  0  0  0  0  0  0  0  0  0  0
    1.8384   -0.2522    1.3813 H   0  0  0  0  0  0  0  0  0  0  0  0
    2.7769    0.5068   -1.5253 H   0  0  0  0  0  0  0  0  0  0  0  0
    3.3130   -1.6614   -0.7459 H   0  0  0  0  0  0  0  0  0  0  0  0
  1  2  1  0
  2  3  1  0
  2  4  1  0
  4  5  2  0
  4  6  1  0
  6  7  1  0
  7  8  1  0
  8  9  1  0
  8  6  1  0
  1 10  1  0
  1 11  1  0
  1 12  1  0
  2 13  1  0
  3 14  1  0
  6 15  1  0
  7 16  1  0
  7 17  1  0
  8 18  1  0
  9 19  1  0
M  END
