
     RDKit          3D

 18 19  0  0  0  0  0  0  0  0999 V2000
    1.9329   -0.9857   -0.0973 C   0  0  0  0  0  0  0  0  0  0  0  0
    1.1237    0.1027    0.5570 C   0  0  0  0  0  0  0  0  0  0  0  0
    1.8962    1.2522    0.6383 O   0  0  0  0  0  0  0  0  0  0  0  0
   -0.1654    0.3988   -0.1231 C   0  0  0  0  0  0  0  0  0  0  0  0
   -1.3913    0.7804    0.6924 C   0  0  0  0  0  0  0  0  0  0  0  0
   -2.1517   -0.1947   -0.2128 C   0  0  0  0  0  0  0  0  0  0  0  0
   -0.8937   -0.2716   -1.0536 C   0  0  0  0  0  0  0  0  0  0  0  0
   -0.2232    0.8791   -1.4022 O   0  0  0  0  0  0  0  0  0  0  0  0
    1.4263   -1.9803    0.0155 H   0  0  0  0  0  0  0  0  0  0  0  0
    2.2007   -0.7781   -1.1398 H   0  0  0  0  0  0  0  0  0  0  0  0
    2.8822   -1.0794    0.4712 H   0  0  0  0  0  0  0  0  0  0  0  0
    0.9230   -0.2234    1.5976 H   0  0  0  0  0  0  0  0  0  0  0  0
    1.6156    1.8923   -0.0658 H   0  0  0  0  0  0  0  0  0  0  0  0
   -1.3682    0.5022    1.7422 H   0  0  0  0  0  0  0  0  0  0  0  0
   -1.7699    1.8042    0.4605 H   0  0  0  0  0  0  0  0  0  0  0  0
   -2.2767   -1.1752    0.3246 H   0  0  0  0  0  0  0  0  0  0  0  0
   -3.0387    0.2036   -0.6910 H   0  0  0  0  0  0  0  0  0  0  0  0
   -0.7218   -1.1271   -1.7139 H   0  0  0  0  0  0  0  0  0  0  0  0
  1  2  1  0
  2  3  1  0
  2  4  1  0
  4  5  1  0
  5  6  1  0
  6  7  1  0
  7  8  1  0
  7  4  1  0
  8  4  1  0
  1  9  1  0
  1 10  1  0
  1 11  1  0
  2 12  1  0
  3 13  1  0
  5 14  1  0
  5 15  1  0
  6 16  1  0
  6 17  1  0
  7 18  1  0
M  END
