
     RDKit          3D

 23 23  0  0  0  0  0  0  0  0999 V2000
    1.9846   -0.9247   -0.5245 C   0  0  0  0  0  0  0  0  0  0  0  0
    1.1161   -0.3498    0.5640 C   0  0  0  0  0  0  0  0  0  0  0  0
    1.9103    0.4811    1.3601 O   0  0  0  0  0  0  0  0  0  0  0  0
   -0.0382    0.4430    0.0679 C   0  0  0  0  0  0  0  0  0  0  0  0
   -1.0593   -0.2401   -0.8134 C   0  0  0  0  0  0  0  0  0  0  0  0
   -1.6852   -1.3914   -0.0789 C   0  0  0  0  0  0  0  0  0  0  0  0
   -2.0768    0.6473   -1.1541 O   0  0  0  0  0  0  0  0  0  0  0  0
   -0.5946    1.5057    1.0272 C   0  0  0  0  0  0  0  0  0  0  0  0
    0.1845    1.8949   -0.1955 C   0  0  0  0  0  0  0  0  0  0  0  0
    1.4942   -1.7567   -1.0701 H   0  0  0  0  0  0  0  0  0  0  0  0
    2.9166   -1.3011   -0.0097 H   0  0  0  0  0  0  0  0  0  0  0  0
    2.3265   -0.1187   -1.2239 H   0  0  0  0  0  0  0  0  0  0  0  0
    0.8141   -1.1985    1.2159 H   0  0  0  0  0  0  0  0  0  0  0  0
    2.5152   -0.1223    1.8606 H   0  0  0  0  0  0  0  0  0  0  0  0
   -0.5467   -0.5397   -1.7408 H   0  0  0  0  0  0  0  0  0  0  0  0
   -1.2304   -1.5092    0.9320 H   0  0  0  0  0  0  0  0  0  0  0  0
   -2.7797   -1.2181    0.1198 H   0  0  0  0  0  0  0  0  0  0  0  0
   -1.5788   -2.3151   -0.6672 H   0  0  0  0  0  0  0  0  0  0  0  0
   -2.7166    0.1085   -1.7195 H   0  0  0  0  0  0  0  0  0  0  0  0
   -0.1091    1.5638    2.0236 H   0  0  0  0  0  0  0  0  0  0  0  0
   -1.6778    1.6636    1.0637 H   0  0  0  0  0  0  0  0  0  0  0  0
    1.1856    2.3322    0.0072 H   0  0  0  0  0  0  0  0  0  0  0  0
   -0.3545    2.3453   -1.0445 H   0  0  0  0  0  0  0  0  0  0  0  0
  1  2  1  0
  2  3  1  0
  2  4  1  0
  4  5  1  0
  5  6  1  0
  5  7  1  0
  4  8  1  0
  8  9  1  0
  9  4  1  0
  1 10  1  0
  1 11  1  0
  1 12  1  0
  2 13  1  0
  3 14  1  0
  5 15  1  0
  6 16  1  0
  6 17  1  0
  6 18  1  0
  7 19  1  0
  8 20  1  0
  8 21  1  0
  9 22  1  0
  9 23  1  0
M  END
