
     RDKit          3D

 25 25  0  0  0  0  0  0  0  0999 V2000
    3.0468   -0.2057    0.5366 C   0  0  0  0  0  0  0  0  0  0  0  0
    1.6031    0.2800    0.2734 C   0  0  0  0  0  0  0  0  0  0  0  0
    1.8202    1.2979   -0.6895 O   0  0  0  0  0  0  0  0  0  0  0  0
    0.8816   -0.8832   -0.2740 C   0  0  0  0  0  0  0  0  0  0  0  0
   -0.5346   -0.7856   -0.6372 C   0  0  0  0  0  0  0  0  0  0  0  0
   -1.4544   -0.4112    0.5402 C   0  0  0  0  0  0  0  0  0  0  0  0
   -2.6975   -1.1714    0.7953 C   0  0  0  0  0  0  0  0  0  0  0  0
   -1.3943    0.3412   -0.8133 C   0  0  0  0  0  0  0  0  0  0  0  0
   -1.0982    1.7861   -0.6227 C   0  0  0  0  0  0  0  0  0  0  0  0
    3.6509    0.6877    0.7553 H   0  0  0  0  0  0  0  0  0  0  0  0
    3.4181   -0.6224   -0.4266 H   0  0  0  0  0  0  0  0  0  0  0  0
    3.0679   -0.9697    1.3140 H   0  0  0  0  0  0  0  0  0  0  0  0
    1.2636    0.6737    1.2292 H   0  0  0  0  0  0  0  0  0  0  0  0
    2.5405    1.8606   -0.2937 H   0  0  0  0  0  0  0  0  0  0  0  0
    1.5084   -1.2792   -1.1320 H   0  0  0  0  0  0  0  0  0  0  0  0
    0.9812   -1.7117    0.4926 H   0  0  0  0  0  0  0  0  0  0  0  0
   -0.8908   -1.7647   -1.0909 H   0  0  0  0  0  0  0  0  0  0  0  0
   -0.9876    0.0504    1.4175 H   0  0  0  0  0  0  0  0  0  0  0  0
   -2.5074   -2.0961    1.3759 H   0  0  0  0  0  0  0  0  0  0  0  0
   -3.2242   -1.3864   -0.1726 H   0  0  0  0  0  0  0  0  0  0  0  0
   -3.3967   -0.5214    1.3688 H   0  0  0  0  0  0  0  0  0  0  0  0
   -2.3020    0.2007   -1.4806 H   0  0  0  0  0  0  0  0  0  0  0  0
   -2.0817    2.3421   -0.5130 H   0  0  0  0  0  0  0  0  0  0  0  0
   -0.6137    2.2726   -1.4792 H   0  0  0  0  0  0  0  0  0  0  0  0
   -0.5992    2.0157    0.3659 H   0  0  0  0  0  0  0  0  0  0  0  0
  1  2  1  0
  2  3  1  0
  2  4  1  0
  4  5  1  0
  5  6  1  0
  6  7  1  0
  6  8  1  0
  8  9  1  0
  8  5  1  0
  1 10  1  0
  1 11  1  0
  1 12  1  0
  2 13  1  0
  3 14  1  0
  4 15  1  0
  4 16  1  0
  5 17  1  0
  6 18  1  0
  7 19  1  0
  7 20  1  0
  7 21  1  0
  8 22  1  0
  9 23  1  0
  9 24  1  0
  9 25  1  0
M  END
