
     RDKit          3D

 21 21  0  0  0  0  0  0  0  0999 V2000
   -2.4501   -0.3632   -0.4747 C   0  0  0  0  0  0  0  0  0  0  0  0
   -1.2238   -0.4028    0.3980 C   0  0  0  0  0  0  0  0  0  0  0  0
   -1.0458   -1.7510    0.7934 O   0  0  0  0  0  0  0  0  0  0  0  0
    0.0260   -0.0084   -0.3246 C   0  0  0  0  0  0  0  0  0  0  0  0
    1.2686   -0.0522    0.5762 C   0  0  0  0  0  0  0  0  0  0  0  0
    2.3913   -0.8756    0.0454 C   0  0  0  0  0  0  0  0  0  0  0  0
    0.8050    1.1906   -0.0840 C   0  0  0  0  0  0  0  0  0  0  0  0
    0.3506    2.3483    0.7171 C   0  0  0  0  0  0  0  0  0  0  0  0
   -0.3710    2.2553    1.7061 O   0  0  0  0  0  0  0  0  0  0  0  0
   -2.7065   -1.3713   -0.8474 H   0  0  0  0  0  0  0  0  0  0  0  0
   -3.2814    0.0228    0.1557 H   0  0  0  0  0  0  0  0  0  0  0  0
   -2.2399    0.2795   -1.3432 H   0  0  0  0  0  0  0  0  0  0  0  0
   -1.3192    0.1652    1.3206 H   0  0  0  0  0  0  0  0  0  0  0  0
   -1.6031   -2.3611    0.2386 H   0  0  0  0  0  0  0  0  0  0  0  0
    0.1087   -0.5235   -1.3191 H   0  0  0  0  0  0  0  0  0  0  0  0
    1.1139   -0.0791    1.6766 H   0  0  0  0  0  0  0  0  0  0  0  0
    2.1097   -1.4678   -0.8601 H   0  0  0  0  0  0  0  0  0  0  0  0
    2.6907   -1.6228    0.8096 H   0  0  0  0  0  0  0  0  0  0  0  0
    3.2849   -0.2916   -0.2467 H   0  0  0  0  0  0  0  0  0  0  0  0
    1.4641    1.5150   -0.9450 H   0  0  0  0  0  0  0  0  0  0  0  0
    0.6273    3.3934    0.4858 H   0  0  0  0  0  0  0  0  0  0  0  0
  1  2  1  0
  2  3  1  0
  2  4  1  0
  4  5  1  0
  5  6  1  0
  5  7  1  0
  7  8  1  0
  8  9  2  0
  7  4  1  0
  1 10  1  0
  1 11  1  0
  1 12  1  0
  2 13  1  0
  3 14  1  0
  4 15  1  0
  5 16  1  0
  6 17  1  0
  6 18  1  0
  6 19  1  0
  7 20  1  0
  8 21  1  0
M  END
