
     RDKit          3D

 16 15  0  0  0  0  0  0  0  0999 V2000
   -1.8436    0.4702    0.3092 C   0  0  0  0  0  0  0  0  0  0  0  0
   -0.5872    0.3072   -0.4907 C   0  0  0  0  0  0  0  0  0  0  0  0
   -0.6700   -0.7748   -1.3748 O   0  0  0  0  0  0  0  0  0  0  0  0
    0.6013    0.0766    0.4137 C   0  0  0  0  0  0  0  0  0  0  0  0
    1.8965   -0.0135   -0.3256 C   0  0  0  0  0  0  0  0  0  0  0  0
    0.4211   -1.1100    1.1168 O   0  0  0  0  0  0  0  0  0  0  0  0
   -2.5723   -0.3596    0.1601 H   0  0  0  0  0  0  0  0  0  0  0  0
   -2.3821    1.4233    0.0881 H   0  0  0  0  0  0  0  0  0  0  0  0
   -1.6542    0.4997    1.4174 H   0  0  0  0  0  0  0  0  0  0  0  0
   -0.4628    1.2115   -1.1132 H   0  0  0  0  0  0  0  0  0  0  0  0
   -1.5833   -1.1667   -1.4054 H   0  0  0  0  0  0  0  0  0  0  0  0
    0.6800    0.9369    1.1215 H   0  0  0  0  0  0  0  0  0  0  0  0
    2.3713    1.0036   -0.4480 H   0  0  0  0  0  0  0  0  0  0  0  0
    1.8515   -0.5712   -1.2697 H   0  0  0  0  0  0  0  0  0  0  0  0
    2.6209   -0.5664    0.3356 H   0  0  0  0  0  0  0  0  0  0  0  0
    1.3128   -1.3668    1.4651 H   0  0  0  0  0  0  0  0  0  0  0  0
  1  2  1  0
  2  3  1  0
  2  4  1  0
  4  5  1  0
  4  6  1  0
  1  7  1  0
  1  8  1  0
  1  9  1  0
  2 10  1  0
  3 11  1  0
  4 12  1  0
  5 13  1  0
  5 14  1  0
  5 15  1  0
  6 16  1  0
M  END
