
     RDKit          3D

 21 23  0  0  0  0  0  0  0  0999 V2000
   -1.9220   -0.6708   -0.8197 C   0  0  0  0  0  0  0  0  0  0  0  0
   -1.2493   -0.3041    0.4686 C   0  0  0  0  0  0  0  0  0  0  0  0
   -2.1702    0.4446    1.2328 O   0  0  0  0  0  0  0  0  0  0  0  0
    0.0051    0.4685    0.3212 C   0  0  0  0  0  0  0  0  0  0  0  0
    0.0826    1.7815   -0.3371 C   0  0  0  0  0  0  0  0  0  0  0  0
    0.7192    0.6048   -0.9808 C   0  0  0  0  0  0  0  0  0  0  0  0
    1.9747    0.0432   -0.3520 C   0  0  0  0  0  0  0  0  0  0  0  0
    1.8500   -1.2832    0.2780 C   0  0  0  0  0  0  0  0  0  0  0  0
    1.2441   -0.1051    0.9291 C   0  0  0  0  0  0  0  0  0  0  0  0
   -1.3800   -1.4608   -1.3805 H   0  0  0  0  0  0  0  0  0  0  0  0
   -2.9488   -1.0525   -0.5446 H   0  0  0  0  0  0  0  0  0  0  0  0
   -2.0234    0.2691   -1.4228 H   0  0  0  0  0  0  0  0  0  0  0  0
   -1.0668   -1.2290    1.0422 H   0  0  0  0  0  0  0  0  0  0  0  0
   -1.8532    0.3610    2.1756 H   0  0  0  0  0  0  0  0  0  0  0  0
   -0.7836    2.2048   -0.8624 H   0  0  0  0  0  0  0  0  0  0  0  0
    0.7708    2.5343    0.0874 H   0  0  0  0  0  0  0  0  0  0  0  0
    0.3407    0.1525   -1.9044 H   0  0  0  0  0  0  0  0  0  0  0  0
    2.8976    0.6404   -0.3255 H   0  0  0  0  0  0  0  0  0  0  0  0
    1.1488   -1.9867   -0.2222 H   0  0  0  0  0  0  0  0  0  0  0  0
    2.7633   -1.7268    0.7472 H   0  0  0  0  0  0  0  0  0  0  0  0
    1.6003    0.3144    1.8700 H   0  0  0  0  0  0  0  0  0  0  0  0
  1  2  1  0
  2  3  1  0
  2  4  1  0
  4  5  1  0
  5  6  1  0
  6  7  1  0
  7  8  1  0
  8  9  1  0
  6  4  1  0
  9  7  1  0
  9  4  1  0
  1 10  1  0
  1 11  1  0
  1 12  1  0
  2 13  1  0
  3 14  1  0
  5 15  1  0
  5 16  1  0
  6 17  1  0
  7 18  1  0
  8 19  1  0
  8 20  1  0
  9 21  1  0
M  END
