
     RDKit          3D

 23 23  0  0  0  0  0  0  0  0999 V2000
   -1.4812    1.3580    0.7014 C   0  0  0  0  0  0  0  0  0  0  0  0
   -1.4095    0.1822   -0.2536 C   0  0  0  0  0  0  0  0  0  0  0  0
   -2.6263   -0.4869   -0.1975 O   0  0  0  0  0  0  0  0  0  0  0  0
   -0.2513   -0.6795    0.1617 C   0  0  0  0  0  0  0  0  0  0  0  0
   -0.0768   -1.8915   -0.7207 C   0  0  0  0  0  0  0  0  0  0  0  0
    0.9917    0.1575    0.2267 C   0  0  0  0  0  0  0  0  0  0  0  0
    1.4985    0.8684   -0.9811 C   0  0  0  0  0  0  0  0  0  0  0  0
    1.9368   -0.0830    1.3866 C   0  0  0  0  0  0  0  0  0  0  0  0
    1.0297    0.9808    1.4322 O   0  0  0  0  0  0  0  0  0  0  0  0
   -2.4944    1.8081    0.7217 H   0  0  0  0  0  0  0  0  0  0  0  0
   -0.7270    2.1402    0.4173 H   0  0  0  0  0  0  0  0  0  0  0  0
   -1.2897    0.9408    1.7124 H   0  0  0  0  0  0  0  0  0  0  0  0
   -1.2679    0.5646   -1.2870 H   0  0  0  0  0  0  0  0  0  0  0  0
   -3.0794   -0.5440   -1.0800 H   0  0  0  0  0  0  0  0  0  0  0  0
   -0.4652   -1.0630    1.1860 H   0  0  0  0  0  0  0  0  0  0  0  0
    0.9432   -2.3016   -0.4838 H   0  0  0  0  0  0  0  0  0  0  0  0
   -0.1101   -1.6581   -1.7916 H   0  0  0  0  0  0  0  0  0  0  0  0
   -0.8000   -2.6852   -0.4412 H   0  0  0  0  0  0  0  0  0  0  0  0
    1.1900    0.3118   -1.8890 H   0  0  0  0  0  0  0  0  0  0  0  0
    2.6253    0.9060   -0.9776 H   0  0  0  0  0  0  0  0  0  0  0  0
    1.1638    1.9199   -1.0571 H   0  0  0  0  0  0  0  0  0  0  0  0
    1.7201   -0.9961    1.9606 H   0  0  0  0  0  0  0  0  0  0  0  0
    2.9797    0.2505    1.2537 H   0  0  0  0  0  0  0  0  0  0  0  0
  1  2  1  0
  2  3  1  0
  2  4  1  0
  4  5  1  0
  4  6  1  0
  6  7  1  0
  6  8  1  0
  8  9  1  0
  9  6  1  0
  1 10  1  0
  1 11  1  0
  1 12  1  0
  2 13  1  0
  3 14  1  0
  4 15  1  0
  5 16  1  0
  5 17  1  0
  5 18  1  0
  7 19  1  0
  7 20  1  0
  7 21  1  0
  8 22  1  0
  8 23  1  0
M  END
