
     RDKit          3D

 18 18  0  0  0  0  0  0  0  0999 V2000
   -2.0115   -0.6174   -0.1133 C   0  0  0  0  0  0  0  0  0  0  0  0
   -1.1032    0.5815   -0.3329 C   0  0  0  0  0  0  0  0  0  0  0  0
   -1.6307    1.6340    0.3773 O   0  0  0  0  0  0  0  0  0  0  0  0
    0.2679    0.1672    0.1590 C   0  0  0  0  0  0  0  0  0  0  0  0
    0.8283   -1.0535   -0.6001 C   0  0  0  0  0  0  0  0  0  0  0  0
    1.4609    0.3133   -0.7056 C   0  0  0  0  0  0  0  0  0  0  0  0
    2.7604    0.5593   -0.0300 C   0  0  0  0  0  0  0  0  0  0  0  0
    2.9968    0.0592    1.0514 O   0  0  0  0  0  0  0  0  0  0  0  0
   -2.9877   -0.3084    0.3319 H   0  0  0  0  0  0  0  0  0  0  0  0
   -2.1838   -1.1339   -1.0886 H   0  0  0  0  0  0  0  0  0  0  0  0
   -1.5654   -1.3579    0.5760 H   0  0  0  0  0  0  0  0  0  0  0  0
   -1.0440    0.8750   -1.3929 H   0  0  0  0  0  0  0  0  0  0  0  0
   -2.5437    1.4531    0.7324 H   0  0  0  0  0  0  0  0  0  0  0  0
    0.3537    0.1244    1.2496 H   0  0  0  0  0  0  0  0  0  0  0  0
    1.3226   -1.8355    0.0037 H   0  0  0  0  0  0  0  0  0  0  0  0
    0.2521   -1.4413   -1.4614 H   0  0  0  0  0  0  0  0  0  0  0  0
    1.3058    0.7989   -1.6918 H   0  0  0  0  0  0  0  0  0  0  0  0
    3.5216    1.1820   -0.4758 H   0  0  0  0  0  0  0  0  0  0  0  0
  1  2  1  0
  2  3  1  0
  2  4  1  0
  4  5  1  0
  5  6  1  0
  6  7  1  0
  7  8  2  0
  6  4  1  0
  1  9  1  0
  1 10  1  0
  1 11  1  0
  2 12  1  0
  3 13  1  0
  4 14  1  0
  5 15  1  0
  5 16  1  0
  6 17  1  0
  7 18  1  0
M  END
