
     RDKit          3D

 21 22  0  0  0  0  0  0  0  0999 V2000
   -1.5750    1.1535   -0.3581 C   0  0  0  0  0  0  0  0  0  0  0  0
   -1.5077   -0.1836    0.2806 C   0  0  0  0  0  0  0  0  0  0  0  0
   -2.2204   -1.1021   -0.4952 O   0  0  0  0  0  0  0  0  0  0  0  0
   -0.1121   -0.7191    0.4414 C   0  0  0  0  0  0  0  0  0  0  0  0
    0.7792    0.1284    1.2734 C   0  0  0  0  0  0  0  0  0  0  0  0
    1.7714    0.7950    0.3482 C   0  0  0  0  0  0  0  0  0  0  0  0
    2.8014   -0.1910   -0.0505 O   0  0  0  0  0  0  0  0  0  0  0  0
    1.6496    0.2544   -0.9004 C   0  0  0  0  0  0  0  0  0  0  0  0
    0.5875   -0.8081   -0.8889 C   0  0  0  0  0  0  0  0  0  0  0  0
   -2.0026    1.8764    0.3876 H   0  0  0  0  0  0  0  0  0  0  0  0
   -0.6200    1.5184   -0.7803 H   0  0  0  0  0  0  0  0  0  0  0  0
   -2.3096    1.1535   -1.2008 H   0  0  0  0  0  0  0  0  0  0  0  0
   -1.9874   -0.1975    1.2858 H   0  0  0  0  0  0  0  0  0  0  0  0
   -2.0582   -2.0346   -0.2140 H   0  0  0  0  0  0  0  0  0  0  0  0
   -0.1333   -1.7380    0.8691 H   0  0  0  0  0  0  0  0  0  0  0  0
    1.3743   -0.4953    1.9948 H   0  0  0  0  0  0  0  0  0  0  0  0
    0.2443    0.8696    1.9106 H   0  0  0  0  0  0  0  0  0  0  0  0
    2.2641    1.6752    0.7551 H   0  0  0  0  0  0  0  0  0  0  0  0
    2.0469    0.5153   -1.8778 H   0  0  0  0  0  0  0  0  0  0  0  0
    1.1019   -1.8017   -1.0282 H   0  0  0  0  0  0  0  0  0  0  0  0
   -0.0943   -0.6687   -1.7524 H   0  0  0  0  0  0  0  0  0  0  0  0
  1  2  1  0
  2  3  1  0
  2  4  1  0
  4  5  1  0
  5  6  1  0
  6  7  1  0
  7  8  1  0
  8  9  1  0
  9  4  1  0
  8  6  1  0
  1 10  1  0
  1 11  1  0
  1 12  1  0
  2 13  1  0
  3 14  1  0
  4 15  1  0
  5 16  1  0
  5 17  1  0
  6 18  1  0
  8 19  1  0
  9 20  1  0
  9 21  1  0
M  END
