
     RDKit          3D

 21 21  0  0  0  0  0  0  0  0999 V2000
   -2.5152    0.5231   -0.1581 C   0  0  0  0  0  0  0  0  0  0  0  0
   -1.4740   -0.4704    0.3436 C   0  0  0  0  0  0  0  0  0  0  0  0
   -2.0745   -1.6937    0.5128 O   0  0  0  0  0  0  0  0  0  0  0  0
   -0.3349   -0.4850   -0.6509 C   0  0  0  0  0  0  0  0  0  0  0  0
    0.7125   -1.3252   -0.3483 O   0  0  0  0  0  0  0  0  0  0  0  0
    1.2748   -0.3652    0.4503 C   0  0  0  0  0  0  0  0  0  0  0  0
    2.7692   -0.2107    0.3704 C   0  0  0  0  0  0  0  0  0  0  0  0
    0.5927    0.6945   -0.3736 C   0  0  0  0  0  0  0  0  0  0  0  0
    1.2722    1.0768   -1.5244 O   0  0  0  0  0  0  0  0  0  0  0  0
   -3.5243    0.0304   -0.2416 H   0  0  0  0  0  0  0  0  0  0  0  0
   -2.5906    1.4070    0.5342 H   0  0  0  0  0  0  0  0  0  0  0  0
   -2.2688    0.9117   -1.1645 H   0  0  0  0  0  0  0  0  0  0  0  0
   -1.1285   -0.1110    1.3347 H   0  0  0  0  0  0  0  0  0  0  0  0
   -1.8482   -2.1413    1.3623 H   0  0  0  0  0  0  0  0  0  0  0  0
   -0.6351   -0.4802   -1.7110 H   0  0  0  0  0  0  0  0  0  0  0  0
    0.8836   -0.4216    1.4741 H   0  0  0  0  0  0  0  0  0  0  0  0
    3.0923    0.6861   -0.1881 H   0  0  0  0  0  0  0  0  0  0  0  0
    3.1599   -0.0986    1.4010 H   0  0  0  0  0  0  0  0  0  0  0  0
    3.2750   -1.1002   -0.0577 H   0  0  0  0  0  0  0  0  0  0  0  0
    0.0980    1.5059    0.1873 H   0  0  0  0  0  0  0  0  0  0  0  0
    1.2638    2.0677   -1.5525 H   0  0  0  0  0  0  0  0  0  0  0  0
  1  2  1  0
  2  3  1  0
  2  4  1  0
  4  5  1  0
  5  6  1  0
  6  7  1  0
  6  8  1  0
  8  9  1  0
  8  4  1  0
  1 10  1  0
  1 11  1  0
  1 12  1  0
  2 13  1  0
  3 14  1  0
  4 15  1  0
  6 16  1  0
  7 17  1  0
  7 18  1  0
  7 19  1  0
  8 20  1  0
  9 21  1  0
M  END
