
     RDKit          3D

 19 19  0  0  0  0  0  0  0  0999 V2000
   -1.9130   -0.8883    0.3948 C   0  0  0  0  0  0  0  0  0  0  0  0
   -1.0095   -0.1492   -0.5386 C   0  0  0  0  0  0  0  0  0  0  0  0
   -1.8148    0.7315   -1.2879 O   0  0  0  0  0  0  0  0  0  0  0  0
    0.0354    0.6825    0.1467 C   0  0  0  0  0  0  0  0  0  0  0  0
    0.9467    1.4280   -0.8052 C   0  0  0  0  0  0  0  0  0  0  0  0
    1.4676    0.3798    0.0780 C   0  0  0  0  0  0  0  0  0  0  0  0
    1.9752   -0.9372   -0.4500 C   0  0  0  0  0  0  0  0  0  0  0  0
   -2.7576   -1.2846   -0.2442 H   0  0  0  0  0  0  0  0  0  0  0  0
   -1.4076   -1.7419    0.8989 H   0  0  0  0  0  0  0  0  0  0  0  0
   -2.4181   -0.2202    1.1338 H   0  0  0  0  0  0  0  0  0  0  0  0
   -0.6065   -0.8777   -1.2593 H   0  0  0  0  0  0  0  0  0  0  0  0
   -2.6273    0.9795   -0.7619 H   0  0  0  0  0  0  0  0  0  0  0  0
   -0.3507    1.2254    1.0405 H   0  0  0  0  0  0  0  0  0  0  0  0
    1.1807    2.5049   -0.5662 H   0  0  0  0  0  0  0  0  0  0  0  0
    0.8214    1.2824   -1.8957 H   0  0  0  0  0  0  0  0  0  0  0  0
    2.0883    0.7522    0.9463 H   0  0  0  0  0  0  0  0  0  0  0  0
    1.9852   -1.6472    0.4187 H   0  0  0  0  0  0  0  0  0  0  0  0
    3.0258   -0.8748   -0.8106 H   0  0  0  0  0  0  0  0  0  0  0  0
    1.3790   -1.3452   -1.2653 H   0  0  0  0  0  0  0  0  0  0  0  0
  1  2  1  0
  2  3  1  0
  2  4  1  0
  4  5  1  0
  5  6  1  0
  6  7  1  0
  6  4  1  0
  1  8  1  0
  1  9  1  0
  1 10  1  0
  2 11  1  0
  3 12  1  0
  4 13  1  0
  5 14  1  0
  5 15  1  0
  6 16  1  0
  7 17  1  0
  7 18  1  0
  7 19  1  0
M  END
