
     RDKit          3D

 19 19  0  0  0  0  0  0  0  0999 V2000
   -2.0497   -0.6055    0.1848 C   0  0  0  0  0  0  0  0  0  0  0  0
   -1.1187    0.5850    0.3945 C   0  0  0  0  0  0  0  0  0  0  0  0
   -1.1204    1.2920   -0.8135 O   0  0  0  0  0  0  0  0  0  0  0  0
    0.2539    0.0470    0.6124 C   0  0  0  0  0  0  0  0  0  0  0  0
    1.3334    1.0252    0.8395 C   0  0  0  0  0  0  0  0  0  0  0  0
    1.4252    2.1140    1.3207 O   0  0  0  0  0  0  0  0  0  0  0  0
    2.2276    0.0375    0.2020 C   0  0  0  0  0  0  0  0  0  0  0  0
    1.0139   -0.2985   -0.6748 C   0  0  0  0  0  0  0  0  0  0  0  0
    0.9279   -1.6009   -1.0696 O   0  0  0  0  0  0  0  0  0  0  0  0
   -3.0331   -0.3903    0.6506 H   0  0  0  0  0  0  0  0  0  0  0  0
   -1.6486   -1.5122    0.6948 H   0  0  0  0  0  0  0  0  0  0  0  0
   -2.1546   -0.8634   -0.8823 H   0  0  0  0  0  0  0  0  0  0  0  0
   -1.4577    1.1883    1.2394 H   0  0  0  0  0  0  0  0  0  0  0  0
   -2.0540    1.2747   -1.1447 H   0  0  0  0  0  0  0  0  0  0  0  0
    0.3569   -0.8049    1.3080 H   0  0  0  0  0  0  0  0  0  0  0  0
    3.0911    0.4156   -0.3434 H   0  0  0  0  0  0  0  0  0  0  0  0
    2.4470   -0.7720    0.9504 H   0  0  0  0  0  0  0  0  0  0  0  0
    0.9275    0.4852   -1.4530 H   0  0  0  0  0  0  0  0  0  0  0  0
    0.6324   -1.6168   -2.0157 H   0  0  0  0  0  0  0  0  0  0  0  0
  1  2  1  0
  2  3  1  0
  2  4  1  0
  4  5  1  0
  5  6  2  0
  5  7  1  0
  7  8  1  0
  8  9  1  0
  8  4  1  0
  1 10  1  0
  1 11  1  0
  1 12  1  0
  2 13  1  0
  3 14  1  0
  4 15  1  0
  7 16  1  0
  7 17  1  0
  8 18  1  0
  9 19  1  0
M  END
