
     RDKit          3D

 21 21  0  0  0  0  0  0  0  0999 V2000
   -2.1010   -0.4712   -0.0440 C   0  0  0  0  0  0  0  0  0  0  0  0
   -0.8619   -0.3212   -0.8901 C   0  0  0  0  0  0  0  0  0  0  0  0
   -0.4938   -1.5232   -1.4506 O   0  0  0  0  0  0  0  0  0  0  0  0
    0.2166    0.4738   -0.2570 C   0  0  0  0  0  0  0  0  0  0  0  0
   -0.2313    1.9132    0.0601 C   0  0  0  0  0  0  0  0  0  0  0  0
    1.5394    0.4103   -1.0343 C   0  0  0  0  0  0  0  0  0  0  0  0
    1.4085   -0.0040    0.4150 C   0  0  0  0  0  0  0  0  0  0  0  0
    1.7182   -1.3782    0.8000 C   0  0  0  0  0  0  0  0  0  0  0  0
    1.3056   -2.3464    0.2002 O   0  0  0  0  0  0  0  0  0  0  0  0
   -2.0491   -1.4187    0.5575 H   0  0  0  0  0  0  0  0  0  0  0  0
   -2.9849   -0.5861   -0.7051 H   0  0  0  0  0  0  0  0  0  0  0  0
   -2.2880    0.3944    0.6032 H   0  0  0  0  0  0  0  0  0  0  0  0
   -1.2140    0.3083   -1.7737 H   0  0  0  0  0  0  0  0  0  0  0  0
   -1.0809   -2.2728   -1.2134 H   0  0  0  0  0  0  0  0  0  0  0  0
   -0.6651    2.3275   -0.8544 H   0  0  0  0  0  0  0  0  0  0  0  0
   -0.8677    1.9450    0.9455 H   0  0  0  0  0  0  0  0  0  0  0  0
    0.6995    2.4644    0.2790 H   0  0  0  0  0  0  0  0  0  0  0  0
    2.0214    1.3460   -1.3147 H   0  0  0  0  0  0  0  0  0  0  0  0
    1.6770   -0.4052   -1.7668 H   0  0  0  0  0  0  0  0  0  0  0  0
    1.8997    0.7652    1.0978 H   0  0  0  0  0  0  0  0  0  0  0  0
    2.3518   -1.6212    1.6675 H   0  0  0  0  0  0  0  0  0  0  0  0
  1  2  1  0
  2  3  1  0
  2  4  1  0
  4  5  1  0
  4  6  1  0
  6  7  1  0
  7  8  1  0
  8  9  2  0
  7  4  1  0
  1 10  1  0
  1 11  1  0
  1 12  1  0
  2 13  1  0
  3 14  1  0
  5 15  1  0
  5 16  1  0
  5 17  1  0
  6 18  1  0
  6 19  1  0
  7 20  1  0
  8 21  1  0
M  END
