
     RDKit          3D

 18 18  0  0  0  0  0  0  0  0999 V2000
   -2.4287    0.5286    0.4123 C   0  0  0  0  0  0  0  0  0  0  0  0
   -1.3617   -0.5031    0.4367 C   0  0  0  0  0  0  0  0  0  0  0  0
   -1.8498   -1.6616   -0.2008 O   0  0  0  0  0  0  0  0  0  0  0  0
   -0.1122   -0.1059   -0.3126 C   0  0  0  0  0  0  0  0  0  0  0  0
    0.8251   -1.2587   -0.1988 O   0  0  0  0  0  0  0  0  0  0  0  0
    1.1414    0.0628    0.2817 C   0  0  0  0  0  0  0  0  0  0  0  0
    2.2882    0.6500   -0.4994 C   0  0  0  0  0  0  0  0  0  0  0  0
    3.4389   -0.1594   -0.3697 O   0  0  0  0  0  0  0  0  0  0  0  0
   -2.4089    1.2027   -0.4595 H   0  0  0  0  0  0  0  0  0  0  0  0
   -3.4242    0.0080    0.3731 H   0  0  0  0  0  0  0  0  0  0  0  0
   -2.4584    1.1023    1.3849 H   0  0  0  0  0  0  0  0  0  0  0  0
   -1.0564   -0.7196    1.4820 H   0  0  0  0  0  0  0  0  0  0  0  0
   -1.9809   -1.3828   -1.1539 H   0  0  0  0  0  0  0  0  0  0  0  0
   -0.2919    0.0998   -1.3873 H   0  0  0  0  0  0  0  0  0  0  0  0
    1.3067    0.0424    1.3678 H   0  0  0  0  0  0  0  0  0  0  0  0
    2.0850    0.7176   -1.5807 H   0  0  0  0  0  0  0  0  0  0  0  0
    2.5816    1.6496   -0.1415 H   0  0  0  0  0  0  0  0  0  0  0  0
    3.7061   -0.2727    0.5658 H   0  0  0  0  0  0  0  0  0  0  0  0
  1  2  1  0
  2  3  1  0
  2  4  1  0
  4  5  1  0
  5  6  1  0
  6  7  1  0
  7  8  1  0
  6  4  1  0
  1  9  1  0
  1 10  1  0
  1 11  1  0
  2 12  1  0
  3 13  1  0
  4 14  1  0
  6 15  1  0
  7 16  1  0
  7 17  1  0
  8 18  1  0
M  END
