
     RDKit          3D

 21 23  0  0  0  0  0  0  0  0999 V2000
   -2.4303    0.8561   -0.0253 C   0  0  0  0  0  0  0  0  0  0  0  0
   -1.7851   -0.5278   -0.0900 C   0  0  0  0  0  0  0  0  0  0  0  0
   -2.6299   -1.4551    0.4700 O   0  0  0  0  0  0  0  0  0  0  0  0
   -0.4762   -0.3840    0.6951 C   0  0  0  0  0  0  0  0  0  0  0  0
    0.4046    0.6239    0.1106 C   0  0  0  0  0  0  0  0  0  0  0  0
    1.6321    0.4106   -0.7835 C   0  0  0  0  0  0  0  0  0  0  0  0
    2.8790    0.7537   -0.1473 C   0  0  0  0  0  0  0  0  0  0  0  0
    2.1651   -0.4206    0.4124 C   0  0  0  0  0  0  0  0  0  0  0  0
    0.7655   -0.8726    0.2596 C   0  0  0  0  0  0  0  0  0  0  0  0
   -2.3759    1.1472    1.0607 H   0  0  0  0  0  0  0  0  0  0  0  0
   -1.8415    1.5892   -0.6117 H   0  0  0  0  0  0  0  0  0  0  0  0
   -3.4946    0.8344   -0.2914 H   0  0  0  0  0  0  0  0  0  0  0  0
   -1.5695   -0.7152   -1.1611 H   0  0  0  0  0  0  0  0  0  0  0  0
   -2.7837   -2.2311   -0.1544 H   0  0  0  0  0  0  0  0  0  0  0  0
   -0.6980   -0.4747    1.8006 H   0  0  0  0  0  0  0  0  0  0  0  0
    0.5885    1.3853    0.8617 H   0  0  0  0  0  0  0  0  0  0  0  0
    1.5189   -0.2107   -1.6785 H   0  0  0  0  0  0  0  0  0  0  0  0
    3.7860    0.7402   -0.7412 H   0  0  0  0  0  0  0  0  0  0  0  0
    2.8517    1.6534    0.5402 H   0  0  0  0  0  0  0  0  0  0  0  0
    2.8513   -1.3065    0.2313 H   0  0  0  0  0  0  0  0  0  0  0  0
    0.6419   -1.3959   -0.7578 H   0  0  0  0  0  0  0  0  0  0  0  0
  1  2  1  0
  2  3  1  0
  2  4  1  0
  4  5  1  0
  5  6  1  0
  6  7  1  0
  7  8  1  0
  8  9  1  0
  9  4  1  0
  9  5  1  0
  8  6  1  0
  1 10  1  0
  1 11  1  0
  1 12  1  0
  2 13  1  0
  3 14  1  0
  4 15  1  0
  5 16  1  0
  6 17  1  0
  7 18  1  0
  7 19  1  0
  8 20  1  0
  9 21  1  0
M  END
