
     RDKit          3D

 21 21  0  0  0  0  0  0  0  0999 V2000
    2.5004    0.0195   -0.1341 C   0  0  0  0  0  0  0  0  0  0  0  0
    1.2266   -0.6044    0.3557 C   0  0  0  0  0  0  0  0  0  0  0  0
    1.1105   -1.9071   -0.1283 O   0  0  0  0  0  0  0  0  0  0  0  0
   -0.0018    0.1461   -0.0876 C   0  0  0  0  0  0  0  0  0  0  0  0
   -0.1832    0.2156   -1.4570 O   0  0  0  0  0  0  0  0  0  0  0  0
   -1.1912   -0.0755    0.8188 C   0  0  0  0  0  0  0  0  0  0  0  0
   -2.4570   -0.4155    0.0841 C   0  0  0  0  0  0  0  0  0  0  0  0
   -0.5577    1.2559    0.7106 C   0  0  0  0  0  0  0  0  0  0  0  0
   -1.3147    2.2378    0.0791 O   0  0  0  0  0  0  0  0  0  0  0  0
    2.9876   -0.5909   -0.9156 H   0  0  0  0  0  0  0  0  0  0  0  0
    2.3410    1.0369   -0.5818 H   0  0  0  0  0  0  0  0  0  0  0  0
    3.2267    0.0890    0.7251 H   0  0  0  0  0  0  0  0  0  0  0  0
    1.2535   -0.7020    1.4763 H   0  0  0  0  0  0  0  0  0  0  0  0
    1.4966   -1.9122   -1.0385 H   0  0  0  0  0  0  0  0  0  0  0  0
    0.4767   -0.2737   -1.9711 H   0  0  0  0  0  0  0  0  0  0  0  0
   -1.0654   -0.5957    1.7732 H   0  0  0  0  0  0  0  0  0  0  0  0
   -2.2415   -0.9978   -0.8364 H   0  0  0  0  0  0  0  0  0  0  0  0
   -3.0215    0.4853   -0.2472 H   0  0  0  0  0  0  0  0  0  0  0  0
   -3.1413   -1.0529    0.7013 H   0  0  0  0  0  0  0  0  0  0  0  0
    0.0673    1.6312    1.5315 H   0  0  0  0  0  0  0  0  0  0  0  0
   -1.5117    2.0103   -0.8581 H   0  0  0  0  0  0  0  0  0  0  0  0
  1  2  1  0
  2  3  1  0
  2  4  1  0
  4  5  1  0
  4  6  1  0
  6  7  1  0
  6  8  1  0
  8  9  1  0
  8  4  1  0
  1 10  1  0
  1 11  1  0
  1 12  1  0
  2 13  1  0
  3 14  1  0
  5 15  1  0
  6 16  1  0
  7 17  1  0
  7 18  1  0
  7 19  1  0
  8 20  1  0
  9 21  1  0
M  END
