
     RDKit          3D

 19 20  0  0  0  0  0  0  0  0999 V2000
   -2.2725    1.0025    0.3073 C   0  0  0  0  0  0  0  0  0  0  0  0
   -1.5753   -0.1816   -0.3301 C   0  0  0  0  0  0  0  0  0  0  0  0
   -2.1750   -1.3763    0.0737 O   0  0  0  0  0  0  0  0  0  0  0  0
   -0.1605   -0.1959    0.1518 C   0  0  0  0  0  0  0  0  0  0  0  0
    0.5640    0.9299   -0.1753 O   0  0  0  0  0  0  0  0  0  0  0  0
    1.8240    0.5988    0.3736 C   0  0  0  0  0  0  0  0  0  0  0  0
    2.8300   -0.0832   -0.4729 C   0  0  0  0  0  0  0  0  0  0  0  0
    1.8478   -0.9521    0.1843 C   0  0  0  0  0  0  0  0  0  0  0  0
    0.6060   -1.2085   -0.4093 O   0  0  0  0  0  0  0  0  0  0  0  0
   -1.5923    1.8963    0.2281 H   0  0  0  0  0  0  0  0  0  0  0  0
   -3.2511    1.2132   -0.1705 H   0  0  0  0  0  0  0  0  0  0  0  0
   -2.3663    0.7666    1.3919 H   0  0  0  0  0  0  0  0  0  0  0  0
   -1.6778   -0.1225   -1.4313 H   0  0  0  0  0  0  0  0  0  0  0  0
   -3.1449   -1.2755    0.2451 H   0  0  0  0  0  0  0  0  0  0  0  0
   -0.1638   -0.3168    1.2390 H   0  0  0  0  0  0  0  0  0  0  0  0
    2.0326    0.9085    1.4099 H   0  0  0  0  0  0  0  0  0  0  0  0
    2.7138    0.0480   -1.5829 H   0  0  0  0  0  0  0  0  0  0  0  0
    3.8526   -0.0996   -0.0945 H   0  0  0  0  0  0  0  0  0  0  0  0
    2.1086   -1.5517    1.0561 H   0  0  0  0  0  0  0  0  0  0  0  0
  1  2  1  0
  2  3  1  0
  2  4  1  0
  4  5  1  0
  5  6  1  0
  6  7  1  0
  7  8  1  0
  8  9  1  0
  9  4  1  0
  8  6  1  0
  1 10  1  0
  1 11  1  0
  1 12  1  0
  2 13  1  0
  3 14  1  0
  4 15  1  0
  6 16  1  0
  7 17  1  0
  7 18  1  0
  8 19  1  0
M  END
