
     RDKit          3D

 23 24  0  0  0  0  0  0  0  0999 V2000
    2.6964   -0.2232   -0.0423 C   0  0  0  0  0  0  0  0  0  0  0  0
    1.5053    0.6647   -0.1129 C   0  0  0  0  0  0  0  0  0  0  0  0
    1.3133    1.0658   -1.4247 O   0  0  0  0  0  0  0  0  0  0  0  0
    0.2371    0.0200    0.3812 C   0  0  0  0  0  0  0  0  0  0  0  0
   -0.1311   -1.2154   -0.4084 C   0  0  0  0  0  0  0  0  0  0  0  0
   -1.5847   -1.4172    0.0248 C   0  0  0  0  0  0  0  0  0  0  0  0
   -2.1235   -0.0193   -0.0866 C   0  0  0  0  0  0  0  0  0  0  0  0
   -2.1046    0.9176    1.0519 C   0  0  0  0  0  0  0  0  0  0  0  0
   -0.9577    0.9114    0.1290 C   0  0  0  0  0  0  0  0  0  0  0  0
    3.5940    0.3853   -0.2790 H   0  0  0  0  0  0  0  0  0  0  0  0
    2.8697   -0.6428    0.9705 H   0  0  0  0  0  0  0  0  0  0  0  0
    2.6858   -1.0701   -0.7441 H   0  0  0  0  0  0  0  0  0  0  0  0
    1.7085    1.5683    0.4944 H   0  0  0  0  0  0  0  0  0  0  0  0
    1.6218    1.9858   -1.5592 H   0  0  0  0  0  0  0  0  0  0  0  0
    0.3176   -0.2860    1.4417 H   0  0  0  0  0  0  0  0  0  0  0  0
   -0.1899   -0.9792   -1.5016 H   0  0  0  0  0  0  0  0  0  0  0  0
    0.4936   -2.0845   -0.1859 H   0  0  0  0  0  0  0  0  0  0  0  0
   -2.0544   -2.0787   -0.7164 H   0  0  0  0  0  0  0  0  0  0  0  0
   -1.6456   -1.8204    1.0557 H   0  0  0  0  0  0  0  0  0  0  0  0
   -2.7538    0.2062   -0.9533 H   0  0  0  0  0  0  0  0  0  0  0  0
   -1.8909    0.5722    2.0932 H   0  0  0  0  0  0  0  0  0  0  0  0
   -2.7852    1.7969    0.9630 H   0  0  0  0  0  0  0  0  0  0  0  0
   -0.8217    1.7427   -0.5910 H   0  0  0  0  0  0  0  0  0  0  0  0
  1  2  1  0
  2  3  1  0
  2  4  1  0
  4  5  1  0
  5  6  1  0
  6  7  1  0
  7  8  1  0
  8  9  1  0
  9  4  1  0
  9  7  1  0
  1 10  1  0
  1 11  1  0
  1 12  1  0
  2 13  1  0
  3 14  1  0
  4 15  1  0
  5 16  1  0
  5 17  1  0
  6 18  1  0
  6 19  1  0
  7 20  1  0
  8 21  1  0
  8 22  1  0
  9 23  1  0
M  END
