
     RDKit          3D

 23 23  0  0  0  0  0  0  0  0999 V2000
    2.8351    0.2227    0.3282 C   0  0  0  0  0  0  0  0  0  0  0  0
    1.8982   -0.3696   -0.6443 C   0  0  0  0  0  0  0  0  0  0  0  0
    2.4616   -1.5281   -1.1805 O   0  0  0  0  0  0  0  0  0  0  0  0
    0.5293   -0.6700   -0.1239 C   0  0  0  0  0  0  0  0  0  0  0  0
   -0.2195    0.5220    0.3917 C   0  0  0  0  0  0  0  0  0  0  0  0
   -0.3956    1.4799   -0.6046 O   0  0  0  0  0  0  0  0  0  0  0  0
   -1.6098    0.0252    0.7924 C   0  0  0  0  0  0  0  0  0  0  0  0
   -2.4687   -0.5921   -0.2345 C   0  0  0  0  0  0  0  0  0  0  0  0
   -2.8121    0.7688    0.4004 C   0  0  0  0  0  0  0  0  0  0  0  0
    2.9985    1.3076    0.1305 H   0  0  0  0  0  0  0  0  0  0  0  0
    2.5402    0.1466    1.3893 H   0  0  0  0  0  0  0  0  0  0  0  0
    3.8447   -0.2570    0.2604 H   0  0  0  0  0  0  0  0  0  0  0  0
    1.8024    0.3405   -1.5179 H   0  0  0  0  0  0  0  0  0  0  0  0
    1.7308   -2.1774   -1.4155 H   0  0  0  0  0  0  0  0  0  0  0  0
   -0.0629   -1.1093   -0.9536 H   0  0  0  0  0  0  0  0  0  0  0  0
    0.6281   -1.4616    0.6466 H   0  0  0  0  0  0  0  0  0  0  0  0
    0.2182    1.0030    1.2594 H   0  0  0  0  0  0  0  0  0  0  0  0
   -0.6149    2.3673   -0.2324 H   0  0  0  0  0  0  0  0  0  0  0  0
   -1.6075   -0.5025    1.7806 H   0  0  0  0  0  0  0  0  0  0  0  0
   -2.2068   -0.5414   -1.3204 H   0  0  0  0  0  0  0  0  0  0  0  0
   -3.1613   -1.4247   -0.0134 H   0  0  0  0  0  0  0  0  0  0  0  0
   -3.6445    0.7796    1.1246 H   0  0  0  0  0  0  0  0  0  0  0  0
   -2.6837    1.6706   -0.2631 H   0  0  0  0  0  0  0  0  0  0  0  0
  1  2  1  0
  2  3  1  0
  2  4  1  0
  4  5  1  0
  5  6  1  0
  5  7  1  0
  7  8  1  0
  8  9  1  0
  9  7  1  0
  1 10  1  0
  1 11  1  0
  1 12  1  0
  2 13  1  0
  3 14  1  0
  4 15  1  0
  4 16  1  0
  5 17  1  0
  6 18  1  0
  7 19  1  0
  8 20  1  0
  8 21  1  0
  9 22  1  0
  9 23  1  0
M  END
