
     RDKit          3D

 21 20  0  0  0  0  0  0  0  0999 V2000
    3.0612    0.3825   -0.2065 C   0  0  0  0  0  0  0  0  0  0  0  0
    2.1384    0.1335    0.9904 C   0  0  0  0  0  0  0  0  0  0  0  0
    1.8819    1.3021    1.6735 O   0  0  0  0  0  0  0  0  0  0  0  0
    0.8856   -0.4878    0.5204 C   0  0  0  0  0  0  0  0  0  0  0  0
   -0.1241   -1.0104    0.1306 C   0  0  0  0  0  0  0  0  0  0  0  0
   -1.3335   -1.6456   -0.3624 C   0  0  0  0  0  0  0  0  0  0  0  0
   -2.4564   -0.6353   -0.3146 C   0  0  0  0  0  0  0  0  0  0  0  0
   -2.1902    0.5734   -1.1484 C   0  0  0  0  0  0  0  0  0  0  0  0
   -1.0261    1.1780   -0.6647 O   0  0  0  0  0  0  0  0  0  0  0  0
    3.2312   -0.5852   -0.7022 H   0  0  0  0  0  0  0  0  0  0  0  0
    3.9877    0.8306    0.1825 H   0  0  0  0  0  0  0  0  0  0  0  0
    2.5541    1.1143   -0.8952 H   0  0  0  0  0  0  0  0  0  0  0  0
    2.7011   -0.5457    1.6649 H   0  0  0  0  0  0  0  0  0  0  0  0
    1.9923    2.0997    1.0650 H   0  0  0  0  0  0  0  0  0  0  0  0
   -1.6293   -2.5447    0.2050 H   0  0  0  0  0  0  0  0  0  0  0  0
   -1.1949   -1.8963   -1.4545 H   0  0  0  0  0  0  0  0  0  0  0  0
   -3.4194   -1.0808   -0.6701 H   0  0  0  0  0  0  0  0  0  0  0  0
   -2.6560   -0.3002    0.7295 H   0  0  0  0  0  0  0  0  0  0  0  0
   -3.0186    1.2912   -0.9779 H   0  0  0  0  0  0  0  0  0  0  0  0
   -2.1384    0.3642   -2.2286 H   0  0  0  0  0  0  0  0  0  0  0  0
   -1.2466    1.4627    0.2731 H   0  0  0  0  0  0  0  0  0  0  0  0
  1  2  1  0
  2  3  1  0
  2  4  1  0
  4  5  3  0
  5  6  1  0
  6  7  1  0
  7  8  1  0
  8  9  1  0
  1 10  1  0
  1 11  1  0
  1 12  1  0
  2 13  1  0
  3 14  1  0
  6 15  1  0
  6 16  1  0
  7 17  1  0
  7 18  1  0
  8 19  1  0
  8 20  1  0
  9 21  1  0
M  END
