
     RDKit          3D

 21 21  0  0  0  0  0  0  0  0999 V2000
    0.6989    0.8032   -1.8176 C   0  0  0  0  0  0  0  0  0  0  0  0
    0.3147    0.3544   -0.3975 C   0  0  0  0  0  0  0  0  0  0  0  0
    0.8315    1.3359    0.4462 O   0  0  0  0  0  0  0  0  0  0  0  0
   -1.1713    0.4259   -0.3222 C   0  0  0  0  0  0  0  0  0  0  0  0
   -1.7490    0.0220    1.0009 C   0  0  0  0  0  0  0  0  0  0  0  0
   -1.4359   -1.2853    1.3496 O   0  0  0  0  0  0  0  0  0  0  0  0
    0.9087   -0.9634   -0.0636 C   0  0  0  0  0  0  0  0  0  0  0  0
    1.8378   -0.9764    1.1317 C   0  0  0  0  0  0  0  0  0  0  0  0
    2.2911   -1.1511   -0.1477 O   0  0  0  0  0  0  0  0  0  0  0  0
    1.7105    1.2618   -1.8054 H   0  0  0  0  0  0  0  0  0  0  0  0
    0.7347   -0.0567   -2.5109 H   0  0  0  0  0  0  0  0  0  0  0  0
   -0.0407    1.5642   -2.1760 H   0  0  0  0  0  0  0  0  0  0  0  0
    0.3501    2.1760    0.2960 H   0  0  0  0  0  0  0  0  0  0  0  0
   -1.4638    1.4866   -0.4968 H   0  0  0  0  0  0  0  0  0  0  0  0
   -1.6274   -0.1778   -1.1233 H   0  0  0  0  0  0  0  0  0  0  0  0
   -2.8712    0.0199    0.8569 H   0  0  0  0  0  0  0  0  0  0  0  0
   -1.5656    0.7466    1.8094 H   0  0  0  0  0  0  0  0  0  0  0  0
   -1.9140   -1.8808    0.7336 H   0  0  0  0  0  0  0  0  0  0  0  0
    0.3521   -1.9073   -0.2322 H   0  0  0  0  0  0  0  0  0  0  0  0
    2.0807   -0.0014    1.6279 H   0  0  0  0  0  0  0  0  0  0  0  0
    1.7283   -1.7963    1.8409 H   0  0  0  0  0  0  0  0  0  0  0  0
  1  2  1  0
  2  3  1  0
  2  4  1  0
  4  5  1  0
  5  6  1  0
  2  7  1  0
  7  8  1  0
  8  9  1  0
  9  7  1  0
  1 10  1  0
  1 11  1  0
  1 12  1  0
  3 13  1  0
  4 14  1  0
  4 15  1  0
  5 16  1  0
  5 17  1  0
  6 18  1  0
  7 19  1  0
  8 20  1  0
  8 21  1  0
M  END
