
     RDKit          3D

 23 24  0  0  0  0  0  0  0  0999 V2000
   -2.5647    0.7605   -0.3227 C   0  0  0  0  0  0  0  0  0  0  0  0
   -1.9169   -0.5506   -0.0276 C   0  0  0  0  0  0  0  0  0  0  0  0
   -1.8989   -0.7086    1.3680 O   0  0  0  0  0  0  0  0  0  0  0  0
   -0.5155   -0.6682   -0.5868 C   0  0  0  0  0  0  0  0  0  0  0  0
    0.4207    0.3483   -0.0655 C   0  0  0  0  0  0  0  0  0  0  0  0
    1.8076    0.2828   -0.5888 C   0  0  0  0  0  0  0  0  0  0  0  0
    2.0497   -0.8576    0.3171 C   0  0  0  0  0  0  0  0  0  0  0  0
    1.2181    0.0521    1.1474 C   0  0  0  0  0  0  0  0  0  0  0  0
    2.1517    1.1382    0.6324 C   0  0  0  0  0  0  0  0  0  0  0  0
   -3.6649    0.6046   -0.3297 H   0  0  0  0  0  0  0  0  0  0  0  0
   -2.3030    1.1791   -1.3226 H   0  0  0  0  0  0  0  0  0  0  0  0
   -2.3893    1.5237    0.4870 H   0  0  0  0  0  0  0  0  0  0  0  0
   -2.5661   -1.3626   -0.4146 H   0  0  0  0  0  0  0  0  0  0  0  0
   -1.8467   -1.6791    1.5483 H   0  0  0  0  0  0  0  0  0  0  0  0
   -0.1708   -1.6800   -0.3242 H   0  0  0  0  0  0  0  0  0  0  0  0
   -0.6311   -0.5605   -1.7056 H   0  0  0  0  0  0  0  0  0  0  0  0
   -0.0008    1.3912    0.0144 H   0  0  0  0  0  0  0  0  0  0  0  0
    2.1468    0.4563   -1.5125 H   0  0  0  0  0  0  0  0  0  0  0  0
    3.1251   -0.9606    0.6788 H   0  0  0  0  0  0  0  0  0  0  0  0
    1.6939   -1.8518    0.0940 H   0  0  0  0  0  0  0  0  0  0  0  0
    0.9247   -0.0573    2.0958 H   0  0  0  0  0  0  0  0  0  0  0  0
    3.2009    1.0507    0.9362 H   0  0  0  0  0  0  0  0  0  0  0  0
    1.7293    2.1495    0.5885 H   0  0  0  0  0  0  0  0  0  0  0  0
  1  2  1  0
  2  3  1  0
  2  4  1  0
  4  5  1  0
  5  6  1  0
  6  7  1  0
  7  8  1  0
  8  9  1  0
  8  5  1  0
  9  6  1  0
  1 10  1  0
  1 11  1  0
  1 12  1  0
  2 13  1  0
  3 14  1  0
  4 15  1  0
  4 16  1  0
  5 17  1  0
  6 18  1  0
  7 19  1  0
  7 20  1  0
  8 21  1  0
  9 22  1  0
  9 23  1  0
M  END
