
     RDKit          3D

 23 22  0  0  0  0  0  0  0  0999 V2000
    2.4710    0.9002    0.0583 C   0  0  0  0  0  0  0  0  0  0  0  0
    1.5028    0.0893    0.8943 C   0  0  0  0  0  0  0  0  0  0  0  0
    0.5677    0.9089    1.4825 O   0  0  0  0  0  0  0  0  0  0  0  0
    0.9451   -1.0823    0.1547 C   0  0  0  0  0  0  0  0  0  0  0  0
    0.1889   -0.7423   -1.0802 C   0  0  0  0  0  0  0  0  0  0  0  0
   -1.0126    0.1384   -0.8506 C   0  0  0  0  0  0  0  0  0  0  0  0
   -1.9861   -0.5539    0.0739 C   0  0  0  0  0  0  0  0  0  0  0  0
   -3.1436    0.3719    0.2558 C   0  0  0  0  0  0  0  0  0  0  0  0
   -3.2419    1.4523   -0.2544 O   0  0  0  0  0  0  0  0  0  0  0  0
    3.2711    0.2035   -0.2977 H   0  0  0  0  0  0  0  0  0  0  0  0
    1.9958    1.4472   -0.7544 H   0  0  0  0  0  0  0  0  0  0  0  0
    2.9754    1.6110    0.7457 H   0  0  0  0  0  0  0  0  0  0  0  0
    2.1246   -0.3354    1.7379 H   0  0  0  0  0  0  0  0  0  0  0  0
    0.8014    1.8665    1.3870 H   0  0  0  0  0  0  0  0  0  0  0  0
    0.2638   -1.6213    0.8430 H   0  0  0  0  0  0  0  0  0  0  0  0
    1.7859   -1.7386   -0.1291 H   0  0  0  0  0  0  0  0  0  0  0  0
   -0.2145   -1.7117   -1.4899 H   0  0  0  0  0  0  0  0  0  0  0  0
    0.8236   -0.3356   -1.8942 H   0  0  0  0  0  0  0  0  0  0  0  0
   -0.7615    1.1515   -0.5321 H   0  0  0  0  0  0  0  0  0  0  0  0
   -1.5307    0.2246   -1.8452 H   0  0  0  0  0  0  0  0  0  0  0  0
   -1.5698   -0.7590    1.0728 H   0  0  0  0  0  0  0  0  0  0  0  0
   -2.3039   -1.5134   -0.3884 H   0  0  0  0  0  0  0  0  0  0  0  0
   -3.9526    0.0284    0.9027 H   0  0  0  0  0  0  0  0  0  0  0  0
  1  2  1  0
  2  3  1  0
  2  4  1  0
  4  5  1  0
  5  6  1  0
  6  7  1  0
  7  8  1  0
  8  9  2  0
  1 10  1  0
  1 11  1  0
  1 12  1  0
  2 13  1  0
  3 14  1  0
  4 15  1  0
  4 16  1  0
  5 17  1  0
  5 18  1  0
  6 19  1  0
  6 20  1  0
  7 21  1  0
  7 22  1  0
  8 23  1  0
M  END
