
     RDKit          3D

 13 12  0  0  0  0  0  0  0  0999 V2000
   -1.2933   -0.8757   -0.0957 C   0  0  0  0  0  0  0  0  0  0  0  0
   -0.4087    0.3037   -0.4571 C   0  0  0  0  0  0  0  0  0  0  0  0
   -0.6226    1.3337    0.4439 O   0  0  0  0  0  0  0  0  0  0  0  0
    0.9876   -0.1904   -0.4302 C   0  0  0  0  0  0  0  0  0  0  0  0
    1.2893   -1.1262   -1.2107 O   0  0  0  0  0  0  0  0  0  0  0  0
    1.9957    0.3661    0.4553 C   0  0  0  0  0  0  0  0  0  0  0  0
    1.6963    1.3047    1.2390 O   0  0  0  0  0  0  0  0  0  0  0  0
   -0.8955   -1.7417   -0.6999 H   0  0  0  0  0  0  0  0  0  0  0  0
   -2.3385   -0.7407   -0.4597 H   0  0  0  0  0  0  0  0  0  0  0  0
   -1.2344   -1.0669    0.9911 H   0  0  0  0  0  0  0  0  0  0  0  0
   -0.6915    0.6665   -1.4860 H   0  0  0  0  0  0  0  0  0  0  0  0
   -1.4785    1.7769    0.2030 H   0  0  0  0  0  0  0  0  0  0  0  0
    2.9941   -0.0100    0.4530 H   0  0  0  0  0  0  0  0  0  0  0  0
  1  2  1  0
  2  3  1  0
  2  4  1  0
  4  5  2  0
  4  6  1  0
  6  7  2  0
  1  8  1  0
  1  9  1  0
  1 10  1  0
  2 11  1  0
  3 12  1  0
  6 13  1  0
M  END
