
     RDKit          3D

 21 22  0  0  0  0  0  0  0  0999 V2000
    2.1085   -0.4019    0.1076 C   0  0  0  0  0  0  0  0  0  0  0  0
    1.1030    0.7420   -0.0646 C   0  0  0  0  0  0  0  0  0  0  0  0
    1.4295    1.5330   -1.1353 O   0  0  0  0  0  0  0  0  0  0  0  0
   -0.2295    0.2197   -0.0231 C   0  0  0  0  0  0  0  0  0  0  0  0
   -1.4353    1.1049   -0.1658 C   0  0  0  0  0  0  0  0  0  0  0  0
   -2.4551    0.1364    0.0477 O   0  0  0  0  0  0  0  0  0  0  0  0
   -1.7701   -1.0341    0.1704 C   0  0  0  0  0  0  0  0  0  0  0  0
   -0.6563   -0.6338    1.1569 C   0  0  0  0  0  0  0  0  0  0  0  0
   -0.6452   -0.9597   -0.8774 C   0  0  0  0  0  0  0  0  0  0  0  0
    1.9133   -1.1667   -0.6452 H   0  0  0  0  0  0  0  0  0  0  0  0
    3.1364    0.0214    0.0523 H   0  0  0  0  0  0  0  0  0  0  0  0
    1.9833   -0.7893    1.1333 H   0  0  0  0  0  0  0  0  0  0  0  0
    1.2746    1.3764    0.8573 H   0  0  0  0  0  0  0  0  0  0  0  0
    1.6054    2.4754   -0.9226 H   0  0  0  0  0  0  0  0  0  0  0  0
   -1.4930    1.9095    0.5654 H   0  0  0  0  0  0  0  0  0  0  0  0
   -1.5819    1.4374   -1.2133 H   0  0  0  0  0  0  0  0  0  0  0  0
   -2.2423   -1.9670    0.3189 H   0  0  0  0  0  0  0  0  0  0  0  0
   -1.0253   -0.0759    2.0328 H   0  0  0  0  0  0  0  0  0  0  0  0
    0.0610   -1.4346    1.3247 H   0  0  0  0  0  0  0  0  0  0  0  0
   -1.0825   -0.6635   -1.8489 H   0  0  0  0  0  0  0  0  0  0  0  0
    0.0017   -1.8298   -0.8711 H   0  0  0  0  0  0  0  0  0  0  0  0
  1  2  1  0
  2  3  1  0
  2  4  1  0
  4  5  1  0
  5  6  1  0
  6  7  1  0
  7  8  1  0
  7  9  1  0
  8  4  1  0
  9  4  1  0
  1 10  1  0
  1 11  1  0
  1 12  1  0
  2 13  1  0
  3 14  1  0
  5 15  1  0
  5 16  1  0
  7 17  1  0
  8 18  1  0
  8 19  1  0
  9 20  1  0
  9 21  1  0
M  END
