
     RDKit          3D

 17 16  0  0  0  0  0  0  0  0999 V2000
   -2.4758    1.1873    0.1598 C   0  0  0  0  0  0  0  0  0  0  0  0
   -2.1587   -0.2882    0.0977 C   0  0  0  0  0  0  0  0  0  0  0  0
   -2.7981   -0.8070   -1.0197 O   0  0  0  0  0  0  0  0  0  0  0  0
   -0.7292   -0.4804    0.0924 C   0  0  0  0  0  0  0  0  0  0  0  0
    0.4516   -0.6248    0.1029 C   0  0  0  0  0  0  0  0  0  0  0  0
    1.9148   -0.8288    0.1159 C   0  0  0  0  0  0  0  0  0  0  0  0
    2.4904    0.4578   -0.0982 O   0  0  0  0  0  0  0  0  0  0  0  0
    3.8871    0.5983   -0.1395 C   0  0  0  0  0  0  0  0  0  0  0  0
    4.5555   -0.4551    0.0205 O   0  0  0  0  0  0  0  0  0  0  0  0
   -2.0755    1.6827    1.0554 H   0  0  0  0  0  0  0  0  0  0  0  0
   -2.1581    1.6609   -0.7946 H   0  0  0  0  0  0  0  0  0  0  0  0
   -3.5994    1.2537    0.2490 H   0  0  0  0  0  0  0  0  0  0  0  0
   -2.5849   -0.7350    1.0383 H   0  0  0  0  0  0  0  0  0  0  0  0
   -3.5598   -1.4120   -0.7637 H   0  0  0  0  0  0  0  0  0  0  0  0
    2.2624   -1.3017    1.0427 H   0  0  0  0  0  0  0  0  0  0  0  0
    2.2305   -1.4814   -0.7247 H   0  0  0  0  0  0  0  0  0  0  0  0
    4.3471    1.5737   -0.3022 H   0  0  0  0  0  0  0  0  0  0  0  0
  1  2  1  0
  2  3  1  0
  2  4  1  0
  4  5  3  0
  5  6  1  0
  6  7  1  0
  7  8  1  0
  8  9  2  0
  1 10  1  0
  1 11  1  0
  1 12  1  0
  2 13  1  0
  3 14  1  0
  6 15  1  0
  6 16  1  0
  8 17  1  0
M  END
