
     RDKit          3D

 23 23  0  0  0  0  0  0  0  0999 V2000
    3.1249    0.1463   -0.4390 C   0  0  0  0  0  0  0  0  0  0  0  0
    2.0008   -0.1345    0.5148 C   0  0  0  0  0  0  0  0  0  0  0  0
    1.9521    0.7472    1.5786 O   0  0  0  0  0  0  0  0  0  0  0  0
    0.6755   -0.0479   -0.2551 C   0  0  0  0  0  0  0  0  0  0  0  0
   -0.4102   -0.3400    0.7612 C   0  0  0  0  0  0  0  0  0  0  0  0
   -1.7810   -0.2960    0.1719 C   0  0  0  0  0  0  0  0  0  0  0  0
   -2.8820   -0.5894    1.1891 C   0  0  0  0  0  0  0  0  0  0  0  0
   -2.0834    0.7282   -0.8590 C   0  0  0  0  0  0  0  0  0  0  0  0
   -1.9842   -0.7212   -1.1372 O   0  0  0  0  0  0  0  0  0  0  0  0
    3.0301   -0.5721   -1.2815 H   0  0  0  0  0  0  0  0  0  0  0  0
    3.1064    1.1529   -0.8567 H   0  0  0  0  0  0  0  0  0  0  0  0
    4.0910   -0.1042    0.0631 H   0  0  0  0  0  0  0  0  0  0  0  0
    2.1102   -1.1537    0.9158 H   0  0  0  0  0  0  0  0  0  0  0  0
    1.9897    1.6953    1.3109 H   0  0  0  0  0  0  0  0  0  0  0  0
    0.7284   -0.8588   -1.0103 H   0  0  0  0  0  0  0  0  0  0  0  0
    0.5754    0.9279   -0.7374 H   0  0  0  0  0  0  0  0  0  0  0  0
   -0.3681    0.3767    1.6046 H   0  0  0  0  0  0  0  0  0  0  0  0
   -0.1711   -1.3529    1.1776 H   0  0  0  0  0  0  0  0  0  0  0  0
   -2.6762   -1.5973    1.5872 H   0  0  0  0  0  0  0  0  0  0  0  0
   -2.6970    0.1210    2.0409 H   0  0  0  0  0  0  0  0  0  0  0  0
   -3.8770   -0.4684    0.7534 H   0  0  0  0  0  0  0  0  0  0  0  0
   -3.1350    1.0551   -1.0019 H   0  0  0  0  0  0  0  0  0  0  0  0
   -1.3193    1.2857   -1.3992 H   0  0  0  0  0  0  0  0  0  0  0  0
  1  2  1  0
  2  3  1  0
  2  4  1  0
  4  5  1  0
  5  6  1  0
  6  7  1  0
  6  8  1  0
  8  9  1  0
  9  6  1  0
  1 10  1  0
  1 11  1  0
  1 12  1  0
  2 13  1  0
  3 14  1  0
  4 15  1  0
  4 16  1  0
  5 17  1  0
  5 18  1  0
  7 19  1  0
  7 20  1  0
  7 21  1  0
  8 22  1  0
  8 23  1  0
M  END
