
     RDKit          3D

 19 19  0  0  0  0  0  0  0  0999 V2000
   -2.4069    0.0687    0.1264 C   0  0  0  0  0  0  0  0  0  0  0  0
   -1.1009    0.2382   -0.6236 C   0  0  0  0  0  0  0  0  0  0  0  0
   -0.8019   -1.0165   -1.1474 O   0  0  0  0  0  0  0  0  0  0  0  0
   -0.0027    0.7212    0.3146 C   0  0  0  0  0  0  0  0  0  0  0  0
    1.3302    0.9197   -0.3499 C   0  0  0  0  0  0  0  0  0  0  0  0
    1.6413   -0.4798    0.0172 C   0  0  0  0  0  0  0  0  0  0  0  0
    2.8586   -0.6992    0.6631 O   0  0  0  0  0  0  0  0  0  0  0  0
    0.5713   -0.4327    1.0338 C   0  0  0  0  0  0  0  0  0  0  0  0
    0.2744   -1.0554    2.0283 O   0  0  0  0  0  0  0  0  0  0  0  0
   -2.2325   -0.4634    1.0904 H   0  0  0  0  0  0  0  0  0  0  0  0
   -3.0421   -0.5933   -0.5018 H   0  0  0  0  0  0  0  0  0  0  0  0
   -2.9352    1.0208    0.2460 H   0  0  0  0  0  0  0  0  0  0  0  0
   -1.2722    0.9746   -1.4236 H   0  0  0  0  0  0  0  0  0  0  0  0
   -0.8508   -1.6795   -0.3868 H   0  0  0  0  0  0  0  0  0  0  0  0
   -0.3222    1.5697    0.9592 H   0  0  0  0  0  0  0  0  0  0  0  0
    1.2271    1.1584   -1.4263 H   0  0  0  0  0  0  0  0  0  0  0  0
    1.9674    1.6320    0.2180 H   0  0  0  0  0  0  0  0  0  0  0  0
    1.4795   -1.1738   -0.8459 H   0  0  0  0  0  0  0  0  0  0  0  0
    3.6175   -0.7097    0.0085 H   0  0  0  0  0  0  0  0  0  0  0  0
  1  2  1  0
  2  3  1  0
  2  4  1  0
  4  5  1  0
  5  6  1  0
  6  7  1  0
  6  8  1  0
  8  9  2  0
  8  4  1  0
  1 10  1  0
  1 11  1  0
  1 12  1  0
  2 13  1  0
  3 14  1  0
  4 15  1  0
  5 16  1  0
  5 17  1  0
  6 18  1  0
  7 19  1  0
M  END
