
     RDKit          3D

 21 21  0  0  0  0  0  0  0  0999 V2000
   -1.8763   -1.2615   -0.3231 C   0  0  0  0  0  0  0  0  0  0  0  0
   -1.0540   -0.3414    0.5735 C   0  0  0  0  0  0  0  0  0  0  0  0
   -1.7997    0.0779    1.6711 O   0  0  0  0  0  0  0  0  0  0  0  0
   -0.4916    0.7688   -0.2288 C   0  0  0  0  0  0  0  0  0  0  0  0
    0.3602    1.7961    0.4859 C   0  0  0  0  0  0  0  0  0  0  0  0
    1.2483    1.8287   -0.6162 O   0  0  0  0  0  0  0  0  0  0  0  0
    0.7444    0.5750   -1.0179 C   0  0  0  0  0  0  0  0  0  0  0  0
    1.7080   -0.4904   -0.6761 C   0  0  0  0  0  0  0  0  0  0  0  0
    2.0079   -0.5785    0.6823 O   0  0  0  0  0  0  0  0  0  0  0  0
   -2.9002   -0.9193   -0.4635 H   0  0  0  0  0  0  0  0  0  0  0  0
   -1.8116   -2.3129    0.0689 H   0  0  0  0  0  0  0  0  0  0  0  0
   -1.3512   -1.2608   -1.3082 H   0  0  0  0  0  0  0  0  0  0  0  0
   -0.2389   -0.9734    0.9725 H   0  0  0  0  0  0  0  0  0  0  0  0
   -1.3217   -0.0451    2.5301 H   0  0  0  0  0  0  0  0  0  0  0  0
   -1.3169    1.3247   -0.7531 H   0  0  0  0  0  0  0  0  0  0  0  0
   -0.0949    2.7972    0.6017 H   0  0  0  0  0  0  0  0  0  0  0  0
    0.8341    1.4629    1.4201 H   0  0  0  0  0  0  0  0  0  0  0  0
    0.5197    0.5788   -2.1106 H   0  0  0  0  0  0  0  0  0  0  0  0
    1.4656   -1.4868   -1.1031 H   0  0  0  0  0  0  0  0  0  0  0  0
    2.6909   -0.2191   -1.1669 H   0  0  0  0  0  0  0  0  0  0  0  0
    2.6780   -1.3209    0.7615 H   0  0  0  0  0  0  0  0  0  0  0  0
  1  2  1  0
  2  3  1  0
  2  4  1  0
  4  5  1  0
  5  6  1  0
  6  7  1  0
  7  8  1  0
  8  9  1  0
  7  4  1  0
  1 10  1  0
  1 11  1  0
  1 12  1  0
  2 13  1  0
  3 14  1  0
  4 15  1  0
  5 16  1  0
  5 17  1  0
  7 18  1  0
  8 19  1  0
  8 20  1  0
  9 21  1  0
M  END
