
     RDKit          3D

 21 22  0  0  0  0  0  0  0  0999 V2000
    1.8874    1.1498   -0.1620 C   0  0  0  0  0  0  0  0  0  0  0  0
    1.1867   -0.1627   -0.5250 C   0  0  0  0  0  0  0  0  0  0  0  0
    2.1909   -1.1377   -0.6556 O   0  0  0  0  0  0  0  0  0  0  0  0
    0.2323   -0.4622    0.5681 C   0  0  0  0  0  0  0  0  0  0  0  0
   -0.6079   -1.6640    0.5348 C   0  0  0  0  0  0  0  0  0  0  0  0
   -1.4287   -1.0459   -0.5519 C   0  0  0  0  0  0  0  0  0  0  0  0
   -1.1782    0.0010    0.4571 C   0  0  0  0  0  0  0  0  0  0  0  0
   -1.6473    1.2948    0.5045 C   0  0  0  0  0  0  0  0  0  0  0  0
   -1.4578   -0.9964    1.4141 O   0  0  0  0  0  0  0  0  0  0  0  0
    2.9611    1.1130   -0.3690 H   0  0  0  0  0  0  0  0  0  0  0  0
    1.7803    1.3697    0.9302 H   0  0  0  0  0  0  0  0  0  0  0  0
    1.4516    2.0006   -0.7135 H   0  0  0  0  0  0  0  0  0  0  0  0
    0.7583    0.0050   -1.5159 H   0  0  0  0  0  0  0  0  0  0  0  0
    2.5534   -1.3869    0.2319 H   0  0  0  0  0  0  0  0  0  0  0  0
    0.6136   -0.2567    1.5911 H   0  0  0  0  0  0  0  0  0  0  0  0
   -0.3435   -2.6367    0.6083 H   0  0  0  0  0  0  0  0  0  0  0  0
   -1.0066   -0.9703   -1.5496 H   0  0  0  0  0  0  0  0  0  0  0  0
   -2.4846   -1.3962   -0.5196 H   0  0  0  0  0  0  0  0  0  0  0  0
   -2.0116    1.6131    1.5269 H   0  0  0  0  0  0  0  0  0  0  0  0
   -2.5366    1.4894   -0.1619 H   0  0  0  0  0  0  0  0  0  0  0  0
   -0.9129    2.0794    0.2206 H   0  0  0  0  0  0  0  0  0  0  0  0
  1  2  1  0
  2  3  1  0
  2  4  1  0
  4  5  1  0
  5  6  1  0
  6  7  1  0
  7  8  1  0
  7  9  1  0
  7  4  1  0
  9  5  1  0
  1 10  1  0
  1 11  1  0
  1 12  1  0
  2 13  1  0
  3 14  1  0
  4 15  1  0
  5 16  1  0
  6 17  1  0
  6 18  1  0
  8 19  1  0
  8 20  1  0
  8 21  1  0
M  END
