
     RDKit          3D

 23 23  0  0  0  0  0  0  0  0999 V2000
    2.1810    0.6483   -0.0418 C   0  0  0  0  0  0  0  0  0  0  0  0
    1.1092    0.0929    0.8647 C   0  0  0  0  0  0  0  0  0  0  0  0
    1.5091   -1.0935    1.4454 O   0  0  0  0  0  0  0  0  0  0  0  0
   -0.1284   -0.1364    0.0614 C   0  0  0  0  0  0  0  0  0  0  0  0
    0.1440   -1.1137   -1.0475 C   0  0  0  0  0  0  0  0  0  0  0  0
   -1.2920   -0.6371    0.8575 C   0  0  0  0  0  0  0  0  0  0  0  0
   -2.4459   -0.2184   -0.0142 C   0  0  0  0  0  0  0  0  0  0  0  0
   -2.0740    0.8142   -0.7594 C   0  0  0  0  0  0  0  0  0  0  0  0
   -0.6833    1.1839   -0.4775 C   0  0  0  0  0  0  0  0  0  0  0  0
    1.8271    0.7405   -1.1009 H   0  0  0  0  0  0  0  0  0  0  0  0
    3.0431   -0.0721   -0.0814 H   0  0  0  0  0  0  0  0  0  0  0  0
    2.5219    1.6604    0.2646 H   0  0  0  0  0  0  0  0  0  0  0  0
    0.9495    0.8343    1.6698 H   0  0  0  0  0  0  0  0  0  0  0  0
    2.3394   -0.9048    1.9523 H   0  0  0  0  0  0  0  0  0  0  0  0
    0.8935   -1.8423   -0.6623 H   0  0  0  0  0  0  0  0  0  0  0  0
   -0.8268   -1.6292   -1.3010 H   0  0  0  0  0  0  0  0  0  0  0  0
    0.4939   -0.6294   -1.9741 H   0  0  0  0  0  0  0  0  0  0  0  0
   -1.2412   -1.7157    0.9973 H   0  0  0  0  0  0  0  0  0  0  0  0
   -1.4316   -0.0783    1.8150 H   0  0  0  0  0  0  0  0  0  0  0  0
   -3.4048   -0.6810   -0.0261 H   0  0  0  0  0  0  0  0  0  0  0  0
   -2.7234    1.3006   -1.4704 H   0  0  0  0  0  0  0  0  0  0  0  0
   -0.1148    1.5630   -1.3227 H   0  0  0  0  0  0  0  0  0  0  0  0
   -0.6454    1.9140    0.3513 H   0  0  0  0  0  0  0  0  0  0  0  0
  1  2  1  0
  2  3  1  0
  2  4  1  0
  4  5  1  0
  4  6  1  0
  6  7  1  0
  7  8  2  0
  8  9  1  0
  9  4  1  0
  1 10  1  0
  1 11  1  0
  1 12  1  0
  2 13  1  0
  3 14  1  0
  5 15  1  0
  5 16  1  0
  5 17  1  0
  6 18  1  0
  6 19  1  0
  7 20  1  0
  8 21  1  0
  9 22  1  0
  9 23  1  0
M  END
