
     RDKit          3D

 19 19  0  0  0  0  0  0  0  0999 V2000
    2.1520    0.2765   -0.6425 C   0  0  0  0  0  0  0  0  0  0  0  0
    1.1618    0.4714    0.4882 C   0  0  0  0  0  0  0  0  0  0  0  0
    1.2913   -0.5983    1.3538 O   0  0  0  0  0  0  0  0  0  0  0  0
   -0.2149    0.4628   -0.1001 C   0  0  0  0  0  0  0  0  0  0  0  0
   -0.5460   -0.7915   -0.7947 C   0  0  0  0  0  0  0  0  0  0  0  0
   -1.8342   -1.0330   -0.6306 C   0  0  0  0  0  0  0  0  0  0  0  0
   -2.4469    0.0178    0.1697 C   0  0  0  0  0  0  0  0  0  0  0  0
   -3.6548    0.3025    0.1576 O   0  0  0  0  0  0  0  0  0  0  0  0
   -1.3073    0.5868    0.9266 C   0  0  0  0  0  0  0  0  0  0  0  0
    3.1832    0.3780   -0.2314 H   0  0  0  0  0  0  0  0  0  0  0  0
    1.9337    1.0487   -1.4065 H   0  0  0  0  0  0  0  0  0  0  0  0
    2.0758   -0.7285   -1.0619 H   0  0  0  0  0  0  0  0  0  0  0  0
    1.4265    1.3978    0.9974 H   0  0  0  0  0  0  0  0  0  0  0  0
    1.7715   -1.3694    0.9678 H   0  0  0  0  0  0  0  0  0  0  0  0
   -0.3227    1.3247   -0.8211 H   0  0  0  0  0  0  0  0  0  0  0  0
    0.1746   -1.4085   -1.3512 H   0  0  0  0  0  0  0  0  0  0  0  0
   -2.3402   -1.9140   -1.0538 H   0  0  0  0  0  0  0  0  0  0  0  0
   -1.4841    1.6306    1.2422 H   0  0  0  0  0  0  0  0  0  0  0  0
   -1.0193   -0.0542    1.7903 H   0  0  0  0  0  0  0  0  0  0  0  0
  1  2  1  0
  2  3  1  0
  2  4  1  0
  4  5  1  0
  5  6  2  0
  6  7  1  0
  7  8  2  0
  7  9  1  0
  9  4  1  0
  1 10  1  0
  1 11  1  0
  1 12  1  0
  2 13  1  0
  3 14  1  0
  4 15  1  0
  5 16  1  0
  6 17  1  0
  9 18  1  0
  9 19  1  0
M  END
