
     RDKit          3D

 19 19  0  0  0  0  0  0  0  0999 V2000
   -1.7594   -0.5943    0.4264 C   0  0  0  0  0  0  0  0  0  0  0  0
   -0.9009    0.3898   -0.3868 C   0  0  0  0  0  0  0  0  0  0  0  0
   -1.4501    0.3657   -1.6773 O   0  0  0  0  0  0  0  0  0  0  0  0
    0.5049   -0.1160   -0.4806 C   0  0  0  0  0  0  0  0  0  0  0  0
    0.6274   -1.6368   -0.5916 C   0  0  0  0  0  0  0  0  0  0  0  0
    1.3312    0.6395   -1.3138 O   0  0  0  0  0  0  0  0  0  0  0  0
    1.6536    0.6116    0.0431 C   0  0  0  0  0  0  0  0  0  0  0  0
    1.5412    1.8476    0.8358 C   0  0  0  0  0  0  0  0  0  0  0  0
    0.7212    2.7222    0.7139 O   0  0  0  0  0  0  0  0  0  0  0  0
   -1.9658   -0.1174    1.4115 H   0  0  0  0  0  0  0  0  0  0  0  0
   -2.7137   -0.8204   -0.0870 H   0  0  0  0  0  0  0  0  0  0  0  0
   -1.2110   -1.5176    0.6037 H   0  0  0  0  0  0  0  0  0  0  0  0
   -0.9271    1.3817    0.0428 H   0  0  0  0  0  0  0  0  0  0  0  0
   -2.2979    0.8778   -1.6290 H   0  0  0  0  0  0  0  0  0  0  0  0
    0.7377   -2.0769    0.4196 H   0  0  0  0  0  0  0  0  0  0  0  0
    1.5193   -1.8677   -1.2389 H   0  0  0  0  0  0  0  0  0  0  0  0
   -0.2433   -2.0436   -1.1082 H   0  0  0  0  0  0  0  0  0  0  0  0
    2.5501   -0.0477    0.3146 H   0  0  0  0  0  0  0  0  0  0  0  0
    2.2824    2.0025    1.6316 H   0  0  0  0  0  0  0  0  0  0  0  0
  1  2  1  0
  2  3  1  0
  2  4  1  0
  4  5  1  0
  4  6  1  0
  6  7  1  0
  7  8  1  0
  8  9  2  0
  7  4  1  0
  1 10  1  0
  1 11  1  0
  1 12  1  0
  2 13  1  0
  3 14  1  0
  5 15  1  0
  5 16  1  0
  5 17  1  0
  7 18  1  0
  8 19  1  0
M  END
