
     RDKit          3D

 23 24  0  0  0  0  0  0  0  0999 V2000
   -1.0190    1.0087   -1.7266 C   0  0  0  0  0  0  0  0  0  0  0  0
   -0.4838    0.3632   -0.4750 C   0  0  0  0  0  0  0  0  0  0  0  0
    0.7067   -0.3011   -0.6664 O   0  0  0  0  0  0  0  0  0  0  0  0
    1.7660    0.1768    0.0503 C   0  0  0  0  0  0  0  0  0  0  0  0
    2.6828   -0.9335    0.5932 C   0  0  0  0  0  0  0  0  0  0  0  0
    3.1691    0.0039   -0.4539 C   0  0  0  0  0  0  0  0  0  0  0  0
   -1.4688   -0.5976    0.1354 C   0  0  0  0  0  0  0  0  0  0  0  0
   -2.8090   -0.1302    0.5823 C   0  0  0  0  0  0  0  0  0  0  0  0
   -1.7836   -0.4090    1.6249 C   0  0  0  0  0  0  0  0  0  0  0  0
   -0.9486    0.3464   -2.6098 H   0  0  0  0  0  0  0  0  0  0  0  0
   -0.5275    1.9826   -1.8590 H   0  0  0  0  0  0  0  0  0  0  0  0
   -2.0987    1.2142   -1.5468 H   0  0  0  0  0  0  0  0  0  0  0  0
   -0.3016    1.1772    0.2556 H   0  0  0  0  0  0  0  0  0  0  0  0
    1.6377    1.0499    0.7359 H   0  0  0  0  0  0  0  0  0  0  0  0
    2.5095   -1.9619    0.2726 H   0  0  0  0  0  0  0  0  0  0  0  0
    2.9880   -0.8302    1.6451 H   0  0  0  0  0  0  0  0  0  0  0  0
    3.3312   -0.4032   -1.4928 H   0  0  0  0  0  0  0  0  0  0  0  0
    3.9605    0.7066   -0.1443 H   0  0  0  0  0  0  0  0  0  0  0  0
   -1.3269   -1.6464   -0.1823 H   0  0  0  0  0  0  0  0  0  0  0  0
   -3.1191    0.9008    0.3793 H   0  0  0  0  0  0  0  0  0  0  0  0
   -3.6142   -0.8799    0.5031 H   0  0  0  0  0  0  0  0  0  0  0  0
   -1.3746    0.4850    2.1304 H   0  0  0  0  0  0  0  0  0  0  0  0
   -1.8759   -1.3223    2.2488 H   0  0  0  0  0  0  0  0  0  0  0  0
  1  2  1  0
  2  3  1  0
  3  4  1  0
  4  5  1  0
  5  6  1  0
  2  7  1  0
  7  8  1  0
  8  9  1  0
  6  4  1  0
  9  7  1  0
  1 10  1  0
  1 11  1  0
  1 12  1  0
  2 13  1  0
  4 14  1  0
  5 15  1  0
  5 16  1  0
  6 17  1  0
  6 18  1  0
  7 19  1  0
  8 20  1  0
  8 21  1  0
  9 22  1  0
  9 23  1  0
M  END
