
     RDKit          3D

 21 21  0  0  0  0  0  0  0  0999 V2000
   -1.0260   -1.0210    1.0176 C   0  0  0  0  0  0  0  0  0  0  0  0
   -0.9630   -0.1137   -0.1719 C   0  0  0  0  0  0  0  0  0  0  0  0
   -1.6963    1.0747    0.0725 O   0  0  0  0  0  0  0  0  0  0  0  0
   -2.8176    1.4243   -0.6717 C   0  0  0  0  0  0  0  0  0  0  0  0
   -3.1432    0.6052   -1.5889 O   0  0  0  0  0  0  0  0  0  0  0  0
    0.4482    0.1789   -0.6143 C   0  0  0  0  0  0  0  0  0  0  0  0
    1.3277    0.8539    0.4175 C   0  0  0  0  0  0  0  0  0  0  0  0
    2.4799    0.0426   -0.1900 C   0  0  0  0  0  0  0  0  0  0  0  0
    1.3977   -0.9866   -0.5615 C   0  0  0  0  0  0  0  0  0  0  0  0
   -2.1240   -1.1552    1.2466 H   0  0  0  0  0  0  0  0  0  0  0  0
   -0.4625   -0.6928    1.8901 H   0  0  0  0  0  0  0  0  0  0  0  0
   -0.6782   -2.0318    0.6989 H   0  0  0  0  0  0  0  0  0  0  0  0
   -1.4533   -0.6451   -1.0182 H   0  0  0  0  0  0  0  0  0  0  0  0
   -3.3782    2.3296   -0.4874 H   0  0  0  0  0  0  0  0  0  0  0  0
    0.5341    0.6902   -1.5770 H   0  0  0  0  0  0  0  0  0  0  0  0
    1.4366    1.9431    0.2966 H   0  0  0  0  0  0  0  0  0  0  0  0
    1.1292    0.4884    1.4288 H   0  0  0  0  0  0  0  0  0  0  0  0
    3.2040   -0.3273    0.5551 H   0  0  0  0  0  0  0  0  0  0  0  0
    2.9027    0.4995   -1.1021 H   0  0  0  0  0  0  0  0  0  0  0  0
    1.2881   -1.6702    0.3049 H   0  0  0  0  0  0  0  0  0  0  0  0
    1.5941   -1.4867   -1.5324 H   0  0  0  0  0  0  0  0  0  0  0  0
  1  2  1  0
  2  3  1  0
  3  4  1  0
  4  5  2  0
  2  6  1  0
  6  7  1  0
  7  8  1  0
  8  9  1  0
  9  6  1  0
  1 10  1  0
  1 11  1  0
  1 12  1  0
  2 13  1  0
  4 14  1  0
  6 15  1  0
  7 16  1  0
  7 17  1  0
  8 18  1  0
  8 19  1  0
  9 20  1  0
  9 21  1  0
M  END
