
     RDKit          3D

 23 22  0  0  0  0  0  0  0  0999 V2000
    2.8939   -0.4840   -0.9202 C   0  0  0  0  0  0  0  0  0  0  0  0
    2.3841    0.2309    0.2800 C   0  0  0  0  0  0  0  0  0  0  0  0
    2.2488   -0.6823    1.3426 O   0  0  0  0  0  0  0  0  0  0  0  0
    1.0512    0.9092    0.0618 C   0  0  0  0  0  0  0  0  0  0  0  0
    0.0477    0.0055   -0.2545 O   0  0  0  0  0  0  0  0  0  0  0  0
   -1.1228    0.7268   -0.4325 C   0  0  0  0  0  0  0  0  0  0  0  0
   -2.3034   -0.1454   -0.7843 C   0  0  0  0  0  0  0  0  0  0  0  0
   -2.6651   -1.0733    0.3555 C   0  0  0  0  0  0  0  0  0  0  0  0
   -3.4009    0.7320   -0.9296 O   0  0  0  0  0  0  0  0  0  0  0  0
    3.9942   -0.3672   -0.9817 H   0  0  0  0  0  0  0  0  0  0  0  0
    2.4265   -0.1648   -1.8720 H   0  0  0  0  0  0  0  0  0  0  0  0
    2.7008   -1.5680   -0.8050 H   0  0  0  0  0  0  0  0  0  0  0  0
    3.1383    0.9692    0.6195 H   0  0  0  0  0  0  0  0  0  0  0  0
    3.1021   -1.1463    1.5091 H   0  0  0  0  0  0  0  0  0  0  0  0
    0.8039    1.5020    0.9583 H   0  0  0  0  0  0  0  0  0  0  0  0
    1.2007    1.6565   -0.7624 H   0  0  0  0  0  0  0  0  0  0  0  0
   -0.9620    1.4300   -1.2753 H   0  0  0  0  0  0  0  0  0  0  0  0
   -1.3355    1.2371    0.5285 H   0  0  0  0  0  0  0  0  0  0  0  0
   -2.1399   -0.7184   -1.7170 H   0  0  0  0  0  0  0  0  0  0  0  0
   -3.3916   -1.8120   -0.0611 H   0  0  0  0  0  0  0  0  0  0  0  0
   -3.2440   -0.5087    1.1320 H   0  0  0  0  0  0  0  0  0  0  0  0
   -1.8022   -1.6050    0.7742 H   0  0  0  0  0  0  0  0  0  0  0  0
   -3.6246    0.8763   -1.8849 H   0  0  0  0  0  0  0  0  0  0  0  0
  1  2  1  0
  2  3  1  0
  2  4  1  0
  4  5  1  0
  5  6  1  0
  6  7  1  0
  7  8  1  0
  7  9  1  0
  1 10  1  0
  1 11  1  0
  1 12  1  0
  2 13  1  0
  3 14  1  0
  4 15  1  0
  4 16  1  0
  6 17  1  0
  6 18  1  0
  7 19  1  0
  8 20  1  0
  8 21  1  0
  8 22  1  0
  9 23  1  0
M  END
