
     RDKit          3D

 21 22  0  0  0  0  0  0  0  0999 V2000
    2.0579    0.2095    1.0377 C   0  0  0  0  0  0  0  0  0  0  0  0
    1.5029    0.0507   -0.3692 C   0  0  0  0  0  0  0  0  0  0  0  0
    1.4957    1.2344   -1.0734 O   0  0  0  0  0  0  0  0  0  0  0  0
    0.1995   -0.6340   -0.4251 C   0  0  0  0  0  0  0  0  0  0  0  0
   -0.6834   -0.2932   -1.6071 C   0  0  0  0  0  0  0  0  0  0  0  0
   -1.1123   -0.1936   -0.2022 C   0  0  0  0  0  0  0  0  0  0  0  0
   -1.6679    1.0202    0.3880 C   0  0  0  0  0  0  0  0  0  0  0  0
   -1.2992   -1.5444    0.5014 C   0  0  0  0  0  0  0  0  0  0  0  0
    0.0413   -1.8327    0.2293 O   0  0  0  0  0  0  0  0  0  0  0  0
    3.1638   -0.0030    1.0652 H   0  0  0  0  0  0  0  0  0  0  0  0
    1.9714    1.2648    1.3976 H   0  0  0  0  0  0  0  0  0  0  0  0
    1.6065   -0.5184    1.7357 H   0  0  0  0  0  0  0  0  0  0  0  0
    2.2520   -0.6071   -0.9063 H   0  0  0  0  0  0  0  0  0  0  0  0
    1.0778    1.9878   -0.6355 H   0  0  0  0  0  0  0  0  0  0  0  0
   -0.4489    0.6397   -2.1221 H   0  0  0  0  0  0  0  0  0  0  0  0
   -0.9694   -1.1815   -2.2009 H   0  0  0  0  0  0  0  0  0  0  0  0
   -2.5412    1.3654   -0.2394 H   0  0  0  0  0  0  0  0  0  0  0  0
   -2.1390    0.7892    1.3874 H   0  0  0  0  0  0  0  0  0  0  0  0
   -1.0233    1.8779    0.5190 H   0  0  0  0  0  0  0  0  0  0  0  0
   -1.9560   -2.2470   -0.0421 H   0  0  0  0  0  0  0  0  0  0  0  0
   -1.5282   -1.3849    1.5621 H   0  0  0  0  0  0  0  0  0  0  0  0
  1  2  1  0
  2  3  1  0
  2  4  1  0
  4  5  1  0
  5  6  1  0
  6  7  1  0
  6  8  1  0
  8  9  1  0
  6  4  1  0
  9  4  1  0
  1 10  1  0
  1 11  1  0
  1 12  1  0
  2 13  1  0
  3 14  1  0
  5 15  1  0
  5 16  1  0
  7 17  1  0
  7 18  1  0
  7 19  1  0
  8 20  1  0
  8 21  1  0
M  END
