
     RDKit          3D

 23 22  0  0  0  0  0  0  0  0999 V2000
    2.7361   -0.3852   -0.2479 C   0  0  0  0  0  0  0  0  0  0  0  0
    1.2783   -0.6907   -0.2175 C   0  0  0  0  0  0  0  0  0  0  0  0
    0.8619   -1.2093   -1.4404 O   0  0  0  0  0  0  0  0  0  0  0  0
    0.4365    0.5071    0.1816 C   0  0  0  0  0  0  0  0  0  0  0  0
    0.5906    1.4606   -0.8173 O   0  0  0  0  0  0  0  0  0  0  0  0
   -1.0054    0.0909    0.3685 C   0  0  0  0  0  0  0  0  0  0  0  0
   -1.8753    1.2691    0.7588 C   0  0  0  0  0  0  0  0  0  0  0  0
   -1.5905   -0.4949   -0.8854 C   0  0  0  0  0  0  0  0  0  0  0  0
   -1.0344   -0.8638    1.3879 O   0  0  0  0  0  0  0  0  0  0  0  0
    2.9874    0.6488   -0.5372 H   0  0  0  0  0  0  0  0  0  0  0  0
    3.2071   -0.5467    0.7606 H   0  0  0  0  0  0  0  0  0  0  0  0
    3.2476   -1.1153   -0.9201 H   0  0  0  0  0  0  0  0  0  0  0  0
    1.1214   -1.5053    0.5304 H   0  0  0  0  0  0  0  0  0  0  0  0
    1.0901   -2.1548   -1.5566 H   0  0  0  0  0  0  0  0  0  0  0  0
    0.7963    0.9707    1.1168 H   0  0  0  0  0  0  0  0  0  0  0  0
   -0.2378    1.9358   -1.0312 H   0  0  0  0  0  0  0  0  0  0  0  0
   -1.3972    1.9084    1.5182 H   0  0  0  0  0  0  0  0  0  0  0  0
   -2.8444    0.8284    1.1093 H   0  0  0  0  0  0  0  0  0  0  0  0
   -2.1505    1.8656   -0.1542 H   0  0  0  0  0  0  0  0  0  0  0  0
   -1.1400   -0.0647   -1.8036 H   0  0  0  0  0  0  0  0  0  0  0  0
   -2.7099   -0.3991   -0.9044 H   0  0  0  0  0  0  0  0  0  0  0  0
   -1.3820   -1.5829   -0.9073 H   0  0  0  0  0  0  0  0  0  0  0  0
   -0.9859   -0.4729    2.2797 H   0  0  0  0  0  0  0  0  0  0  0  0
  1  2  1  0
  2  3  1  0
  2  4  1  0
  4  5  1  0
  4  6  1  0
  6  7  1  0
  6  8  1  0
  6  9  1  0
  1 10  1  0
  1 11  1  0
  1 12  1  0
  2 13  1  0
  3 14  1  0
  4 15  1  0
  5 16  1  0
  7 17  1  0
  7 18  1  0
  7 19  1  0
  8 20  1  0
  8 21  1  0
  8 22  1  0
  9 23  1  0
M  END
