
     RDKit          3D

 21 21  0  0  0  0  0  0  0  0999 V2000
    2.5140   -0.3396   -0.3385 C   0  0  0  0  0  0  0  0  0  0  0  0
    1.6084    0.4130    0.6403 C   0  0  0  0  0  0  0  0  0  0  0  0
    1.4909    1.7078    0.1757 O   0  0  0  0  0  0  0  0  0  0  0  0
    0.2749   -0.2884    0.7536 C   0  0  0  0  0  0  0  0  0  0  0  0
   -0.4583   -0.3811   -0.5439 C   0  0  0  0  0  0  0  0  0  0  0  0
   -0.7667    0.8337   -1.1486 O   0  0  0  0  0  0  0  0  0  0  0  0
   -2.0875    0.8697   -0.7022 C   0  0  0  0  0  0  0  0  0  0  0  0
   -1.9224   -0.6113   -0.3442 C   0  0  0  0  0  0  0  0  0  0  0  0
   -2.5485   -1.4003   -1.3044 O   0  0  0  0  0  0  0  0  0  0  0  0
    2.0317   -1.2393   -0.7409 H   0  0  0  0  0  0  0  0  0  0  0  0
    2.8108    0.3020   -1.1933 H   0  0  0  0  0  0  0  0  0  0  0  0
    3.4548   -0.6732    0.1706 H   0  0  0  0  0  0  0  0  0  0  0  0
    2.0822    0.3551    1.6437 H   0  0  0  0  0  0  0  0  0  0  0  0
    2.1304    2.2967    0.6832 H   0  0  0  0  0  0  0  0  0  0  0  0
   -0.3392    0.3154    1.4595 H   0  0  0  0  0  0  0  0  0  0  0  0
    0.4465   -1.3043    1.1351 H   0  0  0  0  0  0  0  0  0  0  0  0
    0.0632   -1.0454   -1.2505 H   0  0  0  0  0  0  0  0  0  0  0  0
   -2.1854    1.5080    0.2193 H   0  0  0  0  0  0  0  0  0  0  0  0
   -2.8544    1.0558   -1.4527 H   0  0  0  0  0  0  0  0  0  0  0  0
   -2.2555   -0.8715    0.6756 H   0  0  0  0  0  0  0  0  0  0  0  0
   -3.4897   -1.5026   -1.0138 H   0  0  0  0  0  0  0  0  0  0  0  0
  1  2  1  0
  2  3  1  0
  2  4  1  0
  4  5  1  0
  5  6  1  0
  6  7  1  0
  7  8  1  0
  8  9  1  0
  8  5  1  0
  1 10  1  0
  1 11  1  0
  1 12  1  0
  2 13  1  0
  3 14  1  0
  4 15  1  0
  4 16  1  0
  5 17  1  0
  7 18  1  0
  7 19  1  0
  8 20  1  0
  9 21  1  0
M  END
