
     RDKit          3D

 21 21  0  0  0  0  0  0  0  0999 V2000
    1.9605    0.3743    0.7611 C   0  0  0  0  0  0  0  0  0  0  0  0
    1.5717   -0.8009   -0.0715 C   0  0  0  0  0  0  0  0  0  0  0  0
    2.6654   -1.3798   -0.6970 O   0  0  0  0  0  0  0  0  0  0  0  0
    0.5150   -0.4820   -1.1004 C   0  0  0  0  0  0  0  0  0  0  0  0
   -0.7311    0.0112   -0.4513 C   0  0  0  0  0  0  0  0  0  0  0  0
   -1.2517    1.2057   -0.6856 C   0  0  0  0  0  0  0  0  0  0  0  0
   -2.4702    1.2905    0.1527 C   0  0  0  0  0  0  0  0  0  0  0  0
   -2.7895   -0.0115    0.4500 O   0  0  0  0  0  0  0  0  0  0  0  0
   -1.5920   -0.7151    0.5395 C   0  0  0  0  0  0  0  0  0  0  0  0
    2.2615   -0.0076    1.7654 H   0  0  0  0  0  0  0  0  0  0  0  0
    1.0403    0.9934    0.9345 H   0  0  0  0  0  0  0  0  0  0  0  0
    2.7862    0.9816    0.3357 H   0  0  0  0  0  0  0  0  0  0  0  0
    1.1404   -1.5772    0.5977 H   0  0  0  0  0  0  0  0  0  0  0  0
    3.1781   -1.9264   -0.0523 H   0  0  0  0  0  0  0  0  0  0  0  0
    0.2964   -1.4297   -1.6595 H   0  0  0  0  0  0  0  0  0  0  0  0
    0.8421    0.2512   -1.8515 H   0  0  0  0  0  0  0  0  0  0  0  0
   -0.8561    1.9805   -1.3683 H   0  0  0  0  0  0  0  0  0  0  0  0
   -3.3133    1.7243   -0.4349 H   0  0  0  0  0  0  0  0  0  0  0  0
   -2.3178    1.9144    1.0571 H   0  0  0  0  0  0  0  0  0  0  0  0
   -1.2279   -0.6423    1.5605 H   0  0  0  0  0  0  0  0  0  0  0  0
   -1.7080   -1.7547    0.2181 H   0  0  0  0  0  0  0  0  0  0  0  0
  1  2  1  0
  2  3  1  0
  2  4  1  0
  4  5  1  0
  5  6  2  0
  6  7  1  0
  7  8  1  0
  8  9  1  0
  9  5  1  0
  1 10  1  0
  1 11  1  0
  1 12  1  0
  2 13  1  0
  3 14  1  0
  4 15  1  0
  4 16  1  0
  6 17  1  0
  7 18  1  0
  7 19  1  0
  9 20  1  0
  9 21  1  0
M  END
