
     RDKit          3D

 21 21  0  0  0  0  0  0  0  0999 V2000
    0.9850    1.0125   -1.4238 C   0  0  0  0  0  0  0  0  0  0  0  0
    0.7462    0.3464   -0.1038 C   0  0  0  0  0  0  0  0  0  0  0  0
    1.4893   -0.8232    0.0819 O   0  0  0  0  0  0  0  0  0  0  0  0
    2.3830   -0.9193    1.1269 C   0  0  0  0  0  0  0  0  0  0  0  0
    2.4873    0.0773    1.8808 O   0  0  0  0  0  0  0  0  0  0  0  0
   -0.7082   -0.0010    0.1257 C   0  0  0  0  0  0  0  0  0  0  0  0
   -0.9185   -0.6756    1.4734 C   0  0  0  0  0  0  0  0  0  0  0  0
   -1.4555   -0.5657   -1.0765 C   0  0  0  0  0  0  0  0  0  0  0  0
   -1.8092    0.7317   -0.4672 C   0  0  0  0  0  0  0  0  0  0  0  0
    0.2575    1.8300   -1.5523 H   0  0  0  0  0  0  0  0  0  0  0  0
    1.9892    1.5045   -1.3649 H   0  0  0  0  0  0  0  0  0  0  0  0
    0.9733    0.3440   -2.2871 H   0  0  0  0  0  0  0  0  0  0  0  0
    1.0197    1.0691    0.6875 H   0  0  0  0  0  0  0  0  0  0  0  0
    2.9887   -1.7927    1.3285 H   0  0  0  0  0  0  0  0  0  0  0  0
   -1.9048   -1.1777    1.5256 H   0  0  0  0  0  0  0  0  0  0  0  0
   -0.1102   -1.3985    1.7075 H   0  0  0  0  0  0  0  0  0  0  0  0
   -0.9473    0.1372    2.2513 H   0  0  0  0  0  0  0  0  0  0  0  0
   -2.0002   -1.4997   -0.8667 H   0  0  0  0  0  0  0  0  0  0  0  0
   -0.9642   -0.5516   -2.0623 H   0  0  0  0  0  0  0  0  0  0  0  0
   -2.7806    0.7214    0.1097 H   0  0  0  0  0  0  0  0  0  0  0  0
   -1.7204    1.6312   -1.0941 H   0  0  0  0  0  0  0  0  0  0  0  0
  1  2  1  0
  2  3  1  0
  3  4  1  0
  4  5  2  0
  2  6  1  0
  6  7  1  0
  6  8  1  0
  8  9  1  0
  9  6  1  0
  1 10  1  0
  1 11  1  0
  1 12  1  0
  2 13  1  0
  4 14  1  0
  7 15  1  0
  7 16  1  0
  7 17  1  0
  8 18  1  0
  8 19  1  0
  9 20  1  0
  9 21  1  0
M  END
