
     RDKit          3D

 19 19  0  0  0  0  0  0  0  0999 V2000
   -1.8486   -0.5391   -0.6673 C   0  0  0  0  0  0  0  0  0  0  0  0
   -0.4082   -0.2269   -0.9811 C   0  0  0  0  0  0  0  0  0  0  0  0
   -0.3468    0.7681   -1.9732 O   0  0  0  0  0  0  0  0  0  0  0  0
    0.2500    0.2572    0.2856 C   0  0  0  0  0  0  0  0  0  0  0  0
   -0.3360    1.4676    0.8858 C   0  0  0  0  0  0  0  0  0  0  0  0
    0.0906    1.9731    1.9088 O   0  0  0  0  0  0  0  0  0  0  0  0
    0.6647   -0.8821    1.2106 C   0  0  0  0  0  0  0  0  0  0  0  0
    1.6841   -0.0243    0.5438 C   0  0  0  0  0  0  0  0  0  0  0  0
    2.4726   -0.5600   -0.4749 O   0  0  0  0  0  0  0  0  0  0  0  0
   -2.4967   -0.5364   -1.5630 H   0  0  0  0  0  0  0  0  0  0  0  0
   -1.9363   -1.5636   -0.2320 H   0  0  0  0  0  0  0  0  0  0  0  0
   -2.1878    0.1899    0.0975 H   0  0  0  0  0  0  0  0  0  0  0  0
    0.1556   -1.1110   -1.3343 H   0  0  0  0  0  0  0  0  0  0  0  0
   -1.2445    1.1707   -2.0978 H   0  0  0  0  0  0  0  0  0  0  0  0
   -1.1814    1.9369    0.4071 H   0  0  0  0  0  0  0  0  0  0  0  0
    0.3822   -0.7048    2.2618 H   0  0  0  0  0  0  0  0  0  0  0  0
    0.6215   -1.9215    0.8267 H   0  0  0  0  0  0  0  0  0  0  0  0
    2.2210    0.6705    1.2107 H   0  0  0  0  0  0  0  0  0  0  0  0
    3.4443   -0.3644   -0.3149 H   0  0  0  0  0  0  0  0  0  0  0  0
  1  2  1  0
  2  3  1  0
  2  4  1  0
  4  5  1  0
  5  6  2  0
  4  7  1  0
  7  8  1  0
  8  9  1  0
  8  4  1  0
  1 10  1  0
  1 11  1  0
  1 12  1  0
  2 13  1  0
  3 14  1  0
  5 15  1  0
  7 16  1  0
  7 17  1  0
  8 18  1  0
  9 19  1  0
M  END
