
     RDKit          3D

 19 19  0  0  0  0  0  0  0  0999 V2000
   -1.5747   -0.9519    0.7076 C   0  0  0  0  0  0  0  0  0  0  0  0
   -1.0541    0.1376   -0.2012 C   0  0  0  0  0  0  0  0  0  0  0  0
   -1.3171   -0.2312   -1.5315 O   0  0  0  0  0  0  0  0  0  0  0  0
    0.4580    0.1825   -0.0706 C   0  0  0  0  0  0  0  0  0  0  0  0
    1.1320   -1.1068   -0.4528 C   0  0  0  0  0  0  0  0  0  0  0  0
    0.9629    0.9997    1.0537 C   0  0  0  0  0  0  0  0  0  0  0  0
    1.1549    1.4272   -0.3901 C   0  0  0  0  0  0  0  0  0  0  0  0
   -2.4613   -0.6298    1.2817 H   0  0  0  0  0  0  0  0  0  0  0  0
   -1.8746   -1.8360    0.1137 H   0  0  0  0  0  0  0  0  0  0  0  0
   -0.7994   -1.2960    1.4324 H   0  0  0  0  0  0  0  0  0  0  0  0
   -1.4904    1.1175    0.0471 H   0  0  0  0  0  0  0  0  0  0  0  0
   -1.8550    0.4736   -1.9387 H   0  0  0  0  0  0  0  0  0  0  0  0
    2.0608   -1.3022    0.1190 H   0  0  0  0  0  0  0  0  0  0  0  0
    1.3979   -1.0156   -1.5469 H   0  0  0  0  0  0  0  0  0  0  0  0
    0.4382   -1.9627   -0.3946 H   0  0  0  0  0  0  0  0  0  0  0  0
    0.2772    1.6248    1.6194 H   0  0  0  0  0  0  0  0  0  0  0  0
    1.8049    0.5923    1.6213 H   0  0  0  0  0  0  0  0  0  0  0  0
    0.5412    2.2895   -0.7626 H   0  0  0  0  0  0  0  0  0  0  0  0
    2.1986    1.4875   -0.7068 H   0  0  0  0  0  0  0  0  0  0  0  0
  1  2  1  0
  2  3  1  0
  2  4  1  0
  4  5  1  0
  4  6  1  0
  6  7  1  0
  7  4  1  0
  1  8  1  0
  1  9  1  0
  1 10  1  0
  2 11  1  0
  3 12  1  0
  5 13  1  0
  5 14  1  0
  5 15  1  0
  6 16  1  0
  6 17  1  0
  7 18  1  0
  7 19  1  0
M  END
