
     RDKit          3D

 20 20  0  0  0  0  0  0  0  0999 V2000
   -1.7196   -1.0386   -0.4224 C   0  0  0  0  0  0  0  0  0  0  0  0
   -1.4715    0.4185   -0.2093 C   0  0  0  0  0  0  0  0  0  0  0  0
   -2.2782    0.8410    0.8462 O   0  0  0  0  0  0  0  0  0  0  0  0
   -0.0540    0.7449    0.1481 C   0  0  0  0  0  0  0  0  0  0  0  0
    0.9909    0.3497   -0.8761 C   0  0  0  0  0  0  0  0  0  0  0  0
    1.9059    0.0736    0.3269 C   0  0  0  0  0  0  0  0  0  0  0  0
    2.7648   -0.9790    0.1609 O   0  0  0  0  0  0  0  0  0  0  0  0
    0.6143   -0.2691    1.0765 C   0  0  0  0  0  0  0  0  0  0  0  0
   -1.6584   -1.6378    0.5098 H   0  0  0  0  0  0  0  0  0  0  0  0
   -1.1117   -1.4814   -1.2359 H   0  0  0  0  0  0  0  0  0  0  0  0
   -2.7871   -1.1392   -0.7615 H   0  0  0  0  0  0  0  0  0  0  0  0
   -1.7760    0.9819   -1.0989 H   0  0  0  0  0  0  0  0  0  0  0  0
   -2.3134    1.8397    0.7919 H   0  0  0  0  0  0  0  0  0  0  0  0
    0.1263    1.7500    0.5207 H   0  0  0  0  0  0  0  0  0  0  0  0
    0.7115   -0.5816   -1.3948 H   0  0  0  0  0  0  0  0  0  0  0  0
    1.3434    1.1738   -1.5243 H   0  0  0  0  0  0  0  0  0  0  0  0
    2.3206    1.0206    0.6747 H   0  0  0  0  0  0  0  0  0  0  0  0
    3.4309   -0.7574   -0.5163 H   0  0  0  0  0  0  0  0  0  0  0  0
    0.6102    0.0118    2.1331 H   0  0  0  0  0  0  0  0  0  0  0  0
    0.3511   -1.3216    0.8505 H   0  0  0  0  0  0  0  0  0  0  0  0
  1  2  1  0
  2  3  1  0
  2  4  1  0
  4  5  1  0
  5  6  1  0
  6  7  1  0
  6  8  1  0
  8  4  1  0
  1  9  1  0
  1 10  1  0
  1 11  1  0
  2 12  1  0
  3 13  1  0
  4 14  1  0
  5 15  1  0
  5 16  1  0
  6 17  1  0
  7 18  1  0
  8 19  1  0
  8 20  1  0
M  END
