
     RDKit          3D

 21 22  0  0  0  0  0  0  0  0999 V2000
   -2.7879    0.7062    0.2432 C   0  0  0  0  0  0  0  0  0  0  0  0
   -1.6966   -0.1415   -0.3310 C   0  0  0  0  0  0  0  0  0  0  0  0
   -2.1828   -1.4003   -0.5959 O   0  0  0  0  0  0  0  0  0  0  0  0
   -0.4853   -0.1837    0.6184 C   0  0  0  0  0  0  0  0  0  0  0  0
    0.6459   -0.9423    0.2353 C   0  0  0  0  0  0  0  0  0  0  0  0
    1.7980   -0.5277   -0.6795 C   0  0  0  0  0  0  0  0  0  0  0  0
    2.1225    0.3066    0.5846 C   0  0  0  0  0  0  0  0  0  0  0  0
    2.9454    1.3831    0.3418 O   0  0  0  0  0  0  0  0  0  0  0  0
    0.6425    0.6434    0.3757 C   0  0  0  0  0  0  0  0  0  0  0  0
   -3.5341    0.9070   -0.5337 H   0  0  0  0  0  0  0  0  0  0  0  0
   -2.3627    1.6399    0.6909 H   0  0  0  0  0  0  0  0  0  0  0  0
   -3.2799    0.1801    1.1005 H   0  0  0  0  0  0  0  0  0  0  0  0
   -1.3491    0.3601   -1.2738 H   0  0  0  0  0  0  0  0  0  0  0  0
   -1.5306   -2.0601   -0.3019 H   0  0  0  0  0  0  0  0  0  0  0  0
   -0.8714   -0.1645    1.6859 H   0  0  0  0  0  0  0  0  0  0  0  0
    1.1451   -1.4651    1.1166 H   0  0  0  0  0  0  0  0  0  0  0  0
    2.5556   -1.2840   -0.8254 H   0  0  0  0  0  0  0  0  0  0  0  0
    1.5069    0.0898   -1.5328 H   0  0  0  0  0  0  0  0  0  0  0  0
    2.3307   -0.3211    1.4456 H   0  0  0  0  0  0  0  0  0  0  0  0
    3.7824    1.0910   -0.1268 H   0  0  0  0  0  0  0  0  0  0  0  0
    0.6053    1.1834   -0.6254 H   0  0  0  0  0  0  0  0  0  0  0  0
  1  2  1  0
  2  3  1  0
  2  4  1  0
  4  5  1  0
  5  6  1  0
  6  7  1  0
  7  8  1  0
  7  9  1  0
  9  4  1  0
  9  5  1  0
  1 10  1  0
  1 11  1  0
  1 12  1  0
  2 13  1  0
  3 14  1  0
  4 15  1  0
  5 16  1  0
  6 17  1  0
  6 18  1  0
  7 19  1  0
  8 20  1  0
  9 21  1  0
M  END
