
     RDKit          3D

 17 17  0  0  0  0  0  0  0  0999 V2000
   -1.9247    1.0374    0.1792 C   0  0  0  0  0  0  0  0  0  0  0  0
   -1.0386   -0.1532    0.2699 C   0  0  0  0  0  0  0  0  0  0  0  0
   -1.6422   -1.2387   -0.3533 O   0  0  0  0  0  0  0  0  0  0  0  0
    0.3167    0.0323   -0.3364 C   0  0  0  0  0  0  0  0  0  0  0  0
    1.2512   -1.1179   -0.0228 C   0  0  0  0  0  0  0  0  0  0  0  0
    2.5132   -0.5121   -0.3480 O   0  0  0  0  0  0  0  0  0  0  0  0
    2.3644    0.8529   -0.1045 C   0  0  0  0  0  0  0  0  0  0  0  0
    3.3368    1.6476   -0.1886 O   0  0  0  0  0  0  0  0  0  0  0  0
    1.0348    1.1185    0.2204 O   0  0  0  0  0  0  0  0  0  0  0  0
   -2.8216    0.8495   -0.4694 H   0  0  0  0  0  0  0  0  0  0  0  0
   -1.4206    1.9224   -0.2664 H   0  0  0  0  0  0  0  0  0  0  0  0
   -2.3613    1.2858    1.1868 H   0  0  0  0  0  0  0  0  0  0  0  0
   -0.8989   -0.4484    1.3395 H   0  0  0  0  0  0  0  0  0  0  0  0
   -1.2509   -2.0953   -0.0402 H   0  0  0  0  0  0  0  0  0  0  0  0
    0.2877    0.1466   -1.4347 H   0  0  0  0  0  0  0  0  0  0  0  0
    1.0080   -1.9463   -0.6861 H   0  0  0  0  0  0  0  0  0  0  0  0
    1.2462   -1.3808    1.0546 H   0  0  0  0  0  0  0  0  0  0  0  0
  1  2  1  0
  2  3  1  0
  2  4  1  0
  4  5  1  0
  5  6  1  0
  6  7  1  0
  7  8  2  0
  7  9  1  0
  9  4  1  0
  1 10  1  0
  1 11  1  0
  1 12  1  0
  2 13  1  0
  3 14  1  0
  4 15  1  0
  5 16  1  0
  5 17  1  0
M  END
