
     RDKit          3D

 21 21  0  0  0  0  0  0  0  0999 V2000
   -2.2195   -0.1199   -0.5787 C   0  0  0  0  0  0  0  0  0  0  0  0
   -1.2095    0.3752    0.4341 C   0  0  0  0  0  0  0  0  0  0  0  0
   -0.8940    1.6992    0.1865 O   0  0  0  0  0  0  0  0  0  0  0  0
    0.0173   -0.5083    0.4697 C   0  0  0  0  0  0  0  0  0  0  0  0
   -0.3320   -1.8155    0.7182 O   0  0  0  0  0  0  0  0  0  0  0  0
    1.1209    0.0640    1.3327 C   0  0  0  0  0  0  0  0  0  0  0  0
    2.0171    0.2485    0.1237 C   0  0  0  0  0  0  0  0  0  0  0  0
    0.9346   -0.3744   -0.7160 C   0  0  0  0  0  0  0  0  0  0  0  0
    0.5159    0.5222   -1.6949 O   0  0  0  0  0  0  0  0  0  0  0  0
   -3.2555    0.1891   -0.3186 H   0  0  0  0  0  0  0  0  0  0  0  0
   -2.2268   -1.2490   -0.5700 H   0  0  0  0  0  0  0  0  0  0  0  0
   -2.0097    0.2758   -1.5977 H   0  0  0  0  0  0  0  0  0  0  0  0
   -1.6982    0.2740    1.4372 H   0  0  0  0  0  0  0  0  0  0  0  0
   -1.3964    2.0091   -0.5891 H   0  0  0  0  0  0  0  0  0  0  0  0
    0.4603   -2.3919    0.6842 H   0  0  0  0  0  0  0  0  0  0  0  0
    0.8801    1.0474    1.7784 H   0  0  0  0  0  0  0  0  0  0  0  0
    1.4746   -0.7100    2.0404 H   0  0  0  0  0  0  0  0  0  0  0  0
    2.9472   -0.3320    0.2311 H   0  0  0  0  0  0  0  0  0  0  0  0
    2.2600    1.3038   -0.1239 H   0  0  0  0  0  0  0  0  0  0  0  0
    1.2473   -1.3638   -1.1209 H   0  0  0  0  0  0  0  0  0  0  0  0
    1.3662    0.8565   -2.1263 H   0  0  0  0  0  0  0  0  0  0  0  0
  1  2  1  0
  2  3  1  0
  2  4  1  0
  4  5  1  0
  4  6  1  0
  6  7  1  0
  7  8  1  0
  8  9  1  0
  8  4  1  0
  1 10  1  0
  1 11  1  0
  1 12  1  0
  2 13  1  0
  3 14  1  0
  5 15  1  0
  6 16  1  0
  6 17  1  0
  7 18  1  0
  7 19  1  0
  8 20  1  0
  9 21  1  0
M  END
