
     RDKit          3D

 21 22  0  0  0  0  0  0  0  0999 V2000
    2.3794   -0.3102    0.1819 C   0  0  0  0  0  0  0  0  0  0  0  0
    1.2309   -0.2023   -0.7859 C   0  0  0  0  0  0  0  0  0  0  0  0
    1.4407    0.7304   -1.7790 O   0  0  0  0  0  0  0  0  0  0  0  0
   -0.0447    0.0473   -0.0048 C   0  0  0  0  0  0  0  0  0  0  0  0
   -0.4154   -0.9837    0.9669 C   0  0  0  0  0  0  0  0  0  0  0  0
   -1.7133   -1.1163    1.0419 C   0  0  0  0  0  0  0  0  0  0  0  0
   -2.3698   -0.1781    0.1189 C   0  0  0  0  0  0  0  0  0  0  0  0
   -1.2799    0.4685   -0.6613 C   0  0  0  0  0  0  0  0  0  0  0  0
   -0.4506    1.4540    0.0933 C   0  0  0  0  0  0  0  0  0  0  0  0
    3.0099    0.6014    0.2002 H   0  0  0  0  0  0  0  0  0  0  0  0
    3.0211   -1.2071   -0.0628 H   0  0  0  0  0  0  0  0  0  0  0  0
    1.9807   -0.5144    1.1939 H   0  0  0  0  0  0  0  0  0  0  0  0
    1.1083   -1.2055   -1.2678 H   0  0  0  0  0  0  0  0  0  0  0  0
    2.1260    1.4115   -1.5530 H   0  0  0  0  0  0  0  0  0  0  0  0
    0.2801   -1.5822    1.5673 H   0  0  0  0  0  0  0  0  0  0  0  0
   -2.2581   -1.8428    1.7143 H   0  0  0  0  0  0  0  0  0  0  0  0
   -2.8630    0.5968    0.7752 H   0  0  0  0  0  0  0  0  0  0  0  0
   -3.1358   -0.6738   -0.5237 H   0  0  0  0  0  0  0  0  0  0  0  0
   -1.2939    0.4833   -1.7697 H   0  0  0  0  0  0  0  0  0  0  0  0
   -0.8254    1.8286    1.0672 H   0  0  0  0  0  0  0  0  0  0  0  0
    0.0728    2.1945   -0.5126 H   0  0  0  0  0  0  0  0  0  0  0  0
  1  2  1  0
  2  3  1  0
  2  4  1  0
  4  5  1  0
  5  6  2  0
  6  7  1  0
  7  8  1  0
  8  9  1  0
  8  4  1  0
  9  4  1  0
  1 10  1  0
  1 11  1  0
  1 12  1  0
  2 13  1  0
  3 14  1  0
  5 15  1  0
  6 16  1  0
  7 17  1  0
  7 18  1  0
  8 19  1  0
  9 20  1  0
  9 21  1  0
M  END
