
     RDKit          3D

 18 18  0  0  0  0  0  0  0  0999 V2000
    1.9731   -0.5050   -0.5477 C   0  0  0  0  0  0  0  0  0  0  0  0
    0.9782    0.4230    0.0737 C   0  0  0  0  0  0  0  0  0  0  0  0
    0.6346    1.3908   -0.8735 O   0  0  0  0  0  0  0  0  0  0  0  0
   -0.2487   -0.2647    0.6009 C   0  0  0  0  0  0  0  0  0  0  0  0
   -1.0615   -1.0247   -0.4020 C   0  0  0  0  0  0  0  0  0  0  0  0
   -1.9267    0.1854   -0.6024 C   0  0  0  0  0  0  0  0  0  0  0  0
   -1.3776    0.7086    0.6809 C   0  0  0  0  0  0  0  0  0  0  0  0
   -1.6868    1.5747    1.4979 O   0  0  0  0  0  0  0  0  0  0  0  0
    2.9610   -0.4778   -0.0032 H   0  0  0  0  0  0  0  0  0  0  0  0
    1.6602   -1.5799   -0.4946 H   0  0  0  0  0  0  0  0  0  0  0  0
    2.2263   -0.2288   -1.5974 H   0  0  0  0  0  0  0  0  0  0  0  0
    1.4677    0.9385    0.9253 H   0  0  0  0  0  0  0  0  0  0  0  0
    1.3431    2.0649   -1.0038 H   0  0  0  0  0  0  0  0  0  0  0  0
   -0.0222   -0.7907    1.5496 H   0  0  0  0  0  0  0  0  0  0  0  0
   -0.5318   -1.3959   -1.2947 H   0  0  0  0  0  0  0  0  0  0  0  0
   -1.6465   -1.8468    0.0468 H   0  0  0  0  0  0  0  0  0  0  0  0
   -3.0176    0.0287   -0.4977 H   0  0  0  0  0  0  0  0  0  0  0  0
   -1.7245    0.7996   -1.4847 H   0  0  0  0  0  0  0  0  0  0  0  0
  1  2  1  0
  2  3  1  0
  2  4  1  0
  4  5  1  0
  5  6  1  0
  6  7  1  0
  7  8  2  0
  7  4  1  0
  1  9  1  0
  1 10  1  0
  1 11  1  0
  2 12  1  0
  3 13  1  0
  4 14  1  0
  5 15  1  0
  5 16  1  0
  6 17  1  0
  6 18  1  0
M  END
