
     RDKit          3D

 22 21  0  0  0  0  0  0  0  0999 V2000
    2.1444    0.3737    0.7708 C   0  0  0  0  0  0  0  0  0  0  0  0
    1.3800   -0.7188    0.0572 C   0  0  0  0  0  0  0  0  0  0  0  0
    2.3544   -1.6095   -0.4474 O   0  0  0  0  0  0  0  0  0  0  0  0
    0.6776   -0.1631   -1.1884 C   0  0  0  0  0  0  0  0  0  0  0  0
   -0.2918    0.9210   -0.8003 C   0  0  0  0  0  0  0  0  0  0  0  0
   -1.3661    0.4662    0.1347 C   0  0  0  0  0  0  0  0  0  0  0  0
   -2.2357   -0.6177   -0.3703 C   0  0  0  0  0  0  0  0  0  0  0  0
   -2.1573    1.5720    0.4448 O   0  0  0  0  0  0  0  0  0  0  0  0
    2.7836   -0.1439    1.5304 H   0  0  0  0  0  0  0  0  0  0  0  0
    2.8550    0.8429    0.0496 H   0  0  0  0  0  0  0  0  0  0  0  0
    1.5080    1.1432    1.2099 H   0  0  0  0  0  0  0  0  0  0  0  0
    0.6943   -1.2409    0.7211 H   0  0  0  0  0  0  0  0  0  0  0  0
    1.8260   -2.2413   -1.0299 H   0  0  0  0  0  0  0  0  0  0  0  0
    0.2546   -0.9556   -1.8013 H   0  0  0  0  0  0  0  0  0  0  0  0
    1.4920    0.3108   -1.7853 H   0  0  0  0  0  0  0  0  0  0  0  0
    0.3022    1.7280   -0.3271 H   0  0  0  0  0  0  0  0  0  0  0  0
   -0.7181    1.3312   -1.7398 H   0  0  0  0  0  0  0  0  0  0  0  0
   -0.8823    0.1391    1.0909 H   0  0  0  0  0  0  0  0  0  0  0  0
   -3.1292   -0.6893    0.2857 H   0  0  0  0  0  0  0  0  0  0  0  0
   -2.6474   -0.3324   -1.3802 H   0  0  0  0  0  0  0  0  0  0  0  0
   -1.7792   -1.6228   -0.3906 H   0  0  0  0  0  0  0  0  0  0  0  0
   -3.0650    1.5073    0.0815 H   0  0  0  0  0  0  0  0  0  0  0  0
  1  2  1  0
  2  3  1  0
  2  4  1  0
  4  5  1  0
  5  6  1  0
  6  7  1  0
  6  8  1  0
  1  9  1  0
  1 10  1  0
  1 11  1  0
  2 12  1  0
  3 13  1  0
  4 14  1  0
  4 15  1  0
  5 16  1  0
  5 17  1  0
  6 18  1  0
  7 19  1  0
  7 20  1  0
  7 21  1  0
  8 22  1  0
M  END
