
     RDKit          3D

 19 20  0  0  0  0  0  0  0  0999 V2000
   -2.2850   -0.3263   -0.1123 C   0  0  0  0  0  0  0  0  0  0  0  0
   -1.0608    0.5801    0.0734 C   0  0  0  0  0  0  0  0  0  0  0  0
   -1.2476    1.3363    1.2457 O   0  0  0  0  0  0  0  0  0  0  0  0
    0.1069   -0.3088    0.3262 C   0  0  0  0  0  0  0  0  0  0  0  0
    1.4126    0.4055    0.5354 C   0  0  0  0  0  0  0  0  0  0  0  0
    2.0434   -0.9192    0.1748 C   0  0  0  0  0  0  0  0  0  0  0  0
    0.9417   -0.7124   -0.8434 C   0  0  0  0  0  0  0  0  0  0  0  0
    1.3919    0.6663   -0.8865 C   0  0  0  0  0  0  0  0  0  0  0  0
    1.6130    1.5195   -1.6808 O   0  0  0  0  0  0  0  0  0  0  0  0
   -2.7784   -0.5331    0.8652 H   0  0  0  0  0  0  0  0  0  0  0  0
   -1.9731   -1.3154   -0.5119 H   0  0  0  0  0  0  0  0  0  0  0  0
   -2.9718    0.1176   -0.8519 H   0  0  0  0  0  0  0  0  0  0  0  0
   -0.9632    1.2551   -0.7657 H   0  0  0  0  0  0  0  0  0  0  0  0
   -1.4118    2.2915    1.0418 H   0  0  0  0  0  0  0  0  0  0  0  0
   -0.0439   -1.1106    1.0446 H   0  0  0  0  0  0  0  0  0  0  0  0
    1.6645    0.9946    1.3019 H   0  0  0  0  0  0  0  0  0  0  0  0
    1.7866   -1.7612    0.8289 H   0  0  0  0  0  0  0  0  0  0  0  0
    3.0662   -0.8421   -0.1958 H   0  0  0  0  0  0  0  0  0  0  0  0
    0.7088   -1.3374   -1.5896 H   0  0  0  0  0  0  0  0  0  0  0  0
  1  2  1  0
  2  3  1  0
  2  4  1  0
  4  5  1  0
  5  6  1  0
  6  7  1  0
  7  8  1  0
  8  9  2  0
  7  4  1  0
  8  5  1  0
  1 10  1  0
  1 11  1  0
  1 12  1  0
  2 13  1  0
  3 14  1  0
  4 15  1  0
  5 16  1  0
  6 17  1  0
  6 18  1  0
  7 19  1  0
M  END
