
     RDKit          3D

 21 22  0  0  0  0  0  0  0  0999 V2000
    2.3979    0.5296    0.6701 C   0  0  0  0  0  0  0  0  0  0  0  0
    1.4792   -0.0187   -0.3778 C   0  0  0  0  0  0  0  0  0  0  0  0
    2.0537   -1.1003   -1.0387 O   0  0  0  0  0  0  0  0  0  0  0  0
    0.1550   -0.4704    0.1882 C   0  0  0  0  0  0  0  0  0  0  0  0
   -0.7218   -0.9072   -0.7717 O   0  0  0  0  0  0  0  0  0  0  0  0
   -1.8926   -1.1547   -0.0628 C   0  0  0  0  0  0  0  0  0  0  0  0
   -2.0147    0.0382    0.8820 C   0  0  0  0  0  0  0  0  0  0  0  0
   -1.7187    1.3375    0.2632 C   0  0  0  0  0  0  0  0  0  0  0  0
   -0.5810    0.6358    0.8815 C   0  0  0  0  0  0  0  0  0  0  0  0
    2.3305    1.6526    0.7306 H   0  0  0  0  0  0  0  0  0  0  0  0
    3.4461    0.3168    0.3481 H   0  0  0  0  0  0  0  0  0  0  0  0
    2.2759    0.0663    1.6648 H   0  0  0  0  0  0  0  0  0  0  0  0
    1.2516    0.8114   -1.0877 H   0  0  0  0  0  0  0  0  0  0  0  0
    2.2629   -1.7984   -0.4001 H   0  0  0  0  0  0  0  0  0  0  0  0
    0.2927   -1.2999    0.9277 H   0  0  0  0  0  0  0  0  0  0  0  0
   -1.8965   -2.1108    0.4710 H   0  0  0  0  0  0  0  0  0  0  0  0
   -2.7344   -1.0724   -0.8111 H   0  0  0  0  0  0  0  0  0  0  0  0
   -2.4209   -0.0962    1.8775 H   0  0  0  0  0  0  0  0  0  0  0  0
   -1.7050    1.4157   -0.8353 H   0  0  0  0  0  0  0  0  0  0  0  0
   -2.0772    2.2374    0.7796 H   0  0  0  0  0  0  0  0  0  0  0  0
   -0.1830    0.9877    1.8326 H   0  0  0  0  0  0  0  0  0  0  0  0
  1  2  1  0
  2  3  1  0
  2  4  1  0
  4  5  1  0
  5  6  1  0
  6  7  1  0
  7  8  1  0
  8  9  1  0
  9  4  1  0
  9  7  1  0
  1 10  1  0
  1 11  1  0
  1 12  1  0
  2 13  1  0
  3 14  1  0
  4 15  1  0
  6 16  1  0
  6 17  1  0
  7 18  1  0
  8 19  1  0
  8 20  1  0
  9 21  1  0
M  END
