
     RDKit          3D

 19 20  0  0  0  0  0  0  0  0999 V2000
   -2.1924   -0.4617    0.0016 C   0  0  0  0  0  0  0  0  0  0  0  0
   -1.1156    0.4397    0.5564 C   0  0  0  0  0  0  0  0  0  0  0  0
   -1.1359    1.6511   -0.1014 O   0  0  0  0  0  0  0  0  0  0  0  0
    0.2228   -0.2232    0.5480 C   0  0  0  0  0  0  0  0  0  0  0  0
    0.3530   -1.4349    1.1755 O   0  0  0  0  0  0  0  0  0  0  0  0
    0.7453   -1.2270   -0.1947 C   0  0  0  0  0  0  0  0  0  0  0  0
    2.1059   -0.5731   -0.2791 C   0  0  0  0  0  0  0  0  0  0  0  0
    1.4485    0.6535    0.3706 C   0  0  0  0  0  0  0  0  0  0  0  0
    2.0418    0.9781    1.5989 O   0  0  0  0  0  0  0  0  0  0  0  0
   -2.6325   -0.0267   -0.9320 H   0  0  0  0  0  0  0  0  0  0  0  0
   -1.8209   -1.4793   -0.2127 H   0  0  0  0  0  0  0  0  0  0  0  0
   -3.0570   -0.5752    0.6996 H   0  0  0  0  0  0  0  0  0  0  0  0
   -1.3975    0.6357    1.6285 H   0  0  0  0  0  0  0  0  0  0  0  0
   -2.0634    1.9043   -0.3411 H   0  0  0  0  0  0  0  0  0  0  0  0
    0.4098   -1.9441   -0.9286 H   0  0  0  0  0  0  0  0  0  0  0  0
    2.8699   -1.0587    0.3656 H   0  0  0  0  0  0  0  0  0  0  0  0
    2.4270   -0.4234   -1.3067 H   0  0  0  0  0  0  0  0  0  0  0  0
    1.3087    1.4766   -0.3285 H   0  0  0  0  0  0  0  0  0  0  0  0
    1.4824    1.6884    2.0038 H   0  0  0  0  0  0  0  0  0  0  0  0
  1  2  1  0
  2  3  1  0
  2  4  1  0
  4  5  1  0
  5  6  1  0
  6  7  1  0
  7  8  1  0
  8  9  1  0
  6  4  1  0
  8  4  1  0
  1 10  1  0
  1 11  1  0
  1 12  1  0
  2 13  1  0
  3 14  1  0
  6 15  1  0
  7 16  1  0
  7 17  1  0
  8 18  1  0
  9 19  1  0
M  END
