
     RDKit          3D

 21 22  0  0  0  0  0  0  0  0999 V2000
   -2.7955   -0.3474    0.1601 C   0  0  0  0  0  0  0  0  0  0  0  0
   -1.3713    0.0240    0.5943 C   0  0  0  0  0  0  0  0  0  0  0  0
   -1.4828    0.8367    1.6928 O   0  0  0  0  0  0  0  0  0  0  0  0
   -0.7335    0.7263   -0.5729 C   0  0  0  0  0  0  0  0  0  0  0  0
   -0.6565   -0.2260   -1.7056 O   0  0  0  0  0  0  0  0  0  0  0  0
    0.5444    0.3828   -1.1206 C   0  0  0  0  0  0  0  0  0  0  0  0
    1.4467   -0.6647   -0.5103 C   0  0  0  0  0  0  0  0  0  0  0  0
    1.9445   -0.5173    0.8760 C   0  0  0  0  0  0  0  0  0  0  0  0
    2.8972   -0.2078   -0.2457 C   0  0  0  0  0  0  0  0  0  0  0  0
   -3.3526    0.5907    0.0336 H   0  0  0  0  0  0  0  0  0  0  0  0
   -3.2508   -1.0652    0.8531 H   0  0  0  0  0  0  0  0  0  0  0  0
   -2.6765   -0.7744   -0.8713 H   0  0  0  0  0  0  0  0  0  0  0  0
   -0.8682   -0.9025    0.8751 H   0  0  0  0  0  0  0  0  0  0  0  0
   -1.2728    1.7825    1.5397 H   0  0  0  0  0  0  0  0  0  0  0  0
   -1.2059    1.6816   -0.8599 H   0  0  0  0  0  0  0  0  0  0  0  0
    1.0190    1.0445   -1.8443 H   0  0  0  0  0  0  0  0  0  0  0  0
    1.3520   -1.7259   -0.8808 H   0  0  0  0  0  0  0  0  0  0  0  0
    1.5339    0.3463    1.4350 H   0  0  0  0  0  0  0  0  0  0  0  0
    2.1457   -1.3916    1.5158 H   0  0  0  0  0  0  0  0  0  0  0  0
    3.6834   -0.9109   -0.5326 H   0  0  0  0  0  0  0  0  0  0  0  0
    3.0994    0.8818   -0.4315 H   0  0  0  0  0  0  0  0  0  0  0  0
  1  2  1  0
  2  3  1  0
  2  4  1  0
  4  5  1  0
  5  6  1  0
  6  7  1  0
  7  8  1  0
  8  9  1  0
  6  4  1  0
  9  7  1  0
  1 10  1  0
  1 11  1  0
  1 12  1  0
  2 13  1  0
  3 14  1  0
  4 15  1  0
  6 16  1  0
  7 17  1  0
  8 18  1  0
  8 19  1  0
  9 20  1  0
  9 21  1  0
M  END
