
     RDKit          3D

 18 19  0  0  0  0  0  0  0  0999 V2000
   -1.6159    0.5481   -0.5846 C   0  0  0  0  0  0  0  0  0  0  0  0
   -1.0809   -0.4267    0.4264 C   0  0  0  0  0  0  0  0  0  0  0  0
   -1.5947   -0.0685    1.6706 O   0  0  0  0  0  0  0  0  0  0  0  0
    0.3936   -0.4657    0.5170 C   0  0  0  0  0  0  0  0  0  0  0  0
    1.1387   -0.8454   -0.7436 C   0  0  0  0  0  0  0  0  0  0  0  0
    1.8837    0.4885   -0.5939 C   0  0  0  0  0  0  0  0  0  0  0  0
    2.5511    0.6322    0.6057 O   0  0  0  0  0  0  0  0  0  0  0  0
    1.1140    0.8606    0.4448 C   0  0  0  0  0  0  0  0  0  0  0  0
   -2.7383    0.4252   -0.5744 H   0  0  0  0  0  0  0  0  0  0  0  0
   -1.4509    1.6077   -0.2839 H   0  0  0  0  0  0  0  0  0  0  0  0
   -1.2693    0.3462   -1.6120 H   0  0  0  0  0  0  0  0  0  0  0  0
   -1.4423   -1.4401    0.1160 H   0  0  0  0  0  0  0  0  0  0  0  0
   -2.1746   -0.7924    2.0465 H   0  0  0  0  0  0  0  0  0  0  0  0
    0.7460   -1.0337    1.3850 H   0  0  0  0  0  0  0  0  0  0  0  0
    1.8871   -1.6642   -0.6109 H   0  0  0  0  0  0  0  0  0  0  0  0
    0.5585   -0.8586   -1.6651 H   0  0  0  0  0  0  0  0  0  0  0  0
    2.3564    0.9382   -1.4601 H   0  0  0  0  0  0  0  0  0  0  0  0
    0.7379    1.7485    0.9166 H   0  0  0  0  0  0  0  0  0  0  0  0
  1  2  1  0
  2  3  1  0
  2  4  1  0
  4  5  1  0
  5  6  1  0
  6  7  1  0
  7  8  1  0
  8  4  1  0
  8  6  1  0
  1  9  1  0
  1 10  1  0
  1 11  1  0
  2 12  1  0
  3 13  1  0
  4 14  1  0
  5 15  1  0
  5 16  1  0
  6 17  1  0
  8 18  1  0
M  END
