
     RDKit          3D

 19 18  0  0  0  0  0  0  0  0999 V2000
    2.3605    0.2353   -0.0128 C   0  0  0  0  0  0  0  0  0  0  0  0
    0.9380   -0.2740    0.0595 C   0  0  0  0  0  0  0  0  0  0  0  0
    0.6627   -1.0070   -1.1060 O   0  0  0  0  0  0  0  0  0  0  0  0
   -0.0405    0.8840    0.1437 C   0  0  0  0  0  0  0  0  0  0  0  0
   -1.4646    0.4083    0.2169 C   0  0  0  0  0  0  0  0  0  0  0  0
   -1.7540   -0.4423    1.3757 C   0  0  0  0  0  0  0  0  0  0  0  0
   -2.5791   -1.3288    1.2793 O   0  0  0  0  0  0  0  0  0  0  0  0
   -1.7658   -0.2747   -1.0806 C   0  0  0  0  0  0  0  0  0  0  0  0
   -1.7752    0.3841   -2.1038 O   0  0  0  0  0  0  0  0  0  0  0  0
    2.8552    0.2593    0.9700 H   0  0  0  0  0  0  0  0  0  0  0  0
    2.9823   -0.3270   -0.7301 H   0  0  0  0  0  0  0  0  0  0  0  0
    2.3048    1.3016   -0.3564 H   0  0  0  0  0  0  0  0  0  0  0  0
    0.8694   -0.9441    0.9134 H   0  0  0  0  0  0  0  0  0  0  0  0
    1.4951   -1.4914   -1.3210 H   0  0  0  0  0  0  0  0  0  0  0  0
    0.1934    1.4523    1.0676 H   0  0  0  0  0  0  0  0  0  0  0  0
    0.0959    1.5279   -0.7467 H   0  0  0  0  0  0  0  0  0  0  0  0
   -2.1378    1.2887    0.2624 H   0  0  0  0  0  0  0  0  0  0  0  0
   -1.2624   -0.3196    2.3291 H   0  0  0  0  0  0  0  0  0  0  0  0
   -1.9778   -1.3324   -1.1602 H   0  0  0  0  0  0  0  0  0  0  0  0
  1  2  1  0
  2  3  1  0
  2  4  1  0
  4  5  1  0
  5  6  1  0
  6  7  2  0
  5  8  1  0
  8  9  2  0
  1 10  1  0
  1 11  1  0
  1 12  1  0
  2 13  1  0
  3 14  1  0
  4 15  1  0
  4 16  1  0
  5 17  1  0
  6 18  1  0
  8 19  1  0
M  END
