
     RDKit          3D

 21 21  0  0  0  0  0  0  0  0999 V2000
   -2.5772    0.1225    0.6873 C   0  0  0  0  0  0  0  0  0  0  0  0
   -1.5035    0.1240   -0.3728 C   0  0  0  0  0  0  0  0  0  0  0  0
   -1.9050   -0.7949   -1.3554 O   0  0  0  0  0  0  0  0  0  0  0  0
   -0.1687   -0.3657    0.2043 C   0  0  0  0  0  0  0  0  0  0  0  0
   -0.3965   -1.6067    0.7383 O   0  0  0  0  0  0  0  0  0  0  0  0
    0.8657   -0.3659   -0.8881 C   0  0  0  0  0  0  0  0  0  0  0  0
    1.0817    0.9972   -1.4385 O   0  0  0  0  0  0  0  0  0  0  0  0
    2.1634    0.2224   -0.7846 C   0  0  0  0  0  0  0  0  0  0  0  0
    2.7202    0.8948    0.4223 C   0  0  0  0  0  0  0  0  0  0  0  0
   -2.4984   -0.7574    1.3612 H   0  0  0  0  0  0  0  0  0  0  0  0
   -2.5596    1.0727    1.2573 H   0  0  0  0  0  0  0  0  0  0  0  0
   -3.5661    0.0234    0.1698 H   0  0  0  0  0  0  0  0  0  0  0  0
   -1.4205    1.1421   -0.7783 H   0  0  0  0  0  0  0  0  0  0  0  0
   -2.3402   -1.5816   -0.9528 H   0  0  0  0  0  0  0  0  0  0  0  0
    0.0964    0.3546    1.0059 H   0  0  0  0  0  0  0  0  0  0  0  0
   -0.2380   -1.6802    1.7112 H   0  0  0  0  0  0  0  0  0  0  0  0
    0.6438   -1.0563   -1.7174 H   0  0  0  0  0  0  0  0  0  0  0  0
    2.9181   -0.0331   -1.5565 H   0  0  0  0  0  0  0  0  0  0  0  0
    3.8173    1.0490    0.3505 H   0  0  0  0  0  0  0  0  0  0  0  0
    2.2962    1.9317    0.5678 H   0  0  0  0  0  0  0  0  0  0  0  0
    2.5709    0.3072    1.3684 H   0  0  0  0  0  0  0  0  0  0  0  0
  1  2  1  0
  2  3  1  0
  2  4  1  0
  4  5  1  0
  4  6  1  0
  6  7  1  0
  7  8  1  0
  8  9  1  0
  8  6  1  0
  1 10  1  0
  1 11  1  0
  1 12  1  0
  2 13  1  0
  3 14  1  0
  4 15  1  0
  5 16  1  0
  6 17  1  0
  8 18  1  0
  9 19  1  0
  9 20  1  0
  9 21  1  0
M  END
