
     RDKit          3D

 25 25  0  0  0  0  0  0  0  0999 V2000
   -3.4223    0.1651   -0.3647 C   0  0  0  0  0  0  0  0  0  0  0  0
   -2.1229    0.0423    0.4333 C   0  0  0  0  0  0  0  0  0  0  0  0
   -1.5352    1.2696    0.6062 O   0  0  0  0  0  0  0  0  0  0  0  0
   -1.2377   -0.9181   -0.3034 C   0  0  0  0  0  0  0  0  0  0  0  0
    0.0866   -1.2076    0.3031 C   0  0  0  0  0  0  0  0  0  0  0  0
    1.0336   -0.0780    0.4726 C   0  0  0  0  0  0  0  0  0  0  0  0
    2.3600   -0.5372    1.1037 C   0  0  0  0  0  0  0  0  0  0  0  0
    2.3119   -0.0028   -0.2842 C   0  0  0  0  0  0  0  0  0  0  0  0
    2.9406    1.3419   -0.4702 C   0  0  0  0  0  0  0  0  0  0  0  0
   -3.1737    0.2904   -1.4326 H   0  0  0  0  0  0  0  0  0  0  0  0
   -4.0725   -0.7035   -0.2442 H   0  0  0  0  0  0  0  0  0  0  0  0
   -3.9341    1.0592    0.0199 H   0  0  0  0  0  0  0  0  0  0  0  0
   -2.3697   -0.3901    1.4403 H   0  0  0  0  0  0  0  0  0  0  0  0
   -2.0107    2.0283    0.2303 H   0  0  0  0  0  0  0  0  0  0  0  0
   -1.8379   -1.8621   -0.4204 H   0  0  0  0  0  0  0  0  0  0  0  0
   -1.1240   -0.5417   -1.3679 H   0  0  0  0  0  0  0  0  0  0  0  0
    0.5764   -2.1112   -0.1728 H   0  0  0  0  0  0  0  0  0  0  0  0
   -0.1485   -1.5948    1.3471 H   0  0  0  0  0  0  0  0  0  0  0  0
    0.6312    0.8715    0.8493 H   0  0  0  0  0  0  0  0  0  0  0  0
    2.7155    0.0870    1.9430 H   0  0  0  0  0  0  0  0  0  0  0  0
    2.5806   -1.5999    1.1925 H   0  0  0  0  0  0  0  0  0  0  0  0
    2.4885   -0.7130   -1.1318 H   0  0  0  0  0  0  0  0  0  0  0  0
    3.9757    1.3038   -0.0763 H   0  0  0  0  0  0  0  0  0  0  0  0
    2.3968    2.0870    0.1778 H   0  0  0  0  0  0  0  0  0  0  0  0
    2.8917    1.7137   -1.5118 H   0  0  0  0  0  0  0  0  0  0  0  0
  1  2  1  0
  2  3  1  0
  2  4  1  0
  4  5  1  0
  5  6  1  0
  6  7  1  0
  7  8  1  0
  8  9  1  0
  8  6  1  0
  1 10  1  0
  1 11  1  0
  1 12  1  0
  2 13  1  0
  3 14  1  0
  4 15  1  0
  4 16  1  0
  5 17  1  0
  5 18  1  0
  6 19  1  0
  7 20  1  0
  7 21  1  0
  8 22  1  0
  9 23  1  0
  9 24  1  0
  9 25  1  0
M  END
