
     RDKit          3D

 17 17  0  0  0  0  0  0  0  0999 V2000
    1.9478   -0.9703   -0.0634 C   0  0  0  0  0  0  0  0  0  0  0  0
    1.0006    0.1691   -0.1061 C   0  0  0  0  0  0  0  0  0  0  0  0
    1.2017    0.9564    1.0329 O   0  0  0  0  0  0  0  0  0  0  0  0
   -0.4456   -0.2381   -0.2538 C   0  0  0  0  0  0  0  0  0  0  0  0
   -1.3968    0.9594   -0.2945 C   0  0  0  0  0  0  0  0  0  0  0  0
   -1.4293   -0.0688    0.8066 C   0  0  0  0  0  0  0  0  0  0  0  0
   -2.5605   -0.9060    0.7407 O   0  0  0  0  0  0  0  0  0  0  0  0
    1.5229   -1.9451   -0.3251 H   0  0  0  0  0  0  0  0  0  0  0  0
    2.4779   -1.0846    0.9241 H   0  0  0  0  0  0  0  0  0  0  0  0
    2.7743   -0.7828   -0.7965 H   0  0  0  0  0  0  0  0  0  0  0  0
    1.2195    0.8383   -0.9897 H   0  0  0  0  0  0  0  0  0  0  0  0
    1.5433    1.8618    0.8125 H   0  0  0  0  0  0  0  0  0  0  0  0
   -0.6239   -0.9600   -1.0589 H   0  0  0  0  0  0  0  0  0  0  0  0
   -2.1926    0.9762   -1.0499 H   0  0  0  0  0  0  0  0  0  0  0  0
   -1.0117    1.9490    0.0147 H   0  0  0  0  0  0  0  0  0  0  0  0
   -1.1207    0.1881    1.8268 H   0  0  0  0  0  0  0  0  0  0  0  0
   -2.9069   -0.9425   -0.1793 H   0  0  0  0  0  0  0  0  0  0  0  0
  1  2  1  0
  2  3  1  0
  2  4  1  0
  4  5  1  0
  5  6  1  0
  6  7  1  0
  6  4  1  0
  1  8  1  0
  1  9  1  0
  1 10  1  0
  2 11  1  0
  3 12  1  0
  4 13  1  0
  5 14  1  0
  5 15  1  0
  6 16  1  0
  7 17  1  0
M  END
