
     RDKit          3D

 21 20  0  0  0  0  0  0  0  0999 V2000
   -0.8630    1.1262    0.6065 C   0  0  0  0  0  0  0  0  0  0  0  0
   -1.0250    0.0200   -0.3564 C   0  0  0  0  0  0  0  0  0  0  0  0
   -1.0051    0.6183   -1.6544 O   0  0  0  0  0  0  0  0  0  0  0  0
   -2.4318   -0.5350   -0.1515 C   0  0  0  0  0  0  0  0  0  0  0  0
   -3.2650   -0.4172   -1.0098 O   0  0  0  0  0  0  0  0  0  0  0  0
   -0.0715   -1.0941   -0.3753 C   0  0  0  0  0  0  0  0  0  0  0  0
    1.3586   -0.8810   -0.6890 C   0  0  0  0  0  0  0  0  0  0  0  0
    2.2018   -0.0092    0.1412 C   0  0  0  0  0  0  0  0  0  0  0  0
    1.9214    1.3163    0.2288 O   0  0  0  0  0  0  0  0  0  0  0  0
   -1.9054    1.3932    1.0300 H   0  0  0  0  0  0  0  0  0  0  0  0
   -0.3178    0.8585    1.5258 H   0  0  0  0  0  0  0  0  0  0  0  0
   -0.5680    2.1127    0.1730 H   0  0  0  0  0  0  0  0  0  0  0  0
   -1.6637    1.3537   -1.6064 H   0  0  0  0  0  0  0  0  0  0  0  0
   -2.5777   -1.0205    0.8086 H   0  0  0  0  0  0  0  0  0  0  0  0
   -0.4347   -1.8134   -1.1998 H   0  0  0  0  0  0  0  0  0  0  0  0
   -0.1907   -1.7685    0.5370 H   0  0  0  0  0  0  0  0  0  0  0  0
    1.4255   -0.5068   -1.7590 H   0  0  0  0  0  0  0  0  0  0  0  0
    1.9030   -1.8932   -0.7549 H   0  0  0  0  0  0  0  0  0  0  0  0
    2.1458   -0.4101    1.2084 H   0  0  0  0  0  0  0  0  0  0  0  0
    3.2752   -0.1866   -0.2094 H   0  0  0  0  0  0  0  0  0  0  0  0
    2.0880    1.7368    1.0886 H   0  0  0  0  0  0  0  0  0  0  0  0
  1  2  1  0
  2  3  1  0
  2  4  1  0
  4  5  2  0
  2  6  1  0
  6  7  1  0
  7  8  1  0
  8  9  1  0
  1 10  1  0
  1 11  1  0
  1 12  1  0
  3 13  1  0
  4 14  1  0
  6 15  1  0
  6 16  1  0
  7 17  1  0
  7 18  1  0
  8 19  1  0
  8 20  1  0
  9 21  1  0
M  END
