
     RDKit          3D

 25 25  0  0  0  0  0  0  0  0999 V2000
    2.4068    0.2487    0.5783 C   0  0  0  0  0  0  0  0  0  0  0  0
    1.3510    0.7705   -0.3551 C   0  0  0  0  0  0  0  0  0  0  0  0
    1.0351    2.0666    0.0597 O   0  0  0  0  0  0  0  0  0  0  0  0
    0.1434   -0.1524   -0.2055 C   0  0  0  0  0  0  0  0  0  0  0  0
    0.5365   -1.5455   -0.5697 C   0  0  0  0  0  0  0  0  0  0  0  0
   -0.4591   -0.0048    1.1476 C   0  0  0  0  0  0  0  0  0  0  0  0
   -1.9536   -0.2566    1.0088 C   0  0  0  0  0  0  0  0  0  0  0  0
   -2.2473   -0.0670   -0.4474 C   0  0  0  0  0  0  0  0  0  0  0  0
   -0.9622    0.2902   -1.1284 C   0  0  0  0  0  0  0  0  0  0  0  0
    1.9057   -0.0868    1.5025 H   0  0  0  0  0  0  0  0  0  0  0  0
    2.9133   -0.6103    0.1213 H   0  0  0  0  0  0  0  0  0  0  0  0
    3.0925    1.0671    0.8650 H   0  0  0  0  0  0  0  0  0  0  0  0
    1.6883    0.7601   -1.4274 H   0  0  0  0  0  0  0  0  0  0  0  0
    1.2283    2.7464   -0.6225 H   0  0  0  0  0  0  0  0  0  0  0  0
   -0.4080   -2.0911   -0.8464 H   0  0  0  0  0  0  0  0  0  0  0  0
    1.0687   -2.0861    0.2337 H   0  0  0  0  0  0  0  0  0  0  0  0
    1.1354   -1.5056   -1.5033 H   0  0  0  0  0  0  0  0  0  0  0  0
   -0.0124   -0.6345    1.9299 H   0  0  0  0  0  0  0  0  0  0  0  0
   -0.3469    1.0743    1.4621 H   0  0  0  0  0  0  0  0  0  0  0  0
   -2.5240    0.4444    1.6466 H   0  0  0  0  0  0  0  0  0  0  0  0
   -2.1860   -1.2957    1.3698 H   0  0  0  0  0  0  0  0  0  0  0  0
   -2.9619    0.7565   -0.5631 H   0  0  0  0  0  0  0  0  0  0  0  0
   -2.6636   -1.0414   -0.8245 H   0  0  0  0  0  0  0  0  0  0  0  0
   -0.8429    1.3674   -1.3169 H   0  0  0  0  0  0  0  0  0  0  0  0
   -0.9370   -0.2145   -2.1150 H   0  0  0  0  0  0  0  0  0  0  0  0
  1  2  1  0
  2  3  1  0
  2  4  1  0
  4  5  1  0
  4  6  1  0
  6  7  1  0
  7  8  1  0
  8  9  1  0
  9  4  1  0
  1 10  1  0
  1 11  1  0
  1 12  1  0
  2 13  1  0
  3 14  1  0
  5 15  1  0
  5 16  1  0
  5 17  1  0
  6 18  1  0
  6 19  1  0
  7 20  1  0
  7 21  1  0
  8 22  1  0
  8 23  1  0
  9 24  1  0
  9 25  1  0
M  END
