
     RDKit          3D

 19 19  0  0  0  0  0  0  0  0999 V2000
   -2.3947    0.9293   -0.6037 C   0  0  0  0  0  0  0  0  0  0  0  0
   -1.1777    0.6817    0.2821 C   0  0  0  0  0  0  0  0  0  0  0  0
   -1.5783    0.4563    1.5819 O   0  0  0  0  0  0  0  0  0  0  0  0
   -0.3649   -0.4642   -0.2784 C   0  0  0  0  0  0  0  0  0  0  0  0
    0.8311   -0.7256    0.5702 C   0  0  0  0  0  0  0  0  0  0  0  0
    1.5918   -1.8568   -0.0248 O   0  0  0  0  0  0  0  0  0  0  0  0
    2.2004   -0.5836    0.2126 C   0  0  0  0  0  0  0  0  0  0  0  0
    2.7248    0.0951   -0.9692 C   0  0  0  0  0  0  0  0  0  0  0  0
    2.0122    0.2786   -1.9401 O   0  0  0  0  0  0  0  0  0  0  0  0
   -3.0756    0.0800   -0.6299 H   0  0  0  0  0  0  0  0  0  0  0  0
   -2.0033    1.0781   -1.6382 H   0  0  0  0  0  0  0  0  0  0  0  0
   -2.8556    1.8684   -0.2252 H   0  0  0  0  0  0  0  0  0  0  0  0
   -0.5935    1.6253    0.2677 H   0  0  0  0  0  0  0  0  0  0  0  0
   -1.4165   -0.4866    1.7931 H   0  0  0  0  0  0  0  0  0  0  0  0
   -1.0182   -1.3842   -0.2125 H   0  0  0  0  0  0  0  0  0  0  0  0
   -0.1527   -0.3409   -1.3538 H   0  0  0  0  0  0  0  0  0  0  0  0
    0.5718   -1.0140    1.6203 H   0  0  0  0  0  0  0  0  0  0  0  0
    2.9547   -0.6939    1.0414 H   0  0  0  0  0  0  0  0  0  0  0  0
    3.7441    0.4569   -1.0353 H   0  0  0  0  0  0  0  0  0  0  0  0
  1  2  1  0
  2  3  1  0
  2  4  1  0
  4  5  1  0
  5  6  1  0
  6  7  1  0
  7  8  1  0
  8  9  2  0
  7  5  1  0
  1 10  1  0
  1 11  1  0
  1 12  1  0
  2 13  1  0
  3 14  1  0
  4 15  1  0
  4 16  1  0
  5 17  1  0
  7 18  1  0
  8 19  1  0
M  END
