
     RDKit          3D

 20 19  0  0  0  0  0  0  0  0999 V2000
    2.0697   -0.3889    0.5414 C   0  0  0  0  0  0  0  0  0  0  0  0
    1.3519   -0.2133   -0.7812 C   0  0  0  0  0  0  0  0  0  0  0  0
    2.1815    0.6104   -1.5666 O   0  0  0  0  0  0  0  0  0  0  0  0
    0.0549    0.5242   -0.6263 C   0  0  0  0  0  0  0  0  0  0  0  0
   -0.9386   -0.1280    0.2691 C   0  0  0  0  0  0  0  0  0  0  0  0
   -2.1709    0.7827    0.2821 C   0  0  0  0  0  0  0  0  0  0  0  0
   -1.3856   -1.4558   -0.1383 C   0  0  0  0  0  0  0  0  0  0  0  0
   -1.3001   -1.9333   -1.2533 O   0  0  0  0  0  0  0  0  0  0  0  0
    3.0619   -0.8651    0.2959 H   0  0  0  0  0  0  0  0  0  0  0  0
    2.3387    0.6321    0.9199 H   0  0  0  0  0  0  0  0  0  0  0  0
    1.5000   -0.9602    1.2736 H   0  0  0  0  0  0  0  0  0  0  0  0
    1.2758   -1.1685   -1.3037 H   0  0  0  0  0  0  0  0  0  0  0  0
    1.9553    1.5526   -1.3767 H   0  0  0  0  0  0  0  0  0  0  0  0
   -0.3841    0.7162   -1.6210 H   0  0  0  0  0  0  0  0  0  0  0  0
    0.2944    1.5223   -0.1968 H   0  0  0  0  0  0  0  0  0  0  0  0
   -0.5492   -0.1079    1.3158 H   0  0  0  0  0  0  0  0  0  0  0  0
   -2.8855    0.4585   -0.5274 H   0  0  0  0  0  0  0  0  0  0  0  0
   -2.7217    0.6864    1.2423 H   0  0  0  0  0  0  0  0  0  0  0  0
   -1.9088    1.8255    0.0713 H   0  0  0  0  0  0  0  0  0  0  0  0
   -1.8396   -2.0898    0.6129 H   0  0  0  0  0  0  0  0  0  0  0  0
  1  2  1  0
  2  3  1  0
  2  4  1  0
  4  5  1  0
  5  6  1  0
  5  7  1  0
  7  8  2  0
  1  9  1  0
  1 10  1  0
  1 11  1  0
  2 12  1  0
  3 13  1  0
  4 14  1  0
  4 15  1  0
  5 16  1  0
  6 17  1  0
  6 18  1  0
  6 19  1  0
  7 20  1  0
M  END
