
     RDKit          3D

 23 23  0  0  0  0  0  0  0  0999 V2000
    2.5444   -0.0120   -0.1971 C   0  0  0  0  0  0  0  0  0  0  0  0
    1.2326    0.5643    0.3608 C   0  0  0  0  0  0  0  0  0  0  0  0
    0.7916    1.4540   -0.6049 O   0  0  0  0  0  0  0  0  0  0  0  0
    0.3160   -0.5753    0.6203 C   0  0  0  0  0  0  0  0  0  0  0  0
   -0.0255   -1.4010   -0.6005 C   0  0  0  0  0  0  0  0  0  0  0  0
   -1.4378   -1.4965   -0.0781 C   0  0  0  0  0  0  0  0  0  0  0  0
   -1.1180   -0.3578    0.8645 C   0  0  0  0  0  0  0  0  0  0  0  0
   -1.7638    0.9141    0.4009 C   0  0  0  0  0  0  0  0  0  0  0  0
   -1.2250    2.0514    0.9540 O   0  0  0  0  0  0  0  0  0  0  0  0
    2.9649   -0.7463    0.5049 H   0  0  0  0  0  0  0  0  0  0  0  0
    3.2079    0.8667   -0.3368 H   0  0  0  0  0  0  0  0  0  0  0  0
    2.3382   -0.4308   -1.2002 H   0  0  0  0  0  0  0  0  0  0  0  0
    1.5069    1.0380    1.3169 H   0  0  0  0  0  0  0  0  0  0  0  0
    1.2902    2.3141   -0.4391 H   0  0  0  0  0  0  0  0  0  0  0  0
    0.7598   -1.1938    1.4587 H   0  0  0  0  0  0  0  0  0  0  0  0
    0.5174   -2.3527   -0.6946 H   0  0  0  0  0  0  0  0  0  0  0  0
    0.0144   -0.7583   -1.5047 H   0  0  0  0  0  0  0  0  0  0  0  0
   -2.2200   -1.2393   -0.8349 H   0  0  0  0  0  0  0  0  0  0  0  0
   -1.6854   -2.4546    0.4237 H   0  0  0  0  0  0  0  0  0  0  0  0
   -1.5193   -0.6216    1.8677 H   0  0  0  0  0  0  0  0  0  0  0  0
   -2.8333    0.8688    0.7043 H   0  0  0  0  0  0  0  0  0  0  0  0
   -1.7718    0.9220   -0.7166 H   0  0  0  0  0  0  0  0  0  0  0  0
   -1.8846    2.6467    1.3794 H   0  0  0  0  0  0  0  0  0  0  0  0
  1  2  1  0
  2  3  1  0
  2  4  1  0
  4  5  1  0
  5  6  1  0
  6  7  1  0
  7  8  1  0
  8  9  1  0
  7  4  1  0
  1 10  1  0
  1 11  1  0
  1 12  1  0
  2 13  1  0
  3 14  1  0
  4 15  1  0
  5 16  1  0
  5 17  1  0
  6 18  1  0
  6 19  1  0
  7 20  1  0
  8 21  1  0
  8 22  1  0
  9 23  1  0
M  END
