
     RDKit          3D

 21 22  0  0  0  0  0  0  0  0999 V2000
   -2.4410    0.0024    0.7356 C   0  0  0  0  0  0  0  0  0  0  0  0
   -1.5592   -0.1484   -0.4885 C   0  0  0  0  0  0  0  0  0  0  0  0
   -1.3852   -1.5368   -0.6648 O   0  0  0  0  0  0  0  0  0  0  0  0
   -0.2640    0.5341   -0.1893 C   0  0  0  0  0  0  0  0  0  0  0  0
    0.7585    0.4740   -1.3439 C   0  0  0  0  0  0  0  0  0  0  0  0
    1.6801    0.7982   -0.1584 C   0  0  0  0  0  0  0  0  0  0  0  0
    2.0867   -0.0661    0.8864 C   0  0  0  0  0  0  0  0  0  0  0  0
    3.2111   -0.8891    0.6240 O   0  0  0  0  0  0  0  0  0  0  0  0
    0.7919   -0.3968    0.4027 C   0  0  0  0  0  0  0  0  0  0  0  0
   -2.2930   -0.8163    1.4685 H   0  0  0  0  0  0  0  0  0  0  0  0
   -2.1951    0.9447    1.2904 H   0  0  0  0  0  0  0  0  0  0  0  0
   -3.5114    0.0647    0.4590 H   0  0  0  0  0  0  0  0  0  0  0  0
   -2.0905    0.2568   -1.3681 H   0  0  0  0  0  0  0  0  0  0  0  0
   -2.2300   -1.9741   -0.3888 H   0  0  0  0  0  0  0  0  0  0  0  0
   -0.3012    1.4817    0.3419 H   0  0  0  0  0  0  0  0  0  0  0  0
    0.8485   -0.5330   -1.7461 H   0  0  0  0  0  0  0  0  0  0  0  0
    0.6848    1.3029   -2.0531 H   0  0  0  0  0  0  0  0  0  0  0  0
    1.3373    1.8206    0.2075 H   0  0  0  0  0  0  0  0  0  0  0  0
    2.1395    0.2827    1.9624 H   0  0  0  0  0  0  0  0  0  0  0  0
    3.9358   -0.2876    0.2924 H   0  0  0  0  0  0  0  0  0  0  0  0
    0.7963   -1.3148   -0.2697 H   0  0  0  0  0  0  0  0  0  0  0  0
  1  2  1  0
  2  3  1  0
  2  4  1  0
  4  5  1  0
  5  6  1  0
  6  7  1  0
  7  8  1  0
  7  9  1  0
  9  4  1  0
  9  6  1  0
  1 10  1  0
  1 11  1  0
  1 12  1  0
  2 13  1  0
  3 14  1  0
  4 15  1  0
  5 16  1  0
  5 17  1  0
  6 18  1  0
  7 19  1  0
  8 20  1  0
  9 21  1  0
M  END
