
     RDKit          3D

 23 24  0  0  0  0  0  0  0  0999 V2000
    2.3216   -0.2528   -0.0154 C   0  0  0  0  0  0  0  0  0  0  0  0
    1.0252   -0.0136   -0.8297 C   0  0  0  0  0  0  0  0  0  0  0  0
    0.6192   -1.2481   -1.3101 O   0  0  0  0  0  0  0  0  0  0  0  0
    0.1018    0.6625    0.1163 C   0  0  0  0  0  0  0  0  0  0  0  0
   -0.2126   -0.1564    1.3022 C   0  0  0  0  0  0  0  0  0  0  0  0
   -1.2516   -1.1119    0.6636 C   0  0  0  0  0  0  0  0  0  0  0  0
   -1.7617   -0.3324   -0.5349 C   0  0  0  0  0  0  0  0  0  0  0  0
   -1.3710    1.0166   -0.1964 C   0  0  0  0  0  0  0  0  0  0  0  0
   -0.3299    1.9457   -0.3348 C   0  0  0  0  0  0  0  0  0  0  0  0
    3.1977   -0.2380   -0.7026 H   0  0  0  0  0  0  0  0  0  0  0  0
    2.4141    0.6000    0.6827 H   0  0  0  0  0  0  0  0  0  0  0  0
    2.2201   -1.2157    0.5075 H   0  0  0  0  0  0  0  0  0  0  0  0
    1.4084    0.6493   -1.6566 H   0  0  0  0  0  0  0  0  0  0  0  0
    1.1903   -1.9742   -0.9613 H   0  0  0  0  0  0  0  0  0  0  0  0
   -0.6688    0.4214    2.1116 H   0  0  0  0  0  0  0  0  0  0  0  0
    0.6594   -0.7067    1.6730 H   0  0  0  0  0  0  0  0  0  0  0  0
   -2.0928   -1.2047    1.3716 H   0  0  0  0  0  0  0  0  0  0  0  0
   -0.7861   -2.0653    0.3952 H   0  0  0  0  0  0  0  0  0  0  0  0
   -2.9106   -0.3901   -0.5391 H   0  0  0  0  0  0  0  0  0  0  0  0
   -1.5122   -0.7638   -1.5077 H   0  0  0  0  0  0  0  0  0  0  0  0
   -2.0123    1.2842    0.7295 H   0  0  0  0  0  0  0  0  0  0  0  0
   -0.1683    2.7870    0.3877 H   0  0  0  0  0  0  0  0  0  0  0  0
   -0.0801    2.3066   -1.3520 H   0  0  0  0  0  0  0  0  0  0  0  0
  1  2  1  0
  2  3  1  0
  2  4  1  0
  4  5  1  0
  5  6  1  0
  6  7  1  0
  7  8  1  0
  8  9  1  0
  8  4  1  0
  9  4  1  0
  1 10  1  0
  1 11  1  0
  1 12  1  0
  2 13  1  0
  3 14  1  0
  5 15  1  0
  5 16  1  0
  6 17  1  0
  6 18  1  0
  7 19  1  0
  7 20  1  0
  8 21  1  0
  9 22  1  0
  9 23  1  0
M  END
