
     RDKit          3D

 21 21  0  0  0  0  0  0  0  0999 V2000
   -1.6029   -1.0638   -0.6563 C   0  0  0  0  0  0  0  0  0  0  0  0
   -1.0132    0.1470    0.0778 C   0  0  0  0  0  0  0  0  0  0  0  0
   -1.1599   -0.1155    1.4315 O   0  0  0  0  0  0  0  0  0  0  0  0
   -1.7139    1.3689   -0.3567 C   0  0  0  0  0  0  0  0  0  0  0  0
   -1.6520    1.6911   -1.5171 O   0  0  0  0  0  0  0  0  0  0  0  0
    0.4208    0.2441   -0.3211 C   0  0  0  0  0  0  0  0  0  0  0  0
    1.2143   -1.0139    0.0538 C   0  0  0  0  0  0  0  0  0  0  0  0
    2.3973   -0.0629    0.2677 C   0  0  0  0  0  0  0  0  0  0  0  0
    1.3360    1.0023    0.5813 C   0  0  0  0  0  0  0  0  0  0  0  0
   -0.9656   -1.3353   -1.5236 H   0  0  0  0  0  0  0  0  0  0  0  0
   -1.6240   -1.9534    0.0163 H   0  0  0  0  0  0  0  0  0  0  0  0
   -2.6238   -0.8088   -1.0062 H   0  0  0  0  0  0  0  0  0  0  0  0
   -2.1129   -0.2345    1.6522 H   0  0  0  0  0  0  0  0  0  0  0  0
   -2.2635    1.9513    0.3505 H   0  0  0  0  0  0  0  0  0  0  0  0
    0.5401    0.5321   -1.3712 H   0  0  0  0  0  0  0  0  0  0  0  0
    1.2928   -1.6629   -0.8144 H   0  0  0  0  0  0  0  0  0  0  0  0
    0.8603   -1.5099    0.9628 H   0  0  0  0  0  0  0  0  0  0  0  0
    2.9093    0.1410   -0.6976 H   0  0  0  0  0  0  0  0  0  0  0  0
    3.0192   -0.3558    1.1092 H   0  0  0  0  0  0  0  0  0  0  0  0
    1.6678    1.9766    0.1170 H   0  0  0  0  0  0  0  0  0  0  0  0
    1.0738    1.0624    1.6440 H   0  0  0  0  0  0  0  0  0  0  0  0
  1  2  1  0
  2  3  1  0
  2  4  1  0
  4  5  2  0
  2  6  1  0
  6  7  1  0
  7  8  1  0
  8  9  1  0
  9  6  1  0
  1 10  1  0
  1 11  1  0
  1 12  1  0
  3 13  1  0
  4 14  1  0
  6 15  1  0
  7 16  1  0
  7 17  1  0
  8 18  1  0
  8 19  1  0
  9 20  1  0
  9 21  1  0
M  END
