
     RDKit          3D

 19 20  0  0  0  0  0  0  0  0999 V2000
    1.9513    0.6433   -0.2688 C   0  0  0  0  0  0  0  0  0  0  0  0
    1.3346   -0.2986    0.7294 C   0  0  0  0  0  0  0  0  0  0  0  0
    1.5754   -1.6017    0.3715 O   0  0  0  0  0  0  0  0  0  0  0  0
   -0.1419   -0.0485    0.9240 C   0  0  0  0  0  0  0  0  0  0  0  0
   -0.8129    1.1088    0.3078 C   0  0  0  0  0  0  0  0  0  0  0  0
   -2.1715    0.6756   -0.0470 C   0  0  0  0  0  0  0  0  0  0  0  0
   -2.3016   -0.6170    0.1137 C   0  0  0  0  0  0  0  0  0  0  0  0
   -1.0387   -1.1992    0.5981 C   0  0  0  0  0  0  0  0  0  0  0  0
   -0.7133   -0.8263    1.9005 O   0  0  0  0  0  0  0  0  0  0  0  0
    1.8377    1.6972    0.0256 H   0  0  0  0  0  0  0  0  0  0  0  0
    3.0308    0.3924   -0.3282 H   0  0  0  0  0  0  0  0  0  0  0  0
    1.5330    0.4201   -1.2794 H   0  0  0  0  0  0  0  0  0  0  0  0
    1.8314   -0.1146    1.7056 H   0  0  0  0  0  0  0  0  0  0  0  0
    2.0711   -1.6972   -0.4975 H   0  0  0  0  0  0  0  0  0  0  0  0
   -0.3406    1.4244   -0.6662 H   0  0  0  0  0  0  0  0  0  0  0  0
   -0.8098    2.0240    0.9509 H   0  0  0  0  0  0  0  0  0  0  0  0
   -2.9990    1.3568   -0.4099 H   0  0  0  0  0  0  0  0  0  0  0  0
   -3.1975   -1.2042   -0.0743 H   0  0  0  0  0  0  0  0  0  0  0  0
   -0.6387   -2.1354    0.1765 H   0  0  0  0  0  0  0  0  0  0  0  0
  1  2  1  0
  2  3  1  0
  2  4  1  0
  4  5  1  0
  5  6  1  0
  6  7  2  0
  7  8  1  0
  8  9  1  0
  8  4  1  0
  9  4  1  0
  1 10  1  0
  1 11  1  0
  1 12  1  0
  2 13  1  0
  3 14  1  0
  5 15  1  0
  5 16  1  0
  6 17  1  0
  7 18  1  0
  8 19  1  0
M  END
