
     RDKit          3D

 23 23  0  0  0  0  0  0  0  0999 V2000
    2.2627    0.6943   -0.6356 C   0  0  0  0  0  0  0  0  0  0  0  0
    2.0659   -0.3153    0.4652 C   0  0  0  0  0  0  0  0  0  0  0  0
    3.1440   -1.1959    0.4322 O   0  0  0  0  0  0  0  0  0  0  0  0
    0.8215   -1.1467    0.2596 C   0  0  0  0  0  0  0  0  0  0  0  0
   -0.4279   -0.3397    0.2257 C   0  0  0  0  0  0  0  0  0  0  0  0
   -0.5525    0.9611    0.3583 C   0  0  0  0  0  0  0  0  0  0  0  0
   -1.9989    1.3795    0.2610 C   0  0  0  0  0  0  0  0  0  0  0  0
   -2.7188    0.1780   -0.3076 C   0  0  0  0  0  0  0  0  0  0  0  0
   -1.7926   -0.9414    0.0233 C   0  0  0  0  0  0  0  0  0  0  0  0
    2.4979    1.6980   -0.1742 H   0  0  0  0  0  0  0  0  0  0  0  0
    1.3896    0.7483   -1.3191 H   0  0  0  0  0  0  0  0  0  0  0  0
    3.1900    0.4304   -1.1784 H   0  0  0  0  0  0  0  0  0  0  0  0
    2.0409    0.1825    1.4719 H   0  0  0  0  0  0  0  0  0  0  0  0
    3.1876   -1.6275   -0.4563 H   0  0  0  0  0  0  0  0  0  0  0  0
    0.9720   -1.6865   -0.7207 H   0  0  0  0  0  0  0  0  0  0  0  0
    0.7311   -1.9451    1.0230 H   0  0  0  0  0  0  0  0  0  0  0  0
    0.2142    1.7087    0.5207 H   0  0  0  0  0  0  0  0  0  0  0  0
   -2.4030    1.6359    1.2495 H   0  0  0  0  0  0  0  0  0  0  0  0
   -2.1196    2.2657   -0.3941 H   0  0  0  0  0  0  0  0  0  0  0  0
   -3.7217    0.0530    0.1434 H   0  0  0  0  0  0  0  0  0  0  0  0
   -2.8561    0.3420   -1.3914 H   0  0  0  0  0  0  0  0  0  0  0  0
   -2.1432   -1.4170    0.9656 H   0  0  0  0  0  0  0  0  0  0  0  0
   -1.7832   -1.6622   -0.8220 H   0  0  0  0  0  0  0  0  0  0  0  0
  1  2  1  0
  2  3  1  0
  2  4  1  0
  4  5  1  0
  5  6  2  0
  6  7  1  0
  7  8  1  0
  8  9  1  0
  9  5  1  0
  1 10  1  0
  1 11  1  0
  1 12  1  0
  2 13  1  0
  3 14  1  0
  4 15  1  0
  4 16  1  0
  6 17  1  0
  7 18  1  0
  7 19  1  0
  8 20  1  0
  8 21  1  0
  9 22  1  0
  9 23  1  0
M  END
