
     RDKit          3D

 19 19  0  0  0  0  0  0  0  0999 V2000
   -2.6603    0.1678    0.1648 C   0  0  0  0  0  0  0  0  0  0  0  0
   -1.9176   -0.8548   -0.6797 C   0  0  0  0  0  0  0  0  0  0  0  0
   -2.6171   -1.0322   -1.8620 O   0  0  0  0  0  0  0  0  0  0  0  0
   -0.5495   -0.4241   -0.9973 C   0  0  0  0  0  0  0  0  0  0  0  0
   -0.1956   -0.2778   -2.1877 O   0  0  0  0  0  0  0  0  0  0  0  0
    0.4201   -0.1560   -0.0468 O   0  0  0  0  0  0  0  0  0  0  0  0
    1.7175    0.2514   -0.3136 C   0  0  0  0  0  0  0  0  0  0  0  0
    2.4966    1.1690    0.5314 C   0  0  0  0  0  0  0  0  0  0  0  0
    2.8872   -0.3194    0.4382 C   0  0  0  0  0  0  0  0  0  0  0  0
   -3.7347    0.0687   -0.0937 H   0  0  0  0  0  0  0  0  0  0  0  0
   -2.5935   -0.0957    1.2515 H   0  0  0  0  0  0  0  0  0  0  0  0
   -2.3605    1.2003   -0.0506 H   0  0  0  0  0  0  0  0  0  0  0  0
   -1.9380   -1.8005   -0.0987 H   0  0  0  0  0  0  0  0  0  0  0  0
   -2.8209   -0.1571   -2.2725 H   0  0  0  0  0  0  0  0  0  0  0  0
    1.9169    0.3476   -1.4164 H   0  0  0  0  0  0  0  0  0  0  0  0
    2.1854    1.4641    1.5500 H   0  0  0  0  0  0  0  0  0  0  0  0
    3.1899    1.9045    0.0675 H   0  0  0  0  0  0  0  0  0  0  0  0
    3.8496   -0.5016   -0.0899 H   0  0  0  0  0  0  0  0  0  0  0  0
    2.7245   -0.9541    1.3097 H   0  0  0  0  0  0  0  0  0  0  0  0
  1  2  1  0
  2  3  1  0
  2  4  1  0
  4  5  2  0
  4  6  1  0
  6  7  1  0
  7  8  1  0
  8  9  1  0
  9  7  1  0
  1 10  1  0
  1 11  1  0
  1 12  1  0
  2 13  1  0
  3 14  1  0
  7 15  1  0
  8 16  1  0
  8 17  1  0
  9 18  1  0
  9 19  1  0
M  END
