
     RDKit          3D

 21 21  0  0  0  0  0  0  0  0999 V2000
   -2.4318    0.0868   -0.0424 C   0  0  0  0  0  0  0  0  0  0  0  0
   -1.2748   -0.5278    0.6826 C   0  0  0  0  0  0  0  0  0  0  0  0
   -0.9795    0.2914    1.7763 O   0  0  0  0  0  0  0  0  0  0  0  0
   -0.0290   -0.6012   -0.1658 C   0  0  0  0  0  0  0  0  0  0  0  0
    0.4088    0.7599   -0.6065 C   0  0  0  0  0  0  0  0  0  0  0  0
    1.8968    0.8603   -0.3709 C   0  0  0  0  0  0  0  0  0  0  0  0
    2.2845   -0.5180    0.0106 C   0  0  0  0  0  0  0  0  0  0  0  0
    3.3582   -1.0126   -0.2467 O   0  0  0  0  0  0  0  0  0  0  0  0
    1.1134   -1.0803    0.7267 C   0  0  0  0  0  0  0  0  0  0  0  0
   -3.3777   -0.3869    0.3257 H   0  0  0  0  0  0  0  0  0  0  0  0
   -2.5548    1.1734    0.1596 H   0  0  0  0  0  0  0  0  0  0  0  0
   -2.3720   -0.0355   -1.1432 H   0  0  0  0  0  0  0  0  0  0  0  0
   -1.5228   -1.5237    1.1038 H   0  0  0  0  0  0  0  0  0  0  0  0
   -1.2712    1.2053    1.5790 H   0  0  0  0  0  0  0  0  0  0  0  0
   -0.1015   -1.2888   -1.0088 H   0  0  0  0  0  0  0  0  0  0  0  0
    0.1605    0.9705   -1.6751 H   0  0  0  0  0  0  0  0  0  0  0  0
   -0.0578    1.5885   -0.0179 H   0  0  0  0  0  0  0  0  0  0  0  0
    2.1317    1.5060    0.5253 H   0  0  0  0  0  0  0  0  0  0  0  0
    2.4278    1.2462   -1.2441 H   0  0  0  0  0  0  0  0  0  0  0  0
    1.1387   -2.1658    0.8251 H   0  0  0  0  0  0  0  0  0  0  0  0
    1.0524   -0.5477    1.7033 H   0  0  0  0  0  0  0  0  0  0  0  0
  1  2  1  0
  2  3  1  0
  2  4  1  0
  4  5  1  0
  5  6  1  0
  6  7  1  0
  7  8  2  0
  7  9  1  0
  9  4  1  0
  1 10  1  0
  1 11  1  0
  1 12  1  0
  2 13  1  0
  3 14  1  0
  4 15  1  0
  5 16  1  0
  5 17  1  0
  6 18  1  0
  6 19  1  0
  9 20  1  0
  9 21  1  0
M  END
