
     RDKit          3D

 21 21  0  0  0  0  0  0  0  0999 V2000
    1.2179   -1.3424   -0.2864 C   0  0  0  0  0  0  0  0  0  0  0  0
    0.4663   -0.0228   -0.3356 C   0  0  0  0  0  0  0  0  0  0  0  0
    0.0639    0.1327   -1.6691 O   0  0  0  0  0  0  0  0  0  0  0  0
    1.4269    1.0646    0.0190 C   0  0  0  0  0  0  0  0  0  0  0  0
    1.8352    0.9198    1.3465 O   0  0  0  0  0  0  0  0  0  0  0  0
   -0.7371   -0.1336    0.5062 C   0  0  0  0  0  0  0  0  0  0  0  0
   -1.6724    0.9940    0.6579 C   0  0  0  0  0  0  0  0  0  0  0  0
   -2.7369    0.0604    0.6235 O   0  0  0  0  0  0  0  0  0  0  0  0
   -1.9382   -0.6886   -0.2607 C   0  0  0  0  0  0  0  0  0  0  0  0
    0.5437   -2.1679    0.0336 H   0  0  0  0  0  0  0  0  0  0  0  0
    1.7046   -1.5759   -1.2559 H   0  0  0  0  0  0  0  0  0  0  0  0
    2.0354   -1.3163    0.4682 H   0  0  0  0  0  0  0  0  0  0  0  0
   -0.2079   -0.7153   -2.0871 H   0  0  0  0  0  0  0  0  0  0  0  0
    2.3386    0.9295   -0.6026 H   0  0  0  0  0  0  0  0  0  0  0  0
    1.0615    2.0859   -0.1984 H   0  0  0  0  0  0  0  0  0  0  0  0
    2.7183    1.3346    1.5197 H   0  0  0  0  0  0  0  0  0  0  0  0
   -0.6238   -0.7072    1.4398 H   0  0  0  0  0  0  0  0  0  0  0  0
   -1.6683    1.4945    1.6507 H   0  0  0  0  0  0  0  0  0  0  0  0
   -1.8049    1.7063   -0.1469 H   0  0  0  0  0  0  0  0  0  0  0  0
   -1.9905   -1.7717   -0.1409 H   0  0  0  0  0  0  0  0  0  0  0  0
   -2.0322   -0.2806   -1.2814 H   0  0  0  0  0  0  0  0  0  0  0  0
  1  2  1  0
  2  3  1  0
  2  4  1  0
  4  5  1  0
  2  6  1  0
  6  7  1  0
  7  8  1  0
  8  9  1  0
  9  6  1  0
  1 10  1  0
  1 11  1  0
  1 12  1  0
  3 13  1  0
  4 14  1  0
  4 15  1  0
  5 16  1  0
  6 17  1  0
  7 18  1  0
  7 19  1  0
  9 20  1  0
  9 21  1  0
M  END
