
     RDKit          3D

 21 20  0  0  0  0  0  0  0  0999 V2000
   -2.6225    0.1008    0.2430 C   0  0  0  0  0  0  0  0  0  0  0  0
   -1.2006   -0.4754    0.1524 C   0  0  0  0  0  0  0  0  0  0  0  0
   -1.3123   -1.6673   -0.5596 O   0  0  0  0  0  0  0  0  0  0  0  0
   -0.3709    0.5545   -0.5328 C   0  0  0  0  0  0  0  0  0  0  0  0
   -0.9579    0.8382   -1.7619 O   0  0  0  0  0  0  0  0  0  0  0  0
    1.0826    0.2237   -0.6527 C   0  0  0  0  0  0  0  0  0  0  0  0
    1.7054    0.0389    0.7140 C   0  0  0  0  0  0  0  0  0  0  0  0
    3.1476   -0.2904    0.6151 C   0  0  0  0  0  0  0  0  0  0  0  0
    3.5476   -1.4026    0.3416 O   0  0  0  0  0  0  0  0  0  0  0  0
   -2.5289    1.0635    0.7792 H   0  0  0  0  0  0  0  0  0  0  0  0
   -2.9935    0.3449   -0.7742 H   0  0  0  0  0  0  0  0  0  0  0  0
   -3.2959   -0.5858    0.7820 H   0  0  0  0  0  0  0  0  0  0  0  0
   -0.8718   -0.7354    1.1767 H   0  0  0  0  0  0  0  0  0  0  0  0
   -2.0655   -1.6054   -1.2255 H   0  0  0  0  0  0  0  0  0  0  0  0
   -0.4559    1.4935    0.0697 H   0  0  0  0  0  0  0  0  0  0  0  0
   -0.3003    0.9222   -2.4908 H   0  0  0  0  0  0  0  0  0  0  0  0
    1.5802    1.0935   -1.1329 H   0  0  0  0  0  0  0  0  0  0  0  0
    1.2716   -0.6675   -1.2812 H   0  0  0  0  0  0  0  0  0  0  0  0
    1.1620   -0.7375    1.2841 H   0  0  0  0  0  0  0  0  0  0  0  0
    1.5959    1.0199    1.2512 H   0  0  0  0  0  0  0  0  0  0  0  0
    3.8830    0.4738    0.7893 H   0  0  0  0  0  0  0  0  0  0  0  0
  1  2  1  0
  2  3  1  0
  2  4  1  0
  4  5  1  0
  4  6  1  0
  6  7  1  0
  7  8  1  0
  8  9  2  0
  1 10  1  0
  1 11  1  0
  1 12  1  0
  2 13  1  0
  3 14  1  0
  4 15  1  0
  5 16  1  0
  6 17  1  0
  6 18  1  0
  7 19  1  0
  7 20  1  0
  8 21  1  0
M  END
