
     RDKit          3D

 21 20  0  0  0  0  0  0  0  0999 V2000
   -0.7631   -1.6633    0.4179 C   0  0  0  0  0  0  0  0  0  0  0  0
   -0.6212   -0.1952    0.1974 C   0  0  0  0  0  0  0  0  0  0  0  0
   -1.1177    0.4607    1.3224 O   0  0  0  0  0  0  0  0  0  0  0  0
   -1.4417    0.2757   -0.9891 C   0  0  0  0  0  0  0  0  0  0  0  0
   -1.2622    1.6591   -1.0634 O   0  0  0  0  0  0  0  0  0  0  0  0
    0.7999    0.2455   -0.0381 C   0  0  0  0  0  0  0  0  0  0  0  0
    0.8235    1.6179   -0.2431 O   0  0  0  0  0  0  0  0  0  0  0  0
    1.7340   -0.1764    1.0506 C   0  0  0  0  0  0  0  0  0  0  0  0
    3.0231    0.2038    0.6826 O   0  0  0  0  0  0  0  0  0  0  0  0
   -0.3885   -2.2831   -0.4140 H   0  0  0  0  0  0  0  0  0  0  0  0
   -1.8450   -1.8879    0.5138 H   0  0  0  0  0  0  0  0  0  0  0  0
   -0.3094   -1.9181    1.3986 H   0  0  0  0  0  0  0  0  0  0  0  0
   -2.0843    0.5867    1.1901 H   0  0  0  0  0  0  0  0  0  0  0  0
   -1.0036   -0.1715   -1.9247 H   0  0  0  0  0  0  0  0  0  0  0  0
   -2.5052   -0.0145   -0.9071 H   0  0  0  0  0  0  0  0  0  0  0  0
   -1.5024    2.0138   -1.9557 H   0  0  0  0  0  0  0  0  0  0  0  0
    1.1643   -0.2250   -0.9888 H   0  0  0  0  0  0  0  0  0  0  0  0
    1.0773    1.8741   -1.1660 H   0  0  0  0  0  0  0  0  0  0  0  0
    1.6730   -1.2897    1.1369 H   0  0  0  0  0  0  0  0  0  0  0  0
    1.4829    0.3236    2.0182 H   0  0  0  0  0  0  0  0  0  0  0  0
    3.0663    0.5638   -0.2385 H   0  0  0  0  0  0  0  0  0  0  0  0
  1  2  1  0
  2  3  1  0
  2  4  1  0
  4  5  1  0
  2  6  1  0
  6  7  1  0
  6  8  1  0
  8  9  1  0
  1 10  1  0
  1 11  1  0
  1 12  1  0
  3 13  1  0
  4 14  1  0
  4 15  1  0
  5 16  1  0
  6 17  1  0
  7 18  1  0
  8 19  1  0
  8 20  1  0
  9 21  1  0
M  END
