
     RDKit          3D

 23 22  0  0  0  0  0  0  0  0999 V2000
    2.2664   -0.1349    0.7629 C   0  0  0  0  0  0  0  0  0  0  0  0
    1.2779    0.6827   -0.0012 C   0  0  0  0  0  0  0  0  0  0  0  0
    1.4316    0.5115   -1.3766 O   0  0  0  0  0  0  0  0  0  0  0  0
   -0.1513    0.4230    0.3400 C   0  0  0  0  0  0  0  0  0  0  0  0
   -0.9838    1.3567   -0.5494 C   0  0  0  0  0  0  0  0  0  0  0  0
   -0.5783    2.6602   -0.2217 O   0  0  0  0  0  0  0  0  0  0  0  0
   -0.4924   -1.0244    0.0617 C   0  0  0  0  0  0  0  0  0  0  0  0
   -1.9262   -1.3410    0.3895 C   0  0  0  0  0  0  0  0  0  0  0  0
   -0.2063   -1.3683   -1.2647 O   0  0  0  0  0  0  0  0  0  0  0  0
    2.5426   -1.0148    0.1292 H   0  0  0  0  0  0  0  0  0  0  0  0
    3.2281    0.4446    0.8622 H   0  0  0  0  0  0  0  0  0  0  0  0
    1.9225   -0.4948    1.7319 H   0  0  0  0  0  0  0  0  0  0  0  0
    1.4774    1.7691    0.2375 H   0  0  0  0  0  0  0  0  0  0  0  0
    1.8801   -0.3496   -1.5395 H   0  0  0  0  0  0  0  0  0  0  0  0
   -0.3998    0.6107    1.4013 H   0  0  0  0  0  0  0  0  0  0  0  0
   -2.0509    1.1983   -0.4417 H   0  0  0  0  0  0  0  0  0  0  0  0
   -0.7164    1.2139   -1.6167 H   0  0  0  0  0  0  0  0  0  0  0  0
   -1.2852    3.1124    0.2986 H   0  0  0  0  0  0  0  0  0  0  0  0
    0.1926   -1.6323    0.6886 H   0  0  0  0  0  0  0  0  0  0  0  0
   -2.5237   -0.4509    0.6620 H   0  0  0  0  0  0  0  0  0  0  0  0
   -1.9629   -2.0239    1.2786 H   0  0  0  0  0  0  0  0  0  0  0  0
   -2.4335   -1.8258   -0.4767 H   0  0  0  0  0  0  0  0  0  0  0  0
   -0.5084   -2.3224   -1.3558 H   0  0  0  0  0  0  0  0  0  0  0  0
  1  2  1  0
  2  3  1  0
  2  4  1  0
  4  5  1  0
  5  6  1  0
  4  7  1  0
  7  8  1  0
  7  9  1  0
  1 10  1  0
  1 11  1  0
  1 12  1  0
  2 13  1  0
  3 14  1  0
  4 15  1  0
  5 16  1  0
  5 17  1  0
  6 18  1  0
  7 19  1  0
  8 20  1  0
  8 21  1  0
  8 22  1  0
  9 23  1  0
M  END
