
     RDKit          3D

 23 23  0  0  0  0  0  0  0  0999 V2000
    2.3705    0.6817    0.9486 C   0  0  0  0  0  0  0  0  0  0  0  0
    1.5610    0.3307   -0.2450 C   0  0  0  0  0  0  0  0  0  0  0  0
    2.3458   -0.3909   -1.1365 O   0  0  0  0  0  0  0  0  0  0  0  0
    0.2908   -0.4079    0.0716 C   0  0  0  0  0  0  0  0  0  0  0  0
   -0.6435    0.3534    0.9518 C   0  0  0  0  0  0  0  0  0  0  0  0
   -2.0629   -0.0918    0.5716 C   0  0  0  0  0  0  0  0  0  0  0  0
   -2.3194    0.3495   -0.8513 C   0  0  0  0  0  0  0  0  0  0  0  0
   -1.2689    0.0353   -1.7071 O   0  0  0  0  0  0  0  0  0  0  0  0
   -0.4001   -0.9056   -1.1793 C   0  0  0  0  0  0  0  0  0  0  0  0
    3.4429    0.7766    0.6113 H   0  0  0  0  0  0  0  0  0  0  0  0
    2.1243    1.6523    1.4087 H   0  0  0  0  0  0  0  0  0  0  0  0
    2.3423   -0.1526    1.6937 H   0  0  0  0  0  0  0  0  0  0  0  0
    1.2725    1.2800   -0.7588 H   0  0  0  0  0  0  0  0  0  0  0  0
    2.5065   -1.3135   -0.8149 H   0  0  0  0  0  0  0  0  0  0  0  0
    0.5889   -1.3382    0.6384 H   0  0  0  0  0  0  0  0  0  0  0  0
   -0.5678    1.4496    0.8461 H   0  0  0  0  0  0  0  0  0  0  0  0
   -0.5285    0.0656    2.0202 H   0  0  0  0  0  0  0  0  0  0  0  0
   -2.7859    0.3739    1.2375 H   0  0  0  0  0  0  0  0  0  0  0  0
   -2.0361   -1.2095    0.6499 H   0  0  0  0  0  0  0  0  0  0  0  0
   -2.3493    1.4778   -0.8150 H   0  0  0  0  0  0  0  0  0  0  0  0
   -3.2874   -0.0601   -1.2076 H   0  0  0  0  0  0  0  0  0  0  0  0
   -0.9626   -1.8404   -0.9977 H   0  0  0  0  0  0  0  0  0  0  0  0
    0.3668   -1.1159   -1.9361 H   0  0  0  0  0  0  0  0  0  0  0  0
  1  2  1  0
  2  3  1  0
  2  4  1  0
  4  5  1  0
  5  6  1  0
  6  7  1  0
  7  8  1  0
  8  9  1  0
  9  4  1  0
  1 10  1  0
  1 11  1  0
  1 12  1  0
  2 13  1  0
  3 14  1  0
  4 15  1  0
  5 16  1  0
  5 17  1  0
  6 18  1  0
  6 19  1  0
  7 20  1  0
  7 21  1  0
  9 22  1  0
  9 23  1  0
M  END
