
     RDKit          3D

 25 24  0  0  0  0  0  0  0  0999 V2000
    2.9633    0.8654   -0.6430 C   0  0  0  0  0  0  0  0  0  0  0  0
    2.0500   -0.1982   -0.0879 C   0  0  0  0  0  0  0  0  0  0  0  0
    2.1608   -1.3159   -0.8896 O   0  0  0  0  0  0  0  0  0  0  0  0
    0.6327    0.3453   -0.1588 C   0  0  0  0  0  0  0  0  0  0  0  0
   -0.3044   -0.6977    0.3902 C   0  0  0  0  0  0  0  0  0  0  0  0
    0.0300   -0.9784    1.7114 O   0  0  0  0  0  0  0  0  0  0  0  0
   -1.7447   -0.3081    0.3277 C   0  0  0  0  0  0  0  0  0  0  0  0
   -2.0714    0.9398    1.0947 C   0  0  0  0  0  0  0  0  0  0  0  0
   -2.2277   -0.1600   -1.0996 C   0  0  0  0  0  0  0  0  0  0  0  0
    3.4098    0.5536   -1.6098 H   0  0  0  0  0  0  0  0  0  0  0  0
    3.8150    1.0733    0.0501 H   0  0  0  0  0  0  0  0  0  0  0  0
    2.4130    1.8194   -0.8733 H   0  0  0  0  0  0  0  0  0  0  0  0
    2.3208   -0.4708    0.9597 H   0  0  0  0  0  0  0  0  0  0  0  0
    2.1659   -2.1705   -0.3605 H   0  0  0  0  0  0  0  0  0  0  0  0
    0.5455    1.3165    0.3559 H   0  0  0  0  0  0  0  0  0  0  0  0
    0.4325    0.5393   -1.2335 H   0  0  0  0  0  0  0  0  0  0  0  0
   -0.1770   -1.6161   -0.2179 H   0  0  0  0  0  0  0  0  0  0  0  0
   -0.4428   -1.8192    1.9483 H   0  0  0  0  0  0  0  0  0  0  0  0
   -2.3326   -1.1321    0.7832 H   0  0  0  0  0  0  0  0  0  0  0  0
   -1.5683    0.9334    2.0876 H   0  0  0  0  0  0  0  0  0  0  0  0
   -1.8752    1.8698    0.5390 H   0  0  0  0  0  0  0  0  0  0  0  0
   -3.1681    0.8999    1.3173 H   0  0  0  0  0  0  0  0  0  0  0  0
   -2.4249    0.9230   -1.3419 H   0  0  0  0  0  0  0  0  0  0  0  0
   -1.4224   -0.5312   -1.7591 H   0  0  0  0  0  0  0  0  0  0  0  0
   -3.1797   -0.6806   -1.2902 H   0  0  0  0  0  0  0  0  0  0  0  0
  1  2  1  0
  2  3  1  0
  2  4  1  0
  4  5  1  0
  5  6  1  0
  5  7  1  0
  7  8  1  0
  7  9  1  0
  1 10  1  0
  1 11  1  0
  1 12  1  0
  2 13  1  0
  3 14  1  0
  4 15  1  0
  4 16  1  0
  5 17  1  0
  6 18  1  0
  7 19  1  0
  8 20  1  0
  8 21  1  0
  8 22  1  0
  9 23  1  0
  9 24  1  0
  9 25  1  0
M  END
