
     RDKit          3D

 23 23  0  0  0  0  0  0  0  0999 V2000
   -2.1984    1.0142    0.1766 C   0  0  0  0  0  0  0  0  0  0  0  0
   -1.8536   -0.3916   -0.2274 C   0  0  0  0  0  0  0  0  0  0  0  0
   -2.8968   -1.2450    0.1763 O   0  0  0  0  0  0  0  0  0  0  0  0
   -0.5540   -0.9140    0.2959 C   0  0  0  0  0  0  0  0  0  0  0  0
   -0.4196   -2.2157   -0.2377 O   0  0  0  0  0  0  0  0  0  0  0  0
    0.5770   -0.1021   -0.2803 C   0  0  0  0  0  0  0  0  0  0  0  0
    0.7595    1.3296   -0.0727 C   0  0  0  0  0  0  0  0  0  0  0  0
    1.7366    0.3435    0.4899 C   0  0  0  0  0  0  0  0  0  0  0  0
    3.1016    0.2061   -0.1609 C   0  0  0  0  0  0  0  0  0  0  0  0
   -2.0026    1.2593    1.2188 H   0  0  0  0  0  0  0  0  0  0  0  0
   -1.8183    1.7670   -0.5630 H   0  0  0  0  0  0  0  0  0  0  0  0
   -3.3319    1.0689    0.0714 H   0  0  0  0  0  0  0  0  0  0  0  0
   -1.8795   -0.4175   -1.3399 H   0  0  0  0  0  0  0  0  0  0  0  0
   -2.7569   -2.0927   -0.3092 H   0  0  0  0  0  0  0  0  0  0  0  0
   -0.5124   -0.9515    1.4041 H   0  0  0  0  0  0  0  0  0  0  0  0
   -0.1391   -2.8573    0.4495 H   0  0  0  0  0  0  0  0  0  0  0  0
    0.8004   -0.4651   -1.3451 H   0  0  0  0  0  0  0  0  0  0  0  0
    1.0769    1.9671   -0.9455 H   0  0  0  0  0  0  0  0  0  0  0  0
    0.1858    1.9211    0.6608 H   0  0  0  0  0  0  0  0  0  0  0  0
    1.7811    0.2833    1.5965 H   0  0  0  0  0  0  0  0  0  0  0  0
    3.8523   -0.2030    0.5342 H   0  0  0  0  0  0  0  0  0  0  0  0
    3.4543    1.1873   -0.5673 H   0  0  0  0  0  0  0  0  0  0  0  0
    3.0380   -0.4918   -1.0251 H   0  0  0  0  0  0  0  0  0  0  0  0
  1  2  1  0
  2  3  1  0
  2  4  1  0
  4  5  1  0
  4  6  1  0
  6  7  1  0
  7  8  1  0
  8  9  1  0
  8  6  1  0
  1 10  1  0
  1 11  1  0
  1 12  1  0
  2 13  1  0
  3 14  1  0
  4 15  1  0
  5 16  1  0
  6 17  1  0
  7 18  1  0
  7 19  1  0
  8 20  1  0
  9 21  1  0
  9 22  1  0
  9 23  1  0
M  END
