
     RDKit          3D

 19 18  0  0  0  0  0  0  0  0999 V2000
   -1.6490   -1.3067   -0.0282 C   0  0  0  0  0  0  0  0  0  0  0  0
   -1.2212    0.1383    0.0956 C   0  0  0  0  0  0  0  0  0  0  0  0
   -1.4887    0.7571   -1.1237 O   0  0  0  0  0  0  0  0  0  0  0  0
    0.2232    0.2148    0.4751 C   0  0  0  0  0  0  0  0  0  0  0  0
    0.7198    1.6336    0.6173 C   0  0  0  0  0  0  0  0  0  0  0  0
    1.0240   -0.5226   -0.5137 C   0  0  0  0  0  0  0  0  0  0  0  0
    0.4540   -1.0842   -1.4825 O   0  0  0  0  0  0  0  0  0  0  0  0
    2.4629   -0.6117   -0.3880 C   0  0  0  0  0  0  0  0  0  0  0  0
    3.0411   -0.0601    0.5668 O   0  0  0  0  0  0  0  0  0  0  0  0
   -2.5978   -1.4566    0.5184 H   0  0  0  0  0  0  0  0  0  0  0  0
   -1.7845   -1.6169   -1.0867 H   0  0  0  0  0  0  0  0  0  0  0  0
   -0.8953   -1.9501    0.4936 H   0  0  0  0  0  0  0  0  0  0  0  0
   -1.8810    0.6246    0.8385 H   0  0  0  0  0  0  0  0  0  0  0  0
   -2.4445    0.6269   -1.3202 H   0  0  0  0  0  0  0  0  0  0  0  0
    0.3494   -0.2655    1.4674 H   0  0  0  0  0  0  0  0  0  0  0  0
    1.3801    1.8985   -0.2339 H   0  0  0  0  0  0  0  0  0  0  0  0
   -0.0821    2.3765    0.6845 H   0  0  0  0  0  0  0  0  0  0  0  0
    1.3594    1.7559    1.5354 H   0  0  0  0  0  0  0  0  0  0  0  0
    3.0302   -1.1517   -1.1157 H   0  0  0  0  0  0  0  0  0  0  0  0
  1  2  1  0
  2  3  1  0
  2  4  1  0
  4  5  1  0
  4  6  1  0
  6  7  2  0
  6  8  1  0
  8  9  2  0
  1 10  1  0
  1 11  1  0
  1 12  1  0
  2 13  1  0
  3 14  1  0
  4 15  1  0
  5 16  1  0
  5 17  1  0
  5 18  1  0
  8 19  1  0
M  END
