
     RDKit          3D

 21 20  0  0  0  0  0  0  0  0999 V2000
   -2.3863   -0.8855    0.2538 C   0  0  0  0  0  0  0  0  0  0  0  0
   -1.7972    0.4848    0.5164 C   0  0  0  0  0  0  0  0  0  0  0  0
   -2.0912    1.3871   -0.4961 O   0  0  0  0  0  0  0  0  0  0  0  0
   -0.2998    0.3110    0.6967 C   0  0  0  0  0  0  0  0  0  0  0  0
    0.3638   -0.2741   -0.4974 C   0  0  0  0  0  0  0  0  0  0  0  0
    1.8396   -0.4426   -0.2351 C   0  0  0  0  0  0  0  0  0  0  0  0
    2.4595   -1.0096   -1.3874 O   0  0  0  0  0  0  0  0  0  0  0  0
    2.5460    0.8046    0.1342 C   0  0  0  0  0  0  0  0  0  0  0  0
    2.3093    1.4808    1.1069 O   0  0  0  0  0  0  0  0  0  0  0  0
   -1.9220   -1.5870    0.9774 H   0  0  0  0  0  0  0  0  0  0  0  0
   -3.4851   -0.8909    0.3823 H   0  0  0  0  0  0  0  0  0  0  0  0
   -2.0871   -1.2397   -0.7689 H   0  0  0  0  0  0  0  0  0  0  0  0
   -2.1887    0.8347    1.4975 H   0  0  0  0  0  0  0  0  0  0  0  0
   -2.1510    2.2863   -0.0830 H   0  0  0  0  0  0  0  0  0  0  0  0
    0.0765    1.3580    0.8412 H   0  0  0  0  0  0  0  0  0  0  0  0
   -0.1419   -0.3223    1.5883 H   0  0  0  0  0  0  0  0  0  0  0  0
    0.2404    0.3606   -1.4153 H   0  0  0  0  0  0  0  0  0  0  0  0
   -0.0214   -1.2896   -0.7644 H   0  0  0  0  0  0  0  0  0  0  0  0
    2.0392   -1.1791    0.5711 H   0  0  0  0  0  0  0  0  0  0  0  0
    3.3346   -1.3648   -1.0693 H   0  0  0  0  0  0  0  0  0  0  0  0
    3.3627    1.1770   -0.5106 H   0  0  0  0  0  0  0  0  0  0  0  0
  1  2  1  0
  2  3  1  0
  2  4  1  0
  4  5  1  0
  5  6  1  0
  6  7  1  0
  6  8  1  0
  8  9  2  0
  1 10  1  0
  1 11  1  0
  1 12  1  0
  2 13  1  0
  3 14  1  0
  4 15  1  0
  4 16  1  0
  5 17  1  0
  5 18  1  0
  6 19  1  0
  7 20  1  0
  8 21  1  0
M  END
