
     RDKit          3D

 21 20  0  0  0  0  0  0  0  0999 V2000
    2.2694   -0.1321    0.5812 C   0  0  0  0  0  0  0  0  0  0  0  0
    1.4854    0.5912   -0.4630 C   0  0  0  0  0  0  0  0  0  0  0  0
    1.4611    1.9758   -0.2241 O   0  0  0  0  0  0  0  0  0  0  0  0
    0.0736    0.1213   -0.5999 C   0  0  0  0  0  0  0  0  0  0  0  0
    0.0323   -1.3259   -0.9673 C   0  0  0  0  0  0  0  0  0  0  0  0
   -0.1730   -1.7259   -2.0823 O   0  0  0  0  0  0  0  0  0  0  0  0
   -0.7554    0.3088    0.6270 C   0  0  0  0  0  0  0  0  0  0  0  0
   -2.1571   -0.2229    0.3071 C   0  0  0  0  0  0  0  0  0  0  0  0
   -2.9821   -0.0737    1.4223 O   0  0  0  0  0  0  0  0  0  0  0  0
    2.7623   -1.0507    0.1762 H   0  0  0  0  0  0  0  0  0  0  0  0
    3.0824    0.5643    0.9315 H   0  0  0  0  0  0  0  0  0  0  0  0
    1.7057   -0.4210    1.4668 H   0  0  0  0  0  0  0  0  0  0  0  0
    1.9875    0.4360   -1.4434 H   0  0  0  0  0  0  0  0  0  0  0  0
    1.2140    2.4805   -1.0328 H   0  0  0  0  0  0  0  0  0  0  0  0
   -0.3744    0.6771   -1.4652 H   0  0  0  0  0  0  0  0  0  0  0  0
    0.2023   -2.0419   -0.1539 H   0  0  0  0  0  0  0  0  0  0  0  0
   -0.8859    1.3702    0.9175 H   0  0  0  0  0  0  0  0  0  0  0  0
   -0.3338   -0.3188    1.4371 H   0  0  0  0  0  0  0  0  0  0  0  0
   -2.1081   -1.2800   -0.0437 H   0  0  0  0  0  0  0  0  0  0  0  0
   -2.6075    0.4107   -0.5004 H   0  0  0  0  0  0  0  0  0  0  0  0
   -3.8987   -0.3428    1.1093 H   0  0  0  0  0  0  0  0  0  0  0  0
  1  2  1  0
  2  3  1  0
  2  4  1  0
  4  5  1  0
  5  6  2  0
  4  7  1  0
  7  8  1  0
  8  9  1  0
  1 10  1  0
  1 11  1  0
  1 12  1  0
  2 13  1  0
  3 14  1  0
  4 15  1  0
  5 16  1  0
  7 17  1  0
  7 18  1  0
  8 19  1  0
  8 20  1  0
  9 21  1  0
M  END
