
     RDKit          3D

 20 19  0  0  0  0  0  0  0  0999 V2000
    1.8421   -0.5743    0.4617 C   0  0  0  0  0  0  0  0  0  0  0  0
    0.9470    0.4208   -0.2137 C   0  0  0  0  0  0  0  0  0  0  0  0
    1.1386    0.3286   -1.5910 O   0  0  0  0  0  0  0  0  0  0  0  0
   -0.5063    0.2180    0.1093 C   0  0  0  0  0  0  0  0  0  0  0  0
   -1.2977    1.2870   -0.6358 C   0  0  0  0  0  0  0  0  0  0  0  0
   -0.9259   -1.1584   -0.3444 C   0  0  0  0  0  0  0  0  0  0  0  0
   -0.7997    0.3379    1.5545 C   0  0  0  0  0  0  0  0  0  0  0  0
   -0.7622   -0.6428    2.2693 O   0  0  0  0  0  0  0  0  0  0  0  0
    1.4246   -0.8317    1.4656 H   0  0  0  0  0  0  0  0  0  0  0  0
    2.8737   -0.1900    0.5942 H   0  0  0  0  0  0  0  0  0  0  0  0
    1.8786   -1.5302   -0.1115 H   0  0  0  0  0  0  0  0  0  0  0  0
    1.2926    1.4351    0.0836 H   0  0  0  0  0  0  0  0  0  0  0  0
    1.6387   -0.4869   -1.8399 H   0  0  0  0  0  0  0  0  0  0  0  0
   -1.7322    2.0346    0.0667 H   0  0  0  0  0  0  0  0  0  0  0  0
   -0.6524    1.8629   -1.3367 H   0  0  0  0  0  0  0  0  0  0  0  0
   -2.1592    0.8205   -1.1537 H   0  0  0  0  0  0  0  0  0  0  0  0
   -0.2772   -1.5495   -1.1499 H   0  0  0  0  0  0  0  0  0  0  0  0
   -0.9000   -1.8920    0.4960 H   0  0  0  0  0  0  0  0  0  0  0  0
   -1.9703   -1.1641   -0.7481 H   0  0  0  0  0  0  0  0  0  0  0  0
   -1.0526    1.2744    2.0237 H   0  0  0  0  0  0  0  0  0  0  0  0
  1  2  1  0
  2  3  1  0
  2  4  1  0
  4  5  1  0
  4  6  1  0
  4  7  1  0
  7  8  2  0
  1  9  1  0
  1 10  1  0
  1 11  1  0
  2 12  1  0
  3 13  1  0
  5 14  1  0
  5 15  1  0
  5 16  1  0
  6 17  1  0
  6 18  1  0
  6 19  1  0
  7 20  1  0
M  END
