
     RDKit          3D

 23 22  0  0  0  0  0  0  0  0999 V2000
    2.4150   -0.0299    0.3205 C   0  0  0  0  0  0  0  0  0  0  0  0
    1.0156   -0.5532    0.0753 C   0  0  0  0  0  0  0  0  0  0  0  0
    0.8425   -1.6759    0.8462 O   0  0  0  0  0  0  0  0  0  0  0  0
    0.0491    0.5435    0.3281 C   0  0  0  0  0  0  0  0  0  0  0  0
    0.3650    1.6843   -0.6240 C   0  0  0  0  0  0  0  0  0  0  0  0
   -1.3906    0.1630    0.2007 C   0  0  0  0  0  0  0  0  0  0  0  0
   -1.7928   -0.3445   -1.1363 C   0  0  0  0  0  0  0  0  0  0  0  0
   -1.7603   -0.8403    1.2347 C   0  0  0  0  0  0  0  0  0  0  0  0
   -2.4131   -0.5548    2.2374 O   0  0  0  0  0  0  0  0  0  0  0  0
    3.1021   -0.8651    0.5085 H   0  0  0  0  0  0  0  0  0  0  0  0
    2.7494    0.6438   -0.4978 H   0  0  0  0  0  0  0  0  0  0  0  0
    2.3468    0.5961    1.2557 H   0  0  0  0  0  0  0  0  0  0  0  0
    0.9670   -0.8341   -1.0094 H   0  0  0  0  0  0  0  0  0  0  0  0
    1.2764   -2.4383    0.3956 H   0  0  0  0  0  0  0  0  0  0  0  0
    0.2005    0.9474    1.3515 H   0  0  0  0  0  0  0  0  0  0  0  0
   -0.4873    2.3705   -0.7500 H   0  0  0  0  0  0  0  0  0  0  0  0
    0.6117    1.2234   -1.5983 H   0  0  0  0  0  0  0  0  0  0  0  0
    1.2844    2.2197   -0.2600 H   0  0  0  0  0  0  0  0  0  0  0  0
   -1.9936    1.0769    0.4289 H   0  0  0  0  0  0  0  0  0  0  0  0
   -1.6569   -1.4521   -1.2449 H   0  0  0  0  0  0  0  0  0  0  0  0
   -2.9071   -0.1933   -1.2257 H   0  0  0  0  0  0  0  0  0  0  0  0
   -1.3596    0.2102   -1.9878 H   0  0  0  0  0  0  0  0  0  0  0  0
   -1.4644   -1.8975    1.1514 H   0  0  0  0  0  0  0  0  0  0  0  0
  1  2  1  0
  2  3  1  0
  2  4  1  0
  4  5  1  0
  4  6  1  0
  6  7  1  0
  6  8  1  0
  8  9  2  0
  1 10  1  0
  1 11  1  0
  1 12  1  0
  2 13  1  0
  3 14  1  0
  4 15  1  0
  5 16  1  0
  5 17  1  0
  5 18  1  0
  6 19  1  0
  7 20  1  0
  7 21  1  0
  7 22  1  0
  8 23  1  0
M  END
