
     RDKit          3D

 11 10  0  0  0  0  0  0  0  0999 V2000
   -0.9124   -0.6706    0.0436 C   0  0  0  0  0  0  0  0  0  0  0  0
    0.1108    0.4155    0.3084 C   0  0  0  0  0  0  0  0  0  0  0  0
   -0.1124    1.5361   -0.4818 O   0  0  0  0  0  0  0  0  0  0  0  0
    1.4357   -0.1499   -0.0314 C   0  0  0  0  0  0  0  0  0  0  0  0
    2.0914    0.4063   -0.8904 O   0  0  0  0  0  0  0  0  0  0  0  0
   -1.2346   -0.6431   -1.0209 H   0  0  0  0  0  0  0  0  0  0  0  0
   -1.7718   -0.5375    0.7484 H   0  0  0  0  0  0  0  0  0  0  0  0
   -0.4288   -1.6348    0.3123 H   0  0  0  0  0  0  0  0  0  0  0  0
    0.0598    0.7697    1.3616 H   0  0  0  0  0  0  0  0  0  0  0  0
   -1.0301    1.5444   -0.8338 H   0  0  0  0  0  0  0  0  0  0  0  0
    1.7924   -1.0362    0.4839 H   0  0  0  0  0  0  0  0  0  0  0  0
  1  2  1  0
  2  3  1  0
  2  4  1  0
  4  5  2  0
  1  6  1  0
  1  7  1  0
  1  8  1  0
  2  9  1  0
  3 10  1  0
  4 11  1  0
M  END
