
     RDKit          3D

 19 20  0  0  0  0  0  0  0  0999 V2000
    2.0422   -0.1276   -0.7838 C   0  0  0  0  0  0  0  0  0  0  0  0
    1.0055   -0.6567    0.2426 C   0  0  0  0  0  0  0  0  0  0  0  0
    1.8230   -1.1208    1.2835 O   0  0  0  0  0  0  0  0  0  0  0  0
    0.1296    0.4554    0.6209 C   0  0  0  0  0  0  0  0  0  0  0  0
   -0.7954    0.3294    1.6504 O   0  0  0  0  0  0  0  0  0  0  0  0
   -1.5470   -0.4020    0.7901 C   0  0  0  0  0  0  0  0  0  0  0  0
   -2.2422   -0.0964   -0.4370 C   0  0  0  0  0  0  0  0  0  0  0  0
   -1.1023    0.7216   -0.1881 C   0  0  0  0  0  0  0  0  0  0  0  0
   -1.5615    2.0347    0.1579 O   0  0  0  0  0  0  0  0  0  0  0  0
    1.5711    0.5114   -1.5274 H   0  0  0  0  0  0  0  0  0  0  0  0
    2.8531    0.4095   -0.2425 H   0  0  0  0  0  0  0  0  0  0  0  0
    2.5199   -1.0030   -1.2594 H   0  0  0  0  0  0  0  0  0  0  0  0
    0.5178   -1.4645   -0.3312 H   0  0  0  0  0  0  0  0  0  0  0  0
    2.6970   -1.4137    0.9905 H   0  0  0  0  0  0  0  0  0  0  0  0
    0.7526    1.3808    0.7864 H   0  0  0  0  0  0  0  0  0  0  0  0
   -1.1287   -1.4094    0.7386 H   0  0  0  0  0  0  0  0  0  0  0  0
   -3.3284    0.1892   -0.2987 H   0  0  0  0  0  0  0  0  0  0  0  0
   -2.1765   -0.7435   -1.3639 H   0  0  0  0  0  0  0  0  0  0  0  0
   -2.0299    2.4056   -0.6333 H   0  0  0  0  0  0  0  0  0  0  0  0
  1  2  1  0
  2  3  1  0
  2  4  1  0
  4  5  1  0
  5  6  1  0
  6  7  1  0
  7  8  1  0
  8  9  1  0
  8  4  1  0
  8  6  1  0
  1 10  1  0
  1 11  1  0
  1 12  1  0
  2 13  1  0
  3 14  1  0
  4 15  1  0
  6 16  1  0
  7 17  1  0
  7 18  1  0
  9 19  1  0
M  END
