
     RDKit          3D

 25 25  0  0  0  0  0  0  0  0999 V2000
    1.7591   -0.5914    1.1829 C   0  0  0  0  0  0  0  0  0  0  0  0
    1.5860   -0.6965   -0.2943 C   0  0  0  0  0  0  0  0  0  0  0  0
    2.8042   -0.4362   -0.9527 O   0  0  0  0  0  0  0  0  0  0  0  0
    0.4774    0.1582   -0.8627 C   0  0  0  0  0  0  0  0  0  0  0  0
    0.6719    1.6179   -0.6029 C   0  0  0  0  0  0  0  0  0  0  0  0
   -0.8570   -0.3777   -0.5288 C   0  0  0  0  0  0  0  0  0  0  0  0
   -1.2313   -0.5119    0.9303 C   0  0  0  0  0  0  0  0  0  0  0  0
   -2.6696   -0.2099    0.4768 C   0  0  0  0  0  0  0  0  0  0  0  0
   -2.0366    0.5489   -0.6734 C   0  0  0  0  0  0  0  0  0  0  0  0
    1.2443   -1.4122    1.7240 H   0  0  0  0  0  0  0  0  0  0  0  0
    1.5126    0.4010    1.6049 H   0  0  0  0  0  0  0  0  0  0  0  0
    2.8566   -0.7285    1.4212 H   0  0  0  0  0  0  0  0  0  0  0  0
    1.3372   -1.7584   -0.5760 H   0  0  0  0  0  0  0  0  0  0  0  0
    3.5752   -0.6636   -0.3701 H   0  0  0  0  0  0  0  0  0  0  0  0
    0.5852    0.0407   -1.9857 H   0  0  0  0  0  0  0  0  0  0  0  0
    0.2790    2.2138   -1.4526 H   0  0  0  0  0  0  0  0  0  0  0  0
    0.2809    1.9584    0.3674 H   0  0  0  0  0  0  0  0  0  0  0  0
    1.7847    1.8058   -0.6117 H   0  0  0  0  0  0  0  0  0  0  0  0
   -1.0911   -1.3374   -1.0494 H   0  0  0  0  0  0  0  0  0  0  0  0
   -0.8804    0.3080    1.5771 H   0  0  0  0  0  0  0  0  0  0  0  0
   -1.1125   -1.5401    1.3241 H   0  0  0  0  0  0  0  0  0  0  0  0
   -3.1222   -1.1734    0.1367 H   0  0  0  0  0  0  0  0  0  0  0  0
   -3.2566    0.3800    1.1747 H   0  0  0  0  0  0  0  0  0  0  0  0
   -1.8614    1.5949   -0.3654 H   0  0  0  0  0  0  0  0  0  0  0  0
   -2.6355    0.4098   -1.5944 H   0  0  0  0  0  0  0  0  0  0  0  0
  1  2  1  0
  2  3  1  0
  2  4  1  0
  4  5  1  0
  4  6  1  0
  6  7  1  0
  7  8  1  0
  8  9  1  0
  9  6  1  0
  1 10  1  0
  1 11  1  0
  1 12  1  0
  2 13  1  0
  3 14  1  0
  4 15  1  0
  5 16  1  0
  5 17  1  0
  5 18  1  0
  6 19  1  0
  7 20  1  0
  7 21  1  0
  8 22  1  0
  8 23  1  0
  9 24  1  0
  9 25  1  0
M  END
