
     RDKit          3D

 21 21  0  0  0  0  0  0  0  0999 V2000
    2.5206    0.3657    0.2463 C   0  0  0  0  0  0  0  0  0  0  0  0
    1.3633   -0.5472    0.5875 C   0  0  0  0  0  0  0  0  0  0  0  0
    0.8452   -0.0971    1.8132 O   0  0  0  0  0  0  0  0  0  0  0  0
    0.2466   -0.4314   -0.4270 C   0  0  0  0  0  0  0  0  0  0  0  0
   -0.2756    0.9610   -0.4809 C   0  0  0  0  0  0  0  0  0  0  0  0
   -1.5627    1.1930   -0.2462 C   0  0  0  0  0  0  0  0  0  0  0  0
   -2.5414    0.1080    0.0772 C   0  0  0  0  0  0  0  0  0  0  0  0
   -1.8000   -0.8757    0.7642 O   0  0  0  0  0  0  0  0  0  0  0  0
   -0.8795   -1.3656   -0.1655 C   0  0  0  0  0  0  0  0  0  0  0  0
    2.2285    1.4413    0.3838 H   0  0  0  0  0  0  0  0  0  0  0  0
    3.3426    0.1709    0.9325 H   0  0  0  0  0  0  0  0  0  0  0  0
    2.8249    0.1596   -0.7966 H   0  0  0  0  0  0  0  0  0  0  0  0
    1.7153   -1.5644    0.7274 H   0  0  0  0  0  0  0  0  0  0  0  0
    1.0336    0.8714    1.9045 H   0  0  0  0  0  0  0  0  0  0  0  0
    0.6965   -0.6667   -1.4299 H   0  0  0  0  0  0  0  0  0  0  0  0
    0.4236    1.7602   -0.7148 H   0  0  0  0  0  0  0  0  0  0  0  0
   -1.8683    2.2407   -0.3045 H   0  0  0  0  0  0  0  0  0  0  0  0
   -2.9311   -0.3699   -0.8650 H   0  0  0  0  0  0  0  0  0  0  0  0
   -3.3706    0.5027    0.6999 H   0  0  0  0  0  0  0  0  0  0  0  0
   -1.4599   -1.4800   -1.1260 H   0  0  0  0  0  0  0  0  0  0  0  0
   -0.5516   -2.3765    0.1703 H   0  0  0  0  0  0  0  0  0  0  0  0
  1  2  1  0
  2  3  1  0
  2  4  1  0
  4  5  1  0
  5  6  2  0
  6  7  1  0
  7  8  1  0
  8  9  1  0
  9  4  1  0
  1 10  1  0
  1 11  1  0
  1 12  1  0
  2 13  1  0
  3 14  1  0
  4 15  1  0
  5 16  1  0
  6 17  1  0
  7 18  1  0
  7 19  1  0
  9 20  1  0
  9 21  1  0
M  END
