
     RDKit          3D

 23 23  0  0  0  0  0  0  0  0999 V2000
   -1.6567   -0.1107    1.1822 C   0  0  0  0  0  0  0  0  0  0  0  0
   -0.8046    0.8229    0.3229 C   0  0  0  0  0  0  0  0  0  0  0  0
   -1.6649    1.6446   -0.3844 O   0  0  0  0  0  0  0  0  0  0  0  0
    0.0240   -0.0429   -0.5644 C   0  0  0  0  0  0  0  0  0  0  0  0
   -0.8000   -0.9211   -1.4602 C   0  0  0  0  0  0  0  0  0  0  0  0
    1.1441    0.5956   -1.3069 C   0  0  0  0  0  0  0  0  0  0  0  0
    1.8702   -0.6064   -1.1513 O   0  0  0  0  0  0  0  0  0  0  0  0
    1.1538   -0.7799    0.0530 C   0  0  0  0  0  0  0  0  0  0  0  0
    1.8472   -0.1469    1.2113 C   0  0  0  0  0  0  0  0  0  0  0  0
   -2.1996    0.5363    1.8871 H   0  0  0  0  0  0  0  0  0  0  0  0
   -2.3601   -0.7059    0.5673 H   0  0  0  0  0  0  0  0  0  0  0  0
   -1.0443   -0.8035    1.7679 H   0  0  0  0  0  0  0  0  0  0  0  0
   -0.2257    1.4370    1.0264 H   0  0  0  0  0  0  0  0  0  0  0  0
   -2.0867    2.2996    0.2192 H   0  0  0  0  0  0  0  0  0  0  0  0
   -1.1310   -1.7911   -0.8555 H   0  0  0  0  0  0  0  0  0  0  0  0
   -1.6627   -0.3910   -1.8727 H   0  0  0  0  0  0  0  0  0  0  0  0
   -0.1733   -1.3105   -2.3046 H   0  0  0  0  0  0  0  0  0  0  0  0
    1.6783    1.4164   -0.8097 H   0  0  0  0  0  0  0  0  0  0  0  0
    0.9578    0.7620   -2.3867 H   0  0  0  0  0  0  0  0  0  0  0  0
    0.8762   -1.8311    0.2663 H   0  0  0  0  0  0  0  0  0  0  0  0
    2.4973    0.7183    0.9268 H   0  0  0  0  0  0  0  0  0  0  0  0
    2.5702   -0.9122    1.6184 H   0  0  0  0  0  0  0  0  0  0  0  0
    1.1905    0.1204    2.0475 H   0  0  0  0  0  0  0  0  0  0  0  0
  1  2  1  0
  2  3  1  0
  2  4  1  0
  4  5  1  0
  4  6  1  0
  6  7  1  0
  7  8  1  0
  8  9  1  0
  8  4  1  0
  1 10  1  0
  1 11  1  0
  1 12  1  0
  2 13  1  0
  3 14  1  0
  5 15  1  0
  5 16  1  0
  5 17  1  0
  6 18  1  0
  6 19  1  0
  8 20  1  0
  9 21  1  0
  9 22  1  0
  9 23  1  0
M  END
