
     RDKit          3D

 19 18  0  0  0  0  0  0  0  0999 V2000
    2.4074    0.4017    0.4409 C   0  0  0  0  0  0  0  0  0  0  0  0
    1.4640   -0.4216   -0.4103 C   0  0  0  0  0  0  0  0  0  0  0  0
    1.1536   -1.6118    0.2182 O   0  0  0  0  0  0  0  0  0  0  0  0
    0.2891    0.3484   -0.8530 C   0  0  0  0  0  0  0  0  0  0  0  0
    0.4318    1.4072   -1.4156 O   0  0  0  0  0  0  0  0  0  0  0  0
   -1.0660   -0.1749   -0.6089 C   0  0  0  0  0  0  0  0  0  0  0  0
   -0.9850   -1.3783    0.0367 O   0  0  0  0  0  0  0  0  0  0  0  0
   -1.8666    0.8377    0.2107 C   0  0  0  0  0  0  0  0  0  0  0  0
   -3.1605    0.3332    0.4044 O   0  0  0  0  0  0  0  0  0  0  0  0
    1.9371    0.8532    1.3135 H   0  0  0  0  0  0  0  0  0  0  0  0
    3.2220   -0.2834    0.7786 H   0  0  0  0  0  0  0  0  0  0  0  0
    2.8995    1.1912   -0.1807 H   0  0  0  0  0  0  0  0  0  0  0  0
    2.0492   -0.6896   -1.3299 H   0  0  0  0  0  0  0  0  0  0  0  0
    1.6155   -1.6429    1.0877 H   0  0  0  0  0  0  0  0  0  0  0  0
   -1.6385   -0.2671   -1.5668 H   0  0  0  0  0  0  0  0  0  0  0  0
   -1.8798   -1.7574    0.2399 H   0  0  0  0  0  0  0  0  0  0  0  0
   -1.3765    1.0362    1.1853 H   0  0  0  0  0  0  0  0  0  0  0  0
   -1.9618    1.7517   -0.4037 H   0  0  0  0  0  0  0  0  0  0  0  0
   -3.5346    0.0664   -0.4586 H   0  0  0  0  0  0  0  0  0  0  0  0
  1  2  1  0
  2  3  1  0
  2  4  1  0
  4  5  2  0
  4  6  1  0
  6  7  1  0
  6  8  1  0
  8  9  1  0
  1 10  1  0
  1 11  1  0
  1 12  1  0
  2 13  1  0
  3 14  1  0
  6 15  1  0
  7 16  1  0
  8 17  1  0
  8 18  1  0
  9 19  1  0
M  END
