
     RDKit          3D

 23 23  0  0  0  0  0  0  0  0999 V2000
   -2.6399    0.0806   -0.4510 C   0  0  0  0  0  0  0  0  0  0  0  0
   -1.3985    0.6145    0.1885 C   0  0  0  0  0  0  0  0  0  0  0  0
   -1.5743    0.8619    1.5558 O   0  0  0  0  0  0  0  0  0  0  0  0
   -0.1708   -0.2056   -0.0825 C   0  0  0  0  0  0  0  0  0  0  0  0
   -0.1093   -1.6428    0.3397 C   0  0  0  0  0  0  0  0  0  0  0  0
    0.7123    0.1897   -1.2831 C   0  0  0  0  0  0  0  0  0  0  0  0
    1.1276    0.5503    0.1130 C   0  0  0  0  0  0  0  0  0  0  0  0
    2.3367   -0.2087    0.6154 C   0  0  0  0  0  0  0  0  0  0  0  0
    3.3918    0.7006    0.7098 O   0  0  0  0  0  0  0  0  0  0  0  0
   -3.4236   -0.0467    0.3522 H   0  0  0  0  0  0  0  0  0  0  0  0
   -2.5149   -0.8734   -0.9730 H   0  0  0  0  0  0  0  0  0  0  0  0
   -3.1009    0.7874   -1.1780 H   0  0  0  0  0  0  0  0  0  0  0  0
   -1.2075    1.6290   -0.2711 H   0  0  0  0  0  0  0  0  0  0  0  0
   -1.7781    1.8105    1.7397 H   0  0  0  0  0  0  0  0  0  0  0  0
    0.1775   -1.7838    1.4015 H   0  0  0  0  0  0  0  0  0  0  0  0
    0.6877   -2.1654   -0.2612 H   0  0  0  0  0  0  0  0  0  0  0  0
   -1.0409   -2.2028    0.1654 H   0  0  0  0  0  0  0  0  0  0  0  0
    0.3022    1.0124   -1.8864 H   0  0  0  0  0  0  0  0  0  0  0  0
    1.2464   -0.6453   -1.8067 H   0  0  0  0  0  0  0  0  0  0  0  0
    1.0919    1.6049    0.4287 H   0  0  0  0  0  0  0  0  0  0  0  0
    2.6577   -1.0037   -0.1073 H   0  0  0  0  0  0  0  0  0  0  0  0
    2.0967   -0.6715    1.6055 H   0  0  0  0  0  0  0  0  0  0  0  0
    3.1301    1.6079    0.4073 H   0  0  0  0  0  0  0  0  0  0  0  0
  1  2  1  0
  2  3  1  0
  2  4  1  0
  4  5  1  0
  4  6  1  0
  6  7  1  0
  7  8  1  0
  8  9  1  0
  7  4  1  0
  1 10  1  0
  1 11  1  0
  1 12  1  0
  2 13  1  0
  3 14  1  0
  5 15  1  0
  5 16  1  0
  5 17  1  0
  6 18  1  0
  6 19  1  0
  7 20  1  0
  8 21  1  0
  8 22  1  0
  9 23  1  0
M  END
