
     RDKit          3D

 18 18  0  0  0  0  0  0  0  0999 V2000
    2.3031    0.9162   -0.4136 C   0  0  0  0  0  0  0  0  0  0  0  0
    1.5278   -0.3525   -0.1161 C   0  0  0  0  0  0  0  0  0  0  0  0
    1.5471   -0.6506    1.2402 O   0  0  0  0  0  0  0  0  0  0  0  0
    0.1229   -0.1425   -0.5622 C   0  0  0  0  0  0  0  0  0  0  0  0
   -0.0769    0.1305   -1.7365 O   0  0  0  0  0  0  0  0  0  0  0  0
   -0.9913   -0.2646    0.4028 C   0  0  0  0  0  0  0  0  0  0  0  0
   -2.3099   -0.7737   -0.1011 C   0  0  0  0  0  0  0  0  0  0  0  0
   -2.1634    0.6662    0.3267 C   0  0  0  0  0  0  0  0  0  0  0  0
    2.3338    1.5754    0.4784 H   0  0  0  0  0  0  0  0  0  0  0  0
    3.3446    0.6684   -0.6603 H   0  0  0  0  0  0  0  0  0  0  0  0
    1.8025    1.5143   -1.2309 H   0  0  0  0  0  0  0  0  0  0  0  0
    2.0225   -1.1804   -0.6465 H   0  0  0  0  0  0  0  0  0  0  0  0
    1.3940   -1.5924    1.4342 H   0  0  0  0  0  0  0  0  0  0  0  0
   -0.6957   -0.5161    1.4447 H   0  0  0  0  0  0  0  0  0  0  0  0
   -2.9321   -1.4038    0.5469 H   0  0  0  0  0  0  0  0  0  0  0  0
   -2.3356   -0.9834   -1.2035 H   0  0  0  0  0  0  0  0  0  0  0  0
   -2.6750    0.9792    1.2736 H   0  0  0  0  0  0  0  0  0  0  0  0
   -2.2183    1.4099   -0.4768 H   0  0  0  0  0  0  0  0  0  0  0  0
  1  2  1  0
  2  3  1  0
  2  4  1  0
  4  5  2  0
  4  6  1  0
  6  7  1  0
  7  8  1  0
  8  6  1  0
  1  9  1  0
  1 10  1  0
  1 11  1  0
  2 12  1  0
  3 13  1  0
  6 14  1  0
  7 15  1  0
  7 16  1  0
  8 17  1  0
  8 18  1  0
M  END
