
     RDKit          3D

 23 23  0  0  0  0  0  0  0  0999 V2000
    2.8908   -0.0988   -0.2386 C   0  0  0  0  0  0  0  0  0  0  0  0
    1.4848   -0.4027    0.3031 C   0  0  0  0  0  0  0  0  0  0  0  0
    1.2971    0.2506    1.5231 O   0  0  0  0  0  0  0  0  0  0  0  0
    0.4868    0.1094   -0.6643 C   0  0  0  0  0  0  0  0  0  0  0  0
   -0.9455   -0.0843   -0.3336 C   0  0  0  0  0  0  0  0  0  0  0  0
   -1.8731    0.4943   -1.4225 C   0  0  0  0  0  0  0  0  0  0  0  0
   -1.5604    1.8528   -1.4744 O   0  0  0  0  0  0  0  0  0  0  0  0
   -1.5248   -0.1009    1.0073 C   0  0  0  0  0  0  0  0  0  0  0  0
   -1.3131   -1.4113    0.2392 C   0  0  0  0  0  0  0  0  0  0  0  0
    2.8216    0.0871   -1.3123 H   0  0  0  0  0  0  0  0  0  0  0  0
    3.2505    0.8092    0.3029 H   0  0  0  0  0  0  0  0  0  0  0  0
    3.5742   -0.9582   -0.0777 H   0  0  0  0  0  0  0  0  0  0  0  0
    1.4340   -1.4974    0.3821 H   0  0  0  0  0  0  0  0  0  0  0  0
    1.8381    1.0831    1.5854 H   0  0  0  0  0  0  0  0  0  0  0  0
    0.7392    1.1901   -0.8691 H   0  0  0  0  0  0  0  0  0  0  0  0
    0.6707   -0.3925   -1.6591 H   0  0  0  0  0  0  0  0  0  0  0  0
   -1.6872    0.0064   -2.3797 H   0  0  0  0  0  0  0  0  0  0  0  0
   -2.9371    0.3850   -1.1066 H   0  0  0  0  0  0  0  0  0  0  0  0
   -2.3316    2.4131   -1.2244 H   0  0  0  0  0  0  0  0  0  0  0  0
   -2.5930    0.2428    1.1404 H   0  0  0  0  0  0  0  0  0  0  0  0
   -0.9732    0.0195    1.9533 H   0  0  0  0  0  0  0  0  0  0  0  0
   -2.2411   -1.9173   -0.0325 H   0  0  0  0  0  0  0  0  0  0  0  0
   -0.5076   -2.0800    0.5809 H   0  0  0  0  0  0  0  0  0  0  0  0
  1  2  1  0
  2  3  1  0
  2  4  1  0
  4  5  1  0
  5  6  1  0
  6  7  1  0
  5  8  1  0
  8  9  1  0
  9  5  1  0
  1 10  1  0
  1 11  1  0
  1 12  1  0
  2 13  1  0
  3 14  1  0
  4 15  1  0
  4 16  1  0
  6 17  1  0
  6 18  1  0
  7 19  1  0
  8 20  1  0
  8 21  1  0
  9 22  1  0
  9 23  1  0
M  END
