
     RDKit          3D

 27 26  0  0  0  0  0  0  0  0999 V2000
    2.9398   -0.6458   -0.1891 C   0  0  0  0  0  0  0  0  0  0  0  0
    2.2366    0.1060    0.9194 C   0  0  0  0  0  0  0  0  0  0  0  0
    3.0125    1.2641    1.1533 O   0  0  0  0  0  0  0  0  0  0  0  0
    0.8657    0.5647    0.5036 C   0  0  0  0  0  0  0  0  0  0  0  0
   -0.0089   -0.6084    0.1281 C   0  0  0  0  0  0  0  0  0  0  0  0
   -1.3792   -0.1291   -0.2858 C   0  0  0  0  0  0  0  0  0  0  0  0
   -2.0545    0.6237    0.8393 C   0  0  0  0  0  0  0  0  0  0  0  0
   -1.3481    0.7638   -1.4883 C   0  0  0  0  0  0  0  0  0  0  0  0
   -2.2371   -1.3439   -0.5984 C   0  0  0  0  0  0  0  0  0  0  0  0
    2.4356   -1.5897   -0.4141 H   0  0  0  0  0  0  0  0  0  0  0  0
    2.9464    0.0079   -1.1070 H   0  0  0  0  0  0  0  0  0  0  0  0
    4.0056   -0.7857    0.1237 H   0  0  0  0  0  0  0  0  0  0  0  0
    2.2391   -0.4853    1.8352 H   0  0  0  0  0  0  0  0  0  0  0  0
    2.8827    1.8379    0.3551 H   0  0  0  0  0  0  0  0  0  0  0  0
    0.9360    1.2341   -0.3658 H   0  0  0  0  0  0  0  0  0  0  0  0
    0.4056    1.1071    1.3294 H   0  0  0  0  0  0  0  0  0  0  0  0
    0.4665   -1.1490   -0.7154 H   0  0  0  0  0  0  0  0  0  0  0  0
   -0.1536   -1.2620    1.0157 H   0  0  0  0  0  0  0  0  0  0  0  0
   -2.0441    1.7214    0.6618 H   0  0  0  0  0  0  0  0  0  0  0  0
   -1.5387    0.3847    1.8042 H   0  0  0  0  0  0  0  0  0  0  0  0
   -3.1107    0.3369    0.9664 H   0  0  0  0  0  0  0  0  0  0  0  0
   -0.7754    0.3463   -2.3232 H   0  0  0  0  0  0  0  0  0  0  0  0
   -2.4015    0.8921   -1.8313 H   0  0  0  0  0  0  0  0  0  0  0  0
   -1.0007    1.7646   -1.1643 H   0  0  0  0  0  0  0  0  0  0  0  0
   -2.8601   -1.1304   -1.4932 H   0  0  0  0  0  0  0  0  0  0  0  0
   -2.8835   -1.5983    0.2883 H   0  0  0  0  0  0  0  0  0  0  0  0
   -1.5762   -2.2277   -0.7557 H   0  0  0  0  0  0  0  0  0  0  0  0
  1  2  1  0
  2  3  1  0
  2  4  1  0
  4  5  1  0
  5  6  1  0
  6  7  1  0
  6  8  1  0
  6  9  1  0
  1 10  1  0
  1 11  1  0
  1 12  1  0
  2 13  1  0
  3 14  1  0
  4 15  1  0
  4 16  1  0
  5 17  1  0
  5 18  1  0
  7 19  1  0
  7 20  1  0
  7 21  1  0
  8 22  1  0
  8 23  1  0
  8 24  1  0
  9 25  1  0
  9 26  1  0
  9 27  1  0
M  END
