
     RDKit          3D

 23 23  0  0  0  0  0  0  0  0999 V2000
   -2.1081   -1.3419    0.1176 C   0  0  0  0  0  0  0  0  0  0  0  0
   -1.1233   -0.6344   -0.7942 C   0  0  0  0  0  0  0  0  0  0  0  0
   -1.7601    0.2352   -1.6771 O   0  0  0  0  0  0  0  0  0  0  0  0
   -0.1523    0.1673    0.0811 C   0  0  0  0  0  0  0  0  0  0  0  0
   -0.9971    1.1525    0.8612 C   0  0  0  0  0  0  0  0  0  0  0  0
    0.7870    0.8730   -0.8622 C   0  0  0  0  0  0  0  0  0  0  0  0
    1.7799    1.6798   -0.2989 O   0  0  0  0  0  0  0  0  0  0  0  0
    2.1534    0.4576   -1.0605 C   0  0  0  0  0  0  0  0  0  0  0  0
    2.8675   -0.4994   -0.1605 C   0  0  0  0  0  0  0  0  0  0  0  0
   -1.8323   -1.2279    1.1945 H   0  0  0  0  0  0  0  0  0  0  0  0
   -3.1144   -0.9399   -0.1015 H   0  0  0  0  0  0  0  0  0  0  0  0
   -2.0623   -2.4373   -0.0953 H   0  0  0  0  0  0  0  0  0  0  0  0
   -0.5598   -1.3612   -1.4214 H   0  0  0  0  0  0  0  0  0  0  0  0
   -2.6962    0.4111   -1.3792 H   0  0  0  0  0  0  0  0  0  0  0  0
    0.3742   -0.4746    0.7887 H   0  0  0  0  0  0  0  0  0  0  0  0
   -0.6013    1.2916    1.8882 H   0  0  0  0  0  0  0  0  0  0  0  0
   -2.0413    0.7850    0.9373 H   0  0  0  0  0  0  0  0  0  0  0  0
   -1.0450    2.1016    0.2911 H   0  0  0  0  0  0  0  0  0  0  0  0
    0.2635    1.3564   -1.7222 H   0  0  0  0  0  0  0  0  0  0  0  0
    2.6658    0.6815   -2.0036 H   0  0  0  0  0  0  0  0  0  0  0  0
    3.9571   -0.2742   -0.2234 H   0  0  0  0  0  0  0  0  0  0  0  0
    2.5127   -0.4601    0.8934 H   0  0  0  0  0  0  0  0  0  0  0  0
    2.7323   -1.5415   -0.4928 H   0  0  0  0  0  0  0  0  0  0  0  0
  1  2  1  0
  2  3  1  0
  2  4  1  0
  4  5  1  0
  4  6  1  0
  6  7  1  0
  7  8  1  0
  8  9  1  0
  8  6  1  0
  1 10  1  0
  1 11  1  0
  1 12  1  0
  2 13  1  0
  3 14  1  0
  4 15  1  0
  5 16  1  0
  5 17  1  0
  5 18  1  0
  6 19  1  0
  8 20  1  0
  9 21  1  0
  9 22  1  0
  9 23  1  0
M  END
