
     RDKit          3D

 25 25  0  0  0  0  0  0  0  0999 V2000
   -2.7363    0.3646    0.3341 C   0  0  0  0  0  0  0  0  0  0  0  0
   -1.6430    0.2660   -0.7074 C   0  0  0  0  0  0  0  0  0  0  0  0
   -1.2663    1.5607   -1.0375 O   0  0  0  0  0  0  0  0  0  0  0  0
   -0.4492   -0.5274   -0.1604 C   0  0  0  0  0  0  0  0  0  0  0  0
    0.0496    0.2003    1.0381 C   0  0  0  0  0  0  0  0  0  0  0  0
    1.4702   -0.0566    1.3925 C   0  0  0  0  0  0  0  0  0  0  0  0
    2.3278    0.1169    0.1584 C   0  0  0  0  0  0  0  0  0  0  0  0
    1.9314   -1.0384   -0.7719 C   0  0  0  0  0  0  0  0  0  0  0  0
    0.5382   -0.6515   -1.2732 C   0  0  0  0  0  0  0  0  0  0  0  0
   -3.1636   -0.6152    0.6070 H   0  0  0  0  0  0  0  0  0  0  0  0
   -2.4086    0.9305    1.2224 H   0  0  0  0  0  0  0  0  0  0  0  0
   -3.5572    0.9506   -0.1296 H   0  0  0  0  0  0  0  0  0  0  0  0
   -2.0624   -0.2064   -1.6138 H   0  0  0  0  0  0  0  0  0  0  0  0
   -1.5640    2.2305   -0.3620 H   0  0  0  0  0  0  0  0  0  0  0  0
   -0.8290   -1.5321    0.1250 H   0  0  0  0  0  0  0  0  0  0  0  0
   -0.5758   -0.0772    1.9295 H   0  0  0  0  0  0  0  0  0  0  0  0
   -0.1009    1.2999    0.8762 H   0  0  0  0  0  0  0  0  0  0  0  0
    1.7941    0.7267    2.1118 H   0  0  0  0  0  0  0  0  0  0  0  0
    1.5964   -1.0792    1.8111 H   0  0  0  0  0  0  0  0  0  0  0  0
    3.4076    0.1024    0.3755 H   0  0  0  0  0  0  0  0  0  0  0  0
    2.0142    1.0812   -0.3169 H   0  0  0  0  0  0  0  0  0  0  0  0
    1.8216   -1.9761   -0.1993 H   0  0  0  0  0  0  0  0  0  0  0  0
    2.5784   -1.1026   -1.6465 H   0  0  0  0  0  0  0  0  0  0  0  0
    0.6618    0.3630   -1.7243 H   0  0  0  0  0  0  0  0  0  0  0  0
    0.1651   -1.3304   -2.0386 H   0  0  0  0  0  0  0  0  0  0  0  0
  1  2  1  0
  2  3  1  0
  2  4  1  0
  4  5  1  0
  5  6  1  0
  6  7  1  0
  7  8  1  0
  8  9  1  0
  9  4  1  0
  1 10  1  0
  1 11  1  0
  1 12  1  0
  2 13  1  0
  3 14  1  0
  4 15  1  0
  5 16  1  0
  5 17  1  0
  6 18  1  0
  6 19  1  0
  7 20  1  0
  7 21  1  0
  8 22  1  0
  8 23  1  0
  9 24  1  0
  9 25  1  0
M  END
