
     RDKit          3D

 20 20  0  0  0  0  0  0  0  0999 V2000
    2.8925    0.5106   -0.2636 C   0  0  0  0  0  0  0  0  0  0  0  0
    1.6690    0.1288    0.5418 C   0  0  0  0  0  0  0  0  0  0  0  0
    1.8494   -1.0920    1.2011 O   0  0  0  0  0  0  0  0  0  0  0  0
    0.5221   -0.0607   -0.4481 C   0  0  0  0  0  0  0  0  0  0  0  0
   -0.7519   -0.4460    0.2641 C   0  0  0  0  0  0  0  0  0  0  0  0
   -1.1826    0.5809    1.2402 O   0  0  0  0  0  0  0  0  0  0  0  0
   -1.9483    0.3011   -0.0042 C   0  0  0  0  0  0  0  0  0  0  0  0
   -3.3298   -0.1328    0.3593 C   0  0  0  0  0  0  0  0  0  0  0  0
    3.8237    0.2347    0.2645 H   0  0  0  0  0  0  0  0  0  0  0  0
    2.8214    1.6081   -0.4396 H   0  0  0  0  0  0  0  0  0  0  0  0
    2.8038    0.0139   -1.2508 H   0  0  0  0  0  0  0  0  0  0  0  0
    1.4100    0.8834    1.3080 H   0  0  0  0  0  0  0  0  0  0  0  0
    2.0675   -1.8221    0.5646 H   0  0  0  0  0  0  0  0  0  0  0  0
    0.8193   -0.8139   -1.1745 H   0  0  0  0  0  0  0  0  0  0  0  0
    0.3309    0.8791   -1.0023 H   0  0  0  0  0  0  0  0  0  0  0  0
   -0.7794   -1.4261    0.7796 H   0  0  0  0  0  0  0  0  0  0  0  0
   -1.8668    1.2177   -0.6327 H   0  0  0  0  0  0  0  0  0  0  0  0
   -3.7555   -0.7980   -0.4202 H   0  0  0  0  0  0  0  0  0  0  0  0
   -3.4117   -0.5510    1.3679 H   0  0  0  0  0  0  0  0  0  0  0  0
   -3.9837    0.7843    0.3460 H   0  0  0  0  0  0  0  0  0  0  0  0
  1  2  1  0
  2  3  1  0
  2  4  1  0
  4  5  1  0
  5  6  1  0
  6  7  1  0
  7  8  1  0
  7  5  1  0
  1  9  1  0
  1 10  1  0
  1 11  1  0
  2 12  1  0
  3 13  1  0
  4 14  1  0
  4 15  1  0
  5 16  1  0
  7 17  1  0
  8 18  1  0
  8 19  1  0
  8 20  1  0
M  END
