
     RDKit          3D

 20 20  0  0  0  0  0  0  0  0999 V2000
    1.8280    0.4844    0.5684 C   0  0  0  0  0  0  0  0  0  0  0  0
    1.0582   -0.3103   -0.4547 C   0  0  0  0  0  0  0  0  0  0  0  0
    1.2982    0.2922   -1.7012 O   0  0  0  0  0  0  0  0  0  0  0  0
   -0.4042   -0.3327   -0.1137 C   0  0  0  0  0  0  0  0  0  0  0  0
   -1.0927    1.0015   -0.0472 C   0  0  0  0  0  0  0  0  0  0  0  0
   -0.5680    1.8598    0.8862 O   0  0  0  0  0  0  0  0  0  0  0  0
   -0.8470   -1.4475    0.7594 C   0  0  0  0  0  0  0  0  0  0  0  0
   -1.2726   -1.4561   -0.6923 C   0  0  0  0  0  0  0  0  0  0  0  0
    1.6834    1.5561    0.3190 H   0  0  0  0  0  0  0  0  0  0  0  0
    2.8938    0.1746    0.4836 H   0  0  0  0  0  0  0  0  0  0  0  0
    1.4561    0.3459    1.6013 H   0  0  0  0  0  0  0  0  0  0  0  0
    1.4227   -1.3558   -0.5356 H   0  0  0  0  0  0  0  0  0  0  0  0
    1.8081    1.1313   -1.6219 H   0  0  0  0  0  0  0  0  0  0  0  0
   -0.9974    1.4759   -1.0458 H   0  0  0  0  0  0  0  0  0  0  0  0
   -2.1797    0.8946    0.1471 H   0  0  0  0  0  0  0  0  0  0  0  0
   -1.2738    2.5172    1.1215 H   0  0  0  0  0  0  0  0  0  0  0  0
   -0.1595   -2.2496    1.0326 H   0  0  0  0  0  0  0  0  0  0  0  0
   -1.5839   -1.1819    1.5352 H   0  0  0  0  0  0  0  0  0  0  0  0
   -0.7352   -2.1302   -1.3864 H   0  0  0  0  0  0  0  0  0  0  0  0
   -2.3346   -1.2694   -0.8555 H   0  0  0  0  0  0  0  0  0  0  0  0
  1  2  1  0
  2  3  1  0
  2  4  1  0
  4  5  1  0
  5  6  1  0
  4  7  1  0
  7  8  1  0
  8  4  1  0
  1  9  1  0
  1 10  1  0
  1 11  1  0
  2 12  1  0
  3 13  1  0
  5 14  1  0
  5 15  1  0
  6 16  1  0
  7 17  1  0
  7 18  1  0
  8 19  1  0
  8 20  1  0
M  END
