
     RDKit          3D

 22 22  0  0  0  0  0  0  0  0999 V2000
    2.7471    0.0061   -0.4032 C   0  0  0  0  0  0  0  0  0  0  0  0
    1.3189   -0.5621   -0.2912 C   0  0  0  0  0  0  0  0  0  0  0  0
    1.0717   -1.1728   -1.5177 O   0  0  0  0  0  0  0  0  0  0  0  0
    0.4351    0.5908    0.0190 C   0  0  0  0  0  0  0  0  0  0  0  0
   -1.0107    0.3248    0.1891 C   0  0  0  0  0  0  0  0  0  0  0  0
   -1.8368    1.5664    0.5125 C   0  0  0  0  0  0  0  0  0  0  0  0
   -1.7471   -0.6428   -0.7160 C   0  0  0  0  0  0  0  0  0  0  0  0
   -1.4326   -0.9990    0.6690 C   0  0  0  0  0  0  0  0  0  0  0  0
    2.7187    1.0749   -0.7089 H   0  0  0  0  0  0  0  0  0  0  0  0
    3.3222   -0.5268   -1.1887 H   0  0  0  0  0  0  0  0  0  0  0  0
    3.2524   -0.0118    0.5890 H   0  0  0  0  0  0  0  0  0  0  0  0
    1.2912   -1.3652    0.4817 H   0  0  0  0  0  0  0  0  0  0  0  0
    1.5253   -2.0686   -1.4841 H   0  0  0  0  0  0  0  0  0  0  0  0
    0.6153    1.3536   -0.7949 H   0  0  0  0  0  0  0  0  0  0  0  0
    0.8158    1.0396    0.9778 H   0  0  0  0  0  0  0  0  0  0  0  0
   -2.2596    1.9111   -0.4644 H   0  0  0  0  0  0  0  0  0  0  0  0
   -1.2041    2.3567    0.9268 H   0  0  0  0  0  0  0  0  0  0  0  0
   -2.6573    1.3436    1.2096 H   0  0  0  0  0  0  0  0  0  0  0  0
   -1.2036   -0.9679   -1.6033 H   0  0  0  0  0  0  0  0  0  0  0  0
   -2.8372   -0.4520   -0.9259 H   0  0  0  0  0  0  0  0  0  0  0  0
   -0.6709   -1.7876    0.8128 H   0  0  0  0  0  0  0  0  0  0  0  0
   -2.2537   -1.0107    1.4104 H   0  0  0  0  0  0  0  0  0  0  0  0
  1  2  1  0
  2  3  1  0
  2  4  1  0
  4  5  1  0
  5  6  1  0
  5  7  1  0
  7  8  1  0
  8  5  1  0
  1  9  1  0
  1 10  1  0
  1 11  1  0
  2 12  1  0
  3 13  1  0
  4 14  1  0
  4 15  1  0
  6 16  1  0
  6 17  1  0
  6 18  1  0
  7 19  1  0
  7 20  1  0
  8 21  1  0
  8 22  1  0
M  END
