
     RDKit          3D

 23 23  0  0  0  0  0  0  0  0999 V2000
    1.3355   -1.4307    1.2869 C   0  0  0  0  0  0  0  0  0  0  0  0
    1.2232   -0.4000    0.2175 C   0  0  0  0  0  0  0  0  0  0  0  0
    1.9981    0.6983    0.5792 O   0  0  0  0  0  0  0  0  0  0  0  0
   -0.1583   -0.0198   -0.1695 C   0  0  0  0  0  0  0  0  0  0  0  0
   -0.9845   -1.1868   -0.6993 C   0  0  0  0  0  0  0  0  0  0  0  0
   -2.2583   -0.7453   -1.0367 O   0  0  0  0  0  0  0  0  0  0  0  0
   -0.9569    0.8429    0.7367 C   0  0  0  0  0  0  0  0  0  0  0  0
   -0.4258    2.0443   -0.0079 C   0  0  0  0  0  0  0  0  0  0  0  0
   -0.1657    1.1139   -1.1717 C   0  0  0  0  0  0  0  0  0  0  0  0
    1.0466   -2.4601    0.9218 H   0  0  0  0  0  0  0  0  0  0  0  0
    2.4089   -1.5236    1.5587 H   0  0  0  0  0  0  0  0  0  0  0  0
    0.7950   -1.1941    2.2110 H   0  0  0  0  0  0  0  0  0  0  0  0
    1.7158   -0.8333   -0.7029 H   0  0  0  0  0  0  0  0  0  0  0  0
    2.5727    1.0175   -0.1556 H   0  0  0  0  0  0  0  0  0  0  0  0
   -0.5222   -1.6335   -1.5986 H   0  0  0  0  0  0  0  0  0  0  0  0
   -1.0983   -1.9436    0.1074 H   0  0  0  0  0  0  0  0  0  0  0  0
   -2.9165   -1.4847   -1.0412 H   0  0  0  0  0  0  0  0  0  0  0  0
   -0.7210    0.8036    1.8132 H   0  0  0  0  0  0  0  0  0  0  0  0
   -2.0453    0.7370    0.5373 H   0  0  0  0  0  0  0  0  0  0  0  0
    0.5152    2.4784    0.3798 H   0  0  0  0  0  0  0  0  0  0  0  0
   -1.2180    2.8016   -0.1868 H   0  0  0  0  0  0  0  0  0  0  0  0
    0.8350    1.2472   -1.6566 H   0  0  0  0  0  0  0  0  0  0  0  0
   -0.9752    1.0706   -1.9230 H   0  0  0  0  0  0  0  0  0  0  0  0
  1  2  1  0
  2  3  1  0
  2  4  1  0
  4  5  1  0
  5  6  1  0
  4  7  1  0
  7  8  1  0
  8  9  1  0
  9  4  1  0
  1 10  1  0
  1 11  1  0
  1 12  1  0
  2 13  1  0
  3 14  1  0
  5 15  1  0
  5 16  1  0
  6 17  1  0
  7 18  1  0
  7 19  1  0
  8 20  1  0
  8 21  1  0
  9 22  1  0
  9 23  1  0
M  END
