
     RDKit          3D

 23 24  0  0  0  0  0  0  0  0999 V2000
    3.0820    0.5689   -0.4231 C   0  0  0  0  0  0  0  0  0  0  0  0
    2.0594   -0.5311   -0.2043 C   0  0  0  0  0  0  0  0  0  0  0  0
    2.1107   -1.0446    1.0878 O   0  0  0  0  0  0  0  0  0  0  0  0
    0.6636   -0.0962   -0.5800 C   0  0  0  0  0  0  0  0  0  0  0  0
    0.1464    1.0806    0.1902 C   0  0  0  0  0  0  0  0  0  0  0  0
   -0.4745   -0.2826    0.3481 C   0  0  0  0  0  0  0  0  0  0  0  0
   -1.8564   -0.4630   -0.2436 C   0  0  0  0  0  0  0  0  0  0  0  0
   -3.0268   -0.6531    0.6500 C   0  0  0  0  0  0  0  0  0  0  0  0
   -2.8675    0.5938   -0.1830 C   0  0  0  0  0  0  0  0  0  0  0  0
    2.5985    1.5665   -0.5162 H   0  0  0  0  0  0  0  0  0  0  0  0
    3.6789    0.4129   -1.3416 H   0  0  0  0  0  0  0  0  0  0  0  0
    3.7778    0.6226    0.4468 H   0  0  0  0  0  0  0  0  0  0  0  0
    2.3639   -1.3687   -0.8925 H   0  0  0  0  0  0  0  0  0  0  0  0
    2.3245   -2.0217    1.1039 H   0  0  0  0  0  0  0  0  0  0  0  0
    0.4417   -0.1253   -1.6709 H   0  0  0  0  0  0  0  0  0  0  0  0
   -0.3934    1.8530   -0.4124 H   0  0  0  0  0  0  0  0  0  0  0  0
    0.6589    1.4592    1.0771 H   0  0  0  0  0  0  0  0  0  0  0  0
   -0.3499   -0.8223    1.3151 H   0  0  0  0  0  0  0  0  0  0  0  0
   -1.8580   -1.1288   -1.1500 H   0  0  0  0  0  0  0  0  0  0  0  0
   -3.8635   -1.3049    0.3191 H   0  0  0  0  0  0  0  0  0  0  0  0
   -2.9333   -0.5736    1.7503 H   0  0  0  0  0  0  0  0  0  0  0  0
   -2.7314    1.5189    0.3932 H   0  0  0  0  0  0  0  0  0  0  0  0
   -3.5518    0.7396   -1.0640 H   0  0  0  0  0  0  0  0  0  0  0  0
  1  2  1  0
  2  3  1  0
  2  4  1  0
  4  5  1  0
  5  6  1  0
  6  7  1  0
  7  8  1  0
  8  9  1  0
  6  4  1  0
  9  7  1  0
  1 10  1  0
  1 11  1  0
  1 12  1  0
  2 13  1  0
  3 14  1  0
  4 15  1  0
  5 16  1  0
  5 17  1  0
  6 18  1  0
  7 19  1  0
  8 20  1  0
  8 21  1  0
  9 22  1  0
  9 23  1  0
M  END
