
     RDKit          3D

 19 19  0  0  0  0  0  0  0  0999 V2000
    2.9790    0.6137    0.1393 C   0  0  0  0  0  0  0  0  0  0  0  0
    1.9933    0.6364   -0.9771 C   0  0  0  0  0  0  0  0  0  0  0  0
    2.3955   -0.3215   -1.9247 O   0  0  0  0  0  0  0  0  0  0  0  0
    0.6699    0.2749   -0.4204 C   0  0  0  0  0  0  0  0  0  0  0  0
   -0.4123   -0.0315    0.0163 C   0  0  0  0  0  0  0  0  0  0  0  0
   -1.7265   -0.4097    0.5443 C   0  0  0  0  0  0  0  0  0  0  0  0
   -2.8619    0.4229   -0.0063 C   0  0  0  0  0  0  0  0  0  0  0  0
   -1.8576   -1.1348    1.8193 C   0  0  0  0  0  0  0  0  0  0  0  0
   -2.0308   -1.7744    0.6160 O   0  0  0  0  0  0  0  0  0  0  0  0
    2.8227    1.4074    0.8857 H   0  0  0  0  0  0  0  0  0  0  0  0
    2.9382   -0.4034    0.6052 H   0  0  0  0  0  0  0  0  0  0  0  0
    4.0036    0.6920   -0.3052 H   0  0  0  0  0  0  0  0  0  0  0  0
    1.8843    1.6349   -1.4075 H   0  0  0  0  0  0  0  0  0  0  0  0
    2.2379   -1.2217   -1.5469 H   0  0  0  0  0  0  0  0  0  0  0  0
   -2.5830    0.8324   -0.9986 H   0  0  0  0  0  0  0  0  0  0  0  0
   -3.0862    1.3076    0.6347 H   0  0  0  0  0  0  0  0  0  0  0  0
   -3.7865   -0.1772   -0.1795 H   0  0  0  0  0  0  0  0  0  0  0  0
   -0.8991   -1.3914    2.3307 H   0  0  0  0  0  0  0  0  0  0  0  0
   -2.6804   -0.9565    2.5161 H   0  0  0  0  0  0  0  0  0  0  0  0
  1  2  1  0
  2  3  1  0
  2  4  1  0
  4  5  3  0
  5  6  1  0
  6  7  1  0
  6  8  1  0
  8  9  1  0
  9  6  1  0
  1 10  1  0
  1 11  1  0
  1 12  1  0
  2 13  1  0
  3 14  1  0
  7 15  1  0
  7 16  1  0
  7 17  1  0
  8 18  1  0
  8 19  1  0
M  END
