
     RDKit          3D

 20 20  0  0  0  0  0  0  0  0999 V2000
    2.3450    0.6573    0.2902 C   0  0  0  0  0  0  0  0  0  0  0  0
    1.4315   -0.4585   -0.1697 C   0  0  0  0  0  0  0  0  0  0  0  0
    1.2329   -0.2490   -1.5471 O   0  0  0  0  0  0  0  0  0  0  0  0
    0.1120   -0.4388    0.5714 C   0  0  0  0  0  0  0  0  0  0  0  0
   -0.9352   -1.4294    0.2928 C   0  0  0  0  0  0  0  0  0  0  0  0
   -1.0765   -0.0104   -0.2020 C   0  0  0  0  0  0  0  0  0  0  0  0
   -2.0907    0.8892    0.4297 C   0  0  0  0  0  0  0  0  0  0  0  0
   -1.0137    0.0878   -1.6006 O   0  0  0  0  0  0  0  0  0  0  0  0
    3.1348    0.7628   -0.5015 H   0  0  0  0  0  0  0  0  0  0  0  0
    2.8110    0.4427    1.2751 H   0  0  0  0  0  0  0  0  0  0  0  0
    1.7413    1.5880    0.3002 H   0  0  0  0  0  0  0  0  0  0  0  0
    1.9726   -1.4106   -0.0322 H   0  0  0  0  0  0  0  0  0  0  0  0
    1.2633    0.7352   -1.7643 H   0  0  0  0  0  0  0  0  0  0  0  0
    0.1674   -0.0517    1.6107 H   0  0  0  0  0  0  0  0  0  0  0  0
   -1.6162   -1.7540    1.1300 H   0  0  0  0  0  0  0  0  0  0  0  0
   -0.7966   -2.2558   -0.4410 H   0  0  0  0  0  0  0  0  0  0  0  0
   -3.0230    0.3243    0.6021 H   0  0  0  0  0  0  0  0  0  0  0  0
   -2.2327    1.7738   -0.2074 H   0  0  0  0  0  0  0  0  0  0  0  0
   -1.6752    1.2837    1.4015 H   0  0  0  0  0  0  0  0  0  0  0  0
   -1.7520   -0.4866   -1.9378 H   0  0  0  0  0  0  0  0  0  0  0  0
  1  2  1  0
  2  3  1  0
  2  4  1  0
  4  5  1  0
  5  6  1  0
  6  7  1  0
  6  8  1  0
  6  4  1  0
  1  9  1  0
  1 10  1  0
  1 11  1  0
  2 12  1  0
  3 13  1  0
  4 14  1  0
  5 15  1  0
  5 16  1  0
  7 17  1  0
  7 18  1  0
  7 19  1  0
  8 20  1  0
M  END
