
     RDKit          3D

 19 18  0  0  0  0  0  0  0  0999 V2000
   -2.2632   -0.8142    0.2889 C   0  0  0  0  0  0  0  0  0  0  0  0
   -1.1502    0.2523    0.3669 C   0  0  0  0  0  0  0  0  0  0  0  0
   -1.4886    1.2971   -0.4606 O   0  0  0  0  0  0  0  0  0  0  0  0
    0.1872   -0.3124    0.0652 C   0  0  0  0  0  0  0  0  0  0  0  0
    0.5862   -1.4613    1.0280 C   0  0  0  0  0  0  0  0  0  0  0  0
    1.1789    0.4971   -0.4067 C   0  0  0  0  0  0  0  0  0  0  0  0
    2.0867    1.2142   -0.8222 C   0  0  0  0  0  0  0  0  0  0  0  0
    3.2160    2.0809   -1.3160 C   0  0  0  0  0  0  0  0  0  0  0  0
    3.2094    3.2840   -0.8315 O   0  0  0  0  0  0  0  0  0  0  0  0
   -2.9849   -0.4348   -0.4907 H   0  0  0  0  0  0  0  0  0  0  0  0
   -1.8970   -1.7852    0.0062 H   0  0  0  0  0  0  0  0  0  0  0  0
   -2.8230   -0.7569    1.2469 H   0  0  0  0  0  0  0  0  0  0  0  0
   -1.1201    0.6259    1.4119 H   0  0  0  0  0  0  0  0  0  0  0  0
   -2.3340    1.0508   -0.9204 H   0  0  0  0  0  0  0  0  0  0  0  0
   -0.1332   -1.0714   -0.8567 H   0  0  0  0  0  0  0  0  0  0  0  0
    0.8892   -1.1441    1.9918 H   0  0  0  0  0  0  0  0  0  0  0  0
   -0.3356   -2.1287    1.1620 H   0  0  0  0  0  0  0  0  0  0  0  0
    1.2746   -2.1161    0.4952 H   0  0  0  0  0  0  0  0  0  0  0  0
    3.9015    1.7227   -1.9582 H   0  0  0  0  0  0  0  0  0  0  0  0
  1  2  1  0
  2  3  1  0
  2  4  1  0
  4  5  1  0
  4  6  1  0
  6  7  3  0
  7  8  1  0
  8  9  2  0
  1 10  1  0
  1 11  1  0
  1 12  1  0
  2 13  1  0
  3 14  1  0
  4 15  1  0
  5 16  1  0
  5 17  1  0
  5 18  1  0
  8 19  1  0
M  END
