
     RDKit          3D

 23 22  0  0  0  0  0  0  0  0999 V2000
   -2.2597    0.8509   -0.6370 C   0  0  0  0  0  0  0  0  0  0  0  0
   -2.0107   -0.1859    0.4099 C   0  0  0  0  0  0  0  0  0  0  0  0
   -2.6511    0.1792    1.5991 O   0  0  0  0  0  0  0  0  0  0  0  0
   -0.5316   -0.3312    0.7462 C   0  0  0  0  0  0  0  0  0  0  0  0
    0.2611   -0.7304   -0.4711 C   0  0  0  0  0  0  0  0  0  0  0  0
    0.1628    0.2238   -1.4895 O   0  0  0  0  0  0  0  0  0  0  0  0
    1.7091   -0.9423   -0.1610 C   0  0  0  0  0  0  0  0  0  0  0  0
    2.3293    0.3190    0.3757 C   0  0  0  0  0  0  0  0  0  0  0  0
    2.2235    1.3779   -0.5306 O   0  0  0  0  0  0  0  0  0  0  0  0
   -1.6424    1.7624   -0.5046 H   0  0  0  0  0  0  0  0  0  0  0  0
   -2.1561    0.4579   -1.6688 H   0  0  0  0  0  0  0  0  0  0  0  0
   -3.3360    1.1702   -0.5446 H   0  0  0  0  0  0  0  0  0  0  0  0
   -2.3396   -1.1699    0.0386 H   0  0  0  0  0  0  0  0  0  0  0  0
   -2.1822   -0.2363    2.3704 H   0  0  0  0  0  0  0  0  0  0  0  0
   -0.1360    0.6034    1.1845 H   0  0  0  0  0  0  0  0  0  0  0  0
   -0.4631   -1.1437    1.4957 H   0  0  0  0  0  0  0  0  0  0  0  0
   -0.1862   -1.6968   -0.8403 H   0  0  0  0  0  0  0  0  0  0  0  0
    0.8739   -0.0101   -2.1639 H   0  0  0  0  0  0  0  0  0  0  0  0
    2.2533   -1.3308   -1.0502 H   0  0  0  0  0  0  0  0  0  0  0  0
    1.7764   -1.6910    0.6834 H   0  0  0  0  0  0  0  0  0  0  0  0
    1.8107    0.6114    1.2992 H   0  0  0  0  0  0  0  0  0  0  0  0
    3.4091    0.1432    0.6351 H   0  0  0  0  0  0  0  0  0  0  0  0
    3.0853    1.7694   -0.7760 H   0  0  0  0  0  0  0  0  0  0  0  0
  1  2  1  0
  2  3  1  0
  2  4  1  0
  4  5  1  0
  5  6  1  0
  5  7  1  0
  7  8  1  0
  8  9  1  0
  1 10  1  0
  1 11  1  0
  1 12  1  0
  2 13  1  0
  3 14  1  0
  4 15  1  0
  4 16  1  0
  5 17  1  0
  6 18  1  0
  7 19  1  0
  7 20  1  0
  8 21  1  0
  8 22  1  0
  9 23  1  0
M  END
