
     RDKit          3D

 25 24  0  0  0  0  0  0  0  0999 V2000
   -3.2371    0.2398   -0.4669 C   0  0  0  0  0  0  0  0  0  0  0  0
   -1.7557    0.2303   -0.7577 C   0  0  0  0  0  0  0  0  0  0  0  0
   -1.3352    1.5686   -0.5617 O   0  0  0  0  0  0  0  0  0  0  0  0
   -0.9770   -0.6057    0.1891 C   0  0  0  0  0  0  0  0  0  0  0  0
    0.4845   -0.6869   -0.0162 C   0  0  0  0  0  0  0  0  0  0  0  0
    1.0340   -1.6055    1.0877 C   0  0  0  0  0  0  0  0  0  0  0  0
    1.2424    0.5985    0.0678 C   0  0  0  0  0  0  0  0  0  0  0  0
    2.7330    0.3120   -0.1641 C   0  0  0  0  0  0  0  0  0  0  0  0
    3.4767    1.4820   -0.0946 O   0  0  0  0  0  0  0  0  0  0  0  0
   -3.4222    0.0770    0.6118 H   0  0  0  0  0  0  0  0  0  0  0  0
   -3.7884   -0.5107   -1.0947 H   0  0  0  0  0  0  0  0  0  0  0  0
   -3.6681    1.2204   -0.7279 H   0  0  0  0  0  0  0  0  0  0  0  0
   -1.5721   -0.0332   -1.7961 H   0  0  0  0  0  0  0  0  0  0  0  0
   -2.0309    2.1339   -0.9814 H   0  0  0  0  0  0  0  0  0  0  0  0
   -1.3780   -1.6484    0.1256 H   0  0  0  0  0  0  0  0  0  0  0  0
   -1.1475   -0.3171    1.2674 H   0  0  0  0  0  0  0  0  0  0  0  0
    0.7622   -1.2029   -0.9678 H   0  0  0  0  0  0  0  0  0  0  0  0
    1.9458   -2.1000    0.7340 H   0  0  0  0  0  0  0  0  0  0  0  0
    0.2522   -2.2938    1.4588 H   0  0  0  0  0  0  0  0  0  0  0  0
    1.3067   -0.9506    1.9360 H   0  0  0  0  0  0  0  0  0  0  0  0
    1.1721    1.0749    1.0641 H   0  0  0  0  0  0  0  0  0  0  0  0
    0.9500    1.3474   -0.7004 H   0  0  0  0  0  0  0  0  0  0  0  0
    2.8364   -0.0738   -1.2032 H   0  0  0  0  0  0  0  0  0  0  0  0
    3.1132   -0.4256    0.5448 H   0  0  0  0  0  0  0  0  0  0  0  0
    3.0030    2.1696    0.4457 H   0  0  0  0  0  0  0  0  0  0  0  0
  1  2  1  0
  2  3  1  0
  2  4  1  0
  4  5  1  0
  5  6  1  0
  5  7  1  0
  7  8  1  0
  8  9  1  0
  1 10  1  0
  1 11  1  0
  1 12  1  0
  2 13  1  0
  3 14  1  0
  4 15  1  0
  4 16  1  0
  5 17  1  0
  6 18  1  0
  6 19  1  0
  6 20  1  0
  7 21  1  0
  7 22  1  0
  8 23  1  0
  8 24  1  0
  9 25  1  0
M  END
