
     RDKit          3D

 20 20  0  0  0  0  0  0  0  0999 V2000
    2.3699    0.1466    0.0124 C   0  0  0  0  0  0  0  0  0  0  0  0
    1.1481   -0.7324    0.0340 C   0  0  0  0  0  0  0  0  0  0  0  0
    1.3610   -1.7527    0.9599 O   0  0  0  0  0  0  0  0  0  0  0  0
   -0.0409    0.0679    0.5164 C   0  0  0  0  0  0  0  0  0  0  0  0
   -0.3285    1.2270   -0.3525 C   0  0  0  0  0  0  0  0  0  0  0  0
   -1.6221    1.2905   -0.5877 C   0  0  0  0  0  0  0  0  0  0  0  0
   -2.3508    0.1941    0.0873 C   0  0  0  0  0  0  0  0  0  0  0  0
   -1.2874   -0.7671    0.5729 C   0  0  0  0  0  0  0  0  0  0  0  0
    2.5396    0.5842   -0.9964 H   0  0  0  0  0  0  0  0  0  0  0  0
    3.2497   -0.4938    0.2251 H   0  0  0  0  0  0  0  0  0  0  0  0
    2.3045    0.9666    0.7496 H   0  0  0  0  0  0  0  0  0  0  0  0
    0.9672   -1.1493   -0.9790 H   0  0  0  0  0  0  0  0  0  0  0  0
    1.9802   -1.5075    1.6687 H   0  0  0  0  0  0  0  0  0  0  0  0
    0.2167    0.4559    1.5338 H   0  0  0  0  0  0  0  0  0  0  0  0
    0.4079    1.9076   -0.7298 H   0  0  0  0  0  0  0  0  0  0  0  0
   -2.1716    2.0335   -1.1984 H   0  0  0  0  0  0  0  0  0  0  0  0
   -3.0150    0.5283    0.8950 H   0  0  0  0  0  0  0  0  0  0  0  0
   -2.9888   -0.3284   -0.6648 H   0  0  0  0  0  0  0  0  0  0  0  0
   -1.2546   -1.6517   -0.0781 H   0  0  0  0  0  0  0  0  0  0  0  0
   -1.4852   -1.0193    1.6358 H   0  0  0  0  0  0  0  0  0  0  0  0
  1  2  1  0
  2  3  1  0
  2  4  1  0
  4  5  1  0
  5  6  2  0
  6  7  1  0
  7  8  1  0
  8  4  1  0
  1  9  1  0
  1 10  1  0
  1 11  1  0
  2 12  1  0
  3 13  1  0
  4 14  1  0
  5 15  1  0
  6 16  1  0
  7 17  1  0
  7 18  1  0
  8 19  1  0
  8 20  1  0
M  END
