
     RDKit          3D

 21 22  0  0  0  0  0  0  0  0999 V2000
    1.7588    0.7163   -0.9403 C   0  0  0  0  0  0  0  0  0  0  0  0
    1.6178   -0.3313    0.1089 C   0  0  0  0  0  0  0  0  0  0  0  0
    2.4675   -0.0115    1.1696 O   0  0  0  0  0  0  0  0  0  0  0  0
    0.2052   -0.5993    0.5551 C   0  0  0  0  0  0  0  0  0  0  0  0
    0.2161   -1.6978    1.4676 O   0  0  0  0  0  0  0  0  0  0  0  0
   -0.7997    0.3427    0.8530 C   0  0  0  0  0  0  0  0  0  0  0  0
   -2.2853    0.3028    0.4647 C   0  0  0  0  0  0  0  0  0  0  0  0
   -1.6147    0.7216   -0.8666 C   0  0  0  0  0  0  0  0  0  0  0  0
   -0.7650   -0.4840   -0.5017 C   0  0  0  0  0  0  0  0  0  0  0  0
    1.3608    0.3992   -1.9280 H   0  0  0  0  0  0  0  0  0  0  0  0
    1.2762    1.6776   -0.6989 H   0  0  0  0  0  0  0  0  0  0  0  0
    2.8323    0.9437   -1.1086 H   0  0  0  0  0  0  0  0  0  0  0  0
    2.0025   -1.2881   -0.3050 H   0  0  0  0  0  0  0  0  0  0  0  0
    2.5207   -0.8415    1.7356 H   0  0  0  0  0  0  0  0  0  0  0  0
    0.1144   -2.5245    0.9615 H   0  0  0  0  0  0  0  0  0  0  0  0
   -0.4898    1.4264    0.7286 H   0  0  0  0  0  0  0  0  0  0  0  0
   -2.8716    1.0849    0.9353 H   0  0  0  0  0  0  0  0  0  0  0  0
   -2.7159   -0.6986    0.4031 H   0  0  0  0  0  0  0  0  0  0  0  0
   -2.2397    0.5384   -1.7362 H   0  0  0  0  0  0  0  0  0  0  0  0
   -1.1194    1.6982   -0.7996 H   0  0  0  0  0  0  0  0  0  0  0  0
   -1.4712   -1.3749   -0.4982 H   0  0  0  0  0  0  0  0  0  0  0  0
  1  2  1  0
  2  3  1  0
  2  4  1  0
  4  5  1  0
  4  6  1  0
  6  7  1  0
  7  8  1  0
  8  9  1  0
  9  4  1  0
  9  6  1  0
  1 10  1  0
  1 11  1  0
  1 12  1  0
  2 13  1  0
  3 14  1  0
  5 15  1  0
  6 16  1  0
  7 17  1  0
  7 18  1  0
  8 19  1  0
  8 20  1  0
  9 21  1  0
M  END
