
     RDKit          3D

 19 20  0  0  0  0  0  0  0  0999 V2000
    1.8666    0.3240    0.8893 C   0  0  0  0  0  0  0  0  0  0  0  0
    1.1063   -0.5765   -0.0274 C   0  0  0  0  0  0  0  0  0  0  0  0
    1.5944   -0.5324   -1.3344 O   0  0  0  0  0  0  0  0  0  0  0  0
   -0.3808   -0.3831    0.0376 C   0  0  0  0  0  0  0  0  0  0  0  0
   -1.3266   -1.1439   -0.7613 C   0  0  0  0  0  0  0  0  0  0  0  0
   -1.1489    0.3248   -0.9749 C   0  0  0  0  0  0  0  0  0  0  0  0
   -1.7275    1.2034    0.0949 C   0  0  0  0  0  0  0  0  0  0  0  0
   -0.8904    0.4882    1.1009 C   0  0  0  0  0  0  0  0  0  0  0  0
   -0.6685    0.5414    2.3005 O   0  0  0  0  0  0  0  0  0  0  0  0
    2.1710   -0.1901    1.8415 H   0  0  0  0  0  0  0  0  0  0  0  0
    2.8327    0.5916    0.3949 H   0  0  0  0  0  0  0  0  0  0  0  0
    1.2734    1.1965    1.1673 H   0  0  0  0  0  0  0  0  0  0  0  0
    1.3003   -1.6333    0.3231 H   0  0  0  0  0  0  0  0  0  0  0  0
    2.4359   -1.0587   -1.3620 H   0  0  0  0  0  0  0  0  0  0  0  0
   -2.3229   -1.4186   -0.3309 H   0  0  0  0  0  0  0  0  0  0  0  0
   -1.0337   -1.7722   -1.6131 H   0  0  0  0  0  0  0  0  0  0  0  0
   -0.7540    0.7332   -1.9052 H   0  0  0  0  0  0  0  0  0  0  0  0
   -2.8335    1.0447    0.2211 H   0  0  0  0  0  0  0  0  0  0  0  0
   -1.4938    2.2609   -0.0618 H   0  0  0  0  0  0  0  0  0  0  0  0
  1  2  1  0
  2  3  1  0
  2  4  1  0
  4  5  1  0
  5  6  1  0
  6  7  1  0
  7  8  1  0
  8  9  2  0
  6  4  1  0
  8  4  1  0
  1 10  1  0
  1 11  1  0
  1 12  1  0
  2 13  1  0
  3 14  1  0
  5 15  1  0
  5 16  1  0
  6 17  1  0
  7 18  1  0
  7 19  1  0
M  END
