
     RDKit          3D

 18 17  0  0  0  0  0  0  0  0999 V2000
   -1.7440    0.8352    0.7491 C   0  0  0  0  0  0  0  0  0  0  0  0
   -1.1501   -0.3179    0.0075 C   0  0  0  0  0  0  0  0  0  0  0  0
   -1.4073   -0.2439   -1.3634 O   0  0  0  0  0  0  0  0  0  0  0  0
    0.3265   -0.4852    0.1982 C   0  0  0  0  0  0  0  0  0  0  0  0
    0.7345   -1.6394   -0.4239 O   0  0  0  0  0  0  0  0  0  0  0  0
    1.1408    0.6717   -0.3072 C   0  0  0  0  0  0  0  0  0  0  0  0
    2.5666    0.3413   -0.0357 C   0  0  0  0  0  0  0  0  0  0  0  0
    2.9813   -0.7141   -0.4912 O   0  0  0  0  0  0  0  0  0  0  0  0
   -2.5959    1.2301    0.1503 H   0  0  0  0  0  0  0  0  0  0  0  0
   -1.0519    1.6708    0.9076 H   0  0  0  0  0  0  0  0  0  0  0  0
   -2.1788    0.5352    1.7275 H   0  0  0  0  0  0  0  0  0  0  0  0
   -1.6339   -1.2327    0.4049 H   0  0  0  0  0  0  0  0  0  0  0  0
   -1.6565   -1.1415   -1.6874 H   0  0  0  0  0  0  0  0  0  0  0  0
    0.5004   -0.5335    1.3047 H   0  0  0  0  0  0  0  0  0  0  0  0
    0.0119   -2.3408   -0.3343 H   0  0  0  0  0  0  0  0  0  0  0  0
    0.8386    1.6529    0.0849 H   0  0  0  0  0  0  0  0  0  0  0  0
    1.0740    0.7375   -1.4264 H   0  0  0  0  0  0  0  0  0  0  0  0
    3.2439    0.9743    0.5349 H   0  0  0  0  0  0  0  0  0  0  0  0
  1  2  1  0
  2  3  1  0
  2  4  1  0
  4  5  1  0
  4  6  1  0
  6  7  1  0
  7  8  2  0
  1  9  1  0
  1 10  1  0
  1 11  1  0
  2 12  1  0
  3 13  1  0
  4 14  1  0
  5 15  1  0
  6 16  1  0
  6 17  1  0
  7 18  1  0
M  END
