
     RDKit          3D

 18 18  0  0  0  0  0  0  0  0999 V2000
    2.2973   -0.2971   -0.0710 C   0  0  0  0  0  0  0  0  0  0  0  0
    1.2443    0.2569    0.8589 C   0  0  0  0  0  0  0  0  0  0  0  0
    1.0932    1.6216    0.6628 O   0  0  0  0  0  0  0  0  0  0  0  0
   -0.0570   -0.4962    0.6110 C   0  0  0  0  0  0  0  0  0  0  0  0
   -1.0650   -0.0765    1.4551 O   0  0  0  0  0  0  0  0  0  0  0  0
   -2.2075   -0.3468    0.6625 C   0  0  0  0  0  0  0  0  0  0  0  0
   -1.7301    0.3138   -0.6360 C   0  0  0  0  0  0  0  0  0  0  0  0
   -0.4354   -0.1969   -0.6881 O   0  0  0  0  0  0  0  0  0  0  0  0
    1.8178   -0.8928   -0.8667 H   0  0  0  0  0  0  0  0  0  0  0  0
    3.0431   -0.8917    0.5121 H   0  0  0  0  0  0  0  0  0  0  0  0
    2.8694    0.5577   -0.5080 H   0  0  0  0  0  0  0  0  0  0  0  0
    1.5700    0.1180    1.9111 H   0  0  0  0  0  0  0  0  0  0  0  0
    0.8632    1.8085   -0.2798 H   0  0  0  0  0  0  0  0  0  0  0  0
    0.0955   -1.5704    0.7751 H   0  0  0  0  0  0  0  0  0  0  0  0
   -3.1083    0.1184    1.0561 H   0  0  0  0  0  0  0  0  0  0  0  0
   -2.2715   -1.4368    0.5296 H   0  0  0  0  0  0  0  0  0  0  0  0
   -1.6694    1.3989   -0.4839 H   0  0  0  0  0  0  0  0  0  0  0  0
   -2.3496    0.0112   -1.4962 H   0  0  0  0  0  0  0  0  0  0  0  0
  1  2  1  0
  2  3  1  0
  2  4  1  0
  4  5  1  0
  5  6  1  0
  6  7  1  0
  7  8  1  0
  8  4  1  0
  1  9  1  0
  1 10  1  0
  1 11  1  0
  2 12  1  0
  3 13  1  0
  4 14  1  0
  6 15  1  0
  6 16  1  0
  7 17  1  0
  7 18  1  0
M  END
