
     RDKit          3D

 17 16  0  0  0  0  0  0  0  0999 V2000
   -2.6075    0.7922   -0.7196 C   0  0  0  0  0  0  0  0  0  0  0  0
   -2.0297   -0.5490   -0.2747 C   0  0  0  0  0  0  0  0  0  0  0  0
   -2.5711   -1.0315    0.8841 O   0  0  0  0  0  0  0  0  0  0  0  0
   -0.5990   -0.4739   -0.1668 C   0  0  0  0  0  0  0  0  0  0  0  0
    0.6418   -0.4269   -0.0858 C   0  0  0  0  0  0  0  0  0  0  0  0
    2.0946   -0.3475    0.0089 C   0  0  0  0  0  0  0  0  0  0  0  0
    2.8852   -0.6926   -0.8683 O   0  0  0  0  0  0  0  0  0  0  0  0
    2.5823    0.2167    1.2972 C   0  0  0  0  0  0  0  0  0  0  0  0
    3.9528    0.4404    1.1697 O   0  0  0  0  0  0  0  0  0  0  0  0
   -1.9404    1.6343   -0.4011 H   0  0  0  0  0  0  0  0  0  0  0  0
   -2.5900    0.8410   -1.8384 H   0  0  0  0  0  0  0  0  0  0  0  0
   -3.6394    0.9143   -0.3632 H   0  0  0  0  0  0  0  0  0  0  0  0
   -2.3269   -1.2622   -1.1100 H   0  0  0  0  0  0  0  0  0  0  0  0
   -2.4725   -2.0232    0.8673 H   0  0  0  0  0  0  0  0  0  0  0  0
    2.4506   -0.6021    2.0753 H   0  0  0  0  0  0  0  0  0  0  0  0
    2.0884    1.1342    1.6070 H   0  0  0  0  0  0  0  0  0  0  0  0
    4.0808    1.4357    1.0674 H   0  0  0  0  0  0  0  0  0  0  0  0
  1  2  1  0
  2  3  1  0
  2  4  1  0
  4  5  3  0
  5  6  1  0
  6  7  2  0
  6  8  1  0
  8  9  1  0
  1 10  1  0
  1 11  1  0
  1 12  1  0
  2 13  1  0
  3 14  1  0
  8 15  1  0
  8 16  1  0
  9 17  1  0
M  END
