
     RDKit          3D

 19 19  0  0  0  0  0  0  0  0999 V2000
    1.8103   -0.2217   -1.1059 C   0  0  0  0  0  0  0  0  0  0  0  0
    0.8277    0.1847   -0.0385 C   0  0  0  0  0  0  0  0  0  0  0  0
    0.6539    1.5708   -0.0662 O   0  0  0  0  0  0  0  0  0  0  0  0
    1.3945   -0.2348    1.2694 C   0  0  0  0  0  0  0  0  0  0  0  0
    1.6591    0.5342    2.1665 O   0  0  0  0  0  0  0  0  0  0  0  0
   -0.5086   -0.4685   -0.1700 C   0  0  0  0  0  0  0  0  0  0  0  0
   -1.5565    0.3705    0.5795 C   0  0  0  0  0  0  0  0  0  0  0  0
   -2.3844   -0.2968   -0.4781 C   0  0  0  0  0  0  0  0  0  0  0  0
   -1.2386   -0.2087   -1.3057 O   0  0  0  0  0  0  0  0  0  0  0  0
    1.2900   -0.3769   -2.0772 H   0  0  0  0  0  0  0  0  0  0  0  0
    2.5381    0.6374   -1.1973 H   0  0  0  0  0  0  0  0  0  0  0  0
    2.4226   -1.0899   -0.7970 H   0  0  0  0  0  0  0  0  0  0  0  0
    1.0239    2.0279    0.7143 H   0  0  0  0  0  0  0  0  0  0  0  0
    1.5795   -1.2871    1.4243 H   0  0  0  0  0  0  0  0  0  0  0  0
   -0.6006   -1.5133    0.1336 H   0  0  0  0  0  0  0  0  0  0  0  0
   -1.4060    1.4559    0.3760 H   0  0  0  0  0  0  0  0  0  0  0  0
   -1.7229    0.0786    1.6146 H   0  0  0  0  0  0  0  0  0  0  0  0
   -3.2639    0.2180   -0.8414 H   0  0  0  0  0  0  0  0  0  0  0  0
   -2.5181   -1.3803   -0.2008 H   0  0  0  0  0  0  0  0  0  0  0  0
  1  2  1  0
  2  3  1  0
  2  4  1  0
  4  5  2  0
  2  6  1  0
  6  7  1  0
  7  8  1  0
  8  9  1  0
  9  6  1  0
  1 10  1  0
  1 11  1  0
  1 12  1  0
  3 13  1  0
  4 14  1  0
  6 15  1  0
  7 16  1  0
  7 17  1  0
  8 18  1  0
  8 19  1  0
M  END
