
     RDKit          3D

 19 19  0  0  0  0  0  0  0  0999 V2000
   -2.4099    1.3122   -0.4163 C   0  0  0  0  0  0  0  0  0  0  0  0
   -1.6979    0.1269    0.2336 C   0  0  0  0  0  0  0  0  0  0  0  0
   -2.2130   -1.0017   -0.4024 O   0  0  0  0  0  0  0  0  0  0  0  0
   -0.2362    0.2391    0.1195 C   0  0  0  0  0  0  0  0  0  0  0  0
    0.3313    1.1789    0.6320 O   0  0  0  0  0  0  0  0  0  0  0  0
    0.5316   -0.7631   -0.5997 C   0  0  0  0  0  0  0  0  0  0  0  0
    1.2698   -0.0855   -1.7253 O   0  0  0  0  0  0  0  0  0  0  0  0
    1.9431   -0.8281   -0.7457 C   0  0  0  0  0  0  0  0  0  0  0  0
    2.8956   -0.0775    0.1602 C   0  0  0  0  0  0  0  0  0  0  0  0
   -2.0170    1.4409   -1.4237 H   0  0  0  0  0  0  0  0  0  0  0  0
   -2.2799    2.1860    0.2501 H   0  0  0  0  0  0  0  0  0  0  0  0
   -3.4754    1.0065   -0.4977 H   0  0  0  0  0  0  0  0  0  0  0  0
   -2.0518    0.0790    1.2845 H   0  0  0  0  0  0  0  0  0  0  0  0
   -2.4632   -1.7196    0.2070 H   0  0  0  0  0  0  0  0  0  0  0  0
   -0.0797   -1.5959   -1.0402 H   0  0  0  0  0  0  0  0  0  0  0  0
    2.3872   -1.7574   -1.1571 H   0  0  0  0  0  0  0  0  0  0  0  0
    3.9135   -0.0797   -0.3305 H   0  0  0  0  0  0  0  0  0  0  0  0
    2.6351    0.9781    0.2920 H   0  0  0  0  0  0  0  0  0  0  0  0
    3.0171   -0.6391    1.0946 H   0  0  0  0  0  0  0  0  0  0  0  0
  1  2  1  0
  2  3  1  0
  2  4  1  0
  4  5  2  0
  4  6  1  0
  6  7  1  0
  7  8  1  0
  8  9  1  0
  8  6  1  0
  1 10  1  0
  1 11  1  0
  1 12  1  0
  2 13  1  0
  3 14  1  0
  6 15  1  0
  8 16  1  0
  9 17  1  0
  9 18  1  0
  9 19  1  0
M  END
