
     RDKit          3D

 18 17  0  0  0  0  0  0  0  0999 V2000
   -2.5240   -0.2354   -0.3735 C   0  0  0  0  0  0  0  0  0  0  0  0
   -1.2481    0.5444   -0.5500 C   0  0  0  0  0  0  0  0  0  0  0  0
   -1.1575    1.6272    0.3078 O   0  0  0  0  0  0  0  0  0  0  0  0
   -0.0344   -0.2848   -0.3958 C   0  0  0  0  0  0  0  0  0  0  0  0
    0.0409   -1.2842   -1.0871 O   0  0  0  0  0  0  0  0  0  0  0  0
    0.9795    0.1654    0.5779 C   0  0  0  0  0  0  0  0  0  0  0  0
    2.1752   -0.7418    0.6632 C   0  0  0  0  0  0  0  0  0  0  0  0
    3.0415   -0.1933    1.6162 O   0  0  0  0  0  0  0  0  0  0  0  0
   -3.2521    0.4512    0.1235 H   0  0  0  0  0  0  0  0  0  0  0  0
   -2.9793   -0.5102   -1.3478 H   0  0  0  0  0  0  0  0  0  0  0  0
   -2.3906   -1.1720    0.2000 H   0  0  0  0  0  0  0  0  0  0  0  0
   -1.3015    0.9746   -1.5978 H   0  0  0  0  0  0  0  0  0  0  0  0
   -1.5728    1.4905    1.1776 H   0  0  0  0  0  0  0  0  0  0  0  0
    0.5673    0.2738    1.5970 H   0  0  0  0  0  0  0  0  0  0  0  0
    1.3168    1.1809    0.2552 H   0  0  0  0  0  0  0  0  0  0  0  0
    2.7254   -0.8431   -0.2748 H   0  0  0  0  0  0  0  0  0  0  0  0
    1.8321   -1.7627    0.9562 H   0  0  0  0  0  0  0  0  0  0  0  0
    3.7815    0.3195    1.1917 H   0  0  0  0  0  0  0  0  0  0  0  0
  1  2  1  0
  2  3  1  0
  2  4  1  0
  4  5  2  0
  4  6  1  0
  6  7  1  0
  7  8  1  0
  1  9  1  0
  1 10  1  0
  1 11  1  0
  2 12  1  0
  3 13  1  0
  6 14  1  0
  6 15  1  0
  7 16  1  0
  7 17  1  0
  8 18  1  0
M  END
