
     RDKit          3D

 21 20  0  0  0  0  0  0  0  0999 V2000
    1.5711    0.7582   -1.2628 C   0  0  0  0  0  0  0  0  0  0  0  0
    1.6119    0.6404    0.2327 C   0  0  0  0  0  0  0  0  0  0  0  0
    2.1260   -0.6058    0.5911 O   0  0  0  0  0  0  0  0  0  0  0  0
    0.2731    0.8147    0.8910 C   0  0  0  0  0  0  0  0  0  0  0  0
   -0.3641    2.1370    0.6343 C   0  0  0  0  0  0  0  0  0  0  0  0
   -0.6406   -0.2600    0.4308 C   0  0  0  0  0  0  0  0  0  0  0  0
   -1.3835   -1.1448    0.0747 C   0  0  0  0  0  0  0  0  0  0  0  0
   -2.2875   -2.2132   -0.3731 C   0  0  0  0  0  0  0  0  0  0  0  0
   -1.7933   -3.4734   -0.0787 O   0  0  0  0  0  0  0  0  0  0  0  0
    2.5757    0.5967   -1.7044 H   0  0  0  0  0  0  0  0  0  0  0  0
    0.8416    0.1074   -1.7464 H   0  0  0  0  0  0  0  0  0  0  0  0
    1.2935    1.8060   -1.5505 H   0  0  0  0  0  0  0  0  0  0  0  0
    2.3270    1.3969    0.6156 H   0  0  0  0  0  0  0  0  0  0  0  0
    3.0036   -0.7077    0.1449 H   0  0  0  0  0  0  0  0  0  0  0  0
    0.4462    0.7414    1.9871 H   0  0  0  0  0  0  0  0  0  0  0  0
   -1.0837    2.1368   -0.2072 H   0  0  0  0  0  0  0  0  0  0  0  0
    0.4297    2.8931    0.5177 H   0  0  0  0  0  0  0  0  0  0  0  0
   -0.9569    2.4198    1.5290 H   0  0  0  0  0  0  0  0  0  0  0  0
   -2.3648   -2.1029   -1.4784 H   0  0  0  0  0  0  0  0  0  0  0  0
   -3.3047   -2.1047    0.0496 H   0  0  0  0  0  0  0  0  0  0  0  0
   -2.3202   -3.8359    0.7028 H   0  0  0  0  0  0  0  0  0  0  0  0
  1  2  1  0
  2  3  1  0
  2  4  1  0
  4  5  1  0
  4  6  1  0
  6  7  3  0
  7  8  1  0
  8  9  1  0
  1 10  1  0
  1 11  1  0
  1 12  1  0
  2 13  1  0
  3 14  1  0
  4 15  1  0
  5 16  1  0
  5 17  1  0
  5 18  1  0
  8 19  1  0
  8 20  1  0
  9 21  1  0
M  END
