
     RDKit          3D

 21 22  0  0  0  0  0  0  0  0999 V2000
   -1.3688    1.4345    0.1736 C   0  0  0  0  0  0  0  0  0  0  0  0
   -0.6536    0.2337   -0.3851 C   0  0  0  0  0  0  0  0  0  0  0  0
    0.5220   -0.0643    0.2545 O   0  0  0  0  0  0  0  0  0  0  0  0
    1.5684   -0.0232   -0.6613 C   0  0  0  0  0  0  0  0  0  0  0  0
    2.8331    0.6215   -0.1194 C   0  0  0  0  0  0  0  0  0  0  0  0
    2.7944   -0.8314   -0.4544 C   0  0  0  0  0  0  0  0  0  0  0  0
   -1.5265   -1.0147   -0.3307 C   0  0  0  0  0  0  0  0  0  0  0  0
   -2.8783   -0.8846    0.1082 C   0  0  0  0  0  0  0  0  0  0  0  0
   -1.8432   -1.4685    0.9981 O   0  0  0  0  0  0  0  0  0  0  0  0
   -0.7395    2.3194   -0.0424 H   0  0  0  0  0  0  0  0  0  0  0  0
   -1.5967    1.3690    1.2342 H   0  0  0  0  0  0  0  0  0  0  0  0
   -2.2951    1.5699   -0.4401 H   0  0  0  0  0  0  0  0  0  0  0  0
   -0.4811    0.4316   -1.4630 H   0  0  0  0  0  0  0  0  0  0  0  0
    1.3141    0.2328   -1.7282 H   0  0  0  0  0  0  0  0  0  0  0  0
    2.8910    0.8802    0.9497 H   0  0  0  0  0  0  0  0  0  0  0  0
    3.3622    1.3281   -0.7870 H   0  0  0  0  0  0  0  0  0  0  0  0
    3.3703   -1.1258   -1.3540 H   0  0  0  0  0  0  0  0  0  0  0  0
    2.8618   -1.5775    0.3772 H   0  0  0  0  0  0  0  0  0  0  0  0
   -1.2311   -1.8489   -0.9945 H   0  0  0  0  0  0  0  0  0  0  0  0
   -3.2773    0.0607    0.5188 H   0  0  0  0  0  0  0  0  0  0  0  0
   -3.6261   -1.6425   -0.2223 H   0  0  0  0  0  0  0  0  0  0  0  0
  1  2  1  0
  2  3  1  0
  3  4  1  0
  4  5  1  0
  5  6  1  0
  2  7  1  0
  7  8  1  0
  8  9  1  0
  6  4  1  0
  9  7  1  0
  1 10  1  0
  1 11  1  0
  1 12  1  0
  2 13  1  0
  4 14  1  0
  5 15  1  0
  5 16  1  0
  6 17  1  0
  6 18  1  0
  7 19  1  0
  8 20  1  0
  8 21  1  0
M  END
