
     RDKit          3D

 19 18  0  0  0  0  0  0  0  0999 V2000
    0.5045    1.8930   -0.5390 C   0  0  0  0  0  0  0  0  0  0  0  0
   -0.5715    0.8678   -0.3432 C   0  0  0  0  0  0  0  0  0  0  0  0
   -1.0248    0.5314   -1.6418 O   0  0  0  0  0  0  0  0  0  0  0  0
   -0.0393   -0.4242    0.2422 C   0  0  0  0  0  0  0  0  0  0  0  0
    0.5660   -0.1806    1.6091 C   0  0  0  0  0  0  0  0  0  0  0  0
    1.6057    0.7425    1.5281 O   0  0  0  0  0  0  0  0  0  0  0  0
   -1.0819   -1.3422    0.2677 O   0  0  0  0  0  0  0  0  0  0  0  0
   -1.0115   -2.5052   -0.4812 C   0  0  0  0  0  0  0  0  0  0  0  0
    0.0255   -2.6811   -1.1708 O   0  0  0  0  0  0  0  0  0  0  0  0
    0.2167    2.5289   -1.4064 H   0  0  0  0  0  0  0  0  0  0  0  0
    0.5682    2.5018    0.4024 H   0  0  0  0  0  0  0  0  0  0  0  0
    1.4592    1.3588   -0.7167 H   0  0  0  0  0  0  0  0  0  0  0  0
   -1.4576    1.2468    0.1932 H   0  0  0  0  0  0  0  0  0  0  0  0
   -1.9132    0.0948   -1.5893 H   0  0  0  0  0  0  0  0  0  0  0  0
    0.7573   -0.7885   -0.4274 H   0  0  0  0  0  0  0  0  0  0  0  0
    0.9753   -1.0984    2.0535 H   0  0  0  0  0  0  0  0  0  0  0  0
   -0.2086    0.2277    2.2980 H   0  0  0  0  0  0  0  0  0  0  0  0
    2.4538    0.2744    1.2481 H   0  0  0  0  0  0  0  0  0  0  0  0
   -1.8239   -3.2478   -0.4781 H   0  0  0  0  0  0  0  0  0  0  0  0
  1  2  1  0
  2  3  1  0
  2  4  1  0
  4  5  1  0
  5  6  1  0
  4  7  1  0
  7  8  1  0
  8  9  2  0
  1 10  1  0
  1 11  1  0
  1 12  1  0
  2 13  1  0
  3 14  1  0
  4 15  1  0
  5 16  1  0
  5 17  1  0
  6 18  1  0
  8 19  1  0
M  END
