
     RDKit          3D

 20 19  0  0  0  0  0  0  0  0999 V2000
   -1.9396   -0.8282   -0.2348 C   0  0  0  0  0  0  0  0  0  0  0  0
   -1.2428    0.4398    0.1986 C   0  0  0  0  0  0  0  0  0  0  0  0
   -1.2491    1.3232   -0.8908 O   0  0  0  0  0  0  0  0  0  0  0  0
    0.2184    0.1032    0.5647 C   0  0  0  0  0  0  0  0  0  0  0  0
    0.9096    1.3606    0.9954 C   0  0  0  0  0  0  0  0  0  0  0  0
    0.8708   -0.5708   -0.6160 C   0  0  0  0  0  0  0  0  0  0  0  0
    2.2547   -0.9826   -0.4256 C   0  0  0  0  0  0  0  0  0  0  0  0
    3.1259   -0.2586   -0.0593 O   0  0  0  0  0  0  0  0  0  0  0  0
   -1.5638   -1.6622    0.4258 H   0  0  0  0  0  0  0  0  0  0  0  0
   -3.0362   -0.7761   -0.0283 H   0  0  0  0  0  0  0  0  0  0  0  0
   -1.6989   -1.1319   -1.2709 H   0  0  0  0  0  0  0  0  0  0  0  0
   -1.7666    0.9127    1.0313 H   0  0  0  0  0  0  0  0  0  0  0  0
   -1.9607    1.0631   -1.5440 H   0  0  0  0  0  0  0  0  0  0  0  0
    0.1959   -0.6058    1.4153 H   0  0  0  0  0  0  0  0  0  0  0  0
    1.9932    1.2372    0.9818 H   0  0  0  0  0  0  0  0  0  0  0  0
    0.6763    1.5545    2.0938 H   0  0  0  0  0  0  0  0  0  0  0  0
    0.6210    2.2417    0.3714 H   0  0  0  0  0  0  0  0  0  0  0  0
    0.2618   -1.5048   -0.8603 H   0  0  0  0  0  0  0  0  0  0  0  0
    0.7928    0.1125   -1.5214 H   0  0  0  0  0  0  0  0  0  0  0  0
    2.5375   -2.0275   -0.6267 H   0  0  0  0  0  0  0  0  0  0  0  0
  1  2  1  0
  2  3  1  0
  2  4  1  0
  4  5  1  0
  4  6  1  0
  6  7  1  0
  7  8  2  0
  1  9  1  0
  1 10  1  0
  1 11  1  0
  2 12  1  0
  3 13  1  0
  4 14  1  0
  5 15  1  0
  5 16  1  0
  5 17  1  0
  6 18  1  0
  6 19  1  0
  7 20  1  0
M  END
