
     RDKit          3D

 17 16  0  0  0  0  0  0  0  0999 V2000
    0.6714    0.4882   -2.8429 C   0  0  0  0  0  0  0  0  0  0  0  0
    1.3233   -0.1621   -1.6291 C   0  0  0  0  0  0  0  0  0  0  0  0
    2.4619    0.4880   -1.2425 O   0  0  0  0  0  0  0  0  0  0  0  0
    0.3688   -0.2742   -0.5508 C   0  0  0  0  0  0  0  0  0  0  0  0
   -0.4365   -0.3784    0.3886 C   0  0  0  0  0  0  0  0  0  0  0  0
   -1.4008   -0.5009    1.5204 C   0  0  0  0  0  0  0  0  0  0  0  0
   -0.8917   -1.2740    2.5368 O   0  0  0  0  0  0  0  0  0  0  0  0
   -1.8896    0.8125    1.8806 C   0  0  0  0  0  0  0  0  0  0  0  0
   -2.1270    1.7162    1.1804 O   0  0  0  0  0  0  0  0  0  0  0  0
    0.2585   -0.3323   -3.4610 H   0  0  0  0  0  0  0  0  0  0  0  0
    1.3633    1.0726   -3.4471 H   0  0  0  0  0  0  0  0  0  0  0  0
   -0.1737    1.1046   -2.4341 H   0  0  0  0  0  0  0  0  0  0  0  0
    1.5842   -1.2469   -1.8936 H   0  0  0  0  0  0  0  0  0  0  0  0
    3.2438    0.1308   -1.7720 H   0  0  0  0  0  0  0  0  0  0  0  0
   -2.3252   -1.0634    1.0842 H   0  0  0  0  0  0  0  0  0  0  0  0
    0.0370   -1.5710    2.2693 H   0  0  0  0  0  0  0  0  0  0  0  0
   -2.0678    0.9903    2.9852 H   0  0  0  0  0  0  0  0  0  0  0  0
  1  2  1  0
  2  3  1  0
  2  4  1  0
  4  5  3  0
  5  6  1  0
  6  7  1  0
  6  8  1  0
  8  9  2  0
  1 10  1  0
  1 11  1  0
  1 12  1  0
  2 13  1  0
  3 14  1  0
  6 15  1  0
  7 16  1  0
  8 17  1  0
M  END
