
     RDKit          3D

 21 22  0  0  0  0  0  0  0  0999 V2000
   -2.0514    0.6431    0.9176 C   0  0  0  0  0  0  0  0  0  0  0  0
   -1.3478    0.9300   -0.3968 C   0  0  0  0  0  0  0  0  0  0  0  0
   -2.3665    1.1613   -1.3407 O   0  0  0  0  0  0  0  0  0  0  0  0
   -0.5503   -0.2781   -0.8723 C   0  0  0  0  0  0  0  0  0  0  0  0
    0.4812   -0.6140    0.1748 C   0  0  0  0  0  0  0  0  0  0  0  0
    1.4910    0.4155    0.5217 C   0  0  0  0  0  0  0  0  0  0  0  0
    2.5987   -0.6325    0.4906 C   0  0  0  0  0  0  0  0  0  0  0  0
    1.6228   -1.5419   -0.1949 C   0  0  0  0  0  0  0  0  0  0  0  0
    0.5513   -1.9133    0.5825 O   0  0  0  0  0  0  0  0  0  0  0  0
   -2.4186   -0.3908    0.9132 H   0  0  0  0  0  0  0  0  0  0  0  0
   -2.9407    1.3033    0.9603 H   0  0  0  0  0  0  0  0  0  0  0  0
   -1.4258    0.9045    1.7894 H   0  0  0  0  0  0  0  0  0  0  0  0
   -0.7176    1.8181   -0.3421 H   0  0  0  0  0  0  0  0  0  0  0  0
   -2.6489    0.3120   -1.7709 H   0  0  0  0  0  0  0  0  0  0  0  0
   -0.0236    0.0320   -1.7914 H   0  0  0  0  0  0  0  0  0  0  0  0
   -1.2354   -1.1308   -1.0444 H   0  0  0  0  0  0  0  0  0  0  0  0
    1.3845    0.9295    1.4898 H   0  0  0  0  0  0  0  0  0  0  0  0
    1.6380    1.1267   -0.3190 H   0  0  0  0  0  0  0  0  0  0  0  0
    3.4945   -0.3500   -0.0648 H   0  0  0  0  0  0  0  0  0  0  0  0
    2.7768   -0.9592    1.5508 H   0  0  0  0  0  0  0  0  0  0  0  0
    1.6877   -1.7653   -1.2532 H   0  0  0  0  0  0  0  0  0  0  0  0
  1  2  1  0
  2  3  1  0
  2  4  1  0
  4  5  1  0
  5  6  1  0
  6  7  1  0
  7  8  1  0
  8  9  1  0
  8  5  1  0
  9  5  1  0
  1 10  1  0
  1 11  1  0
  1 12  1  0
  2 13  1  0
  3 14  1  0
  4 15  1  0
  4 16  1  0
  6 17  1  0
  6 18  1  0
  7 19  1  0
  7 20  1  0
  8 21  1  0
M  END
