
     RDKit          3D

 21 21  0  0  0  0  0  0  0  0999 V2000
   -1.8396   -1.5483   -0.2041 C   0  0  0  0  0  0  0  0  0  0  0  0
   -1.4821   -0.1537    0.2798 C   0  0  0  0  0  0  0  0  0  0  0  0
   -2.4578    0.7690   -0.0240 O   0  0  0  0  0  0  0  0  0  0  0  0
   -0.1402    0.2487   -0.2490 C   0  0  0  0  0  0  0  0  0  0  0  0
    1.0602   -0.2087    0.5367 C   0  0  0  0  0  0  0  0  0  0  0  0
    2.3602    0.2531   -0.0876 C   0  0  0  0  0  0  0  0  0  0  0  0
    3.3833   -0.2470    0.7510 O   0  0  0  0  0  0  0  0  0  0  0  0
   -0.1148    1.6152   -0.9059 C   0  0  0  0  0  0  0  0  0  0  0  0
    0.0837    0.4407   -1.5870 O   0  0  0  0  0  0  0  0  0  0  0  0
   -2.3653   -2.0560    0.6298 H   0  0  0  0  0  0  0  0  0  0  0  0
   -2.4838   -1.4836   -1.1181 H   0  0  0  0  0  0  0  0  0  0  0  0
   -0.8673   -2.0526   -0.4274 H   0  0  0  0  0  0  0  0  0  0  0  0
   -1.3977   -0.1721    1.4031 H   0  0  0  0  0  0  0  0  0  0  0  0
   -3.3641    0.3981   -0.0948 H   0  0  0  0  0  0  0  0  0  0  0  0
    0.9671    0.0895    1.5881 H   0  0  0  0  0  0  0  0  0  0  0  0
    1.0648   -1.3312    0.4930 H   0  0  0  0  0  0  0  0  0  0  0  0
    2.4573    1.3429   -0.1299 H   0  0  0  0  0  0  0  0  0  0  0  0
    2.4784   -0.1575   -1.0937 H   0  0  0  0  0  0  0  0  0  0  0  0
    3.0460   -0.1143    1.6739 H   0  0  0  0  0  0  0  0  0  0  0  0
    0.6992    2.2639   -0.5847 H   0  0  0  0  0  0  0  0  0  0  0  0
   -1.0876    2.1039   -1.1195 H   0  0  0  0  0  0  0  0  0  0  0  0
  1  2  1  0
  2  3  1  0
  2  4  1  0
  4  5  1  0
  5  6  1  0
  6  7  1  0
  4  8  1  0
  8  9  1  0
  9  4  1  0
  1 10  1  0
  1 11  1  0
  1 12  1  0
  2 13  1  0
  3 14  1  0
  5 15  1  0
  5 16  1  0
  6 17  1  0
  6 18  1  0
  7 19  1  0
  8 20  1  0
  8 21  1  0
M  END
