
     RDKit          3D

 25 24  0  0  0  0  0  0  0  0999 V2000
    3.1767    0.3426    0.0315 C   0  0  0  0  0  0  0  0  0  0  0  0
    1.8413   -0.2869   -0.4040 C   0  0  0  0  0  0  0  0  0  0  0  0
    1.6039   -1.3008    0.5472 O   0  0  0  0  0  0  0  0  0  0  0  0
    0.7764    0.7546   -0.3338 C   0  0  0  0  0  0  0  0  0  0  0  0
   -0.5860    0.3269   -0.7394 C   0  0  0  0  0  0  0  0  0  0  0  0
   -1.4809    1.5647   -0.5849 C   0  0  0  0  0  0  0  0  0  0  0  0
   -1.1492   -0.7623    0.1010 C   0  0  0  0  0  0  0  0  0  0  0  0
   -2.5559   -1.1333   -0.3730 C   0  0  0  0  0  0  0  0  0  0  0  0
   -1.2746   -0.3077    1.4112 O   0  0  0  0  0  0  0  0  0  0  0  0
    3.9979   -0.0338   -0.5953 H   0  0  0  0  0  0  0  0  0  0  0  0
    3.4076    0.1333    1.0761 H   0  0  0  0  0  0  0  0  0  0  0  0
    3.1066    1.4507   -0.1744 H   0  0  0  0  0  0  0  0  0  0  0  0
    1.9693   -0.7251   -1.4075 H   0  0  0  0  0  0  0  0  0  0  0  0
    1.8705   -2.1851    0.2147 H   0  0  0  0  0  0  0  0  0  0  0  0
    1.0603    1.5918   -1.0456 H   0  0  0  0  0  0  0  0  0  0  0  0
    0.7367    1.2626    0.6573 H   0  0  0  0  0  0  0  0  0  0  0  0
   -0.5760    0.0796   -1.8296 H   0  0  0  0  0  0  0  0  0  0  0  0
   -0.8814    2.4839   -0.7938 H   0  0  0  0  0  0  0  0  0  0  0  0
   -2.3436    1.5333   -1.2634 H   0  0  0  0  0  0  0  0  0  0  0  0
   -1.7758    1.6180    0.4872 H   0  0  0  0  0  0  0  0  0  0  0  0
   -0.5691   -1.6979    0.1313 H   0  0  0  0  0  0  0  0  0  0  0  0
   -2.9279   -1.9089    0.3509 H   0  0  0  0  0  0  0  0  0  0  0  0
   -2.5389   -1.5948   -1.3612 H   0  0  0  0  0  0  0  0  0  0  0  0
   -3.1482   -0.2103   -0.3222 H   0  0  0  0  0  0  0  0  0  0  0  0
   -1.7398   -0.9951    1.9130 H   0  0  0  0  0  0  0  0  0  0  0  0
  1  2  1  0
  2  3  1  0
  2  4  1  0
  4  5  1  0
  5  6  1  0
  5  7  1  0
  7  8  1  0
  7  9  1  0
  1 10  1  0
  1 11  1  0
  1 12  1  0
  2 13  1  0
  3 14  1  0
  4 15  1  0
  4 16  1  0
  5 17  1  0
  6 18  1  0
  6 19  1  0
  6 20  1  0
  7 21  1  0
  8 22  1  0
  8 23  1  0
  8 24  1  0
  9 25  1  0
M  END
