
     RDKit          3D

 25 25  0  0  0  0  0  0  0  0999 V2000
    2.2320   -0.5025   -0.9351 C   0  0  0  0  0  0  0  0  0  0  0  0
    1.7966    0.1401    0.3172 C   0  0  0  0  0  0  0  0  0  0  0  0
    2.3701   -0.6075    1.3814 O   0  0  0  0  0  0  0  0  0  0  0  0
    0.3748    0.3187    0.6091 C   0  0  0  0  0  0  0  0  0  0  0  0
   -0.5706    1.0865   -0.2227 C   0  0  0  0  0  0  0  0  0  0  0  0
   -1.5624    2.0130    0.4491 C   0  0  0  0  0  0  0  0  0  0  0  0
   -0.7448   -0.3868   -0.0201 C   0  0  0  0  0  0  0  0  0  0  0  0
   -1.9161   -0.8339    0.8838 C   0  0  0  0  0  0  0  0  0  0  0  0
   -0.6436   -1.2654   -1.2389 C   0  0  0  0  0  0  0  0  0  0  0  0
    1.9023   -1.5448   -1.0967 H   0  0  0  0  0  0  0  0  0  0  0  0
    2.0438    0.0685   -1.8651 H   0  0  0  0  0  0  0  0  0  0  0  0
    3.3690   -0.5959   -0.9268 H   0  0  0  0  0  0  0  0  0  0  0  0
    2.3395    1.1365    0.3840 H   0  0  0  0  0  0  0  0  0  0  0  0
    3.3474   -0.4622    1.4260 H   0  0  0  0  0  0  0  0  0  0  0  0
    0.2006    0.5119    1.7269 H   0  0  0  0  0  0  0  0  0  0  0  0
   -0.3439    1.3903   -1.2567 H   0  0  0  0  0  0  0  0  0  0  0  0
   -2.5726    1.8319    0.0164 H   0  0  0  0  0  0  0  0  0  0  0  0
   -1.3126    3.0673    0.2345 H   0  0  0  0  0  0  0  0  0  0  0  0
   -1.5538    1.9108    1.5548 H   0  0  0  0  0  0  0  0  0  0  0  0
   -2.7397   -1.1866    0.2440 H   0  0  0  0  0  0  0  0  0  0  0  0
   -2.3026    0.0150    1.4705 H   0  0  0  0  0  0  0  0  0  0  0  0
   -1.5309   -1.6186    1.5702 H   0  0  0  0  0  0  0  0  0  0  0  0
   -0.3308   -2.3076   -1.0058 H   0  0  0  0  0  0  0  0  0  0  0  0
   -1.7200   -1.3675   -1.6024 H   0  0  0  0  0  0  0  0  0  0  0  0
   -0.1318   -0.8113   -2.0974 H   0  0  0  0  0  0  0  0  0  0  0  0
  1  2  1  0
  2  3  1  0
  2  4  1  0
  4  5  1  0
  5  6  1  0
  5  7  1  0
  7  8  1  0
  7  9  1  0
  7  4  1  0
  1 10  1  0
  1 11  1  0
  1 12  1  0
  2 13  1  0
  3 14  1  0
  4 15  1  0
  5 16  1  0
  6 17  1  0
  6 18  1  0
  6 19  1  0
  8 20  1  0
  8 21  1  0
  8 22  1  0
  9 23  1  0
  9 24  1  0
  9 25  1  0
M  END
