
     RDKit          3D

 18 17  0  0  0  0  0  0  0  0999 V2000
    1.4412   -0.0886    1.0179 C   0  0  0  0  0  0  0  0  0  0  0  0
    0.9708    0.2653   -0.3625 C   0  0  0  0  0  0  0  0  0  0  0  0
    1.0547    1.6267   -0.6365 O   0  0  0  0  0  0  0  0  0  0  0  0
   -0.5105   -0.1105   -0.4404 C   0  0  0  0  0  0  0  0  0  0  0  0
   -1.3092    0.7228    0.5365 C   0  0  0  0  0  0  0  0  0  0  0  0
   -0.9313    0.1845   -1.7160 O   0  0  0  0  0  0  0  0  0  0  0  0
   -0.7210   -1.5443   -0.0881 C   0  0  0  0  0  0  0  0  0  0  0  0
   -0.4066   -1.9854    1.0031 O   0  0  0  0  0  0  0  0  0  0  0  0
    1.7818   -1.1637    0.9789 H   0  0  0  0  0  0  0  0  0  0  0  0
    2.3355    0.5118    1.2761 H   0  0  0  0  0  0  0  0  0  0  0  0
    0.6306   -0.0210    1.7355 H   0  0  0  0  0  0  0  0  0  0  0  0
    1.5040   -0.3421   -1.1310 H   0  0  0  0  0  0  0  0  0  0  0  0
    1.4650    1.7801   -1.5460 H   0  0  0  0  0  0  0  0  0  0  0  0
   -2.3237    0.8538    0.0745 H   0  0  0  0  0  0  0  0  0  0  0  0
   -1.3818    0.2530    1.5409 H   0  0  0  0  0  0  0  0  0  0  0  0
   -0.8562    1.7508    0.6043 H   0  0  0  0  0  0  0  0  0  0  0  0
   -1.5757   -0.4857   -2.0168 H   0  0  0  0  0  0  0  0  0  0  0  0
   -1.1675   -2.2074   -0.8303 H   0  0  0  0  0  0  0  0  0  0  0  0
  1  2  1  0
  2  3  1  0
  2  4  1  0
  4  5  1  0
  4  6  1  0
  4  7  1  0
  7  8  2  0
  1  9  1  0
  1 10  1  0
  1 11  1  0
  2 12  1  0
  3 13  1  0
  5 14  1  0
  5 15  1  0
  5 16  1  0
  6 17  1  0
  7 18  1  0
M  END
