
     RDKit          3D

 21 21  0  0  0  0  0  0  0  0999 V2000
   -0.4830    1.6407   -0.2049 C   0  0  0  0  0  0  0  0  0  0  0  0
   -0.6773    0.1762   -0.4483 C   0  0  0  0  0  0  0  0  0  0  0  0
   -1.0986    0.0256   -1.7695 O   0  0  0  0  0  0  0  0  0  0  0  0
   -1.7596   -0.3524    0.4771 C   0  0  0  0  0  0  0  0  0  0  0  0
   -2.0200   -1.6948    0.2439 O   0  0  0  0  0  0  0  0  0  0  0  0
    0.6160   -0.5792   -0.2758 C   0  0  0  0  0  0  0  0  0  0  0  0
    1.4752   -0.1503    0.8793 C   0  0  0  0  0  0  0  0  0  0  0  0
    2.5422   -0.4852   -0.1700 C   0  0  0  0  0  0  0  0  0  0  0  0
    1.5925   -0.0806   -1.1364 O   0  0  0  0  0  0  0  0  0  0  0  0
   -1.4556    2.1418   -0.4857 H   0  0  0  0  0  0  0  0  0  0  0  0
    0.2650    2.0146   -0.9608 H   0  0  0  0  0  0  0  0  0  0  0  0
   -0.2314    1.9130    0.8178 H   0  0  0  0  0  0  0  0  0  0  0  0
   -1.9096    0.5805   -1.9179 H   0  0  0  0  0  0  0  0  0  0  0  0
   -2.6990    0.2031    0.2975 H   0  0  0  0  0  0  0  0  0  0  0  0
   -1.4374   -0.2322    1.5263 H   0  0  0  0  0  0  0  0  0  0  0  0
   -2.4599   -2.0812    1.0338 H   0  0  0  0  0  0  0  0  0  0  0  0
    0.5423   -1.6687   -0.3283 H   0  0  0  0  0  0  0  0  0  0  0  0
    1.5259    0.9165    1.1005 H   0  0  0  0  0  0  0  0  0  0  0  0
    1.5263   -0.8444    1.7369 H   0  0  0  0  0  0  0  0  0  0  0  0
    2.7050   -1.5780   -0.2973 H   0  0  0  0  0  0  0  0  0  0  0  0
    3.4408    0.1352   -0.1180 H   0  0  0  0  0  0  0  0  0  0  0  0
  1  2  1  0
  2  3  1  0
  2  4  1  0
  4  5  1  0
  2  6  1  0
  6  7  1  0
  7  8  1  0
  8  9  1  0
  9  6  1  0
  1 10  1  0
  1 11  1  0
  1 12  1  0
  3 13  1  0
  4 14  1  0
  4 15  1  0
  5 16  1  0
  6 17  1  0
  7 18  1  0
  7 19  1  0
  8 20  1  0
  8 21  1  0
M  END
