
     RDKit          3D

 21 21  0  0  0  0  0  0  0  0999 V2000
    2.5341   -0.7238   -0.4417 C   0  0  0  0  0  0  0  0  0  0  0  0
    2.0236    0.1206    0.7012 C   0  0  0  0  0  0  0  0  0  0  0  0
    2.8627    1.2503    0.7643 O   0  0  0  0  0  0  0  0  0  0  0  0
    0.6329    0.6339    0.4478 C   0  0  0  0  0  0  0  0  0  0  0  0
   -0.3107   -0.3784    0.3607 O   0  0  0  0  0  0  0  0  0  0  0  0
   -1.5323    0.1892    0.1308 C   0  0  0  0  0  0  0  0  0  0  0  0
   -2.3869   -0.4153   -0.9366 C   0  0  0  0  0  0  0  0  0  0  0  0
   -3.0290   -1.2545   -0.0535 O   0  0  0  0  0  0  0  0  0  0  0  0
   -2.5946   -0.4277    1.0048 C   0  0  0  0  0  0  0  0  0  0  0  0
    3.6329   -0.8402   -0.3067 H   0  0  0  0  0  0  0  0  0  0  0  0
    2.0780   -1.7334   -0.4712 H   0  0  0  0  0  0  0  0  0  0  0  0
    2.2763   -0.1956   -1.3812 H   0  0  0  0  0  0  0  0  0  0  0  0
    2.1077   -0.3943    1.6820 H   0  0  0  0  0  0  0  0  0  0  0  0
    2.7371    1.7864   -0.0801 H   0  0  0  0  0  0  0  0  0  0  0  0
    0.3751    1.3332    1.2663 H   0  0  0  0  0  0  0  0  0  0  0  0
    0.6613    1.1699   -0.5363 H   0  0  0  0  0  0  0  0  0  0  0  0
   -1.5320    1.2822    0.0627 H   0  0  0  0  0  0  0  0  0  0  0  0
   -1.8666   -0.9184   -1.7671 H   0  0  0  0  0  0  0  0  0  0  0  0
   -3.1362    0.3185   -1.3507 H   0  0  0  0  0  0  0  0  0  0  0  0
   -3.3311    0.3099    1.3440 H   0  0  0  0  0  0  0  0  0  0  0  0
   -2.2023   -1.1123    1.8060 H   0  0  0  0  0  0  0  0  0  0  0  0
  1  2  1  0
  2  3  1  0
  2  4  1  0
  4  5  1  0
  5  6  1  0
  6  7  1  0
  7  8  1  0
  8  9  1  0
  9  6  1  0
  1 10  1  0
  1 11  1  0
  1 12  1  0
  2 13  1  0
  3 14  1  0
  4 15  1  0
  4 16  1  0
  6 17  1  0
  7 18  1  0
  7 19  1  0
  9 20  1  0
  9 21  1  0
M  END
