
     RDKit          3D

 21 21  0  0  0  0  0  0  0  0999 V2000
   -2.2363    0.0126   -0.8402 C   0  0  0  0  0  0  0  0  0  0  0  0
   -1.4764    0.2373    0.4526 C   0  0  0  0  0  0  0  0  0  0  0  0
   -1.6146   -0.9177    1.2161 O   0  0  0  0  0  0  0  0  0  0  0  0
   -0.0343    0.4857    0.0794 C   0  0  0  0  0  0  0  0  0  0  0  0
    0.4809   -0.7372   -0.6601 C   0  0  0  0  0  0  0  0  0  0  0  0
    1.9124   -0.9563   -0.1582 C   0  0  0  0  0  0  0  0  0  0  0  0
    2.6213    0.2621   -0.1554 O   0  0  0  0  0  0  0  0  0  0  0  0
    2.0050    1.1514    0.7035 C   0  0  0  0  0  0  0  0  0  0  0  0
    0.7838    0.6390    1.2033 O   0  0  0  0  0  0  0  0  0  0  0  0
   -3.3057   -0.1836   -0.6673 H   0  0  0  0  0  0  0  0  0  0  0  0
   -1.7827   -0.8805   -1.3340 H   0  0  0  0  0  0  0  0  0  0  0  0
   -2.0376    0.8861   -1.4856 H   0  0  0  0  0  0  0  0  0  0  0  0
   -1.9270    1.1134    0.9464 H   0  0  0  0  0  0  0  0  0  0  0  0
   -2.4382   -0.9376    1.7354 H   0  0  0  0  0  0  0  0  0  0  0  0
    0.0864    1.3881   -0.5406 H   0  0  0  0  0  0  0  0  0  0  0  0
   -0.0854   -1.6471   -0.4173 H   0  0  0  0  0  0  0  0  0  0  0  0
    0.4660   -0.5153   -1.7456 H   0  0  0  0  0  0  0  0  0  0  0  0
    2.3880   -1.7001   -0.7979 H   0  0  0  0  0  0  0  0  0  0  0  0
    1.8354   -1.2801    0.8921 H   0  0  0  0  0  0  0  0  0  0  0  0
    2.6475    1.5386    1.5009 H   0  0  0  0  0  0  0  0  0  0  0  0
    1.7114    2.0409    0.0727 H   0  0  0  0  0  0  0  0  0  0  0  0
  1  2  1  0
  2  3  1  0
  2  4  1  0
  4  5  1  0
  5  6  1  0
  6  7  1  0
  7  8  1  0
  8  9  1  0
  9  4  1  0
  1 10  1  0
  1 11  1  0
  1 12  1  0
  2 13  1  0
  3 14  1  0
  4 15  1  0
  5 16  1  0
  5 17  1  0
  6 18  1  0
  6 19  1  0
  8 20  1  0
  8 21  1  0
M  END
