
     RDKit          3D

 21 21  0  0  0  0  0  0  0  0999 V2000
    2.3709   -0.1661    0.1600 C   0  0  0  0  0  0  0  0  0  0  0  0
    0.9515   -0.0089    0.6886 C   0  0  0  0  0  0  0  0  0  0  0  0
    0.7887    1.3257    1.0212 O   0  0  0  0  0  0  0  0  0  0  0  0
    0.0249   -0.4342   -0.4386 C   0  0  0  0  0  0  0  0  0  0  0  0
    0.2058    0.4015   -1.6523 C   0  0  0  0  0  0  0  0  0  0  0  0
    0.3302    1.6199   -1.5539 O   0  0  0  0  0  0  0  0  0  0  0  0
   -1.3965   -0.5654   -0.0051 C   0  0  0  0  0  0  0  0  0  0  0  0
   -2.1781    0.5448    0.5535 C   0  0  0  0  0  0  0  0  0  0  0  0
   -1.7682   -0.6137    1.4355 C   0  0  0  0  0  0  0  0  0  0  0  0
    3.0694   -0.3799    1.0122 H   0  0  0  0  0  0  0  0  0  0  0  0
    2.7036    0.7214   -0.4140 H   0  0  0  0  0  0  0  0  0  0  0  0
    2.3934   -1.1028   -0.4710 H   0  0  0  0  0  0  0  0  0  0  0  0
    0.8319   -0.7038    1.5167 H   0  0  0  0  0  0  0  0  0  0  0  0
    1.6849    1.6902    1.3079 H   0  0  0  0  0  0  0  0  0  0  0  0
    0.3739   -1.4691   -0.7281 H   0  0  0  0  0  0  0  0  0  0  0  0
    0.2358   -0.0227   -2.6685 H   0  0  0  0  0  0  0  0  0  0  0  0
   -1.9884   -1.2837   -0.6461 H   0  0  0  0  0  0  0  0  0  0  0  0
   -3.2872    0.5723    0.3819 H   0  0  0  0  0  0  0  0  0  0  0  0
   -1.7670    1.5445    0.7569 H   0  0  0  0  0  0  0  0  0  0  0  0
   -1.0497   -0.3313    2.2271 H   0  0  0  0  0  0  0  0  0  0  0  0
   -2.5298   -1.3385    1.7808 H   0  0  0  0  0  0  0  0  0  0  0  0
  1  2  1  0
  2  3  1  0
  2  4  1  0
  4  5  1  0
  5  6  2  0
  4  7  1  0
  7  8  1  0
  8  9  1  0
  9  7  1  0
  1 10  1  0
  1 11  1  0
  1 12  1  0
  2 13  1  0
  3 14  1  0
  4 15  1  0
  5 16  1  0
  7 17  1  0
  8 18  1  0
  8 19  1  0
  9 20  1  0
  9 21  1  0
M  END
