
     RDKit          3D

 21 22  0  0  0  0  0  0  0  0999 V2000
   -2.2473   -0.2086   -0.9082 C   0  0  0  0  0  0  0  0  0  0  0  0
   -1.5723   -0.7651    0.3047 C   0  0  0  0  0  0  0  0  0  0  0  0
   -2.5082   -0.8109    1.3396 O   0  0  0  0  0  0  0  0  0  0  0  0
   -0.4169    0.0917    0.7733 C   0  0  0  0  0  0  0  0  0  0  0  0
    0.6503    0.2351   -0.2725 C   0  0  0  0  0  0  0  0  0  0  0  0
    1.7835    1.0897    0.2194 C   0  0  0  0  0  0  0  0  0  0  0  0
    2.6576    0.4285   -0.7857 C   0  0  0  0  0  0  0  0  0  0  0  0
    1.8536   -0.6354   -0.1073 C   0  0  0  0  0  0  0  0  0  0  0  0
    2.0871    0.0438    1.0773 O   0  0  0  0  0  0  0  0  0  0  0  0
   -3.2884    0.1242   -0.7146 H   0  0  0  0  0  0  0  0  0  0  0  0
   -2.3381   -0.9917   -1.7169 H   0  0  0  0  0  0  0  0  0  0  0  0
   -1.6987    0.6364   -1.3551 H   0  0  0  0  0  0  0  0  0  0  0  0
   -1.2408   -1.8255    0.1288 H   0  0  0  0  0  0  0  0  0  0  0  0
   -2.9605    0.0556    1.4163 H   0  0  0  0  0  0  0  0  0  0  0  0
   -0.8370    1.0786    1.0528 H   0  0  0  0  0  0  0  0  0  0  0  0
    0.0103   -0.3611    1.6913 H   0  0  0  0  0  0  0  0  0  0  0  0
    0.3342    0.3572   -1.3040 H   0  0  0  0  0  0  0  0  0  0  0  0
    1.7358    2.0685    0.4550 H   0  0  0  0  0  0  0  0  0  0  0  0
    2.3523    0.6329   -1.8371 H   0  0  0  0  0  0  0  0  0  0  0  0
    3.7304    0.3865   -0.5957 H   0  0  0  0  0  0  0  0  0  0  0  0
    1.9129   -1.6306   -0.2560 H   0  0  0  0  0  0  0  0  0  0  0  0
  1  2  1  0
  2  3  1  0
  2  4  1  0
  4  5  1  0
  5  6  1  0
  6  7  1  0
  7  8  1  0
  8  9  1  0
  8  5  1  0
  9  6  1  0
  1 10  1  0
  1 11  1  0
  1 12  1  0
  2 13  1  0
  3 14  1  0
  4 15  1  0
  4 16  1  0
  5 17  1  0
  6 18  1  0
  7 19  1  0
  7 20  1  0
  8 21  1  0
M  END
