
     RDKit          3D

 21 21  0  0  0  0  0  0  0  0999 V2000
   -1.9434   -1.3364    0.3510 C   0  0  0  0  0  0  0  0  0  0  0  0
   -1.4322    0.0022   -0.0907 C   0  0  0  0  0  0  0  0  0  0  0  0
   -2.3936    1.0055    0.0186 O   0  0  0  0  0  0  0  0  0  0  0  0
   -0.1347    0.3791    0.5995 C   0  0  0  0  0  0  0  0  0  0  0  0
    0.3542    1.7269    0.1365 C   0  0  0  0  0  0  0  0  0  0  0  0
    1.6138    1.1368   -0.3975 C   0  0  0  0  0  0  0  0  0  0  0  0
    2.6496    1.5605   -0.8540 O   0  0  0  0  0  0  0  0  0  0  0  0
    1.0494   -0.2005   -0.1276 C   0  0  0  0  0  0  0  0  0  0  0  0
    1.9466   -1.0921    0.6748 C   0  0  0  0  0  0  0  0  0  0  0  0
   -2.4582   -1.3208    1.3288 H   0  0  0  0  0  0  0  0  0  0  0  0
   -1.0843   -2.0287    0.4234 H   0  0  0  0  0  0  0  0  0  0  0  0
   -2.6476   -1.7040   -0.4483 H   0  0  0  0  0  0  0  0  0  0  0  0
   -1.2124   -0.0897   -1.1930 H   0  0  0  0  0  0  0  0  0  0  0  0
   -2.0373    1.8616    0.3296 H   0  0  0  0  0  0  0  0  0  0  0  0
   -0.0829    0.1935    1.6702 H   0  0  0  0  0  0  0  0  0  0  0  0
    0.5855    2.3868    1.0007 H   0  0  0  0  0  0  0  0  0  0  0  0
   -0.2101    2.1926   -0.6858 H   0  0  0  0  0  0  0  0  0  0  0  0
    0.7802   -0.6881   -1.0997 H   0  0  0  0  0  0  0  0  0  0  0  0
    2.0161   -0.7964    1.7220 H   0  0  0  0  0  0  0  0  0  0  0  0
    1.6680   -2.1714    0.5416 H   0  0  0  0  0  0  0  0  0  0  0  0
    2.9735   -1.0172    0.2128 H   0  0  0  0  0  0  0  0  0  0  0  0
  1  2  1  0
  2  3  1  0
  2  4  1  0
  4  5  1  0
  5  6  1  0
  6  7  2  0
  6  8  1  0
  8  9  1  0
  8  4  1  0
  1 10  1  0
  1 11  1  0
  1 12  1  0
  2 13  1  0
  3 14  1  0
  4 15  1  0
  5 16  1  0
  5 17  1  0
  8 18  1  0
  9 19  1  0
  9 20  1  0
  9 21  1  0
M  END
