
     RDKit          3D

 22 22  0  0  0  0  0  0  0  0999 V2000
    2.8000    0.6793   -0.5326 C   0  0  0  0  0  0  0  0  0  0  0  0
    1.7021   -0.0649    0.2310 C   0  0  0  0  0  0  0  0  0  0  0  0
    1.4923    0.5660    1.4401 O   0  0  0  0  0  0  0  0  0  0  0  0
    0.4793   -0.0533   -0.6595 C   0  0  0  0  0  0  0  0  0  0  0  0
   -0.6931   -0.7593   -0.0274 C   0  0  0  0  0  0  0  0  0  0  0  0
   -1.8992   -0.7349   -0.9325 C   0  0  0  0  0  0  0  0  0  0  0  0
   -2.5792    0.2179    0.0121 C   0  0  0  0  0  0  0  0  0  0  0  0
   -1.3912    0.1628    0.9599 C   0  0  0  0  0  0  0  0  0  0  0  0
    3.6680    0.8406    0.1246 H   0  0  0  0  0  0  0  0  0  0  0  0
    2.4174    1.6776   -0.8335 H   0  0  0  0  0  0  0  0  0  0  0  0
    3.0624    0.1493   -1.4675 H   0  0  0  0  0  0  0  0  0  0  0  0
    2.0926   -1.0916    0.3799 H   0  0  0  0  0  0  0  0  0  0  0  0
    1.4400   -0.0916    2.2042 H   0  0  0  0  0  0  0  0  0  0  0  0
    0.7497   -0.5646   -1.6038 H   0  0  0  0  0  0  0  0  0  0  0  0
    0.1848    0.9861   -0.9086 H   0  0  0  0  0  0  0  0  0  0  0  0
   -0.5028   -1.7516    0.3751 H   0  0  0  0  0  0  0  0  0  0  0  0
   -1.7340   -0.3443   -1.9446 H   0  0  0  0  0  0  0  0  0  0  0  0
   -2.4594   -1.7008   -0.9932 H   0  0  0  0  0  0  0  0  0  0  0  0
   -2.7775    1.1912   -0.4455 H   0  0  0  0  0  0  0  0  0  0  0  0
   -3.5065   -0.1924    0.4670 H   0  0  0  0  0  0  0  0  0  0  0  0
   -0.9407    1.1781    1.0303 H   0  0  0  0  0  0  0  0  0  0  0  0
   -1.6053   -0.2999    1.9399 H   0  0  0  0  0  0  0  0  0  0  0  0
  1  2  1  0
  2  3  1  0
  2  4  1  0
  4  5  1  0
  5  6  1  0
  6  7  1  0
  7  8  1  0
  8  5  1  0
  1  9  1  0
  1 10  1  0
  1 11  1  0
  2 12  1  0
  3 13  1  0
  4 14  1  0
  4 15  1  0
  5 16  1  0
  6 17  1  0
  6 18  1  0
  7 19  1  0
  7 20  1  0
  8 21  1  0
  8 22  1  0
M  END
