
     RDKit          3D

 21 22  0  0  0  0  0  0  0  0999 V2000
   -2.2943   -1.0225    0.2593 C   0  0  0  0  0  0  0  0  0  0  0  0
   -1.6053    0.0485   -0.5970 C   0  0  0  0  0  0  0  0  0  0  0  0
   -1.7239    1.2838    0.0617 O   0  0  0  0  0  0  0  0  0  0  0  0
   -0.1398   -0.3141   -0.5906 C   0  0  0  0  0  0  0  0  0  0  0  0
    0.4593   -0.3257    0.8007 C   0  0  0  0  0  0  0  0  0  0  0  0
    1.6448    0.3848    0.2286 C   0  0  0  0  0  0  0  0  0  0  0  0
    2.9628    0.0306    0.2785 C   0  0  0  0  0  0  0  0  0  0  0  0
    2.4360    1.2050    0.9708 O   0  0  0  0  0  0  0  0  0  0  0  0
    0.7930    0.8649   -0.8920 C   0  0  0  0  0  0  0  0  0  0  0  0
   -1.6150   -1.1716    1.1354 H   0  0  0  0  0  0  0  0  0  0  0  0
   -2.3003   -1.9378   -0.3628 H   0  0  0  0  0  0  0  0  0  0  0  0
   -3.2803   -0.7032    0.5927 H   0  0  0  0  0  0  0  0  0  0  0  0
   -2.0238    0.0651   -1.6075 H   0  0  0  0  0  0  0  0  0  0  0  0
   -2.6727    1.5689   -0.0484 H   0  0  0  0  0  0  0  0  0  0  0  0
    0.1501   -1.1633   -1.2334 H   0  0  0  0  0  0  0  0  0  0  0  0
    0.7304   -1.3103    1.1987 H   0  0  0  0  0  0  0  0  0  0  0  0
   -0.1814    0.2940    1.4788 H   0  0  0  0  0  0  0  0  0  0  0  0
    3.3644   -0.7543    0.9588 H   0  0  0  0  0  0  0  0  0  0  0  0
    3.7041    0.2825   -0.5253 H   0  0  0  0  0  0  0  0  0  0  0  0
    0.3124    1.8574   -0.7513 H   0  0  0  0  0  0  0  0  0  0  0  0
    1.2795    0.8174   -1.8759 H   0  0  0  0  0  0  0  0  0  0  0  0
  1  2  1  0
  2  3  1  0
  2  4  1  0
  4  5  1  0
  5  6  1  0
  6  7  1  0
  7  8  1  0
  6  9  1  0
  9  4  1  0
  8  6  1  0
  1 10  1  0
  1 11  1  0
  1 12  1  0
  2 13  1  0
  3 14  1  0
  4 15  1  0
  5 16  1  0
  5 17  1  0
  7 18  1  0
  7 19  1  0
  9 20  1  0
  9 21  1  0
M  END
