
     RDKit          3D

 22 22  0  0  0  0  0  0  0  0999 V2000
   -2.3748   -0.2373    0.0960 C   0  0  0  0  0  0  0  0  0  0  0  0
   -0.9996   -0.8395   -0.2320 C   0  0  0  0  0  0  0  0  0  0  0  0
   -1.0960   -1.8483   -1.1641 O   0  0  0  0  0  0  0  0  0  0  0  0
   -0.1393    0.2983   -0.6539 C   0  0  0  0  0  0  0  0  0  0  0  0
   -0.0227    1.3234    0.4667 C   0  0  0  0  0  0  0  0  0  0  0  0
    1.4302    1.4657    0.0870 C   0  0  0  0  0  0  0  0  0  0  0  0
    1.3218    0.1374   -0.6417 C   0  0  0  0  0  0  0  0  0  0  0  0
    1.9126   -1.0113    0.1140 C   0  0  0  0  0  0  0  0  0  0  0  0
   -3.0552   -0.9735    0.5262 H   0  0  0  0  0  0  0  0  0  0  0  0
   -2.1782    0.6391    0.7362 H   0  0  0  0  0  0  0  0  0  0  0  0
   -2.7389    0.1790   -0.8883 H   0  0  0  0  0  0  0  0  0  0  0  0
   -0.5904   -1.2440    0.7344 H   0  0  0  0  0  0  0  0  0  0  0  0
   -1.8774   -1.7261   -1.7547 H   0  0  0  0  0  0  0  0  0  0  0  0
   -0.5236    0.7599   -1.5838 H   0  0  0  0  0  0  0  0  0  0  0  0
   -0.2087    0.8597    1.4598 H   0  0  0  0  0  0  0  0  0  0  0  0
   -0.6509    2.2156    0.2831 H   0  0  0  0  0  0  0  0  0  0  0  0
    1.5493    2.2898   -0.6367 H   0  0  0  0  0  0  0  0  0  0  0  0
    2.1509    1.4253    0.9120 H   0  0  0  0  0  0  0  0  0  0  0  0
    1.7526    0.1821   -1.6644 H   0  0  0  0  0  0  0  0  0  0  0  0
    1.7864   -1.9332   -0.4882 H   0  0  0  0  0  0  0  0  0  0  0  0
    3.0241   -0.8370    0.1496 H   0  0  0  0  0  0  0  0  0  0  0  0
    1.5280   -1.1248    1.1341 H   0  0  0  0  0  0  0  0  0  0  0  0
  1  2  1  0
  2  3  1  0
  2  4  1  0
  4  5  1  0
  5  6  1  0
  6  7  1  0
  7  8  1  0
  7  4  1  0
  1  9  1  0
  1 10  1  0
  1 11  1  0
  2 12  1  0
  3 13  1  0
  4 14  1  0
  5 15  1  0
  5 16  1  0
  6 17  1  0
  6 18  1  0
  7 19  1  0
  8 20  1  0
  8 21  1  0
  8 22  1  0
M  END
