
     RDKit          3D

 23 22  0  0  0  0  0  0  0  0999 V2000
    2.6189   -0.5710    0.5706 C   0  0  0  0  0  0  0  0  0  0  0  0
    1.3537   -0.3085   -0.2626 C   0  0  0  0  0  0  0  0  0  0  0  0
    1.6755    0.7668   -1.0951 O   0  0  0  0  0  0  0  0  0  0  0  0
    0.2699    0.0133    0.7026 C   0  0  0  0  0  0  0  0  0  0  0  0
   -1.0582    0.3049    0.1061 C   0  0  0  0  0  0  0  0  0  0  0  0
   -1.0526    1.4867   -0.8381 C   0  0  0  0  0  0  0  0  0  0  0  0
   -1.9160    0.6758    1.1676 O   0  0  0  0  0  0  0  0  0  0  0  0
   -1.7077   -0.9028   -0.5339 C   0  0  0  0  0  0  0  0  0  0  0  0
   -1.8442   -1.9508    0.3726 O   0  0  0  0  0  0  0  0  0  0  0  0
    2.9785    0.4208    0.9214 H   0  0  0  0  0  0  0  0  0  0  0  0
    2.2974   -1.1307    1.4744 H   0  0  0  0  0  0  0  0  0  0  0  0
    3.3775   -1.0937   -0.0157 H   0  0  0  0  0  0  0  0  0  0  0  0
    1.1909   -1.2097   -0.8601 H   0  0  0  0  0  0  0  0  0  0  0  0
    2.1207    0.4149   -1.9042 H   0  0  0  0  0  0  0  0  0  0  0  0
    0.1636   -0.8229    1.4076 H   0  0  0  0  0  0  0  0  0  0  0  0
    0.5852    0.9003    1.2930 H   0  0  0  0  0  0  0  0  0  0  0  0
   -0.4968    1.3140   -1.7609 H   0  0  0  0  0  0  0  0  0  0  0  0
   -2.1296    1.6294   -1.1465 H   0  0  0  0  0  0  0  0  0  0  0  0
   -0.7164    2.3819   -0.2808 H   0  0  0  0  0  0  0  0  0  0  0  0
   -1.3466    1.2448    1.7768 H   0  0  0  0  0  0  0  0  0  0  0  0
   -1.2000   -1.2642   -1.4226 H   0  0  0  0  0  0  0  0  0  0  0  0
   -2.7479   -0.5791   -0.8178 H   0  0  0  0  0  0  0  0  0  0  0  0
   -2.4159   -1.7199    1.1459 H   0  0  0  0  0  0  0  0  0  0  0  0
  1  2  1  0
  2  3  1  0
  2  4  1  0
  4  5  1  0
  5  6  1  0
  5  7  1  0
  5  8  1  0
  8  9  1  0
  1 10  1  0
  1 11  1  0
  1 12  1  0
  2 13  1  0
  3 14  1  0
  4 15  1  0
  4 16  1  0
  6 17  1  0
  6 18  1  0
  6 19  1  0
  7 20  1  0
  8 21  1  0
  8 22  1  0
  9 23  1  0
M  END
