
     RDKit          3D

 23 23  0  0  0  0  0  0  0  0999 V2000
    2.2340    0.7270   -0.2437 C   0  0  0  0  0  0  0  0  0  0  0  0
    0.8816    0.8739    0.3179 C   0  0  0  0  0  0  0  0  0  0  0  0
    0.1921    1.8764   -0.3675 O   0  0  0  0  0  0  0  0  0  0  0  0
    0.0441   -0.3561    0.3930 C   0  0  0  0  0  0  0  0  0  0  0  0
    0.4883   -1.5119    1.1754 C   0  0  0  0  0  0  0  0  0  0  0  0
   -0.4393   -0.7565   -0.9998 C   0  0  0  0  0  0  0  0  0  0  0  0
   -1.8210   -0.2496   -0.7183 C   0  0  0  0  0  0  0  0  0  0  0  0
   -2.1516    0.9663   -1.3051 O   0  0  0  0  0  0  0  0  0  0  0  0
   -1.4023   -0.0251    0.7136 C   0  0  0  0  0  0  0  0  0  0  0  0
    2.3755    1.4071   -1.1337 H   0  0  0  0  0  0  0  0  0  0  0  0
    3.0341    1.0385    0.4683 H   0  0  0  0  0  0  0  0  0  0  0  0
    2.5022   -0.2784   -0.6056 H   0  0  0  0  0  0  0  0  0  0  0  0
    0.9857    1.2670    1.3724 H   0  0  0  0  0  0  0  0  0  0  0  0
    0.4835    1.9495   -1.3098 H   0  0  0  0  0  0  0  0  0  0  0  0
   -0.0529   -2.4228    0.8329 H   0  0  0  0  0  0  0  0  0  0  0  0
    0.1688   -1.3821    2.2513 H   0  0  0  0  0  0  0  0  0  0  0  0
    1.5555   -1.7647    1.1515 H   0  0  0  0  0  0  0  0  0  0  0  0
   -0.4611   -1.8616   -1.1520 H   0  0  0  0  0  0  0  0  0  0  0  0
    0.1049   -0.2436   -1.8115 H   0  0  0  0  0  0  0  0  0  0  0  0
   -2.6458   -0.9744   -0.8669 H   0  0  0  0  0  0  0  0  0  0  0  0
   -2.6397    1.4938   -0.6224 H   0  0  0  0  0  0  0  0  0  0  0  0
   -1.9157   -0.7638    1.3635 H   0  0  0  0  0  0  0  0  0  0  0  0
   -1.5207    0.9912    1.0965 H   0  0  0  0  0  0  0  0  0  0  0  0
  1  2  1  0
  2  3  1  0
  2  4  1  0
  4  5  1  0
  4  6  1  0
  6  7  1  0
  7  8  1  0
  7  9  1  0
  9  4  1  0
  1 10  1  0
  1 11  1  0
  1 12  1  0
  2 13  1  0
  3 14  1  0
  5 15  1  0
  5 16  1  0
  5 17  1  0
  6 18  1  0
  6 19  1  0
  7 20  1  0
  8 21  1  0
  9 22  1  0
  9 23  1  0
M  END
