
     RDKit          3D

 21 21  0  0  0  0  0  0  0  0999 V2000
    3.1026    1.1295   -0.0322 C   0  0  0  0  0  0  0  0  0  0  0  0
    2.5125   -0.1324   -0.5792 C   0  0  0  0  0  0  0  0  0  0  0  0
    3.0691   -1.2286    0.0705 O   0  0  0  0  0  0  0  0  0  0  0  0
    1.0660   -0.1173   -0.2875 C   0  0  0  0  0  0  0  0  0  0  0  0
   -0.1180   -0.1004   -0.0278 C   0  0  0  0  0  0  0  0  0  0  0  0
   -1.5354   -0.0939    0.3020 C   0  0  0  0  0  0  0  0  0  0  0  0
   -1.9962    1.1224    1.0470 C   0  0  0  0  0  0  0  0  0  0  0  0
   -2.1482   -1.4270    0.5175 C   0  0  0  0  0  0  0  0  0  0  0  0
   -2.5084   -0.6316   -0.7049 C   0  0  0  0  0  0  0  0  0  0  0  0
    2.6958    1.3428    0.9941 H   0  0  0  0  0  0  0  0  0  0  0  0
    4.1991    0.9793    0.0571 H   0  0  0  0  0  0  0  0  0  0  0  0
    2.8380    2.0162   -0.6400 H   0  0  0  0  0  0  0  0  0  0  0  0
    2.6897   -0.1688   -1.6779 H   0  0  0  0  0  0  0  0  0  0  0  0
    2.5310   -2.0479   -0.0150 H   0  0  0  0  0  0  0  0  0  0  0  0
   -1.6414    2.0223    0.4811 H   0  0  0  0  0  0  0  0  0  0  0  0
   -1.6227    1.1568    2.1041 H   0  0  0  0  0  0  0  0  0  0  0  0
   -3.1128    1.1766    1.1342 H   0  0  0  0  0  0  0  0  0  0  0  0
   -2.9283   -1.5669    1.2681 H   0  0  0  0  0  0  0  0  0  0  0  0
   -1.5356   -2.3259    0.3286 H   0  0  0  0  0  0  0  0  0  0  0  0
   -3.5082   -0.1824   -0.8044 H   0  0  0  0  0  0  0  0  0  0  0  0
   -2.0488   -0.9228   -1.6667 H   0  0  0  0  0  0  0  0  0  0  0  0
  1  2  1  0
  2  3  1  0
  2  4  1  0
  4  5  3  0
  5  6  1  0
  6  7  1  0
  6  8  1  0
  8  9  1  0
  9  6  1  0
  1 10  1  0
  1 11  1  0
  1 12  1  0
  2 13  1  0
  3 14  1  0
  7 15  1  0
  7 16  1  0
  7 17  1  0
  8 18  1  0
  8 19  1  0
  9 20  1  0
  9 21  1  0
M  END
