
     RDKit          3D

 14 14  0  0  0  0  0  0  0  0999 V2000
   -1.0436    0.8822    0.3038 C   0  0  0  0  0  0  0  0  0  0  0  0
   -0.6791   -0.4960   -0.1593 C   0  0  0  0  0  0  0  0  0  0  0  0
   -1.0604   -0.6384   -1.5017 O   0  0  0  0  0  0  0  0  0  0  0  0
    0.8143   -0.7280   -0.1130 C   0  0  0  0  0  0  0  0  0  0  0  0
    1.7548    0.3119    0.3013 C   0  0  0  0  0  0  0  0  0  0  0  0
    1.3199   -0.6012    1.2614 O   0  0  0  0  0  0  0  0  0  0  0  0
   -0.9044    0.9855    1.4024 H   0  0  0  0  0  0  0  0  0  0  0  0
   -0.4203    1.6278   -0.2651 H   0  0  0  0  0  0  0  0  0  0  0  0
   -2.1106    1.0710    0.1071 H   0  0  0  0  0  0  0  0  0  0  0  0
   -1.2407   -1.2424    0.4385 H   0  0  0  0  0  0  0  0  0  0  0  0
   -1.9345   -1.1165   -1.5558 H   0  0  0  0  0  0  0  0  0  0  0  0
    1.2117   -1.6078   -0.6582 H   0  0  0  0  0  0  0  0  0  0  0  0
    1.4816    1.3778    0.4276 H   0  0  0  0  0  0  0  0  0  0  0  0
    2.8114    0.1741    0.0111 H   0  0  0  0  0  0  0  0  0  0  0  0
  1  2  1  0
  2  3  1  0
  2  4  1  0
  4  5  1  0
  5  6  1  0
  6  4  1  0
  1  7  1  0
  1  8  1  0
  1  9  1  0
  2 10  1  0
  3 11  1  0
  4 12  1  0
  5 13  1  0
  5 14  1  0
M  END
