
     RDKit          3D

 21 22  0  0  0  0  0  0  0  0999 V2000
    2.3677    0.4113    0.6393 C   0  0  0  0  0  0  0  0  0  0  0  0
    1.3709   -0.6040    0.0359 C   0  0  0  0  0  0  0  0  0  0  0  0
    1.5908   -0.6559   -1.3223 O   0  0  0  0  0  0  0  0  0  0  0  0
   -0.0091   -0.2403    0.3939 C   0  0  0  0  0  0  0  0  0  0  0  0
   -1.1490   -1.0553   -0.0494 C   0  0  0  0  0  0  0  0  0  0  0  0
   -1.1059   -0.3592   -1.3619 C   0  0  0  0  0  0  0  0  0  0  0  0
   -0.7913    0.7215   -0.4192 C   0  0  0  0  0  0  0  0  0  0  0  0
   -1.9863    0.1586    0.3702 C   0  0  0  0  0  0  0  0  0  0  0  0
   -1.9785    0.4641    1.7006 O   0  0  0  0  0  0  0  0  0  0  0  0
    3.2671    0.4214    0.0142 H   0  0  0  0  0  0  0  0  0  0  0  0
    1.8910    1.4205    0.6314 H   0  0  0  0  0  0  0  0  0  0  0  0
    2.6222    0.1251    1.6731 H   0  0  0  0  0  0  0  0  0  0  0  0
    1.6435   -1.5662    0.5475 H   0  0  0  0  0  0  0  0  0  0  0  0
    2.0031    0.1933   -1.6051 H   0  0  0  0  0  0  0  0  0  0  0  0
   -0.0776    0.0840    1.4983 H   0  0  0  0  0  0  0  0  0  0  0  0
   -1.3959   -2.0021    0.1547 H   0  0  0  0  0  0  0  0  0  0  0  0
   -2.1547   -0.1583   -1.7977 H   0  0  0  0  0  0  0  0  0  0  0  0
   -0.4317   -0.7019   -2.1276 H   0  0  0  0  0  0  0  0  0  0  0  0
   -0.6378    1.6987   -0.5650 H   0  0  0  0  0  0  0  0  0  0  0  0
   -2.9119    0.1852   -0.1980 H   0  0  0  0  0  0  0  0  0  0  0  0
   -2.1267    1.4594    1.7872 H   0  0  0  0  0  0  0  0  0  0  0  0
  1  2  1  0
  2  3  1  0
  2  4  1  0
  4  5  1  0
  5  6  1  0
  6  7  1  0
  7  8  1  0
  8  9  1  0
  7  4  1  0
  8  5  1  0
  1 10  1  0
  1 11  1  0
  1 12  1  0
  2 13  1  0
  3 14  1  0
  4 15  1  0
  5 16  1  0
  6 17  1  0
  6 18  1  0
  7 19  1  0
  8 20  1  0
  9 21  1  0
M  END
