
     RDKit          3D

 13 12  0  0  0  0  0  0  0  0999 V2000
   -1.3233   -0.6113    0.0991 C   0  0  0  0  0  0  0  0  0  0  0  0
   -0.0448    0.0607    0.5440 C   0  0  0  0  0  0  0  0  0  0  0  0
   -0.2007    1.3751    0.8947 O   0  0  0  0  0  0  0  0  0  0  0  0
    1.0179   -0.0871   -0.5384 C   0  0  0  0  0  0  0  0  0  0  0  0
    2.2457    0.3803   -0.1202 O   0  0  0  0  0  0  0  0  0  0  0  0
   -1.4635   -0.5761   -1.0030 H   0  0  0  0  0  0  0  0  0  0  0  0
   -2.2109   -0.1105    0.5750 H   0  0  0  0  0  0  0  0  0  0  0  0
   -1.3307   -1.6783    0.4533 H   0  0  0  0  0  0  0  0  0  0  0  0
    0.2980   -0.4885    1.4601 H   0  0  0  0  0  0  0  0  0  0  0  0
   -1.0204    1.8012    0.5485 H   0  0  0  0  0  0  0  0  0  0  0  0
    0.6418    0.4287   -1.4556 H   0  0  0  0  0  0  0  0  0  0  0  0
    1.1347   -1.1714   -0.7529 H   0  0  0  0  0  0  0  0  0  0  0  0
    2.2561    0.6774    0.8224 H   0  0  0  0  0  0  0  0  0  0  0  0
  1  2  1  0
  2  3  1  0
  2  4  1  0
  4  5  1  0
  1  6  1  0
  1  7  1  0
  1  8  1  0
  2  9  1  0
  3 10  1  0
  4 11  1  0
  4 12  1  0
  5 13  1  0
M  END
