
     RDKit          3D

 21 21  0  0  0  0  0  0  0  0999 V2000
    2.4631    0.7126    0.4635 C   0  0  0  0  0  0  0  0  0  0  0  0
    1.0579    0.8205   -0.1185 C   0  0  0  0  0  0  0  0  0  0  0  0
    1.1800    0.8792   -1.5197 O   0  0  0  0  0  0  0  0  0  0  0  0
    0.3040   -0.4224    0.2285 C   0  0  0  0  0  0  0  0  0  0  0  0
    1.0073   -1.5122   -0.2428 O   0  0  0  0  0  0  0  0  0  0  0  0
   -1.0935   -0.3331   -0.3086 C   0  0  0  0  0  0  0  0  0  0  0  0
   -1.8345    0.8433    0.2664 C   0  0  0  0  0  0  0  0  0  0  0  0
   -2.8515    0.0324    0.7628 O   0  0  0  0  0  0  0  0  0  0  0  0
   -2.1426   -1.1172    0.4187 C   0  0  0  0  0  0  0  0  0  0  0  0
    2.7630    1.7247    0.8237 H   0  0  0  0  0  0  0  0  0  0  0  0
    3.1863    0.3956   -0.3153 H   0  0  0  0  0  0  0  0  0  0  0  0
    2.5071   -0.0204    1.2869 H   0  0  0  0  0  0  0  0  0  0  0  0
    0.5574    1.7284    0.2268 H   0  0  0  0  0  0  0  0  0  0  0  0
    1.5261   -0.0102   -1.7942 H   0  0  0  0  0  0  0  0  0  0  0  0
    0.2698   -0.5053    1.3332 H   0  0  0  0  0  0  0  0  0  0  0  0
    0.5001   -2.3554   -0.2118 H   0  0  0  0  0  0  0  0  0  0  0  0
   -1.2103   -0.4196   -1.3882 H   0  0  0  0  0  0  0  0  0  0  0  0
   -2.2641    1.5243   -0.5171 H   0  0  0  0  0  0  0  0  0  0  0  0
   -1.3022    1.4452    1.0158 H   0  0  0  0  0  0  0  0  0  0  0  0
   -1.8362   -1.6644    1.3142 H   0  0  0  0  0  0  0  0  0  0  0  0
   -2.7872   -1.7460   -0.2529 H   0  0  0  0  0  0  0  0  0  0  0  0
  1  2  1  0
  2  3  1  0
  2  4  1  0
  4  5  1  0
  4  6  1  0
  6  7  1  0
  7  8  1  0
  8  9  1  0
  9  6  1  0
  1 10  1  0
  1 11  1  0
  1 12  1  0
  2 13  1  0
  3 14  1  0
  4 15  1  0
  5 16  1  0
  6 17  1  0
  7 18  1  0
  7 19  1  0
  9 20  1  0
  9 21  1  0
M  END
