
     RDKit          3D

 21 20  0  0  0  0  0  0  0  0999 V2000
    2.0591    0.2311    0.9089 C   0  0  0  0  0  0  0  0  0  0  0  0
    1.5332   -0.3020   -0.4080 C   0  0  0  0  0  0  0  0  0  0  0  0
    1.4758   -1.6990   -0.4139 O   0  0  0  0  0  0  0  0  0  0  0  0
    0.2047    0.3200   -0.7689 C   0  0  0  0  0  0  0  0  0  0  0  0
   -0.8572    0.0525    0.2609 C   0  0  0  0  0  0  0  0  0  0  0  0
   -1.0780   -1.4025    0.4110 C   0  0  0  0  0  0  0  0  0  0  0  0
   -0.5065   -1.9961    1.2970 O   0  0  0  0  0  0  0  0  0  0  0  0
   -2.1552    0.6500   -0.2579 C   0  0  0  0  0  0  0  0  0  0  0  0
   -2.0147    2.0387   -0.4563 O   0  0  0  0  0  0  0  0  0  0  0  0
    1.3487    1.0369    1.2400 H   0  0  0  0  0  0  0  0  0  0  0  0
    3.0404    0.7471    0.7925 H   0  0  0  0  0  0  0  0  0  0  0  0
    2.1335   -0.5756    1.6701 H   0  0  0  0  0  0  0  0  0  0  0  0
    2.2704   -0.0202   -1.1876 H   0  0  0  0  0  0  0  0  0  0  0  0
    2.1760   -1.9892    0.2520 H   0  0  0  0  0  0  0  0  0  0  0  0
    0.3774    1.4073   -0.8990 H   0  0  0  0  0  0  0  0  0  0  0  0
   -0.1375   -0.1104   -1.7322 H   0  0  0  0  0  0  0  0  0  0  0  0
   -0.6552    0.5194    1.2336 H   0  0  0  0  0  0  0  0  0  0  0  0
   -1.7361   -1.9284   -0.2558 H   0  0  0  0  0  0  0  0  0  0  0  0
   -2.9332    0.4361    0.5040 H   0  0  0  0  0  0  0  0  0  0  0  0
   -2.3775    0.1407   -1.2157 H   0  0  0  0  0  0  0  0  0  0  0  0
   -2.1680    2.4436    0.4530 H   0  0  0  0  0  0  0  0  0  0  0  0
  1  2  1  0
  2  3  1  0
  2  4  1  0
  4  5  1  0
  5  6  1  0
  6  7  2  0
  5  8  1  0
  8  9  1  0
  1 10  1  0
  1 11  1  0
  1 12  1  0
  2 13  1  0
  3 14  1  0
  4 15  1  0
  4 16  1  0
  5 17  1  0
  6 18  1  0
  8 19  1  0
  8 20  1  0
  9 21  1  0
M  END
