
     RDKit          3D

 21 21  0  0  0  0  0  0  0  0999 V2000
   -2.4980    0.9789   -0.2396 C   0  0  0  0  0  0  0  0  0  0  0  0
   -1.4810   -0.1255   -0.5798 C   0  0  0  0  0  0  0  0  0  0  0  0
   -2.2941   -1.1935   -1.0470 O   0  0  0  0  0  0  0  0  0  0  0  0
   -0.7951   -0.4846    0.6783 C   0  0  0  0  0  0  0  0  0  0  0  0
    0.0388    0.6270    1.1692 O   0  0  0  0  0  0  0  0  0  0  0  0
    0.5493   -0.7709    0.9472 C   0  0  0  0  0  0  0  0  0  0  0  0
    1.7623   -0.7225    0.1160 C   0  0  0  0  0  0  0  0  0  0  0  0
    2.0460    0.6551   -0.3989 C   0  0  0  0  0  0  0  0  0  0  0  0
    3.1938    0.7063   -1.1866 O   0  0  0  0  0  0  0  0  0  0  0  0
   -3.0872    0.5594    0.6031 H   0  0  0  0  0  0  0  0  0  0  0  0
   -1.9733    1.9103    0.0614 H   0  0  0  0  0  0  0  0  0  0  0  0
   -3.1877    1.1223   -1.0873 H   0  0  0  0  0  0  0  0  0  0  0  0
   -0.8936    0.2317   -1.4152 H   0  0  0  0  0  0  0  0  0  0  0  0
   -2.5005   -1.8206   -0.3301 H   0  0  0  0  0  0  0  0  0  0  0  0
   -1.5477   -0.6793    1.5114 H   0  0  0  0  0  0  0  0  0  0  0  0
    0.7702   -1.1734    1.9933 H   0  0  0  0  0  0  0  0  0  0  0  0
    1.7910   -1.4832   -0.7011 H   0  0  0  0  0  0  0  0  0  0  0  0
    2.6701   -0.9981    0.7379 H   0  0  0  0  0  0  0  0  0  0  0  0
    2.2648    1.3447    0.4661 H   0  0  0  0  0  0  0  0  0  0  0  0
    1.2164    1.0824   -0.9591 H   0  0  0  0  0  0  0  0  0  0  0  0
    3.9554    0.2335   -0.8154 H   0  0  0  0  0  0  0  0  0  0  0  0
  1  2  1  0
  2  3  1  0
  2  4  1  0
  4  5  1  0
  5  6  1  0
  6  7  1  0
  7  8  1  0
  8  9  1  0
  6  4  1  0
  1 10  1  0
  1 11  1  0
  1 12  1  0
  2 13  1  0
  3 14  1  0
  4 15  1  0
  6 16  1  0
  7 17  1  0
  7 18  1  0
  8 19  1  0
  8 20  1  0
  9 21  1  0
M  END
