
     RDKit          3D

 21 20  0  0  0  0  0  0  0  0999 V2000
    3.1345    0.7203   -0.1624 C   0  0  0  0  0  0  0  0  0  0  0  0
    2.2974   -0.3531   -0.8302 C   0  0  0  0  0  0  0  0  0  0  0  0
    2.7460   -1.6057   -0.3695 O   0  0  0  0  0  0  0  0  0  0  0  0
    0.8724   -0.1926   -0.5603 C   0  0  0  0  0  0  0  0  0  0  0  0
   -0.3093   -0.0584   -0.3290 C   0  0  0  0  0  0  0  0  0  0  0  0
   -1.7326    0.1058   -0.0250 C   0  0  0  0  0  0  0  0  0  0  0  0
   -1.8883    0.9531    1.2178 C   0  0  0  0  0  0  0  0  0  0  0  0
   -2.4259   -1.2355    0.1222 C   0  0  0  0  0  0  0  0  0  0  0  0
   -2.3406    0.7726   -1.0669 O   0  0  0  0  0  0  0  0  0  0  0  0
    4.0242    0.9141   -0.8066 H   0  0  0  0  0  0  0  0  0  0  0  0
    3.4366    0.3331    0.8501 H   0  0  0  0  0  0  0  0  0  0  0  0
    2.5527    1.6422    0.0469 H   0  0  0  0  0  0  0  0  0  0  0  0
    2.4347   -0.3648   -1.9367 H   0  0  0  0  0  0  0  0  0  0  0  0
    2.3558   -1.8063    0.5204 H   0  0  0  0  0  0  0  0  0  0  0  0
   -1.5799    0.4285    2.1399 H   0  0  0  0  0  0  0  0  0  0  0  0
   -2.9193    1.3578    1.3033 H   0  0  0  0  0  0  0  0  0  0  0  0
   -1.2108    1.8286    1.1000 H   0  0  0  0  0  0  0  0  0  0  0  0
   -1.7495   -2.0088   -0.3153 H   0  0  0  0  0  0  0  0  0  0  0  0
   -2.5967   -1.5164    1.1739 H   0  0  0  0  0  0  0  0  0  0  0  0
   -3.3615   -1.2839   -0.4965 H   0  0  0  0  0  0  0  0  0  0  0  0
   -1.7400    1.3693   -1.5760 H   0  0  0  0  0  0  0  0  0  0  0  0
  1  2  1  0
  2  3  1  0
  2  4  1  0
  4  5  3  0
  5  6  1  0
  6  7  1  0
  6  8  1  0
  6  9  1  0
  1 10  1  0
  1 11  1  0
  1 12  1  0
  2 13  1  0
  3 14  1  0
  7 15  1  0
  7 16  1  0
  7 17  1  0
  8 18  1  0
  8 19  1  0
  8 20  1  0
  9 21  1  0
M  END
