
     RDKit          3D

 21 21  0  0  0  0  0  0  0  0999 V2000
    2.0966   -0.5096   -0.7264 C   0  0  0  0  0  0  0  0  0  0  0  0
    1.1563    0.1136    0.2502 C   0  0  0  0  0  0  0  0  0  0  0  0
    0.8526    1.4133   -0.1536 O   0  0  0  0  0  0  0  0  0  0  0  0
   -0.0804   -0.6488    0.5450 C   0  0  0  0  0  0  0  0  0  0  0  0
   -0.8583    0.2105    1.5677 C   0  0  0  0  0  0  0  0  0  0  0  0
   -1.4929    1.2017    0.6194 C   0  0  0  0  0  0  0  0  0  0  0  0
   -1.6171    0.6671   -0.5873 C   0  0  0  0  0  0  0  0  0  0  0  0
   -1.0880   -0.6901   -0.5343 C   0  0  0  0  0  0  0  0  0  0  0  0
   -0.6593   -1.2042   -1.7326 O   0  0  0  0  0  0  0  0  0  0  0  0
    2.4852   -1.4759   -0.3186 H   0  0  0  0  0  0  0  0  0  0  0  0
    2.9817    0.1574   -0.8080 H   0  0  0  0  0  0  0  0  0  0  0  0
    1.6956   -0.6119   -1.7442 H   0  0  0  0  0  0  0  0  0  0  0  0
    1.7229    0.2233    1.2152 H   0  0  0  0  0  0  0  0  0  0  0  0
    1.7152    1.9313   -0.0607 H   0  0  0  0  0  0  0  0  0  0  0  0
    0.0541   -1.6153    1.0112 H   0  0  0  0  0  0  0  0  0  0  0  0
   -0.1570    0.7541    2.2341 H   0  0  0  0  0  0  0  0  0  0  0  0
   -1.6338   -0.3559    2.0709 H   0  0  0  0  0  0  0  0  0  0  0  0
   -1.7797    2.1985    0.9595 H   0  0  0  0  0  0  0  0  0  0  0  0
   -2.0588    1.2269   -1.4339 H   0  0  0  0  0  0  0  0  0  0  0  0
   -1.9284   -1.3562   -0.1768 H   0  0  0  0  0  0  0  0  0  0  0  0
   -1.4065   -1.6297   -2.1969 H   0  0  0  0  0  0  0  0  0  0  0  0
  1  2  1  0
  2  3  1  0
  2  4  1  0
  4  5  1  0
  5  6  1  0
  6  7  2  0
  7  8  1  0
  8  9  1  0
  8  4  1  0
  1 10  1  0
  1 11  1  0
  1 12  1  0
  2 13  1  0
  3 14  1  0
  4 15  1  0
  5 16  1  0
  5 17  1  0
  6 18  1  0
  7 19  1  0
  8 20  1  0
  9 21  1  0
M  END
