
     RDKit          3D

 23 23  0  0  0  0  0  0  0  0999 V2000
    2.3302    0.2706    0.4350 C   0  0  0  0  0  0  0  0  0  0  0  0
    1.2310    0.0910   -0.5899 C   0  0  0  0  0  0  0  0  0  0  0  0
    1.2641   -1.1960   -1.1111 O   0  0  0  0  0  0  0  0  0  0  0  0
   -0.1444    0.2436    0.0765 C   0  0  0  0  0  0  0  0  0  0  0  0
   -0.1835    1.6380    0.6626 C   0  0  0  0  0  0  0  0  0  0  0  0
   -0.3765   -0.8154    1.0621 C   0  0  0  0  0  0  0  0  0  0  0  0
   -1.5104   -1.4536    0.8052 C   0  0  0  0  0  0  0  0  0  0  0  0
   -2.1939   -0.9017   -0.3969 C   0  0  0  0  0  0  0  0  0  0  0  0
   -1.2547    0.1427   -0.9286 C   0  0  0  0  0  0  0  0  0  0  0  0
    3.2659    0.4792   -0.1590 H   0  0  0  0  0  0  0  0  0  0  0  0
    2.1842    1.1322    1.0833 H   0  0  0  0  0  0  0  0  0  0  0  0
    2.4997   -0.6875    0.9694 H   0  0  0  0  0  0  0  0  0  0  0  0
    1.3742    0.8709   -1.3653 H   0  0  0  0  0  0  0  0  0  0  0  0
    1.8872   -1.2421   -1.8664 H   0  0  0  0  0  0  0  0  0  0  0  0
    0.3797    2.2949   -0.0620 H   0  0  0  0  0  0  0  0  0  0  0  0
    0.3090    1.7167    1.6358 H   0  0  0  0  0  0  0  0  0  0  0  0
   -1.2256    2.0362    0.6512 H   0  0  0  0  0  0  0  0  0  0  0  0
    0.2722   -1.0642    1.8954 H   0  0  0  0  0  0  0  0  0  0  0  0
   -1.9055   -2.2782    1.3891 H   0  0  0  0  0  0  0  0  0  0  0  0
   -2.2929   -1.7502   -1.1122 H   0  0  0  0  0  0  0  0  0  0  0  0
   -3.1760   -0.4906   -0.0952 H   0  0  0  0  0  0  0  0  0  0  0  0
   -1.8346    1.0842   -1.0369 H   0  0  0  0  0  0  0  0  0  0  0  0
   -0.8998   -0.1206   -1.9419 H   0  0  0  0  0  0  0  0  0  0  0  0
  1  2  1  0
  2  3  1  0
  2  4  1  0
  4  5  1  0
  4  6  1  0
  6  7  2  0
  7  8  1  0
  8  9  1  0
  9  4  1  0
  1 10  1  0
  1 11  1  0
  1 12  1  0
  2 13  1  0
  3 14  1  0
  5 15  1  0
  5 16  1  0
  5 17  1  0
  6 18  1  0
  7 19  1  0
  8 20  1  0
  8 21  1  0
  9 22  1  0
  9 23  1  0
M  END
