
     RDKit          3D

 17 16  0  0  0  0  0  0  0  0999 V2000
   -2.0464    0.9618    0.3192 C   0  0  0  0  0  0  0  0  0  0  0  0
   -1.5273   -0.4074   -0.0529 C   0  0  0  0  0  0  0  0  0  0  0  0
   -2.3145   -1.4015    0.5038 O   0  0  0  0  0  0  0  0  0  0  0  0
   -0.1252   -0.6109    0.3304 C   0  0  0  0  0  0  0  0  0  0  0  0
    0.1351   -1.6169    1.0761 O   0  0  0  0  0  0  0  0  0  0  0  0
    0.9654    0.2472   -0.0794 C   0  0  0  0  0  0  0  0  0  0  0  0
    0.7451    1.2349   -0.8054 O   0  0  0  0  0  0  0  0  0  0  0  0
    2.3372   -0.0452    0.3606 C   0  0  0  0  0  0  0  0  0  0  0  0
    3.2636    0.8767   -0.1219 O   0  0  0  0  0  0  0  0  0  0  0  0
   -1.5897    1.3544    1.2469 H   0  0  0  0  0  0  0  0  0  0  0  0
   -1.8597    1.6546   -0.5219 H   0  0  0  0  0  0  0  0  0  0  0  0
   -3.1354    0.8558    0.5093 H   0  0  0  0  0  0  0  0  0  0  0  0
   -1.6560   -0.5037   -1.1708 H   0  0  0  0  0  0  0  0  0  0  0  0
   -1.7348   -2.1998    0.6069 H   0  0  0  0  0  0  0  0  0  0  0  0
    2.4341   -0.1255    1.4620 H   0  0  0  0  0  0  0  0  0  0  0  0
    2.6412   -1.0351   -0.0895 H   0  0  0  0  0  0  0  0  0  0  0  0
    3.4673    0.7604   -1.0744 H   0  0  0  0  0  0  0  0  0  0  0  0
  1  2  1  0
  2  3  1  0
  2  4  1  0
  4  5  2  0
  4  6  1  0
  6  7  2  0
  6  8  1  0
  8  9  1  0
  1 10  1  0
  1 11  1  0
  1 12  1  0
  2 13  1  0
  3 14  1  0
  8 15  1  0
  8 16  1  0
  9 17  1  0
M  END
