
     RDKit          3D

 23 23  0  0  0  0  0  0  0  0999 V2000
    2.3460   -0.7151   -0.5558 C   0  0  0  0  0  0  0  0  0  0  0  0
    1.7179    0.5093    0.0050 C   0  0  0  0  0  0  0  0  0  0  0  0
    2.2002    0.6653    1.3221 O   0  0  0  0  0  0  0  0  0  0  0  0
    0.2259    0.4537    0.0927 C   0  0  0  0  0  0  0  0  0  0  0  0
   -0.3490   -0.6517    0.9518 C   0  0  0  0  0  0  0  0  0  0  0  0
   -1.4605   -0.7976   -0.0654 C   0  0  0  0  0  0  0  0  0  0  0  0
   -2.6405    0.0999    0.1346 C   0  0  0  0  0  0  0  0  0  0  0  0
   -1.8006   -2.1152   -0.3756 O   0  0  0  0  0  0  0  0  0  0  0  0
   -0.4969   -0.1648   -1.0796 C   0  0  0  0  0  0  0  0  0  0  0  0
    2.0679   -0.9360   -1.5984 H   0  0  0  0  0  0  0  0  0  0  0  0
    2.1887   -1.5582    0.1406 H   0  0  0  0  0  0  0  0  0  0  0  0
    3.4585   -0.5181   -0.5918 H   0  0  0  0  0  0  0  0  0  0  0  0
    1.9990    1.4173   -0.5641 H   0  0  0  0  0  0  0  0  0  0  0  0
    3.0987    0.2928    1.3512 H   0  0  0  0  0  0  0  0  0  0  0  0
   -0.2550    1.4113    0.3754 H   0  0  0  0  0  0  0  0  0  0  0  0
    0.3010   -1.5477    0.9024 H   0  0  0  0  0  0  0  0  0  0  0  0
   -0.6661   -0.3455    1.9613 H   0  0  0  0  0  0  0  0  0  0  0  0
   -2.4101    1.1418   -0.1799 H   0  0  0  0  0  0  0  0  0  0  0  0
   -3.4502   -0.2707   -0.5493 H   0  0  0  0  0  0  0  0  0  0  0  0
   -3.0373    0.0703    1.1685 H   0  0  0  0  0  0  0  0  0  0  0  0
   -2.0937   -2.5428    0.4757 H   0  0  0  0  0  0  0  0  0  0  0  0
   -0.9758    0.5892   -1.7271 H   0  0  0  0  0  0  0  0  0  0  0  0
    0.0320   -0.9780   -1.5942 H   0  0  0  0  0  0  0  0  0  0  0  0
  1  2  1  0
  2  3  1  0
  2  4  1  0
  4  5  1  0
  5  6  1  0
  6  7  1  0
  6  8  1  0
  6  9  1  0
  9  4  1  0
  1 10  1  0
  1 11  1  0
  1 12  1  0
  2 13  1  0
  3 14  1  0
  4 15  1  0
  5 16  1  0
  5 17  1  0
  7 18  1  0
  7 19  1  0
  7 20  1  0
  8 21  1  0
  9 22  1  0
  9 23  1  0
M  END
