
     RDKit          3D

 23 23  0  0  0  0  0  0  0  0999 V2000
   -2.4637   -0.0107   -0.5894 C   0  0  0  0  0  0  0  0  0  0  0  0
   -1.4255    0.4387    0.4165 C   0  0  0  0  0  0  0  0  0  0  0  0
   -1.3573   -0.3693    1.5201 O   0  0  0  0  0  0  0  0  0  0  0  0
   -0.1149    0.6814   -0.2586 C   0  0  0  0  0  0  0  0  0  0  0  0
    0.9937    1.1357    0.6620 C   0  0  0  0  0  0  0  0  0  0  0  0
    1.9443    0.3152   -0.2033 C   0  0  0  0  0  0  0  0  0  0  0  0
    2.4880    1.1104   -1.1955 O   0  0  0  0  0  0  0  0  0  0  0  0
    0.7122   -0.4834   -0.6476 C   0  0  0  0  0  0  0  0  0  0  0  0
    0.6313   -1.7119    0.2202 C   0  0  0  0  0  0  0  0  0  0  0  0
   -3.2063   -0.6410   -0.0867 H   0  0  0  0  0  0  0  0  0  0  0  0
   -2.9754    0.8745   -1.0636 H   0  0  0  0  0  0  0  0  0  0  0  0
   -2.0114   -0.6047   -1.3992 H   0  0  0  0  0  0  0  0  0  0  0  0
   -1.7847    1.4487    0.7781 H   0  0  0  0  0  0  0  0  0  0  0  0
   -1.9987   -1.1323    1.3723 H   0  0  0  0  0  0  0  0  0  0  0  0
   -0.2375    1.3915   -1.1013 H   0  0  0  0  0  0  0  0  0  0  0  0
    1.2080    2.2055    0.6665 H   0  0  0  0  0  0  0  0  0  0  0  0
    0.9415    0.7051    1.6921 H   0  0  0  0  0  0  0  0  0  0  0  0
    2.6882   -0.2521    0.3523 H   0  0  0  0  0  0  0  0  0  0  0  0
    3.1265    1.7226   -0.7427 H   0  0  0  0  0  0  0  0  0  0  0  0
    0.7820   -0.7460   -1.7132 H   0  0  0  0  0  0  0  0  0  0  0  0
   -0.2559   -2.3174    0.0670 H   0  0  0  0  0  0  0  0  0  0  0  0
    0.7992   -1.4179    1.2928 H   0  0  0  0  0  0  0  0  0  0  0  0
    1.5163   -2.3425   -0.0390 H   0  0  0  0  0  0  0  0  0  0  0  0
  1  2  1  0
  2  3  1  0
  2  4  1  0
  4  5  1  0
  5  6  1  0
  6  7  1  0
  6  8  1  0
  8  9  1  0
  8  4  1  0
  1 10  1  0
  1 11  1  0
  1 12  1  0
  2 13  1  0
  3 14  1  0
  4 15  1  0
  5 16  1  0
  5 17  1  0
  6 18  1  0
  7 19  1  0
  8 20  1  0
  9 21  1  0
  9 22  1  0
  9 23  1  0
M  END
