
     RDKit          3D

 20 19  0  0  0  0  0  0  0  0999 V2000
   -2.0655   -0.2476   -0.2929 C   0  0  0  0  0  0  0  0  0  0  0  0
   -1.1185    0.5434    0.5828 C   0  0  0  0  0  0  0  0  0  0  0  0
   -0.7024    1.7156   -0.0224 O   0  0  0  0  0  0  0  0  0  0  0  0
    0.0025   -0.2795    1.1178 C   0  0  0  0  0  0  0  0  0  0  0  0
   -0.5986   -1.4172    1.7090 O   0  0  0  0  0  0  0  0  0  0  0  0
    1.0409   -0.6895    0.1348 C   0  0  0  0  0  0  0  0  0  0  0  0
    1.7679    0.4111   -0.5525 C   0  0  0  0  0  0  0  0  0  0  0  0
    2.4456    1.2546    0.3272 O   0  0  0  0  0  0  0  0  0  0  0  0
   -2.8000   -0.8272    0.3113 H   0  0  0  0  0  0  0  0  0  0  0  0
   -1.5276   -0.8913   -1.0217 H   0  0  0  0  0  0  0  0  0  0  0  0
   -2.6604    0.4909   -0.8695 H   0  0  0  0  0  0  0  0  0  0  0  0
   -1.7361    0.8473    1.4805 H   0  0  0  0  0  0  0  0  0  0  0  0
   -1.1403    1.8127   -0.9029 H   0  0  0  0  0  0  0  0  0  0  0  0
    0.4374    0.2815    1.9894 H   0  0  0  0  0  0  0  0  0  0  0  0
   -0.6506   -2.1121    0.9835 H   0  0  0  0  0  0  0  0  0  0  0  0
    1.7924   -1.3342    0.6721 H   0  0  0  0  0  0  0  0  0  0  0  0
    0.5617   -1.3165   -0.6447 H   0  0  0  0  0  0  0  0  0  0  0  0
    1.0863    0.9429   -1.2419 H   0  0  0  0  0  0  0  0  0  0  0  0
    2.5353   -0.0964   -1.2176 H   0  0  0  0  0  0  0  0  0  0  0  0
    3.3300    0.9116    0.5669 H   0  0  0  0  0  0  0  0  0  0  0  0
  1  2  1  0
  2  3  1  0
  2  4  1  0
  4  5  1  0
  4  6  1  0
  6  7  1  0
  7  8  1  0
  1  9  1  0
  1 10  1  0
  1 11  1  0
  2 12  1  0
  3 13  1  0
  4 14  1  0
  5 15  1  0
  6 16  1  0
  6 17  1  0
  7 18  1  0
  7 19  1  0
  8 20  1  0
M  END
