
     RDKit          3D

 21 20  0  0  0  0  0  0  0  0999 V2000
    1.7332    0.7888    0.1894 C   0  0  0  0  0  0  0  0  0  0  0  0
    0.9079   -0.2489   -0.4860 C   0  0  0  0  0  0  0  0  0  0  0  0
    1.5138   -1.4905   -0.3052 O   0  0  0  0  0  0  0  0  0  0  0  0
   -0.5135   -0.3288   -0.0560 C   0  0  0  0  0  0  0  0  0  0  0  0
   -0.7278   -0.6283    1.3850 C   0  0  0  0  0  0  0  0  0  0  0  0
   -1.1468   -1.4285   -0.8419 C   0  0  0  0  0  0  0  0  0  0  0  0
   -1.9272   -2.1970   -0.3452 O   0  0  0  0  0  0  0  0  0  0  0  0
   -1.2899    0.9375   -0.3995 C   0  0  0  0  0  0  0  0  0  0  0  0
   -0.7538    2.0572    0.2081 O   0  0  0  0  0  0  0  0  0  0  0  0
    1.2787    1.2613    1.0584 H   0  0  0  0  0  0  0  0  0  0  0  0
    2.0155    1.6086   -0.5219 H   0  0  0  0  0  0  0  0  0  0  0  0
    2.7208    0.3696    0.5325 H   0  0  0  0  0  0  0  0  0  0  0  0
    0.9218   -0.0542   -1.5811 H   0  0  0  0  0  0  0  0  0  0  0  0
    2.4874   -1.4394   -0.2377 H   0  0  0  0  0  0  0  0  0  0  0  0
   -0.4025   -1.6760    1.6269 H   0  0  0  0  0  0  0  0  0  0  0  0
   -0.2794    0.1002    2.0818 H   0  0  0  0  0  0  0  0  0  0  0  0
   -1.8211   -0.6140    1.5794 H   0  0  0  0  0  0  0  0  0  0  0  0
   -0.8676   -1.4986   -1.8818 H   0  0  0  0  0  0  0  0  0  0  0  0
   -2.3473    0.8606   -0.0770 H   0  0  0  0  0  0  0  0  0  0  0  0
   -1.3227    1.0325   -1.5202 H   0  0  0  0  0  0  0  0  0  0  0  0
   -0.1795    2.5881   -0.4082 H   0  0  0  0  0  0  0  0  0  0  0  0
  1  2  1  0
  2  3  1  0
  2  4  1  0
  4  5  1  0
  4  6  1  0
  6  7  2  0
  4  8  1  0
  8  9  1  0
  1 10  1  0
  1 11  1  0
  1 12  1  0
  2 13  1  0
  3 14  1  0
  5 15  1  0
  5 16  1  0
  5 17  1  0
  6 18  1  0
  8 19  1  0
  8 20  1  0
  9 21  1  0
M  END
