
     RDKit          3D

 21 22  0  0  0  0  0  0  0  0999 V2000
    2.2133   -0.5754    0.7405 C   0  0  0  0  0  0  0  0  0  0  0  0
    1.4281    0.5558    0.0447 C   0  0  0  0  0  0  0  0  0  0  0  0
    2.2894    0.9764   -0.9998 O   0  0  0  0  0  0  0  0  0  0  0  0
    0.2493   -0.0393   -0.5342 C   0  0  0  0  0  0  0  0  0  0  0  0
   -0.6093    0.6410   -1.3830 O   0  0  0  0  0  0  0  0  0  0  0  0
   -1.1079    1.2607   -0.2616 C   0  0  0  0  0  0  0  0  0  0  0  0
   -1.7811    0.7722    0.9144 C   0  0  0  0  0  0  0  0  0  0  0  0
   -1.0085   -0.2259    0.2425 C   0  0  0  0  0  0  0  0  0  0  0  0
   -1.9644   -1.1665   -0.5381 C   0  0  0  0  0  0  0  0  0  0  0  0
    1.9259   -1.5576    0.3510 H   0  0  0  0  0  0  0  0  0  0  0  0
    1.9445   -0.5791    1.8347 H   0  0  0  0  0  0  0  0  0  0  0  0
    3.3050   -0.3730    0.7025 H   0  0  0  0  0  0  0  0  0  0  0  0
    1.3996    1.3533    0.7622 H   0  0  0  0  0  0  0  0  0  0  0  0
    2.5601    0.2328   -1.5682 H   0  0  0  0  0  0  0  0  0  0  0  0
    0.5506   -1.0027   -1.0521 H   0  0  0  0  0  0  0  0  0  0  0  0
   -0.3582    2.0078    0.0319 H   0  0  0  0  0  0  0  0  0  0  0  0
   -2.9083    0.8733    0.8917 H   0  0  0  0  0  0  0  0  0  0  0  0
   -1.4502    0.9845    1.9795 H   0  0  0  0  0  0  0  0  0  0  0  0
   -1.4164   -1.9040   -1.1144 H   0  0  0  0  0  0  0  0  0  0  0  0
   -2.6648   -1.6510    0.1948 H   0  0  0  0  0  0  0  0  0  0  0  0
   -2.5967   -0.5832   -1.2390 H   0  0  0  0  0  0  0  0  0  0  0  0
  1  2  1  0
  2  3  1  0
  2  4  1  0
  4  5  1  0
  5  6  1  0
  6  7  1  0
  7  8  1  0
  8  9  1  0
  8  4  1  0
  8  6  1  0
  1 10  1  0
  1 11  1  0
  1 12  1  0
  2 13  1  0
  3 14  1  0
  4 15  1  0
  6 16  1  0
  7 17  1  0
  7 18  1  0
  9 19  1  0
  9 20  1  0
  9 21  1  0
M  END
