
     RDKit          3D

 23 22  0  0  0  0  0  0  0  0999 V2000
    3.2698    0.0224    0.3031 C   0  0  0  0  0  0  0  0  0  0  0  0
    2.0506   -0.0742   -0.5598 C   0  0  0  0  0  0  0  0  0  0  0  0
    2.0174    1.0356   -1.4047 O   0  0  0  0  0  0  0  0  0  0  0  0
    0.7796   -0.2077    0.2443 C   0  0  0  0  0  0  0  0  0  0  0  0
   -0.4194   -0.3022   -0.6326 C   0  0  0  0  0  0  0  0  0  0  0  0
   -0.3208   -0.2695   -1.8447 O   0  0  0  0  0  0  0  0  0  0  0  0
   -1.7384   -0.4380    0.0406 C   0  0  0  0  0  0  0  0  0  0  0  0
   -2.0452    0.7269    0.9442 C   0  0  0  0  0  0  0  0  0  0  0  0
   -2.8653   -0.5959   -0.9396 C   0  0  0  0  0  0  0  0  0  0  0  0
    3.4927    1.0790    0.5808 H   0  0  0  0  0  0  0  0  0  0  0  0
    3.1844   -0.5671    1.2535 H   0  0  0  0  0  0  0  0  0  0  0  0
    4.1770   -0.3328   -0.2663 H   0  0  0  0  0  0  0  0  0  0  0  0
    2.1057   -0.9667   -1.2341 H   0  0  0  0  0  0  0  0  0  0  0  0
    2.4399    1.7779   -0.8992 H   0  0  0  0  0  0  0  0  0  0  0  0
    0.8600   -1.1974    0.7788 H   0  0  0  0  0  0  0  0  0  0  0  0
    0.6862    0.5559    1.0289 H   0  0  0  0  0  0  0  0  0  0  0  0
   -1.6894   -1.3989    0.6277 H   0  0  0  0  0  0  0  0  0  0  0  0
   -2.2640    0.3473    1.9682 H   0  0  0  0  0  0  0  0  0  0  0  0
   -2.9722    1.2732    0.6315 H   0  0  0  0  0  0  0  0  0  0  0  0
   -1.1938    1.4262    0.9555 H   0  0  0  0  0  0  0  0  0  0  0  0
   -3.8113   -0.3300   -0.4162 H   0  0  0  0  0  0  0  0  0  0  0  0
   -2.9770   -1.6369   -1.3072 H   0  0  0  0  0  0  0  0  0  0  0  0
   -2.7664    0.0731   -1.8210 H   0  0  0  0  0  0  0  0  0  0  0  0
  1  2  1  0
  2  3  1  0
  2  4  1  0
  4  5  1  0
  5  6  2  0
  5  7  1  0
  7  8  1  0
  7  9  1  0
  1 10  1  0
  1 11  1  0
  1 12  1  0
  2 13  1  0
  3 14  1  0
  4 15  1  0
  4 16  1  0
  7 17  1  0
  8 18  1  0
  8 19  1  0
  8 20  1  0
  9 21  1  0
  9 22  1  0
  9 23  1  0
M  END
