
     RDKit          3D

 21 22  0  0  0  0  0  0  0  0999 V2000
    2.1601    1.0987    0.0719 C   0  0  0  0  0  0  0  0  0  0  0  0
    1.5527   -0.2611    0.1098 C   0  0  0  0  0  0  0  0  0  0  0  0
    1.6595   -0.9085   -1.1100 O   0  0  0  0  0  0  0  0  0  0  0  0
    0.1179   -0.1945    0.5798 C   0  0  0  0  0  0  0  0  0  0  0  0
   -0.5139   -1.5628    0.6246 C   0  0  0  0  0  0  0  0  0  0  0  0
   -1.8814   -1.2275    0.6744 O   0  0  0  0  0  0  0  0  0  0  0  0
   -2.0034   -0.3363   -0.3898 C   0  0  0  0  0  0  0  0  0  0  0  0
   -2.0409    1.1522    0.0192 C   0  0  0  0  0  0  0  0  0  0  0  0
   -0.7743    0.5010   -0.4339 C   0  0  0  0  0  0  0  0  0  0  0  0
    2.5457    1.3004   -0.9503 H   0  0  0  0  0  0  0  0  0  0  0  0
    3.0590    1.1795    0.7420 H   0  0  0  0  0  0  0  0  0  0  0  0
    1.3944    1.8501    0.3211 H   0  0  0  0  0  0  0  0  0  0  0  0
    2.1020   -0.8738    0.8550 H   0  0  0  0  0  0  0  0  0  0  0  0
    0.7990   -1.0441   -1.5670 H   0  0  0  0  0  0  0  0  0  0  0  0
    0.0584    0.2544    1.5683 H   0  0  0  0  0  0  0  0  0  0  0  0
   -0.1818   -2.0820    1.5225 H   0  0  0  0  0  0  0  0  0  0  0  0
   -0.3786   -2.1354   -0.3078 H   0  0  0  0  0  0  0  0  0  0  0  0
   -2.5712   -0.6093   -1.2798 H   0  0  0  0  0  0  0  0  0  0  0  0
   -2.5223    1.8122   -0.7092 H   0  0  0  0  0  0  0  0  0  0  0  0
   -2.2070    1.3553    1.0911 H   0  0  0  0  0  0  0  0  0  0  0  0
   -0.3738    0.7318   -1.4322 H   0  0  0  0  0  0  0  0  0  0  0  0
  1  2  1  0
  2  3  1  0
  2  4  1  0
  4  5  1  0
  5  6  1  0
  6  7  1  0
  7  8  1  0
  8  9  1  0
  9  4  1  0
  9  7  1  0
  1 10  1  0
  1 11  1  0
  1 12  1  0
  2 13  1  0
  3 14  1  0
  4 15  1  0
  5 16  1  0
  5 17  1  0
  7 18  1  0
  8 19  1  0
  8 20  1  0
  9 21  1  0
M  END
