
     RDKit          3D

 23 24  0  0  0  0  0  0  0  0999 V2000
    1.9716   -0.8626   -0.8955 C   0  0  0  0  0  0  0  0  0  0  0  0
    1.8419    0.1120    0.2344 C   0  0  0  0  0  0  0  0  0  0  0  0
    2.9056    1.0319    0.1074 O   0  0  0  0  0  0  0  0  0  0  0  0
    0.5680    0.9295    0.1899 C   0  0  0  0  0  0  0  0  0  0  0  0
   -0.6196    0.2609    0.2392 C   0  0  0  0  0  0  0  0  0  0  0  0
   -1.1282   -0.7781   -0.7349 C   0  0  0  0  0  0  0  0  0  0  0  0
   -2.2773   -0.5847    0.2003 C   0  0  0  0  0  0  0  0  0  0  0  0
   -2.0019    0.8926    0.0609 C   0  0  0  0  0  0  0  0  0  0  0  0
   -1.2456   -0.5456    1.3038 C   0  0  0  0  0  0  0  0  0  0  0  0
    1.2544   -0.6554   -1.7001 H   0  0  0  0  0  0  0  0  0  0  0  0
    1.7711   -1.8741   -0.5019 H   0  0  0  0  0  0  0  0  0  0  0  0
    2.9852   -0.8115   -1.3712 H   0  0  0  0  0  0  0  0  0  0  0  0
    1.9671   -0.4111    1.2016 H   0  0  0  0  0  0  0  0  0  0  0  0
    2.5941    1.9269   -0.1478 H   0  0  0  0  0  0  0  0  0  0  0  0
    0.6789    1.6794    1.0268 H   0  0  0  0  0  0  0  0  0  0  0  0
    0.6812    1.5718   -0.7352 H   0  0  0  0  0  0  0  0  0  0  0  0
   -1.3313   -0.3681   -1.7284 H   0  0  0  0  0  0  0  0  0  0  0  0
   -0.6156   -1.7589   -0.6857 H   0  0  0  0  0  0  0  0  0  0  0  0
   -3.1666   -1.0394    0.2165 H   0  0  0  0  0  0  0  0  0  0  0  0
   -2.3318    1.4605    0.9343 H   0  0  0  0  0  0  0  0  0  0  0  0
   -2.1353    1.3295   -0.9245 H   0  0  0  0  0  0  0  0  0  0  0  0
   -1.5445    0.0363    2.1979 H   0  0  0  0  0  0  0  0  0  0  0  0
   -0.8212   -1.5417    1.5119 H   0  0  0  0  0  0  0  0  0  0  0  0
  1  2  1  0
  2  3  1  0
  2  4  1  0
  4  5  1  0
  5  6  1  0
  6  7  1  0
  7  8  1  0
  7  9  1  0
  8  5  1  0
  9  5  1  0
  1 10  1  0
  1 11  1  0
  1 12  1  0
  2 13  1  0
  3 14  1  0
  4 15  1  0
  4 16  1  0
  6 17  1  0
  6 18  1  0
  7 19  1  0
  8 20  1  0
  8 21  1  0
  9 22  1  0
  9 23  1  0
M  END
