
     RDKit          3D

 21 21  0  0  0  0  0  0  0  0999 V2000
   -2.4912    0.1424    0.7191 C   0  0  0  0  0  0  0  0  0  0  0  0
   -1.4076   -0.5725   -0.0637 C   0  0  0  0  0  0  0  0  0  0  0  0
   -1.8393   -0.7111   -1.3992 O   0  0  0  0  0  0  0  0  0  0  0  0
   -0.1654    0.2641   -0.0959 C   0  0  0  0  0  0  0  0  0  0  0  0
    0.3751    0.4847    1.1611 O   0  0  0  0  0  0  0  0  0  0  0  0
    1.6192    1.0264    0.8361 C   0  0  0  0  0  0  0  0  0  0  0  0
    2.1704    0.1684   -0.2680 C   0  0  0  0  0  0  0  0  0  0  0  0
    0.9327   -0.5594   -0.7513 C   0  0  0  0  0  0  0  0  0  0  0  0
    0.9039   -1.8817   -0.3831 O   0  0  0  0  0  0  0  0  0  0  0  0
   -3.4598   -0.0968    0.2104 H   0  0  0  0  0  0  0  0  0  0  0  0
   -2.5733   -0.2318    1.7599 H   0  0  0  0  0  0  0  0  0  0  0  0
   -2.3802    1.2400    0.6765 H   0  0  0  0  0  0  0  0  0  0  0  0
   -1.1577   -1.5450    0.3898 H   0  0  0  0  0  0  0  0  0  0  0  0
   -1.6438    0.1626   -1.8436 H   0  0  0  0  0  0  0  0  0  0  0  0
   -0.2724    1.1938   -0.6882 H   0  0  0  0  0  0  0  0  0  0  0  0
    1.4150    2.0424    0.4134 H   0  0  0  0  0  0  0  0  0  0  0  0
    2.2891    1.0818    1.7134 H   0  0  0  0  0  0  0  0  0  0  0  0
    2.5546    0.7457   -1.1245 H   0  0  0  0  0  0  0  0  0  0  0  0
    2.9477   -0.4888    0.1163 H   0  0  0  0  0  0  0  0  0  0  0  0
    0.7854   -0.4781   -1.8419 H   0  0  0  0  0  0  0  0  0  0  0  0
    1.3977   -1.9869    0.4636 H   0  0  0  0  0  0  0  0  0  0  0  0
  1  2  1  0
  2  3  1  0
  2  4  1  0
  4  5  1  0
  5  6  1  0
  6  7  1  0
  7  8  1  0
  8  9  1  0
  8  4  1  0
  1 10  1  0
  1 11  1  0
  1 12  1  0
  2 13  1  0
  3 14  1  0
  4 15  1  0
  6 16  1  0
  6 17  1  0
  7 18  1  0
  7 19  1  0
  8 20  1  0
  9 21  1  0
M  END
