
     RDKit          3D

 23 22  0  0  0  0  0  0  0  0999 V2000
   -0.7108    2.0753   -0.2888 C   0  0  0  0  0  0  0  0  0  0  0  0
   -1.1952    0.6913   -0.5192 C   0  0  0  0  0  0  0  0  0  0  0  0
   -2.5715    0.6815   -0.1827 O   0  0  0  0  0  0  0  0  0  0  0  0
   -0.5630   -0.3834    0.2926 C   0  0  0  0  0  0  0  0  0  0  0  0
   -1.2423   -1.7169   -0.1089 C   0  0  0  0  0  0  0  0  0  0  0  0
    0.8974   -0.6418    0.0096 C   0  0  0  0  0  0  0  0  0  0  0  0
    1.2356   -1.6982    0.9074 O   0  0  0  0  0  0  0  0  0  0  0  0
    1.8260    0.4703    0.3489 C   0  0  0  0  0  0  0  0  0  0  0  0
    3.1346   -0.0625    0.1711 O   0  0  0  0  0  0  0  0  0  0  0  0
   -0.1152    2.5104   -1.1144 H   0  0  0  0  0  0  0  0  0  0  0  0
   -1.5915    2.7594   -0.1690 H   0  0  0  0  0  0  0  0  0  0  0  0
   -0.1514    2.1204    0.6556 H   0  0  0  0  0  0  0  0  0  0  0  0
   -1.1500    0.3745   -1.5894 H   0  0  0  0  0  0  0  0  0  0  0  0
   -3.0361   -0.0769   -0.5957 H   0  0  0  0  0  0  0  0  0  0  0  0
   -0.7248   -0.2458    1.3589 H   0  0  0  0  0  0  0  0  0  0  0  0
   -1.2352   -1.7214   -1.1984 H   0  0  0  0  0  0  0  0  0  0  0  0
   -0.5976   -2.5526    0.2365 H   0  0  0  0  0  0  0  0  0  0  0  0
   -2.2161   -1.8249    0.3672 H   0  0  0  0  0  0  0  0  0  0  0  0
    1.0874   -0.9822   -1.0076 H   0  0  0  0  0  0  0  0  0  0  0  0
    1.5783   -2.4823    0.3829 H   0  0  0  0  0  0  0  0  0  0  0  0
    1.7553    1.2491   -0.4416 H   0  0  0  0  0  0  0  0  0  0  0  0
    1.7768    0.8335    1.3712 H   0  0  0  0  0  0  0  0  0  0  0  0
    3.8094    0.6233    0.4478 H   0  0  0  0  0  0  0  0  0  0  0  0
  1  2  1  0
  2  3  1  0
  2  4  1  0
  4  5  1  0
  4  6  1  0
  6  7  1  0
  6  8  1  0
  8  9  1  0
  1 10  1  0
  1 11  1  0
  1 12  1  0
  2 13  1  0
  3 14  1  0
  4 15  1  0
  5 16  1  0
  5 17  1  0
  5 18  1  0
  6 19  1  0
  7 20  1  0
  8 21  1  0
  8 22  1  0
  9 23  1  0
M  END
