
     RDKit          3D

 21 21  0  0  0  0  0  0  0  0999 V2000
   -1.9308   -1.0187    0.5434 C   0  0  0  0  0  0  0  0  0  0  0  0
   -1.3588   -0.1869   -0.5885 C   0  0  0  0  0  0  0  0  0  0  0  0
   -2.2597    0.8428   -0.8401 O   0  0  0  0  0  0  0  0  0  0  0  0
   -0.0728    0.4215   -0.1255 C   0  0  0  0  0  0  0  0  0  0  0  0
    0.1716    1.7151   -0.0483 C   0  0  0  0  0  0  0  0  0  0  0  0
    1.5831    1.8341    0.4634 C   0  0  0  0  0  0  0  0  0  0  0  0
    2.1564    0.6110    0.0759 O   0  0  0  0  0  0  0  0  0  0  0  0
    1.1511   -0.2775    0.3388 C   0  0  0  0  0  0  0  0  0  0  0  0
    1.3360   -1.6155   -0.3308 C   0  0  0  0  0  0  0  0  0  0  0  0
   -1.1778   -1.2051    1.3462 H   0  0  0  0  0  0  0  0  0  0  0  0
   -2.8408   -0.5658    0.9667 H   0  0  0  0  0  0  0  0  0  0  0  0
   -2.2309   -2.0370    0.1872 H   0  0  0  0  0  0  0  0  0  0  0  0
   -1.2290   -0.8089   -1.4770 H   0  0  0  0  0  0  0  0  0  0  0  0
   -1.9252    1.3918   -1.6088 H   0  0  0  0  0  0  0  0  0  0  0  0
   -0.4461    2.5699   -0.2804 H   0  0  0  0  0  0  0  0  0  0  0  0
    1.5471    1.9696    1.5438 H   0  0  0  0  0  0  0  0  0  0  0  0
    2.0612    2.6519   -0.0989 H   0  0  0  0  0  0  0  0  0  0  0  0
    1.1186   -0.4361    1.4391 H   0  0  0  0  0  0  0  0  0  0  0  0
    0.9922   -2.4566    0.3030 H   0  0  0  0  0  0  0  0  0  0  0  0
    0.9121   -1.6377   -1.3545 H   0  0  0  0  0  0  0  0  0  0  0  0
    2.4426   -1.7618   -0.4546 H   0  0  0  0  0  0  0  0  0  0  0  0
  1  2  1  0
  2  3  1  0
  2  4  1  0
  4  5  2  0
  5  6  1  0
  6  7  1  0
  7  8  1  0
  8  9  1  0
  8  4  1  0
  1 10  1  0
  1 11  1  0
  1 12  1  0
  2 13  1  0
  3 14  1  0
  5 15  1  0
  6 16  1  0
  6 17  1  0
  8 18  1  0
  9 19  1  0
  9 20  1  0
  9 21  1  0
M  END
