
     RDKit          3D

 23 22  0  0  0  0  0  0  0  0999 V2000
   -2.7115    0.1076    0.8401 C   0  0  0  0  0  0  0  0  0  0  0  0
   -1.2227    0.3362    0.9792 C   0  0  0  0  0  0  0  0  0  0  0  0
   -0.7278   -0.6832    1.7907 O   0  0  0  0  0  0  0  0  0  0  0  0
   -0.5368    0.2235   -0.3646 C   0  0  0  0  0  0  0  0  0  0  0  0
   -1.1269    1.1223   -1.3976 C   0  0  0  0  0  0  0  0  0  0  0  0
    0.8286    0.3596   -0.2010 O   0  0  0  0  0  0  0  0  0  0  0  0
    1.5366   -0.7994   -0.4941 C   0  0  0  0  0  0  0  0  0  0  0  0
    3.0156   -0.4591   -0.2577 C   0  0  0  0  0  0  0  0  0  0  0  0
    3.1089   -0.0866    1.1028 O   0  0  0  0  0  0  0  0  0  0  0  0
   -3.2407    1.0807    0.6828 H   0  0  0  0  0  0  0  0  0  0  0  0
   -3.0672   -0.3011    1.8080 H   0  0  0  0  0  0  0  0  0  0  0  0
   -2.9496   -0.6341    0.0504 H   0  0  0  0  0  0  0  0  0  0  0  0
   -1.0810    1.3274    1.4463 H   0  0  0  0  0  0  0  0  0  0  0  0
   -0.9881   -1.5377    1.3296 H   0  0  0  0  0  0  0  0  0  0  0  0
   -0.7058   -0.8379   -0.7062 H   0  0  0  0  0  0  0  0  0  0  0  0
   -1.9834    0.6031   -1.8791 H   0  0  0  0  0  0  0  0  0  0  0  0
   -0.3549    1.2693   -2.1965 H   0  0  0  0  0  0  0  0  0  0  0  0
   -1.4271    2.1155   -1.0083 H   0  0  0  0  0  0  0  0  0  0  0  0
    1.4401   -1.1380   -1.5255 H   0  0  0  0  0  0  0  0  0  0  0  0
    1.2224   -1.6296    0.1715 H   0  0  0  0  0  0  0  0  0  0  0  0
    3.6792   -1.2789   -0.5186 H   0  0  0  0  0  0  0  0  0  0  0  0
    3.3013    0.4490   -0.8249 H   0  0  0  0  0  0  0  0  0  0  0  0
    3.9910    0.3913    1.1727 H   0  0  0  0  0  0  0  0  0  0  0  0
  1  2  1  0
  2  3  1  0
  2  4  1  0
  4  5  1  0
  4  6  1  0
  6  7  1  0
  7  8  1  0
  8  9  1  0
  1 10  1  0
  1 11  1  0
  1 12  1  0
  2 13  1  0
  3 14  1  0
  4 15  1  0
  5 16  1  0
  5 17  1  0
  5 18  1  0
  7 19  1  0
  7 20  1  0
  8 21  1  0
  8 22  1  0
  9 23  1  0
M  END
