
     RDKit          3D

 19 19  0  0  0  0  0  0  0  0999 V2000
    2.1881    0.6622   -0.5831 C   0  0  0  0  0  0  0  0  0  0  0  0
    1.2827   -0.4324   -0.0723 C   0  0  0  0  0  0  0  0  0  0  0  0
    1.9936   -1.2660    0.7473 O   0  0  0  0  0  0  0  0  0  0  0  0
    0.0390    0.1367    0.5702 C   0  0  0  0  0  0  0  0  0  0  0  0
   -1.0010   -0.6982    1.1448 C   0  0  0  0  0  0  0  0  0  0  0  0
   -1.2746    0.0238   -0.2089 C   0  0  0  0  0  0  0  0  0  0  0  0
   -1.1780   -0.7439   -1.3490 O   0  0  0  0  0  0  0  0  0  0  0  0
   -2.2126    1.1649   -0.1595 C   0  0  0  0  0  0  0  0  0  0  0  0
   -2.3143    1.8523    0.8300 O   0  0  0  0  0  0  0  0  0  0  0  0
    3.2593    0.4883   -0.3048 H   0  0  0  0  0  0  0  0  0  0  0  0
    2.0966    0.7954   -1.6818 H   0  0  0  0  0  0  0  0  0  0  0  0
    1.8919    1.5988   -0.0549 H   0  0  0  0  0  0  0  0  0  0  0  0
    0.9451   -1.0347   -0.9594 H   0  0  0  0  0  0  0  0  0  0  0  0
    1.6978   -2.2058    0.7421 H   0  0  0  0  0  0  0  0  0  0  0  0
    0.1934    1.1375    1.0063 H   0  0  0  0  0  0  0  0  0  0  0  0
   -1.0871   -1.7780    1.0592 H   0  0  0  0  0  0  0  0  0  0  0  0
   -1.5945   -0.2755    2.0061 H   0  0  0  0  0  0  0  0  0  0  0  0
   -2.1033   -0.8246   -1.7194 H   0  0  0  0  0  0  0  0  0  0  0  0
   -2.8219    1.3990   -1.0131 H   0  0  0  0  0  0  0  0  0  0  0  0
  1  2  1  0
  2  3  1  0
  2  4  1  0
  4  5  1  0
  5  6  1  0
  6  7  1  0
  6  8  1  0
  8  9  2  0
  6  4  1  0
  1 10  1  0
  1 11  1  0
  1 12  1  0
  2 13  1  0
  3 14  1  0
  4 15  1  0
  5 16  1  0
  5 17  1  0
  7 18  1  0
  8 19  1  0
M  END
