
     RDKit          3D

 17 18  0  0  0  0  0  0  0  0999 V2000
   -1.9770    0.5156    0.8223 C   0  0  0  0  0  0  0  0  0  0  0  0
   -0.9035   -0.4644    0.3962 C   0  0  0  0  0  0  0  0  0  0  0  0
   -1.4604   -1.4055   -0.4836 O   0  0  0  0  0  0  0  0  0  0  0  0
    0.2006    0.2463   -0.3228 C   0  0  0  0  0  0  0  0  0  0  0  0
    1.3015   -0.6736   -0.7737 C   0  0  0  0  0  0  0  0  0  0  0  0
    1.5912   -0.8085    0.5779 O   0  0  0  0  0  0  0  0  0  0  0  0
    1.4274    0.5641    0.4674 C   0  0  0  0  0  0  0  0  0  0  0  0
    2.1726    0.4646   -0.7701 C   0  0  0  0  0  0  0  0  0  0  0  0
    3.0108    1.0118   -1.4001 O   0  0  0  0  0  0  0  0  0  0  0  0
   -2.7475   -0.0105    1.3797 H   0  0  0  0  0  0  0  0  0  0  0  0
   -1.5151    1.3591    1.3645 H   0  0  0  0  0  0  0  0  0  0  0  0
   -2.3970    0.9515   -0.1177 H   0  0  0  0  0  0  0  0  0  0  0  0
   -0.5300   -0.9528    1.2942 H   0  0  0  0  0  0  0  0  0  0  0  0
   -0.8297   -1.6542   -1.2054 H   0  0  0  0  0  0  0  0  0  0  0  0
   -0.0668    1.0489   -1.0052 H   0  0  0  0  0  0  0  0  0  0  0  0
    1.2050   -1.4301   -1.4347 H   0  0  0  0  0  0  0  0  0  0  0  0
    1.5179    1.2377    1.2111 H   0  0  0  0  0  0  0  0  0  0  0  0
  1  2  1  0
  2  3  1  0
  2  4  1  0
  4  5  1  0
  5  6  1  0
  6  7  1  0
  7  8  1  0
  8  9  2  0
  7  4  1  0
  8  5  1  0
  1 10  1  0
  1 11  1  0
  1 12  1  0
  2 13  1  0
  3 14  1  0
  4 15  1  0
  5 16  1  0
  7 17  1  0
M  END
