
     RDKit          3D

 19 19  0  0  0  0  0  0  0  0999 V2000
    2.0701   -0.3882   -0.2984 C   0  0  0  0  0  0  0  0  0  0  0  0
    0.9632   -0.1224    0.7193 C   0  0  0  0  0  0  0  0  0  0  0  0
    0.3975   -1.3356    1.1323 O   0  0  0  0  0  0  0  0  0  0  0  0
   -0.0493    0.7501    0.0647 C   0  0  0  0  0  0  0  0  0  0  0  0
   -0.6766    0.1168   -1.1877 C   0  0  0  0  0  0  0  0  0  0  0  0
   -1.9173    0.8090   -0.7893 C   0  0  0  0  0  0  0  0  0  0  0  0
   -2.8636    1.2856   -1.3474 O   0  0  0  0  0  0  0  0  0  0  0  0
   -1.4651    0.6484    0.6072 C   0  0  0  0  0  0  0  0  0  0  0  0
   -1.6936   -0.6704    1.0258 O   0  0  0  0  0  0  0  0  0  0  0  0
    1.9001   -1.4022   -0.7150 H   0  0  0  0  0  0  0  0  0  0  0  0
    2.0191    0.3553   -1.1444 H   0  0  0  0  0  0  0  0  0  0  0  0
    3.0732   -0.2961    0.1741 H   0  0  0  0  0  0  0  0  0  0  0  0
    1.3617    0.4004    1.6008 H   0  0  0  0  0  0  0  0  0  0  0  0
    1.1014   -2.0356    0.9575 H   0  0  0  0  0  0  0  0  0  0  0  0
    0.3118    1.7676   -0.1020 H   0  0  0  0  0  0  0  0  0  0  0  0
   -0.2100    0.4240   -2.1300 H   0  0  0  0  0  0  0  0  0  0  0  0
   -0.6901   -0.9973   -1.0075 H   0  0  0  0  0  0  0  0  0  0  0  0
   -1.7605    1.4212    1.3203 H   0  0  0  0  0  0  0  0  0  0  0  0
   -1.8721   -0.7304    1.9970 H   0  0  0  0  0  0  0  0  0  0  0  0
  1  2  1  0
  2  3  1  0
  2  4  1  0
  4  5  1  0
  5  6  1  0
  6  7  2  0
  6  8  1  0
  8  9  1  0
  8  4  1  0
  1 10  1  0
  1 11  1  0
  1 12  1  0
  2 13  1  0
  3 14  1  0
  4 15  1  0
  5 16  1  0
  5 17  1  0
  8 18  1  0
  9 19  1  0
M  END
