
     RDKit          3D

 21 22  0  0  0  0  0  0  0  0999 V2000
    2.1585   -0.5293    0.5535 C   0  0  0  0  0  0  0  0  0  0  0  0
    1.3400    0.6836    0.2265 C   0  0  0  0  0  0  0  0  0  0  0  0
    1.8385    1.1881   -0.9927 O   0  0  0  0  0  0  0  0  0  0  0  0
   -0.0698    0.3935    0.0631 C   0  0  0  0  0  0  0  0  0  0  0  0
   -0.7742   -0.4325    1.1352 C   0  0  0  0  0  0  0  0  0  0  0  0
   -1.7286   -0.7119   -0.0356 C   0  0  0  0  0  0  0  0  0  0  0  0
   -2.2051    0.6726   -0.3410 C   0  0  0  0  0  0  0  0  0  0  0  0
   -0.9638    1.3610   -0.2738 O   0  0  0  0  0  0  0  0  0  0  0  0
   -0.4508   -0.7656   -0.8694 C   0  0  0  0  0  0  0  0  0  0  0  0
    1.8191   -1.0801    1.4424 H   0  0  0  0  0  0  0  0  0  0  0  0
    3.2267   -0.1840    0.6645 H   0  0  0  0  0  0  0  0  0  0  0  0
    2.1867   -1.2725   -0.2876 H   0  0  0  0  0  0  0  0  0  0  0  0
    1.4976    1.4243    1.0105 H   0  0  0  0  0  0  0  0  0  0  0  0
    1.9844    2.1441   -0.9241 H   0  0  0  0  0  0  0  0  0  0  0  0
   -0.2087   -1.3026    1.4654 H   0  0  0  0  0  0  0  0  0  0  0  0
   -1.3107    0.1436    1.8919 H   0  0  0  0  0  0  0  0  0  0  0  0
   -2.3619   -1.5403    0.0075 H   0  0  0  0  0  0  0  0  0  0  0  0
   -2.8551    1.0962    0.4303 H   0  0  0  0  0  0  0  0  0  0  0  0
   -2.6748    0.7896   -1.3250 H   0  0  0  0  0  0  0  0  0  0  0  0
   -0.5579   -0.3930   -1.8924 H   0  0  0  0  0  0  0  0  0  0  0  0
    0.1096   -1.6849   -0.7059 H   0  0  0  0  0  0  0  0  0  0  0  0
  1  2  1  0
  2  3  1  0
  2  4  1  0
  4  5  1  0
  5  6  1  0
  6  7  1  0
  7  8  1  0
  6  9  1  0
  8  4  1  0
  9  4  1  0
  1 10  1  0
  1 11  1  0
  1 12  1  0
  2 13  1  0
  3 14  1  0
  5 15  1  0
  5 16  1  0
  6 17  1  0
  7 18  1  0
  7 19  1  0
  9 20  1  0
  9 21  1  0
M  END
