
     RDKit          3D

 23 23  0  0  0  0  0  0  0  0999 V2000
   -2.4130    0.1952    0.8105 C   0  0  0  0  0  0  0  0  0  0  0  0
   -1.4218   -0.4300   -0.1379 C   0  0  0  0  0  0  0  0  0  0  0  0
   -1.8140   -0.0398   -1.4353 O   0  0  0  0  0  0  0  0  0  0  0  0
   -0.0242    0.0754    0.0659 C   0  0  0  0  0  0  0  0  0  0  0  0
    0.0559    1.5514   -0.2607 C   0  0  0  0  0  0  0  0  0  0  0  0
    0.8698   -0.7007   -0.8835 C   0  0  0  0  0  0  0  0  0  0  0  0
    2.2239   -0.6586   -0.2276 C   0  0  0  0  0  0  0  0  0  0  0  0
    1.8798   -0.2543    1.1878 C   0  0  0  0  0  0  0  0  0  0  0  0
    0.5075   -0.2250    1.2921 O   0  0  0  0  0  0  0  0  0  0  0  0
   -2.6704    1.2307    0.4847 H   0  0  0  0  0  0  0  0  0  0  0  0
   -2.1033    0.1597    1.8617 H   0  0  0  0  0  0  0  0  0  0  0  0
   -3.3632   -0.3853    0.7210 H   0  0  0  0  0  0  0  0  0  0  0  0
   -1.4326   -1.5180   -0.0523 H   0  0  0  0  0  0  0  0  0  0  0  0
   -2.0947   -0.8360   -1.9233 H   0  0  0  0  0  0  0  0  0  0  0  0
   -0.6707    2.0902    0.3895 H   0  0  0  0  0  0  0  0  0  0  0  0
    1.0530    1.9541   -0.0876 H   0  0  0  0  0  0  0  0  0  0  0  0
   -0.3060    1.6634   -1.3116 H   0  0  0  0  0  0  0  0  0  0  0  0
    0.5497   -1.7630   -0.9331 H   0  0  0  0  0  0  0  0  0  0  0  0
    0.8457   -0.2951   -1.8974 H   0  0  0  0  0  0  0  0  0  0  0  0
    2.7212   -1.6481   -0.2518 H   0  0  0  0  0  0  0  0  0  0  0  0
    2.9069    0.0623   -0.6808 H   0  0  0  0  0  0  0  0  0  0  0  0
    2.3686   -0.9680    1.8781 H   0  0  0  0  0  0  0  0  0  0  0  0
    2.3317    0.7396    1.3917 H   0  0  0  0  0  0  0  0  0  0  0  0
  1  2  1  0
  2  3  1  0
  2  4  1  0
  4  5  1  0
  4  6  1  0
  6  7  1  0
  7  8  1  0
  8  9  1  0
  9  4  1  0
  1 10  1  0
  1 11  1  0
  1 12  1  0
  2 13  1  0
  3 14  1  0
  5 15  1  0
  5 16  1  0
  5 17  1  0
  6 18  1  0
  6 19  1  0
  7 20  1  0
  7 21  1  0
  8 22  1  0
  8 23  1  0
M  END
