
     RDKit          3D

 19 19  0  0  0  0  0  0  0  0999 V2000
    2.3757   -0.0221   -0.1984 C   0  0  0  0  0  0  0  0  0  0  0  0
    1.0973    0.0280    0.6337 C   0  0  0  0  0  0  0  0  0  0  0  0
    1.1287   -1.0866    1.5028 O   0  0  0  0  0  0  0  0  0  0  0  0
   -0.0587   -0.0851   -0.3128 C   0  0  0  0  0  0  0  0  0  0  0  0
   -0.1108    0.9896   -1.1704 O   0  0  0  0  0  0  0  0  0  0  0  0
   -1.4623    1.1882   -0.8694 C   0  0  0  0  0  0  0  0  0  0  0  0
   -1.4173    0.1695    0.2336 C   0  0  0  0  0  0  0  0  0  0  0  0
   -2.2977   -1.0001    0.0756 C   0  0  0  0  0  0  0  0  0  0  0  0
   -2.3038   -1.6106   -0.9561 O   0  0  0  0  0  0  0  0  0  0  0  0
    2.9786    0.8897   -0.0837 H   0  0  0  0  0  0  0  0  0  0  0  0
    2.1589   -0.1302   -1.2810 H   0  0  0  0  0  0  0  0  0  0  0  0
    3.0129   -0.8887    0.0860 H   0  0  0  0  0  0  0  0  0  0  0  0
    1.1115    0.9800    1.1882 H   0  0  0  0  0  0  0  0  0  0  0  0
    1.8271   -0.9234    2.1837 H   0  0  0  0  0  0  0  0  0  0  0  0
    0.0360   -1.0455   -0.8933 H   0  0  0  0  0  0  0  0  0  0  0  0
   -1.5874    2.2379   -0.5184 H   0  0  0  0  0  0  0  0  0  0  0  0
   -2.0910    0.9370   -1.7364 H   0  0  0  0  0  0  0  0  0  0  0  0
   -1.4750    0.6597    1.2235 H   0  0  0  0  0  0  0  0  0  0  0  0
   -2.9228   -1.2871    0.8928 H   0  0  0  0  0  0  0  0  0  0  0  0
  1  2  1  0
  2  3  1  0
  2  4  1  0
  4  5  1  0
  5  6  1  0
  6  7  1  0
  7  8  1  0
  8  9  2  0
  7  4  1  0
  1 10  1  0
  1 11  1  0
  1 12  1  0
  2 13  1  0
  3 14  1  0
  4 15  1  0
  6 16  1  0
  6 17  1  0
  7 18  1  0
  8 19  1  0
M  END
