
     RDKit          3D

 21 22  0  0  0  0  0  0  0  0999 V2000
    1.9540    1.7428    0.1420 C   0  0  0  0  0  0  0  0  0  0  0  0
    1.4827    0.3389   -0.0498 C   0  0  0  0  0  0  0  0  0  0  0  0
    2.5690   -0.5343    0.0398 O   0  0  0  0  0  0  0  0  0  0  0  0
    0.3986   -0.0684    0.9130 C   0  0  0  0  0  0  0  0  0  0  0  0
   -0.0667   -1.5230    0.6896 C   0  0  0  0  0  0  0  0  0  0  0  0
   -0.9528   -0.3746    0.5052 C   0  0  0  0  0  0  0  0  0  0  0  0
   -1.6083    0.0147   -0.7486 C   0  0  0  0  0  0  0  0  0  0  0  0
   -2.8136   -0.4105    0.0339 C   0  0  0  0  0  0  0  0  0  0  0  0
   -2.0923   -0.1669    1.2044 O   0  0  0  0  0  0  0  0  0  0  0  0
    1.3932    2.4506   -0.5238 H   0  0  0  0  0  0  0  0  0  0  0  0
    1.9565    2.0777    1.1920 H   0  0  0  0  0  0  0  0  0  0  0  0
    3.0118    1.7904   -0.2084 H   0  0  0  0  0  0  0  0  0  0  0  0
    1.1121    0.2637   -1.1138 H   0  0  0  0  0  0  0  0  0  0  0  0
    2.6385   -0.8936    0.9639 H   0  0  0  0  0  0  0  0  0  0  0  0
    0.5710    0.2266    1.9682 H   0  0  0  0  0  0  0  0  0  0  0  0
    0.2694   -2.0497   -0.2132 H   0  0  0  0  0  0  0  0  0  0  0  0
   -0.1206   -2.1610    1.6124 H   0  0  0  0  0  0  0  0  0  0  0  0
   -1.6297    1.1135   -0.9420 H   0  0  0  0  0  0  0  0  0  0  0  0
   -1.3389   -0.6163   -1.6151 H   0  0  0  0  0  0  0  0  0  0  0  0
   -3.6846    0.2706    0.0005 H   0  0  0  0  0  0  0  0  0  0  0  0
   -3.0494   -1.4915   -0.0674 H   0  0  0  0  0  0  0  0  0  0  0  0
  1  2  1  0
  2  3  1  0
  2  4  1  0
  4  5  1  0
  5  6  1  0
  6  7  1  0
  7  8  1  0
  8  9  1  0
  6  4  1  0
  9  6  1  0
  1 10  1  0
  1 11  1  0
  1 12  1  0
  2 13  1  0
  3 14  1  0
  4 15  1  0
  5 16  1  0
  5 17  1  0
  7 18  1  0
  7 19  1  0
  8 20  1  0
  8 21  1  0
M  END
