
     RDKit          3D

 21 22  0  0  0  0  0  0  0  0999 V2000
    2.0862    0.2084   -0.2701 C   0  0  0  0  0  0  0  0  0  0  0  0
    1.1524   -0.9607   -0.0332 C   0  0  0  0  0  0  0  0  0  0  0  0
    1.1996   -1.7743   -1.1636 O   0  0  0  0  0  0  0  0  0  0  0  0
   -0.2729   -0.4359    0.1972 C   0  0  0  0  0  0  0  0  0  0  0  0
   -1.2343   -1.6117    0.4396 C   0  0  0  0  0  0  0  0  0  0  0  0
   -0.8363    0.6563   -0.5586 C   0  0  0  0  0  0  0  0  0  0  0  0
   -1.5082    1.8982    0.0519 C   0  0  0  0  0  0  0  0  0  0  0  0
   -0.1926    2.0826    0.5607 O   0  0  0  0  0  0  0  0  0  0  0  0
   -0.3864    0.7602    0.9549 C   0  0  0  0  0  0  0  0  0  0  0  0
    3.1414   -0.1024   -0.1064 H   0  0  0  0  0  0  0  0  0  0  0  0
    1.9292    0.6739   -1.2434 H   0  0  0  0  0  0  0  0  0  0  0  0
    1.8583    0.9656    0.5061 H   0  0  0  0  0  0  0  0  0  0  0  0
    1.5228   -1.5325    0.8132 H   0  0  0  0  0  0  0  0  0  0  0  0
    1.3442   -1.2503   -1.9897 H   0  0  0  0  0  0  0  0  0  0  0  0
   -0.9635   -2.3913   -0.3215 H   0  0  0  0  0  0  0  0  0  0  0  0
   -1.1550   -2.0027    1.4565 H   0  0  0  0  0  0  0  0  0  0  0  0
   -2.2715   -1.3338    0.2372 H   0  0  0  0  0  0  0  0  0  0  0  0
   -0.0725    1.0631   -1.2953 H   0  0  0  0  0  0  0  0  0  0  0  0
   -2.2818    1.7075    0.7851 H   0  0  0  0  0  0  0  0  0  0  0  0
   -1.8049    2.6237   -0.7079 H   0  0  0  0  0  0  0  0  0  0  0  0
   -1.2543    0.7563    1.6875 H   0  0  0  0  0  0  0  0  0  0  0  0
  1  2  1  0
  2  3  1  0
  2  4  1  0
  4  5  1  0
  4  6  1  0
  6  7  1  0
  7  8  1  0
  8  9  1  0
  9  4  1  0
  9  6  1  0
  1 10  1  0
  1 11  1  0
  1 12  1  0
  2 13  1  0
  3 14  1  0
  5 15  1  0
  5 16  1  0
  5 17  1  0
  6 18  1  0
  7 19  1  0
  7 20  1  0
  9 21  1  0
M  END
