
     RDKit          3D

 14 13  0  0  0  0  0  0  0  0999 V2000
   -1.1554   -0.3346   -0.9668 C   0  0  0  0  0  0  0  0  0  0  0  0
   -0.5712    0.3813    0.2277 C   0  0  0  0  0  0  0  0  0  0  0  0
   -1.3994    0.3016    1.3455 O   0  0  0  0  0  0  0  0  0  0  0  0
    0.7676   -0.1983    0.6321 C   0  0  0  0  0  0  0  0  0  0  0  0
    1.7959   -0.1308   -0.4008 C   0  0  0  0  0  0  0  0  0  0  0  0
    2.3727    0.9071   -0.6515 O   0  0  0  0  0  0  0  0  0  0  0  0
   -1.9071   -1.1142   -0.6326 H   0  0  0  0  0  0  0  0  0  0  0  0
   -0.4165   -0.8822   -1.5566 H   0  0  0  0  0  0  0  0  0  0  0  0
   -1.6973    0.4101   -1.6069 H   0  0  0  0  0  0  0  0  0  0  0  0
   -0.4355    1.4800    0.0292 H   0  0  0  0  0  0  0  0  0  0  0  0
   -1.0832    1.0138    1.9756 H   0  0  0  0  0  0  0  0  0  0  0  0
    0.5836   -1.2204    1.0321 H   0  0  0  0  0  0  0  0  0  0  0  0
    1.0845    0.3946    1.5364 H   0  0  0  0  0  0  0  0  0  0  0  0
    2.0613   -1.0079   -0.9635 H   0  0  0  0  0  0  0  0  0  0  0  0
  1  2  1  0
  2  3  1  0
  2  4  1  0
  4  5  1  0
  5  6  2  0
  1  7  1  0
  1  8  1  0
  1  9  1  0
  2 10  1  0
  3 11  1  0
  4 12  1  0
  4 13  1  0
  5 14  1  0
M  END
