
     RDKit          3D

 19 18  0  0  0  0  0  0  0  0999 V2000
    2.8174    0.6835    0.1193 C   0  0  0  0  0  0  0  0  0  0  0  0
    1.3026    0.6495   -0.0243 C   0  0  0  0  0  0  0  0  0  0  0  0
    1.0111    0.2093   -1.2979 O   0  0  0  0  0  0  0  0  0  0  0  0
    0.6413   -0.0784    1.0857 C   0  0  0  0  0  0  0  0  0  0  0  0
   -0.7453   -0.0243    1.0634 O   0  0  0  0  0  0  0  0  0  0  0  0
   -1.5698   -0.5379    0.1027 C   0  0  0  0  0  0  0  0  0  0  0  0
   -1.0791   -1.1371   -0.8806 O   0  0  0  0  0  0  0  0  0  0  0  0
   -3.0543   -0.4289    0.1493 C   0  0  0  0  0  0  0  0  0  0  0  0
   -3.6200   -1.0428   -0.9596 O   0  0  0  0  0  0  0  0  0  0  0  0
    3.2745   -0.2972   -0.0971 H   0  0  0  0  0  0  0  0  0  0  0  0
    3.1235    0.9865    1.1263 H   0  0  0  0  0  0  0  0  0  0  0  0
    3.1953    1.4073   -0.6391 H   0  0  0  0  0  0  0  0  0  0  0  0
    0.9779    1.7324    0.0022 H   0  0  0  0  0  0  0  0  0  0  0  0
    1.7498   -0.3617   -1.6082 H   0  0  0  0  0  0  0  0  0  0  0  0
    1.0527    0.1893    2.0900 H   0  0  0  0  0  0  0  0  0  0  0  0
    0.9292   -1.1756    0.9891 H   0  0  0  0  0  0  0  0  0  0  0  0
   -3.3361    0.6644    0.1183 H   0  0  0  0  0  0  0  0  0  0  0  0
   -3.4722   -0.7968    1.1113 H   0  0  0  0  0  0  0  0  0  0  0  0
   -3.1984   -0.6414   -1.7537 H   0  0  0  0  0  0  0  0  0  0  0  0
  1  2  1  0
  2  3  1  0
  2  4  1  0
  4  5  1  0
  5  6  1  0
  6  7  2  0
  6  8  1  0
  8  9  1  0
  1 10  1  0
  1 11  1  0
  1 12  1  0
  2 13  1  0
  3 14  1  0
  4 15  1  0
  4 16  1  0
  8 17  1  0
  8 18  1  0
  9 19  1  0
M  END
