
     RDKit          3D

 23 23  0  0  0  0  0  0  0  0999 V2000
    3.1416    0.0782   -0.8628 C   0  0  0  0  0  0  0  0  0  0  0  0
    1.6358   -0.1766   -0.7328 C   0  0  0  0  0  0  0  0  0  0  0  0
    0.9974    0.9763   -1.0920 O   0  0  0  0  0  0  0  0  0  0  0  0
    1.3026   -0.6360    0.6613 C   0  0  0  0  0  0  0  0  0  0  0  0
   -0.0050   -0.8937    0.8389 O   0  0  0  0  0  0  0  0  0  0  0  0
   -0.9380    0.0626    0.6982 C   0  0  0  0  0  0  0  0  0  0  0  0
   -1.9880   -0.4006   -0.3310 C   0  0  0  0  0  0  0  0  0  0  0  0
   -2.9943    0.3529    0.5180 C   0  0  0  0  0  0  0  0  0  0  0  0
   -2.0812    0.0794    1.6986 C   0  0  0  0  0  0  0  0  0  0  0  0
    3.4640    0.0383   -1.9178 H   0  0  0  0  0  0  0  0  0  0  0  0
    3.6581   -0.7797   -0.3574 H   0  0  0  0  0  0  0  0  0  0  0  0
    3.4270    1.0551   -0.4374 H   0  0  0  0  0  0  0  0  0  0  0  0
    1.3912   -0.9612   -1.4791 H   0  0  0  0  0  0  0  0  0  0  0  0
    1.4843    1.7903   -0.7840 H   0  0  0  0  0  0  0  0  0  0  0  0
    1.8494   -1.6212    0.7781 H   0  0  0  0  0  0  0  0  0  0  0  0
    1.7721    0.0403    1.4016 H   0  0  0  0  0  0  0  0  0  0  0  0
   -0.6797    1.0931    0.4488 H   0  0  0  0  0  0  0  0  0  0  0  0
   -1.8209    0.0298   -1.3371 H   0  0  0  0  0  0  0  0  0  0  0  0
   -2.2011   -1.4831   -0.2887 H   0  0  0  0  0  0  0  0  0  0  0  0
   -3.9885   -0.1357    0.5885 H   0  0  0  0  0  0  0  0  0  0  0  0
   -3.0289    1.4270    0.2011 H   0  0  0  0  0  0  0  0  0  0  0  0
   -2.3403   -0.8888    2.1387 H   0  0  0  0  0  0  0  0  0  0  0  0
   -2.0573    0.9532    2.3823 H   0  0  0  0  0  0  0  0  0  0  0  0
  1  2  1  0
  2  3  1  0
  2  4  1  0
  4  5  1  0
  5  6  1  0
  6  7  1  0
  7  8  1  0
  8  9  1  0
  9  6  1  0
  1 10  1  0
  1 11  1  0
  1 12  1  0
  2 13  1  0
  3 14  1  0
  4 15  1  0
  4 16  1  0
  6 17  1  0
  7 18  1  0
  7 19  1  0
  8 20  1  0
  8 21  1  0
  9 22  1  0
  9 23  1  0
M  END
