
     RDKit          3D

 19 19  0  0  0  0  0  0  0  0999 V2000
   -1.7937   -0.8664    0.2498 C   0  0  0  0  0  0  0  0  0  0  0  0
   -0.6908   -0.2985   -0.6229 C   0  0  0  0  0  0  0  0  0  0  0  0
   -1.2146    0.6796   -1.4613 O   0  0  0  0  0  0  0  0  0  0  0  0
    0.3230    0.3354    0.2915 C   0  0  0  0  0  0  0  0  0  0  0  0
   -0.2260    1.5412    0.9521 C   0  0  0  0  0  0  0  0  0  0  0  0
   -0.1601    1.7356    2.1496 O   0  0  0  0  0  0  0  0  0  0  0  0
    1.6877    0.5593   -0.3216 C   0  0  0  0  0  0  0  0  0  0  0  0
    1.8626   -0.8265    0.2107 C   0  0  0  0  0  0  0  0  0  0  0  0
    0.9185   -0.5464    1.1803 O   0  0  0  0  0  0  0  0  0  0  0  0
   -1.8668   -0.3340    1.2209 H   0  0  0  0  0  0  0  0  0  0  0  0
   -1.5809   -1.9526    0.4601 H   0  0  0  0  0  0  0  0  0  0  0  0
   -2.7785   -0.7622   -0.2865 H   0  0  0  0  0  0  0  0  0  0  0  0
   -0.2692   -1.1004   -1.2541 H   0  0  0  0  0  0  0  0  0  0  0  0
   -1.8319    0.2058   -2.1028 H   0  0  0  0  0  0  0  0  0  0  0  0
   -0.7181    2.3086    0.3642 H   0  0  0  0  0  0  0  0  0  0  0  0
    1.6277    0.6736   -1.4079 H   0  0  0  0  0  0  0  0  0  0  0  0
    2.2833    1.2911    0.2391 H   0  0  0  0  0  0  0  0  0  0  0  0
    1.5355   -1.6505   -0.4292 H   0  0  0  0  0  0  0  0  0  0  0  0
    2.8923   -0.9926    0.5680 H   0  0  0  0  0  0  0  0  0  0  0  0
  1  2  1  0
  2  3  1  0
  2  4  1  0
  4  5  1  0
  5  6  2  0
  4  7  1  0
  7  8  1  0
  8  9  1  0
  9  4  1  0
  1 10  1  0
  1 11  1  0
  1 12  1  0
  2 13  1  0
  3 14  1  0
  5 15  1  0
  7 16  1  0
  7 17  1  0
  8 18  1  0
  8 19  1  0
M  END
