
     RDKit          3D

 19 20  0  0  0  0  0  0  0  0999 V2000
   -2.3562   -0.2249   -0.5551 C   0  0  0  0  0  0  0  0  0  0  0  0
   -1.3762    0.6224    0.1971 C   0  0  0  0  0  0  0  0  0  0  0  0
   -1.6504    0.5606    1.5627 O   0  0  0  0  0  0  0  0  0  0  0  0
    0.0439    0.2204   -0.0888 C   0  0  0  0  0  0  0  0  0  0  0  0
    0.4695   -0.7378   -0.8864 C   0  0  0  0  0  0  0  0  0  0  0  0
    1.9227   -0.8826   -0.9516 C   0  0  0  0  0  0  0  0  0  0  0  0
    2.7731    0.1667   -1.2225 O   0  0  0  0  0  0  0  0  0  0  0  0
    2.3868    0.0633    0.1197 C   0  0  0  0  0  0  0  0  0  0  0  0
    1.2185    0.8831    0.5149 C   0  0  0  0  0  0  0  0  0  0  0  0
   -2.3404    0.1048   -1.6172 H   0  0  0  0  0  0  0  0  0  0  0  0
   -2.0518   -1.2768   -0.4563 H   0  0  0  0  0  0  0  0  0  0  0  0
   -3.3635   -0.0226   -0.1331 H   0  0  0  0  0  0  0  0  0  0  0  0
   -1.5025    1.6694   -0.1471 H   0  0  0  0  0  0  0  0  0  0  0  0
   -1.8015   -0.4181    1.7651 H   0  0  0  0  0  0  0  0  0  0  0  0
   -0.2264   -1.3753   -1.4560 H   0  0  0  0  0  0  0  0  0  0  0  0
    2.3463   -1.9308   -0.9502 H   0  0  0  0  0  0  0  0  0  0  0  0
    3.1272   -0.2917    0.8631 H   0  0  0  0  0  0  0  0  0  0  0  0
    1.3166    1.9494    0.1462 H   0  0  0  0  0  0  0  0  0  0  0  0
    1.0641    0.9205    1.6306 H   0  0  0  0  0  0  0  0  0  0  0  0
  1  2  1  0
  2  3  1  0
  2  4  1  0
  4  5  2  0
  5  6  1  0
  6  7  1  0
  7  8  1  0
  8  9  1  0
  9  4  1  0
  8  6  1  0
  1 10  1  0
  1 11  1  0
  1 12  1  0
  2 13  1  0
  3 14  1  0
  5 15  1  0
  6 16  1  0
  8 17  1  0
  9 18  1  0
  9 19  1  0
M  END
