
     RDKit          3D

 21 20  0  0  0  0  0  0  0  0999 V2000
    2.5159    0.1465   -0.1998 C   0  0  0  0  0  0  0  0  0  0  0  0
    1.1134    0.4109   -0.7122 C   0  0  0  0  0  0  0  0  0  0  0  0
    0.9111   -0.4229   -1.8089 O   0  0  0  0  0  0  0  0  0  0  0  0
    0.1581    0.1471    0.4002 C   0  0  0  0  0  0  0  0  0  0  0  0
    0.4396    1.0252    1.4436 O   0  0  0  0  0  0  0  0  0  0  0  0
   -1.2880    0.2030   -0.0120 C   0  0  0  0  0  0  0  0  0  0  0  0
   -1.6569   -0.7803   -1.0637 C   0  0  0  0  0  0  0  0  0  0  0  0
   -2.1567   -0.0394    1.1741 C   0  0  0  0  0  0  0  0  0  0  0  0
   -2.6660    0.8318    1.8379 O   0  0  0  0  0  0  0  0  0  0  0  0
    3.0018    1.0975    0.1353 H   0  0  0  0  0  0  0  0  0  0  0  0
    2.4680   -0.5292    0.6609 H   0  0  0  0  0  0  0  0  0  0  0  0
    3.1461   -0.3123   -0.9967 H   0  0  0  0  0  0  0  0  0  0  0  0
    1.1102    1.4710   -1.0552 H   0  0  0  0  0  0  0  0  0  0  0  0
    1.2486   -1.3395   -1.6565 H   0  0  0  0  0  0  0  0  0  0  0  0
    0.3527   -0.8736    0.7858 H   0  0  0  0  0  0  0  0  0  0  0  0
    0.5668    1.9444    1.1025 H   0  0  0  0  0  0  0  0  0  0  0  0
   -1.4763    1.2405   -0.3870 H   0  0  0  0  0  0  0  0  0  0  0  0
   -2.7721   -0.9454   -0.9856 H   0  0  0  0  0  0  0  0  0  0  0  0
   -1.1980   -1.7733   -0.8869 H   0  0  0  0  0  0  0  0  0  0  0  0
   -1.4851   -0.4284   -2.0980 H   0  0  0  0  0  0  0  0  0  0  0  0
   -2.3331   -1.0736    1.4459 H   0  0  0  0  0  0  0  0  0  0  0  0
  1  2  1  0
  2  3  1  0
  2  4  1  0
  4  5  1  0
  4  6  1  0
  6  7  1  0
  6  8  1  0
  8  9  2  0
  1 10  1  0
  1 11  1  0
  1 12  1  0
  2 13  1  0
  3 14  1  0
  4 15  1  0
  5 16  1  0
  6 17  1  0
  7 18  1  0
  7 19  1  0
  7 20  1  0
  8 21  1  0
M  END
