
     RDKit          3D

 19 19  0  0  0  0  0  0  0  0999 V2000
    0.7084    1.7626    0.1621 C   0  0  0  0  0  0  0  0  0  0  0  0
    0.6012    0.2734   -0.0386 C   0  0  0  0  0  0  0  0  0  0  0  0
    1.5660   -0.4415    0.6977 O   0  0  0  0  0  0  0  0  0  0  0  0
    2.4568   -1.3421    0.1501 C   0  0  0  0  0  0  0  0  0  0  0  0
    2.4038   -1.5372   -1.0858 O   0  0  0  0  0  0  0  0  0  0  0  0
   -0.7590   -0.1525    0.4804 C   0  0  0  0  0  0  0  0  0  0  0  0
   -1.9172    0.5321   -0.2500 C   0  0  0  0  0  0  0  0  0  0  0  0
   -2.5914   -0.6995   -0.1658 O   0  0  0  0  0  0  0  0  0  0  0  0
   -1.3598   -1.3510   -0.1820 C   0  0  0  0  0  0  0  0  0  0  0  0
    0.7699    2.2346   -0.8356 H   0  0  0  0  0  0  0  0  0  0  0  0
   -0.1998    2.1965    0.6511 H   0  0  0  0  0  0  0  0  0  0  0  0
    1.5625    2.0367    0.8262 H   0  0  0  0  0  0  0  0  0  0  0  0
    0.6922   -0.0177   -1.1105 H   0  0  0  0  0  0  0  0  0  0  0  0
    3.1520   -1.8308    0.8159 H   0  0  0  0  0  0  0  0  0  0  0  0
   -0.8386   -0.1114    1.5768 H   0  0  0  0  0  0  0  0  0  0  0  0
   -2.3595    1.3461    0.3204 H   0  0  0  0  0  0  0  0  0  0  0  0
   -1.6545    0.8378   -1.2776 H   0  0  0  0  0  0  0  0  0  0  0  0
   -1.3048   -2.2523    0.4675 H   0  0  0  0  0  0  0  0  0  0  0  0
   -0.9282   -1.4841   -1.2023 H   0  0  0  0  0  0  0  0  0  0  0  0
  1  2  1  0
  2  3  1  0
  3  4  1  0
  4  5  2  0
  2  6  1  0
  6  7  1  0
  7  8  1  0
  8  9  1  0
  9  6  1  0
  1 10  1  0
  1 11  1  0
  1 12  1  0
  2 13  1  0
  4 14  1  0
  6 15  1  0
  7 16  1  0
  7 17  1  0
  9 18  1  0
  9 19  1  0
M  END
