
     RDKit          3D

 23 23  0  0  0  0  0  0  0  0999 V2000
   -3.1858   -0.5274    0.6106 C   0  0  0  0  0  0  0  0  0  0  0  0
   -2.0192    0.4224    0.4647 C   0  0  0  0  0  0  0  0  0  0  0  0
   -2.3613    1.3402   -0.5500 O   0  0  0  0  0  0  0  0  0  0  0  0
   -0.8505   -0.3721   -0.0509 C   0  0  0  0  0  0  0  0  0  0  0  0
    0.3916    0.4742   -0.2413 C   0  0  0  0  0  0  0  0  0  0  0  0
    1.4793   -0.4233   -0.7545 C   0  0  0  0  0  0  0  0  0  0  0  0
    2.8343    0.0958   -1.0476 C   0  0  0  0  0  0  0  0  0  0  0  0
    2.6224   -0.6481    0.2154 C   0  0  0  0  0  0  0  0  0  0  0  0
    2.6373    0.0660    1.4017 O   0  0  0  0  0  0  0  0  0  0  0  0
   -4.0796   -0.0102    1.0048 H   0  0  0  0  0  0  0  0  0  0  0  0
   -2.8922   -1.3879    1.2733 H   0  0  0  0  0  0  0  0  0  0  0  0
   -3.4165   -0.9444   -0.3791 H   0  0  0  0  0  0  0  0  0  0  0  0
   -1.7686    0.9255    1.4090 H   0  0  0  0  0  0  0  0  0  0  0  0
   -2.1612    2.2772   -0.2720 H   0  0  0  0  0  0  0  0  0  0  0  0
   -1.1553   -0.8633   -0.9906 H   0  0  0  0  0  0  0  0  0  0  0  0
   -0.6604   -1.1896    0.6837 H   0  0  0  0  0  0  0  0  0  0  0  0
    0.1214    1.2726   -0.9631 H   0  0  0  0  0  0  0  0  0  0  0  0
    0.6393    0.9152    0.7424 H   0  0  0  0  0  0  0  0  0  0  0  0
    1.1259   -1.2601   -1.3798 H   0  0  0  0  0  0  0  0  0  0  0  0
    3.4070   -0.3961   -1.8615 H   0  0  0  0  0  0  0  0  0  0  0  0
    3.0894    1.1711   -0.9453 H   0  0  0  0  0  0  0  0  0  0  0  0
    2.8965   -1.7222    0.3046 H   0  0  0  0  0  0  0  0  0  0  0  0
    3.3066    0.7845    1.3255 H   0  0  0  0  0  0  0  0  0  0  0  0
  1  2  1  0
  2  3  1  0
  2  4  1  0
  4  5  1  0
  5  6  1  0
  6  7  1  0
  7  8  1  0
  8  9  1  0
  8  6  1  0
  1 10  1  0
  1 11  1  0
  1 12  1  0
  2 13  1  0
  3 14  1  0
  4 15  1  0
  4 16  1  0
  5 17  1  0
  5 18  1  0
  6 19  1  0
  7 20  1  0
  7 21  1  0
  8 22  1  0
  9 23  1  0
M  END
