
     RDKit          3D

 21 21  0  0  0  0  0  0  0  0999 V2000
   -2.5054   -0.4435   -0.3047 C   0  0  0  0  0  0  0  0  0  0  0  0
   -1.4114    0.5719   -0.0653 C   0  0  0  0  0  0  0  0  0  0  0  0
   -1.7549    1.5201    0.8787 O   0  0  0  0  0  0  0  0  0  0  0  0
   -0.1491   -0.1477    0.3273 C   0  0  0  0  0  0  0  0  0  0  0  0
    0.3393   -1.0863   -0.6869 C   0  0  0  0  0  0  0  0  0  0  0  0
    1.6523   -1.1236   -0.6786 C   0  0  0  0  0  0  0  0  0  0  0  0
    2.1763   -0.2024    0.3525 C   0  0  0  0  0  0  0  0  0  0  0  0
    3.2771    0.4604   -0.1858 O   0  0  0  0  0  0  0  0  0  0  0  0
    1.0066    0.7752    0.5619 C   0  0  0  0  0  0  0  0  0  0  0  0
   -3.0478   -0.2450   -1.2643 H   0  0  0  0  0  0  0  0  0  0  0  0
   -3.2083   -0.5073    0.5522 H   0  0  0  0  0  0  0  0  0  0  0  0
   -2.0403   -1.4445   -0.3970 H   0  0  0  0  0  0  0  0  0  0  0  0
   -1.2123    1.0550   -1.0494 H   0  0  0  0  0  0  0  0  0  0  0  0
   -2.7254    1.7190    0.9076 H   0  0  0  0  0  0  0  0  0  0  0  0
   -0.3404   -0.7690    1.2534 H   0  0  0  0  0  0  0  0  0  0  0  0
   -0.2815   -1.7030   -1.3890 H   0  0  0  0  0  0  0  0  0  0  0  0
    2.3258   -1.7202   -1.3084 H   0  0  0  0  0  0  0  0  0  0  0  0
    2.3985   -0.7323    1.2862 H   0  0  0  0  0  0  0  0  0  0  0  0
    3.4731    1.3115    0.2565 H   0  0  0  0  0  0  0  0  0  0  0  0
    0.9964    1.5597   -0.1995 H   0  0  0  0  0  0  0  0  0  0  0  0
    1.0313    1.1520    1.6007 H   0  0  0  0  0  0  0  0  0  0  0  0
  1  2  1  0
  2  3  1  0
  2  4  1  0
  4  5  1  0
  5  6  2  0
  6  7  1  0
  7  8  1  0
  7  9  1  0
  9  4  1  0
  1 10  1  0
  1 11  1  0
  1 12  1  0
  2 13  1  0
  3 14  1  0
  4 15  1  0
  5 16  1  0
  6 17  1  0
  7 18  1  0
  8 19  1  0
  9 20  1  0
  9 21  1  0
M  END
