
     RDKit          3D

 21 22  0  0  0  0  0  0  0  0999 V2000
    2.5068    0.3596    0.6135 C   0  0  0  0  0  0  0  0  0  0  0  0
    1.4838   -0.3794   -0.2160 C   0  0  0  0  0  0  0  0  0  0  0  0
    1.5640    0.0873   -1.5192 O   0  0  0  0  0  0  0  0  0  0  0  0
    0.0858   -0.1922    0.2676 C   0  0  0  0  0  0  0  0  0  0  0  0
   -0.8973   -0.9307   -0.5678 C   0  0  0  0  0  0  0  0  0  0  0  0
   -2.2764   -0.6351    0.0177 C   0  0  0  0  0  0  0  0  0  0  0  0
   -2.0453    0.8676    0.2712 C   0  0  0  0  0  0  0  0  0  0  0  0
   -0.6773    0.9528   -0.3685 C   0  0  0  0  0  0  0  0  0  0  0  0
   -0.7918    0.1308   -1.4977 O   0  0  0  0  0  0  0  0  0  0  0  0
    2.5713   -0.0326    1.6508 H   0  0  0  0  0  0  0  0  0  0  0  0
    3.4997    0.1544    0.1433 H   0  0  0  0  0  0  0  0  0  0  0  0
    2.3748    1.4540    0.5748 H   0  0  0  0  0  0  0  0  0  0  0  0
    1.7452   -1.4562   -0.1668 H   0  0  0  0  0  0  0  0  0  0  0  0
    2.0294   -0.5483   -2.1225 H   0  0  0  0  0  0  0  0  0  0  0  0
   -0.0820   -0.3116    1.3528 H   0  0  0  0  0  0  0  0  0  0  0  0
   -0.7015   -1.9138   -0.9187 H   0  0  0  0  0  0  0  0  0  0  0  0
   -2.4661   -1.1789    0.9423 H   0  0  0  0  0  0  0  0  0  0  0  0
   -3.0054   -0.7996   -0.7862 H   0  0  0  0  0  0  0  0  0  0  0  0
   -2.7993    1.4859   -0.1983 H   0  0  0  0  0  0  0  0  0  0  0  0
   -1.9145    0.9892    1.3506 H   0  0  0  0  0  0  0  0  0  0  0  0
   -0.2039    1.8968   -0.4662 H   0  0  0  0  0  0  0  0  0  0  0  0
  1  2  1  0
  2  3  1  0
  2  4  1  0
  4  5  1  0
  5  6  1  0
  6  7  1  0
  7  8  1  0
  8  9  1  0
  8  4  1  0
  9  5  1  0
  1 10  1  0
  1 11  1  0
  1 12  1  0
  2 13  1  0
  3 14  1  0
  4 15  1  0
  5 16  1  0
  6 17  1  0
  6 18  1  0
  7 19  1  0
  7 20  1  0
  8 21  1  0
M  END
