
     RDKit          3D

 17 18  0  0  0  0  0  0  0  0999 V2000
   -1.7128   -1.0539    0.6473 C   0  0  0  0  0  0  0  0  0  0  0  0
   -0.4767   -0.6376   -0.1638 C   0  0  0  0  0  0  0  0  0  0  0  0
   -0.9793   -0.3547   -1.4531 O   0  0  0  0  0  0  0  0  0  0  0  0
    0.0876    0.6104    0.4762 C   0  0  0  0  0  0  0  0  0  0  0  0
    0.5524    1.5809   -0.4741 C   0  0  0  0  0  0  0  0  0  0  0  0
    1.6009    0.9193    0.2673 C   0  0  0  0  0  0  0  0  0  0  0  0
    1.5524   -0.3485    1.0378 C   0  0  0  0  0  0  0  0  0  0  0  0
    2.1565   -1.4211    0.9416 O   0  0  0  0  0  0  0  0  0  0  0  0
    0.5903    0.3440    1.7655 O   0  0  0  0  0  0  0  0  0  0  0  0
   -2.5175   -0.3300    0.3563 H   0  0  0  0  0  0  0  0  0  0  0  0
   -1.9996   -2.0713    0.3911 H   0  0  0  0  0  0  0  0  0  0  0  0
   -1.5491   -0.8937    1.7285 H   0  0  0  0  0  0  0  0  0  0  0  0
    0.1684   -1.5047   -0.1885 H   0  0  0  0  0  0  0  0  0  0  0  0
   -0.3031   -0.5294   -2.1498 H   0  0  0  0  0  0  0  0  0  0  0  0
    0.5510    1.3798   -1.5764 H   0  0  0  0  0  0  0  0  0  0  0  0
    0.2142    2.6459   -0.2987 H   0  0  0  0  0  0  0  0  0  0  0  0
    2.0644    1.6647    0.9954 H   0  0  0  0  0  0  0  0  0  0  0  0
  1  2  1  0
  2  3  1  0
  2  4  1  0
  4  5  1  0
  5  6  1  0
  6  7  1  0
  7  8  2  0
  7  9  1  0
  6  4  1  0
  9  4  1  0
  1 10  1  0
  1 11  1  0
  1 12  1  0
  2 13  1  0
  3 14  1  0
  5 15  1  0
  5 16  1  0
  6 17  1  0
M  END
