
     RDKit          3D

 21 21  0  0  0  0  0  0  0  0999 V2000
   -2.4562    0.3759    0.4743 C   0  0  0  0  0  0  0  0  0  0  0  0
   -1.1960   -0.2860    0.9961 C   0  0  0  0  0  0  0  0  0  0  0  0
   -1.1383   -1.5580    0.4421 O   0  0  0  0  0  0  0  0  0  0  0  0
   -0.0046    0.5600    0.6815 C   0  0  0  0  0  0  0  0  0  0  0  0
    0.2026    0.7973   -0.8450 C   0  0  0  0  0  0  0  0  0  0  0  0
    1.2135    0.1206    0.0250 C   0  0  0  0  0  0  0  0  0  0  0  0
    1.5346   -1.3102   -0.3202 C   0  0  0  0  0  0  0  0  0  0  0  0
    2.4590    0.9200    0.3169 C   0  0  0  0  0  0  0  0  0  0  0  0
    3.5076    0.3606    0.5783 O   0  0  0  0  0  0  0  0  0  0  0  0
   -3.1761    0.6055    1.2780 H   0  0  0  0  0  0  0  0  0  0  0  0
   -2.1733    1.3477   -0.0215 H   0  0  0  0  0  0  0  0  0  0  0  0
   -2.9594   -0.2399   -0.2975 H   0  0  0  0  0  0  0  0  0  0  0  0
   -1.2297   -0.4260    2.0993 H   0  0  0  0  0  0  0  0  0  0  0  0
   -2.0036   -1.8156    0.0420 H   0  0  0  0  0  0  0  0  0  0  0  0
    0.0563    1.4839    1.3300 H   0  0  0  0  0  0  0  0  0  0  0  0
   -0.3698    0.1592   -1.5287 H   0  0  0  0  0  0  0  0  0  0  0  0
    0.2847    1.8575   -1.1159 H   0  0  0  0  0  0  0  0  0  0  0  0
    2.4455   -1.2729   -0.9787 H   0  0  0  0  0  0  0  0  0  0  0  0
    1.8632   -1.8551    0.6021 H   0  0  0  0  0  0  0  0  0  0  0  0
    0.7574   -1.8193   -0.8843 H   0  0  0  0  0  0  0  0  0  0  0  0
    2.3826    1.9948    0.2839 H   0  0  0  0  0  0  0  0  0  0  0  0
  1  2  1  0
  2  3  1  0
  2  4  1  0
  4  5  1  0
  5  6  1  0
  6  7  1  0
  6  8  1  0
  8  9  2  0
  6  4  1  0
  1 10  1  0
  1 11  1  0
  1 12  1  0
  2 13  1  0
  3 14  1  0
  4 15  1  0
  5 16  1  0
  5 17  1  0
  7 18  1  0
  7 19  1  0
  7 20  1  0
  8 21  1  0
M  END
