
     RDKit          3D

 25 25  0  0  0  0  0  0  0  0999 V2000
    2.6169    0.9401   -0.1937 C   0  0  0  0  0  0  0  0  0  0  0  0
    1.8212   -0.0819    0.5831 C   0  0  0  0  0  0  0  0  0  0  0  0
    2.5825   -1.2465    0.6670 O   0  0  0  0  0  0  0  0  0  0  0  0
    0.4766   -0.3398   -0.0764 C   0  0  0  0  0  0  0  0  0  0  0  0
   -0.3034   -1.3668    0.7189 C   0  0  0  0  0  0  0  0  0  0  0  0
   -1.4490   -0.3934    0.9020 C   0  0  0  0  0  0  0  0  0  0  0  0
   -2.6432   -0.8260    0.1123 C   0  0  0  0  0  0  0  0  0  0  0  0
   -0.5860    0.6697    0.2790 C   0  0  0  0  0  0  0  0  0  0  0  0
   -1.1814    1.4326   -0.8516 C   0  0  0  0  0  0  0  0  0  0  0  0
    2.3625    0.7890   -1.2782 H   0  0  0  0  0  0  0  0  0  0  0  0
    3.7007    0.8010   -0.1073 H   0  0  0  0  0  0  0  0  0  0  0  0
    2.3452    1.9679    0.1150 H   0  0  0  0  0  0  0  0  0  0  0  0
    1.6539    0.3068    1.6270 H   0  0  0  0  0  0  0  0  0  0  0  0
    3.2288   -1.3358   -0.0750 H   0  0  0  0  0  0  0  0  0  0  0  0
    0.5961   -0.5652   -1.1411 H   0  0  0  0  0  0  0  0  0  0  0  0
    0.1266   -1.6384    1.6861 H   0  0  0  0  0  0  0  0  0  0  0  0
   -0.5241   -2.2513    0.1174 H   0  0  0  0  0  0  0  0  0  0  0  0
   -1.7277   -0.1957    1.9488 H   0  0  0  0  0  0  0  0  0  0  0  0
   -3.6095   -0.5455    0.6208 H   0  0  0  0  0  0  0  0  0  0  0  0
   -2.6315   -0.4910   -0.9441 H   0  0  0  0  0  0  0  0  0  0  0  0
   -2.6538   -1.9516    0.1141 H   0  0  0  0  0  0  0  0  0  0  0  0
   -0.1983    1.3544    1.0784 H   0  0  0  0  0  0  0  0  0  0  0  0
   -0.9662    0.9973   -1.8561 H   0  0  0  0  0  0  0  0  0  0  0  0
   -0.7416    2.4513   -0.8686 H   0  0  0  0  0  0  0  0  0  0  0  0
   -2.2953    1.5188   -0.7320 H   0  0  0  0  0  0  0  0  0  0  0  0
  1  2  1  0
  2  3  1  0
  2  4  1  0
  4  5  1  0
  5  6  1  0
  6  7  1  0
  6  8  1  0
  8  9  1  0
  8  4  1  0
  1 10  1  0
  1 11  1  0
  1 12  1  0
  2 13  1  0
  3 14  1  0
  4 15  1  0
  5 16  1  0
  5 17  1  0
  6 18  1  0
  7 19  1  0
  7 20  1  0
  7 21  1  0
  8 22  1  0
  9 23  1  0
  9 24  1  0
  9 25  1  0
M  END
