
     RDKit          3D

 23 23  0  0  0  0  0  0  0  0999 V2000
    2.5950    0.1247   -0.2810 C   0  0  0  0  0  0  0  0  0  0  0  0
    1.2419   -0.5644   -0.2253 C   0  0  0  0  0  0  0  0  0  0  0  0
    0.9864   -1.0486   -1.5021 O   0  0  0  0  0  0  0  0  0  0  0  0
    0.1621    0.4113    0.2188 C   0  0  0  0  0  0  0  0  0  0  0  0
    0.4638    0.9567    1.5765 C   0  0  0  0  0  0  0  0  0  0  0  0
   -1.1830   -0.2137    0.0929 C   0  0  0  0  0  0  0  0  0  0  0  0
   -1.3848   -1.3733    0.8467 O   0  0  0  0  0  0  0  0  0  0  0  0
   -1.8425   -0.2071   -1.3041 C   0  0  0  0  0  0  0  0  0  0  0  0
   -2.4026    0.5829   -0.1774 C   0  0  0  0  0  0  0  0  0  0  0  0
    2.4885    1.1042   -0.8269 H   0  0  0  0  0  0  0  0  0  0  0  0
    3.2873   -0.4782   -0.9039 H   0  0  0  0  0  0  0  0  0  0  0  0
    3.0125    0.2795    0.7350 H   0  0  0  0  0  0  0  0  0  0  0  0
    1.3156   -1.4196    0.4653 H   0  0  0  0  0  0  0  0  0  0  0  0
    0.4452   -1.8551   -1.4432 H   0  0  0  0  0  0  0  0  0  0  0  0
    0.2275    1.2704   -0.5042 H   0  0  0  0  0  0  0  0  0  0  0  0
   -0.4638    1.4452    1.9734 H   0  0  0  0  0  0  0  0  0  0  0  0
    1.2153    1.7820    1.5054 H   0  0  0  0  0  0  0  0  0  0  0  0
    0.8766    0.2132    2.2823 H   0  0  0  0  0  0  0  0  0  0  0  0
   -1.7333   -2.1027    0.2745 H   0  0  0  0  0  0  0  0  0  0  0  0
   -2.3702   -1.1280   -1.6188 H   0  0  0  0  0  0  0  0  0  0  0  0
   -1.2621    0.2929   -2.1071 H   0  0  0  0  0  0  0  0  0  0  0  0
   -2.2995    1.6911   -0.1409 H   0  0  0  0  0  0  0  0  0  0  0  0
   -3.3761    0.2365    0.2300 H   0  0  0  0  0  0  0  0  0  0  0  0
  1  2  1  0
  2  3  1  0
  2  4  1  0
  4  5  1  0
  4  6  1  0
  6  7  1  0
  6  8  1  0
  8  9  1  0
  9  6  1  0
  1 10  1  0
  1 11  1  0
  1 12  1  0
  2 13  1  0
  3 14  1  0
  4 15  1  0
  5 16  1  0
  5 17  1  0
  5 18  1  0
  7 19  1  0
  8 20  1  0
  8 21  1  0
  9 22  1  0
  9 23  1  0
M  END
