
     RDKit          3D

 19 19  0  0  0  0  0  0  0  0999 V2000
    3.0148   -0.6799   -0.6028 C   0  0  0  0  0  0  0  0  0  0  0  0
    2.4335    0.1361    0.5064 C   0  0  0  0  0  0  0  0  0  0  0  0
    3.0581    1.3793    0.5889 O   0  0  0  0  0  0  0  0  0  0  0  0
    0.9860    0.2791    0.2280 C   0  0  0  0  0  0  0  0  0  0  0  0
   -0.1832    0.3939   -0.0178 C   0  0  0  0  0  0  0  0  0  0  0  0
   -1.6197    0.5322   -0.3460 C   0  0  0  0  0  0  0  0  0  0  0  0
   -2.3417   -0.7760   -0.1860 C   0  0  0  0  0  0  0  0  0  0  0  0
   -3.3739    0.1408    0.4153 C   0  0  0  0  0  0  0  0  0  0  0  0
   -2.3761    1.0407    0.7140 O   0  0  0  0  0  0  0  0  0  0  0  0
    4.1178   -0.7864   -0.3813 H   0  0  0  0  0  0  0  0  0  0  0  0
    2.6211   -1.7214   -0.5437 H   0  0  0  0  0  0  0  0  0  0  0  0
    2.9336   -0.2349   -1.5950 H   0  0  0  0  0  0  0  0  0  0  0  0
    2.6079   -0.4109    1.4555 H   0  0  0  0  0  0  0  0  0  0  0  0
    2.3420    2.0531    0.6779 H   0  0  0  0  0  0  0  0  0  0  0  0
   -1.7464    1.0513   -1.3095 H   0  0  0  0  0  0  0  0  0  0  0  0
   -2.6940   -1.2563   -1.1196 H   0  0  0  0  0  0  0  0  0  0  0  0
   -1.8381   -1.4235    0.5408 H   0  0  0  0  0  0  0  0  0  0  0  0
   -4.0543    0.5423   -0.3562 H   0  0  0  0  0  0  0  0  0  0  0  0
   -3.8874   -0.2594    1.3311 H   0  0  0  0  0  0  0  0  0  0  0  0
  1  2  1  0
  2  3  1  0
  2  4  1  0
  4  5  3  0
  5  6  1  0
  6  7  1  0
  7  8  1  0
  8  9  1  0
  9  6  1  0
  1 10  1  0
  1 11  1  0
  1 12  1  0
  2 13  1  0
  3 14  1  0
  6 15  1  0
  7 16  1  0
  7 17  1  0
  8 18  1  0
  8 19  1  0
M  END
