
     RDKit          3D

 19 19  0  0  0  0  0  0  0  0999 V2000
    0.4157    1.8933   -0.6913 C   0  0  0  0  0  0  0  0  0  0  0  0
    0.4168    0.5542    0.0062 C   0  0  0  0  0  0  0  0  0  0  0  0
    1.1887   -0.3622   -0.7375 O   0  0  0  0  0  0  0  0  0  0  0  0
    2.3105   -0.9233   -0.1578 C   0  0  0  0  0  0  0  0  0  0  0  0
    2.6000   -0.5826    1.0378 O   0  0  0  0  0  0  0  0  0  0  0  0
   -0.9776    0.0154    0.2077 C   0  0  0  0  0  0  0  0  0  0  0  0
   -1.7945    0.8953    0.9479 O   0  0  0  0  0  0  0  0  0  0  0  0
   -1.5564   -1.0171   -0.6545 C   0  0  0  0  0  0  0  0  0  0  0  0
   -1.0168   -1.4243    0.6789 C   0  0  0  0  0  0  0  0  0  0  0  0
    1.2099    1.9000   -1.4682 H   0  0  0  0  0  0  0  0  0  0  0  0
   -0.5533    2.1083   -1.1852 H   0  0  0  0  0  0  0  0  0  0  0  0
    0.6254    2.7120    0.0165 H   0  0  0  0  0  0  0  0  0  0  0  0
    0.8539    0.6990    1.0150 H   0  0  0  0  0  0  0  0  0  0  0  0
    2.9615   -1.6281   -0.6383 H   0  0  0  0  0  0  0  0  0  0  0  0
   -1.2346    1.2342    1.7020 H   0  0  0  0  0  0  0  0  0  0  0  0
   -2.6599   -1.0400   -0.7998 H   0  0  0  0  0  0  0  0  0  0  0  0
   -0.9808   -1.3506   -1.5371 H   0  0  0  0  0  0  0  0  0  0  0  0
   -1.7337   -1.6850    1.5051 H   0  0  0  0  0  0  0  0  0  0  0  0
   -0.0748   -1.9985    0.7524 H   0  0  0  0  0  0  0  0  0  0  0  0
  1  2  1  0
  2  3  1  0
  3  4  1  0
  4  5  2  0
  2  6  1  0
  6  7  1  0
  6  8  1  0
  8  9  1  0
  9  6  1  0
  1 10  1  0
  1 11  1  0
  1 12  1  0
  2 13  1  0
  4 14  1  0
  7 15  1  0
  8 16  1  0
  8 17  1  0
  9 18  1  0
  9 19  1  0
M  END
