
     RDKit          3D

 21 22  0  0  0  0  0  0  0  0999 V2000
    2.1752   -0.3587   -0.0665 C   0  0  0  0  0  0  0  0  0  0  0  0
    1.0571   -0.1798    0.9606 C   0  0  0  0  0  0  0  0  0  0  0  0
    1.3503    0.8689    1.7832 O   0  0  0  0  0  0  0  0  0  0  0  0
   -0.2112    0.0007    0.2239 C   0  0  0  0  0  0  0  0  0  0  0  0
   -0.7154   -1.0585   -0.6999 C   0  0  0  0  0  0  0  0  0  0  0  0
   -2.1346   -0.5597   -0.9941 C   0  0  0  0  0  0  0  0  0  0  0  0
   -2.5172    0.1720    0.1119 O   0  0  0  0  0  0  0  0  0  0  0  0
   -1.3667    0.7531    0.6465 C   0  0  0  0  0  0  0  0  0  0  0  0
   -0.4564    1.4250   -0.2792 C   0  0  0  0  0  0  0  0  0  0  0  0
    3.0690    0.2462    0.2145 H   0  0  0  0  0  0  0  0  0  0  0  0
    2.3786   -1.4328   -0.1426 H   0  0  0  0  0  0  0  0  0  0  0  0
    1.8452    0.0433   -1.0577 H   0  0  0  0  0  0  0  0  0  0  0  0
    0.9721   -1.1002    1.5931 H   0  0  0  0  0  0  0  0  0  0  0  0
    2.1876    0.6855    2.2857 H   0  0  0  0  0  0  0  0  0  0  0  0
   -0.7579   -2.0649   -0.2513 H   0  0  0  0  0  0  0  0  0  0  0  0
   -0.1003   -1.0231   -1.6235 H   0  0  0  0  0  0  0  0  0  0  0  0
   -2.7518   -1.4467   -1.1762 H   0  0  0  0  0  0  0  0  0  0  0  0
   -2.0715    0.0316   -1.9257 H   0  0  0  0  0  0  0  0  0  0  0  0
   -1.5220    1.2178    1.6294 H   0  0  0  0  0  0  0  0  0  0  0  0
   -0.6423    1.5471   -1.3586 H   0  0  0  0  0  0  0  0  0  0  0  0
    0.2122    2.2330    0.1262 H   0  0  0  0  0  0  0  0  0  0  0  0
  1  2  1  0
  2  3  1  0
  2  4  1  0
  4  5  1  0
  5  6  1  0
  6  7  1  0
  7  8  1  0
  8  9  1  0
  8  4  1  0
  9  4  1  0
  1 10  1  0
  1 11  1  0
  1 12  1  0
  2 13  1  0
  3 14  1  0
  5 15  1  0
  5 16  1  0
  6 17  1  0
  6 18  1  0
  8 19  1  0
  9 20  1  0
  9 21  1  0
M  END
