
     RDKit          3D

 21 20  0  0  0  0  0  0  0  0999 V2000
    2.5877   -0.4404   -0.3083 C   0  0  0  0  0  0  0  0  0  0  0  0
    1.4312    0.4650    0.0598 C   0  0  0  0  0  0  0  0  0  0  0  0
    1.0943    0.3413    1.4041 O   0  0  0  0  0  0  0  0  0  0  0  0
    0.2592    0.2571   -0.8174 C   0  0  0  0  0  0  0  0  0  0  0  0
    0.4336    0.3417   -2.0209 O   0  0  0  0  0  0  0  0  0  0  0  0
   -1.0900   -0.0411   -0.3610 C   0  0  0  0  0  0  0  0  0  0  0  0
   -1.6184    1.1182    0.4945 C   0  0  0  0  0  0  0  0  0  0  0  0
   -1.2196   -1.2790    0.4801 C   0  0  0  0  0  0  0  0  0  0  0  0
   -1.9706   -0.1810   -1.4281 O   0  0  0  0  0  0  0  0  0  0  0  0
    3.5507    0.0786   -0.1320 H   0  0  0  0  0  0  0  0  0  0  0  0
    2.5314   -1.3380    0.3380 H   0  0  0  0  0  0  0  0  0  0  0  0
    2.4571   -0.6954   -1.3917 H   0  0  0  0  0  0  0  0  0  0  0  0
    1.8094    1.5093   -0.0838 H   0  0  0  0  0  0  0  0  0  0  0  0
    1.7801    0.7898    1.9413 H   0  0  0  0  0  0  0  0  0  0  0  0
   -2.4840    1.5986    0.0326 H   0  0  0  0  0  0  0  0  0  0  0  0
   -0.8370    1.8980    0.6109 H   0  0  0  0  0  0  0  0  0  0  0  0
   -1.9022    0.8000    1.5037 H   0  0  0  0  0  0  0  0  0  0  0  0
   -2.3114   -1.5251    0.5221 H   0  0  0  0  0  0  0  0  0  0  0  0
   -0.9215   -1.0856    1.5336 H   0  0  0  0  0  0  0  0  0  0  0  0
   -0.7265   -2.1598    0.0459 H   0  0  0  0  0  0  0  0  0  0  0  0
   -2.8535   -0.4521   -1.0856 H   0  0  0  0  0  0  0  0  0  0  0  0
  1  2  1  0
  2  3  1  0
  2  4  1  0
  4  5  2  0
  4  6  1  0
  6  7  1  0
  6  8  1  0
  6  9  1  0
  1 10  1  0
  1 11  1  0
  1 12  1  0
  2 13  1  0
  3 14  1  0
  7 15  1  0
  7 16  1  0
  7 17  1  0
  8 18  1  0
  8 19  1  0
  8 20  1  0
  9 21  1  0
M  END
