
     RDKit          3D

 16 16  0  0  0  0  0  0  0  0999 V2000
   -1.7440   -0.7072    0.1188 C   0  0  0  0  0  0  0  0  0  0  0  0
   -0.6659   -0.0115   -0.6704 C   0  0  0  0  0  0  0  0  0  0  0  0
   -1.2704    1.0401   -1.3651 O   0  0  0  0  0  0  0  0  0  0  0  0
    0.4227    0.5529    0.1671 C   0  0  0  0  0  0  0  0  0  0  0  0
    1.2663   -0.2955    1.0543 C   0  0  0  0  0  0  0  0  0  0  0  0
    1.8275    0.1642   -0.2629 C   0  0  0  0  0  0  0  0  0  0  0  0
   -2.2559   -1.4060   -0.5797 H   0  0  0  0  0  0  0  0  0  0  0  0
   -1.3441   -1.2790    0.9731 H   0  0  0  0  0  0  0  0  0  0  0  0
   -2.5037    0.0362    0.4278 H   0  0  0  0  0  0  0  0  0  0  0  0
   -0.2576   -0.7132   -1.4055 H   0  0  0  0  0  0  0  0  0  0  0  0
   -1.1940    1.8481   -0.8071 H   0  0  0  0  0  0  0  0  0  0  0  0
    0.3400    1.6232    0.5215 H   0  0  0  0  0  0  0  0  0  0  0  0
    1.6873    0.1293    1.9844 H   0  0  0  0  0  0  0  0  0  0  0  0
    1.0904   -1.3896    1.1040 H   0  0  0  0  0  0  0  0  0  0  0  0
    1.9697   -0.5305   -1.0914 H   0  0  0  0  0  0  0  0  0  0  0  0
    2.6317    0.9386   -0.1691 H   0  0  0  0  0  0  0  0  0  0  0  0
  1  2  1  0
  2  3  1  0
  2  4  1  0
  4  5  1  0
  5  6  1  0
  6  4  1  0
  1  7  1  0
  1  8  1  0
  1  9  1  0
  2 10  1  0
  3 11  1  0
  4 12  1  0
  5 13  1  0
  5 14  1  0
  6 15  1  0
  6 16  1  0
M  END
