
     RDKit          3D

 19 20  0  0  0  0  0  0  0  0999 V2000
   -1.7550    0.6822    0.9181 C   0  0  0  0  0  0  0  0  0  0  0  0
   -1.6421   -0.3282   -0.1869 C   0  0  0  0  0  0  0  0  0  0  0  0
   -2.1050    0.1582   -1.3840 O   0  0  0  0  0  0  0  0  0  0  0  0
   -0.2434   -0.8908   -0.3030 C   0  0  0  0  0  0  0  0  0  0  0  0
    0.2965   -1.3978    0.8455 O   0  0  0  0  0  0  0  0  0  0  0  0
    1.4045   -0.5855    0.8406 C   0  0  0  0  0  0  0  0  0  0  0  0
    2.2384   -0.4179   -0.3701 C   0  0  0  0  0  0  0  0  0  0  0  0
    3.3571    0.3644   -0.2883 O   0  0  0  0  0  0  0  0  0  0  0  0
    0.8612    0.1366   -0.3370 C   0  0  0  0  0  0  0  0  0  0  0  0
   -1.0976    0.3632    1.7613 H   0  0  0  0  0  0  0  0  0  0  0  0
   -2.8254    0.7189    1.2734 H   0  0  0  0  0  0  0  0  0  0  0  0
   -1.4912    1.7107    0.5568 H   0  0  0  0  0  0  0  0  0  0  0  0
   -2.3022   -1.1978    0.0949 H   0  0  0  0  0  0  0  0  0  0  0  0
   -3.0467   -0.1147   -1.5739 H   0  0  0  0  0  0  0  0  0  0  0  0
   -0.1467   -1.5893   -1.1452 H   0  0  0  0  0  0  0  0  0  0  0  0
    1.6306   -0.0982    1.7915 H   0  0  0  0  0  0  0  0  0  0  0  0
    2.3437   -1.3357   -1.0133 H   0  0  0  0  0  0  0  0  0  0  0  0
    3.8802    0.2525   -1.1443 H   0  0  0  0  0  0  0  0  0  0  0  0
    0.6434    1.2039   -0.3358 H   0  0  0  0  0  0  0  0  0  0  0  0
  1  2  1  0
  2  3  1  0
  2  4  1  0
  4  5  1  0
  5  6  1  0
  6  7  1  0
  7  8  1  0
  7  9  1  0
  9  4  1  0
  9  6  1  0
  1 10  1  0
  1 11  1  0
  1 12  1  0
  2 13  1  0
  3 14  1  0
  4 15  1  0
  6 16  1  0
  7 17  1  0
  8 18  1  0
  9 19  1  0
M  END
