
     RDKit          3D

 17 16  0  0  0  0  0  0  0  0999 V2000
   -2.1993    0.9257   -0.0131 C   0  0  0  0  0  0  0  0  0  0  0  0
   -1.0524    1.1111    0.9765 C   0  0  0  0  0  0  0  0  0  0  0  0
   -1.6420    1.4507    2.2128 O   0  0  0  0  0  0  0  0  0  0  0  0
   -0.3460   -0.1646    1.1778 C   0  0  0  0  0  0  0  0  0  0  0  0
   -0.4733   -0.7935    2.2377 O   0  0  0  0  0  0  0  0  0  0  0  0
    0.5005   -0.6572    0.0969 C   0  0  0  0  0  0  0  0  0  0  0  0
    1.1890   -1.0754   -0.7839 C   0  0  0  0  0  0  0  0  0  0  0  0
    2.0489   -1.5676   -1.8738 C   0  0  0  0  0  0  0  0  0  0  0  0
    3.3538   -1.6260   -1.4518 O   0  0  0  0  0  0  0  0  0  0  0  0
   -2.0052    1.4367   -0.9781 H   0  0  0  0  0  0  0  0  0  0  0  0
   -3.1236    1.3577    0.3740 H   0  0  0  0  0  0  0  0  0  0  0  0
   -2.2728   -0.1767   -0.2211 H   0  0  0  0  0  0  0  0  0  0  0  0
   -0.3806    1.9441    0.6344 H   0  0  0  0  0  0  0  0  0  0  0  0
   -1.1440    2.2453    2.6080 H   0  0  0  0  0  0  0  0  0  0  0  0
    1.7494   -2.6191   -2.1638 H   0  0  0  0  0  0  0  0  0  0  0  0
    1.8858   -0.9582   -2.7850 H   0  0  0  0  0  0  0  0  0  0  0  0
    3.9117   -0.8328   -1.7474 H   0  0  0  0  0  0  0  0  0  0  0  0
  1  2  1  0
  2  3  1  0
  2  4  1  0
  4  5  2  0
  4  6  1  0
  6  7  3  0
  7  8  1  0
  8  9  1  0
  1 10  1  0
  1 11  1  0
  1 12  1  0
  2 13  1  0
  3 14  1  0
  8 15  1  0
  8 16  1  0
  9 17  1  0
M  END
