
     RDKit          3D

 25 24  0  0  0  0  0  0  0  0999 V2000
    3.4423    0.9168   -0.0007 C   0  0  0  0  0  0  0  0  0  0  0  0
    2.0757    0.3155    0.3196 C   0  0  0  0  0  0  0  0  0  0  0  0
    2.3239   -0.8425    1.0557 O   0  0  0  0  0  0  0  0  0  0  0  0
    1.3846   -0.1319   -0.9612 C   0  0  0  0  0  0  0  0  0  0  0  0
    0.0441   -0.7266   -0.6865 C   0  0  0  0  0  0  0  0  0  0  0  0
   -0.9212    0.2157   -0.0060 C   0  0  0  0  0  0  0  0  0  0  0  0
   -2.2183   -0.5434    0.1934 C   0  0  0  0  0  0  0  0  0  0  0  0
   -3.2778    0.2753    0.8642 C   0  0  0  0  0  0  0  0  0  0  0  0
   -2.6879   -0.9176   -1.0553 O   0  0  0  0  0  0  0  0  0  0  0  0
    4.1351    0.0702   -0.2428 H   0  0  0  0  0  0  0  0  0  0  0  0
    3.7959    1.4587    0.8887 H   0  0  0  0  0  0  0  0  0  0  0  0
    3.3495    1.5284   -0.9030 H   0  0  0  0  0  0  0  0  0  0  0  0
    1.4697    0.9849    0.9309 H   0  0  0  0  0  0  0  0  0  0  0  0
    1.5277   -0.9904    1.6347 H   0  0  0  0  0  0  0  0  0  0  0  0
    1.3572    0.6800   -1.7119 H   0  0  0  0  0  0  0  0  0  0  0  0
    2.0223   -0.9345   -1.3852 H   0  0  0  0  0  0  0  0  0  0  0  0
    0.2003   -1.6299   -0.0574 H   0  0  0  0  0  0  0  0  0  0  0  0
   -0.3587   -1.1041   -1.6509 H   0  0  0  0  0  0  0  0  0  0  0  0
   -0.5203    0.5695    0.9526 H   0  0  0  0  0  0  0  0  0  0  0  0
   -1.1477    1.0944   -0.6415 H   0  0  0  0  0  0  0  0  0  0  0  0
   -2.0651   -1.4613    0.8014 H   0  0  0  0  0  0  0  0  0  0  0  0
   -3.8289    0.9009    0.1250 H   0  0  0  0  0  0  0  0  0  0  0  0
   -4.0275   -0.4381    1.2842 H   0  0  0  0  0  0  0  0  0  0  0  0
   -2.8973    0.8705    1.7205 H   0  0  0  0  0  0  0  0  0  0  0  0
   -3.1776   -0.1604   -1.4685 H   0  0  0  0  0  0  0  0  0  0  0  0
  1  2  1  0
  2  3  1  0
  2  4  1  0
  4  5  1  0
  5  6  1  0
  6  7  1  0
  7  8  1  0
  7  9  1  0
  1 10  1  0
  1 11  1  0
  1 12  1  0
  2 13  1  0
  3 14  1  0
  4 15  1  0
  4 16  1  0
  5 17  1  0
  5 18  1  0
  6 19  1  0
  6 20  1  0
  7 21  1  0
  8 22  1  0
  8 23  1  0
  8 24  1  0
  9 25  1  0
M  END
