
     RDKit          3D

 19 19  0  0  0  0  0  0  0  0999 V2000
   -1.9377    0.2393   -0.6067 C   0  0  0  0  0  0  0  0  0  0  0  0
   -1.5505   -0.8700    0.3402 C   0  0  0  0  0  0  0  0  0  0  0  0
   -2.5322   -1.1091    1.2982 O   0  0  0  0  0  0  0  0  0  0  0  0
   -0.2493   -0.4547    1.0111 C   0  0  0  0  0  0  0  0  0  0  0  0
    0.7917   -0.2629   -0.0339 C   0  0  0  0  0  0  0  0  0  0  0  0
    0.5078   -0.4442   -1.1911 O   0  0  0  0  0  0  0  0  0  0  0  0
    2.1398    0.1430    0.3758 C   0  0  0  0  0  0  0  0  0  0  0  0
    2.8237    1.0789   -0.6280 C   0  0  0  0  0  0  0  0  0  0  0  0
    3.2481   -0.2007   -0.3791 O   0  0  0  0  0  0  0  0  0  0  0  0
   -3.0325    0.4250   -0.4839 H   0  0  0  0  0  0  0  0  0  0  0  0
   -1.3940    1.1641   -0.3688 H   0  0  0  0  0  0  0  0  0  0  0  0
   -1.7519   -0.0748   -1.6531 H   0  0  0  0  0  0  0  0  0  0  0  0
   -1.4111   -1.7987   -0.2501 H   0  0  0  0  0  0  0  0  0  0  0  0
   -3.2422   -0.4425    1.3141 H   0  0  0  0  0  0  0  0  0  0  0  0
    0.0077   -1.2949    1.7000 H   0  0  0  0  0  0  0  0  0  0  0  0
   -0.3777    0.4356    1.6356 H   0  0  0  0  0  0  0  0  0  0  0  0
    2.3300    0.2898    1.4330 H   0  0  0  0  0  0  0  0  0  0  0  0
    2.3534    1.2255   -1.6143 H   0  0  0  0  0  0  0  0  0  0  0  0
    3.2769    1.9512   -0.1549 H   0  0  0  0  0  0  0  0  0  0  0  0
  1  2  1  0
  2  3  1  0
  2  4  1  0
  4  5  1  0
  5  6  2  0
  5  7  1  0
  7  8  1  0
  8  9  1  0
  9  7  1  0
  1 10  1  0
  1 11  1  0
  1 12  1  0
  2 13  1  0
  3 14  1  0
  4 15  1  0
  4 16  1  0
  7 17  1  0
  8 18  1  0
  8 19  1  0
M  END
