
     RDKit          3D

 21 22  0  0  0  0  0  0  0  0999 V2000
    2.4205   -0.6003    0.2358 C   0  0  0  0  0  0  0  0  0  0  0  0
    1.4236    0.4186   -0.2287 C   0  0  0  0  0  0  0  0  0  0  0  0
    1.8265    0.9254   -1.4453 O   0  0  0  0  0  0  0  0  0  0  0  0
    0.0919   -0.2422   -0.3883 C   0  0  0  0  0  0  0  0  0  0  0  0
   -0.9607    0.7740   -0.8651 C   0  0  0  0  0  0  0  0  0  0  0  0
   -2.2234    0.4087   -0.0559 C   0  0  0  0  0  0  0  0  0  0  0  0
   -1.9117   -1.0220    0.2031 C   0  0  0  0  0  0  0  0  0  0  0  0
   -1.3519   -1.6628    1.1897 O   0  0  0  0  0  0  0  0  0  0  0  0
   -0.5398   -0.6940    0.8747 C   0  0  0  0  0  0  0  0  0  0  0  0
    2.4441   -1.4190   -0.5253 H   0  0  0  0  0  0  0  0  0  0  0  0
    3.4305   -0.0981    0.1888 H   0  0  0  0  0  0  0  0  0  0  0  0
    2.1740   -0.9595    1.2385 H   0  0  0  0  0  0  0  0  0  0  0  0
    1.4262    1.2495    0.5021 H   0  0  0  0  0  0  0  0  0  0  0  0
    1.1349    1.4552   -1.9147 H   0  0  0  0  0  0  0  0  0  0  0  0
    0.1880   -1.0735   -1.0817 H   0  0  0  0  0  0  0  0  0  0  0  0
   -0.6488    1.8039   -0.6695 H   0  0  0  0  0  0  0  0  0  0  0  0
   -1.1871    0.5895   -1.9359 H   0  0  0  0  0  0  0  0  0  0  0  0
   -3.1258    0.5293   -0.6825 H   0  0  0  0  0  0  0  0  0  0  0  0
   -2.2106    1.0530    0.8276 H   0  0  0  0  0  0  0  0  0  0  0  0
   -1.8449   -1.5872   -0.7786 H   0  0  0  0  0  0  0  0  0  0  0  0
   -0.5554    0.1516    1.6295 H   0  0  0  0  0  0  0  0  0  0  0  0
  1  2  1  0
  2  3  1  0
  2  4  1  0
  4  5  1  0
  5  6  1  0
  6  7  1  0
  7  8  1  0
  8  9  1  0
  9  4  1  0
  9  7  1  0
  1 10  1  0
  1 11  1  0
  1 12  1  0
  2 13  1  0
  3 14  1  0
  4 15  1  0
  5 16  1  0
  5 17  1  0
  6 18  1  0
  6 19  1  0
  7 20  1  0
  9 21  1  0
M  END
