
     RDKit          3D

 23 23  0  0  0  0  0  0  0  0999 V2000
    2.4897   -0.0301    0.3176 C   0  0  0  0  0  0  0  0  0  0  0  0
    1.1620    0.7094    0.1021 C   0  0  0  0  0  0  0  0  0  0  0  0
    1.4402    1.7886   -0.7070 O   0  0  0  0  0  0  0  0  0  0  0  0
    0.2090   -0.2671   -0.4841 C   0  0  0  0  0  0  0  0  0  0  0  0
    0.0191   -1.4404    0.4751 C   0  0  0  0  0  0  0  0  0  0  0  0
   -1.3742   -1.8450    0.1824 C   0  0  0  0  0  0  0  0  0  0  0  0
   -2.0413   -0.9398   -0.4982 C   0  0  0  0  0  0  0  0  0  0  0  0
   -1.1597    0.2241   -0.7593 C   0  0  0  0  0  0  0  0  0  0  0  0
   -1.6227    1.3475    0.1325 C   0  0  0  0  0  0  0  0  0  0  0  0
    2.5140   -0.9756   -0.2740 H   0  0  0  0  0  0  0  0  0  0  0  0
    2.6295   -0.3033    1.3702 H   0  0  0  0  0  0  0  0  0  0  0  0
    3.3498    0.5691   -0.0330 H   0  0  0  0  0  0  0  0  0  0  0  0
    0.8200    1.0199    1.1285 H   0  0  0  0  0  0  0  0  0  0  0  0
    1.5905    2.5765   -0.0924 H   0  0  0  0  0  0  0  0  0  0  0  0
    0.6493   -0.6509   -1.4374 H   0  0  0  0  0  0  0  0  0  0  0  0
    0.6927   -2.2618    0.2074 H   0  0  0  0  0  0  0  0  0  0  0  0
    0.1462   -1.0868    1.5244 H   0  0  0  0  0  0  0  0  0  0  0  0
   -1.8009   -2.8152    0.5089 H   0  0  0  0  0  0  0  0  0  0  0  0
   -3.0995   -1.0395   -0.8227 H   0  0  0  0  0  0  0  0  0  0  0  0
   -1.2838    0.4858   -1.8479 H   0  0  0  0  0  0  0  0  0  0  0  0
   -1.3911    2.2943   -0.3951 H   0  0  0  0  0  0  0  0  0  0  0  0
   -1.1950    1.3145    1.1317 H   0  0  0  0  0  0  0  0  0  0  0  0
   -2.7436    1.3256    0.2703 H   0  0  0  0  0  0  0  0  0  0  0  0
  1  2  1  0
  2  3  1  0
  2  4  1  0
  4  5  1  0
  5  6  1  0
  6  7  2  0
  7  8  1  0
  8  9  1  0
  8  4  1  0
  1 10  1  0
  1 11  1  0
  1 12  1  0
  2 13  1  0
  3 14  1  0
  4 15  1  0
  5 16  1  0
  5 17  1  0
  6 18  1  0
  7 19  1  0
  8 20  1  0
  9 21  1  0
  9 22  1  0
  9 23  1  0
M  END
