
     RDKit          3D

 19 20  0  0  0  0  0  0  0  0999 V2000
   -2.0371   -0.8418   -0.3279 C   0  0  0  0  0  0  0  0  0  0  0  0
   -1.0953    0.3345   -0.1562 C   0  0  0  0  0  0  0  0  0  0  0  0
   -1.6858    1.1321    0.8504 O   0  0  0  0  0  0  0  0  0  0  0  0
    0.2271    0.0949    0.1050 C   0  0  0  0  0  0  0  0  0  0  0  0
    1.1797   -0.6863   -0.8012 C   0  0  0  0  0  0  0  0  0  0  0  0
    2.0248   -0.2084    0.3454 C   0  0  0  0  0  0  0  0  0  0  0  0
    1.3405    1.1159    0.1221 C   0  0  0  0  0  0  0  0  0  0  0  0
    0.9012   -0.5466    1.2013 C   0  0  0  0  0  0  0  0  0  0  0  0
    0.6687   -1.0703    2.2434 O   0  0  0  0  0  0  0  0  0  0  0  0
   -3.0799   -0.4632   -0.4438 H   0  0  0  0  0  0  0  0  0  0  0  0
   -1.9614   -1.5053    0.5562 H   0  0  0  0  0  0  0  0  0  0  0  0
   -1.7882   -1.3990   -1.2511 H   0  0  0  0  0  0  0  0  0  0  0  0
   -1.2386    0.9502   -1.0961 H   0  0  0  0  0  0  0  0  0  0  0  0
   -1.6972    2.0832    0.6084 H   0  0  0  0  0  0  0  0  0  0  0  0
    1.0456   -1.7715   -0.7821 H   0  0  0  0  0  0  0  0  0  0  0  0
    1.3496   -0.1961   -1.7598 H   0  0  0  0  0  0  0  0  0  0  0  0
    3.0062   -0.3574    0.4765 H   0  0  0  0  0  0  0  0  0  0  0  0
    1.3486    1.8082    0.9715 H   0  0  0  0  0  0  0  0  0  0  0  0
    1.4913    1.5266   -0.8804 H   0  0  0  0  0  0  0  0  0  0  0  0
  1  2  1  0
  2  3  1  0
  2  4  1  0
  4  5  1  0
  5  6  1  0
  6  7  1  0
  6  8  1  0
  8  9  2  0
  7  4  1  0
  8  4  1  0
  1 10  1  0
  1 11  1  0
  1 12  1  0
  2 13  1  0
  3 14  1  0
  5 15  1  0
  5 16  1  0
  6 17  1  0
  7 18  1  0
  7 19  1  0
M  END
