
     RDKit          3D

 21 21  0  0  0  0  0  0  0  0999 V2000
   -2.2992    1.1930    0.1091 C   0  0  0  0  0  0  0  0  0  0  0  0
   -1.7090   -0.1552   -0.2297 C   0  0  0  0  0  0  0  0  0  0  0  0
   -2.4015   -1.1301    0.5115 O   0  0  0  0  0  0  0  0  0  0  0  0
   -0.2625   -0.1331    0.1369 C   0  0  0  0  0  0  0  0  0  0  0  0
    0.5594    0.9285   -0.5982 C   0  0  0  0  0  0  0  0  0  0  0  0
    0.8082   -0.4911   -0.8208 C   0  0  0  0  0  0  0  0  0  0  0  0
    2.0712   -1.1056   -0.3323 C   0  0  0  0  0  0  0  0  0  0  0  0
    2.8566   -0.2964    0.6189 C   0  0  0  0  0  0  0  0  0  0  0  0
    3.2219    0.8158    0.2995 O   0  0  0  0  0  0  0  0  0  0  0  0
   -1.6822    1.7185    0.9008 H   0  0  0  0  0  0  0  0  0  0  0  0
   -3.3097    1.0881    0.5795 H   0  0  0  0  0  0  0  0  0  0  0  0
   -2.3225    1.8128   -0.8246 H   0  0  0  0  0  0  0  0  0  0  0  0
   -1.8624   -0.3504   -1.3038 H   0  0  0  0  0  0  0  0  0  0  0  0
   -2.9807   -1.6821   -0.0775 H   0  0  0  0  0  0  0  0  0  0  0  0
   -0.0350   -0.3360    1.1904 H   0  0  0  0  0  0  0  0  0  0  0  0
    0.0158    1.5115   -1.4010 H   0  0  0  0  0  0  0  0  0  0  0  0
    1.0731    1.5928    0.0891 H   0  0  0  0  0  0  0  0  0  0  0  0
    0.4583   -0.9201   -1.7963 H   0  0  0  0  0  0  0  0  0  0  0  0
    2.7605   -1.2571   -1.2211 H   0  0  0  0  0  0  0  0  0  0  0  0
    1.9160   -2.1457    0.0522 H   0  0  0  0  0  0  0  0  0  0  0  0
    3.1237   -0.6581    1.6016 H   0  0  0  0  0  0  0  0  0  0  0  0
  1  2  1  0
  2  3  1  0
  2  4  1  0
  4  5  1  0
  5  6  1  0
  6  7  1  0
  7  8  1  0
  8  9  2  0
  6  4  1  0
  1 10  1  0
  1 11  1  0
  1 12  1  0
  2 13  1  0
  3 14  1  0
  4 15  1  0
  5 16  1  0
  5 17  1  0
  6 18  1  0
  7 19  1  0
  7 20  1  0
  8 21  1  0
M  END
