
     RDKit          3D

 18 18  0  0  0  0  0  0  0  0999 V2000
   -2.0596    0.4538    0.5498 C   0  0  0  0  0  0  0  0  0  0  0  0
   -1.2021    0.1590   -0.6625 C   0  0  0  0  0  0  0  0  0  0  0  0
   -1.6762   -0.9734   -1.3365 O   0  0  0  0  0  0  0  0  0  0  0  0
    0.2310    0.0500   -0.3310 C   0  0  0  0  0  0  0  0  0  0  0  0
    0.9977   -1.0075   -0.5199 C   0  0  0  0  0  0  0  0  0  0  0  0
    2.3758   -0.7071   -0.0526 C   0  0  0  0  0  0  0  0  0  0  0  0
    2.3726    0.6346    0.3033 O   0  0  0  0  0  0  0  0  0  0  0  0
    1.0688    1.0993    0.2705 C   0  0  0  0  0  0  0  0  0  0  0  0
   -2.1259   -0.3753    1.2517 H   0  0  0  0  0  0  0  0  0  0  0  0
   -1.6969    1.4051    0.9811 H   0  0  0  0  0  0  0  0  0  0  0  0
   -3.0821    0.6554    0.1648 H   0  0  0  0  0  0  0  0  0  0  0  0
   -1.4027    1.0158   -1.3738 H   0  0  0  0  0  0  0  0  0  0  0  0
   -1.9969   -1.6642   -0.7343 H   0  0  0  0  0  0  0  0  0  0  0  0
    0.6867   -1.9461   -0.9445 H   0  0  0  0  0  0  0  0  0  0  0  0
    3.1323   -0.9031   -0.8403 H   0  0  0  0  0  0  0  0  0  0  0  0
    2.6008   -1.2855    0.8843 H   0  0  0  0  0  0  0  0  0  0  0  0
    0.7590    1.3518    1.3169 H   0  0  0  0  0  0  0  0  0  0  0  0
    1.0177    2.0373   -0.3335 H   0  0  0  0  0  0  0  0  0  0  0  0
  1  2  1  0
  2  3  1  0
  2  4  1  0
  4  5  2  0
  5  6  1  0
  6  7  1  0
  7  8  1  0
  8  4  1  0
  1  9  1  0
  1 10  1  0
  1 11  1  0
  2 12  1  0
  3 13  1  0
  5 14  1  0
  6 15  1  0
  6 16  1  0
  8 17  1  0
  8 18  1  0
M  END
