
     RDKit          3D

 19 19  0  0  0  0  0  0  0  0999 V2000
   -2.5144    0.7239   -0.2475 C   0  0  0  0  0  0  0  0  0  0  0  0
   -1.3869   -0.1541    0.3030 C   0  0  0  0  0  0  0  0  0  0  0  0
   -1.6728   -1.5040    0.0507 O   0  0  0  0  0  0  0  0  0  0  0  0
   -0.1378    0.2609   -0.4448 C   0  0  0  0  0  0  0  0  0  0  0  0
    1.0721   -0.5320   -0.0001 C   0  0  0  0  0  0  0  0  0  0  0  0
    2.1883   -0.0962   -0.7319 O   0  0  0  0  0  0  0  0  0  0  0  0
    2.9005   -0.0284    0.4714 C   0  0  0  0  0  0  0  0  0  0  0  0
    1.6212    0.0058    1.2582 C   0  0  0  0  0  0  0  0  0  0  0  0
    1.3004    0.3351    2.3818 O   0  0  0  0  0  0  0  0  0  0  0  0
   -2.5328    0.5510   -1.3378 H   0  0  0  0  0  0  0  0  0  0  0  0
   -2.1342    1.7792   -0.1233 H   0  0  0  0  0  0  0  0  0  0  0  0
   -3.4623    0.5586    0.2629 H   0  0  0  0  0  0  0  0  0  0  0  0
   -1.2517    0.0097    1.3820 H   0  0  0  0  0  0  0  0  0  0  0  0
   -1.5445   -1.7018   -0.9149 H   0  0  0  0  0  0  0  0  0  0  0  0
   -0.3351    0.1507   -1.5243 H   0  0  0  0  0  0  0  0  0  0  0  0
    0.0581    1.3194   -0.1605 H   0  0  0  0  0  0  0  0  0  0  0  0
    0.8766   -1.6122   -0.0385 H   0  0  0  0  0  0  0  0  0  0  0  0
    3.5180    0.8987    0.5832 H   0  0  0  0  0  0  0  0  0  0  0  0
    3.4375   -0.9643    0.6386 H   0  0  0  0  0  0  0  0  0  0  0  0
  1  2  1  0
  2  3  1  0
  2  4  1  0
  4  5  1  0
  5  6  1  0
  6  7  1  0
  7  8  1  0
  8  9  2  0
  8  5  1  0
  1 10  1  0
  1 11  1  0
  1 12  1  0
  2 13  1  0
  3 14  1  0
  4 15  1  0
  4 16  1  0
  5 17  1  0
  7 18  1  0
  7 19  1  0
M  END
