
     RDKit          3D

 17 16  0  0  0  0  0  0  0  0999 V2000
   -1.2173   -1.2149   -0.1905 C   0  0  0  0  0  0  0  0  0  0  0  0
   -0.4785   -0.3327    0.7581 C   0  0  0  0  0  0  0  0  0  0  0  0
   -0.3766   -0.9745    1.9886 O   0  0  0  0  0  0  0  0  0  0  0  0
    0.8667   -0.0933    0.1849 C   0  0  0  0  0  0  0  0  0  0  0  0
    1.9544    0.1171   -0.2937 C   0  0  0  0  0  0  0  0  0  0  0  0
    3.2362    0.3679   -0.8840 C   0  0  0  0  0  0  0  0  0  0  0  0
    3.7242    1.5226   -0.8999 O   0  0  0  0  0  0  0  0  0  0  0  0
   -1.1503    1.0076    0.9337 C   0  0  0  0  0  0  0  0  0  0  0  0
   -1.2289    1.6092   -0.3217 O   0  0  0  0  0  0  0  0  0  0  0  0
   -0.9459   -1.0662   -1.2575 H   0  0  0  0  0  0  0  0  0  0  0  0
   -1.0516   -2.2984    0.0677 H   0  0  0  0  0  0  0  0  0  0  0  0
   -2.3098   -1.0255   -0.0519 H   0  0  0  0  0  0  0  0  0  0  0  0
   -1.1708   -0.6950    2.5178 H   0  0  0  0  0  0  0  0  0  0  0  0
    3.8194   -0.4230   -1.3311 H   0  0  0  0  0  0  0  0  0  0  0  0
   -0.4675    1.6323    1.5438 H   0  0  0  0  0  0  0  0  0  0  0  0
   -2.1266    0.9077    1.4278 H   0  0  0  0  0  0  0  0  0  0  0  0
   -1.0770    0.9592   -1.0377 H   0  0  0  0  0  0  0  0  0  0  0  0
  1  2  1  0
  2  3  1  0
  2  4  1  0
  4  5  3  0
  5  6  1  0
  6  7  2  0
  2  8  1  0
  8  9  1  0
  1 10  1  0
  1 11  1  0
  1 12  1  0
  3 13  1  0
  6 14  1  0
  8 15  1  0
  8 16  1  0
  9 17  1  0
M  END
