
     RDKit          3D

 20 20  0  0  0  0  0  0  0  0999 V2000
    1.7376    0.9381    0.5490 C   0  0  0  0  0  0  0  0  0  0  0  0
    1.4887    0.0864   -0.6810 C   0  0  0  0  0  0  0  0  0  0  0  0
    2.6008   -0.7165   -0.8686 O   0  0  0  0  0  0  0  0  0  0  0  0
    0.2176   -0.7242   -0.5465 C   0  0  0  0  0  0  0  0  0  0  0  0
   -0.9770    0.1726   -0.3635 C   0  0  0  0  0  0  0  0  0  0  0  0
   -2.2965   -0.5487   -0.2198 C   0  0  0  0  0  0  0  0  0  0  0  0
   -2.6800    0.4949    0.6517 O   0  0  0  0  0  0  0  0  0  0  0  0
   -1.3296    0.4918    1.0753 C   0  0  0  0  0  0  0  0  0  0  0  0
    1.4031    0.3789    1.4541 H   0  0  0  0  0  0  0  0  0  0  0  0
    1.1718    1.8839    0.4953 H   0  0  0  0  0  0  0  0  0  0  0  0
    2.8460    1.1355    0.5812 H   0  0  0  0  0  0  0  0  0  0  0  0
    1.4361    0.7919   -1.5405 H   0  0  0  0  0  0  0  0  0  0  0  0
    2.3121   -1.6737   -0.8547 H   0  0  0  0  0  0  0  0  0  0  0  0
    0.3241   -1.3969    0.3136 H   0  0  0  0  0  0  0  0  0  0  0  0
    0.1194   -1.3259   -1.4722 H   0  0  0  0  0  0  0  0  0  0  0  0
   -1.0461    1.0414   -1.0126 H   0  0  0  0  0  0  0  0  0  0  0  0
   -2.2483   -1.4823    0.3701 H   0  0  0  0  0  0  0  0  0  0  0  0
   -2.9008   -0.5984   -1.1471 H   0  0  0  0  0  0  0  0  0  0  0  0
   -0.9792    1.4439    1.4645 H   0  0  0  0  0  0  0  0  0  0  0  0
   -1.2000   -0.3926    1.7516 H   0  0  0  0  0  0  0  0  0  0  0  0
  1  2  1  0
  2  3  1  0
  2  4  1  0
  4  5  1  0
  5  6  1  0
  6  7  1  0
  7  8  1  0
  8  5  1  0
  1  9  1  0
  1 10  1  0
  1 11  1  0
  2 12  1  0
  3 13  1  0
  4 14  1  0
  4 15  1  0
  5 16  1  0
  6 17  1  0
  6 18  1  0
  8 19  1  0
  8 20  1  0
M  END
