
     RDKit          3D

 16 16  0  0  0  0  0  0  0  0999 V2000
    1.7175   -0.4983    0.3331 C   0  0  0  0  0  0  0  0  0  0  0  0
    0.6280    0.5210    0.2974 C   0  0  0  0  0  0  0  0  0  0  0  0
    1.1541    1.6610   -0.3502 O   0  0  0  0  0  0  0  0  0  0  0  0
   -0.5887    0.1048   -0.4706 C   0  0  0  0  0  0  0  0  0  0  0  0
   -1.3111   -1.1064   -0.0130 C   0  0  0  0  0  0  0  0  0  0  0  0
   -2.4497   -0.3580    0.4159 O   0  0  0  0  0  0  0  0  0  0  0  0
   -1.7944    0.8035    0.0934 C   0  0  0  0  0  0  0  0  0  0  0  0
   -2.0724    2.0217    0.2125 O   0  0  0  0  0  0  0  0  0  0  0  0
    2.5064   -0.3369   -0.4417 H   0  0  0  0  0  0  0  0  0  0  0  0
    2.2734   -0.4144    1.3132 H   0  0  0  0  0  0  0  0  0  0  0  0
    1.3814   -1.5345    0.2648 H   0  0  0  0  0  0  0  0  0  0  0  0
    0.3901    0.8329    1.3418 H   0  0  0  0  0  0  0  0  0  0  0  0
    1.2166    1.4322   -1.3303 H   0  0  0  0  0  0  0  0  0  0  0  0
   -0.5310    0.3018   -1.5499 H   0  0  0  0  0  0  0  0  0  0  0  0
   -0.8810   -1.7094    0.7847 H   0  0  0  0  0  0  0  0  0  0  0  0
   -1.6392   -1.7208   -0.9013 H   0  0  0  0  0  0  0  0  0  0  0  0
  1  2  1  0
  2  3  1  0
  2  4  1  0
  4  5  1  0
  5  6  1  0
  6  7  1  0
  7  8  2  0
  7  4  1  0
  1  9  1  0
  1 10  1  0
  1 11  1  0
  2 12  1  0
  3 13  1  0
  4 14  1  0
  5 15  1  0
  5 16  1  0
M  END
