
     RDKit          3D

 21 22  0  0  0  0  0  0  0  0999 V2000
    2.1480    0.3268    0.2080 C   0  0  0  0  0  0  0  0  0  0  0  0
    1.0019    0.3290   -0.7816 C   0  0  0  0  0  0  0  0  0  0  0  0
    1.1117   -0.6867   -1.7254 O   0  0  0  0  0  0  0  0  0  0  0  0
   -0.2943    0.2413   -0.0219 C   0  0  0  0  0  0  0  0  0  0  0  0
   -0.5646    1.3478    0.9418 C   0  0  0  0  0  0  0  0  0  0  0  0
   -1.5109   -0.0585   -0.8718 C   0  0  0  0  0  0  0  0  0  0  0  0
   -1.7231   -1.2785    0.0220 C   0  0  0  0  0  0  0  0  0  0  0  0
   -0.7358   -2.2231   -0.1007 O   0  0  0  0  0  0  0  0  0  0  0  0
   -0.4782   -1.0929    0.6402 C   0  0  0  0  0  0  0  0  0  0  0  0
    2.3476   -0.7375    0.5134 H   0  0  0  0  0  0  0  0  0  0  0  0
    3.0605    0.7948   -0.2092 H   0  0  0  0  0  0  0  0  0  0  0  0
    1.8370    0.9472    1.0677 H   0  0  0  0  0  0  0  0  0  0  0  0
    0.9975    1.2878   -1.3665 H   0  0  0  0  0  0  0  0  0  0  0  0
    1.2837   -1.5680   -1.2974 H   0  0  0  0  0  0  0  0  0  0  0  0
   -1.6605    1.2864    1.2087 H   0  0  0  0  0  0  0  0  0  0  0  0
   -0.0035    1.2327    1.9020 H   0  0  0  0  0  0  0  0  0  0  0  0
   -0.4131    2.3406    0.4774 H   0  0  0  0  0  0  0  0  0  0  0  0
   -2.3145    0.6758   -0.8147 H   0  0  0  0  0  0  0  0  0  0  0  0
   -1.2182   -0.4091   -1.8866 H   0  0  0  0  0  0  0  0  0  0  0  0
   -2.7075   -1.4897    0.4250 H   0  0  0  0  0  0  0  0  0  0  0  0
   -0.1637   -1.2661    1.6696 H   0  0  0  0  0  0  0  0  0  0  0  0
  1  2  1  0
  2  3  1  0
  2  4  1  0
  4  5  1  0
  4  6  1  0
  6  7  1  0
  7  8  1  0
  8  9  1  0
  9  4  1  0
  9  7  1  0
  1 10  1  0
  1 11  1  0
  1 12  1  0
  2 13  1  0
  3 14  1  0
  5 15  1  0
  5 16  1  0
  5 17  1  0
  6 18  1  0
  6 19  1  0
  7 20  1  0
  9 21  1  0
M  END
