
     RDKit          3D

 23 22  0  0  0  0  0  0  0  0999 V2000
    0.6420    1.0382    1.6087 C   0  0  0  0  0  0  0  0  0  0  0  0
    0.7004    0.2682    0.3014 C   0  0  0  0  0  0  0  0  0  0  0  0
    1.5874   -0.8066    0.3390 O   0  0  0  0  0  0  0  0  0  0  0  0
    2.7305   -0.8891   -0.4053 C   0  0  0  0  0  0  0  0  0  0  0  0
    2.9925    0.0757   -1.1745 O   0  0  0  0  0  0  0  0  0  0  0  0
   -0.6635   -0.0964   -0.2115 C   0  0  0  0  0  0  0  0  0  0  0  0
   -0.4956   -0.8496   -1.4988 C   0  0  0  0  0  0  0  0  0  0  0  0
   -1.4119    1.1923   -0.4816 C   0  0  0  0  0  0  0  0  0  0  0  0
   -1.4622   -0.9305    0.7486 C   0  0  0  0  0  0  0  0  0  0  0  0
    0.0670    0.5369    2.3839 H   0  0  0  0  0  0  0  0  0  0  0  0
    0.1846    2.0327    1.4140 H   0  0  0  0  0  0  0  0  0  0  0  0
    1.6892    1.2213    1.9114 H   0  0  0  0  0  0  0  0  0  0  0  0
    1.1220    1.0029   -0.4386 H   0  0  0  0  0  0  0  0  0  0  0  0
    3.3824   -1.7236   -0.3505 H   0  0  0  0  0  0  0  0  0  0  0  0
    0.0452   -0.1724   -2.2116 H   0  0  0  0  0  0  0  0  0  0  0  0
   -1.4606   -1.1808   -1.8808 H   0  0  0  0  0  0  0  0  0  0  0  0
    0.1756   -1.7182   -1.3536 H   0  0  0  0  0  0  0  0  0  0  0  0
   -2.3147    1.0237   -1.0854 H   0  0  0  0  0  0  0  0  0  0  0  0
   -0.6897    1.8714   -0.9942 H   0  0  0  0  0  0  0  0  0  0  0  0
   -1.6738    1.6093    0.5234 H   0  0  0  0  0  0  0  0  0  0  0  0
   -2.4922   -1.0122    0.3240 H   0  0  0  0  0  0  0  0  0  0  0  0
   -1.5676   -0.5042    1.7474 H   0  0  0  0  0  0  0  0  0  0  0  0
   -1.0868   -1.9889    0.7845 H   0  0  0  0  0  0  0  0  0  0  0  0
  1  2  1  0
  2  3  1  0
  3  4  1  0
  4  5  2  0
  2  6  1  0
  6  7  1  0
  6  8  1  0
  6  9  1  0
  1 10  1  0
  1 11  1  0
  1 12  1  0
  2 13  1  0
  4 14  1  0
  7 15  1  0
  7 16  1  0
  7 17  1  0
  8 18  1  0
  8 19  1  0
  8 20  1  0
  9 21  1  0
  9 22  1  0
  9 23  1  0
M  END
