
     RDKit          3D

 21 21  0  0  0  0  0  0  0  0999 V2000
    2.7898   -0.3674   -0.1961 C   0  0  0  0  0  0  0  0  0  0  0  0
    1.5359    0.3945    0.0536 C   0  0  0  0  0  0  0  0  0  0  0  0
    1.6212    1.3819    0.9948 O   0  0  0  0  0  0  0  0  0  0  0  0
    0.4390   -0.6248    0.3901 C   0  0  0  0  0  0  0  0  0  0  0  0
   -0.8138    0.1662    0.6377 C   0  0  0  0  0  0  0  0  0  0  0  0
   -2.0317   -0.6552    0.9896 C   0  0  0  0  0  0  0  0  0  0  0  0
   -2.7945    0.4112    0.1978 C   0  0  0  0  0  0  0  0  0  0  0  0
   -1.5451    0.6156   -0.5635 C   0  0  0  0  0  0  0  0  0  0  0  0
   -1.2430    0.9823   -1.6655 O   0  0  0  0  0  0  0  0  0  0  0  0
    2.6465   -0.9646   -1.1266 H   0  0  0  0  0  0  0  0  0  0  0  0
    3.6795    0.2593   -0.3500 H   0  0  0  0  0  0  0  0  0  0  0  0
    2.9693   -1.1354    0.6114 H   0  0  0  0  0  0  0  0  0  0  0  0
    1.2432    0.8812   -0.9223 H   0  0  0  0  0  0  0  0  0  0  0  0
    2.1334    1.1382    1.8048 H   0  0  0  0  0  0  0  0  0  0  0  0
    0.7237   -1.1503    1.3256 H   0  0  0  0  0  0  0  0  0  0  0  0
    0.2950   -1.3329   -0.4492 H   0  0  0  0  0  0  0  0  0  0  0  0
   -0.6426    0.9390    1.4176 H   0  0  0  0  0  0  0  0  0  0  0  0
   -2.1256   -1.6134    0.4487 H   0  0  0  0  0  0  0  0  0  0  0  0
   -2.2374   -0.6688    2.0603 H   0  0  0  0  0  0  0  0  0  0  0  0
   -2.9878    1.3089    0.8367 H   0  0  0  0  0  0  0  0  0  0  0  0
   -3.6549    0.0343   -0.3567 H   0  0  0  0  0  0  0  0  0  0  0  0
  1  2  1  0
  2  3  1  0
  2  4  1  0
  4  5  1  0
  5  6  1  0
  6  7  1  0
  7  8  1  0
  8  9  2  0
  8  5  1  0
  1 10  1  0
  1 11  1  0
  1 12  1  0
  2 13  1  0
  3 14  1  0
  4 15  1  0
  4 16  1  0
  5 17  1  0
  6 18  1  0
  6 19  1  0
  7 20  1  0
  7 21  1  0
M  END
