
     RDKit          3D

 23 24  0  0  0  0  0  0  0  0999 V2000
   -2.5601   -0.3288    0.3597 C   0  0  0  0  0  0  0  0  0  0  0  0
   -1.3448    0.5675    0.2253 C   0  0  0  0  0  0  0  0  0  0  0  0
   -1.2983    1.0908   -1.0744 O   0  0  0  0  0  0  0  0  0  0  0  0
   -0.1128   -0.2335    0.5569 C   0  0  0  0  0  0  0  0  0  0  0  0
    1.1924    0.4472    0.4897 C   0  0  0  0  0  0  0  0  0  0  0  0
    1.2634    1.8921    0.1842 C   0  0  0  0  0  0  0  0  0  0  0  0
    1.6100   -0.5052   -0.6146 C   0  0  0  0  0  0  0  0  0  0  0  0
    1.5699   -1.9402   -0.2496 C   0  0  0  0  0  0  0  0  0  0  0  0
    0.3267   -1.1987   -0.5098 C   0  0  0  0  0  0  0  0  0  0  0  0
   -3.4086    0.1989    0.8705 H   0  0  0  0  0  0  0  0  0  0  0  0
   -2.9511   -0.6625   -0.6131 H   0  0  0  0  0  0  0  0  0  0  0  0
   -2.3109   -1.1859    1.0400 H   0  0  0  0  0  0  0  0  0  0  0  0
   -1.4625    1.3743    0.9709 H   0  0  0  0  0  0  0  0  0  0  0  0
   -1.6443    0.4285   -1.7242 H   0  0  0  0  0  0  0  0  0  0  0  0
   -0.2957   -0.7888    1.5088 H   0  0  0  0  0  0  0  0  0  0  0  0
    1.8231    0.2105    1.3957 H   0  0  0  0  0  0  0  0  0  0  0  0
    1.8876    2.0499   -0.7285 H   0  0  0  0  0  0  0  0  0  0  0  0
    1.7952    2.4748    0.9931 H   0  0  0  0  0  0  0  0  0  0  0  0
    0.3121    2.4020    0.0214 H   0  0  0  0  0  0  0  0  0  0  0  0
    2.0474   -0.1232   -1.5322 H   0  0  0  0  0  0  0  0  0  0  0  0
    2.0141   -2.6372   -0.9770 H   0  0  0  0  0  0  0  0  0  0  0  0
    1.8452   -2.1662    0.8061 H   0  0  0  0  0  0  0  0  0  0  0  0
   -0.2982   -1.3662   -1.3988 H   0  0  0  0  0  0  0  0  0  0  0  0
  1  2  1  0
  2  3  1  0
  2  4  1  0
  4  5  1  0
  5  6  1  0
  5  7  1  0
  7  8  1  0
  8  9  1  0
  9  4  1  0
  9  7  1  0
  1 10  1  0
  1 11  1  0
  1 12  1  0
  2 13  1  0
  3 14  1  0
  4 15  1  0
  5 16  1  0
  6 17  1  0
  6 18  1  0
  6 19  1  0
  7 20  1  0
  8 21  1  0
  8 22  1  0
  9 23  1  0
M  END
