
     RDKit          3D

 19 18  0  0  0  0  0  0  0  0999 V2000
   -2.2691    0.1206    0.7404 C   0  0  0  0  0  0  0  0  0  0  0  0
   -1.5013   -0.1662   -0.5147 C   0  0  0  0  0  0  0  0  0  0  0  0
   -1.9545   -1.3198   -1.1570 O   0  0  0  0  0  0  0  0  0  0  0  0
   -0.0259   -0.3484   -0.2501 C   0  0  0  0  0  0  0  0  0  0  0  0
    0.5719    0.8716    0.3599 C   0  0  0  0  0  0  0  0  0  0  0  0
   -0.0898    1.8703    0.5654 O   0  0  0  0  0  0  0  0  0  0  0  0
    2.0074    0.9126    0.7430 C   0  0  0  0  0  0  0  0  0  0  0  0
    2.6377   -0.3932    0.4427 C   0  0  0  0  0  0  0  0  0  0  0  0
    3.0486   -0.6814   -0.6725 O   0  0  0  0  0  0  0  0  0  0  0  0
   -3.3267   -0.2225    0.5439 H   0  0  0  0  0  0  0  0  0  0  0  0
   -1.8651   -0.4156    1.6192 H   0  0  0  0  0  0  0  0  0  0  0  0
   -2.2767    1.1938    1.0208 H   0  0  0  0  0  0  0  0  0  0  0  0
   -1.6443    0.6808   -1.2227 H   0  0  0  0  0  0  0  0  0  0  0  0
   -1.3564   -2.0851   -0.9165 H   0  0  0  0  0  0  0  0  0  0  0  0
    0.5252   -0.5640   -1.1878 H   0  0  0  0  0  0  0  0  0  0  0  0
    0.1391   -1.1906    0.4543 H   0  0  0  0  0  0  0  0  0  0  0  0
    2.1545    1.1996    1.8106 H   0  0  0  0  0  0  0  0  0  0  0  0
    2.4736    1.6838    0.0628 H   0  0  0  0  0  0  0  0  0  0  0  0
    2.7517   -1.1464    1.2363 H   0  0  0  0  0  0  0  0  0  0  0  0
  1  2  1  0
  2  3  1  0
  2  4  1  0
  4  5  1  0
  5  6  2  0
  5  7  1  0
  7  8  1  0
  8  9  2  0
  1 10  1  0
  1 11  1  0
  1 12  1  0
  2 13  1  0
  3 14  1  0
  4 15  1  0
  4 16  1  0
  7 17  1  0
  7 18  1  0
  8 19  1  0
M  END
