
     RDKit          3D

 21 20  0  0  0  0  0  0  0  0999 V2000
    2.8571    0.7878   -0.0784 C   0  0  0  0  0  0  0  0  0  0  0  0
    2.4723   -0.5024    0.5897 C   0  0  0  0  0  0  0  0  0  0  0  0
    2.9350   -1.6103   -0.1271 O   0  0  0  0  0  0  0  0  0  0  0  0
    1.0074   -0.5269    0.6698 C   0  0  0  0  0  0  0  0  0  0  0  0
   -0.2099   -0.5262    0.7350 C   0  0  0  0  0  0  0  0  0  0  0  0
   -1.6724   -0.5061    0.8290 C   0  0  0  0  0  0  0  0  0  0  0  0
   -2.2494   -0.9084   -0.5032 C   0  0  0  0  0  0  0  0  0  0  0  0
   -2.0669    0.9090    1.1986 C   0  0  0  0  0  0  0  0  0  0  0  0
   -1.5895    1.7329    0.1682 O   0  0  0  0  0  0  0  0  0  0  0  0
    2.9251    1.6243    0.6548 H   0  0  0  0  0  0  0  0  0  0  0  0
    3.8867    0.6534   -0.5052 H   0  0  0  0  0  0  0  0  0  0  0  0
    2.1522    1.0943   -0.8545 H   0  0  0  0  0  0  0  0  0  0  0  0
    2.9339   -0.5674    1.6128 H   0  0  0  0  0  0  0  0  0  0  0  0
    2.7371   -1.4656   -1.1003 H   0  0  0  0  0  0  0  0  0  0  0  0
   -2.0549   -1.1903    1.6123 H   0  0  0  0  0  0  0  0  0  0  0  0
   -1.8977   -1.9452   -0.7094 H   0  0  0  0  0  0  0  0  0  0  0  0
   -1.8871   -0.1980   -1.2938 H   0  0  0  0  0  0  0  0  0  0  0  0
   -3.3451   -0.9327   -0.4788 H   0  0  0  0  0  0  0  0  0  0  0  0
   -3.1467    1.0311    1.3587 H   0  0  0  0  0  0  0  0  0  0  0  0
   -1.4828    1.1884    2.1120 H   0  0  0  0  0  0  0  0  0  0  0  0
   -2.3043    1.8584   -0.5161 H   0  0  0  0  0  0  0  0  0  0  0  0
  1  2  1  0
  2  3  1  0
  2  4  1  0
  4  5  3  0
  5  6  1  0
  6  7  1  0
  6  8  1  0
  8  9  1  0
  1 10  1  0
  1 11  1  0
  1 12  1  0
  2 13  1  0
  3 14  1  0
  6 15  1  0
  7 16  1  0
  7 17  1  0
  7 18  1  0
  8 19  1  0
  8 20  1  0
  9 21  1  0
M  END
