
     RDKit          3D

 19 19  0  0  0  0  0  0  0  0999 V2000
   -2.5806   -0.3917   -0.0705 C   0  0  0  0  0  0  0  0  0  0  0  0
   -1.4258    0.5404   -0.2329 C   0  0  0  0  0  0  0  0  0  0  0  0
   -1.2955    1.4524    0.8114 O   0  0  0  0  0  0  0  0  0  0  0  0
   -0.1964   -0.2543   -0.4122 C   0  0  0  0  0  0  0  0  0  0  0  0
   -0.1903   -1.0864   -1.2970 O   0  0  0  0  0  0  0  0  0  0  0  0
    1.0232   -0.0990    0.4169 C   0  0  0  0  0  0  0  0  0  0  0  0
    2.1395   -1.0195    0.0423 C   0  0  0  0  0  0  0  0  0  0  0  0
    2.5242   -0.1542   -1.0022 O   0  0  0  0  0  0  0  0  0  0  0  0
    2.0007    0.8895   -0.2113 C   0  0  0  0  0  0  0  0  0  0  0  0
   -3.1199   -0.5011   -1.0511 H   0  0  0  0  0  0  0  0  0  0  0  0
   -3.3200   -0.0694    0.6937 H   0  0  0  0  0  0  0  0  0  0  0  0
   -2.2695   -1.4240    0.2406 H   0  0  0  0  0  0  0  0  0  0  0  0
   -1.5650    1.1258   -1.1889 H   0  0  0  0  0  0  0  0  0  0  0  0
   -1.5896    1.0989    1.6739 H   0  0  0  0  0  0  0  0  0  0  0  0
    0.8892    0.0018    1.4894 H   0  0  0  0  0  0  0  0  0  0  0  0
    1.7852   -2.0028   -0.3028 H   0  0  0  0  0  0  0  0  0  0  0  0
    2.9443   -1.0351    0.8112 H   0  0  0  0  0  0  0  0  0  0  0  0
    2.7407    1.3145    0.4871 H   0  0  0  0  0  0  0  0  0  0  0  0
    1.5058    1.6141   -0.8975 H   0  0  0  0  0  0  0  0  0  0  0  0
  1  2  1  0
  2  3  1  0
  2  4  1  0
  4  5  2  0
  4  6  1  0
  6  7  1  0
  7  8  1  0
  8  9  1  0
  9  6  1  0
  1 10  1  0
  1 11  1  0
  1 12  1  0
  2 13  1  0
  3 14  1  0
  6 15  1  0
  7 16  1  0
  7 17  1  0
  9 18  1  0
  9 19  1  0
M  END
