
     RDKit          3D

 21 22  0  0  0  0  0  0  0  0999 V2000
   -1.2721   -1.2710    0.9607 C   0  0  0  0  0  0  0  0  0  0  0  0
   -1.3959   -0.0048    0.1653 C   0  0  0  0  0  0  0  0  0  0  0  0
   -2.3016   -0.2429   -0.8682 O   0  0  0  0  0  0  0  0  0  0  0  0
   -0.0418    0.4301   -0.4054 C   0  0  0  0  0  0  0  0  0  0  0  0
   -0.0851    1.6697   -1.2006 C   0  0  0  0  0  0  0  0  0  0  0  0
    0.4956    1.7892    0.1421 C   0  0  0  0  0  0  0  0  0  0  0  0
    1.7610    1.2297    0.3125 O   0  0  0  0  0  0  0  0  0  0  0  0
    1.1245   -0.0118    0.3910 C   0  0  0  0  0  0  0  0  0  0  0  0
    1.9945   -1.0838   -0.2018 C   0  0  0  0  0  0  0  0  0  0  0  0
   -1.3981   -1.0849    2.0599 H   0  0  0  0  0  0  0  0  0  0  0  0
   -0.2732   -1.7593    0.8560 H   0  0  0  0  0  0  0  0  0  0  0  0
   -2.0592   -2.0201    0.6885 H   0  0  0  0  0  0  0  0  0  0  0  0
   -1.7682    0.8014    0.8420 H   0  0  0  0  0  0  0  0  0  0  0  0
   -1.7773   -0.2828   -1.7076 H   0  0  0  0  0  0  0  0  0  0  0  0
    0.5444    1.7314   -2.1125 H   0  0  0  0  0  0  0  0  0  0  0  0
   -1.0603    2.1942   -1.3462 H   0  0  0  0  0  0  0  0  0  0  0  0
   -0.0424    2.2315    0.9794 H   0  0  0  0  0  0  0  0  0  0  0  0
    0.8733   -0.1908    1.4784 H   0  0  0  0  0  0  0  0  0  0  0  0
    2.9499   -0.6762   -0.5908 H   0  0  0  0  0  0  0  0  0  0  0  0
    2.2325   -1.8234    0.5974 H   0  0  0  0  0  0  0  0  0  0  0  0
    1.4994   -1.6254   -1.0400 H   0  0  0  0  0  0  0  0  0  0  0  0
  1  2  1  0
  2  3  1  0
  2  4  1  0
  4  5  1  0
  5  6  1  0
  6  7  1  0
  7  8  1  0
  8  9  1  0
  6  4  1  0
  8  4  1  0
  1 10  1  0
  1 11  1  0
  1 12  1  0
  2 13  1  0
  3 14  1  0
  5 15  1  0
  5 16  1  0
  6 17  1  0
  8 18  1  0
  9 19  1  0
  9 20  1  0
  9 21  1  0
M  END
