
     RDKit          3D

 23 23  0  0  0  0  0  0  0  0999 V2000
    2.8271    0.4446    0.0021 C   0  0  0  0  0  0  0  0  0  0  0  0
    1.4759   -0.1623    0.3228 C   0  0  0  0  0  0  0  0  0  0  0  0
    1.1683    0.1449    1.6169 O   0  0  0  0  0  0  0  0  0  0  0  0
    0.4578    0.2457   -0.6889 C   0  0  0  0  0  0  0  0  0  0  0  0
   -0.9076   -0.2842   -0.4859 C   0  0  0  0  0  0  0  0  0  0  0  0
   -1.0462   -1.7737   -0.4865 C   0  0  0  0  0  0  0  0  0  0  0  0
   -1.7522    0.4700    0.4992 C   0  0  0  0  0  0  0  0  0  0  0  0
   -2.2199    1.2679   -0.7184 C   0  0  0  0  0  0  0  0  0  0  0  0
   -1.7428    0.2286   -1.5052 O   0  0  0  0  0  0  0  0  0  0  0  0
    2.7969    0.7549   -1.0763 H   0  0  0  0  0  0  0  0  0  0  0  0
    3.6391   -0.2871    0.1743 H   0  0  0  0  0  0  0  0  0  0  0  0
    3.0450    1.3170    0.6659 H   0  0  0  0  0  0  0  0  0  0  0  0
    1.6119   -1.2719    0.2250 H   0  0  0  0  0  0  0  0  0  0  0  0
    1.4104   -0.6131    2.2051 H   0  0  0  0  0  0  0  0  0  0  0  0
    0.7895    0.0077   -1.7199 H   0  0  0  0  0  0  0  0  0  0  0  0
    0.3952    1.3733   -0.6501 H   0  0  0  0  0  0  0  0  0  0  0  0
   -0.2728   -2.3039    0.0859 H   0  0  0  0  0  0  0  0  0  0  0  0
   -2.0245   -2.0955   -0.1042 H   0  0  0  0  0  0  0  0  0  0  0  0
   -0.9841   -2.1155   -1.5419 H   0  0  0  0  0  0  0  0  0  0  0  0
   -1.1675    1.1135    1.1944 H   0  0  0  0  0  0  0  0  0  0  0  0
   -2.5791   -0.0681    0.9615 H   0  0  0  0  0  0  0  0  0  0  0  0
   -3.3077    1.4306   -0.7659 H   0  0  0  0  0  0  0  0  0  0  0  0
   -1.6126    2.1765   -0.8774 H   0  0  0  0  0  0  0  0  0  0  0  0
  1  2  1  0
  2  3  1  0
  2  4  1  0
  4  5  1  0
  5  6  1  0
  5  7  1  0
  7  8  1  0
  8  9  1  0
  9  5  1  0
  1 10  1  0
  1 11  1  0
  1 12  1  0
  2 13  1  0
  3 14  1  0
  4 15  1  0
  4 16  1  0
  6 17  1  0
  6 18  1  0
  6 19  1  0
  7 20  1  0
  7 21  1  0
  8 22  1  0
  8 23  1  0
M  END
