
     RDKit          3D

 21 22  0  0  0  0  0  0  0  0999 V2000
   -2.6247   -0.5749   -0.2799 C   0  0  0  0  0  0  0  0  0  0  0  0
   -1.5898    0.5292   -0.5362 C   0  0  0  0  0  0  0  0  0  0  0  0
   -2.1048    1.6935   -0.0110 O   0  0  0  0  0  0  0  0  0  0  0  0
   -0.3234    0.0876    0.1483 C   0  0  0  0  0  0  0  0  0  0  0  0
    0.8348    1.0132   -0.1010 C   0  0  0  0  0  0  0  0  0  0  0  0
    1.9855    0.0991    0.3488 C   0  0  0  0  0  0  0  0  0  0  0  0
    2.5999   -0.7093   -0.7022 C   0  0  0  0  0  0  0  0  0  0  0  0
    1.4280   -1.2944   -0.0161 C   0  0  0  0  0  0  0  0  0  0  0  0
    0.1376   -1.0907   -0.4329 O   0  0  0  0  0  0  0  0  0  0  0  0
   -2.2208   -1.5380   -0.6575 H   0  0  0  0  0  0  0  0  0  0  0  0
   -3.5296   -0.3422   -0.8584 H   0  0  0  0  0  0  0  0  0  0  0  0
   -2.8985   -0.6172    0.7949 H   0  0  0  0  0  0  0  0  0  0  0  0
   -1.4302    0.5917   -1.6151 H   0  0  0  0  0  0  0  0  0  0  0  0
   -1.6665    2.4748   -0.4494 H   0  0  0  0  0  0  0  0  0  0  0  0
   -0.4573    0.0043    1.2383 H   0  0  0  0  0  0  0  0  0  0  0  0
    0.9876    1.2398   -1.1689 H   0  0  0  0  0  0  0  0  0  0  0  0
    0.8475    1.9005    0.5443 H   0  0  0  0  0  0  0  0  0  0  0  0
    2.3398    0.1710    1.3781 H   0  0  0  0  0  0  0  0  0  0  0  0
    3.5770   -1.2161   -0.5074 H   0  0  0  0  0  0  0  0  0  0  0  0
    2.5168   -0.3119   -1.7446 H   0  0  0  0  0  0  0  0  0  0  0  0
    1.5910   -2.1099    0.7086 H   0  0  0  0  0  0  0  0  0  0  0  0
  1  2  1  0
  2  3  1  0
  2  4  1  0
  4  5  1  0
  5  6  1  0
  6  7  1  0
  7  8  1  0
  8  9  1  0
  9  4  1  0
  8  6  1  0
  1 10  1  0
  1 11  1  0
  1 12  1  0
  2 13  1  0
  3 14  1  0
  4 15  1  0
  5 16  1  0
  5 17  1  0
  6 18  1  0
  7 19  1  0
  7 20  1  0
  8 21  1  0
M  END
