
     RDKit          3D

 21 22  0  0  0  0  0  0  0  0999 V2000
   -2.0554   -0.0349    0.8495 C   0  0  0  0  0  0  0  0  0  0  0  0
   -1.2440    0.8573   -0.0583 C   0  0  0  0  0  0  0  0  0  0  0  0
   -2.0721    1.1208   -1.1712 O   0  0  0  0  0  0  0  0  0  0  0  0
   -0.0451    0.1345   -0.5539 C   0  0  0  0  0  0  0  0  0  0  0  0
    0.0100   -1.3630   -0.4502 C   0  0  0  0  0  0  0  0  0  0  0  0
    1.5382   -1.2281   -0.4096 C   0  0  0  0  0  0  0  0  0  0  0  0
    1.2845    0.2850   -0.3494 C   0  0  0  0  0  0  0  0  0  0  0  0
    2.0763    1.1113    0.5947 C   0  0  0  0  0  0  0  0  0  0  0  0
    0.7328    0.7957   -1.4893 O   0  0  0  0  0  0  0  0  0  0  0  0
   -1.4878   -0.4734    1.6654 H   0  0  0  0  0  0  0  0  0  0  0  0
   -2.9208    0.5011    1.2965 H   0  0  0  0  0  0  0  0  0  0  0  0
   -2.4628   -0.8670    0.2349 H   0  0  0  0  0  0  0  0  0  0  0  0
   -1.0224    1.8351    0.3973 H   0  0  0  0  0  0  0  0  0  0  0  0
   -2.3303    0.2323   -1.5436 H   0  0  0  0  0  0  0  0  0  0  0  0
   -0.3261   -1.7279    0.5525 H   0  0  0  0  0  0  0  0  0  0  0  0
   -0.3839   -1.9008   -1.3096 H   0  0  0  0  0  0  0  0  0  0  0  0
    2.0159   -1.6489    0.4744 H   0  0  0  0  0  0  0  0  0  0  0  0
    1.9340   -1.5452   -1.3994 H   0  0  0  0  0  0  0  0  0  0  0  0
    2.8324    0.4683    1.1225 H   0  0  0  0  0  0  0  0  0  0  0  0
    2.5448    2.0040    0.1283 H   0  0  0  0  0  0  0  0  0  0  0  0
    1.3818    1.4437    1.4185 H   0  0  0  0  0  0  0  0  0  0  0  0
  1  2  1  0
  2  3  1  0
  2  4  1  0
  4  5  1  0
  5  6  1  0
  6  7  1  0
  7  8  1  0
  7  9  1  0
  7  4  1  0
  9  4  1  0
  1 10  1  0
  1 11  1  0
  1 12  1  0
  2 13  1  0
  3 14  1  0
  5 15  1  0
  5 16  1  0
  6 17  1  0
  6 18  1  0
  8 19  1  0
  8 20  1  0
  8 21  1  0
M  END
