
     RDKit          3D

 22 21  0  0  0  0  0  0  0  0999 V2000
    1.9422    0.4015   -0.8043 C   0  0  0  0  0  0  0  0  0  0  0  0
    1.1281   -0.4470    0.1277 C   0  0  0  0  0  0  0  0  0  0  0  0
    1.2638   -1.7692   -0.2591 O   0  0  0  0  0  0  0  0  0  0  0  0
   -0.3193   -0.0461    0.1855 C   0  0  0  0  0  0  0  0  0  0  0  0
   -0.9921   -0.1453   -1.1671 C   0  0  0  0  0  0  0  0  0  0  0  0
   -1.0176   -1.0631    1.0931 C   0  0  0  0  0  0  0  0  0  0  0  0
   -0.5364    1.3398    0.6979 C   0  0  0  0  0  0  0  0  0  0  0  0
   -1.9091    1.5853    0.7016 O   0  0  0  0  0  0  0  0  0  0  0  0
    1.9663    1.4783   -0.4769 H   0  0  0  0  0  0  0  0  0  0  0  0
    2.9969    0.0577   -0.7221 H   0  0  0  0  0  0  0  0  0  0  0  0
    1.6541    0.2968   -1.8590 H   0  0  0  0  0  0  0  0  0  0  0  0
    1.5669   -0.3519    1.1416 H   0  0  0  0  0  0  0  0  0  0  0  0
    1.8257   -2.3134    0.3133 H   0  0  0  0  0  0  0  0  0  0  0  0
   -1.0341   -1.2243   -1.4762 H   0  0  0  0  0  0  0  0  0  0  0  0
   -0.5062    0.4894   -1.9229 H   0  0  0  0  0  0  0  0  0  0  0  0
   -2.0550    0.1482   -1.0122 H   0  0  0  0  0  0  0  0  0  0  0  0
   -0.2995   -1.4859    1.8343 H   0  0  0  0  0  0  0  0  0  0  0  0
   -1.8757   -0.5927    1.6230 H   0  0  0  0  0  0  0  0  0  0  0  0
   -1.3766   -1.9130    0.4786 H   0  0  0  0  0  0  0  0  0  0  0  0
   -0.0927    1.5113    1.7075 H   0  0  0  0  0  0  0  0  0  0  0  0
   -0.1046    2.0466   -0.0560 H   0  0  0  0  0  0  0  0  0  0  0  0
   -2.2250    1.9972   -0.1483 H   0  0  0  0  0  0  0  0  0  0  0  0
  1  2  1  0
  2  3  1  0
  2  4  1  0
  4  5  1  0
  4  6  1  0
  4  7  1  0
  7  8  1  0
  1  9  1  0
  1 10  1  0
  1 11  1  0
  2 12  1  0
  3 13  1  0
  5 14  1  0
  5 15  1  0
  5 16  1  0
  6 17  1  0
  6 18  1  0
  6 19  1  0
  7 20  1  0
  7 21  1  0
  8 22  1  0
M  END
