
     RDKit          3D

 25 25  0  0  0  0  0  0  0  0999 V2000
    2.6624    0.8453    0.0805 C   0  0  0  0  0  0  0  0  0  0  0  0
    1.5714   -0.0928    0.4680 C   0  0  0  0  0  0  0  0  0  0  0  0
    1.2168    0.1292    1.8086 O   0  0  0  0  0  0  0  0  0  0  0  0
    0.3407    0.0453   -0.4150 C   0  0  0  0  0  0  0  0  0  0  0  0
    0.7315   -0.2457   -1.8263 C   0  0  0  0  0  0  0  0  0  0  0  0
   -0.7315   -0.8993    0.0556 C   0  0  0  0  0  0  0  0  0  0  0  0
   -2.0393   -0.9867   -0.6099 C   0  0  0  0  0  0  0  0  0  0  0  0
   -1.9051   -0.4493    0.8151 C   0  0  0  0  0  0  0  0  0  0  0  0
   -2.2936    0.9918    0.9399 C   0  0  0  0  0  0  0  0  0  0  0  0
    3.5886    0.2509   -0.0980 H   0  0  0  0  0  0  0  0  0  0  0  0
    2.9213    1.5590    0.9081 H   0  0  0  0  0  0  0  0  0  0  0  0
    2.3864    1.4775   -0.7836 H   0  0  0  0  0  0  0  0  0  0  0  0
    1.9044   -1.1589    0.4127 H   0  0  0  0  0  0  0  0  0  0  0  0
    1.9192   -0.3141    2.3486 H   0  0  0  0  0  0  0  0  0  0  0  0
    0.0216    1.1112   -0.3346 H   0  0  0  0  0  0  0  0  0  0  0  0
    0.5577   -1.3458   -2.0043 H   0  0  0  0  0  0  0  0  0  0  0  0
    1.7845   -0.0378   -2.0096 H   0  0  0  0  0  0  0  0  0  0  0  0
    0.1321    0.3494   -2.5522 H   0  0  0  0  0  0  0  0  0  0  0  0
   -0.3067   -1.8923    0.3861 H   0  0  0  0  0  0  0  0  0  0  0  0
   -2.5727   -1.9589   -0.7330 H   0  0  0  0  0  0  0  0  0  0  0  0
   -2.2542   -0.2827   -1.4271 H   0  0  0  0  0  0  0  0  0  0  0  0
   -2.2940   -1.0868    1.6445 H   0  0  0  0  0  0  0  0  0  0  0  0
   -1.9402    1.6096    0.1044 H   0  0  0  0  0  0  0  0  0  0  0  0
   -1.9793    1.3615    1.9378 H   0  0  0  0  0  0  0  0  0  0  0  0
   -3.4221    1.0206    0.8839 H   0  0  0  0  0  0  0  0  0  0  0  0
  1  2  1  0
  2  3  1  0
  2  4  1  0
  4  5  1  0
  4  6  1  0
  6  7  1  0
  7  8  1  0
  8  9  1  0
  8  6  1  0
  1 10  1  0
  1 11  1  0
  1 12  1  0
  2 13  1  0
  3 14  1  0
  4 15  1  0
  5 16  1  0
  5 17  1  0
  5 18  1  0
  6 19  1  0
  7 20  1  0
  7 21  1  0
  8 22  1  0
  9 23  1  0
  9 24  1  0
  9 25  1  0
M  END
