
     RDKit          3D

 21 21  0  0  0  0  0  0  0  0999 V2000
    2.5083    0.0276   -0.3832 C   0  0  0  0  0  0  0  0  0  0  0  0
    1.3763   -0.2142    0.5926 C   0  0  0  0  0  0  0  0  0  0  0  0
    1.6515   -1.4088    1.2842 O   0  0  0  0  0  0  0  0  0  0  0  0
    0.1192   -0.4345   -0.1758 C   0  0  0  0  0  0  0  0  0  0  0  0
   -1.1202   -0.6935    0.6611 C   0  0  0  0  0  0  0  0  0  0  0  0
   -1.8476   -0.0835   -0.5249 C   0  0  0  0  0  0  0  0  0  0  0  0
   -3.0332    0.5438   -0.2429 O   0  0  0  0  0  0  0  0  0  0  0  0
   -0.6235    0.8290   -0.6097 C   0  0  0  0  0  0  0  0  0  0  0  0
   -0.6921    1.7796    0.3825 O   0  0  0  0  0  0  0  0  0  0  0  0
    3.0265   -0.9471   -0.6059 H   0  0  0  0  0  0  0  0  0  0  0  0
    2.1506    0.4419   -1.3325 H   0  0  0  0  0  0  0  0  0  0  0  0
    3.2797    0.7082    0.0630 H   0  0  0  0  0  0  0  0  0  0  0  0
    1.3405    0.6156    1.2991 H   0  0  0  0  0  0  0  0  0  0  0  0
    1.6138   -1.2887    2.2630 H   0  0  0  0  0  0  0  0  0  0  0  0
    0.1700   -1.1284   -1.0133 H   0  0  0  0  0  0  0  0  0  0  0  0
   -1.2247   -0.0160    1.5325 H   0  0  0  0  0  0  0  0  0  0  0  0
   -1.3687   -1.7405    0.8160 H   0  0  0  0  0  0  0  0  0  0  0  0
   -1.8583   -0.8308   -1.3441 H   0  0  0  0  0  0  0  0  0  0  0  0
   -3.7169    0.2006   -0.8861 H   0  0  0  0  0  0  0  0  0  0  0  0
   -0.3811    1.1782   -1.6262 H   0  0  0  0  0  0  0  0  0  0  0  0
   -1.3702    2.4614    0.1125 H   0  0  0  0  0  0  0  0  0  0  0  0
  1  2  1  0
  2  3  1  0
  2  4  1  0
  4  5  1  0
  5  6  1  0
  6  7  1  0
  6  8  1  0
  8  9  1  0
  8  4  1  0
  1 10  1  0
  1 11  1  0
  1 12  1  0
  2 13  1  0
  3 14  1  0
  4 15  1  0
  5 16  1  0
  5 17  1  0
  6 18  1  0
  7 19  1  0
  8 20  1  0
  9 21  1  0
M  END
