
     RDKit          3D

 19 19  0  0  0  0  0  0  0  0999 V2000
   -0.3061   -0.3499   -1.6607 C   0  0  0  0  0  0  0  0  0  0  0  0
   -0.5903    0.1635   -0.2634 C   0  0  0  0  0  0  0  0  0  0  0  0
   -0.9783    1.4933   -0.2348 O   0  0  0  0  0  0  0  0  0  0  0  0
   -2.2263    1.8547    0.2378 C   0  0  0  0  0  0  0  0  0  0  0  0
   -2.9761    0.9283    0.6330 O   0  0  0  0  0  0  0  0  0  0  0  0
    0.6292   -0.1384    0.5713 C   0  0  0  0  0  0  0  0  0  0  0  0
    1.9761   -0.0518   -0.0986 C   0  0  0  0  0  0  0  0  0  0  0  0
    0.5314   -1.2334    1.6128 C   0  0  0  0  0  0  0  0  0  0  0  0
    0.6085    0.1064    1.9366 O   0  0  0  0  0  0  0  0  0  0  0  0
   -1.2496   -0.4754   -2.2203 H   0  0  0  0  0  0  0  0  0  0  0  0
    0.1258   -1.3690   -1.5353 H   0  0  0  0  0  0  0  0  0  0  0  0
    0.4127    0.3262   -2.1969 H   0  0  0  0  0  0  0  0  0  0  0  0
   -1.4151   -0.4600    0.1328 H   0  0  0  0  0  0  0  0  0  0  0  0
   -2.5616    2.8895    0.2737 H   0  0  0  0  0  0  0  0  0  0  0  0
    2.1851   -0.9488   -0.7286 H   0  0  0  0  0  0  0  0  0  0  0  0
    2.7817   -0.0242    0.6696 H   0  0  0  0  0  0  0  0  0  0  0  0
    2.0979    0.8490   -0.7169 H   0  0  0  0  0  0  0  0  0  0  0  0
    1.4315   -1.8605    1.8148 H   0  0  0  0  0  0  0  0  0  0  0  0
   -0.4768   -1.6995    1.7732 H   0  0  0  0  0  0  0  0  0  0  0  0
  1  2  1  0
  2  3  1  0
  3  4  1  0
  4  5  2  0
  2  6  1  0
  6  7  1  0
  6  8  1  0
  8  9  1  0
  9  6  1  0
  1 10  1  0
  1 11  1  0
  1 12  1  0
  2 13  1  0
  4 14  1  0
  7 15  1  0
  7 16  1  0
  7 17  1  0
  8 18  1  0
  8 19  1  0
M  END
