
     RDKit          3D

 15 14  0  0  0  0  0  0  0  0999 V2000
   -1.8942   -1.2925   -0.3028 C   0  0  0  0  0  0  0  0  0  0  0  0
   -1.5964    0.1145   -0.8052 C   0  0  0  0  0  0  0  0  0  0  0  0
   -2.3385    0.9844   -0.0232 O   0  0  0  0  0  0  0  0  0  0  0  0
   -0.1508    0.3151   -0.5934 C   0  0  0  0  0  0  0  0  0  0  0  0
    1.0315    0.4996   -0.4141 C   0  0  0  0  0  0  0  0  0  0  0  0
    2.4757    0.7190   -0.2076 C   0  0  0  0  0  0  0  0  0  0  0  0
    3.1841   -0.2499   -0.9012 O   0  0  0  0  0  0  0  0  0  0  0  0
   -2.9414   -1.4163   -0.0055 H   0  0  0  0  0  0  0  0  0  0  0  0
   -1.5841   -2.0636   -1.0555 H   0  0  0  0  0  0  0  0  0  0  0  0
   -1.2681   -1.4435    0.5901 H   0  0  0  0  0  0  0  0  0  0  0  0
   -1.8393    0.2318   -1.8692 H   0  0  0  0  0  0  0  0  0  0  0  0
   -2.2219    1.9252   -0.2270 H   0  0  0  0  0  0  0  0  0  0  0  0
    2.7232    0.7139    0.8836 H   0  0  0  0  0  0  0  0  0  0  0  0
    2.6917    1.7278   -0.5694 H   0  0  0  0  0  0  0  0  0  0  0  0
    3.7286   -0.7656   -0.2419 H   0  0  0  0  0  0  0  0  0  0  0  0
  1  2  1  0
  2  3  1  0
  2  4  1  0
  4  5  3  0
  5  6  1  0
  6  7  1  0
  1  8  1  0
  1  9  1  0
  1 10  1  0
  2 11  1  0
  3 12  1  0
  6 13  1  0
  6 14  1  0
  7 15  1  0
M  END
