
     RDKit          3D

 19 18  0  0  0  0  0  0  0  0999 V2000
   -2.0244   -0.8803    0.1540 C   0  0  0  0  0  0  0  0  0  0  0  0
   -1.5999    0.5569    0.2705 C   0  0  0  0  0  0  0  0  0  0  0  0
   -2.7360    1.3480    0.0052 O   0  0  0  0  0  0  0  0  0  0  0  0
   -0.5617    0.9442   -0.7446 C   0  0  0  0  0  0  0  0  0  0  0  0
   -0.3081    2.3206   -0.5610 O   0  0  0  0  0  0  0  0  0  0  0  0
    0.6614    0.1804   -0.4243 C   0  0  0  0  0  0  0  0  0  0  0  0
    1.6697   -0.4282   -0.1647 C   0  0  0  0  0  0  0  0  0  0  0  0
    2.8722   -1.1816    0.1389 C   0  0  0  0  0  0  0  0  0  0  0  0
    4.0258   -0.4114   -0.0149 O   0  0  0  0  0  0  0  0  0  0  0  0
   -2.9692   -0.9642   -0.4252 H   0  0  0  0  0  0  0  0  0  0  0  0
   -1.2591   -1.5258   -0.3321 H   0  0  0  0  0  0  0  0  0  0  0  0
   -2.2006   -1.3406    1.1689 H   0  0  0  0  0  0  0  0  0  0  0  0
   -1.2247    0.7899    1.2769 H   0  0  0  0  0  0  0  0  0  0  0  0
   -3.2505    1.3707    0.8511 H   0  0  0  0  0  0  0  0  0  0  0  0
   -0.8699    0.7296   -1.7755 H   0  0  0  0  0  0  0  0  0  0  0  0
   -0.7993    2.8591   -1.2274 H   0  0  0  0  0  0  0  0  0  0  0  0
    2.8423   -1.5010    1.1948 H   0  0  0  0  0  0  0  0  0  0  0  0
    2.9130   -2.0425   -0.5444 H   0  0  0  0  0  0  0  0  0  0  0  0
    4.8189   -0.8237    0.3648 H   0  0  0  0  0  0  0  0  0  0  0  0
  1  2  1  0
  2  3  1  0
  2  4  1  0
  4  5  1  0
  4  6  1  0
  6  7  3  0
  7  8  1  0
  8  9  1  0
  1 10  1  0
  1 11  1  0
  1 12  1  0
  2 13  1  0
  3 14  1  0
  4 15  1  0
  5 16  1  0
  8 17  1  0
  8 18  1  0
  9 19  1  0
M  END
