
     RDKit          3D

 21 22  0  0  0  0  0  0  0  0999 V2000
    2.4654    0.1063    0.4685 C   0  0  0  0  0  0  0  0  0  0  0  0
    1.4054    0.4844   -0.5703 C   0  0  0  0  0  0  0  0  0  0  0  0
    1.3136   -0.4972   -1.5226 O   0  0  0  0  0  0  0  0  0  0  0  0
    0.1196    0.5912    0.1769 C   0  0  0  0  0  0  0  0  0  0  0  0
   -1.1013    0.9533   -0.6015 C   0  0  0  0  0  0  0  0  0  0  0  0
   -1.8183   -0.2366   -0.0557 C   0  0  0  0  0  0  0  0  0  0  0  0
   -2.5718   -1.0239   -0.9131 O   0  0  0  0  0  0  0  0  0  0  0  0
   -1.7400   -0.6356    1.3638 C   0  0  0  0  0  0  0  0  0  0  0  0
   -0.5321   -0.7286    0.5146 C   0  0  0  0  0  0  0  0  0  0  0  0
    3.4666    0.0649    0.0505 H   0  0  0  0  0  0  0  0  0  0  0  0
    2.1750   -0.9253    0.8113 H   0  0  0  0  0  0  0  0  0  0  0  0
    2.4225    0.7959    1.3355 H   0  0  0  0  0  0  0  0  0  0  0  0
    1.6806    1.4828   -0.9602 H   0  0  0  0  0  0  0  0  0  0  0  0
    2.1213   -1.0423   -1.6428 H   0  0  0  0  0  0  0  0  0  0  0  0
    0.2584    1.2591    1.0707 H   0  0  0  0  0  0  0  0  0  0  0  0
   -0.9205    0.8884   -1.6931 H   0  0  0  0  0  0  0  0  0  0  0  0
   -1.5884    1.9267   -0.3288 H   0  0  0  0  0  0  0  0  0  0  0  0
   -3.1262   -0.4024   -1.4528 H   0  0  0  0  0  0  0  0  0  0  0  0
   -2.2174   -1.5802    1.6335 H   0  0  0  0  0  0  0  0  0  0  0  0
   -1.7158    0.1859    2.1374 H   0  0  0  0  0  0  0  0  0  0  0  0
   -0.0966   -1.6668    0.1782 H   0  0  0  0  0  0  0  0  0  0  0  0
  1  2  1  0
  2  3  1  0
  2  4  1  0
  4  5  1  0
  5  6  1  0
  6  7  1  0
  6  8  1  0
  8  9  1  0
  9  4  1  0
  9  6  1  0
  1 10  1  0
  1 11  1  0
  1 12  1  0
  2 13  1  0
  3 14  1  0
  4 15  1  0
  5 16  1  0
  5 17  1  0
  7 18  1  0
  8 19  1  0
  8 20  1  0
  9 21  1  0
M  END
