
     RDKit          3D

 23 24  0  0  0  0  0  0  0  0999 V2000
    2.5415   -0.2425    0.4380 C   0  0  0  0  0  0  0  0  0  0  0  0
    1.4693    0.5505   -0.2921 C   0  0  0  0  0  0  0  0  0  0  0  0
    1.3605    0.1553   -1.6080 O   0  0  0  0  0  0  0  0  0  0  0  0
    0.1955    0.4023    0.4450 C   0  0  0  0  0  0  0  0  0  0  0  0
   -0.2492   -1.0725    0.5333 C   0  0  0  0  0  0  0  0  0  0  0  0
   -1.6968   -0.8822    0.1709 C   0  0  0  0  0  0  0  0  0  0  0  0
   -1.5724   -0.1025   -1.1386 C   0  0  0  0  0  0  0  0  0  0  0  0
   -1.0137    0.9779   -0.2010 C   0  0  0  0  0  0  0  0  0  0  0  0
   -2.1015    0.4752    0.7662 C   0  0  0  0  0  0  0  0  0  0  0  0
    2.1869   -0.6181    1.4106 H   0  0  0  0  0  0  0  0  0  0  0  0
    3.4540    0.3663    0.6272 H   0  0  0  0  0  0  0  0  0  0  0  0
    2.8081   -1.1271   -0.1691 H   0  0  0  0  0  0  0  0  0  0  0  0
    1.7809    1.6124   -0.2283 H   0  0  0  0  0  0  0  0  0  0  0  0
    2.1484    0.5427   -2.0930 H   0  0  0  0  0  0  0  0  0  0  0  0
    0.2689    0.7398    1.4909 H   0  0  0  0  0  0  0  0  0  0  0  0
    0.2695   -1.5821   -0.2929 H   0  0  0  0  0  0  0  0  0  0  0  0
   -0.0788   -1.4897    1.5230 H   0  0  0  0  0  0  0  0  0  0  0  0
   -2.3843   -1.6774    0.2259 H   0  0  0  0  0  0  0  0  0  0  0  0
   -2.5257    0.2127   -1.5735 H   0  0  0  0  0  0  0  0  0  0  0  0
   -0.8458   -0.5828   -1.7885 H   0  0  0  0  0  0  0  0  0  0  0  0
   -1.0647    1.9833   -0.5148 H   0  0  0  0  0  0  0  0  0  0  0  0
   -1.8467    0.6006    1.8240 H   0  0  0  0  0  0  0  0  0  0  0  0
   -3.1037    0.7580    0.4450 H   0  0  0  0  0  0  0  0  0  0  0  0
  1  2  1  0
  2  3  1  0
  2  4  1  0
  4  5  1  0
  5  6  1  0
  6  7  1  0
  7  8  1  0
  8  9  1  0
  8  4  1  0
  9  6  1  0
  1 10  1  0
  1 11  1  0
  1 12  1  0
  2 13  1  0
  3 14  1  0
  4 15  1  0
  5 16  1  0
  5 17  1  0
  6 18  1  0
  7 19  1  0
  7 20  1  0
  8 21  1  0
  9 22  1  0
  9 23  1  0
M  END
