
     RDKit          3D

 22 22  0  0  0  0  0  0  0  0999 V2000
    1.8517   -1.1254   -0.2699 C   0  0  0  0  0  0  0  0  0  0  0  0
    1.6489    0.2441    0.2245 C   0  0  0  0  0  0  0  0  0  0  0  0
    2.1961    0.3252    1.5271 O   0  0  0  0  0  0  0  0  0  0  0  0
    0.2873    0.7926    0.2380 C   0  0  0  0  0  0  0  0  0  0  0  0
   -0.3816    0.8569   -1.1489 C   0  0  0  0  0  0  0  0  0  0  0  0
   -0.9711    0.1048    0.0646 C   0  0  0  0  0  0  0  0  0  0  0  0
   -2.2257    0.8003    0.6230 C   0  0  0  0  0  0  0  0  0  0  0  0
   -1.1648   -1.3414   -0.1815 C   0  0  0  0  0  0  0  0  0  0  0  0
    1.6853   -1.1583   -1.3865 H   0  0  0  0  0  0  0  0  0  0  0  0
    1.3484   -1.9215    0.2710 H   0  0  0  0  0  0  0  0  0  0  0  0
    2.9577   -1.3507   -0.1767 H   0  0  0  0  0  0  0  0  0  0  0  0
    2.3013    0.9334   -0.3861 H   0  0  0  0  0  0  0  0  0  0  0  0
    2.3562    1.2957    1.6793 H   0  0  0  0  0  0  0  0  0  0  0  0
    0.2395    1.7993    0.7561 H   0  0  0  0  0  0  0  0  0  0  0  0
    0.0736    0.2528   -1.9542 H   0  0  0  0  0  0  0  0  0  0  0  0
   -0.8556    1.7799   -1.4716 H   0  0  0  0  0  0  0  0  0  0  0  0
   -2.2985    1.8428    0.2476 H   0  0  0  0  0  0  0  0  0  0  0  0
   -3.1248    0.2097    0.4390 H   0  0  0  0  0  0  0  0  0  0  0  0
   -2.0459    0.8969    1.7317 H   0  0  0  0  0  0  0  0  0  0  0  0
   -1.0084   -1.9930    0.7110 H   0  0  0  0  0  0  0  0  0  0  0  0
   -2.2496   -1.5096   -0.4550 H   0  0  0  0  0  0  0  0  0  0  0  0
   -0.6199   -1.7343   -1.0825 H   0  0  0  0  0  0  0  0  0  0  0  0
  1  2  1  0
  2  3  1  0
  2  4  1  0
  4  5  1  0
  5  6  1  0
  6  7  1  0
  6  8  1  0
  6  4  1  0
  1  9  1  0
  1 10  1  0
  1 11  1  0
  2 12  1  0
  3 13  1  0
  4 14  1  0
  5 15  1  0
  5 16  1  0
  7 17  1  0
  7 18  1  0
  7 19  1  0
  8 20  1  0
  8 21  1  0
  8 22  1  0
M  END
