
     RDKit          3D

 18 18  0  0  0  0  0  0  0  0999 V2000
    1.4371   -1.1566   -0.1341 C   0  0  0  0  0  0  0  0  0  0  0  0
    0.9211    0.1659   -0.6103 C   0  0  0  0  0  0  0  0  0  0  0  0
    1.7959    1.1507   -0.1537 O   0  0  0  0  0  0  0  0  0  0  0  0
   -0.4532    0.5041   -0.1267 C   0  0  0  0  0  0  0  0  0  0  0  0
   -0.8842    1.7274   -0.5881 O   0  0  0  0  0  0  0  0  0  0  0  0
   -0.7231    0.2970    1.3247 C   0  0  0  0  0  0  0  0  0  0  0  0
   -2.0425   -0.0773    0.9813 O   0  0  0  0  0  0  0  0  0  0  0  0
   -1.4864   -0.5802   -0.2172 C   0  0  0  0  0  0  0  0  0  0  0  0
    0.8684   -2.0239   -0.4694 H   0  0  0  0  0  0  0  0  0  0  0  0
    2.4678   -1.2665   -0.5452 H   0  0  0  0  0  0  0  0  0  0  0  0
    1.5588   -1.2030    0.9745 H   0  0  0  0  0  0  0  0  0  0  0  0
    0.9575    0.1619   -1.7155 H   0  0  0  0  0  0  0  0  0  0  0  0
    1.3412    2.0154   -0.0631 H   0  0  0  0  0  0  0  0  0  0  0  0
   -1.5999    1.6835   -1.2419 H   0  0  0  0  0  0  0  0  0  0  0  0
   -0.2181   -0.5592    1.7946 H   0  0  0  0  0  0  0  0  0  0  0  0
   -0.6680    1.2357    1.8888 H   0  0  0  0  0  0  0  0  0  0  0  0
   -1.0733   -1.5804   -0.0285 H   0  0  0  0  0  0  0  0  0  0  0  0
   -2.1994   -0.4947   -1.0700 H   0  0  0  0  0  0  0  0  0  0  0  0
  1  2  1  0
  2  3  1  0
  2  4  1  0
  4  5  1  0
  4  6  1  0
  6  7  1  0
  7  8  1  0
  8  4  1  0
  1  9  1  0
  1 10  1  0
  1 11  1  0
  2 12  1  0
  3 13  1  0
  5 14  1  0
  6 15  1  0
  6 16  1  0
  8 17  1  0
  8 18  1  0
M  END
