
     RDKit          3D

 21 22  0  0  0  0  0  0  0  0999 V2000
    2.3054   -0.0083    0.6097 C   0  0  0  0  0  0  0  0  0  0  0  0
    1.2395   -0.1036   -0.4594 C   0  0  0  0  0  0  0  0  0  0  0  0
    1.4642   -1.2895   -1.1587 O   0  0  0  0  0  0  0  0  0  0  0  0
   -0.0960   -0.0684    0.0443 C   0  0  0  0  0  0  0  0  0  0  0  0
   -0.6080   -1.0743    0.9928 C   0  0  0  0  0  0  0  0  0  0  0  0
   -1.8867   -0.6618    1.1910 C   0  0  0  0  0  0  0  0  0  0  0  0
   -1.9696    0.5516    0.3917 C   0  0  0  0  0  0  0  0  0  0  0  0
   -0.6195    1.2267    0.6806 C   0  0  0  0  0  0  0  0  0  0  0  0
   -1.2693    0.0974   -0.9012 C   0  0  0  0  0  0  0  0  0  0  0  0
    3.3158   -0.1940    0.2123 H   0  0  0  0  0  0  0  0  0  0  0  0
    2.3050    1.0330    1.0038 H   0  0  0  0  0  0  0  0  0  0  0  0
    2.0682   -0.6694    1.4776 H   0  0  0  0  0  0  0  0  0  0  0  0
    1.4316    0.7335   -1.1623 H   0  0  0  0  0  0  0  0  0  0  0  0
    1.4120   -1.1596   -2.1423 H   0  0  0  0  0  0  0  0  0  0  0  0
   -0.1139   -1.9348    1.4366 H   0  0  0  0  0  0  0  0  0  0  0  0
   -2.6259   -1.1542    1.8058 H   0  0  0  0  0  0  0  0  0  0  0  0
   -2.8264    1.1499    0.3138 H   0  0  0  0  0  0  0  0  0  0  0  0
   -0.3853    2.0644    0.0095 H   0  0  0  0  0  0  0  0  0  0  0  0
   -0.3898    1.3428    1.7410 H   0  0  0  0  0  0  0  0  0  0  0  0
   -1.6668   -0.8227   -1.3333 H   0  0  0  0  0  0  0  0  0  0  0  0
   -1.0844    0.9411   -1.5896 H   0  0  0  0  0  0  0  0  0  0  0  0
  1  2  1  0
  2  3  1  0
  2  4  1  0
  4  5  1  0
  5  6  2  0
  6  7  1  0
  7  8  1  0
  7  9  1  0
  8  4  1  0
  9  4  1  0
  1 10  1  0
  1 11  1  0
  1 12  1  0
  2 13  1  0
  3 14  1  0
  5 15  1  0
  6 16  1  0
  7 17  1  0
  8 18  1  0
  8 19  1  0
  9 20  1  0
  9 21  1  0
M  END
