
     RDKit          3D

 17 16  0  0  0  0  0  0  0  0999 V2000
   -0.7736   -1.4447    0.5270 C   0  0  0  0  0  0  0  0  0  0  0  0
   -0.5619   -0.1024   -0.1589 C   0  0  0  0  0  0  0  0  0  0  0  0
   -1.4847    0.7921    0.3742 O   0  0  0  0  0  0  0  0  0  0  0  0
   -2.3994    1.5275   -0.3510 C   0  0  0  0  0  0  0  0  0  0  0  0
   -2.4221    1.3978   -1.5956 O   0  0  0  0  0  0  0  0  0  0  0  0
    0.8176    0.4107    0.1806 C   0  0  0  0  0  0  0  0  0  0  0  0
    0.9737    1.4346    0.8124 O   0  0  0  0  0  0  0  0  0  0  0  0
    2.0029   -0.3574   -0.2704 C   0  0  0  0  0  0  0  0  0  0  0  0
    3.1628    0.2864    0.1457 O   0  0  0  0  0  0  0  0  0  0  0  0
   -0.5779   -2.2834   -0.1658 H   0  0  0  0  0  0  0  0  0  0  0  0
   -0.1344   -1.4575    1.4275 H   0  0  0  0  0  0  0  0  0  0  0  0
   -1.8431   -1.5261    0.8657 H   0  0  0  0  0  0  0  0  0  0  0  0
   -0.6011   -0.1995   -1.2568 H   0  0  0  0  0  0  0  0  0  0  0  0
   -3.0538    2.1824    0.1970 H   0  0  0  0  0  0  0  0  0  0  0  0
    1.9678   -1.3484    0.2675 H   0  0  0  0  0  0  0  0  0  0  0  0
    1.9919   -0.5181   -1.3729 H   0  0  0  0  0  0  0  0  0  0  0  0
    2.9355    1.2061    0.3737 H   0  0  0  0  0  0  0  0  0  0  0  0
  1  2  1  0
  2  3  1  0
  3  4  1  0
  4  5  2  0
  2  6  1  0
  6  7  2  0
  6  8  1  0
  8  9  1  0
  1 10  1  0
  1 11  1  0
  1 12  1  0
  2 13  1  0
  4 14  1  0
  8 15  1  0
  8 16  1  0
  9 17  1  0
M  END
