
     RDKit          3D

 19 19  0  0  0  0  0  0  0  0999 V2000
   -1.6519   -0.5465    2.7420 C   0  0  0  0  0  0  0  0  0  0  0  0
   -1.4877   -1.3511    1.4756 C   0  0  0  0  0  0  0  0  0  0  0  0
   -0.7422   -2.4918    1.7221 O   0  0  0  0  0  0  0  0  0  0  0  0
   -0.7684   -0.5669    0.4478 C   0  0  0  0  0  0  0  0  0  0  0  0
   -0.1210    0.1360   -0.4454 C   0  0  0  0  0  0  0  0  0  0  0  0
    0.5582    0.8767   -1.3524 C   0  0  0  0  0  0  0  0  0  0  0  0
   -0.2346    1.5489   -2.3898 O   0  0  0  0  0  0  0  0  0  0  0  0
    1.7935    0.2033   -1.9555 C   0  0  0  0  0  0  0  0  0  0  0  0
    1.8844    1.4711   -1.1928 C   0  0  0  0  0  0  0  0  0  0  0  0
   -0.9440    0.3251    2.6393 H   0  0  0  0  0  0  0  0  0  0  0  0
   -2.6491   -0.1052    2.8872 H   0  0  0  0  0  0  0  0  0  0  0  0
   -1.3089   -1.0830    3.6618 H   0  0  0  0  0  0  0  0  0  0  0  0
   -2.4820   -1.6161    1.0714 H   0  0  0  0  0  0  0  0  0  0  0  0
    0.1408   -2.5109    1.3239 H   0  0  0  0  0  0  0  0  0  0  0  0
   -0.4563    2.4477   -2.1361 H   0  0  0  0  0  0  0  0  0  0  0  0
    1.7592    0.1430   -3.0408 H   0  0  0  0  0  0  0  0  0  0  0  0
    2.1759   -0.7330   -1.4510 H   0  0  0  0  0  0  0  0  0  0  0  0
    2.1400    2.3945   -1.7804 H   0  0  0  0  0  0  0  0  0  0  0  0
    2.3939    1.4579   -0.1772 H   0  0  0  0  0  0  0  0  0  0  0  0
  1  2  1  0
  2  3  1  0
  2  4  1  0
  4  5  3  0
  5  6  1  0
  6  7  1  0
  6  8  1  0
  8  9  1  0
  9  6  1  0
  1 10  1  0
  1 11  1  0
  1 12  1  0
  2 13  1  0
  3 14  1  0
  7 15  1  0
  8 16  1  0
  8 17  1  0
  9 18  1  0
  9 19  1  0
M  END
