
     RDKit          3D

 21 22  0  0  0  0  0  0  0  0999 V2000
    1.9297   -0.6108   -0.8690 C   0  0  0  0  0  0  0  0  0  0  0  0
    0.5722   -0.9121   -0.2819 C   0  0  0  0  0  0  0  0  0  0  0  0
   -0.2659   -1.2688   -1.3324 O   0  0  0  0  0  0  0  0  0  0  0  0
    0.0111    0.2046    0.5311 C   0  0  0  0  0  0  0  0  0  0  0  0
   -1.3464   -0.0349    1.1484 C   0  0  0  0  0  0  0  0  0  0  0  0
   -2.4625   -0.2844    0.1775 C   0  0  0  0  0  0  0  0  0  0  0  0
   -1.8999   -1.2987    0.9548 O   0  0  0  0  0  0  0  0  0  0  0  0
    0.1429    1.6253   -0.0405 C   0  0  0  0  0  0  0  0  0  0  0  0
    0.8643    1.1968    1.2136 C   0  0  0  0  0  0  0  0  0  0  0  0
    1.9634   -0.8167   -1.9777 H   0  0  0  0  0  0  0  0  0  0  0  0
    2.7330   -1.2495   -0.4421 H   0  0  0  0  0  0  0  0  0  0  0  0
    2.2482    0.4267   -0.7481 H   0  0  0  0  0  0  0  0  0  0  0  0
    0.7007   -1.8336    0.3366 H   0  0  0  0  0  0  0  0  0  0  0  0
   -0.2773   -2.2682   -1.4715 H   0  0  0  0  0  0  0  0  0  0  0  0
   -1.6429    0.5613    2.0306 H   0  0  0  0  0  0  0  0  0  0  0  0
   -3.5165   -0.0743    0.5090 H   0  0  0  0  0  0  0  0  0  0  0  0
   -2.2914   -0.2508   -0.9119 H   0  0  0  0  0  0  0  0  0  0  0  0
    0.7017    1.7350   -0.9874 H   0  0  0  0  0  0  0  0  0  0  0  0
   -0.6518    2.3468    0.1206 H   0  0  0  0  0  0  0  0  0  0  0  0
    0.5213    1.5942    2.1902 H   0  0  0  0  0  0  0  0  0  0  0  0
    1.9659    1.2122    1.1133 H   0  0  0  0  0  0  0  0  0  0  0  0
  1  2  1  0
  2  3  1  0
  2  4  1  0
  4  5  1  0
  5  6  1  0
  6  7  1  0
  4  8  1  0
  8  9  1  0
  9  4  1  0
  7  5  1  0
  1 10  1  0
  1 11  1  0
  1 12  1  0
  2 13  1  0
  3 14  1  0
  5 15  1  0
  6 16  1  0
  6 17  1  0
  8 18  1  0
  8 19  1  0
  9 20  1  0
  9 21  1  0
M  END
