
     RDKit          3D

 19 20  0  0  0  0  0  0  0  0999 V2000
   -2.1310    0.6889    0.4327 C   0  0  0  0  0  0  0  0  0  0  0  0
   -1.1911   -0.4167    0.0606 C   0  0  0  0  0  0  0  0  0  0  0  0
   -1.5283   -0.8241   -1.2503 O   0  0  0  0  0  0  0  0  0  0  0  0
    0.2148   -0.1074    0.0936 C   0  0  0  0  0  0  0  0  0  0  0  0
    0.7370    0.9596   -0.8463 C   0  0  0  0  0  0  0  0  0  0  0  0
    2.0051    1.0165   -0.4431 C   0  0  0  0  0  0  0  0  0  0  0  0
    2.0207   -0.0033    0.6416 C   0  0  0  0  0  0  0  0  0  0  0  0
    1.2487   -1.1805    0.0891 C   0  0  0  0  0  0  0  0  0  0  0  0
    0.8041    0.3285    1.2909 O   0  0  0  0  0  0  0  0  0  0  0  0
   -2.4409    0.5546    1.4810 H   0  0  0  0  0  0  0  0  0  0  0  0
   -1.6289    1.6784    0.3452 H   0  0  0  0  0  0  0  0  0  0  0  0
   -3.0551    0.6563   -0.2117 H   0  0  0  0  0  0  0  0  0  0  0  0
   -1.4227   -1.2993    0.7010 H   0  0  0  0  0  0  0  0  0  0  0  0
   -2.2323   -1.5128   -1.2359 H   0  0  0  0  0  0  0  0  0  0  0  0
    0.1969    1.4950   -1.6110 H   0  0  0  0  0  0  0  0  0  0  0  0
    2.8581    1.5938   -0.7423 H   0  0  0  0  0  0  0  0  0  0  0  0
    2.8805   -0.1530    1.2287 H   0  0  0  0  0  0  0  0  0  0  0  0
    1.0804   -1.9240    0.8653 H   0  0  0  0  0  0  0  0  0  0  0  0
    1.5839   -1.5507   -0.8890 H   0  0  0  0  0  0  0  0  0  0  0  0
  1  2  1  0
  2  3  1  0
  2  4  1  0
  4  5  1  0
  5  6  2  0
  6  7  1  0
  7  8  1  0
  7  9  1  0
  8  4  1  0
  9  4  1  0
  1 10  1  0
  1 11  1  0
  1 12  1  0
  2 13  1  0
  3 14  1  0
  5 15  1  0
  6 16  1  0
  7 17  1  0
  8 18  1  0
  8 19  1  0
M  END
