
     RDKit          3D

 21 20  0  0  0  0  0  0  0  0999 V2000
   -2.2458    1.4831    0.0593 C   0  0  0  0  0  0  0  0  0  0  0  0
   -2.1523    0.0198    0.3156 C   0  0  0  0  0  0  0  0  0  0  0  0
   -3.2753   -0.5964   -0.2329 O   0  0  0  0  0  0  0  0  0  0  0  0
   -0.9239   -0.6180   -0.2787 C   0  0  0  0  0  0  0  0  0  0  0  0
    0.3513   -0.0427    0.2481 C   0  0  0  0  0  0  0  0  0  0  0  0
    1.4081   -0.7084   -0.3716 O   0  0  0  0  0  0  0  0  0  0  0  0
    2.6058   -0.1847    0.1081 C   0  0  0  0  0  0  0  0  0  0  0  0
    3.7768   -0.8407   -0.5034 C   0  0  0  0  0  0  0  0  0  0  0  0
    3.6148   -1.7176   -1.3143 O   0  0  0  0  0  0  0  0  0  0  0  0
   -1.7942    2.1108    0.8485 H   0  0  0  0  0  0  0  0  0  0  0  0
   -3.3417    1.7493    0.0627 H   0  0  0  0  0  0  0  0  0  0  0  0
   -1.8791    1.7874   -0.9405 H   0  0  0  0  0  0  0  0  0  0  0  0
   -2.1645   -0.1516    1.4034 H   0  0  0  0  0  0  0  0  0  0  0  0
   -3.0297   -1.0288   -1.0854 H   0  0  0  0  0  0  0  0  0  0  0  0
   -0.9171   -0.4829   -1.3879 H   0  0  0  0  0  0  0  0  0  0  0  0
   -0.9301   -1.7059   -0.0642 H   0  0  0  0  0  0  0  0  0  0  0  0
    0.4428    1.0369    0.0079 H   0  0  0  0  0  0  0  0  0  0  0  0
    0.4699   -0.1534    1.3369 H   0  0  0  0  0  0  0  0  0  0  0  0
    2.6328    0.8855   -0.1875 H   0  0  0  0  0  0  0  0  0  0  0  0
    2.5860   -0.3026    1.2210 H   0  0  0  0  0  0  0  0  0  0  0  0
    4.7654   -0.5389   -0.2278 H   0  0  0  0  0  0  0  0  0  0  0  0
  1  2  1  0
  2  3  1  0
  2  4  1  0
  4  5  1  0
  5  6  1  0
  6  7  1  0
  7  8  1  0
  8  9  2  0
  1 10  1  0
  1 11  1  0
  1 12  1  0
  2 13  1  0
  3 14  1  0
  4 15  1  0
  4 16  1  0
  5 17  1  0
  5 18  1  0
  7 19  1  0
  7 20  1  0
  8 21  1  0
M  END
