
     RDKit          3D

 21 21  0  0  0  0  0  0  0  0999 V2000
   -2.2306   -0.4836   -0.1169 C   0  0  0  0  0  0  0  0  0  0  0  0
   -1.4025    0.6246    0.4642 C   0  0  0  0  0  0  0  0  0  0  0  0
   -1.3059    1.6368   -0.4775 O   0  0  0  0  0  0  0  0  0  0  0  0
   -0.0861    0.1720    0.9992 C   0  0  0  0  0  0  0  0  0  0  0  0
    0.8102   -0.4684    0.0006 C   0  0  0  0  0  0  0  0  0  0  0  0
    0.2770   -1.6288   -0.6061 O   0  0  0  0  0  0  0  0  0  0  0  0
    2.2512   -0.6507    0.5015 C   0  0  0  0  0  0  0  0  0  0  0  0
    1.9023    0.2201   -0.6878 C   0  0  0  0  0  0  0  0  0  0  0  0
    2.1183    1.5772   -0.6194 O   0  0  0  0  0  0  0  0  0  0  0  0
   -2.3284   -1.2990    0.6287 H   0  0  0  0  0  0  0  0  0  0  0  0
   -1.8766   -0.8400   -1.0875 H   0  0  0  0  0  0  0  0  0  0  0  0
   -3.2627   -0.0863   -0.2813 H   0  0  0  0  0  0  0  0  0  0  0  0
   -1.9808    1.0452    1.3219 H   0  0  0  0  0  0  0  0  0  0  0  0
   -2.2487    1.9065   -0.6894 H   0  0  0  0  0  0  0  0  0  0  0  0
   -0.2711   -0.5393    1.8212 H   0  0  0  0  0  0  0  0  0  0  0  0
    0.4326    1.0481    1.4286 H   0  0  0  0  0  0  0  0  0  0  0  0
    0.1066   -2.3302    0.0710 H   0  0  0  0  0  0  0  0  0  0  0  0
    2.7309   -1.6382    0.3303 H   0  0  0  0  0  0  0  0  0  0  0  0
    2.5660   -0.0740    1.3865 H   0  0  0  0  0  0  0  0  0  0  0  0
    2.2346   -0.2389   -1.6653 H   0  0  0  0  0  0  0  0  0  0  0  0
    1.5637    2.0468    0.0363 H   0  0  0  0  0  0  0  0  0  0  0  0
  1  2  1  0
  2  3  1  0
  2  4  1  0
  4  5  1  0
  5  6  1  0
  5  7  1  0
  7  8  1  0
  8  9  1  0
  8  5  1  0
  1 10  1  0
  1 11  1  0
  1 12  1  0
  2 13  1  0
  3 14  1  0
  4 15  1  0
  4 16  1  0
  6 17  1  0
  7 18  1  0
  7 19  1  0
  8 20  1  0
  9 21  1  0
M  END
