
     RDKit          3D

 17 17  0  0  0  0  0  0  0  0999 V2000
   -1.8841   -0.2508   -0.0097 C   0  0  0  0  0  0  0  0  0  0  0  0
   -0.6424    0.5686   -0.2195 C   0  0  0  0  0  0  0  0  0  0  0  0
   -0.8047    1.8393    0.3542 O   0  0  0  0  0  0  0  0  0  0  0  0
    0.5958   -0.0298    0.3273 C   0  0  0  0  0  0  0  0  0  0  0  0
    1.0449   -1.3460   -0.1640 C   0  0  0  0  0  0  0  0  0  0  0  0
    2.3731   -0.8595   -0.1466 O   0  0  0  0  0  0  0  0  0  0  0  0
    1.8411    0.4041   -0.3808 C   0  0  0  0  0  0  0  0  0  0  0  0
   -2.6749    0.0517   -0.7307 H   0  0  0  0  0  0  0  0  0  0  0  0
   -2.2987    0.0078    1.0022 H   0  0  0  0  0  0  0  0  0  0  0  0
   -1.6937   -1.3362   -0.0637 H   0  0  0  0  0  0  0  0  0  0  0  0
   -0.5482    0.7663   -1.3236 H   0  0  0  0  0  0  0  0  0  0  0  0
   -1.7291    2.1014    0.4621 H   0  0  0  0  0  0  0  0  0  0  0  0
    0.6454    0.0656    1.4229 H   0  0  0  0  0  0  0  0  0  0  0  0
    0.9609   -2.1371    0.6013 H   0  0  0  0  0  0  0  0  0  0  0  0
    0.7483   -1.6681   -1.1658 H   0  0  0  0  0  0  0  0  0  0  0  0
    1.7402    0.5867   -1.4494 H   0  0  0  0  0  0  0  0  0  0  0  0
    2.3259    1.2360    0.1704 H   0  0  0  0  0  0  0  0  0  0  0  0
  1  2  1  0
  2  3  1  0
  2  4  1  0
  4  5  1  0
  5  6  1  0
  6  7  1  0
  7  4  1  0
  1  8  1  0
  1  9  1  0
  1 10  1  0
  2 11  1  0
  3 12  1  0
  4 13  1  0
  5 14  1  0
  5 15  1  0
  7 16  1  0
  7 17  1  0
M  END
