
     RDKit          3D

 19 18  0  0  0  0  0  0  0  0999 V2000
   -2.5403   -0.0520    0.7943 C   0  0  0  0  0  0  0  0  0  0  0  0
   -1.8873    0.1334   -0.5495 C   0  0  0  0  0  0  0  0  0  0  0  0
   -2.2291   -0.8789   -1.4089 O   0  0  0  0  0  0  0  0  0  0  0  0
   -0.4117    0.3776   -0.4429 C   0  0  0  0  0  0  0  0  0  0  0  0
    0.3641   -0.7177    0.2123 C   0  0  0  0  0  0  0  0  0  0  0  0
    1.7734   -0.2892    0.2167 C   0  0  0  0  0  0  0  0  0  0  0  0
    2.9276    0.0591    0.2372 C   0  0  0  0  0  0  0  0  0  0  0  0
    4.2874    0.4944    0.2581 C   0  0  0  0  0  0  0  0  0  0  0  0
    4.4894    1.7325    0.4376 O   0  0  0  0  0  0  0  0  0  0  0  0
   -2.8953   -1.0958    0.9349 H   0  0  0  0  0  0  0  0  0  0  0  0
   -1.8057    0.2078    1.5799 H   0  0  0  0  0  0  0  0  0  0  0  0
   -3.4246    0.5952    0.9561 H   0  0  0  0  0  0  0  0  0  0  0  0
   -2.3244    1.0856   -0.9747 H   0  0  0  0  0  0  0  0  0  0  0  0
   -1.5178   -0.9858   -2.1151 H   0  0  0  0  0  0  0  0  0  0  0  0
   -0.2824    1.3006    0.1896 H   0  0  0  0  0  0  0  0  0  0  0  0
   -0.0104    0.5974   -1.4638 H   0  0  0  0  0  0  0  0  0  0  0  0
    0.0684   -0.7600    1.2952 H   0  0  0  0  0  0  0  0  0  0  0  0
    0.2673   -1.6902   -0.2943 H   0  0  0  0  0  0  0  0  0  0  0  0
    5.1512   -0.1239    0.1371 H   0  0  0  0  0  0  0  0  0  0  0  0
  1  2  1  0
  2  3  1  0
  2  4  1  0
  4  5  1  0
  5  6  1  0
  6  7  3  0
  7  8  1  0
  8  9  2  0
  1 10  1  0
  1 11  1  0
  1 12  1  0
  2 13  1  0
  3 14  1  0
  4 15  1  0
  4 16  1  0
  5 17  1  0
  5 18  1  0
  8 19  1  0
M  END
