
     RDKit          3D

 18 18  0  0  0  0  0  0  0  0999 V2000
   -1.8645    0.7418   -0.0587 C   0  0  0  0  0  0  0  0  0  0  0  0
   -0.8669   -0.2493   -0.5689 C   0  0  0  0  0  0  0  0  0  0  0  0
   -1.2499   -1.5382   -0.2240 O   0  0  0  0  0  0  0  0  0  0  0  0
    0.5237    0.0630   -0.0583 C   0  0  0  0  0  0  0  0  0  0  0  0
    1.0156    1.3935   -0.4582 C   0  0  0  0  0  0  0  0  0  0  0  0
    0.5275    2.0326   -1.3786 O   0  0  0  0  0  0  0  0  0  0  0  0
    1.0468   -0.5772    1.1552 C   0  0  0  0  0  0  0  0  0  0  0  0
    1.5766   -1.0117   -0.1713 C   0  0  0  0  0  0  0  0  0  0  0  0
   -1.7944    0.9024    1.0254 H   0  0  0  0  0  0  0  0  0  0  0  0
   -2.8708    0.4310   -0.3734 H   0  0  0  0  0  0  0  0  0  0  0  0
   -1.6926    1.7398   -0.5471 H   0  0  0  0  0  0  0  0  0  0  0  0
   -0.8318   -0.1947   -1.6766 H   0  0  0  0  0  0  0  0  0  0  0  0
   -1.3922   -1.5460    0.7562 H   0  0  0  0  0  0  0  0  0  0  0  0
    1.8475    1.8629    0.0621 H   0  0  0  0  0  0  0  0  0  0  0  0
    0.4648   -1.3807    1.6779 H   0  0  0  0  0  0  0  0  0  0  0  0
    1.6788   -0.0076    1.8486 H   0  0  0  0  0  0  0  0  0  0  0  0
    1.2413   -1.9339   -0.6429 H   0  0  0  0  0  0  0  0  0  0  0  0
    2.6404   -0.7276   -0.3673 H   0  0  0  0  0  0  0  0  0  0  0  0
  1  2  1  0
  2  3  1  0
  2  4  1  0
  4  5  1  0
  5  6  2  0
  4  7  1  0
  7  8  1  0
  8  4  1  0
  1  9  1  0
  1 10  1  0
  1 11  1  0
  2 12  1  0
  3 13  1  0
  5 14  1  0
  7 15  1  0
  7 16  1  0
  8 17  1  0
  8 18  1  0
M  END
