
     RDKit          3D

 21 20  0  0  0  0  0  0  0  0999 V2000
   -2.3261    0.7306   -0.5731 C   0  0  0  0  0  0  0  0  0  0  0  0
   -1.0047    0.6153    0.2027 C   0  0  0  0  0  0  0  0  0  0  0  0
   -1.3327   -0.0186    1.4158 O   0  0  0  0  0  0  0  0  0  0  0  0
   -0.1495   -0.3500   -0.5698 C   0  0  0  0  0  0  0  0  0  0  0  0
   -0.9468   -1.5047   -0.7612 O   0  0  0  0  0  0  0  0  0  0  0  0
    1.0876   -0.7792    0.1762 C   0  0  0  0  0  0  0  0  0  0  0  0
    1.7297   -1.7399   -0.6406 O   0  0  0  0  0  0  0  0  0  0  0  0
    2.0688    0.3256    0.3831 C   0  0  0  0  0  0  0  0  0  0  0  0
    1.6291    1.3647    1.1598 O   0  0  0  0  0  0  0  0  0  0  0  0
   -2.2329    1.6317   -1.2120 H   0  0  0  0  0  0  0  0  0  0  0  0
   -2.4679   -0.1477   -1.2439 H   0  0  0  0  0  0  0  0  0  0  0  0
   -3.1573    0.7982    0.1536 H   0  0  0  0  0  0  0  0  0  0  0  0
   -0.5574    1.5910    0.3776 H   0  0  0  0  0  0  0  0  0  0  0  0
   -2.1081    0.4546    1.8345 H   0  0  0  0  0  0  0  0  0  0  0  0
    0.1090    0.0237   -1.5781 H   0  0  0  0  0  0  0  0  0  0  0  0
   -0.4449   -2.2131   -1.2175 H   0  0  0  0  0  0  0  0  0  0  0  0
    0.7867   -1.2083    1.1323 H   0  0  0  0  0  0  0  0  0  0  0  0
    2.0900   -2.4471   -0.0530 H   0  0  0  0  0  0  0  0  0  0  0  0
    2.9679   -0.1162    0.8725 H   0  0  0  0  0  0  0  0  0  0  0  0
    2.4353    0.7245   -0.6061 H   0  0  0  0  0  0  0  0  0  0  0  0
    1.8241    2.2649    0.7471 H   0  0  0  0  0  0  0  0  0  0  0  0
  1  2  1  0
  2  3  1  0
  2  4  1  0
  4  5  1  0
  4  6  1  0
  6  7  1  0
  6  8  1  0
  8  9  1  0
  1 10  1  0
  1 11  1  0
  1 12  1  0
  2 13  1  0
  3 14  1  0
  4 15  1  0
  5 16  1  0
  6 17  1  0
  7 18  1  0
  8 19  1  0
  8 20  1  0
  9 21  1  0
M  END
