
     RDKit          3D

 16 15  0  0  0  0  0  0  0  0999 V2000
   -1.5596    0.2217    0.4547 C   0  0  0  0  0  0  0  0  0  0  0  0
   -0.5104   -0.7145   -0.1025 C   0  0  0  0  0  0  0  0  0  0  0  0
   -1.1288   -1.5732   -1.0075 O   0  0  0  0  0  0  0  0  0  0  0  0
    0.6101    0.0552   -0.7638 C   0  0  0  0  0  0  0  0  0  0  0  0
    1.3062    0.9840    0.1968 C   0  0  0  0  0  0  0  0  0  0  0  0
    1.8716    0.3197    1.2683 O   0  0  0  0  0  0  0  0  0  0  0  0
   -1.2840    0.5567    1.4848 H   0  0  0  0  0  0  0  0  0  0  0  0
   -1.7257    1.0966   -0.2165 H   0  0  0  0  0  0  0  0  0  0  0  0
   -2.5442   -0.2872    0.5330 H   0  0  0  0  0  0  0  0  0  0  0  0
   -0.1009   -1.3253    0.7213 H   0  0  0  0  0  0  0  0  0  0  0  0
   -1.7845   -2.1052   -0.4774 H   0  0  0  0  0  0  0  0  0  0  0  0
    1.3594   -0.6714   -1.1333 H   0  0  0  0  0  0  0  0  0  0  0  0
    0.2000    0.6038   -1.6345 H   0  0  0  0  0  0  0  0  0  0  0  0
    2.1407    1.4595   -0.3661 H   0  0  0  0  0  0  0  0  0  0  0  0
    0.6280    1.7562    0.6108 H   0  0  0  0  0  0  0  0  0  0  0  0
    2.5220   -0.3766    1.0043 H   0  0  0  0  0  0  0  0  0  0  0  0
  1  2  1  0
  2  3  1  0
  2  4  1  0
  4  5  1  0
  5  6  1  0
  1  7  1  0
  1  8  1  0
  1  9  1  0
  2 10  1  0
  3 11  1  0
  4 12  1  0
  4 13  1  0
  5 14  1  0
  5 15  1  0
  6 16  1  0
M  END
