
     RDKit          3D

 21 22  0  0  0  0  0  0  0  0999 V2000
    2.1255    0.1254    0.7881 C   0  0  0  0  0  0  0  0  0  0  0  0
    1.2489   -0.1228   -0.4234 C   0  0  0  0  0  0  0  0  0  0  0  0
    1.2282    0.9653   -1.2656 O   0  0  0  0  0  0  0  0  0  0  0  0
   -0.1283   -0.5565   -0.0497 C   0  0  0  0  0  0  0  0  0  0  0  0
   -1.0532   -0.8210   -1.2100 C   0  0  0  0  0  0  0  0  0  0  0  0
   -2.1771   -0.0641   -0.4994 C   0  0  0  0  0  0  0  0  0  0  0  0
   -1.1317    0.3783    0.5057 C   0  0  0  0  0  0  0  0  0  0  0  0
   -0.8892    1.6942    0.7394 O   0  0  0  0  0  0  0  0  0  0  0  0
   -0.5779   -0.7108    1.3446 C   0  0  0  0  0  0  0  0  0  0  0  0
    1.8799    1.0589    1.3049 H   0  0  0  0  0  0  0  0  0  0  0  0
    3.2082    0.1198    0.4709 H   0  0  0  0  0  0  0  0  0  0  0  0
    2.0437   -0.6985    1.5244 H   0  0  0  0  0  0  0  0  0  0  0  0
    1.7260   -0.9636   -0.9875 H   0  0  0  0  0  0  0  0  0  0  0  0
    2.0761    1.4683   -1.2887 H   0  0  0  0  0  0  0  0  0  0  0  0
   -1.3124   -1.8794   -1.3896 H   0  0  0  0  0  0  0  0  0  0  0  0
   -0.7547   -0.2326   -2.0976 H   0  0  0  0  0  0  0  0  0  0  0  0
   -2.6497    0.7232   -1.0812 H   0  0  0  0  0  0  0  0  0  0  0  0
   -2.8919   -0.7584    0.0264 H   0  0  0  0  0  0  0  0  0  0  0  0
   -0.8318    2.2716   -0.0672 H   0  0  0  0  0  0  0  0  0  0  0  0
   -1.2573   -1.5898    1.5275 H   0  0  0  0  0  0  0  0  0  0  0  0
    0.1186   -0.4076    2.1279 H   0  0  0  0  0  0  0  0  0  0  0  0
  1  2  1  0
  2  3  1  0
  2  4  1  0
  4  5  1  0
  5  6  1  0
  6  7  1  0
  7  8  1  0
  7  9  1  0
  7  4  1  0
  9  4  1  0
  1 10  1  0
  1 11  1  0
  1 12  1  0
  2 13  1  0
  3 14  1  0
  5 15  1  0
  5 16  1  0
  6 17  1  0
  6 18  1  0
  8 19  1  0
  9 20  1  0
  9 21  1  0
M  END
