
     RDKit          3D

 19 19  0  0  0  0  0  0  0  0999 V2000
    1.9647   -0.8081   -0.2486 C   0  0  0  0  0  0  0  0  0  0  0  0
    1.2922    0.5238   -0.0995 C   0  0  0  0  0  0  0  0  0  0  0  0
    1.1082    0.7753    1.2570 O   0  0  0  0  0  0  0  0  0  0  0  0
   -0.0152    0.6077   -0.8434 C   0  0  0  0  0  0  0  0  0  0  0  0
   -1.0223   -0.3946   -0.3991 C   0  0  0  0  0  0  0  0  0  0  0  0
   -1.5179   -0.4390    0.9966 C   0  0  0  0  0  0  0  0  0  0  0  0
   -2.3801    0.1834   -0.0493 C   0  0  0  0  0  0  0  0  0  0  0  0
    1.8367   -1.2227   -1.2842 H   0  0  0  0  0  0  0  0  0  0  0  0
    3.0534   -0.6554   -0.0793 H   0  0  0  0  0  0  0  0  0  0  0  0
    1.6134   -1.5519    0.4986 H   0  0  0  0  0  0  0  0  0  0  0  0
    1.9949    1.2958   -0.4748 H   0  0  0  0  0  0  0  0  0  0  0  0
    1.9413    1.1610    1.6185 H   0  0  0  0  0  0  0  0  0  0  0  0
    0.2051    0.4463   -1.9165 H   0  0  0  0  0  0  0  0  0  0  0  0
   -0.3849    1.6600   -0.7639 H   0  0  0  0  0  0  0  0  0  0  0  0
   -1.0542   -1.3293   -0.9881 H   0  0  0  0  0  0  0  0  0  0  0  0
   -1.7490   -1.4478    1.3964 H   0  0  0  0  0  0  0  0  0  0  0  0
   -1.1047    0.2336    1.7844 H   0  0  0  0  0  0  0  0  0  0  0  0
   -2.4854    1.2906    0.0052 H   0  0  0  0  0  0  0  0  0  0  0  0
   -3.2962   -0.3287   -0.4099 H   0  0  0  0  0  0  0  0  0  0  0  0
  1  2  1  0
  2  3  1  0
  2  4  1  0
  4  5  1  0
  5  6  1  0
  6  7  1  0
  7  5  1  0
  1  8  1  0
  1  9  1  0
  1 10  1  0
  2 11  1  0
  3 12  1  0
  4 13  1  0
  4 14  1  0
  5 15  1  0
  6 16  1  0
  6 17  1  0
  7 18  1  0
  7 19  1  0
M  END
