
     RDKit          3D

 23 23  0  0  0  0  0  0  0  0999 V2000
   -2.1659   -0.9642   -0.5415 C   0  0  0  0  0  0  0  0  0  0  0  0
   -1.8670    0.1167    0.5078 C   0  0  0  0  0  0  0  0  0  0  0  0
   -3.0897    0.5388    1.0626 O   0  0  0  0  0  0  0  0  0  0  0  0
   -1.1861    1.2292   -0.2264 C   0  0  0  0  0  0  0  0  0  0  0  0
    0.0088    0.7893   -0.7591 O   0  0  0  0  0  0  0  0  0  0  0  0
    0.8570    0.4079    0.2437 C   0  0  0  0  0  0  0  0  0  0  0  0
    2.3024    0.9117    0.0104 C   0  0  0  0  0  0  0  0  0  0  0  0
    1.9620   -0.5576    0.0142 C   0  0  0  0  0  0  0  0  0  0  0  0
    2.1166   -1.2362   -1.3317 C   0  0  0  0  0  0  0  0  0  0  0  0
   -2.7459   -1.7322   -0.0246 H   0  0  0  0  0  0  0  0  0  0  0  0
   -2.7174   -0.5279   -1.3957 H   0  0  0  0  0  0  0  0  0  0  0  0
   -1.1834   -1.2951   -0.9143 H   0  0  0  0  0  0  0  0  0  0  0  0
   -1.2614   -0.3942    1.2701 H   0  0  0  0  0  0  0  0  0  0  0  0
   -2.8677    1.0071    1.9251 H   0  0  0  0  0  0  0  0  0  0  0  0
   -0.9896    2.0479    0.5242 H   0  0  0  0  0  0  0  0  0  0  0  0
   -1.8476    1.6960   -0.9956 H   0  0  0  0  0  0  0  0  0  0  0  0
    0.4789    0.5318    1.2732 H   0  0  0  0  0  0  0  0  0  0  0  0
    2.5497    1.3877   -0.9395 H   0  0  0  0  0  0  0  0  0  0  0  0
    2.7946    1.3571    0.8958 H   0  0  0  0  0  0  0  0  0  0  0  0
    2.2963   -1.1177    0.9110 H   0  0  0  0  0  0  0  0  0  0  0  0
    2.9051   -2.0159   -1.2433 H   0  0  0  0  0  0  0  0  0  0  0  0
    1.1518   -1.6557   -1.7057 H   0  0  0  0  0  0  0  0  0  0  0  0
    2.4984   -0.5246   -2.1109 H   0  0  0  0  0  0  0  0  0  0  0  0
  1  2  1  0
  2  3  1  0
  2  4  1  0
  4  5  1  0
  5  6  1  0
  6  7  1  0
  7  8  1  0
  8  9  1  0
  8  6  1  0
  1 10  1  0
  1 11  1  0
  1 12  1  0
  2 13  1  0
  3 14  1  0
  4 15  1  0
  4 16  1  0
  6 17  1  0
  7 18  1  0
  7 19  1  0
  8 20  1  0
  9 21  1  0
  9 22  1  0
  9 23  1  0
M  END
