
     RDKit          3D

 25 25  0  0  0  0  0  0  0  0999 V2000
   -2.1263   -1.2254    0.3483 C   0  0  0  0  0  0  0  0  0  0  0  0
   -2.0962    0.1382   -0.2794 C   0  0  0  0  0  0  0  0  0  0  0  0
   -3.2625    0.8029    0.2027 O   0  0  0  0  0  0  0  0  0  0  0  0
   -0.9292    0.9612    0.0425 C   0  0  0  0  0  0  0  0  0  0  0  0
    0.4454    0.5648   -0.3348 C   0  0  0  0  0  0  0  0  0  0  0  0
    1.3634    1.6895    0.1944 C   0  0  0  0  0  0  0  0  0  0  0  0
    0.9428   -0.7699    0.0375 C   0  0  0  0  0  0  0  0  0  0  0  0
    2.3767   -1.1289   -0.3335 C   0  0  0  0  0  0  0  0  0  0  0  0
    1.8517   -1.1297    1.1117 C   0  0  0  0  0  0  0  0  0  0  0  0
   -3.1349   -1.4166    0.8273 H   0  0  0  0  0  0  0  0  0  0  0  0
   -1.9456   -2.0639   -0.3275 H   0  0  0  0  0  0  0  0  0  0  0  0
   -1.3890   -1.2502    1.1728 H   0  0  0  0  0  0  0  0  0  0  0  0
   -2.2799    0.0503   -1.3839 H   0  0  0  0  0  0  0  0  0  0  0  0
   -3.0910    1.7717    0.0023 H   0  0  0  0  0  0  0  0  0  0  0  0
   -1.1495    2.0309   -0.3166 H   0  0  0  0  0  0  0  0  0  0  0  0
   -0.9112    1.1085    1.1662 H   0  0  0  0  0  0  0  0  0  0  0  0
    0.5912    0.6447   -1.4690 H   0  0  0  0  0  0  0  0  0  0  0  0
    1.0435    2.6431   -0.2599 H   0  0  0  0  0  0  0  0  0  0  0  0
    2.4013    1.5182   -0.0796 H   0  0  0  0  0  0  0  0  0  0  0  0
    1.2039    1.6663    1.3010 H   0  0  0  0  0  0  0  0  0  0  0  0
    0.2777   -1.6056   -0.3532 H   0  0  0  0  0  0  0  0  0  0  0  0
    2.6400   -2.1209   -0.6983 H   0  0  0  0  0  0  0  0  0  0  0  0
    3.0737   -0.3268   -0.6291 H   0  0  0  0  0  0  0  0  0  0  0  0
    1.7337   -2.1347    1.6117 H   0  0  0  0  0  0  0  0  0  0  0  0
    2.3704   -0.4179    1.7625 H   0  0  0  0  0  0  0  0  0  0  0  0
  1  2  1  0
  2  3  1  0
  2  4  1  0
  4  5  1  0
  5  6  1  0
  5  7  1  0
  7  8  1  0
  8  9  1  0
  9  7  1  0
  1 10  1  0
  1 11  1  0
  1 12  1  0
  2 13  1  0
  3 14  1  0
  4 15  1  0
  4 16  1  0
  5 17  1  0
  6 18  1  0
  6 19  1  0
  6 20  1  0
  7 21  1  0
  8 22  1  0
  8 23  1  0
  9 24  1  0
  9 25  1  0
M  END
