
     RDKit          3D

 18 17  0  0  0  0  0  0  0  0999 V2000
   -2.6150   -0.5659    0.1671 C   0  0  0  0  0  0  0  0  0  0  0  0
   -1.4339    0.4121    0.0945 C   0  0  0  0  0  0  0  0  0  0  0  0
   -1.6200    1.1814   -1.0497 O   0  0  0  0  0  0  0  0  0  0  0  0
   -0.1922   -0.4202    0.0211 C   0  0  0  0  0  0  0  0  0  0  0  0
    1.0711    0.3786   -0.0562 C   0  0  0  0  0  0  0  0  0  0  0  0
    2.1490   -0.5678   -0.1195 O   0  0  0  0  0  0  0  0  0  0  0  0
    3.4634   -0.2116   -0.1992 C   0  0  0  0  0  0  0  0  0  0  0  0
    3.7811    1.0113   -0.2203 O   0  0  0  0  0  0  0  0  0  0  0  0
   -3.5291   -0.0796    0.5238 H   0  0  0  0  0  0  0  0  0  0  0  0
   -2.3062   -1.4057    0.8521 H   0  0  0  0  0  0  0  0  0  0  0  0
   -2.7143   -1.0115   -0.8282 H   0  0  0  0  0  0  0  0  0  0  0  0
   -1.4847    1.0538    0.9777 H   0  0  0  0  0  0  0  0  0  0  0  0
   -0.7856    1.2667   -1.5949 H   0  0  0  0  0  0  0  0  0  0  0  0
   -0.2360   -1.0888   -0.8401 H   0  0  0  0  0  0  0  0  0  0  0  0
   -0.1456   -1.0210    0.9660 H   0  0  0  0  0  0  0  0  0  0  0  0
    1.2408    0.9365    0.9101 H   0  0  0  0  0  0  0  0  0  0  0  0
    1.1155    1.0951   -0.8751 H   0  0  0  0  0  0  0  0  0  0  0  0
    4.2417   -0.9635   -0.2448 H   0  0  0  0  0  0  0  0  0  0  0  0
  1  2  1  0
  2  3  1  0
  2  4  1  0
  4  5  1  0
  5  6  1  0
  6  7  1  0
  7  8  2  0
  1  9  1  0
  1 10  1  0
  1 11  1  0
  2 12  1  0
  3 13  1  0
  4 14  1  0
  4 15  1  0
  5 16  1  0
  5 17  1  0
  7 18  1  0
M  END
