
     RDKit          3D

 23 23  0  0  0  0  0  0  0  0999 V2000
    2.6160    0.1059   -0.1206 C   0  0  0  0  0  0  0  0  0  0  0  0
    1.2635   -0.5380   -0.3583 C   0  0  0  0  0  0  0  0  0  0  0  0
    1.4634   -1.9160   -0.2594 O   0  0  0  0  0  0  0  0  0  0  0  0
    0.2585   -0.0317    0.6376 C   0  0  0  0  0  0  0  0  0  0  0  0
   -1.1301   -0.4535    0.6784 C   0  0  0  0  0  0  0  0  0  0  0  0
   -1.6610   -1.6173   -0.1356 C   0  0  0  0  0  0  0  0  0  0  0  0
   -0.8422    0.8080    0.0013 C   0  0  0  0  0  0  0  0  0  0  0  0
   -1.0423    2.1512    0.6329 C   0  0  0  0  0  0  0  0  0  0  0  0
   -0.9657    0.8002   -1.3836 O   0  0  0  0  0  0  0  0  0  0  0  0
    3.1944   -0.5229    0.5950 H   0  0  0  0  0  0  0  0  0  0  0  0
    2.4244    1.0783    0.3609 H   0  0  0  0  0  0  0  0  0  0  0  0
    3.1791    0.1840   -1.0639 H   0  0  0  0  0  0  0  0  0  0  0  0
    0.9919   -0.2993   -1.4142 H   0  0  0  0  0  0  0  0  0  0  0  0
    1.7458   -2.2440   -1.1623 H   0  0  0  0  0  0  0  0  0  0  0  0
    0.7244    0.3514    1.5777 H   0  0  0  0  0  0  0  0  0  0  0  0
   -1.6554   -0.3654    1.6686 H   0  0  0  0  0  0  0  0  0  0  0  0
   -1.6090   -2.5120    0.5033 H   0  0  0  0  0  0  0  0  0  0  0  0
   -2.7430   -1.4250   -0.3407 H   0  0  0  0  0  0  0  0  0  0  0  0
   -1.1738   -1.7258   -1.1075 H   0  0  0  0  0  0  0  0  0  0  0  0
   -1.9951    2.6053    0.3255 H   0  0  0  0  0  0  0  0  0  0  0  0
   -0.8822    2.1374    1.7288 H   0  0  0  0  0  0  0  0  0  0  0  0
   -0.2402    2.8247    0.2149 H   0  0  0  0  0  0  0  0  0  0  0  0
   -1.9214    0.6044   -1.5789 H   0  0  0  0  0  0  0  0  0  0  0  0
  1  2  1  0
  2  3  1  0
  2  4  1  0
  4  5  1  0
  5  6  1  0
  5  7  1  0
  7  8  1  0
  7  9  1  0
  7  4  1  0
  1 10  1  0
  1 11  1  0
  1 12  1  0
  2 13  1  0
  3 14  1  0
  4 15  1  0
  5 16  1  0
  6 17  1  0
  6 18  1  0
  6 19  1  0
  8 20  1  0
  8 21  1  0
  8 22  1  0
  9 23  1  0
M  END
