
     RDKit          3D

 21 21  0  0  0  0  0  0  0  0999 V2000
    2.3647   -0.0821    0.7026 C   0  0  0  0  0  0  0  0  0  0  0  0
    1.2978    0.6698   -0.0662 C   0  0  0  0  0  0  0  0  0  0  0  0
    1.8381    0.9104   -1.3467 O   0  0  0  0  0  0  0  0  0  0  0  0
    0.0796   -0.1712   -0.2308 C   0  0  0  0  0  0  0  0  0  0  0  0
    0.2533   -1.4094   -0.8255 O   0  0  0  0  0  0  0  0  0  0  0  0
   -1.0122    0.5915   -0.9865 C   0  0  0  0  0  0  0  0  0  0  0  0
   -1.9871   -0.2075   -0.1075 C   0  0  0  0  0  0  0  0  0  0  0  0
   -3.1247    0.4796    0.2179 O   0  0  0  0  0  0  0  0  0  0  0  0
   -0.8814   -0.1755    0.9531 C   0  0  0  0  0  0  0  0  0  0  0  0
    2.0597   -0.2080    1.7626 H   0  0  0  0  0  0  0  0  0  0  0  0
    3.3157    0.4934    0.5988 H   0  0  0  0  0  0  0  0  0  0  0  0
    2.5052   -1.0631    0.1813 H   0  0  0  0  0  0  0  0  0  0  0  0
    1.0223    1.6189    0.3945 H   0  0  0  0  0  0  0  0  0  0  0  0
    1.6532    0.0989   -1.8689 H   0  0  0  0  0  0  0  0  0  0  0  0
    0.1179   -2.0926   -0.1015 H   0  0  0  0  0  0  0  0  0  0  0  0
   -1.0819    0.3572   -2.0530 H   0  0  0  0  0  0  0  0  0  0  0  0
   -0.9918    1.6603   -0.7034 H   0  0  0  0  0  0  0  0  0  0  0  0
   -2.1168   -1.2275   -0.4857 H   0  0  0  0  0  0  0  0  0  0  0  0
   -3.5964    0.0350    0.9442 H   0  0  0  0  0  0  0  0  0  0  0  0
   -0.8140   -1.0759    1.5704 H   0  0  0  0  0  0  0  0  0  0  0  0
   -0.9012    0.7978    1.4504 H   0  0  0  0  0  0  0  0  0  0  0  0
  1  2  1  0
  2  3  1  0
  2  4  1  0
  4  5  1  0
  4  6  1  0
  6  7  1  0
  7  8  1  0
  7  9  1  0
  9  4  1  0
  1 10  1  0
  1 11  1  0
  1 12  1  0
  2 13  1  0
  3 14  1  0
  5 15  1  0
  6 16  1  0
  6 17  1  0
  7 18  1  0
  8 19  1  0
  9 20  1  0
  9 21  1  0
M  END
