
     RDKit          3D

 19 21  0  0  0  0  0  0  0  0999 V2000
   -1.9721    0.5001    0.1134 C   0  0  0  0  0  0  0  0  0  0  0  0
   -1.0591   -0.4386   -0.6962 C   0  0  0  0  0  0  0  0  0  0  0  0
   -1.3508   -0.3678   -2.0477 O   0  0  0  0  0  0  0  0  0  0  0  0
    0.2697   -0.1384   -0.2844 C   0  0  0  0  0  0  0  0  0  0  0  0
    1.5903   -0.6172   -0.6171 C   0  0  0  0  0  0  0  0  0  0  0  0
    2.1127    0.7694   -0.1830 C   0  0  0  0  0  0  0  0  0  0  0  0
    0.8265    0.7653    0.6695 C   0  0  0  0  0  0  0  0  0  0  0  0
    0.6649   -0.6308    1.1283 C   0  0  0  0  0  0  0  0  0  0  0  0
    1.5309   -1.5170    0.4392 O   0  0  0  0  0  0  0  0  0  0  0  0
   -1.7713    0.2644    1.1755 H   0  0  0  0  0  0  0  0  0  0  0  0
   -1.5879    1.5227   -0.1634 H   0  0  0  0  0  0  0  0  0  0  0  0
   -3.0138    0.4117   -0.1774 H   0  0  0  0  0  0  0  0  0  0  0  0
   -1.3682   -1.4705   -0.3519 H   0  0  0  0  0  0  0  0  0  0  0  0
   -2.2138   -0.8685   -2.2049 H   0  0  0  0  0  0  0  0  0  0  0  0
    1.8904   -0.9566   -1.5846 H   0  0  0  0  0  0  0  0  0  0  0  0
    2.9562    0.6310    0.4898 H   0  0  0  0  0  0  0  0  0  0  0  0
    2.1477    1.4968   -0.9667 H   0  0  0  0  0  0  0  0  0  0  0  0
    0.4556    1.6460    1.1261 H   0  0  0  0  0  0  0  0  0  0  0  0
   -0.1080   -1.0020    1.7784 H   0  0  0  0  0  0  0  0  0  0  0  0
  1  2  1  0
  2  3  1  0
  2  4  1  0
  4  5  1  0
  5  6  1  0
  6  7  1  0
  7  8  1  0
  8  9  1  0
  7  4  1  0
  8  4  1  0
  9  5  1  0
  1 10  1  0
  1 11  1  0
  1 12  1  0
  2 13  1  0
  3 14  1  0
  5 15  1  0
  6 16  1  0
  6 17  1  0
  7 18  1  0
  8 19  1  0
M  END
