
     RDKit          3D

 23 23  0  0  0  0  0  0  0  0999 V2000
    2.1039    0.6690    0.0320 C   0  0  0  0  0  0  0  0  0  0  0  0
    1.4548   -0.2960   -0.9136 C   0  0  0  0  0  0  0  0  0  0  0  0
    1.3713    0.2842   -2.1785 O   0  0  0  0  0  0  0  0  0  0  0  0
    0.0760   -0.7253   -0.4478 C   0  0  0  0  0  0  0  0  0  0  0  0
    0.1199   -1.4027    0.8925 C   0  0  0  0  0  0  0  0  0  0  0  0
   -0.9226    0.3773   -0.5437 C   0  0  0  0  0  0  0  0  0  0  0  0
   -2.3272    0.0318   -0.0986 C   0  0  0  0  0  0  0  0  0  0  0  0
   -1.4943    1.0857    0.5824 C   0  0  0  0  0  0  0  0  0  0  0  0
   -1.1958    0.8545    1.9057 O   0  0  0  0  0  0  0  0  0  0  0  0
    2.1299    0.2883    1.0616 H   0  0  0  0  0  0  0  0  0  0  0  0
    3.1574    0.7982   -0.2928 H   0  0  0  0  0  0  0  0  0  0  0  0
    1.6481    1.6948   -0.0343 H   0  0  0  0  0  0  0  0  0  0  0  0
    2.1193   -1.1780   -1.0193 H   0  0  0  0  0  0  0  0  0  0  0  0
    2.0083    1.0378   -2.2241 H   0  0  0  0  0  0  0  0  0  0  0  0
   -0.2406   -1.5261   -1.1792 H   0  0  0  0  0  0  0  0  0  0  0  0
   -0.8728   -1.8567    1.0908 H   0  0  0  0  0  0  0  0  0  0  0  0
    0.4836   -0.7549    1.7093 H   0  0  0  0  0  0  0  0  0  0  0  0
    0.8112   -2.2884    0.7667 H   0  0  0  0  0  0  0  0  0  0  0  0
   -0.8722    0.9327   -1.5255 H   0  0  0  0  0  0  0  0  0  0  0  0
   -2.5408   -0.8737    0.4624 H   0  0  0  0  0  0  0  0  0  0  0  0
   -3.1738    0.3526   -0.7523 H   0  0  0  0  0  0  0  0  0  0  0  0
   -1.8755    2.1300    0.4037 H   0  0  0  0  0  0  0  0  0  0  0  0
   -1.9682    0.3648    2.3025 H   0  0  0  0  0  0  0  0  0  0  0  0
  1  2  1  0
  2  3  1  0
  2  4  1  0
  4  5  1  0
  4  6  1  0
  6  7  1  0
  7  8  1  0
  8  9  1  0
  8  6  1  0
  1 10  1  0
  1 11  1  0
  1 12  1  0
  2 13  1  0
  3 14  1  0
  4 15  1  0
  5 16  1  0
  5 17  1  0
  5 18  1  0
  6 19  1  0
  7 20  1  0
  7 21  1  0
  8 22  1  0
  9 23  1  0
M  END
