
     RDKit          3D

 18 19  0  0  0  0  0  0  0  0999 V2000
    2.1143   -0.0301    0.2276 C   0  0  0  0  0  0  0  0  0  0  0  0
    0.9326    0.7842   -0.2449 C   0  0  0  0  0  0  0  0  0  0  0  0
    1.2455    1.1859   -1.5637 O   0  0  0  0  0  0  0  0  0  0  0  0
   -0.3379    0.0003   -0.3197 C   0  0  0  0  0  0  0  0  0  0  0  0
   -0.4286   -1.4265   -0.0059 C   0  0  0  0  0  0  0  0  0  0  0  0
   -1.1130   -0.3892    0.8655 C   0  0  0  0  0  0  0  0  0  0  0  0
   -2.2804    0.2794    0.2238 C   0  0  0  0  0  0  0  0  0  0  0  0
   -1.4220    0.6752   -0.8215 O   0  0  0  0  0  0  0  0  0  0  0  0
    3.0445    0.4409   -0.2008 H   0  0  0  0  0  0  0  0  0  0  0  0
    2.1450   -0.0032    1.3237 H   0  0  0  0  0  0  0  0  0  0  0  0
    2.1113   -1.0636   -0.1235 H   0  0  0  0  0  0  0  0  0  0  0  0
    0.8794    1.6905    0.3592 H   0  0  0  0  0  0  0  0  0  0  0  0
    0.3692    1.4456   -1.9821 H   0  0  0  0  0  0  0  0  0  0  0  0
    0.3824   -1.9416    0.5108 H   0  0  0  0  0  0  0  0  0  0  0  0
   -1.0624   -2.0400   -0.6901 H   0  0  0  0  0  0  0  0  0  0  0  0
   -0.8123   -0.2243    1.8871 H   0  0  0  0  0  0  0  0  0  0  0  0
   -2.7744    1.0892    0.7594 H   0  0  0  0  0  0  0  0  0  0  0  0
   -2.9932   -0.4730   -0.2049 H   0  0  0  0  0  0  0  0  0  0  0  0
  1  2  1  0
  2  3  1  0
  2  4  1  0
  4  5  1  0
  5  6  1  0
  6  7  1  0
  7  8  1  0
  6  4  1  0
  8  4  1  0
  1  9  1  0
  1 10  1  0
  1 11  1  0
  2 12  1  0
  3 13  1  0
  5 14  1  0
  5 15  1  0
  6 16  1  0
  7 17  1  0
  7 18  1  0
M  END
