
     RDKit          3D

 21 21  0  0  0  0  0  0  0  0999 V2000
    2.3441    0.5507   -0.5734 C   0  0  0  0  0  0  0  0  0  0  0  0
    1.4610   -0.3113    0.3082 C   0  0  0  0  0  0  0  0  0  0  0  0
    1.5350    0.1627    1.5804 O   0  0  0  0  0  0  0  0  0  0  0  0
    0.1230   -0.5646   -0.2669 C   0  0  0  0  0  0  0  0  0  0  0  0
   -0.6456   -1.4161    0.6842 C   0  0  0  0  0  0  0  0  0  0  0  0
   -1.9256   -1.0688    0.6629 C   0  0  0  0  0  0  0  0  0  0  0  0
   -2.1459    0.0355   -0.2907 C   0  0  0  0  0  0  0  0  0  0  0  0
   -0.7432    0.5502   -0.6178 C   0  0  0  0  0  0  0  0  0  0  0  0
   -0.5810    1.7395    0.0403 O   0  0  0  0  0  0  0  0  0  0  0  0
    3.3585    0.5399   -0.0770 H   0  0  0  0  0  0  0  0  0  0  0  0
    2.4994    0.0536   -1.5607 H   0  0  0  0  0  0  0  0  0  0  0  0
    1.9920    1.5832   -0.6586 H   0  0  0  0  0  0  0  0  0  0  0  0
    1.9840   -1.3049    0.3321 H   0  0  0  0  0  0  0  0  0  0  0  0
    0.9767    0.9289    1.8073 H   0  0  0  0  0  0  0  0  0  0  0  0
    0.2795   -1.2071   -1.1671 H   0  0  0  0  0  0  0  0  0  0  0  0
   -0.2013   -2.1958    1.2910 H   0  0  0  0  0  0  0  0  0  0  0  0
   -2.6870   -1.5432    1.2694 H   0  0  0  0  0  0  0  0  0  0  0  0
   -2.6526   -0.3540   -1.2075 H   0  0  0  0  0  0  0  0  0  0  0  0
   -2.7738    0.8153    0.1656 H   0  0  0  0  0  0  0  0  0  0  0  0
   -0.7561    0.7666   -1.7081 H   0  0  0  0  0  0  0  0  0  0  0  0
   -1.4410    2.2396   -0.0138 H   0  0  0  0  0  0  0  0  0  0  0  0
  1  2  1  0
  2  3  1  0
  2  4  1  0
  4  5  1  0
  5  6  2  0
  6  7  1  0
  7  8  1  0
  8  9  1  0
  8  4  1  0
  1 10  1  0
  1 11  1  0
  1 12  1  0
  2 13  1  0
  3 14  1  0
  4 15  1  0
  5 16  1  0
  6 17  1  0
  7 18  1  0
  7 19  1  0
  8 20  1  0
  9 21  1  0
M  END
