
     RDKit          3D

 21 21  0  0  0  0  0  0  0  0999 V2000
   -2.1506    0.1643   -0.8614 C   0  0  0  0  0  0  0  0  0  0  0  0
   -1.5622   -0.6019    0.2798 C   0  0  0  0  0  0  0  0  0  0  0  0
   -2.2210   -0.2223    1.4411 O   0  0  0  0  0  0  0  0  0  0  0  0
   -0.0848   -0.3439    0.4675 C   0  0  0  0  0  0  0  0  0  0  0  0
    0.7103   -0.9441   -0.6564 C   0  0  0  0  0  0  0  0  0  0  0  0
    1.9633   -0.1877   -0.9443 C   0  0  0  0  0  0  0  0  0  0  0  0
    2.3616    0.7700   -0.1146 C   0  0  0  0  0  0  0  0  0  0  0  0
    1.5491    1.0660    1.0824 C   0  0  0  0  0  0  0  0  0  0  0  0
    0.2027    0.9784    0.7160 O   0  0  0  0  0  0  0  0  0  0  0  0
   -1.5496    0.1809   -1.7710 H   0  0  0  0  0  0  0  0  0  0  0  0
   -3.1267   -0.3186   -1.1194 H   0  0  0  0  0  0  0  0  0  0  0  0
   -2.3891    1.2131   -0.5997 H   0  0  0  0  0  0  0  0  0  0  0  0
   -1.7017   -1.6839    0.1110 H   0  0  0  0  0  0  0  0  0  0  0  0
   -2.6891    0.6493    1.3042 H   0  0  0  0  0  0  0  0  0  0  0  0
    0.2051   -0.9128    1.3997 H   0  0  0  0  0  0  0  0  0  0  0  0
    0.0957   -1.0050   -1.5504 H   0  0  0  0  0  0  0  0  0  0  0  0
    1.0470   -1.9892   -0.3983 H   0  0  0  0  0  0  0  0  0  0  0  0
    2.5122   -0.4451   -1.8269 H   0  0  0  0  0  0  0  0  0  0  0  0
    3.2733    1.3129   -0.3337 H   0  0  0  0  0  0  0  0  0  0  0  0
    1.7618    0.2678    1.8413 H   0  0  0  0  0  0  0  0  0  0  0  0
    1.7925    2.0518    1.5331 H   0  0  0  0  0  0  0  0  0  0  0  0
  1  2  1  0
  2  3  1  0
  2  4  1  0
  4  5  1  0
  5  6  1  0
  6  7  2  0
  7  8  1  0
  8  9  1  0
  9  4  1  0
  1 10  1  0
  1 11  1  0
  1 12  1  0
  2 13  1  0
  3 14  1  0
  4 15  1  0
  5 16  1  0
  5 17  1  0
  6 18  1  0
  7 19  1  0
  8 20  1  0
  8 21  1  0
M  END
