
     RDKit          3D

 19 19  0  0  0  0  0  0  0  0999 V2000
   -2.1738   -1.0612   -0.1076 C   0  0  0  0  0  0  0  0  0  0  0  0
   -1.4037    0.1933    0.1417 C   0  0  0  0  0  0  0  0  0  0  0  0
   -2.2064    1.3040   -0.1221 O   0  0  0  0  0  0  0  0  0  0  0  0
   -0.1459    0.2808   -0.6908 C   0  0  0  0  0  0  0  0  0  0  0  0
    0.6691    1.5378   -0.4716 C   0  0  0  0  0  0  0  0  0  0  0  0
    1.1942    0.2149   -0.0390 C   0  0  0  0  0  0  0  0  0  0  0  0
    2.2798   -0.3883   -0.6965 O   0  0  0  0  0  0  0  0  0  0  0  0
    3.3064   -1.0500   -0.0538 C   0  0  0  0  0  0  0  0  0  0  0  0
    3.2232   -1.0905    1.1989 O   0  0  0  0  0  0  0  0  0  0  0  0
   -1.7070   -1.7178   -0.8708 H   0  0  0  0  0  0  0  0  0  0  0  0
   -2.2748   -1.6999    0.8084 H   0  0  0  0  0  0  0  0  0  0  0  0
   -3.2128   -0.8193   -0.4198 H   0  0  0  0  0  0  0  0  0  0  0  0
   -1.0786    0.1691    1.2202 H   0  0  0  0  0  0  0  0  0  0  0  0
   -3.0878    1.2416    0.2919 H   0  0  0  0  0  0  0  0  0  0  0  0
   -0.1794   -0.0456   -1.7531 H   0  0  0  0  0  0  0  0  0  0  0  0
    1.0878    2.0688   -1.3534 H   0  0  0  0  0  0  0  0  0  0  0  0
    0.3117    2.2761    0.2985 H   0  0  0  0  0  0  0  0  0  0  0  0
    1.2565    0.0976    1.0694 H   0  0  0  0  0  0  0  0  0  0  0  0
    4.1414   -1.5113   -0.5970 H   0  0  0  0  0  0  0  0  0  0  0  0
  1  2  1  0
  2  3  1  0
  2  4  1  0
  4  5  1  0
  5  6  1  0
  6  7  1  0
  7  8  1  0
  8  9  2  0
  6  4  1  0
  1 10  1  0
  1 11  1  0
  1 12  1  0
  2 13  1  0
  3 14  1  0
  4 15  1  0
  5 16  1  0
  5 17  1  0
  6 18  1  0
  8 19  1  0
M  END
