
     RDKit          3D

 17 19  0  0  0  0  0  0  0  0999 V2000
   -1.9418   -0.8030    0.4252 C   0  0  0  0  0  0  0  0  0  0  0  0
   -1.0429    0.3569   -0.0248 C   0  0  0  0  0  0  0  0  0  0  0  0
   -1.6289    1.0178   -1.0757 O   0  0  0  0  0  0  0  0  0  0  0  0
    0.2958   -0.1939   -0.2801 C   0  0  0  0  0  0  0  0  0  0  0  0
    0.5741   -1.1197   -1.2433 O   0  0  0  0  0  0  0  0  0  0  0  0
    1.3232    0.1211   -1.0998 C   0  0  0  0  0  0  0  0  0  0  0  0
    2.2479    0.2034    0.0748 C   0  0  0  0  0  0  0  0  0  0  0  0
    1.7823    1.0697    1.1736 O   0  0  0  0  0  0  0  0  0  0  0  0
    1.2595   -0.1831    0.9230 C   0  0  0  0  0  0  0  0  0  0  0  0
   -1.2886   -1.5292    0.9800 H   0  0  0  0  0  0  0  0  0  0  0  0
   -2.7184   -0.4810    1.1170 H   0  0  0  0  0  0  0  0  0  0  0  0
   -2.2998   -1.3387   -0.4634 H   0  0  0  0  0  0  0  0  0  0  0  0
   -0.9965    1.0411    0.8492 H   0  0  0  0  0  0  0  0  0  0  0  0
   -1.5196    2.0151   -1.0189 H   0  0  0  0  0  0  0  0  0  0  0  0
    1.5129    0.5728   -2.0493 H   0  0  0  0  0  0  0  0  0  0  0  0
    3.3143    0.1681    0.0060 H   0  0  0  0  0  0  0  0  0  0  0  0
    1.1265   -0.9175    1.7065 H   0  0  0  0  0  0  0  0  0  0  0  0
  1  2  1  0
  2  3  1  0
  2  4  1  0
  4  5  1  0
  5  6  1  0
  6  7  1  0
  7  8  1  0
  8  9  1  0
  6  4  1  0
  9  7  1  0
  9  4  1  0
  1 10  1  0
  1 11  1  0
  1 12  1  0
  2 13  1  0
  3 14  1  0
  6 15  1  0
  7 16  1  0
  9 17  1  0
M  END
