
     RDKit          3D

 21 22  0  0  0  0  0  0  0  0999 V2000
    0.5436   -1.4438    0.4590 C   0  0  0  0  0  0  0  0  0  0  0  0
    0.2234   -0.2320   -0.3495 C   0  0  0  0  0  0  0  0  0  0  0  0
   -0.2516   -0.5737   -1.6046 O   0  0  0  0  0  0  0  0  0  0  0  0
   -0.9095    0.5037    0.3824 C   0  0  0  0  0  0  0  0  0  0  0  0
   -2.1944   -0.1505    0.6206 C   0  0  0  0  0  0  0  0  0  0  0  0
   -2.0763    0.9983   -0.3512 C   0  0  0  0  0  0  0  0  0  0  0  0
    1.3331    0.7566   -0.4657 C   0  0  0  0  0  0  0  0  0  0  0  0
    2.6851    0.5621   -0.0862 C   0  0  0  0  0  0  0  0  0  0  0  0
    1.8131    1.0945    0.9035 O   0  0  0  0  0  0  0  0  0  0  0  0
    1.6013   -1.6650    0.5867 H   0  0  0  0  0  0  0  0  0  0  0  0
    0.0844   -2.3344   -0.0607 H   0  0  0  0  0  0  0  0  0  0  0  0
    0.0707   -1.4315    1.4638 H   0  0  0  0  0  0  0  0  0  0  0  0
   -0.0577   -1.5133   -1.8507 H   0  0  0  0  0  0  0  0  0  0  0  0
   -0.5306    1.1587    1.2199 H   0  0  0  0  0  0  0  0  0  0  0  0
   -2.3598   -1.1539    0.2338 H   0  0  0  0  0  0  0  0  0  0  0  0
   -2.7550    0.0765    1.5514 H   0  0  0  0  0  0  0  0  0  0  0  0
   -2.5082    1.9887   -0.0501 H   0  0  0  0  0  0  0  0  0  0  0  0
   -2.3163    0.7350   -1.3863 H   0  0  0  0  0  0  0  0  0  0  0  0
    1.0244    1.7257   -0.9222 H   0  0  0  0  0  0  0  0  0  0  0  0
    3.4364    1.3204   -0.4022 H   0  0  0  0  0  0  0  0  0  0  0  0
    3.1440   -0.4221    0.1083 H   0  0  0  0  0  0  0  0  0  0  0  0
  1  2  1  0
  2  3  1  0
  2  4  1  0
  4  5  1  0
  5  6  1  0
  2  7  1  0
  7  8  1  0
  8  9  1  0
  6  4  1  0
  9  7  1  0
  1 10  1  0
  1 11  1  0
  1 12  1  0
  3 13  1  0
  4 14  1  0
  5 15  1  0
  5 16  1  0
  6 17  1  0
  6 18  1  0
  7 19  1  0
  8 20  1  0
  8 21  1  0
M  END
