
     RDKit          3D

 20 19  0  0  0  0  0  0  0  0999 V2000
   -1.2024   -0.3819   -1.1637 C   0  0  0  0  0  0  0  0  0  0  0  0
   -0.7354   -0.0724    0.2494 C   0  0  0  0  0  0  0  0  0  0  0  0
   -1.7780   -0.4757    1.0971 O   0  0  0  0  0  0  0  0  0  0  0  0
   -0.6213    1.4029    0.3825 C   0  0  0  0  0  0  0  0  0  0  0  0
   -0.3360    1.8174    1.6852 O   0  0  0  0  0  0  0  0  0  0  0  0
    0.4543   -0.8786    0.5779 C   0  0  0  0  0  0  0  0  0  0  0  0
    1.6653   -0.7098   -0.2631 C   0  0  0  0  0  0  0  0  0  0  0  0
    1.5367   -0.9879   -1.5861 O   0  0  0  0  0  0  0  0  0  0  0  0
   -0.7823   -1.3254   -1.5356 H   0  0  0  0  0  0  0  0  0  0  0  0
   -2.2986   -0.4521   -1.2391 H   0  0  0  0  0  0  0  0  0  0  0  0
   -0.8905    0.4351   -1.8649 H   0  0  0  0  0  0  0  0  0  0  0  0
   -1.5132   -0.3450    2.0372 H   0  0  0  0  0  0  0  0  0  0  0  0
    0.0653    1.8756   -0.3597 H   0  0  0  0  0  0  0  0  0  0  0  0
   -1.6186    1.8372    0.1473 H   0  0  0  0  0  0  0  0  0  0  0  0
    0.5627    2.2116    1.7592 H   0  0  0  0  0  0  0  0  0  0  0  0
    0.1605   -1.9511    0.5830 H   0  0  0  0  0  0  0  0  0  0  0  0
    0.7617   -0.6644    1.6361 H   0  0  0  0  0  0  0  0  0  0  0  0
    2.4699   -1.3572    0.1484 H   0  0  0  0  0  0  0  0  0  0  0  0
    2.0768    0.3375   -0.1481 H   0  0  0  0  0  0  0  0  0  0  0  0
    2.0231   -0.3156   -2.1430 H   0  0  0  0  0  0  0  0  0  0  0  0
  1  2  1  0
  2  3  1  0
  2  4  1  0
  4  5  1  0
  2  6  1  0
  6  7  1  0
  7  8  1  0
  1  9  1  0
  1 10  1  0
  1 11  1  0
  3 12  1  0
  4 13  1  0
  4 14  1  0
  5 15  1  0
  6 16  1  0
  6 17  1  0
  7 18  1  0
  7 19  1  0
  8 20  1  0
M  END
