
     RDKit          3D

 21 21  0  0  0  0  0  0  0  0999 V2000
    1.7233   -0.9490    0.4226 C   0  0  0  0  0  0  0  0  0  0  0  0
    1.1545    0.3904    0.1035 C   0  0  0  0  0  0  0  0  0  0  0  0
    1.4870    1.3297    1.0768 O   0  0  0  0  0  0  0  0  0  0  0  0
   -0.3300    0.3693   -0.1479 C   0  0  0  0  0  0  0  0  0  0  0  0
   -0.7771    1.7309   -0.6340 C   0  0  0  0  0  0  0  0  0  0  0  0
   -0.7725   -0.7072   -1.0683 C   0  0  0  0  0  0  0  0  0  0  0  0
   -0.9938   -1.7839   -0.2241 O   0  0  0  0  0  0  0  0  0  0  0  0
   -1.6228   -1.1503    0.8626 C   0  0  0  0  0  0  0  0  0  0  0  0
   -0.9623    0.0411    1.0474 O   0  0  0  0  0  0  0  0  0  0  0  0
    1.0570   -1.4958    1.0930 H   0  0  0  0  0  0  0  0  0  0  0  0
    1.9861   -1.4859   -0.5085 H   0  0  0  0  0  0  0  0  0  0  0  0
    2.6812   -0.7961    0.9746 H   0  0  0  0  0  0  0  0  0  0  0  0
    1.6487    0.7491   -0.8417 H   0  0  0  0  0  0  0  0  0  0  0  0
    2.4244    1.6249    1.0196 H   0  0  0  0  0  0  0  0  0  0  0  0
   -0.0127    2.1481   -1.3422 H   0  0  0  0  0  0  0  0  0  0  0  0
   -0.7793    2.3988    0.2526 H   0  0  0  0  0  0  0  0  0  0  0  0
   -1.7769    1.6780   -1.1150 H   0  0  0  0  0  0  0  0  0  0  0  0
   -0.0968   -0.9248   -1.8979 H   0  0  0  0  0  0  0  0  0  0  0  0
   -1.7892   -0.4190   -1.4679 H   0  0  0  0  0  0  0  0  0  0  0  0
   -1.5390   -1.7515    1.7821 H   0  0  0  0  0  0  0  0  0  0  0  0
   -2.7100   -0.9970    0.6126 H   0  0  0  0  0  0  0  0  0  0  0  0
  1  2  1  0
  2  3  1  0
  2  4  1  0
  4  5  1  0
  4  6  1  0
  6  7  1  0
  7  8  1  0
  8  9  1  0
  9  4  1  0
  1 10  1  0
  1 11  1  0
  1 12  1  0
  2 13  1  0
  3 14  1  0
  5 15  1  0
  5 16  1  0
  5 17  1  0
  6 18  1  0
  6 19  1  0
  8 20  1  0
  8 21  1  0
M  END
