
     RDKit          3D

 21 21  0  0  0  0  0  0  0  0999 V2000
    2.4460    1.3835    0.8203 C   0  0  0  0  0  0  0  0  0  0  0  0
    2.0377    0.2374   -0.0628 C   0  0  0  0  0  0  0  0  0  0  0  0
    3.0721   -0.7239   -0.0625 O   0  0  0  0  0  0  0  0  0  0  0  0
    0.7493   -0.4030    0.4017 C   0  0  0  0  0  0  0  0  0  0  0  0
    0.4140   -1.5088   -0.5313 O   0  0  0  0  0  0  0  0  0  0  0  0
   -0.4075   -0.2716   -0.4464 C   0  0  0  0  0  0  0  0  0  0  0  0
   -1.7896   -0.6981    0.0568 C   0  0  0  0  0  0  0  0  0  0  0  0
   -2.7424    0.4423    0.1071 C   0  0  0  0  0  0  0  0  0  0  0  0
   -2.2804   -1.6115   -0.9038 O   0  0  0  0  0  0  0  0  0  0  0  0
    2.2468    1.1671    1.8842 H   0  0  0  0  0  0  0  0  0  0  0  0
    3.5448    1.5764    0.6501 H   0  0  0  0  0  0  0  0  0  0  0  0
    1.8316    2.2688    0.5281 H   0  0  0  0  0  0  0  0  0  0  0  0
    1.9227    0.5673   -1.1143 H   0  0  0  0  0  0  0  0  0  0  0  0
    2.7845   -1.3951   -0.7527 H   0  0  0  0  0  0  0  0  0  0  0  0
    0.6229   -0.6662    1.4569 H   0  0  0  0  0  0  0  0  0  0  0  0
   -0.4195    0.2731   -1.4033 H   0  0  0  0  0  0  0  0  0  0  0  0
   -1.7222   -1.2181    1.0183 H   0  0  0  0  0  0  0  0  0  0  0  0
   -2.7976    0.9587    1.0748 H   0  0  0  0  0  0  0  0  0  0  0  0
   -2.4772    1.1966   -0.6585 H   0  0  0  0  0  0  0  0  0  0  0  0
   -3.7745    0.0253   -0.0722 H   0  0  0  0  0  0  0  0  0  0  0  0
   -3.2614   -1.6002   -0.8769 H   0  0  0  0  0  0  0  0  0  0  0  0
  1  2  1  0
  2  3  1  0
  2  4  1  0
  4  5  1  0
  5  6  1  0
  6  7  1  0
  7  8  1  0
  7  9  1  0
  6  4  1  0
  1 10  1  0
  1 11  1  0
  1 12  1  0
  2 13  1  0
  3 14  1  0
  4 15  1  0
  6 16  1  0
  7 17  1  0
  8 18  1  0
  8 19  1  0
  8 20  1  0
  9 21  1  0
M  END
