
     RDKit          3D

 23 24  0  0  0  0  0  0  0  0999 V2000
   -2.8882    0.4729   -0.2735 C   0  0  0  0  0  0  0  0  0  0  0  0
   -1.7932   -0.0543    0.6258 C   0  0  0  0  0  0  0  0  0  0  0  0
   -2.2930   -1.2406    1.1976 O   0  0  0  0  0  0  0  0  0  0  0  0
   -0.5799   -0.3811   -0.2569 C   0  0  0  0  0  0  0  0  0  0  0  0
    0.6393   -0.8962    0.2423 C   0  0  0  0  0  0  0  0  0  0  0  0
    1.6321   -0.4655    1.2446 C   0  0  0  0  0  0  0  0  0  0  0  0
    2.5925    0.3652    0.3649 C   0  0  0  0  0  0  0  0  0  0  0  0
    1.8034    0.6032   -0.9425 C   0  0  0  0  0  0  0  0  0  0  0  0
    0.4504    0.5689   -0.3329 C   0  0  0  0  0  0  0  0  0  0  0  0
   -3.6192   -0.3191   -0.5497 H   0  0  0  0  0  0  0  0  0  0  0  0
   -2.4891    0.8553   -1.2465 H   0  0  0  0  0  0  0  0  0  0  0  0
   -3.4248    1.3017    0.2411 H   0  0  0  0  0  0  0  0  0  0  0  0
   -1.5289    0.6333    1.4427 H   0  0  0  0  0  0  0  0  0  0  0  0
   -2.7858   -1.7512    0.4790 H   0  0  0  0  0  0  0  0  0  0  0  0
   -0.9615   -0.7878   -1.2453 H   0  0  0  0  0  0  0  0  0  0  0  0
    1.1616   -1.6236   -0.4584 H   0  0  0  0  0  0  0  0  0  0  0  0
    1.2517    0.1449    2.0750 H   0  0  0  0  0  0  0  0  0  0  0  0
    2.2035   -1.3138    1.6487 H   0  0  0  0  0  0  0  0  0  0  0  0
    3.5299   -0.1450    0.1886 H   0  0  0  0  0  0  0  0  0  0  0  0
    2.6856    1.3774    0.8212 H   0  0  0  0  0  0  0  0  0  0  0  0
    2.0615    1.5523   -1.4016 H   0  0  0  0  0  0  0  0  0  0  0  0
    1.9405   -0.2843   -1.5988 H   0  0  0  0  0  0  0  0  0  0  0  0
    0.4117    1.3873    0.4528 H   0  0  0  0  0  0  0  0  0  0  0  0
  1  2  1  0
  2  3  1  0
  2  4  1  0
  4  5  1  0
  5  6  1  0
  6  7  1  0
  7  8  1  0
  8  9  1  0
  9  4  1  0
  9  5  1  0
  1 10  1  0
  1 11  1  0
  1 12  1  0
  2 13  1  0
  3 14  1  0
  4 15  1  0
  5 16  1  0
  6 17  1  0
  6 18  1  0
  7 19  1  0
  7 20  1  0
  8 21  1  0
  8 22  1  0
  9 23  1  0
M  END
