
     RDKit          3D

 19 18  0  0  0  0  0  0  0  0999 V2000
   -2.3956    0.8155   -0.2949 C   0  0  0  0  0  0  0  0  0  0  0  0
   -2.0580   -0.3572    0.6102 C   0  0  0  0  0  0  0  0  0  0  0  0
   -2.9251   -1.4111    0.3874 O   0  0  0  0  0  0  0  0  0  0  0  0
   -0.6629   -0.7338    0.3206 C   0  0  0  0  0  0  0  0  0  0  0  0
   -0.3864   -1.8912   -0.0754 O   0  0  0  0  0  0  0  0  0  0  0  0
    0.3787    0.1621    0.4725 O   0  0  0  0  0  0  0  0  0  0  0  0
    1.6763   -0.2746    0.1761 C   0  0  0  0  0  0  0  0  0  0  0  0
    2.7262    0.7707    0.3737 C   0  0  0  0  0  0  0  0  0  0  0  0
    3.9623    0.2177    0.0485 O   0  0  0  0  0  0  0  0  0  0  0  0
   -3.4265    0.6783   -0.6793 H   0  0  0  0  0  0  0  0  0  0  0  0
   -1.6436    0.9647   -1.0845 H   0  0  0  0  0  0  0  0  0  0  0  0
   -2.4128    1.7338    0.3428 H   0  0  0  0  0  0  0  0  0  0  0  0
   -2.1184   -0.0570    1.6811 H   0  0  0  0  0  0  0  0  0  0  0  0
   -3.8577   -1.0914    0.4836 H   0  0  0  0  0  0  0  0  0  0  0  0
    1.7087   -0.5961   -0.8807 H   0  0  0  0  0  0  0  0  0  0  0  0
    1.9076   -1.1191    0.8600 H   0  0  0  0  0  0  0  0  0  0  0  0
    2.7954    1.1574    1.3965 H   0  0  0  0  0  0  0  0  0  0  0  0
    2.5755    1.6293   -0.3125 H   0  0  0  0  0  0  0  0  0  0  0  0
    4.1563   -0.5981    0.5962 H   0  0  0  0  0  0  0  0  0  0  0  0
  1  2  1  0
  2  3  1  0
  2  4  1  0
  4  5  2  0
  4  6  1  0
  6  7  1  0
  7  8  1  0
  8  9  1  0
  1 10  1  0
  1 11  1  0
  1 12  1  0
  2 13  1  0
  3 14  1  0
  7 15  1  0
  7 16  1  0
  8 17  1  0
  8 18  1  0
  9 19  1  0
M  END
