
     RDKit          3D

 23 23  0  0  0  0  0  0  0  0999 V2000
   -2.2047    0.4212    0.5600 C   0  0  0  0  0  0  0  0  0  0  0  0
   -0.8672   -0.2939    0.5771 C   0  0  0  0  0  0  0  0  0  0  0  0
   -1.1208   -1.6466    0.3972 O   0  0  0  0  0  0  0  0  0  0  0  0
   -0.0605    0.2341   -0.5652 C   0  0  0  0  0  0  0  0  0  0  0  0
    0.0304    1.7621   -0.4240 C   0  0  0  0  0  0  0  0  0  0  0  0
   -0.7956    0.0390   -1.7357 O   0  0  0  0  0  0  0  0  0  0  0  0
    1.3132   -0.3570   -0.6698 C   0  0  0  0  0  0  0  0  0  0  0  0
    2.1789   -0.1142    0.5595 C   0  0  0  0  0  0  0  0  0  0  0  0
    1.7540   -1.5069    0.1260 C   0  0  0  0  0  0  0  0  0  0  0  0
   -3.0605   -0.3090    0.6070 H   0  0  0  0  0  0  0  0  0  0  0  0
   -2.3379    1.0641    1.4628 H   0  0  0  0  0  0  0  0  0  0  0  0
   -2.3603    0.9856   -0.3867 H   0  0  0  0  0  0  0  0  0  0  0  0
   -0.4100   -0.1044    1.5637 H   0  0  0  0  0  0  0  0  0  0  0  0
   -1.9128   -1.7783   -0.2063 H   0  0  0  0  0  0  0  0  0  0  0  0
   -0.8467    2.2549   -0.9002 H   0  0  0  0  0  0  0  0  0  0  0  0
    0.9552    2.0438   -0.9706 H   0  0  0  0  0  0  0  0  0  0  0  0
    0.0593    2.0601    0.6456 H   0  0  0  0  0  0  0  0  0  0  0  0
   -0.7545   -0.8770   -2.0735 H   0  0  0  0  0  0  0  0  0  0  0  0
    1.8066   -0.2042   -1.6566 H   0  0  0  0  0  0  0  0  0  0  0  0
    1.7088    0.3101    1.4646 H   0  0  0  0  0  0  0  0  0  0  0  0
    3.2233    0.2024    0.3818 H   0  0  0  0  0  0  0  0  0  0  0  0
    2.5638   -2.1516   -0.3031 H   0  0  0  0  0  0  0  0  0  0  0  0
    1.1381   -2.0344    0.8566 H   0  0  0  0  0  0  0  0  0  0  0  0
  1  2  1  0
  2  3  1  0
  2  4  1  0
  4  5  1  0
  4  6  1  0
  4  7  1  0
  7  8  1  0
  8  9  1  0
  9  7  1  0
  1 10  1  0
  1 11  1  0
  1 12  1  0
  2 13  1  0
  3 14  1  0
  5 15  1  0
  5 16  1  0
  5 17  1  0
  6 18  1  0
  7 19  1  0
  8 20  1  0
  8 21  1  0
  9 22  1  0
  9 23  1  0
M  END
