
     RDKit          3D

 15 14  0  0  0  0  0  0  0  0999 V2000
   -1.7453    1.7175   -0.5441 C   0  0  0  0  0  0  0  0  0  0  0  0
   -1.7243    0.3912    0.0314 C   0  0  0  0  0  0  0  0  0  0  0  0
   -2.4811   -0.6745   -0.1949 O   0  0  0  0  0  0  0  0  0  0  0  0
   -0.2954   -0.0150   -0.1184 C   0  0  0  0  0  0  0  0  0  0  0  0
    1.0816   -0.3856   -0.2754 C   0  0  0  0  0  0  0  0  0  0  0  0
    2.4006   -0.7219   -0.4092 C   0  0  0  0  0  0  0  0  0  0  0  0
    3.1656   -0.3840   -1.2835 O   0  0  0  0  0  0  0  0  0  0  0  0
    2.8780   -1.6788    0.7388 C   0  0  0  0  0  0  0  0  0  0  0  0
    2.1967   -1.5639    1.7199 O   0  0  0  0  0  0  0  0  0  0  0  0
   -2.0801    2.4439    0.3355 H   0  0  0  0  0  0  0  0  0  0  0  0
   -0.7274    2.1736   -0.8036 H   0  0  0  0  0  0  0  0  0  0  0  0
   -2.4304    1.7409   -1.3550 H   0  0  0  0  0  0  0  0  0  0  0  0
   -1.6519    0.6236    1.2784 H   0  0  0  0  0  0  0  0  0  0  0  0
   -2.2636   -1.4479    0.4676 H   0  0  0  0  0  0  0  0  0  0  0  0
    3.6770   -2.2193    0.4126 H   0  0  0  0  0  0  0  0  0  0  0  0
  1  2  1  0
  2  3  1  0
  2  4  1  0
  4  5  3  0
  5  6  1  0
  6  7  2  0
  6  8  1  0
  8  9  2  0
  1 10  1  0
  1 11  1  0
  1 12  1  0
  2 13  1  0
  3 14  1  0
  8 15  1  0
M  END
