
     RDKit          3D

 21 22  0  0  0  0  0  0  0  0999 V2000
   -2.0208   -0.6673   -0.7877 C   0  0  0  0  0  0  0  0  0  0  0  0
   -1.8595    0.3055    0.3186 C   0  0  0  0  0  0  0  0  0  0  0  0
   -2.5012   -0.2302    1.4580 O   0  0  0  0  0  0  0  0  0  0  0  0
   -0.4578    0.6144    0.7015 C   0  0  0  0  0  0  0  0  0  0  0  0
    0.3359   -0.4109    1.1386 O   0  0  0  0  0  0  0  0  0  0  0  0
    1.4295   -0.1141    0.3654 C   0  0  0  0  0  0  0  0  0  0  0  0
    2.0867   -1.2144   -0.3938 C   0  0  0  0  0  0  0  0  0  0  0  0
    1.8778    1.2624    0.0870 C   0  0  0  0  0  0  0  0  0  0  0  0
    0.5197    0.8691   -0.4073 C   0  0  0  0  0  0  0  0  0  0  0  0
   -3.1052   -0.9561   -0.8335 H   0  0  0  0  0  0  0  0  0  0  0  0
   -1.8063   -0.1811   -1.7703 H   0  0  0  0  0  0  0  0  0  0  0  0
   -1.4672   -1.6088   -0.6605 H   0  0  0  0  0  0  0  0  0  0  0  0
   -2.3722    1.2427    0.0496 H   0  0  0  0  0  0  0  0  0  0  0  0
   -2.1074    0.1584    2.2901 H   0  0  0  0  0  0  0  0  0  0  0  0
   -0.4303    1.4628    1.4252 H   0  0  0  0  0  0  0  0  0  0  0  0
    1.7129   -1.3365   -1.4245 H   0  0  0  0  0  0  0  0  0  0  0  0
    2.0924   -2.1820    0.1421 H   0  0  0  0  0  0  0  0  0  0  0  0
    3.1743   -0.9316   -0.5078 H   0  0  0  0  0  0  0  0  0  0  0  0
    1.9282    1.9663    0.9224 H   0  0  0  0  0  0  0  0  0  0  0  0
    2.6315    1.4024   -0.6841 H   0  0  0  0  0  0  0  0  0  0  0  0
    0.3392    0.5490   -1.4290 H   0  0  0  0  0  0  0  0  0  0  0  0
  1  2  1  0
  2  3  1  0
  2  4  1  0
  4  5  1  0
  5  6  1  0
  6  7  1  0
  6  8  1  0
  8  9  1  0
  9  4  1  0
  9  6  1  0
  1 10  1  0
  1 11  1  0
  1 12  1  0
  2 13  1  0
  3 14  1  0
  4 15  1  0
  7 16  1  0
  7 17  1  0
  7 18  1  0
  8 19  1  0
  8 20  1  0
  9 21  1  0
M  END
