
     RDKit          3D

 23 24  0  0  0  0  0  0  0  0999 V2000
    1.7416   -1.4523   -0.5017 C   0  0  0  0  0  0  0  0  0  0  0  0
    1.5093   -0.1392    0.1490 C   0  0  0  0  0  0  0  0  0  0  0  0
    2.2731    0.8924   -0.4467 O   0  0  0  0  0  0  0  0  0  0  0  0
    0.1146    0.3203    0.2380 C   0  0  0  0  0  0  0  0  0  0  0  0
   -0.0876    1.6572    0.9040 C   0  0  0  0  0  0  0  0  0  0  0  0
   -0.3901    1.5196   -0.5212 C   0  0  0  0  0  0  0  0  0  0  0  0
   -1.7195    0.8222   -0.8210 C   0  0  0  0  0  0  0  0  0  0  0  0
   -1.0559   -0.4427   -0.2731 C   0  0  0  0  0  0  0  0  0  0  0  0
   -1.8351   -1.0590    0.8858 C   0  0  0  0  0  0  0  0  0  0  0  0
    2.2701   -1.2524   -1.4805 H   0  0  0  0  0  0  0  0  0  0  0  0
    0.8651   -2.0842   -0.6389 H   0  0  0  0  0  0  0  0  0  0  0  0
    2.4860   -2.0822    0.0702 H   0  0  0  0  0  0  0  0  0  0  0  0
    1.9285   -0.2039    1.1970 H   0  0  0  0  0  0  0  0  0  0  0  0
    3.1822    0.4836   -0.5911 H   0  0  0  0  0  0  0  0  0  0  0  0
   -0.9362    1.6815    1.6092 H   0  0  0  0  0  0  0  0  0  0  0  0
    0.7896    2.2341    1.1859 H   0  0  0  0  0  0  0  0  0  0  0  0
    0.2174    1.8906   -1.3377 H   0  0  0  0  0  0  0  0  0  0  0  0
   -1.9654    0.7957   -1.8860 H   0  0  0  0  0  0  0  0  0  0  0  0
   -2.5208    1.2307   -0.1586 H   0  0  0  0  0  0  0  0  0  0  0  0
   -0.8743   -1.1301   -1.1128 H   0  0  0  0  0  0  0  0  0  0  0  0
   -2.7333   -0.4594    1.1421 H   0  0  0  0  0  0  0  0  0  0  0  0
   -2.0856   -2.0909    0.5898 H   0  0  0  0  0  0  0  0  0  0  0  0
   -1.1736   -1.1317    1.7983 H   0  0  0  0  0  0  0  0  0  0  0  0
  1  2  1  0
  2  3  1  0
  2  4  1  0
  4  5  1  0
  5  6  1  0
  6  7  1  0
  7  8  1  0
  8  9  1  0
  6  4  1  0
  8  4  1  0
  1 10  1  0
  1 11  1  0
  1 12  1  0
  2 13  1  0
  3 14  1  0
  5 15  1  0
  5 16  1  0
  6 17  1  0
  7 18  1  0
  7 19  1  0
  8 20  1  0
  9 21  1  0
  9 22  1  0
  9 23  1  0
M  END
