
     RDKit          3D

 21 20  0  0  0  0  0  0  0  0999 V2000
   -2.2118   -1.3953   -0.0367 C   0  0  0  0  0  0  0  0  0  0  0  0
   -2.3232    0.1077   -0.1263 C   0  0  0  0  0  0  0  0  0  0  0  0
   -1.9533    0.5984   -1.3759 O   0  0  0  0  0  0  0  0  0  0  0  0
   -1.4988    0.7877    0.9382 C   0  0  0  0  0  0  0  0  0  0  0  0
   -0.1068    0.3847    0.7318 C   0  0  0  0  0  0  0  0  0  0  0  0
    1.0561    0.0633    0.5725 C   0  0  0  0  0  0  0  0  0  0  0  0
    2.4581   -0.3032    0.3667 C   0  0  0  0  0  0  0  0  0  0  0  0
    2.7952    0.0383   -1.0678 C   0  0  0  0  0  0  0  0  0  0  0  0
    2.6105    1.4023   -1.2935 O   0  0  0  0  0  0  0  0  0  0  0  0
   -1.2368   -1.7240    0.3540 H   0  0  0  0  0  0  0  0  0  0  0  0
   -3.0713   -1.7950    0.5141 H   0  0  0  0  0  0  0  0  0  0  0  0
   -2.2539   -1.7683   -1.0998 H   0  0  0  0  0  0  0  0  0  0  0  0
   -3.3906    0.4372    0.0208 H   0  0  0  0  0  0  0  0  0  0  0  0
   -2.7368    0.6100   -2.0002 H   0  0  0  0  0  0  0  0  0  0  0  0
   -1.8517    0.5537    1.9586 H   0  0  0  0  0  0  0  0  0  0  0  0
   -1.6335    1.8889    0.8047 H   0  0  0  0  0  0  0  0  0  0  0  0
    2.6656   -1.3498    0.5890 H   0  0  0  0  0  0  0  0  0  0  0  0
    3.1355    0.3372    1.0033 H   0  0  0  0  0  0  0  0  0  0  0  0
    2.2828   -0.5892   -1.8002 H   0  0  0  0  0  0  0  0  0  0  0  0
    3.8964   -0.1423   -1.1716 H   0  0  0  0  0  0  0  0  0  0  0  0
    3.3680    1.8577   -0.8062 H   0  0  0  0  0  0  0  0  0  0  0  0
  1  2  1  0
  2  3  1  0
  2  4  1  0
  4  5  1  0
  5  6  3  0
  6  7  1  0
  7  8  1  0
  8  9  1  0
  1 10  1  0
  1 11  1  0
  1 12  1  0
  2 13  1  0
  3 14  1  0
  4 15  1  0
  4 16  1  0
  7 17  1  0
  7 18  1  0
  8 19  1  0
  8 20  1  0
  9 21  1  0
M  END
