
     RDKit          3D

 23 24  0  0  0  0  0  0  0  0999 V2000
   -2.7364    0.5721    0.6530 C   0  0  0  0  0  0  0  0  0  0  0  0
   -1.8422   -0.6560    0.4555 C   0  0  0  0  0  0  0  0  0  0  0  0
   -1.5623   -1.2577    1.6598 O   0  0  0  0  0  0  0  0  0  0  0  0
   -0.5541   -0.1652   -0.1480 C   0  0  0  0  0  0  0  0  0  0  0  0
    0.1940    0.8471    0.7171 C   0  0  0  0  0  0  0  0  0  0  0  0
    1.4325    0.1517    0.2784 C   0  0  0  0  0  0  0  0  0  0  0  0
    2.3934    0.6767   -0.6711 C   0  0  0  0  0  0  0  0  0  0  0  0
    2.7474    0.2891    0.7935 C   0  0  0  0  0  0  0  0  0  0  0  0
    0.6436   -1.0968    0.0933 C   0  0  0  0  0  0  0  0  0  0  0  0
   -3.1103    0.9024   -0.3440 H   0  0  0  0  0  0  0  0  0  0  0  0
   -2.1897    1.3657    1.1661 H   0  0  0  0  0  0  0  0  0  0  0  0
   -3.6464    0.2575    1.2235 H   0  0  0  0  0  0  0  0  0  0  0  0
   -2.3111   -1.3312   -0.2832 H   0  0  0  0  0  0  0  0  0  0  0  0
   -1.8541   -2.2041    1.6147 H   0  0  0  0  0  0  0  0  0  0  0  0
   -0.5925    0.1770   -1.1881 H   0  0  0  0  0  0  0  0  0  0  0  0
   -0.0628    0.6788    1.8024 H   0  0  0  0  0  0  0  0  0  0  0  0
    0.0630    1.8930    0.4170 H   0  0  0  0  0  0  0  0  0  0  0  0
    2.3577    1.7701   -0.8788 H   0  0  0  0  0  0  0  0  0  0  0  0
    2.7642    0.0167   -1.4652 H   0  0  0  0  0  0  0  0  0  0  0  0
    3.4487   -0.5769    0.8505 H   0  0  0  0  0  0  0  0  0  0  0  0
    3.0704    1.1294    1.4327 H   0  0  0  0  0  0  0  0  0  0  0  0
    0.8974   -1.7309   -0.7573 H   0  0  0  0  0  0  0  0  0  0  0  0
    0.4495   -1.7085    0.9919 H   0  0  0  0  0  0  0  0  0  0  0  0
  1  2  1  0
  2  3  1  0
  2  4  1  0
  4  5  1  0
  5  6  1  0
  6  7  1  0
  7  8  1  0
  6  9  1  0
  9  4  1  0
  8  6  1  0
  1 10  1  0
  1 11  1  0
  1 12  1  0
  2 13  1  0
  3 14  1  0
  4 15  1  0
  5 16  1  0
  5 17  1  0
  7 18  1  0
  7 19  1  0
  8 20  1  0
  8 21  1  0
  9 22  1  0
  9 23  1  0
M  END
