
     RDKit          3D

 23 22  0  0  0  0  0  0  0  0999 V2000
   -2.1554    0.3379   -0.1250 C   0  0  0  0  0  0  0  0  0  0  0  0
   -0.7450    0.7758    0.0238 C   0  0  0  0  0  0  0  0  0  0  0  0
   -0.6160    1.4388    1.2408 O   0  0  0  0  0  0  0  0  0  0  0  0
    0.2628   -0.3339   -0.0049 C   0  0  0  0  0  0  0  0  0  0  0  0
   -0.0828   -1.2676    1.1659 C   0  0  0  0  0  0  0  0  0  0  0  0
    0.1854   -1.1881   -1.2381 C   0  0  0  0  0  0  0  0  0  0  0  0
    1.6201    0.2026    0.2635 C   0  0  0  0  0  0  0  0  0  0  0  0
    2.1020    1.2075   -0.6841 C   0  0  0  0  0  0  0  0  0  0  0  0
    3.2147    1.6735   -0.4974 O   0  0  0  0  0  0  0  0  0  0  0  0
   -2.7630    0.5133    0.8117 H   0  0  0  0  0  0  0  0  0  0  0  0
   -2.2893   -0.7245   -0.3654 H   0  0  0  0  0  0  0  0  0  0  0  0
   -2.7132    0.9171   -0.9129 H   0  0  0  0  0  0  0  0  0  0  0  0
   -0.5268    1.5271   -0.7702 H   0  0  0  0  0  0  0  0  0  0  0  0
   -1.3510    2.0603    1.4076 H   0  0  0  0  0  0  0  0  0  0  0  0
    0.6440   -2.1066    1.0850 H   0  0  0  0  0  0  0  0  0  0  0  0
   -1.1153   -1.5916    1.0849 H   0  0  0  0  0  0  0  0  0  0  0  0
    0.1556   -0.7198    2.1045 H   0  0  0  0  0  0  0  0  0  0  0  0
    0.1841   -0.5846   -2.1622 H   0  0  0  0  0  0  0  0  0  0  0  0
    1.1206   -1.8205   -1.2385 H   0  0  0  0  0  0  0  0  0  0  0  0
   -0.6502   -1.9145   -1.1879 H   0  0  0  0  0  0  0  0  0  0  0  0
    2.3433   -0.6647    0.2660 H   0  0  0  0  0  0  0  0  0  0  0  0
    1.6066    0.6746    1.2796 H   0  0  0  0  0  0  0  0  0  0  0  0
    1.5687    1.5878   -1.5467 H   0  0  0  0  0  0  0  0  0  0  0  0
  1  2  1  0
  2  3  1  0
  2  4  1  0
  4  5  1  0
  4  6  1  0
  4  7  1  0
  7  8  1  0
  8  9  2  0
  1 10  1  0
  1 11  1  0
  1 12  1  0
  2 13  1  0
  3 14  1  0
  5 15  1  0
  5 16  1  0
  5 17  1  0
  6 18  1  0
  6 19  1  0
  6 20  1  0
  7 21  1  0
  7 22  1  0
  8 23  1  0
M  END
