
     RDKit          3D

 23 24  0  0  0  0  0  0  0  0999 V2000
    2.2114    0.7843    0.5102 C   0  0  0  0  0  0  0  0  0  0  0  0
    1.4211   -0.4846    0.3075 C   0  0  0  0  0  0  0  0  0  0  0  0
    2.0226   -1.3199   -0.6343 O   0  0  0  0  0  0  0  0  0  0  0  0
    0.0146   -0.2366    0.0763 C   0  0  0  0  0  0  0  0  0  0  0  0
   -0.8150    0.4653    1.0927 C   0  0  0  0  0  0  0  0  0  0  0  0
   -2.1424    0.5666    0.3096 C   0  0  0  0  0  0  0  0  0  0  0  0
   -1.7432   -0.1933   -0.9158 C   0  0  0  0  0  0  0  0  0  0  0  0
   -0.3886    0.4626   -1.2312 C   0  0  0  0  0  0  0  0  0  0  0  0
   -0.8880   -1.3503   -0.3741 C   0  0  0  0  0  0  0  0  0  0  0  0
    1.9265    1.2415    1.4844 H   0  0  0  0  0  0  0  0  0  0  0  0
    3.2871    0.5288    0.4782 H   0  0  0  0  0  0  0  0  0  0  0  0
    2.0028    1.5473   -0.2674 H   0  0  0  0  0  0  0  0  0  0  0  0
    1.5132   -1.0490    1.2846 H   0  0  0  0  0  0  0  0  0  0  0  0
    2.9986   -1.1950   -0.6783 H   0  0  0  0  0  0  0  0  0  0  0  0
   -0.9349   -0.2096    1.9670 H   0  0  0  0  0  0  0  0  0  0  0  0
   -0.4373    1.4602    1.3540 H   0  0  0  0  0  0  0  0  0  0  0  0
   -2.3962    1.6234    0.1032 H   0  0  0  0  0  0  0  0  0  0  0  0
   -2.9498    0.0374    0.8835 H   0  0  0  0  0  0  0  0  0  0  0  0
   -2.4072   -0.3838   -1.7086 H   0  0  0  0  0  0  0  0  0  0  0  0
   -0.4127    1.5498   -1.1667 H   0  0  0  0  0  0  0  0  0  0  0  0
    0.0341    0.0015   -2.1321 H   0  0  0  0  0  0  0  0  0  0  0  0
   -0.5043   -1.9900   -1.1901 H   0  0  0  0  0  0  0  0  0  0  0  0
   -1.4126   -1.8565    0.4473 H   0  0  0  0  0  0  0  0  0  0  0  0
  1  2  1  0
  2  3  1  0
  2  4  1  0
  4  5  1  0
  5  6  1  0
  6  7  1  0
  7  8  1  0
  7  9  1  0
  8  4  1  0
  9  4  1  0
  1 10  1  0
  1 11  1  0
  1 12  1  0
  2 13  1  0
  3 14  1  0
  5 15  1  0
  5 16  1  0
  6 17  1  0
  6 18  1  0
  7 19  1  0
  8 20  1  0
  8 21  1  0
  9 22  1  0
  9 23  1  0
M  END
