
     RDKit          3D

 19 19  0  0  0  0  0  0  0  0999 V2000
   -1.4820    1.2948   -0.1036 C   0  0  0  0  0  0  0  0  0  0  0  0
   -0.7094    0.0210    0.2657 C   0  0  0  0  0  0  0  0  0  0  0  0
   -1.1442   -0.3247    1.5418 O   0  0  0  0  0  0  0  0  0  0  0  0
   -1.0550   -1.0258   -0.6881 C   0  0  0  0  0  0  0  0  0  0  0  0
   -1.6430   -2.0173   -0.2972 O   0  0  0  0  0  0  0  0  0  0  0  0
    0.7269    0.3804    0.3384 C   0  0  0  0  0  0  0  0  0  0  0  0
    1.6255   -0.7856    0.6970 C   0  0  0  0  0  0  0  0  0  0  0  0
    2.6221   -0.1094   -0.0391 O   0  0  0  0  0  0  0  0  0  0  0  0
    1.5566    0.2711   -0.8947 C   0  0  0  0  0  0  0  0  0  0  0  0
   -2.4347    0.9940   -0.5513 H   0  0  0  0  0  0  0  0  0  0  0  0
   -1.6105    1.9122    0.8235 H   0  0  0  0  0  0  0  0  0  0  0  0
   -0.8451    1.8672   -0.8112 H   0  0  0  0  0  0  0  0  0  0  0  0
   -2.0231   -0.7648    1.5539 H   0  0  0  0  0  0  0  0  0  0  0  0
   -0.8308   -1.0068   -1.7526 H   0  0  0  0  0  0  0  0  0  0  0  0
    0.9305    1.2844    0.9116 H   0  0  0  0  0  0  0  0  0  0  0  0
    1.3387   -1.7146    0.1575 H   0  0  0  0  0  0  0  0  0  0  0  0
    1.8419   -0.9032    1.7664 H   0  0  0  0  0  0  0  0  0  0  0  0
    1.3371   -0.5913   -1.5387 H   0  0  0  0  0  0  0  0  0  0  0  0
    1.7983    1.2184   -1.3796 H   0  0  0  0  0  0  0  0  0  0  0  0
  1  2  1  0
  2  3  1  0
  2  4  1  0
  4  5  2  0
  2  6  1  0
  6  7  1  0
  7  8  1  0
  8  9  1  0
  9  6  1  0
  1 10  1  0
  1 11  1  0
  1 12  1  0
  3 13  1  0
  4 14  1  0
  6 15  1  0
  7 16  1  0
  7 17  1  0
  9 18  1  0
  9 19  1  0
M  END
