
     RDKit          3D

 19 18  0  0  0  0  0  0  0  0999 V2000
   -1.8404   -0.8161    0.8045 C   0  0  0  0  0  0  0  0  0  0  0  0
   -0.7994   -0.0228   -0.0214 C   0  0  0  0  0  0  0  0  0  0  0  0
   -1.2854    0.1753   -1.3242 O   0  0  0  0  0  0  0  0  0  0  0  0
   -0.6991    1.2915    0.6321 C   0  0  0  0  0  0  0  0  0  0  0  0
   -0.8804    2.3366    0.0304 O   0  0  0  0  0  0  0  0  0  0  0  0
    0.4153   -0.8658   -0.0478 C   0  0  0  0  0  0  0  0  0  0  0  0
    1.6020   -0.3943   -0.8115 C   0  0  0  0  0  0  0  0  0  0  0  0
    2.2239    0.8156   -0.3223 C   0  0  0  0  0  0  0  0  0  0  0  0
    1.9645    1.3647    0.6936 O   0  0  0  0  0  0  0  0  0  0  0  0
   -1.8726   -1.8273    0.3483 H   0  0  0  0  0  0  0  0  0  0  0  0
   -1.3808   -0.8888    1.8197 H   0  0  0  0  0  0  0  0  0  0  0  0
   -2.8101   -0.3017    0.8111 H   0  0  0  0  0  0  0  0  0  0  0  0
   -1.8337    0.9815   -1.3125 H   0  0  0  0  0  0  0  0  0  0  0  0
   -0.4589    1.3651    1.6905 H   0  0  0  0  0  0  0  0  0  0  0  0
    0.6850   -1.0607    1.0405 H   0  0  0  0  0  0  0  0  0  0  0  0
    0.1802   -1.9253   -0.4017 H   0  0  0  0  0  0  0  0  0  0  0  0
    2.4245   -1.1974   -0.7580 H   0  0  0  0  0  0  0  0  0  0  0  0
    1.3535   -0.2984   -1.9181 H   0  0  0  0  0  0  0  0  0  0  0  0
    3.0117    1.2682   -0.9532 H   0  0  0  0  0  0  0  0  0  0  0  0
  1  2  1  0
  2  3  1  0
  2  4  1  0
  4  5  2  0
  2  6  1  0
  6  7  1  0
  7  8  1  0
  8  9  2  0
  1 10  1  0
  1 11  1  0
  1 12  1  0
  3 13  1  0
  4 14  1  0
  6 15  1  0
  6 16  1  0
  7 17  1  0
  7 18  1  0
  8 19  1  0
M  END
