
     RDKit          3D

 21 21  0  0  0  0  0  0  0  0999 V2000
    1.8605   -0.9141    0.3357 C   0  0  0  0  0  0  0  0  0  0  0  0
    1.0455    0.3464    0.2425 C   0  0  0  0  0  0  0  0  0  0  0  0
    1.5005    1.0683   -0.8473 O   0  0  0  0  0  0  0  0  0  0  0  0
   -0.4337    0.1032    0.1793 C   0  0  0  0  0  0  0  0  0  0  0  0
   -1.1692    1.4214    0.0514 C   0  0  0  0  0  0  0  0  0  0  0  0
   -0.7261    2.1646   -1.0324 O   0  0  0  0  0  0  0  0  0  0  0  0
   -0.9096   -0.9128   -0.8048 C   0  0  0  0  0  0  0  0  0  0  0  0
   -1.2612   -1.6909    0.4585 C   0  0  0  0  0  0  0  0  0  0  0  0
   -0.8935   -0.6178    1.2659 O   0  0  0  0  0  0  0  0  0  0  0  0
    1.8873   -1.4712   -0.6326 H   0  0  0  0  0  0  0  0  0  0  0  0
    1.5710   -1.5245    1.1898 H   0  0  0  0  0  0  0  0  0  0  0  0
    2.9170   -0.5960    0.5214 H   0  0  0  0  0  0  0  0  0  0  0  0
    1.2420    0.9282    1.1679 H   0  0  0  0  0  0  0  0  0  0  0  0
    2.0881    1.8318   -0.5491 H   0  0  0  0  0  0  0  0  0  0  0  0
   -1.0435    2.0426    0.9656 H   0  0  0  0  0  0  0  0  0  0  0  0
   -2.2669    1.2345   -0.1333 H   0  0  0  0  0  0  0  0  0  0  0  0
   -0.4811    3.0751   -0.7749 H   0  0  0  0  0  0  0  0  0  0  0  0
   -1.8478   -0.5985   -1.3399 H   0  0  0  0  0  0  0  0  0  0  0  0
   -0.1455   -1.3715   -1.4384 H   0  0  0  0  0  0  0  0  0  0  0  0
   -0.6137   -2.5580    0.6639 H   0  0  0  0  0  0  0  0  0  0  0  0
   -2.3200   -1.9606    0.5109 H   0  0  0  0  0  0  0  0  0  0  0  0
  1  2  1  0
  2  3  1  0
  2  4  1  0
  4  5  1  0
  5  6  1  0
  4  7  1  0
  7  8  1  0
  8  9  1  0
  9  4  1  0
  1 10  1  0
  1 11  1  0
  1 12  1  0
  2 13  1  0
  3 14  1  0
  5 15  1  0
  5 16  1  0
  6 17  1  0
  7 18  1  0
  7 19  1  0
  8 20  1  0
  8 21  1  0
M  END
