
     RDKit          3D

 23 23  0  0  0  0  0  0  0  0999 V2000
    2.3051   -0.8974    0.7538 C   0  0  0  0  0  0  0  0  0  0  0  0
    2.1465    0.0566   -0.3715 C   0  0  0  0  0  0  0  0  0  0  0  0
    2.5680    1.3350    0.0211 O   0  0  0  0  0  0  0  0  0  0  0  0
    0.8513    0.0965   -1.0728 C   0  0  0  0  0  0  0  0  0  0  0  0
   -0.3602    0.4525   -0.2725 C   0  0  0  0  0  0  0  0  0  0  0  0
   -0.7084   -0.4642    0.8624 C   0  0  0  0  0  0  0  0  0  0  0  0
   -1.5754   -0.3560   -0.4407 C   0  0  0  0  0  0  0  0  0  0  0  0
   -2.9520    0.1708   -0.1951 C   0  0  0  0  0  0  0  0  0  0  0  0
   -3.1309    0.6139    1.1279 O   0  0  0  0  0  0  0  0  0  0  0  0
    1.8100   -0.5220    1.6563 H   0  0  0  0  0  0  0  0  0  0  0  0
    1.9829   -1.9188    0.5471 H   0  0  0  0  0  0  0  0  0  0  0  0
    3.4032   -0.9862    1.0541 H   0  0  0  0  0  0  0  0  0  0  0  0
    2.9144   -0.2462   -1.1495 H   0  0  0  0  0  0  0  0  0  0  0  0
    2.3351    1.9881   -0.6836 H   0  0  0  0  0  0  0  0  0  0  0  0
    0.7113   -0.8382   -1.6663 H   0  0  0  0  0  0  0  0  0  0  0  0
    0.9324    0.8976   -1.8651 H   0  0  0  0  0  0  0  0  0  0  0  0
   -0.4614    1.5479    0.0063 H   0  0  0  0  0  0  0  0  0  0  0  0
   -1.1625   -0.0412    1.7845 H   0  0  0  0  0  0  0  0  0  0  0  0
   -0.2586   -1.4393    1.0265 H   0  0  0  0  0  0  0  0  0  0  0  0
   -1.5046   -1.2470   -1.1202 H   0  0  0  0  0  0  0  0  0  0  0  0
   -3.6740   -0.6908   -0.3044 H   0  0  0  0  0  0  0  0  0  0  0  0
   -3.2788    0.9232   -0.9289 H   0  0  0  0  0  0  0  0  0  0  0  0
   -2.8933    1.5652    1.2307 H   0  0  0  0  0  0  0  0  0  0  0  0
  1  2  1  0
  2  3  1  0
  2  4  1  0
  4  5  1  0
  5  6  1  0
  6  7  1  0
  7  8  1  0
  8  9  1  0
  7  5  1  0
  1 10  1  0
  1 11  1  0
  1 12  1  0
  2 13  1  0
  3 14  1  0
  4 15  1  0
  4 16  1  0
  5 17  1  0
  6 18  1  0
  6 19  1  0
  7 20  1  0
  8 21  1  0
  8 22  1  0
  9 23  1  0
M  END
