
     RDKit          3D

 21 20  0  0  0  0  0  0  0  0999 V2000
    1.9299    0.5776    0.0208 C   0  0  0  0  0  0  0  0  0  0  0  0
    0.9168   -0.5039   -0.1891 C   0  0  0  0  0  0  0  0  0  0  0  0
    1.1106   -1.6244    0.5785 O   0  0  0  0  0  0  0  0  0  0  0  0
   -0.5105   -0.0177   -0.0270 C   0  0  0  0  0  0  0  0  0  0  0  0
   -1.4070   -1.2246   -0.2696 C   0  0  0  0  0  0  0  0  0  0  0  0
   -0.7440    1.0214   -1.1255 C   0  0  0  0  0  0  0  0  0  0  0  0
   -0.7879    0.5365    1.3317 C   0  0  0  0  0  0  0  0  0  0  0  0
    2.0869    0.8463    1.0769 H   0  0  0  0  0  0  0  0  0  0  0  0
    1.6254    1.4445   -0.6071 H   0  0  0  0  0  0  0  0  0  0  0  0
    2.8881    0.2101   -0.4528 H   0  0  0  0  0  0  0  0  0  0  0  0
    1.0019   -0.8177   -1.2706 H   0  0  0  0  0  0  0  0  0  0  0  0
    1.9915   -1.7319    0.9675 H   0  0  0  0  0  0  0  0  0  0  0  0
   -0.8340   -2.1718   -0.2977 H   0  0  0  0  0  0  0  0  0  0  0  0
   -2.1344   -1.3503    0.5822 H   0  0  0  0  0  0  0  0  0  0  0  0
   -2.0045   -1.0837   -1.1851 H   0  0  0  0  0  0  0  0  0  0  0  0
   -1.6756    0.7234   -1.6820 H   0  0  0  0  0  0  0  0  0  0  0  0
   -0.8729    2.0344   -0.7035 H   0  0  0  0  0  0  0  0  0  0  0  0
    0.0637    0.9907   -1.8903 H   0  0  0  0  0  0  0  0  0  0  0  0
   -1.6362    0.0379    1.8528 H   0  0  0  0  0  0  0  0  0  0  0  0
   -1.0922    1.6223    1.2734 H   0  0  0  0  0  0  0  0  0  0  0  0
    0.0845    0.4809    2.0166 H   0  0  0  0  0  0  0  0  0  0  0  0
  1  2  1  0
  2  3  1  0
  2  4  1  0
  4  5  1  0
  4  6  1  0
  4  7  1  0
  1  8  1  0
  1  9  1  0
  1 10  1  0
  2 11  1  0
  3 12  1  0
  5 13  1  0
  5 14  1  0
  5 15  1  0
  6 16  1  0
  6 17  1  0
  6 18  1  0
  7 19  1  0
  7 20  1  0
  7 21  1  0
M  END
