
     RDKit          3D

 21 21  0  0  0  0  0  0  0  0999 V2000
   -2.4157    0.8543    0.0873 C   0  0  0  0  0  0  0  0  0  0  0  0
   -1.4949   -0.0750   -0.6234 C   0  0  0  0  0  0  0  0  0  0  0  0
   -2.0767   -1.3257   -0.7196 O   0  0  0  0  0  0  0  0  0  0  0  0
   -0.1441   -0.2180    0.0336 C   0  0  0  0  0  0  0  0  0  0  0  0
    0.5781    1.0902    0.1628 C   0  0  0  0  0  0  0  0  0  0  0  0
    1.7578    0.8629    0.8650 O   0  0  0  0  0  0  0  0  0  0  0  0
    2.5617   -0.0291    0.1869 C   0  0  0  0  0  0  0  0  0  0  0  0
    1.8377   -1.3243   -0.1342 C   0  0  0  0  0  0  0  0  0  0  0  0
    0.6289   -1.0603   -0.7637 O   0  0  0  0  0  0  0  0  0  0  0  0
   -2.2030    0.9972    1.1558 H   0  0  0  0  0  0  0  0  0  0  0  0
   -2.4387    1.8875   -0.3680 H   0  0  0  0  0  0  0  0  0  0  0  0
   -3.4786    0.4909   -0.0172 H   0  0  0  0  0  0  0  0  0  0  0  0
   -1.3360    0.2913   -1.6798 H   0  0  0  0  0  0  0  0  0  0  0  0
   -2.8670   -1.4335   -0.1396 H   0  0  0  0  0  0  0  0  0  0  0  0
   -0.2548   -0.6876    1.0136 H   0  0  0  0  0  0  0  0  0  0  0  0
   -0.0006    1.8406    0.7383 H   0  0  0  0  0  0  0  0  0  0  0  0
    0.8071    1.5105   -0.8555 H   0  0  0  0  0  0  0  0  0  0  0  0
    3.4831   -0.2262    0.7345 H   0  0  0  0  0  0  0  0  0  0  0  0
    2.8410    0.4275   -0.7921 H   0  0  0  0  0  0  0  0  0  0  0  0
    2.4962   -1.9034   -0.8206 H   0  0  0  0  0  0  0  0  0  0  0  0
    1.7186   -1.9696    0.7714 H   0  0  0  0  0  0  0  0  0  0  0  0
  1  2  1  0
  2  3  1  0
  2  4  1  0
  4  5  1  0
  5  6  1  0
  6  7  1  0
  7  8  1  0
  8  9  1  0
  9  4  1  0
  1 10  1  0
  1 11  1  0
  1 12  1  0
  2 13  1  0
  3 14  1  0
  4 15  1  0
  5 16  1  0
  5 17  1  0
  7 18  1  0
  7 19  1  0
  8 20  1  0
  8 21  1  0
M  END
