
     RDKit          3D

 18 18  0  0  0  0  0  0  0  0999 V2000
   -2.2009   -0.1701   -0.0513 C   0  0  0  0  0  0  0  0  0  0  0  0
   -0.7524   -0.3293    0.3980 C   0  0  0  0  0  0  0  0  0  0  0  0
   -0.4776    0.7309    1.2578 O   0  0  0  0  0  0  0  0  0  0  0  0
    0.1113   -0.2008   -0.8093 C   0  0  0  0  0  0  0  0  0  0  0  0
   -0.1941    1.0290   -1.4187 O   0  0  0  0  0  0  0  0  0  0  0  0
    1.5776   -0.2017   -0.5336 C   0  0  0  0  0  0  0  0  0  0  0  0
    2.2056   -0.4246    0.7206 C   0  0  0  0  0  0  0  0  0  0  0  0
    1.9016    0.9316    0.3711 O   0  0  0  0  0  0  0  0  0  0  0  0
   -2.3470   -0.5962   -1.0677 H   0  0  0  0  0  0  0  0  0  0  0  0
   -2.4947    0.8986   -0.1237 H   0  0  0  0  0  0  0  0  0  0  0  0
   -2.9024   -0.7131    0.6182 H   0  0  0  0  0  0  0  0  0  0  0  0
   -0.6776   -1.3090    0.9013 H   0  0  0  0  0  0  0  0  0  0  0  0
   -1.2967    1.2254    1.5140 H   0  0  0  0  0  0  0  0  0  0  0  0
   -0.1213   -0.9735   -1.5791 H   0  0  0  0  0  0  0  0  0  0  0  0
    0.4573    1.7037   -1.1081 H   0  0  0  0  0  0  0  0  0  0  0  0
    2.1980   -0.1925   -1.4595 H   0  0  0  0  0  0  0  0  0  0  0  0
    1.7097   -0.8248    1.6281 H   0  0  0  0  0  0  0  0  0  0  0  0
    3.3036   -0.5838    0.7420 H   0  0  0  0  0  0  0  0  0  0  0  0
  1  2  1  0
  2  3  1  0
  2  4  1  0
  4  5  1  0
  4  6  1  0
  6  7  1  0
  7  8  1  0
  8  6  1  0
  1  9  1  0
  1 10  1  0
  1 11  1  0
  2 12  1  0
  3 13  1  0
  4 14  1  0
  5 15  1  0
  6 16  1  0
  7 17  1  0
  7 18  1  0
M  END
