
     RDKit          3D

 23 23  0  0  0  0  0  0  0  0999 V2000
    2.6079    0.4397   -0.2308 C   0  0  0  0  0  0  0  0  0  0  0  0
    1.6160    0.0644    0.8448 C   0  0  0  0  0  0  0  0  0  0  0  0
    1.1527    1.2316    1.4524 O   0  0  0  0  0  0  0  0  0  0  0  0
    0.4458   -0.7331    0.2519 C   0  0  0  0  0  0  0  0  0  0  0  0
   -0.0583    0.0361   -0.9164 C   0  0  0  0  0  0  0  0  0  0  0  0
   -1.4300   -0.4881   -1.2776 C   0  0  0  0  0  0  0  0  0  0  0  0
   -2.3238   -0.2294   -0.0988 C   0  0  0  0  0  0  0  0  0  0  0  0
   -1.6514   -0.4467    1.2179 C   0  0  0  0  0  0  0  0  0  0  0  0
   -0.4660   -1.1028    1.1744 O   0  0  0  0  0  0  0  0  0  0  0  0
    2.5208   -0.3218   -1.0278 H   0  0  0  0  0  0  0  0  0  0  0  0
    2.3843    1.4156   -0.7006 H   0  0  0  0  0  0  0  0  0  0  0  0
    3.6553    0.3823    0.1426 H   0  0  0  0  0  0  0  0  0  0  0  0
    2.1444   -0.5333    1.6110 H   0  0  0  0  0  0  0  0  0  0  0  0
    1.0576    1.9430    0.7514 H   0  0  0  0  0  0  0  0  0  0  0  0
    0.9321   -1.6700   -0.1537 H   0  0  0  0  0  0  0  0  0  0  0  0
    0.6018   -0.1375   -1.7993 H   0  0  0  0  0  0  0  0  0  0  0  0
   -0.1314    1.1130   -0.7712 H   0  0  0  0  0  0  0  0  0  0  0  0
   -1.8033    0.0902   -2.1426 H   0  0  0  0  0  0  0  0  0  0  0  0
   -1.3973   -1.5575   -1.5417 H   0  0  0  0  0  0  0  0  0  0  0  0
   -3.2487   -0.8145   -0.2418 H   0  0  0  0  0  0  0  0  0  0  0  0
   -2.6412    0.8487   -0.1735 H   0  0  0  0  0  0  0  0  0  0  0  0
   -1.6023    0.5188    1.8035 H   0  0  0  0  0  0  0  0  0  0  0  0
   -2.3651   -1.0803    1.8260 H   0  0  0  0  0  0  0  0  0  0  0  0
  1  2  1  0
  2  3  1  0
  2  4  1  0
  4  5  1  0
  5  6  1  0
  6  7  1  0
  7  8  1  0
  8  9  1  0
  9  4  1  0
  1 10  1  0
  1 11  1  0
  1 12  1  0
  2 13  1  0
  3 14  1  0
  4 15  1  0
  5 16  1  0
  5 17  1  0
  6 18  1  0
  6 19  1  0
  7 20  1  0
  7 21  1  0
  8 22  1  0
  8 23  1  0
M  END
