
     RDKit          3D

 19 19  0  0  0  0  0  0  0  0999 V2000
   -2.3113   -0.3827   -0.5976 C   0  0  0  0  0  0  0  0  0  0  0  0
   -0.9042    0.0581   -0.3257 C   0  0  0  0  0  0  0  0  0  0  0  0
   -0.5305    1.2558   -0.8860 O   0  0  0  0  0  0  0  0  0  0  0  0
   -0.4590   -0.0361    1.1176 C   0  0  0  0  0  0  0  0  0  0  0  0
    0.9247   -0.3742    0.5450 C   0  0  0  0  0  0  0  0  0  0  0  0
    1.5998    0.7704    0.0300 O   0  0  0  0  0  0  0  0  0  0  0  0
    2.9199    1.0391    0.2571 C   0  0  0  0  0  0  0  0  0  0  0  0
    3.5767    0.2241    0.9647 O   0  0  0  0  0  0  0  0  0  0  0  0
    0.1532   -1.0217   -0.6006 C   0  0  0  0  0  0  0  0  0  0  0  0
   -2.4508   -0.3875   -1.6972 H   0  0  0  0  0  0  0  0  0  0  0  0
   -2.9907    0.3487   -0.1344 H   0  0  0  0  0  0  0  0  0  0  0  0
   -2.4449   -1.4016   -0.2082 H   0  0  0  0  0  0  0  0  0  0  0  0
   -1.0978    2.0015   -0.5343 H   0  0  0  0  0  0  0  0  0  0  0  0
   -0.4702    0.9101    1.6816 H   0  0  0  0  0  0  0  0  0  0  0  0
   -0.8683   -0.9154    1.6122 H   0  0  0  0  0  0  0  0  0  0  0  0
    1.5217   -1.0486    1.1466 H   0  0  0  0  0  0  0  0  0  0  0  0
    3.4633    1.8969   -0.1176 H   0  0  0  0  0  0  0  0  0  0  0  0
   -0.2390   -2.0350   -0.3462 H   0  0  0  0  0  0  0  0  0  0  0  0
    0.6076   -0.9018   -1.5837 H   0  0  0  0  0  0  0  0  0  0  0  0
  1  2  1  0
  2  3  1  0
  2  4  1  0
  4  5  1  0
  5  6  1  0
  6  7  1  0
  7  8  2  0
  5  9  1  0
  9  2  1  0
  1 10  1  0
  1 11  1  0
  1 12  1  0
  3 13  1  0
  4 14  1  0
  4 15  1  0
  5 16  1  0
  7 17  1  0
  9 18  1  0
  9 19  1  0
M  END
