
     RDKit          3D

 23 23  0  0  0  0  0  0  0  0999 V2000
    1.9134    0.4633   -0.1709 C   0  0  0  0  0  0  0  0  0  0  0  0
    0.5274    0.0866    0.2200 C   0  0  0  0  0  0  0  0  0  0  0  0
    0.4453   -0.0609    1.7078 C   0  0  0  0  0  0  0  0  0  0  0  0
    0.0882   -1.2040   -0.4855 C   0  0  0  0  0  0  0  0  0  0  0  0
    0.4897   -1.0444   -1.8289 O   0  0  0  0  0  0  0  0  0  0  0  0
   -1.4266   -1.1533   -0.4017 C   0  0  0  0  0  0  0  0  0  0  0  0
   -1.8010    0.2389    0.0007 C   0  0  0  0  0  0  0  0  0  0  0  0
   -0.5293    1.0375   -0.3061 C   0  0  0  0  0  0  0  0  0  0  0  0
   -0.5181    2.2628    0.3077 O   0  0  0  0  0  0  0  0  0  0  0  0
    2.2806   -0.0899   -1.0599 H   0  0  0  0  0  0  0  0  0  0  0  0
    2.6259    0.2049    0.6550 H   0  0  0  0  0  0  0  0  0  0  0  0
    2.0223    1.5490   -0.3296 H   0  0  0  0  0  0  0  0  0  0  0  0
    1.2052   -0.8008    2.0258 H   0  0  0  0  0  0  0  0  0  0  0  0
    0.6820    0.9067    2.1637 H   0  0  0  0  0  0  0  0  0  0  0  0
   -0.5250   -0.4219    2.0781 H   0  0  0  0  0  0  0  0  0  0  0  0
    0.4976   -2.0949   -0.0213 H   0  0  0  0  0  0  0  0  0  0  0  0
    1.2589   -1.6105   -2.0561 H   0  0  0  0  0  0  0  0  0  0  0  0
   -1.8199   -1.3387   -1.4147 H   0  0  0  0  0  0  0  0  0  0  0  0
   -1.7954   -1.9309    0.2872 H   0  0  0  0  0  0  0  0  0  0  0  0
   -2.1101    0.3459    1.0485 H   0  0  0  0  0  0  0  0  0  0  0  0
   -2.6414    0.6336   -0.6173 H   0  0  0  0  0  0  0  0  0  0  0  0
   -0.4573    1.0683   -1.4065 H   0  0  0  0  0  0  0  0  0  0  0  0
   -0.4124    2.9526   -0.3958 H   0  0  0  0  0  0  0  0  0  0  0  0
  1  2  1  0
  2  3  1  0
  2  4  1  0
  4  5  1  0
  4  6  1  0
  6  7  1  0
  7  8  1  0
  8  9  1  0
  8  2  1  0
  1 10  1  0
  1 11  1  0
  1 12  1  0
  3 13  1  0
  3 14  1  0
  3 15  1  0
  4 16  1  0
  5 17  1  0
  6 18  1  0
  6 19  1  0
  7 20  1  0
  7 21  1  0
  8 22  1  0
  9 23  1  0
M  END
