
     RDKit          3D

 21 21  0  0  0  0  0  0  0  0999 V2000
   -1.4272   -1.1482    0.9003 C   0  0  0  0  0  0  0  0  0  0  0  0
   -0.6771   -0.1337    0.0261 C   0  0  0  0  0  0  0  0  0  0  0  0
   -1.7707    0.4674   -0.8564 C   0  0  0  0  0  0  0  0  0  0  0  0
   -0.1215    0.9872    0.8571 C   0  0  0  0  0  0  0  0  0  0  0  0
    1.2405    1.3269    0.3707 C   0  0  0  0  0  0  0  0  0  0  0  0
    1.6075    2.4406    0.0860 O   0  0  0  0  0  0  0  0  0  0  0  0
    2.2092    0.1985    0.2308 C   0  0  0  0  0  0  0  0  0  0  0  0
    1.4497   -1.0080   -0.2230 C   0  0  0  0  0  0  0  0  0  0  0  0
    0.2328   -0.7309   -0.8012 O   0  0  0  0  0  0  0  0  0  0  0  0
   -2.4293   -0.7067    1.1776 H   0  0  0  0  0  0  0  0  0  0  0  0
   -0.8799   -1.3837    1.8144 H   0  0  0  0  0  0  0  0  0  0  0  0
   -1.6591   -2.0212    0.2617 H   0  0  0  0  0  0  0  0  0  0  0  0
   -2.5474    0.8733   -0.1627 H   0  0  0  0  0  0  0  0  0  0  0  0
   -1.3797    1.2516   -1.5196 H   0  0  0  0  0  0  0  0  0  0  0  0
   -2.2547   -0.3730   -1.4034 H   0  0  0  0  0  0  0  0  0  0  0  0
   -0.0703    0.7666    1.9329 H   0  0  0  0  0  0  0  0  0  0  0  0
   -0.7279    1.9341    0.7615 H   0  0  0  0  0  0  0  0  0  0  0  0
    3.0321    0.4669   -0.4791 H   0  0  0  0  0  0  0  0  0  0  0  0
    2.6915    0.0267    1.2150 H   0  0  0  0  0  0  0  0  0  0  0  0
    1.4062   -1.7266    0.6144 H   0  0  0  0  0  0  0  0  0  0  0  0
    2.0752   -1.5079   -1.0117 H   0  0  0  0  0  0  0  0  0  0  0  0
  1  2  1  0
  2  3  1  0
  2  4  1  0
  4  5  1  0
  5  6  2  0
  5  7  1  0
  7  8  1  0
  8  9  1  0
  9  2  1  0
  1 10  1  0
  1 11  1  0
  1 12  1  0
  3 13  1  0
  3 14  1  0
  3 15  1  0
  4 16  1  0
  4 17  1  0
  7 18  1  0
  7 19  1  0
  8 20  1  0
  8 21  1  0
M  END
