
     RDKit          3D

 21 22  0  0  0  0  0  0  0  0999 V2000
    1.8858   -0.5078   -0.7745 C   0  0  0  0  0  0  0  0  0  0  0  0
    0.8251   -0.3462    0.2814 C   0  0  0  0  0  0  0  0  0  0  0  0
    1.3087    0.0152    1.5398 O   0  0  0  0  0  0  0  0  0  0  0  0
   -0.1286   -1.5087    0.4273 C   0  0  0  0  0  0  0  0  0  0  0  0
   -1.2573   -0.5564    0.1250 C   0  0  0  0  0  0  0  0  0  0  0  0
   -2.2855   -0.3731    1.0115 O   0  0  0  0  0  0  0  0  0  0  0  0
   -1.2545    0.0237   -1.2388 C   0  0  0  0  0  0  0  0  0  0  0  0
   -0.2954    0.5056   -0.2296 C   0  0  0  0  0  0  0  0  0  0  0  0
   -0.4123    1.9082    0.2326 C   0  0  0  0  0  0  0  0  0  0  0  0
    2.3480   -1.4921   -0.7656 H   0  0  0  0  0  0  0  0  0  0  0  0
    1.4756   -0.3042   -1.7959 H   0  0  0  0  0  0  0  0  0  0  0  0
    2.6593    0.2742   -0.5858 H   0  0  0  0  0  0  0  0  0  0  0  0
    1.8366   -0.7355    1.9183 H   0  0  0  0  0  0  0  0  0  0  0  0
   -0.0325   -2.2624   -0.3901 H   0  0  0  0  0  0  0  0  0  0  0  0
   -0.1530   -2.0121    1.3884 H   0  0  0  0  0  0  0  0  0  0  0  0
   -2.2253    0.5047    1.4894 H   0  0  0  0  0  0  0  0  0  0  0  0
   -2.0901    0.6788   -1.4814 H   0  0  0  0  0  0  0  0  0  0  0  0
   -0.9213   -0.6203   -2.0902 H   0  0  0  0  0  0  0  0  0  0  0  0
   -1.4035    2.3006   -0.0489 H   0  0  0  0  0  0  0  0  0  0  0  0
   -0.2203    1.9869    1.3309 H   0  0  0  0  0  0  0  0  0  0  0  0
    0.3404    2.5211   -0.3439 H   0  0  0  0  0  0  0  0  0  0  0  0
  1  2  1  0
  2  3  1  0
  2  4  1  0
  4  5  1  0
  5  6  1  0
  5  7  1  0
  7  8  1  0
  8  9  1  0
  8  2  1  0
  8  5  1  0
  1 10  1  0
  1 11  1  0
  1 12  1  0
  3 13  1  0
  4 14  1  0
  4 15  1  0
  6 16  1  0
  7 17  1  0
  7 18  1  0
  9 19  1  0
  9 20  1  0
  9 21  1  0
M  END
