
     RDKit          3D

 19 19  0  0  0  0  0  0  0  0999 V2000
   -2.4720    0.1567    1.5055 C   0  0  0  0  0  0  0  0  0  0  0  0
   -1.9819    0.0834    0.0599 C   0  0  0  0  0  0  0  0  0  0  0  0
   -0.5581   -0.2110   -0.1161 C   0  0  0  0  0  0  0  0  0  0  0  0
    0.6321   -0.4479   -0.2717 C   0  0  0  0  0  0  0  0  0  0  0  0
    2.0530   -0.7288   -0.4831 C   0  0  0  0  0  0  0  0  0  0  0  0
    2.9242    0.1852    0.3518 C   0  0  0  0  0  0  0  0  0  0  0  0
    4.2569   -0.1135    0.1223 O   0  0  0  0  0  0  0  0  0  0  0  0
   -2.7696    0.5367   -0.9768 C   0  0  0  0  0  0  0  0  0  0  0  0
   -2.8352   -0.9147   -0.6405 O   0  0  0  0  0  0  0  0  0  0  0  0
   -1.6815    0.6133    2.1554 H   0  0  0  0  0  0  0  0  0  0  0  0
   -2.5269   -0.9156    1.8483 H   0  0  0  0  0  0  0  0  0  0  0  0
   -3.4291    0.6726    1.5467 H   0  0  0  0  0  0  0  0  0  0  0  0
    2.2976   -1.7979   -0.2428 H   0  0  0  0  0  0  0  0  0  0  0  0
    2.2605   -0.5880   -1.5556 H   0  0  0  0  0  0  0  0  0  0  0  0
    2.6535    1.2257    0.1946 H   0  0  0  0  0  0  0  0  0  0  0  0
    2.7193   -0.0646    1.4269 H   0  0  0  0  0  0  0  0  0  0  0  0
    4.6938    0.7380   -0.1749 H   0  0  0  0  0  0  0  0  0  0  0  0
   -3.7913    0.9661   -0.8140 H   0  0  0  0  0  0  0  0  0  0  0  0
   -2.4454    0.6044   -2.0230 H   0  0  0  0  0  0  0  0  0  0  0  0
  1  2  1  0
  2  3  1  0
  3  4  3  0
  4  5  1  0
  5  6  1  0
  6  7  1  0
  2  8  1  0
  8  9  1  0
  9  2  1  0
  1 10  1  0
  1 11  1  0
  1 12  1  0
  5 13  1  0
  5 14  1  0
  6 15  1  0
  6 16  1  0
  7 17  1  0
  8 18  1  0
  8 19  1  0
M  END
