
     RDKit          3D

 18 19  0  0  0  0  0  0  0  0999 V2000
    1.7943    0.0331    0.7775 C   0  0  0  0  0  0  0  0  0  0  0  0
    0.6276   -0.5342   -0.0191 C   0  0  0  0  0  0  0  0  0  0  0  0
    0.7075   -1.8751   -0.2980 O   0  0  0  0  0  0  0  0  0  0  0  0
   -0.0401    0.3571   -0.9783 C   0  0  0  0  0  0  0  0  0  0  0  0
   -0.1023    1.8254   -0.5554 C   0  0  0  0  0  0  0  0  0  0  0  0
   -0.8437    1.3845    0.5598 O   0  0  0  0  0  0  0  0  0  0  0  0
   -0.7031    0.0312    0.3077 C   0  0  0  0  0  0  0  0  0  0  0  0
   -1.8582   -0.9026    0.4036 C   0  0  0  0  0  0  0  0  0  0  0  0
    1.4159    0.6604    1.6230 H   0  0  0  0  0  0  0  0  0  0  0  0
    2.3933   -0.7694    1.2493 H   0  0  0  0  0  0  0  0  0  0  0  0
    2.4716    0.6445    0.1506 H   0  0  0  0  0  0  0  0  0  0  0  0
    0.8722   -2.0735   -1.2683 H   0  0  0  0  0  0  0  0  0  0  0  0
   -0.5498    0.0319   -1.8819 H   0  0  0  0  0  0  0  0  0  0  0  0
   -0.6377    2.4859   -1.2415 H   0  0  0  0  0  0  0  0  0  0  0  0
    0.8829    2.2237   -0.2050 H   0  0  0  0  0  0  0  0  0  0  0  0
   -2.5978   -0.5182    1.1511 H   0  0  0  0  0  0  0  0  0  0  0  0
   -1.4637   -1.8879    0.7693 H   0  0  0  0  0  0  0  0  0  0  0  0
   -2.3689   -1.1169   -0.5443 H   0  0  0  0  0  0  0  0  0  0  0  0
  1  2  1  0
  2  3  1  0
  2  4  1  0
  4  5  1  0
  5  6  1  0
  6  7  1  0
  7  8  1  0
  7  2  1  0
  7  4  1  0
  1  9  1  0
  1 10  1  0
  1 11  1  0
  3 12  1  0
  4 13  1  0
  5 14  1  0
  5 15  1  0
  8 16  1  0
  8 17  1  0
  8 18  1  0
M  END
