
     RDKit          3D

 21 21  0  0  0  0  0  0  0  0999 V2000
   -2.0428   -0.4491    0.8147 C   0  0  0  0  0  0  0  0  0  0  0  0
   -0.8093    0.0153    0.0258 C   0  0  0  0  0  0  0  0  0  0  0  0
   -1.3567    1.0566   -0.9633 C   0  0  0  0  0  0  0  0  0  0  0  0
    0.0076    0.6442    0.9233 O   0  0  0  0  0  0  0  0  0  0  0  0
    1.0686    1.3438    0.3524 C   0  0  0  0  0  0  0  0  0  0  0  0
    2.1740    0.3509    0.0782 C   0  0  0  0  0  0  0  0  0  0  0  0
    2.0545   -0.9554   -0.1399 C   0  0  0  0  0  0  0  0  0  0  0  0
    0.7503   -1.7027   -0.1528 C   0  0  0  0  0  0  0  0  0  0  0  0
   -0.2615   -0.9811   -0.7161 O   0  0  0  0  0  0  0  0  0  0  0  0
   -2.4485    0.4718    1.3114 H   0  0  0  0  0  0  0  0  0  0  0  0
   -2.8179   -0.8471    0.1584 H   0  0  0  0  0  0  0  0  0  0  0  0
   -1.7335   -1.1187    1.6274 H   0  0  0  0  0  0  0  0  0  0  0  0
   -1.5690    2.0073   -0.4756 H   0  0  0  0  0  0  0  0  0  0  0  0
   -2.2686    0.5760   -1.4003 H   0  0  0  0  0  0  0  0  0  0  0  0
   -0.6265    1.1156   -1.7978 H   0  0  0  0  0  0  0  0  0  0  0  0
    0.7927    1.8993   -0.5483 H   0  0  0  0  0  0  0  0  0  0  0  0
    1.4496    2.0419    1.1176 H   0  0  0  0  0  0  0  0  0  0  0  0
    3.1877    0.7343    0.0536 H   0  0  0  0  0  0  0  0  0  0  0  0
    2.9554   -1.5327   -0.3227 H   0  0  0  0  0  0  0  0  0  0  0  0
    0.9348   -2.5946   -0.8040 H   0  0  0  0  0  0  0  0  0  0  0  0
    0.5592   -2.0755    0.8579 H   0  0  0  0  0  0  0  0  0  0  0  0
  1  2  1  0
  2  3  1  0
  2  4  1  0
  4  5  1  0
  5  6  1  0
  6  7  2  0
  7  8  1  0
  8  9  1  0
  9  2  1  0
  1 10  1  0
  1 11  1  0
  1 12  1  0
  3 13  1  0
  3 14  1  0
  3 15  1  0
  5 16  1  0
  5 17  1  0
  6 18  1  0
  7 19  1  0
  8 20  1  0
  8 21  1  0
M  END
