
     RDKit          3D

 20 21  0  0  0  0  0  0  0  0999 V2000
   -1.6549   -1.1796    0.1271 C   0  0  0  0  0  0  0  0  0  0  0  0
   -0.7708    0.0605    0.1709 C   0  0  0  0  0  0  0  0  0  0  0  0
    0.5453   -0.1257    0.8870 C   0  0  0  0  0  0  0  0  0  0  0  0
    1.4472   -1.1711    0.3419 C   0  0  0  0  0  0  0  0  0  0  0  0
    1.7864    0.3038    0.2231 C   0  0  0  0  0  0  0  0  0  0  0  0
    2.8638    0.7727    1.0009 O   0  0  0  0  0  0  0  0  0  0  0  0
   -0.8519    1.0874   -0.8768 C   0  0  0  0  0  0  0  0  0  0  0  0
   -1.5213    1.3282    0.4438 C   0  0  0  0  0  0  0  0  0  0  0  0
   -2.6183   -0.9843    0.5959 H   0  0  0  0  0  0  0  0  0  0  0  0
   -1.8147   -1.4451   -0.9380 H   0  0  0  0  0  0  0  0  0  0  0  0
   -1.1759   -2.0081    0.6871 H   0  0  0  0  0  0  0  0  0  0  0  0
    0.4273   -0.0244    2.0023 H   0  0  0  0  0  0  0  0  0  0  0  0
    2.1222   -1.7473    0.9957 H   0  0  0  0  0  0  0  0  0  0  0  0
    1.1926   -1.6389   -0.6291 H   0  0  0  0  0  0  0  0  0  0  0  0
    1.7622    0.7765   -0.7689 H   0  0  0  0  0  0  0  0  0  0  0  0
    3.4420    0.0197    1.2969 H   0  0  0  0  0  0  0  0  0  0  0  0
    0.0180    1.7203   -1.1262 H   0  0  0  0  0  0  0  0  0  0  0  0
   -1.5018    0.8964   -1.7787 H   0  0  0  0  0  0  0  0  0  0  0  0
   -2.6276    1.3511    0.3973 H   0  0  0  0  0  0  0  0  0  0  0  0
   -1.0696    2.0080    1.1727 H   0  0  0  0  0  0  0  0  0  0  0  0
  1  2  1  0
  2  3  1  0
  3  4  1  0
  4  5  1  0
  5  6  1  0
  2  7  1  0
  7  8  1  0
  8  2  1  0
  5  3  1  0
  1  9  1  0
  1 10  1  0
  1 11  1  0
  3 12  1  0
  4 13  1  0
  4 14  1  0
  5 15  1  0
  6 16  1  0
  7 17  1  0
  7 18  1  0
  8 19  1  0
  8 20  1  0
M  END
