
     RDKit          3D

 17 18  0  0  0  0  0  0  0  0999 V2000
    1.8105   -0.1761   -0.5167 C   0  0  0  0  0  0  0  0  0  0  0  0
    0.6349    0.1623    0.3595 C   0  0  0  0  0  0  0  0  0  0  0  0
    0.9353    0.3002    1.6843 O   0  0  0  0  0  0  0  0  0  0  0  0
   -0.1615    1.2734   -0.2039 C   0  0  0  0  0  0  0  0  0  0  0  0
    0.0183    2.4349   -0.2147 O   0  0  0  0  0  0  0  0  0  0  0  0
   -1.2977    0.5248   -0.7796 C   0  0  0  0  0  0  0  0  0  0  0  0
   -1.7451   -0.2660    0.4500 C   0  0  0  0  0  0  0  0  0  0  0  0
   -0.4319   -0.9211    0.1109 C   0  0  0  0  0  0  0  0  0  0  0  0
   -0.7621   -0.6866   -1.2220 O   0  0  0  0  0  0  0  0  0  0  0  0
    2.1396    0.7872   -0.9990 H   0  0  0  0  0  0  0  0  0  0  0  0
    2.6464   -0.6413    0.0233 H   0  0  0  0  0  0  0  0  0  0  0  0
    1.4826   -0.8173   -1.3654 H   0  0  0  0  0  0  0  0  0  0  0  0
    1.3301   -0.5289    2.0134 H   0  0  0  0  0  0  0  0  0  0  0  0
   -2.0346    1.0154   -1.3557 H   0  0  0  0  0  0  0  0  0  0  0  0
   -1.7709    0.3865    1.3165 H   0  0  0  0  0  0  0  0  0  0  0  0
   -2.5725   -0.9429    0.2573 H   0  0  0  0  0  0  0  0  0  0  0  0
   -0.2213   -1.9044    0.4418 H   0  0  0  0  0  0  0  0  0  0  0  0
  1  2  1  0
  2  3  1  0
  2  4  1  0
  4  5  2  0
  4  6  1  0
  6  7  1  0
  7  8  1  0
  8  9  1  0
  8  2  1  0
  9  6  1  0
  1 10  1  0
  1 11  1  0
  1 12  1  0
  3 13  1  0
  6 14  1  0
  7 15  1  0
  7 16  1  0
  8 17  1  0
M  END
