
     RDKit          3D

 23 23  0  0  0  0  0  0  0  0999 V2000
    1.8967    0.1248    0.9266 C   0  0  0  0  0  0  0  0  0  0  0  0
    0.6419   -0.0693    0.0957 C   0  0  0  0  0  0  0  0  0  0  0  0
    1.0708   -0.2087   -1.3421 C   0  0  0  0  0  0  0  0  0  0  0  0
   -0.0829   -1.2622    0.6158 C   0  0  0  0  0  0  0  0  0  0  0  0
   -1.5205   -1.3403    0.2941 C   0  0  0  0  0  0  0  0  0  0  0  0
   -2.0783   -0.1669   -0.3993 C   0  0  0  0  0  0  0  0  0  0  0  0
   -1.4990    1.0240   -0.4303 C   0  0  0  0  0  0  0  0  0  0  0  0
   -0.1956    1.1829    0.2858 C   0  0  0  0  0  0  0  0  0  0  0  0
    0.4740    2.2912   -0.2253 O   0  0  0  0  0  0  0  0  0  0  0  0
    2.3120    1.1425    0.7168 H   0  0  0  0  0  0  0  0  0  0  0  0
    1.6339   -0.0128    1.9874 H   0  0  0  0  0  0  0  0  0  0  0  0
    2.6122   -0.6695    0.6139 H   0  0  0  0  0  0  0  0  0  0  0  0
    0.7521    0.6773   -1.9019 H   0  0  0  0  0  0  0  0  0  0  0  0
    0.6865   -1.1586   -1.7594 H   0  0  0  0  0  0  0  0  0  0  0  0
    2.1908   -0.2604   -1.4473 H   0  0  0  0  0  0  0  0  0  0  0  0
    0.4859   -2.1711    0.2758 H   0  0  0  0  0  0  0  0  0  0  0  0
    0.0348   -1.2720    1.7371 H   0  0  0  0  0  0  0  0  0  0  0  0
   -2.1470   -1.5268    1.2157 H   0  0  0  0  0  0  0  0  0  0  0  0
   -1.6944   -2.2442   -0.3439 H   0  0  0  0  0  0  0  0  0  0  0  0
   -3.0233   -0.2574   -0.9261 H   0  0  0  0  0  0  0  0  0  0  0  0
   -1.9426    1.8694   -0.9546 H   0  0  0  0  0  0  0  0  0  0  0  0
   -0.3857    1.3280    1.3579 H   0  0  0  0  0  0  0  0  0  0  0  0
   -0.2223    2.9801   -0.3923 H   0  0  0  0  0  0  0  0  0  0  0  0
  1  2  1  0
  2  3  1  0
  2  4  1  0
  4  5  1  0
  5  6  1  0
  6  7  2  0
  7  8  1  0
  8  9  1  0
  8  2  1  0
  1 10  1  0
  1 11  1  0
  1 12  1  0
  3 13  1  0
  3 14  1  0
  3 15  1  0
  4 16  1  0
  4 17  1  0
  5 18  1  0
  5 19  1  0
  6 20  1  0
  7 21  1  0
  8 22  1  0
  9 23  1  0
M  END
