
     RDKit          3D

 25 25  0  0  0  0  0  0  0  0999 V2000
   -1.1031    1.1342    1.1660 C   0  0  0  0  0  0  0  0  0  0  0  0
   -1.1348    0.1824    0.0027 C   0  0  0  0  0  0  0  0  0  0  0  0
   -2.2227    0.5833   -0.9713 C   0  0  0  0  0  0  0  0  0  0  0  0
   -1.3116   -1.2665    0.4023 C   0  0  0  0  0  0  0  0  0  0  0  0
   -0.0069   -1.6332   -0.2496 C   0  0  0  0  0  0  0  0  0  0  0  0
    0.1698   -0.1774   -0.6128 C   0  0  0  0  0  0  0  0  0  0  0  0
    1.3434    0.4032    0.1522 C   0  0  0  0  0  0  0  0  0  0  0  0
    2.6616    0.0153   -0.5054 C   0  0  0  0  0  0  0  0  0  0  0  0
    3.6657    0.6047    0.2844 O   0  0  0  0  0  0  0  0  0  0  0  0
   -1.8776    0.8586    1.9285 H   0  0  0  0  0  0  0  0  0  0  0  0
   -0.1498    1.1934    1.6840 H   0  0  0  0  0  0  0  0  0  0  0  0
   -1.3204    2.1487    0.7432 H   0  0  0  0  0  0  0  0  0  0  0  0
   -2.8070    1.4705   -0.6005 H   0  0  0  0  0  0  0  0  0  0  0  0
   -1.8392    0.8005   -1.9773 H   0  0  0  0  0  0  0  0  0  0  0  0
   -2.9930   -0.2276   -1.0913 H   0  0  0  0  0  0  0  0  0  0  0  0
   -2.1430   -1.7936   -0.1116 H   0  0  0  0  0  0  0  0  0  0  0  0
   -1.3343   -1.4232    1.4886 H   0  0  0  0  0  0  0  0  0  0  0  0
   -0.0695   -2.2547   -1.1592 H   0  0  0  0  0  0  0  0  0  0  0  0
    0.7263   -2.0452    0.4413 H   0  0  0  0  0  0  0  0  0  0  0  0
    0.2497    0.0330   -1.7039 H   0  0  0  0  0  0  0  0  0  0  0  0
    1.2809    1.5131    0.1980 H   0  0  0  0  0  0  0  0  0  0  0  0
    1.3804   -0.0535    1.1670 H   0  0  0  0  0  0  0  0  0  0  0  0
    2.7695   -1.0875   -0.3415 H   0  0  0  0  0  0  0  0  0  0  0  0
    2.7213    0.3034   -1.5532 H   0  0  0  0  0  0  0  0  0  0  0  0
    3.3443    0.7181    1.2193 H   0  0  0  0  0  0  0  0  0  0  0  0
  1  2  1  0
  2  3  1  0
  2  4  1  0
  4  5  1  0
  5  6  1  0
  6  7  1  0
  7  8  1  0
  8  9  1  0
  6  2  1  0
  1 10  1  0
  1 11  1  0
  1 12  1  0
  3 13  1  0
  3 14  1  0
  3 15  1  0
  4 16  1  0
  4 17  1  0
  5 18  1  0
  5 19  1  0
  6 20  1  0
  7 21  1  0
  7 22  1  0
  8 23  1  0
  8 24  1  0
  9 25  1  0
M  END
