
     RDKit          3D

 21 22  0  0  0  0  0  0  0  0999 V2000
   -1.1151   -0.4710    1.3096 C   0  0  0  0  0  0  0  0  0  0  0  0
   -0.5438   -0.2112   -0.0247 C   0  0  0  0  0  0  0  0  0  0  0  0
   -1.6859    0.1533   -0.9730 C   0  0  0  0  0  0  0  0  0  0  0  0
    0.4285    0.9675   -0.0686 C   0  0  0  0  0  0  0  0  0  0  0  0
    0.6767    1.4329    1.2373 O   0  0  0  0  0  0  0  0  0  0  0  0
    1.7442    0.3159   -0.4962 C   0  0  0  0  0  0  0  0  0  0  0  0
    1.5422   -0.9833    0.2170 C   0  0  0  0  0  0  0  0  0  0  0  0
    1.1286   -2.1581   -0.1443 O   0  0  0  0  0  0  0  0  0  0  0  0
    0.2571   -1.3067   -0.6140 C   0  0  0  0  0  0  0  0  0  0  0  0
   -0.5475   -1.2810    1.8473 H   0  0  0  0  0  0  0  0  0  0  0  0
   -1.2715    0.4103    1.9404 H   0  0  0  0  0  0  0  0  0  0  0  0
   -2.1415   -0.9224    1.1613 H   0  0  0  0  0  0  0  0  0  0  0  0
   -1.1917    0.2703   -1.9802 H   0  0  0  0  0  0  0  0  0  0  0  0
   -2.4795   -0.5910   -0.9805 H   0  0  0  0  0  0  0  0  0  0  0  0
   -2.0272    1.1725   -0.7016 H   0  0  0  0  0  0  0  0  0  0  0  0
    0.1125    1.7560   -0.7462 H   0  0  0  0  0  0  0  0  0  0  0  0
    1.0876    2.3146    1.2014 H   0  0  0  0  0  0  0  0  0  0  0  0
    1.7079    0.1864   -1.6087 H   0  0  0  0  0  0  0  0  0  0  0  0
    2.6046    0.8906   -0.1589 H   0  0  0  0  0  0  0  0  0  0  0  0
    1.3565   -0.7745    1.3183 H   0  0  0  0  0  0  0  0  0  0  0  0
    0.3572   -1.1710   -1.7356 H   0  0  0  0  0  0  0  0  0  0  0  0
  1  2  1  0
  2  3  1  0
  2  4  1  0
  4  5  1  0
  4  6  1  0
  6  7  1  0
  7  8  1  0
  8  9  1  0
  9  2  1  0
  9  7  1  0
  1 10  1  0
  1 11  1  0
  1 12  1  0
  3 13  1  0
  3 14  1  0
  3 15  1  0
  4 16  1  0
  5 17  1  0
  6 18  1  0
  6 19  1  0
  7 20  1  0
  9 21  1  0
M  END
