
     RDKit          3D

 20 21  0  0  0  0  0  0  0  0999 V2000
   -1.1895    1.5891    0.0261 C   0  0  0  0  0  0  0  0  0  0  0  0
   -0.7912    0.1365   -0.1364 C   0  0  0  0  0  0  0  0  0  0  0  0
    0.4803   -0.1044   -0.8987 C   0  0  0  0  0  0  0  0  0  0  0  0
    1.7145    0.5075   -0.3220 C   0  0  0  0  0  0  0  0  0  0  0  0
    2.2046   -0.8970   -0.0564 C   0  0  0  0  0  0  0  0  0  0  0  0
    1.0143   -1.3748   -0.6150 O   0  0  0  0  0  0  0  0  0  0  0  0
   -0.9496   -0.6951    1.1118 C   0  0  0  0  0  0  0  0  0  0  0  0
   -1.8669   -0.8723   -0.0778 C   0  0  0  0  0  0  0  0  0  0  0  0
   -2.3091    1.6543    0.1083 H   0  0  0  0  0  0  0  0  0  0  0  0
   -0.7919    1.9772    0.9791 H   0  0  0  0  0  0  0  0  0  0  0  0
   -0.8824    2.2041   -0.8537 H   0  0  0  0  0  0  0  0  0  0  0  0
    0.4249    0.0879   -1.9863 H   0  0  0  0  0  0  0  0  0  0  0  0
    1.5615    1.0534    0.6266 H   0  0  0  0  0  0  0  0  0  0  0  0
    2.3468    1.0888   -1.0508 H   0  0  0  0  0  0  0  0  0  0  0  0
    2.2583   -1.1900    1.0069 H   0  0  0  0  0  0  0  0  0  0  0  0
    3.1105   -1.1005   -0.6541 H   0  0  0  0  0  0  0  0  0  0  0  0
   -0.2531   -1.5408    1.3030 H   0  0  0  0  0  0  0  0  0  0  0  0
   -1.3412   -0.2366    2.0395 H   0  0  0  0  0  0  0  0  0  0  0  0
   -1.8484   -1.7973   -0.6607 H   0  0  0  0  0  0  0  0  0  0  0  0
   -2.8922   -0.4902    0.1107 H   0  0  0  0  0  0  0  0  0  0  0  0
  1  2  1  0
  2  3  1  0
  3  4  1  0
  4  5  1  0
  5  6  1  0
  2  7  1  0
  7  8  1  0
  8  2  1  0
  6  3  1  0
  1  9  1  0
  1 10  1  0
  1 11  1  0
  3 12  1  0
  4 13  1  0
  4 14  1  0
  5 15  1  0
  5 16  1  0
  7 17  1  0
  7 18  1  0
  8 19  1  0
  8 20  1  0
M  END
