
     RDKit          3D

 20 21  0  0  0  0  0  0  0  0999 V2000
    1.5476   -1.2437    0.0207 C   0  0  0  0  0  0  0  0  0  0  0  0
    0.6464   -0.0515    0.0937 C   0  0  0  0  0  0  0  0  0  0  0  0
    1.4146    1.2330   -0.0693 C   0  0  0  0  0  0  0  0  0  0  0  0
   -0.0081    0.0396    1.3509 O   0  0  0  0  0  0  0  0  0  0  0  0
   -1.3260    0.1225    1.0014 C   0  0  0  0  0  0  0  0  0  0  0  0
   -1.4738   -1.0199   -0.0205 C   0  0  0  0  0  0  0  0  0  0  0  0
   -0.5408   -0.1299   -0.8133 C   0  0  0  0  0  0  0  0  0  0  0  0
   -1.3976    1.0146   -0.2487 C   0  0  0  0  0  0  0  0  0  0  0  0
    2.2743   -1.0791   -0.7899 H   0  0  0  0  0  0  0  0  0  0  0  0
    2.1421   -1.3453    0.9590 H   0  0  0  0  0  0  0  0  0  0  0  0
    1.0176   -2.1804   -0.1999 H   0  0  0  0  0  0  0  0  0  0  0  0
    2.4714    1.0190    0.2126 H   0  0  0  0  0  0  0  0  0  0  0  0
    1.4380    1.6125   -1.0987 H   0  0  0  0  0  0  0  0  0  0  0  0
    1.0677    2.0222    0.6410 H   0  0  0  0  0  0  0  0  0  0  0  0
   -2.0973    0.2293    1.7209 H   0  0  0  0  0  0  0  0  0  0  0  0
   -1.0407   -1.9215    0.4106 H   0  0  0  0  0  0  0  0  0  0  0  0
   -2.4564   -1.0787   -0.4872 H   0  0  0  0  0  0  0  0  0  0  0  0
   -0.4549   -0.2303   -1.8520 H   0  0  0  0  0  0  0  0  0  0  0  0
   -2.4138    1.0607   -0.6340 H   0  0  0  0  0  0  0  0  0  0  0  0
   -0.8103    1.9269   -0.1971 H   0  0  0  0  0  0  0  0  0  0  0  0
  1  2  1  0
  2  3  1  0
  2  4  1  0
  4  5  1  0
  5  6  1  0
  6  7  1  0
  7  8  1  0
  7  2  1  0
  8  5  1  0
  1  9  1  0
  1 10  1  0
  1 11  1  0
  3 12  1  0
  3 13  1  0
  3 14  1  0
  5 15  1  0
  6 16  1  0
  6 17  1  0
  7 18  1  0
  8 19  1  0
  8 20  1  0
M  END
