
     RDKit          3D

 17 18  0  0  0  0  0  0  0  0999 V2000
    2.0597   -0.2005    0.1545 C   0  0  0  0  0  0  0  0  0  0  0  0
    0.6782    0.4644    0.2640 C   0  0  0  0  0  0  0  0  0  0  0  0
    0.8328    1.7698    0.8101 O   0  0  0  0  0  0  0  0  0  0  0  0
   -0.2263    0.3820   -0.8261 C   0  0  0  0  0  0  0  0  0  0  0  0
   -1.7072    0.2429   -0.8152 C   0  0  0  0  0  0  0  0  0  0  0  0
   -2.6371    0.9438   -1.0198 O   0  0  0  0  0  0  0  0  0  0  0  0
   -1.3176   -1.1501   -0.4348 C   0  0  0  0  0  0  0  0  0  0  0  0
   -0.4460   -0.3625    0.5582 C   0  0  0  0  0  0  0  0  0  0  0  0
   -1.3718    0.2942    1.4235 O   0  0  0  0  0  0  0  0  0  0  0  0
    1.9775   -1.2999    0.2502 H   0  0  0  0  0  0  0  0  0  0  0  0
    2.7530    0.1651    0.9076 H   0  0  0  0  0  0  0  0  0  0  0  0
    2.4704    0.0750   -0.8477 H   0  0  0  0  0  0  0  0  0  0  0  0
    0.7633    2.4359    0.0522 H   0  0  0  0  0  0  0  0  0  0  0  0
    0.1236   -0.3085   -1.6618 H   0  0  0  0  0  0  0  0  0  0  0  0
   -0.7346   -1.6815   -1.2062 H   0  0  0  0  0  0  0  0  0  0  0  0
   -2.0721   -1.7429    0.0649 H   0  0  0  0  0  0  0  0  0  0  0  0
   -1.1457   -0.0272    2.3263 H   0  0  0  0  0  0  0  0  0  0  0  0
  1  2  1  0
  2  3  1  0
  2  4  1  0
  4  5  1  0
  5  6  2  0
  5  7  1  0
  7  8  1  0
  8  9  1  0
  8  2  1  0
  8  4  1  0
  1 10  1  0
  1 11  1  0
  1 12  1  0
  3 13  1  0
  4 14  1  0
  7 15  1  0
  7 16  1  0
  9 17  1  0
M  END
