
     RDKit          3D

 19 19  0  0  0  0  0  0  0  0999 V2000
   -1.6128   -0.2985    1.3143 C   0  0  0  0  0  0  0  0  0  0  0  0
   -0.5250   -0.1640    0.2662 C   0  0  0  0  0  0  0  0  0  0  0  0
    0.8172   -0.0501    0.8102 C   0  0  0  0  0  0  0  0  0  0  0  0
    0.9322   -0.0722    2.0373 O   0  0  0  0  0  0  0  0  0  0  0  0
    2.0731    0.0907    0.0553 C   0  0  0  0  0  0  0  0  0  0  0  0
    1.9390    0.1133   -1.3076 O   0  0  0  0  0  0  0  0  0  0  0  0
   -0.8436    0.9924   -0.6581 C   0  0  0  0  0  0  0  0  0  0  0  0
   -0.6504    0.1822   -1.7518 O   0  0  0  0  0  0  0  0  0  0  0  0
   -0.7419   -0.9503   -0.9739 C   0  0  0  0  0  0  0  0  0  0  0  0
   -2.5807   -0.1718    0.7875 H   0  0  0  0  0  0  0  0  0  0  0  0
   -1.4421    0.4926    2.0607 H   0  0  0  0  0  0  0  0  0  0  0  0
   -1.5062   -1.3096    1.7553 H   0  0  0  0  0  0  0  0  0  0  0  0
    2.5498    1.0667    0.3559 H   0  0  0  0  0  0  0  0  0  0  0  0
    2.8180   -0.6856    0.3473 H   0  0  0  0  0  0  0  0  0  0  0  0
    2.6041    0.6659   -1.7742 H   0  0  0  0  0  0  0  0  0  0  0  0
   -0.0964    1.8253   -0.5877 H   0  0  0  0  0  0  0  0  0  0  0  0
   -1.8859    1.3820   -0.5416 H   0  0  0  0  0  0  0  0  0  0  0  0
   -0.0510   -1.7694   -1.1996 H   0  0  0  0  0  0  0  0  0  0  0  0
   -1.7974   -1.3398   -0.9956 H   0  0  0  0  0  0  0  0  0  0  0  0
  1  2  1  0
  2  3  1  0
  3  4  2  0
  3  5  1  0
  5  6  1  0
  2  7  1  0
  7  8  1  0
  8  9  1  0
  9  2  1  0
  1 10  1  0
  1 11  1  0
  1 12  1  0
  5 13  1  0
  5 14  1  0
  6 15  1  0
  7 16  1  0
  7 17  1  0
  9 18  1  0
  9 19  1  0
M  END
