
     RDKit          3D

 23 25  0  0  0  0  0  0  0  0999 V2000
   -0.7969    1.4115   -0.9407 C   0  0  0  0  0  0  0  0  0  0  0  0
   -0.8414    0.1910   -0.0998 C   0  0  0  0  0  0  0  0  0  0  0  0
   -2.2266   -0.2438    0.2345 C   0  0  0  0  0  0  0  0  0  0  0  0
    0.0644   -0.9558   -0.5731 C   0  0  0  0  0  0  0  0  0  0  0  0
    0.1148   -1.2972    0.9138 C   0  0  0  0  0  0  0  0  0  0  0  0
    0.1381    0.1861    1.0894 C   0  0  0  0  0  0  0  0  0  0  0  0
    1.3816    0.6824    0.4231 C   0  0  0  0  0  0  0  0  0  0  0  0
    2.4944   -0.2719    0.0791 C   0  0  0  0  0  0  0  0  0  0  0  0
    1.3512   -0.2757   -0.8180 C   0  0  0  0  0  0  0  0  0  0  0  0
   -1.3797    1.1780   -1.8788 H   0  0  0  0  0  0  0  0  0  0  0  0
    0.1838    1.7407   -1.2716 H   0  0  0  0  0  0  0  0  0  0  0  0
   -1.3096    2.2284   -0.3708 H   0  0  0  0  0  0  0  0  0  0  0  0
   -2.9885    0.3986   -0.2585 H   0  0  0  0  0  0  0  0  0  0  0  0
   -2.4439   -0.2247    1.3352 H   0  0  0  0  0  0  0  0  0  0  0  0
   -2.3802   -1.2806   -0.1726 H   0  0  0  0  0  0  0  0  0  0  0  0
   -0.3500   -1.6655   -1.2403 H   0  0  0  0  0  0  0  0  0  0  0  0
    0.9280   -1.9033    1.2591 H   0  0  0  0  0  0  0  0  0  0  0  0
   -0.8599   -1.7034    1.2890 H   0  0  0  0  0  0  0  0  0  0  0  0
   -0.2069    0.6310    1.9944 H   0  0  0  0  0  0  0  0  0  0  0  0
    1.5551    1.7332    0.2356 H   0  0  0  0  0  0  0  0  0  0  0  0
    3.4293    0.1996   -0.3104 H   0  0  0  0  0  0  0  0  0  0  0  0
    2.6986   -0.9857    0.8772 H   0  0  0  0  0  0  0  0  0  0  0  0
    1.4442    0.2273   -1.7959 H   0  0  0  0  0  0  0  0  0  0  0  0
  1  2  1  0
  2  3  1  0
  2  4  1  0
  4  5  1  0
  5  6  1  0
  6  7  1  0
  7  8  1  0
  8  9  1  0
  6  2  1  0
  9  7  1  0
  9  4  1  0
  1 10  1  0
  1 11  1  0
  1 12  1  0
  3 13  1  0
  3 14  1  0
  3 15  1  0
  4 16  1  0
  5 17  1  0
  5 18  1  0
  6 19  1  0
  7 20  1  0
  8 21  1  0
  8 22  1  0
  9 23  1  0
M  END
