
     RDKit          3D

 21 22  0  0  0  0  0  0  0  0999 V2000
    2.0767    0.2404    0.6510 C   0  0  0  0  0  0  0  0  0  0  0  0
    0.8139    0.1264   -0.1962 C   0  0  0  0  0  0  0  0  0  0  0  0
    1.1189    0.8414   -1.3807 O   0  0  0  0  0  0  0  0  0  0  0  0
    0.4655   -1.2825   -0.5317 C   0  0  0  0  0  0  0  0  0  0  0  0
   -0.8630   -1.5732   -0.5735 O   0  0  0  0  0  0  0  0  0  0  0  0
   -1.7075   -0.6305   -0.0790 C   0  0  0  0  0  0  0  0  0  0  0  0
   -1.2337   -0.0530    1.2466 C   0  0  0  0  0  0  0  0  0  0  0  0
   -0.3497    0.8506    0.4171 C   0  0  0  0  0  0  0  0  0  0  0  0
   -1.4567    0.7674   -0.6500 C   0  0  0  0  0  0  0  0  0  0  0  0
    2.0853    1.2804    1.0456 H   0  0  0  0  0  0  0  0  0  0  0  0
    2.1272   -0.4959    1.4487 H   0  0  0  0  0  0  0  0  0  0  0  0
    2.9858    0.1702   -0.0101 H   0  0  0  0  0  0  0  0  0  0  0  0
    1.0906    0.2671   -2.1657 H   0  0  0  0  0  0  0  0  0  0  0  0
    0.8858   -1.5055   -1.5557 H   0  0  0  0  0  0  0  0  0  0  0  0
    1.0308   -1.9827    0.1444 H   0  0  0  0  0  0  0  0  0  0  0  0
   -2.7532   -0.8828   -0.1537 H   0  0  0  0  0  0  0  0  0  0  0  0
   -2.0615    0.5526    1.6775 H   0  0  0  0  0  0  0  0  0  0  0  0
   -0.7366   -0.7431    1.9215 H   0  0  0  0  0  0  0  0  0  0  0  0
   -0.1588    1.8428    0.8044 H   0  0  0  0  0  0  0  0  0  0  0  0
   -1.0768    0.7842   -1.6742 H   0  0  0  0  0  0  0  0  0  0  0  0
   -2.2831    1.4258   -0.3865 H   0  0  0  0  0  0  0  0  0  0  0  0
  1  2  1  0
  2  3  1  0
  2  4  1  0
  4  5  1  0
  5  6  1  0
  6  7  1  0
  7  8  1  0
  8  9  1  0
  8  2  1  0
  9  6  1  0
  1 10  1  0
  1 11  1  0
  1 12  1  0
  3 13  1  0
  4 14  1  0
  4 15  1  0
  6 16  1  0
  7 17  1  0
  7 18  1  0
  8 19  1  0
  9 20  1  0
  9 21  1  0
M  END
