
     RDKit          3D

 21 22  0  0  0  0  0  0  0  0999 V2000
   -1.7870    1.0356    0.4003 C   0  0  0  0  0  0  0  0  0  0  0  0
   -1.0042   -0.2328    0.0363 C   0  0  0  0  0  0  0  0  0  0  0  0
   -1.8919   -1.3947    0.3521 C   0  0  0  0  0  0  0  0  0  0  0  0
   -0.6110   -0.1602   -1.2741 O   0  0  0  0  0  0  0  0  0  0  0  0
    0.6558    0.3493   -1.3512 C   0  0  0  0  0  0  0  0  0  0  0  0
    1.2820    0.2233    0.0350 C   0  0  0  0  0  0  0  0  0  0  0  0
    2.7573    0.0274    0.1201 C   0  0  0  0  0  0  0  0  0  0  0  0
    0.7826    1.1045    1.0255 O   0  0  0  0  0  0  0  0  0  0  0  0
    0.2746   -0.2348    0.8768 C   0  0  0  0  0  0  0  0  0  0  0  0
   -1.0349    1.8705    0.2971 H   0  0  0  0  0  0  0  0  0  0  0  0
   -2.6218    1.2076   -0.2797 H   0  0  0  0  0  0  0  0  0  0  0  0
   -2.0688    1.0053    1.4749 H   0  0  0  0  0  0  0  0  0  0  0  0
   -1.7591   -2.1903   -0.4160 H   0  0  0  0  0  0  0  0  0  0  0  0
   -1.7635   -1.7816    1.3889 H   0  0  0  0  0  0  0  0  0  0  0  0
   -2.9855   -1.1217    0.2882 H   0  0  0  0  0  0  0  0  0  0  0  0
    0.7200    1.3918   -1.7119 H   0  0  0  0  0  0  0  0  0  0  0  0
    1.2551   -0.3543   -1.9992 H   0  0  0  0  0  0  0  0  0  0  0  0
    3.0465   -0.2829    1.1339 H   0  0  0  0  0  0  0  0  0  0  0  0
    3.1751   -0.6079   -0.6662 H   0  0  0  0  0  0  0  0  0  0  0  0
    3.2303    1.0435   -0.0266 H   0  0  0  0  0  0  0  0  0  0  0  0
    0.3484   -0.8977    1.7347 H   0  0  0  0  0  0  0  0  0  0  0  0
  1  2  1  0
  2  3  1  0
  2  4  1  0
  4  5  1  0
  5  6  1  0
  6  7  1  0
  6  8  1  0
  8  9  1  0
  9  2  1  0
  9  6  1  0
  1 10  1  0
  1 11  1  0
  1 12  1  0
  3 13  1  0
  3 14  1  0
  3 15  1  0
  5 16  1  0
  5 17  1  0
  7 18  1  0
  7 19  1  0
  7 20  1  0
  9 21  1  0
M  END
