
     RDKit          3D

 21 22  0  0  0  0  0  0  0  0999 V2000
   -1.7906    0.9517   -0.8415 C   0  0  0  0  0  0  0  0  0  0  0  0
   -0.9169   -0.1490   -0.3461 C   0  0  0  0  0  0  0  0  0  0  0  0
   -1.0230   -1.2758   -1.1910 O   0  0  0  0  0  0  0  0  0  0  0  0
   -1.1257   -0.5245    1.1291 C   0  0  0  0  0  0  0  0  0  0  0  0
    0.2258    0.1360    1.4279 C   0  0  0  0  0  0  0  0  0  0  0  0
    0.4807    0.1422   -0.0264 C   0  0  0  0  0  0  0  0  0  0  0  0
    1.5525   -0.7550   -0.5619 C   0  0  0  0  0  0  0  0  0  0  0  0
    2.3319    0.5410   -0.2967 C   0  0  0  0  0  0  0  0  0  0  0  0
    1.1160    1.2127   -0.5804 O   0  0  0  0  0  0  0  0  0  0  0  0
   -2.3784    1.3525   -0.0070 H   0  0  0  0  0  0  0  0  0  0  0  0
   -1.1827    1.7828   -1.2808 H   0  0  0  0  0  0  0  0  0  0  0  0
   -2.5130    0.6251   -1.6189 H   0  0  0  0  0  0  0  0  0  0  0  0
   -1.7897   -1.7888   -0.8541 H   0  0  0  0  0  0  0  0  0  0  0  0
   -1.9552   -0.0147    1.6197 H   0  0  0  0  0  0  0  0  0  0  0  0
   -1.0245   -1.6111    1.2885 H   0  0  0  0  0  0  0  0  0  0  0  0
    0.9389   -0.5196    1.9633 H   0  0  0  0  0  0  0  0  0  0  0  0
    0.1043    1.1406    1.9251 H   0  0  0  0  0  0  0  0  0  0  0  0
    1.8079   -1.5891    0.0873 H   0  0  0  0  0  0  0  0  0  0  0  0
    1.4046   -0.9505   -1.6338 H   0  0  0  0  0  0  0  0  0  0  0  0
    3.1440    0.7428   -0.9908 H   0  0  0  0  0  0  0  0  0  0  0  0
    2.5934    0.5510    0.7886 H   0  0  0  0  0  0  0  0  0  0  0  0
  1  2  1  0
  2  3  1  0
  2  4  1  0
  4  5  1  0
  5  6  1  0
  6  7  1  0
  7  8  1  0
  8  9  1  0
  6  2  1  0
  9  6  1  0
  1 10  1  0
  1 11  1  0
  1 12  1  0
  3 13  1  0
  4 14  1  0
  4 15  1  0
  5 16  1  0
  5 17  1  0
  7 18  1  0
  7 19  1  0
  8 20  1  0
  8 21  1  0
M  END
