
     RDKit          3D

 18 18  0  0  0  0  0  0  0  0999 V2000
   -0.8111    1.4690   -0.1344 C   0  0  0  0  0  0  0  0  0  0  0  0
   -0.8233   -0.0020    0.1059 C   0  0  0  0  0  0  0  0  0  0  0  0
    0.2513   -0.9244   -0.3203 C   0  0  0  0  0  0  0  0  0  0  0  0
    1.6158   -0.7307    0.2171 C   0  0  0  0  0  0  0  0  0  0  0  0
    2.2889    0.5362   -0.0518 C   0  0  0  0  0  0  0  0  0  0  0  0
    2.4722    1.3445    0.8382 O   0  0  0  0  0  0  0  0  0  0  0  0
   -2.2384   -0.5972    0.0449 C   0  0  0  0  0  0  0  0  0  0  0  0
   -1.5273   -0.4396    1.3006 O   0  0  0  0  0  0  0  0  0  0  0  0
   -0.0286    2.0409    0.3441 H   0  0  0  0  0  0  0  0  0  0  0  0
   -1.7775    1.8718    0.3052 H   0  0  0  0  0  0  0  0  0  0  0  0
   -0.8149    1.6423   -1.2466 H   0  0  0  0  0  0  0  0  0  0  0  0
    0.2955   -0.9226   -1.4390 H   0  0  0  0  0  0  0  0  0  0  0  0
   -0.0764   -1.9807   -0.0549 H   0  0  0  0  0  0  0  0  0  0  0  0
    2.2702   -1.5349   -0.2496 H   0  0  0  0  0  0  0  0  0  0  0  0
    1.6768   -1.0139    1.3205 H   0  0  0  0  0  0  0  0  0  0  0  0
    2.6561    0.8228   -1.0463 H   0  0  0  0  0  0  0  0  0  0  0  0
   -2.3313   -1.6580   -0.2361 H   0  0  0  0  0  0  0  0  0  0  0  0
   -3.0980    0.0765   -0.0564 H   0  0  0  0  0  0  0  0  0  0  0  0
  1  2  1  0
  2  3  1  0
  3  4  1  0
  4  5  1  0
  5  6  2  0
  2  7  1  0
  7  8  1  0
  8  2  1  0
  1  9  1  0
  1 10  1  0
  1 11  1  0
  3 12  1  0
  3 13  1  0
  4 14  1  0
  4 15  1  0
  5 16  1  0
  7 17  1  0
  7 18  1  0
M  END
