
     RDKit          3D

 23 24  0  0  0  0  0  0  0  0999 V2000
   -1.7444    1.3730    0.1363 C   0  0  0  0  0  0  0  0  0  0  0  0
   -1.0955    0.0573   -0.1377 C   0  0  0  0  0  0  0  0  0  0  0  0
   -2.0743   -0.9417   -0.6727 C   0  0  0  0  0  0  0  0  0  0  0  0
    0.1021    0.1558   -1.0736 C   0  0  0  0  0  0  0  0  0  0  0  0
    0.7817   -0.8835   -0.1774 C   0  0  0  0  0  0  0  0  0  0  0  0
    2.2298   -0.5324    0.0228 C   0  0  0  0  0  0  0  0  0  0  0  0
    2.6674    0.6995    0.6234 C   0  0  0  0  0  0  0  0  0  0  0  0
    2.7860   -0.6140    1.3025 O   0  0  0  0  0  0  0  0  0  0  0  0
   -0.1484   -0.4547    0.9205 C   0  0  0  0  0  0  0  0  0  0  0  0
   -1.9870    1.8314   -0.8674 H   0  0  0  0  0  0  0  0  0  0  0  0
   -1.1017    2.0350    0.7206 H   0  0  0  0  0  0  0  0  0  0  0  0
   -2.7087    1.1967    0.6661 H   0  0  0  0  0  0  0  0  0  0  0  0
   -2.9527   -1.0917   -0.0143 H   0  0  0  0  0  0  0  0  0  0  0  0
   -2.4829   -0.5310   -1.6287 H   0  0  0  0  0  0  0  0  0  0  0  0
   -1.5971   -1.9147   -0.9482 H   0  0  0  0  0  0  0  0  0  0  0  0
    0.5677    1.1449   -1.0377 H   0  0  0  0  0  0  0  0  0  0  0  0
   -0.1104   -0.2113   -2.0912 H   0  0  0  0  0  0  0  0  0  0  0  0
    0.6011   -1.9231   -0.5105 H   0  0  0  0  0  0  0  0  0  0  0  0
    2.8959   -0.9869   -0.7556 H   0  0  0  0  0  0  0  0  0  0  0  0
    2.0435    1.3455    1.2429 H   0  0  0  0  0  0  0  0  0  0  0  0
    3.6365    1.1244    0.3346 H   0  0  0  0  0  0  0  0  0  0  0  0
    0.2470    0.4072    1.5022 H   0  0  0  0  0  0  0  0  0  0  0  0
   -0.5559   -1.2860    1.5337 H   0  0  0  0  0  0  0  0  0  0  0  0
  1  2  1  0
  2  3  1  0
  2  4  1  0
  4  5  1  0
  5  6  1  0
  6  7  1  0
  7  8  1  0
  5  9  1  0
  9  2  1  0
  8  6  1  0
  1 10  1  0
  1 11  1  0
  1 12  1  0
  3 13  1  0
  3 14  1  0
  3 15  1  0
  4 16  1  0
  4 17  1  0
  5 18  1  0
  6 19  1  0
  7 20  1  0
  7 21  1  0
  9 22  1  0
  9 23  1  0
M  END
