
     RDKit          3D

 19 19  0  0  0  0  0  0  0  0999 V2000
    1.2936   -0.6442   -1.0834 C   0  0  0  0  0  0  0  0  0  0  0  0
    0.3107    0.1453   -0.2678 C   0  0  0  0  0  0  0  0  0  0  0  0
    0.8256    1.2961    0.3098 O   0  0  0  0  0  0  0  0  0  0  0  0
    1.8770    1.3271    1.2085 C   0  0  0  0  0  0  0  0  0  0  0  0
    2.3902    0.2286    1.5124 O   0  0  0  0  0  0  0  0  0  0  0  0
   -0.7903    0.5508   -1.1971 C   0  0  0  0  0  0  0  0  0  0  0  0
   -1.9596    0.4690   -0.6233 C   0  0  0  0  0  0  0  0  0  0  0  0
   -1.7875   -0.0007    0.7644 C   0  0  0  0  0  0  0  0  0  0  0  0
   -0.4669   -0.7309    0.6900 C   0  0  0  0  0  0  0  0  0  0  0  0
    0.6908   -1.2779   -1.7920 H   0  0  0  0  0  0  0  0  0  0  0  0
    1.8860   -1.3565   -0.4787 H   0  0  0  0  0  0  0  0  0  0  0  0
    1.8992    0.0430   -1.6820 H   0  0  0  0  0  0  0  0  0  0  0  0
    2.2014    2.2792    1.5999 H   0  0  0  0  0  0  0  0  0  0  0  0
   -0.5663    0.8686   -2.2207 H   0  0  0  0  0  0  0  0  0  0  0  0
   -2.8976    0.7265   -1.1503 H   0  0  0  0  0  0  0  0  0  0  0  0
   -2.6072   -0.6803    1.0871 H   0  0  0  0  0  0  0  0  0  0  0  0
   -1.6492    0.8260    1.4855 H   0  0  0  0  0  0  0  0  0  0  0  0
   -0.6702   -1.6900    0.1698 H   0  0  0  0  0  0  0  0  0  0  0  0
    0.0202   -0.8482    1.6680 H   0  0  0  0  0  0  0  0  0  0  0  0
  1  2  1  0
  2  3  1  0
  3  4  1  0
  4  5  2  0
  2  6  1  0
  6  7  2  0
  7  8  1  0
  8  9  1  0
  9  2  1  0
  1 10  1  0
  1 11  1  0
  1 12  1  0
  4 13  1  0
  6 14  1  0
  7 15  1  0
  8 16  1  0
  8 17  1  0
  9 18  1  0
  9 19  1  0
M  END
