
     RDKit          3D

 15 16  0  0  0  0  0  0  0  0999 V2000
   -1.4253    0.9180    0.4992 C   0  0  0  0  0  0  0  0  0  0  0  0
   -0.7713   -0.2157   -0.2576 C   0  0  0  0  0  0  0  0  0  0  0  0
   -1.7168   -1.0210   -0.9322 O   0  0  0  0  0  0  0  0  0  0  0  0
    0.3865   -0.9442    0.2757 C   0  0  0  0  0  0  0  0  0  0  0  0
    1.2767   -0.3707    1.1965 O   0  0  0  0  0  0  0  0  0  0  0  0
    2.0931    0.5749    0.5762 C   0  0  0  0  0  0  0  0  0  0  0  0
    3.2892    0.8902    0.8675 O   0  0  0  0  0  0  0  0  0  0  0  0
    1.2920    1.0994   -0.4437 O   0  0  0  0  0  0  0  0  0  0  0  0
    0.5024    0.0174   -0.9280 C   0  0  0  0  0  0  0  0  0  0  0  0
   -1.8794    0.4725    1.4095 H   0  0  0  0  0  0  0  0  0  0  0  0
   -0.7104    1.7115    0.7196 H   0  0  0  0  0  0  0  0  0  0  0  0
   -2.2222    1.3348   -0.1807 H   0  0  0  0  0  0  0  0  0  0  0  0
   -1.4218   -1.9529   -0.9883 H   0  0  0  0  0  0  0  0  0  0  0  0
    0.4967   -2.0324    0.0527 H   0  0  0  0  0  0  0  0  0  0  0  0
    0.8107   -0.4818   -1.8663 H   0  0  0  0  0  0  0  0  0  0  0  0
  1  2  1  0
  2  3  1  0
  2  4  1  0
  4  5  1  0
  5  6  1  0
  6  7  2  0
  6  8  1  0
  8  9  1  0
  9  2  1  0
  9  4  1  0
  1 10  1  0
  1 11  1  0
  1 12  1  0
  3 13  1  0
  4 14  1  0
  9 15  1  0
M  END
