
     RDKit          3D

 19 20  0  0  0  0  0  0  0  0999 V2000
   -1.7265   -1.0136   -0.3700 C   0  0  0  0  0  0  0  0  0  0  0  0
   -0.6565    0.0039   -0.0424 C   0  0  0  0  0  0  0  0  0  0  0  0
   -1.1430    1.4340   -0.2875 C   0  0  0  0  0  0  0  0  0  0  0  0
    0.1779   -0.1217    1.1689 C   0  0  0  0  0  0  0  0  0  0  0  0
    0.5506   -1.4344    1.4945 O   0  0  0  0  0  0  0  0  0  0  0  0
    1.5502   -1.2803    0.5480 C   0  0  0  0  0  0  0  0  0  0  0  0
    0.7612   -0.2788   -0.2403 C   0  0  0  0  0  0  0  0  0  0  0  0
    1.5820    0.8332   -0.7810 C   0  0  0  0  0  0  0  0  0  0  0  0
    2.1449    1.5921   -0.0312 O   0  0  0  0  0  0  0  0  0  0  0  0
   -2.7256   -0.6003   -0.0736 H   0  0  0  0  0  0  0  0  0  0  0  0
   -1.8036   -1.1178   -1.4917 H   0  0  0  0  0  0  0  0  0  0  0  0
   -1.5332   -2.0021    0.0299 H   0  0  0  0  0  0  0  0  0  0  0  0
   -1.9643    1.6055    0.4251 H   0  0  0  0  0  0  0  0  0  0  0  0
   -1.4111    1.6063   -1.3343 H   0  0  0  0  0  0  0  0  0  0  0  0
   -0.3169    2.1272    0.0178 H   0  0  0  0  0  0  0  0  0  0  0  0
    0.5459    0.7181    1.7484 H   0  0  0  0  0  0  0  0  0  0  0  0
    1.8842   -2.1820    0.0313 H   0  0  0  0  0  0  0  0  0  0  0  0
    2.4436   -0.8045    1.0473 H   0  0  0  0  0  0  0  0  0  0  0  0
    1.6402    0.9152   -1.8592 H   0  0  0  0  0  0  0  0  0  0  0  0
  1  2  1  0
  2  3  1  0
  2  4  1  0
  4  5  1  0
  5  6  1  0
  6  7  1  0
  7  8  1  0
  8  9  2  0
  7  2  1  0
  7  4  1  0
  1 10  1  0
  1 11  1  0
  1 12  1  0
  3 13  1  0
  3 14  1  0
  3 15  1  0
  4 16  1  0
  6 17  1  0
  6 18  1  0
  8 19  1  0
M  END
