
     RDKit          3D

 19 20  0  0  0  0  0  0  0  0999 V2000
    1.4839    0.0336    1.0950 C   0  0  0  0  0  0  0  0  0  0  0  0
    1.1820   -0.1480   -0.3627 C   0  0  0  0  0  0  0  0  0  0  0  0
    2.3093   -0.0064   -1.1878 O   0  0  0  0  0  0  0  0  0  0  0  0
    0.1255   -1.0212   -0.8655 C   0  0  0  0  0  0  0  0  0  0  0  0
   -0.9337   -1.5661    0.0282 C   0  0  0  0  0  0  0  0  0  0  0  0
   -1.6954   -0.5768    0.4829 C   0  0  0  0  0  0  0  0  0  0  0  0
   -1.2504    0.7308   -0.0393 C   0  0  0  0  0  0  0  0  0  0  0  0
   -0.9964    1.6605    0.9543 O   0  0  0  0  0  0  0  0  0  0  0  0
   -0.0694    0.4546   -0.9146 C   0  0  0  0  0  0  0  0  0  0  0  0
    0.6014    0.1192    1.7332 H   0  0  0  0  0  0  0  0  0  0  0  0
    2.1225    0.9588    1.1751 H   0  0  0  0  0  0  0  0  0  0  0  0
    2.1208   -0.7897    1.5084 H   0  0  0  0  0  0  0  0  0  0  0  0
    2.2062    0.8483   -1.6714 H   0  0  0  0  0  0  0  0  0  0  0  0
    0.2620   -1.5538   -1.8402 H   0  0  0  0  0  0  0  0  0  0  0  0
   -1.0204   -2.6254    0.2394 H   0  0  0  0  0  0  0  0  0  0  0  0
   -2.5355   -0.7233    1.1529 H   0  0  0  0  0  0  0  0  0  0  0  0
   -2.0628    1.1380   -0.6729 H   0  0  0  0  0  0  0  0  0  0  0  0
   -1.8101    2.0907    1.2837 H   0  0  0  0  0  0  0  0  0  0  0  0
   -0.0393    0.9762   -1.9107 H   0  0  0  0  0  0  0  0  0  0  0  0
  1  2  1  0
  2  3  1  0
  2  4  1  0
  4  5  1  0
  5  6  2  0
  6  7  1  0
  7  8  1  0
  7  9  1  0
  9  2  1  0
  9  4  1  0
  1 10  1  0
  1 11  1  0
  1 12  1  0
  3 13  1  0
  4 14  1  0
  5 15  1  0
  6 16  1  0
  7 17  1  0
  8 18  1  0
  9 19  1  0
M  END
