
     RDKit          3D

 18 18  0  0  0  0  0  0  0  0999 V2000
   -1.8159   -0.9994    0.1462 C   0  0  0  0  0  0  0  0  0  0  0  0
   -0.6631   -0.0148    0.1038 C   0  0  0  0  0  0  0  0  0  0  0  0
    0.6854   -0.6907   -0.0162 C   0  0  0  0  0  0  0  0  0  0  0  0
    1.7021    0.2859   -0.0494 O   0  0  0  0  0  0  0  0  0  0  0  0
    3.0337   -0.1390   -0.1585 C   0  0  0  0  0  0  0  0  0  0  0  0
    3.2571   -1.3715   -0.2216 O   0  0  0  0  0  0  0  0  0  0  0  0
   -0.9338    1.2207   -0.7343 C   0  0  0  0  0  0  0  0  0  0  0  0
   -0.7731    1.3052    0.7675 C   0  0  0  0  0  0  0  0  0  0  0  0
   -2.6952   -0.6103    0.6633 H   0  0  0  0  0  0  0  0  0  0  0  0
   -1.4633   -1.9347    0.6397 H   0  0  0  0  0  0  0  0  0  0  0  0
   -2.0257   -1.2645   -0.9271 H   0  0  0  0  0  0  0  0  0  0  0  0
    0.6914   -1.3318   -0.9288 H   0  0  0  0  0  0  0  0  0  0  0  0
    0.7742   -1.3598    0.8780 H   0  0  0  0  0  0  0  0  0  0  0  0
    3.8017    0.6226   -0.1827 H   0  0  0  0  0  0  0  0  0  0  0  0
   -0.1264    1.6125   -1.3908 H   0  0  0  0  0  0  0  0  0  0  0  0
   -1.9907    1.3969   -1.0725 H   0  0  0  0  0  0  0  0  0  0  0  0
   -1.6543    1.5024    1.4024 H   0  0  0  0  0  0  0  0  0  0  0  0
    0.1960    1.7702    1.0808 H   0  0  0  0  0  0  0  0  0  0  0  0
  1  2  1  0
  2  3  1  0
  3  4  1  0
  4  5  1  0
  5  6  2  0
  2  7  1  0
  7  8  1  0
  8  2  1  0
  1  9  1  0
  1 10  1  0
  1 11  1  0
  3 12  1  0
  3 13  1  0
  5 14  1  0
  7 15  1  0
  7 16  1  0
  8 17  1  0
  8 18  1  0
M  END
