
     RDKit          3D

 23 23  0  0  0  0  0  0  0  0999 V2000
    1.4138    0.2978   -1.1033 C   0  0  0  0  0  0  0  0  0  0  0  0
    0.6859    0.0554    0.1861 C   0  0  0  0  0  0  0  0  0  0  0  0
    1.6755   -0.3097    1.2683 C   0  0  0  0  0  0  0  0  0  0  0  0
   -0.1919    1.2146    0.5599 C   0  0  0  0  0  0  0  0  0  0  0  0
   -1.6282    0.7049    0.4899 C   0  0  0  0  0  0  0  0  0  0  0  0
   -2.4665    1.6419   -0.0664 O   0  0  0  0  0  0  0  0  0  0  0  0
   -1.5204   -0.4935   -0.4530 C   0  0  0  0  0  0  0  0  0  0  0  0
   -0.2504   -1.1328    0.0322 C   0  0  0  0  0  0  0  0  0  0  0  0
    0.2442   -2.1073   -0.7952 O   0  0  0  0  0  0  0  0  0  0  0  0
    2.0020   -0.6013   -1.3636 H   0  0  0  0  0  0  0  0  0  0  0  0
    0.6945    0.4482   -1.9388 H   0  0  0  0  0  0  0  0  0  0  0  0
    2.0315    1.2111   -1.0285 H   0  0  0  0  0  0  0  0  0  0  0  0
    1.1193   -0.5891    2.2062 H   0  0  0  0  0  0  0  0  0  0  0  0
    2.3921    0.4820    1.4978 H   0  0  0  0  0  0  0  0  0  0  0  0
    2.1596   -1.2656    0.9333 H   0  0  0  0  0  0  0  0  0  0  0  0
    0.0369    1.6598    1.5348 H   0  0  0  0  0  0  0  0  0  0  0  0
   -0.1098    2.0278   -0.2053 H   0  0  0  0  0  0  0  0  0  0  0  0
   -1.9309    0.3579    1.4943 H   0  0  0  0  0  0  0  0  0  0  0  0
   -1.9216    2.1912   -0.7023 H   0  0  0  0  0  0  0  0  0  0  0  0
   -1.4480   -0.0854   -1.4696 H   0  0  0  0  0  0  0  0  0  0  0  0
   -2.3422   -1.2111   -0.3081 H   0  0  0  0  0  0  0  0  0  0  0  0
   -0.4503   -1.5246    1.0524 H   0  0  0  0  0  0  0  0  0  0  0  0
   -0.1951   -2.9723   -0.5189 H   0  0  0  0  0  0  0  0  0  0  0  0
  1  2  1  0
  2  3  1  0
  2  4  1  0
  4  5  1  0
  5  6  1  0
  5  7  1  0
  7  8  1  0
  8  9  1  0
  8  2  1  0
  1 10  1  0
  1 11  1  0
  1 12  1  0
  3 13  1  0
  3 14  1  0
  3 15  1  0
  4 16  1  0
  4 17  1  0
  5 18  1  0
  6 19  1  0
  7 20  1  0
  7 21  1  0
  8 22  1  0
  9 23  1  0
M  END
