
     RDKit          3D

 19 20  0  0  0  0  0  0  0  0999 V2000
    1.3677   -0.7072   -0.4283 C   0  0  0  0  0  0  0  0  0  0  0  0
    0.6204    0.4250    0.1481 C   0  0  0  0  0  0  0  0  0  0  0  0
    1.4207    1.5952    0.5631 C   0  0  0  0  0  0  0  0  0  0  0  0
    1.4940    2.5485   -0.1817 O   0  0  0  0  0  0  0  0  0  0  0  0
   -0.5935    0.7720   -0.6882 C   0  0  0  0  0  0  0  0  0  0  0  0
   -1.2856   -0.5581   -0.8905 C   0  0  0  0  0  0  0  0  0  0  0  0
   -1.2631   -1.0280    0.5793 C   0  0  0  0  0  0  0  0  0  0  0  0
   -0.4727    0.1587    1.1160 C   0  0  0  0  0  0  0  0  0  0  0  0
   -1.1749    1.2166    0.4863 O   0  0  0  0  0  0  0  0  0  0  0  0
    1.2404   -0.7382   -1.5445 H   0  0  0  0  0  0  0  0  0  0  0  0
    1.1475   -1.6975   -0.0460 H   0  0  0  0  0  0  0  0  0  0  0  0
    2.4701   -0.5151   -0.2870 H   0  0  0  0  0  0  0  0  0  0  0  0
    1.9288    1.5850    1.5232 H   0  0  0  0  0  0  0  0  0  0  0  0
   -0.4806    1.4318   -1.5148 H   0  0  0  0  0  0  0  0  0  0  0  0
   -2.3597   -0.4369   -1.1692 H   0  0  0  0  0  0  0  0  0  0  0  0
   -0.7352   -1.2461   -1.5256 H   0  0  0  0  0  0  0  0  0  0  0  0
   -2.2715   -1.0573    1.0043 H   0  0  0  0  0  0  0  0  0  0  0  0
   -0.7339   -1.9792    0.6897 H   0  0  0  0  0  0  0  0  0  0  0  0
   -0.3189    0.2307    2.1657 H   0  0  0  0  0  0  0  0  0  0  0  0
  1  2  1  0
  2  3  1  0
  3  4  2  0
  2  5  1  0
  5  6  1  0
  6  7  1  0
  7  8  1  0
  8  9  1  0
  8  2  1  0
  9  5  1  0
  1 10  1  0
  1 11  1  0
  1 12  1  0
  3 13  1  0
  5 14  1  0
  6 15  1  0
  6 16  1  0
  7 17  1  0
  7 18  1  0
  8 19  1  0
M  END
