
     RDKit          3D

 23 23  0  0  0  0  0  0  0  0999 V2000
   -1.8904   -1.1807    0.1524 C   0  0  0  0  0  0  0  0  0  0  0  0
   -0.8580   -0.0943   -0.0217 C   0  0  0  0  0  0  0  0  0  0  0  0
   -1.5287    1.1337   -0.5919 C   0  0  0  0  0  0  0  0  0  0  0  0
   -0.2527    0.2726    1.3268 C   0  0  0  0  0  0  0  0  0  0  0  0
    1.1453    0.6636    0.9433 C   0  0  0  0  0  0  0  0  0  0  0  0
    1.5116   -0.4379   -0.0362 C   0  0  0  0  0  0  0  0  0  0  0  0
    2.7237   -0.0148   -0.7665 C   0  0  0  0  0  0  0  0  0  0  0  0
    2.7300    0.2970   -1.9500 O   0  0  0  0  0  0  0  0  0  0  0  0
    0.2961   -0.5226   -0.8971 C   0  0  0  0  0  0  0  0  0  0  0  0
   -1.9026   -1.8188   -0.7419 H   0  0  0  0  0  0  0  0  0  0  0  0
   -1.6562   -1.7644    1.0643 H   0  0  0  0  0  0  0  0  0  0  0  0
   -2.9271   -0.7600    0.2459 H   0  0  0  0  0  0  0  0  0  0  0  0
   -0.9175    2.0456   -0.3588 H   0  0  0  0  0  0  0  0  0  0  0  0
   -1.6941    1.0251   -1.6778 H   0  0  0  0  0  0  0  0  0  0  0  0
   -2.5171    1.2561   -0.0635 H   0  0  0  0  0  0  0  0  0  0  0  0
   -0.7924    1.1327    1.7693 H   0  0  0  0  0  0  0  0  0  0  0  0
   -0.3052   -0.5751    2.0239 H   0  0  0  0  0  0  0  0  0  0  0  0
    1.0997    1.6286    0.4239 H   0  0  0  0  0  0  0  0  0  0  0  0
    1.8569    0.6317    1.7845 H   0  0  0  0  0  0  0  0  0  0  0  0
    1.7294   -1.3650    0.5332 H   0  0  0  0  0  0  0  0  0  0  0  0
    3.6542    0.0170   -0.2107 H   0  0  0  0  0  0  0  0  0  0  0  0
    0.3693    0.0477   -1.8354 H   0  0  0  0  0  0  0  0  0  0  0  0
    0.1255   -1.6177   -1.1160 H   0  0  0  0  0  0  0  0  0  0  0  0
  1  2  1  0
  2  3  1  0
  2  4  1  0
  4  5  1  0
  5  6  1  0
  6  7  1  0
  7  8  2  0
  6  9  1  0
  9  2  1  0
  1 10  1  0
  1 11  1  0
  1 12  1  0
  3 13  1  0
  3 14  1  0
  3 15  1  0
  4 16  1  0
  4 17  1  0
  5 18  1  0
  5 19  1  0
  6 20  1  0
  7 21  1  0
  9 22  1  0
  9 23  1  0
M  END
