
     RDKit          3D

 19 20  0  0  0  0  0  0  0  0999 V2000
   -1.3533    1.1228   -0.5215 C   0  0  0  0  0  0  0  0  0  0  0  0
   -0.5058    0.0106   -0.0046 C   0  0  0  0  0  0  0  0  0  0  0  0
   -0.7169   -1.3301   -0.6928 C   0  0  0  0  0  0  0  0  0  0  0  0
   -0.4937   -0.1024    1.5221 C   0  0  0  0  0  0  0  0  0  0  0  0
    0.9602    0.1736    1.5619 C   0  0  0  0  0  0  0  0  0  0  0  0
    1.7848    0.2622    2.4373 O   0  0  0  0  0  0  0  0  0  0  0  0
    0.9668    0.2906    0.1083 C   0  0  0  0  0  0  0  0  0  0  0  0
    1.9614    0.0253   -0.8016 C   0  0  0  0  0  0  0  0  0  0  0  0
    1.5345    1.3635   -0.5422 O   0  0  0  0  0  0  0  0  0  0  0  0
   -2.0743    1.4028    0.2838 H   0  0  0  0  0  0  0  0  0  0  0  0
   -0.7877    1.9931   -0.8868 H   0  0  0  0  0  0  0  0  0  0  0  0
   -1.9588    0.7139   -1.3819 H   0  0  0  0  0  0  0  0  0  0  0  0
    0.1737   -1.9884   -0.5299 H   0  0  0  0  0  0  0  0  0  0  0  0
   -1.5831   -1.8620   -0.2457 H   0  0  0  0  0  0  0  0  0  0  0  0
   -0.7959   -1.1587   -1.7644 H   0  0  0  0  0  0  0  0  0  0  0  0
   -1.0429    0.7570    1.9907 H   0  0  0  0  0  0  0  0  0  0  0  0
   -0.8215   -1.0984    1.8199 H   0  0  0  0  0  0  0  0  0  0  0  0
    1.7444   -0.3487   -1.8431 H   0  0  0  0  0  0  0  0  0  0  0  0
    3.0083   -0.2266   -0.5093 H   0  0  0  0  0  0  0  0  0  0  0  0
  1  2  1  0
  2  3  1  0
  2  4  1  0
  4  5  1  0
  5  6  2  0
  5  7  1  0
  7  8  1  0
  8  9  1  0
  7  2  1  0
  9  7  1  0
  1 10  1  0
  1 11  1  0
  1 12  1  0
  3 13  1  0
  3 14  1  0
  3 15  1  0
  4 16  1  0
  4 17  1  0
  8 18  1  0
  8 19  1  0
M  END
