
     RDKit          3D

 21 22  0  0  0  0  0  0  0  0999 V2000
    0.8625   -1.0471   -1.0867 C   0  0  0  0  0  0  0  0  0  0  0  0
    0.5688   -0.1597    0.1138 C   0  0  0  0  0  0  0  0  0  0  0  0
    1.8062    0.6861    0.4403 C   0  0  0  0  0  0  0  0  0  0  0  0
    2.0478    1.4482   -0.7220 O   0  0  0  0  0  0  0  0  0  0  0  0
   -0.2982   -0.7505    1.0916 C   0  0  0  0  0  0  0  0  0  0  0  0
   -1.7909   -0.5664    1.2614 C   0  0  0  0  0  0  0  0  0  0  0  0
   -1.3984    0.7875    1.4352 O   0  0  0  0  0  0  0  0  0  0  0  0
   -0.6728    0.5479    0.2865 C   0  0  0  0  0  0  0  0  0  0  0  0
   -1.5600    0.4410   -0.9137 C   0  0  0  0  0  0  0  0  0  0  0  0
    1.7396   -1.6912   -0.7793 H   0  0  0  0  0  0  0  0  0  0  0  0
    1.2287   -0.4386   -1.9406 H   0  0  0  0  0  0  0  0  0  0  0  0
    0.0550   -1.7296   -1.3311 H   0  0  0  0  0  0  0  0  0  0  0  0
    1.6156    1.4027    1.2463 H   0  0  0  0  0  0  0  0  0  0  0  0
    2.6691    0.0554    0.6949 H   0  0  0  0  0  0  0  0  0  0  0  0
    2.9034    1.9388   -0.6691 H   0  0  0  0  0  0  0  0  0  0  0  0
    0.1405   -0.5529    2.1239 H   0  0  0  0  0  0  0  0  0  0  0  0
   -2.1944   -1.0361    2.1742 H   0  0  0  0  0  0  0  0  0  0  0  0
   -2.4374   -0.7882    0.4288 H   0  0  0  0  0  0  0  0  0  0  0  0
   -2.5833    0.8438   -0.7693 H   0  0  0  0  0  0  0  0  0  0  0  0
   -1.5933   -0.5296   -1.3985 H   0  0  0  0  0  0  0  0  0  0  0  0
   -1.1084    1.1385   -1.6864 H   0  0  0  0  0  0  0  0  0  0  0  0
  1  2  1  0
  2  3  1  0
  3  4  1  0
  2  5  1  0
  5  6  1  0
  6  7  1  0
  7  8  1  0
  8  9  1  0
  8  2  1  0
  8  5  1  0
  1 10  1  0
  1 11  1  0
  1 12  1  0
  3 13  1  0
  3 14  1  0
  4 15  1  0
  5 16  1  0
  6 17  1  0
  6 18  1  0
  9 19  1  0
  9 20  1  0
  9 21  1  0
M  END
