
     RDKit          3D

 23 24  0  0  0  0  0  0  0  0999 V2000
   -2.0552    0.7425   -0.4307 C   0  0  0  0  0  0  0  0  0  0  0  0
   -0.8442   -0.1584   -0.2776 C   0  0  0  0  0  0  0  0  0  0  0  0
   -1.1774   -1.5282    0.2506 C   0  0  0  0  0  0  0  0  0  0  0  0
    0.2907    0.0564   -1.2108 C   0  0  0  0  0  0  0  0  0  0  0  0
    1.1046   -1.0142   -1.4586 O   0  0  0  0  0  0  0  0  0  0  0  0
    1.9737   -1.1884   -0.4220 C   0  0  0  0  0  0  0  0  0  0  0  0
    1.5446   -0.3417    0.7313 C   0  0  0  0  0  0  0  0  0  0  0  0
    0.4107    0.4766    0.1890 C   0  0  0  0  0  0  0  0  0  0  0  0
    0.3110    1.8956    0.6382 C   0  0  0  0  0  0  0  0  0  0  0  0
   -2.8402    0.3037   -1.0562 H   0  0  0  0  0  0  0  0  0  0  0  0
   -1.6628    1.7148   -0.8297 H   0  0  0  0  0  0  0  0  0  0  0  0
   -2.4366    0.9184    0.6035 H   0  0  0  0  0  0  0  0  0  0  0  0
   -1.5977   -2.1524   -0.5713 H   0  0  0  0  0  0  0  0  0  0  0  0
   -2.0111   -1.3895    0.9991 H   0  0  0  0  0  0  0  0  0  0  0  0
   -0.3306   -2.0344    0.7287 H   0  0  0  0  0  0  0  0  0  0  0  0
    0.1052    0.7208   -2.0521 H   0  0  0  0  0  0  0  0  0  0  0  0
    3.0363   -0.9840   -0.7055 H   0  0  0  0  0  0  0  0  0  0  0  0
    1.9112   -2.2620   -0.0980 H   0  0  0  0  0  0  0  0  0  0  0  0
    1.2814   -0.9377    1.6246 H   0  0  0  0  0  0  0  0  0  0  0  0
    2.3676    0.3643    1.0090 H   0  0  0  0  0  0  0  0  0  0  0  0
   -0.6074    1.9669    1.2915 H   0  0  0  0  0  0  0  0  0  0  0  0
    0.0835    2.5907   -0.2155 H   0  0  0  0  0  0  0  0  0  0  0  0
    1.1428    2.2400    1.2624 H   0  0  0  0  0  0  0  0  0  0  0  0
  1  2  1  0
  2  3  1  0
  2  4  1  0
  4  5  1  0
  5  6  1  0
  6  7  1  0
  7  8  1  0
  8  9  1  0
  8  2  1  0
  8  4  1  0
  1 10  1  0
  1 11  1  0
  1 12  1  0
  3 13  1  0
  3 14  1  0
  3 15  1  0
  4 16  1  0
  6 17  1  0
  6 18  1  0
  7 19  1  0
  7 20  1  0
  9 21  1  0
  9 22  1  0
  9 23  1  0
M  END
