
     RDKit          3D

 17 17  0  0  0  0  0  0  0  0999 V2000
   -1.3871    0.5461    1.0247 C   0  0  0  0  0  0  0  0  0  0  0  0
   -0.4839   -0.1419    0.0533 C   0  0  0  0  0  0  0  0  0  0  0  0
   -1.2328   -1.0613   -0.8620 C   0  0  0  0  0  0  0  0  0  0  0  0
   -1.3541   -0.8770   -2.0472 O   0  0  0  0  0  0  0  0  0  0  0  0
    0.1087    0.9271   -0.8331 C   0  0  0  0  0  0  0  0  0  0  0  0
    1.4206    0.8646   -0.7770 C   0  0  0  0  0  0  0  0  0  0  0  0
    1.8863   -0.2214    0.1269 C   0  0  0  0  0  0  0  0  0  0  0  0
    0.6458   -0.8460    0.6479 C   0  0  0  0  0  0  0  0  0  0  0  0
    0.6025   -1.7705    1.4243 O   0  0  0  0  0  0  0  0  0  0  0  0
   -1.6419   -0.0702    1.9074 H   0  0  0  0  0  0  0  0  0  0  0  0
   -1.0392    1.5210    1.3661 H   0  0  0  0  0  0  0  0  0  0  0  0
   -2.3672    0.7279    0.4969 H   0  0  0  0  0  0  0  0  0  0  0  0
   -1.6776   -1.9366   -0.3815 H   0  0  0  0  0  0  0  0  0  0  0  0
   -0.5466    1.5929   -1.3885 H   0  0  0  0  0  0  0  0  0  0  0  0
    2.1026    1.5140   -1.3144 H   0  0  0  0  0  0  0  0  0  0  0  0
    2.4516    0.1656    1.0000 H   0  0  0  0  0  0  0  0  0  0  0  0
    2.5122   -0.9343   -0.4441 H   0  0  0  0  0  0  0  0  0  0  0  0
  1  2  1  0
  2  3  1  0
  3  4  2  0
  2  5  1  0
  5  6  2  0
  6  7  1  0
  7  8  1  0
  8  9  2  0
  8  2  1  0
  1 10  1  0
  1 11  1  0
  1 12  1  0
  3 13  1  0
  5 14  1  0
  6 15  1  0
  7 16  1  0
  7 17  1  0
M  END
