
     RDKit          3D

 19 19  0  0  0  0  0  0  0  0999 V2000
   -1.3427   -1.6100    0.5270 C   0  0  0  0  0  0  0  0  0  0  0  0
   -0.9096   -0.1768    0.3488 C   0  0  0  0  0  0  0  0  0  0  0  0
    0.4425    0.0035   -0.1360 C   0  0  0  0  0  0  0  0  0  0  0  0
    1.5938    0.1532   -0.5264 C   0  0  0  0  0  0  0  0  0  0  0  0
    2.9772    0.3351   -0.9691 C   0  0  0  0  0  0  0  0  0  0  0  0
    3.8573   -0.1274    0.0360 O   0  0  0  0  0  0  0  0  0  0  0  0
   -1.8685    0.7148   -0.3746 C   0  0  0  0  0  0  0  0  0  0  0  0
   -1.6362    1.7131    0.5764 O   0  0  0  0  0  0  0  0  0  0  0  0
   -1.3226    0.6924    1.4916 C   0  0  0  0  0  0  0  0  0  0  0  0
   -0.8787   -1.9539    1.4976 H   0  0  0  0  0  0  0  0  0  0  0  0
   -2.4552   -1.6106    0.5905 H   0  0  0  0  0  0  0  0  0  0  0  0
   -0.9449   -2.2750   -0.2504 H   0  0  0  0  0  0  0  0  0  0  0  0
    3.1190    1.4371   -1.1130 H   0  0  0  0  0  0  0  0  0  0  0  0
    3.1699   -0.2039   -1.9272 H   0  0  0  0  0  0  0  0  0  0  0  0
    3.4576    0.2145    0.8942 H   0  0  0  0  0  0  0  0  0  0  0  0
   -2.9417    0.4074   -0.3064 H   0  0  0  0  0  0  0  0  0  0  0  0
   -1.5682    1.0703   -1.3718 H   0  0  0  0  0  0  0  0  0  0  0  0
   -0.5222    0.9533    2.2027 H   0  0  0  0  0  0  0  0  0  0  0  0
   -2.2270    0.2631    1.9879 H   0  0  0  0  0  0  0  0  0  0  0  0
  1  2  1  0
  2  3  1  0
  3  4  3  0
  4  5  1  0
  5  6  1  0
  2  7  1  0
  7  8  1  0
  8  9  1  0
  9  2  1  0
  1 10  1  0
  1 11  1  0
  1 12  1  0
  5 13  1  0
  5 14  1  0
  6 15  1  0
  7 16  1  0
  7 17  1  0
  9 18  1  0
  9 19  1  0
M  END
