
     RDKit          3D

 21 22  0  0  0  0  0  0  0  0999 V2000
   -1.4893   -1.0563    0.6581 C   0  0  0  0  0  0  0  0  0  0  0  0
   -0.6329    0.0705    0.1880 C   0  0  0  0  0  0  0  0  0  0  0  0
   -1.4965    1.2160   -0.2323 C   0  0  0  0  0  0  0  0  0  0  0  0
    0.4088    0.4625    1.1815 C   0  0  0  0  0  0  0  0  0  0  0  0
    0.2311    0.9221    2.2727 O   0  0  0  0  0  0  0  0  0  0  0  0
    1.6532    0.1476    0.4928 C   0  0  0  0  0  0  0  0  0  0  0  0
    1.3950    0.7666   -0.8819 C   0  0  0  0  0  0  0  0  0  0  0  0
    0.2927   -0.3025   -0.9384 C   0  0  0  0  0  0  0  0  0  0  0  0
    1.3163   -1.1762   -0.2158 C   0  0  0  0  0  0  0  0  0  0  0  0
   -1.1287   -2.0273    0.2740 H   0  0  0  0  0  0  0  0  0  0  0  0
   -1.4794   -1.1071    1.7822 H   0  0  0  0  0  0  0  0  0  0  0  0
   -2.5222   -0.9299    0.2801 H   0  0  0  0  0  0  0  0  0  0  0  0
   -2.1772    1.5199    0.6013 H   0  0  0  0  0  0  0  0  0  0  0  0
   -2.1632    0.8422   -1.0363 H   0  0  0  0  0  0  0  0  0  0  0  0
   -0.9673    2.0823   -0.6247 H   0  0  0  0  0  0  0  0  0  0  0  0
    2.6026    0.2514    0.9285 H   0  0  0  0  0  0  0  0  0  0  0  0
    2.1803    0.5417   -1.6302 H   0  0  0  0  0  0  0  0  0  0  0  0
    1.0377    1.7941   -0.8643 H   0  0  0  0  0  0  0  0  0  0  0  0
   -0.0711   -0.6031   -1.8775 H   0  0  0  0  0  0  0  0  0  0  0  0
    2.1112   -1.5419   -0.8712 H   0  0  0  0  0  0  0  0  0  0  0  0
    0.8989   -1.8727    0.5133 H   0  0  0  0  0  0  0  0  0  0  0  0
  1  2  1  0
  2  3  1  0
  2  4  1  0
  4  5  2  0
  4  6  1  0
  6  7  1  0
  7  8  1  0
  8  9  1  0
  8  2  1  0
  9  6  1  0
  1 10  1  0
  1 11  1  0
  1 12  1  0
  3 13  1  0
  3 14  1  0
  3 15  1  0
  6 16  1  0
  7 17  1  0
  7 18  1  0
  8 19  1  0
  9 20  1  0
  9 21  1  0
M  END
