
     RDKit          3D

 16 16  0  0  0  0  0  0  0  0999 V2000
   -1.3802    1.2875    1.1143 C   0  0  0  0  0  0  0  0  0  0  0  0
   -1.2249    0.0431    0.2805 C   0  0  0  0  0  0  0  0  0  0  0  0
    0.1525   -0.2127   -0.1572 C   0  0  0  0  0  0  0  0  0  0  0  0
    1.2985   -0.4262   -0.4994 C   0  0  0  0  0  0  0  0  0  0  0  0
    2.6894   -0.6602   -0.9063 C   0  0  0  0  0  0  0  0  0  0  0  0
    3.5751   -0.4621    0.1522 O   0  0  0  0  0  0  0  0  0  0  0  0
   -2.2808   -0.3686   -0.6332 C   0  0  0  0  0  0  0  0  0  0  0  0
   -1.9540   -1.1023    0.6377 O   0  0  0  0  0  0  0  0  0  0  0  0
   -1.8947    1.0552    2.0796 H   0  0  0  0  0  0  0  0  0  0  0  0
   -1.9966    2.0022    0.5482 H   0  0  0  0  0  0  0  0  0  0  0  0
   -0.3943    1.7230    1.4118 H   0  0  0  0  0  0  0  0  0  0  0  0
    2.8828    0.0331   -1.7512 H   0  0  0  0  0  0  0  0  0  0  0  0
    2.7484   -1.7289   -1.2014 H   0  0  0  0  0  0  0  0  0  0  0  0
    3.1329   -0.0897    0.9545 H   0  0  0  0  0  0  0  0  0  0  0  0
   -3.3330   -0.0484   -0.5430 H   0  0  0  0  0  0  0  0  0  0  0  0
   -2.0211   -1.0450   -1.4873 H   0  0  0  0  0  0  0  0  0  0  0  0
  1  2  1  0
  2  3  1  0
  3  4  3  0
  4  5  1  0
  5  6  1  0
  2  7  1  0
  7  8  1  0
  8  2  1  0
  1  9  1  0
  1 10  1  0
  1 11  1  0
  5 12  1  0
  5 13  1  0
  6 14  1  0
  7 15  1  0
  7 16  1  0
M  END
