
     RDKit          3D

 23 24  0  0  0  0  0  0  0  0999 V2000
   -1.7605    0.6042    1.1247 C   0  0  0  0  0  0  0  0  0  0  0  0
   -0.8466    0.0325    0.0729 C   0  0  0  0  0  0  0  0  0  0  0  0
   -1.6239   -0.3383   -1.1630 C   0  0  0  0  0  0  0  0  0  0  0  0
    0.1918    1.1007   -0.2390 C   0  0  0  0  0  0  0  0  0  0  0  0
    1.4045    0.3310   -0.6640 C   0  0  0  0  0  0  0  0  0  0  0  0
    2.3824    0.2056    0.4813 C   0  0  0  0  0  0  0  0  0  0  0  0
    2.4166   -1.1553    0.2507 O   0  0  0  0  0  0  0  0  0  0  0  0
    1.1729   -1.1150   -0.3433 C   0  0  0  0  0  0  0  0  0  0  0  0
   -0.0136   -1.1121    0.5729 C   0  0  0  0  0  0  0  0  0  0  0  0
   -1.1487    0.8682    2.0187 H   0  0  0  0  0  0  0  0  0  0  0  0
   -2.1505    1.5711    0.7242 H   0  0  0  0  0  0  0  0  0  0  0  0
   -2.5478   -0.0804    1.4551 H   0  0  0  0  0  0  0  0  0  0  0  0
   -2.5397   -0.8720   -0.8194 H   0  0  0  0  0  0  0  0  0  0  0  0
   -1.9648    0.5371   -1.7270 H   0  0  0  0  0  0  0  0  0  0  0  0
   -1.0762   -1.0259   -1.8211 H   0  0  0  0  0  0  0  0  0  0  0  0
   -0.1653    1.8374   -0.9605 H   0  0  0  0  0  0  0  0  0  0  0  0
    0.3777    1.6639    0.7187 H   0  0  0  0  0  0  0  0  0  0  0  0
    1.8327    0.5635   -1.6393 H   0  0  0  0  0  0  0  0  0  0  0  0
    1.9101    0.3977    1.4752 H   0  0  0  0  0  0  0  0  0  0  0  0
    3.3190    0.7630    0.3201 H   0  0  0  0  0  0  0  0  0  0  0  0
    1.1078   -1.7874   -1.2132 H   0  0  0  0  0  0  0  0  0  0  0  0
    0.2930   -0.9148    1.6282 H   0  0  0  0  0  0  0  0  0  0  0  0
   -0.5708   -2.0749    0.5469 H   0  0  0  0  0  0  0  0  0  0  0  0
  1  2  1  0
  2  3  1  0
  2  4  1  0
  4  5  1  0
  5  6  1  0
  6  7  1  0
  7  8  1  0
  8  9  1  0
  9  2  1  0
  8  5  1  0
  1 10  1  0
  1 11  1  0
  1 12  1  0
  3 13  1  0
  3 14  1  0
  3 15  1  0
  4 16  1  0
  4 17  1  0
  5 18  1  0
  6 19  1  0
  6 20  1  0
  8 21  1  0
  9 22  1  0
  9 23  1  0
M  END
