
     RDKit          3D

 23 24  0  0  0  0  0  0  0  0999 V2000
    1.7482   -0.6522    1.0626 C   0  0  0  0  0  0  0  0  0  0  0  0
    0.9197   -0.0153   -0.0132 C   0  0  0  0  0  0  0  0  0  0  0  0
    1.5642   -0.0246   -1.2630 O   0  0  0  0  0  0  0  0  0  0  0  0
    0.5885    1.4155    0.2957 C   0  0  0  0  0  0  0  0  0  0  0  0
   -0.6041    1.6608   -0.6228 C   0  0  0  0  0  0  0  0  0  0  0  0
   -1.3772    0.3965   -0.6790 C   0  0  0  0  0  0  0  0  0  0  0  0
   -0.9929   -0.7675   -1.4771 C   0  0  0  0  0  0  0  0  0  0  0  0
   -0.4567   -0.6437   -0.1192 C   0  0  0  0  0  0  0  0  0  0  0  0
   -1.0087   -1.4082    1.0513 C   0  0  0  0  0  0  0  0  0  0  0  0
    2.5870   -1.1879    0.5518 H   0  0  0  0  0  0  0  0  0  0  0  0
    1.1893   -1.4179    1.6241 H   0  0  0  0  0  0  0  0  0  0  0  0
    2.1694    0.0788    1.7695 H   0  0  0  0  0  0  0  0  0  0  0  0
    1.4664    0.8346   -1.7404 H   0  0  0  0  0  0  0  0  0  0  0  0
    1.4037    2.1198    0.1352 H   0  0  0  0  0  0  0  0  0  0  0  0
    0.3034    1.4685    1.3622 H   0  0  0  0  0  0  0  0  0  0  0  0
   -1.2136    2.4485   -0.1003 H   0  0  0  0  0  0  0  0  0  0  0  0
   -0.3158    2.0905   -1.5852 H   0  0  0  0  0  0  0  0  0  0  0  0
   -2.4463    0.4360   -0.3272 H   0  0  0  0  0  0  0  0  0  0  0  0
   -0.2657   -0.6669   -2.3366 H   0  0  0  0  0  0  0  0  0  0  0  0
   -1.7768   -1.5154   -1.7150 H   0  0  0  0  0  0  0  0  0  0  0  0
   -2.1242   -1.4058    1.0262 H   0  0  0  0  0  0  0  0  0  0  0  0
   -0.7508   -0.8025    1.9693 H   0  0  0  0  0  0  0  0  0  0  0  0
   -0.6070   -2.4414    1.1311 H   0  0  0  0  0  0  0  0  0  0  0  0
  1  2  1  0
  2  3  1  0
  2  4  1  0
  4  5  1  0
  5  6  1  0
  6  7  1  0
  7  8  1  0
  8  9  1  0
  8  2  1  0
  8  6  1  0
  1 10  1  0
  1 11  1  0
  1 12  1  0
  3 13  1  0
  4 14  1  0
  4 15  1  0
  5 16  1  0
  5 17  1  0
  6 18  1  0
  7 19  1  0
  7 20  1  0
  9 21  1  0
  9 22  1  0
  9 23  1  0
M  END
