
     RDKit          3D

 21 22  0  0  0  0  0  0  0  0999 V2000
   -1.4371   -0.9342    0.8560 C   0  0  0  0  0  0  0  0  0  0  0  0
   -0.5725   -0.1905   -0.0908 C   0  0  0  0  0  0  0  0  0  0  0  0
   -1.1831    1.1435   -0.4630 C   0  0  0  0  0  0  0  0  0  0  0  0
   -0.0176   -0.9223   -1.2631 C   0  0  0  0  0  0  0  0  0  0  0  0
    0.6793   -2.0314   -1.3457 O   0  0  0  0  0  0  0  0  0  0  0  0
    0.9567   -1.4843   -0.1821 C   0  0  0  0  0  0  0  0  0  0  0  0
    0.8998   -0.0826    0.3049 C   0  0  0  0  0  0  0  0  0  0  0  0
    1.6947    0.9567   -0.3493 C   0  0  0  0  0  0  0  0  0  0  0  0
    0.9652    0.0538    1.6920 O   0  0  0  0  0  0  0  0  0  0  0  0
   -1.0671   -0.8254    1.9178 H   0  0  0  0  0  0  0  0  0  0  0  0
   -2.4556   -0.4938    0.8688 H   0  0  0  0  0  0  0  0  0  0  0  0
   -1.5755   -2.0074    0.6249 H   0  0  0  0  0  0  0  0  0  0  0  0
   -0.7411    1.5696   -1.3913 H   0  0  0  0  0  0  0  0  0  0  0  0
   -1.2061    1.8583    0.3779 H   0  0  0  0  0  0  0  0  0  0  0  0
   -2.2532    0.9308   -0.7158 H   0  0  0  0  0  0  0  0  0  0  0  0
    0.4499   -0.1711   -1.9767 H   0  0  0  0  0  0  0  0  0  0  0  0
    0.4566   -2.1503    0.5943 H   0  0  0  0  0  0  0  0  0  0  0  0
    1.0550    1.8798   -0.4751 H   0  0  0  0  0  0  0  0  0  0  0  0
    2.1640    0.7021   -1.3125 H   0  0  0  0  0  0  0  0  0  0  0  0
    2.5184    1.2748    0.3188 H   0  0  0  0  0  0  0  0  0  0  0  0
    0.6692    0.9239    2.0100 H   0  0  0  0  0  0  0  0  0  0  0  0
  1  2  1  0
  2  3  1  0
  2  4  1  0
  4  5  1  0
  5  6  1  0
  6  7  1  0
  7  8  1  0
  7  9  1  0
  7  2  1  0
  6  4  1  0
  1 10  1  0
  1 11  1  0
  1 12  1  0
  3 13  1  0
  3 14  1  0
  3 15  1  0
  4 16  1  0
  6 17  1  0
  8 18  1  0
  8 19  1  0
  8 20  1  0
  9 21  1  0
M  END
