
     RDKit          3D

 19 19  0  0  0  0  0  0  0  0999 V2000
    2.1515    0.8655    0.3114 C   0  0  0  0  0  0  0  0  0  0  0  0
    0.7937    0.2346   -0.0019 C   0  0  0  0  0  0  0  0  0  0  0  0
    0.9435   -1.2307   -0.3560 C   0  0  0  0  0  0  0  0  0  0  0  0
    0.0110    0.4336    1.1212 O   0  0  0  0  0  0  0  0  0  0  0  0
   -1.2209   -0.1496    1.0609 C   0  0  0  0  0  0  0  0  0  0  0  0
   -1.9827    0.0877   -0.1984 C   0  0  0  0  0  0  0  0  0  0  0  0
   -1.1699    0.7383   -1.2648 C   0  0  0  0  0  0  0  0  0  0  0  0
   -1.7850    1.1068   -2.2947 O   0  0  0  0  0  0  0  0  0  0  0  0
    0.2041    0.9213   -1.1115 O   0  0  0  0  0  0  0  0  0  0  0  0
    1.9145    1.8844    0.7056 H   0  0  0  0  0  0  0  0  0  0  0  0
    2.5529    0.2833    1.1766 H   0  0  0  0  0  0  0  0  0  0  0  0
    2.8138    0.8731   -0.5579 H   0  0  0  0  0  0  0  0  0  0  0  0
    0.1466   -1.5997   -1.0020 H   0  0  0  0  0  0  0  0  0  0  0  0
    1.9665   -1.4460   -0.7770 H   0  0  0  0  0  0  0  0  0  0  0  0
    0.8852   -1.7995    0.6025 H   0  0  0  0  0  0  0  0  0  0  0  0
   -1.1177   -1.2452    1.2854 H   0  0  0  0  0  0  0  0  0  0  0  0
   -1.8298    0.2531    1.9101 H   0  0  0  0  0  0  0  0  0  0  0  0
   -2.3644   -0.9008   -0.5847 H   0  0  0  0  0  0  0  0  0  0  0  0
   -2.9129    0.6899   -0.0250 H   0  0  0  0  0  0  0  0  0  0  0  0
  1  2  1  0
  2  3  1  0
  2  4  1  0
  4  5  1  0
  5  6  1  0
  6  7  1  0
  7  8  2  0
  7  9  1  0
  9  2  1  0
  1 10  1  0
  1 11  1  0
  1 12  1  0
  3 13  1  0
  3 14  1  0
  3 15  1  0
  5 16  1  0
  5 17  1  0
  6 18  1  0
  6 19  1  0
M  END
