
     RDKit          3D

 19 19  0  0  0  0  0  0  0  0999 V2000
   -1.3067    1.2657    0.3014 C   0  0  0  0  0  0  0  0  0  0  0  0
   -0.6916   -0.1015    0.1006 C   0  0  0  0  0  0  0  0  0  0  0  0
   -1.6890   -1.2004    0.0099 C   0  0  0  0  0  0  0  0  0  0  0  0
    0.2915   -0.3017    1.2583 C   0  0  0  0  0  0  0  0  0  0  0  0
    1.2713    0.6329    0.8695 O   0  0  0  0  0  0  0  0  0  0  0  0
    1.3701    0.5248   -0.5024 C   0  0  0  0  0  0  0  0  0  0  0  0
    2.5736   -0.2584   -0.8602 C   0  0  0  0  0  0  0  0  0  0  0  0
    3.3019   -0.6969    0.0051 O   0  0  0  0  0  0  0  0  0  0  0  0
    0.1995   -0.0576   -0.9694 O   0  0  0  0  0  0  0  0  0  0  0  0
   -0.4830    1.9495    0.6260 H   0  0  0  0  0  0  0  0  0  0  0  0
   -2.0384    1.1907    1.1244 H   0  0  0  0  0  0  0  0  0  0  0  0
   -1.7612    1.6646   -0.6139 H   0  0  0  0  0  0  0  0  0  0  0  0
   -2.1200   -1.3901    1.0082 H   0  0  0  0  0  0  0  0  0  0  0  0
   -2.5140   -0.8772   -0.6428 H   0  0  0  0  0  0  0  0  0  0  0  0
   -1.2375   -2.0938   -0.4308 H   0  0  0  0  0  0  0  0  0  0  0  0
   -0.1520   -0.0775    2.2263 H   0  0  0  0  0  0  0  0  0  0  0  0
    0.7874   -1.2911    1.1972 H   0  0  0  0  0  0  0  0  0  0  0  0
    1.3986    1.5556   -0.9487 H   0  0  0  0  0  0  0  0  0  0  0  0
    2.7997   -0.4374   -1.9011 H   0  0  0  0  0  0  0  0  0  0  0  0
  1  2  1  0
  2  3  1  0
  2  4  1  0
  4  5  1  0
  5  6  1  0
  6  7  1  0
  7  8  2  0
  6  9  1  0
  9  2  1  0
  1 10  1  0
  1 11  1  0
  1 12  1  0
  3 13  1  0
  3 14  1  0
  3 15  1  0
  4 16  1  0
  4 17  1  0
  6 18  1  0
  7 19  1  0
M  END
