
     RDKit          3D

 23 24  0  0  0  0  0  0  0  0999 V2000
   -1.0145    1.5009    0.5582 C   0  0  0  0  0  0  0  0  0  0  0  0
   -0.7529    0.1250    0.0454 C   0  0  0  0  0  0  0  0  0  0  0  0
   -1.9258   -0.7919    0.3361 C   0  0  0  0  0  0  0  0  0  0  0  0
   -0.3839    0.0167   -1.4173 C   0  0  0  0  0  0  0  0  0  0  0  0
    0.7221   -0.9322   -1.1286 C   0  0  0  0  0  0  0  0  0  0  0  0
    0.7360   -1.8713    0.0012 C   0  0  0  0  0  0  0  0  0  0  0  0
    0.5980   -0.4595    0.3391 C   0  0  0  0  0  0  0  0  0  0  0  0
    1.7285    0.4199    0.7616 C   0  0  0  0  0  0  0  0  0  0  0  0
    2.0068    1.3765   -0.2282 O   0  0  0  0  0  0  0  0  0  0  0  0
   -0.1335    2.1371    0.6287 H   0  0  0  0  0  0  0  0  0  0  0  0
   -1.5850    1.4122    1.5117 H   0  0  0  0  0  0  0  0  0  0  0  0
   -1.7270    1.9989   -0.1553 H   0  0  0  0  0  0  0  0  0  0  0  0
   -1.9582   -1.6283   -0.4221 H   0  0  0  0  0  0  0  0  0  0  0  0
   -2.8427   -0.1886    0.1384 H   0  0  0  0  0  0  0  0  0  0  0  0
   -1.9083   -1.1944    1.3626 H   0  0  0  0  0  0  0  0  0  0  0  0
    0.0189    1.0207   -1.7423 H   0  0  0  0  0  0  0  0  0  0  0  0
   -1.1815   -0.3210   -2.0930 H   0  0  0  0  0  0  0  0  0  0  0  0
    1.6562   -0.7571   -1.6539 H   0  0  0  0  0  0  0  0  0  0  0  0
    1.6754   -2.3664    0.2406 H   0  0  0  0  0  0  0  0  0  0  0  0
   -0.1607   -2.5180    0.2225 H   0  0  0  0  0  0  0  0  0  0  0  0
    2.6429   -0.1936    0.8551 H   0  0  0  0  0  0  0  0  0  0  0  0
    1.5634    0.9577    1.6956 H   0  0  0  0  0  0  0  0  0  0  0  0
    2.2258    2.2567    0.1441 H   0  0  0  0  0  0  0  0  0  0  0  0
  1  2  1  0
  2  3  1  0
  2  4  1  0
  4  5  1  0
  5  6  1  0
  6  7  1  0
  7  8  1  0
  8  9  1  0
  7  2  1  0
  7  5  1  0
  1 10  1  0
  1 11  1  0
  1 12  1  0
  3 13  1  0
  3 14  1  0
  3 15  1  0
  4 16  1  0
  4 17  1  0
  5 18  1  0
  6 19  1  0
  6 20  1  0
  8 21  1  0
  8 22  1  0
  9 23  1  0
M  END
