
     RDKit          3D

 21 22  0  0  0  0  0  0  0  0999 V2000
   -2.5633    0.4423   -0.3646 C   0  0  0  0  0  0  0  0  0  0  0  0
   -1.3253    0.0578    0.3495 C   0  0  0  0  0  0  0  0  0  0  0  0
   -1.4220   -0.0963    1.7286 O   0  0  0  0  0  0  0  0  0  0  0  0
   -0.0844    0.8895   -0.0215 C   0  0  0  0  0  0  0  0  0  0  0  0
    0.6807   -0.3601    0.3338 C   0  0  0  0  0  0  0  0  0  0  0  0
    1.9532   -0.6024   -0.3905 C   0  0  0  0  0  0  0  0  0  0  0  0
    3.0093    0.4383   -0.2427 C   0  0  0  0  0  0  0  0  0  0  0  0
    2.3184    0.0997   -1.5065 O   0  0  0  0  0  0  0  0  0  0  0  0
   -0.5402   -1.1038   -0.2324 C   0  0  0  0  0  0  0  0  0  0  0  0
   -2.3164    1.2953   -1.0532 H   0  0  0  0  0  0  0  0  0  0  0  0
   -3.0538   -0.3873   -0.8810 H   0  0  0  0  0  0  0  0  0  0  0  0
   -3.2735    0.8819    0.3936 H   0  0  0  0  0  0  0  0  0  0  0  0
   -2.1623   -0.7427    1.8867 H   0  0  0  0  0  0  0  0  0  0  0  0
   -0.0373    1.1012   -1.1006 H   0  0  0  0  0  0  0  0  0  0  0  0
    0.0810    1.7619    0.6259 H   0  0  0  0  0  0  0  0  0  0  0  0
    0.7375   -0.4675    1.4275 H   0  0  0  0  0  0  0  0  0  0  0  0
    2.3178   -1.6553   -0.3258 H   0  0  0  0  0  0  0  0  0  0  0  0
    2.7434    1.4872   -0.0031 H   0  0  0  0  0  0  0  0  0  0  0  0
    4.0504    0.1240   -0.2030 H   0  0  0  0  0  0  0  0  0  0  0  0
   -0.4518   -1.1022   -1.3330 H   0  0  0  0  0  0  0  0  0  0  0  0
   -0.6616   -2.0615    0.2694 H   0  0  0  0  0  0  0  0  0  0  0  0
  1  2  1  0
  2  3  1  0
  2  4  1  0
  4  5  1  0
  5  6  1  0
  6  7  1  0
  7  8  1  0
  5  9  1  0
  9  2  1  0
  8  6  1  0
  1 10  1  0
  1 11  1  0
  1 12  1  0
  3 13  1  0
  4 14  1  0
  4 15  1  0
  5 16  1  0
  6 17  1  0
  7 18  1  0
  7 19  1  0
  9 20  1  0
  9 21  1  0
M  END
