
     RDKit          3D

 19 20  0  0  0  0  0  0  0  0999 V2000
    2.1750    0.8907    0.4120 C   0  0  0  0  0  0  0  0  0  0  0  0
    1.0852    0.2589   -0.4643 C   0  0  0  0  0  0  0  0  0  0  0  0
    1.6395   -0.0752   -1.7239 O   0  0  0  0  0  0  0  0  0  0  0  0
    0.1955   -0.6609    0.1071 C   0  0  0  0  0  0  0  0  0  0  0  0
   -1.0955   -1.2663   -0.3044 C   0  0  0  0  0  0  0  0  0  0  0  0
   -2.0682   -0.3012    0.4028 C   0  0  0  0  0  0  0  0  0  0  0  0
   -1.2182    0.9329    0.6531 C   0  0  0  0  0  0  0  0  0  0  0  0
   -1.4258    1.7538    1.5213 O   0  0  0  0  0  0  0  0  0  0  0  0
   -0.2015    0.7937   -0.3850 C   0  0  0  0  0  0  0  0  0  0  0  0
    1.7773    1.2765    1.3519 H   0  0  0  0  0  0  0  0  0  0  0  0
    2.7309    1.6315   -0.1557 H   0  0  0  0  0  0  0  0  0  0  0  0
    2.8470    0.0318    0.6839 H   0  0  0  0  0  0  0  0  0  0  0  0
    1.7913   -1.0565   -1.7066 H   0  0  0  0  0  0  0  0  0  0  0  0
    0.2856   -0.7732    1.2342 H   0  0  0  0  0  0  0  0  0  0  0  0
   -1.2300   -1.2647   -1.3820 H   0  0  0  0  0  0  0  0  0  0  0  0
   -1.2343   -2.2519    0.1735 H   0  0  0  0  0  0  0  0  0  0  0  0
   -2.8295   -0.0244   -0.3591 H   0  0  0  0  0  0  0  0  0  0  0  0
   -2.4663   -0.7170    1.3198 H   0  0  0  0  0  0  0  0  0  0  0  0
   -0.7580    0.8215   -1.3785 H   0  0  0  0  0  0  0  0  0  0  0  0
  1  2  1  0
  2  3  1  0
  2  4  1  0
  4  5  1  0
  5  6  1  0
  6  7  1  0
  7  8  2  0
  7  9  1  0
  9  2  1  0
  9  4  1  0
  1 10  1  0
  1 11  1  0
  1 12  1  0
  3 13  1  0
  4 14  1  0
  5 15  1  0
  5 16  1  0
  6 17  1  0
  6 18  1  0
  9 19  1  0
M  END
