
     RDKit          3D

 21 22  0  0  0  0  0  0  0  0999 V2000
   -1.4589   -0.0389    1.1242 C   0  0  0  0  0  0  0  0  0  0  0  0
   -0.5570    0.1009   -0.0853 C   0  0  0  0  0  0  0  0  0  0  0  0
   -1.3159    0.3280   -1.3143 C   0  0  0  0  0  0  0  0  0  0  0  0
    0.5167   -0.9566   -0.0914 C   0  0  0  0  0  0  0  0  0  0  0  0
    0.9476   -0.8770    1.3647 C   0  0  0  0  0  0  0  0  0  0  0  0
    0.9631    0.5382    1.5003 O   0  0  0  0  0  0  0  0  0  0  0  0
    0.6126    0.9934    0.2283 C   0  0  0  0  0  0  0  0  0  0  0  0
    1.4455    0.0925   -0.6538 C   0  0  0  0  0  0  0  0  0  0  0  0
    1.4148    0.3102   -1.9887 O   0  0  0  0  0  0  0  0  0  0  0  0
   -1.0223    0.3792    2.0364 H   0  0  0  0  0  0  0  0  0  0  0  0
   -1.6902   -1.1135    1.3256 H   0  0  0  0  0  0  0  0  0  0  0  0
   -2.4156    0.4850    0.9327 H   0  0  0  0  0  0  0  0  0  0  0  0
   -2.3080    0.7681   -1.0610 H   0  0  0  0  0  0  0  0  0  0  0  0
   -1.5622   -0.6747   -1.7746 H   0  0  0  0  0  0  0  0  0  0  0  0
   -0.8410    0.9112   -2.1050 H   0  0  0  0  0  0  0  0  0  0  0  0
    0.3818   -1.8781   -0.5617 H   0  0  0  0  0  0  0  0  0  0  0  0
    1.9519   -1.3037    1.4459 H   0  0  0  0  0  0  0  0  0  0  0  0
    0.2068   -1.3084    2.0508 H   0  0  0  0  0  0  0  0  0  0  0  0
    0.5675    2.0261    0.0361 H   0  0  0  0  0  0  0  0  0  0  0  0
    2.4708   -0.0490   -0.2528 H   0  0  0  0  0  0  0  0  0  0  0  0
    1.6921    1.2673   -2.1566 H   0  0  0  0  0  0  0  0  0  0  0  0
  1  2  1  0
  2  3  1  0
  2  4  1  0
  4  5  1  0
  5  6  1  0
  6  7  1  0
  7  8  1  0
  8  9  1  0
  7  2  1  0
  8  4  1  0
  1 10  1  0
  1 11  1  0
  1 12  1  0
  3 13  1  0
  3 14  1  0
  3 15  1  0
  4 16  1  0
  5 17  1  0
  5 18  1  0
  7 19  1  0
  8 20  1  0
  9 21  1  0
M  END
