
     RDKit          3D

 23 23  0  0  0  0  0  0  0  0999 V2000
   -1.5878    1.3366    0.4663 C   0  0  0  0  0  0  0  0  0  0  0  0
   -1.1892   -0.0320    0.0191 C   0  0  0  0  0  0  0  0  0  0  0  0
   -2.3118   -1.0073   -0.1166 C   0  0  0  0  0  0  0  0  0  0  0  0
   -0.2873    0.0691   -1.2171 C   0  0  0  0  0  0  0  0  0  0  0  0
    0.8387    0.3293   -0.2131 C   0  0  0  0  0  0  0  0  0  0  0  0
    2.1525   -0.2364   -0.6676 C   0  0  0  0  0  0  0  0  0  0  0  0
    3.1597    0.0762    0.3775 C   0  0  0  0  0  0  0  0  0  0  0  0
    3.1600   -0.5679    1.4073 O   0  0  0  0  0  0  0  0  0  0  0  0
    0.0507   -0.5872    0.7340 C   0  0  0  0  0  0  0  0  0  0  0  0
   -2.6260    1.5149    0.0813 H   0  0  0  0  0  0  0  0  0  0  0  0
   -1.5549    1.4481    1.5732 H   0  0  0  0  0  0  0  0  0  0  0  0
   -0.9688    2.1425    0.0208 H   0  0  0  0  0  0  0  0  0  0  0  0
   -2.9413   -0.9174    0.7932 H   0  0  0  0  0  0  0  0  0  0  0  0
   -2.9460   -0.7925   -0.9986 H   0  0  0  0  0  0  0  0  0  0  0  0
   -1.9627   -2.0511   -0.1540 H   0  0  0  0  0  0  0  0  0  0  0  0
   -0.4456    0.9713   -1.8229 H   0  0  0  0  0  0  0  0  0  0  0  0
   -0.1459   -0.8796   -1.7418 H   0  0  0  0  0  0  0  0  0  0  0  0
    0.9057    1.3501    0.1500 H   0  0  0  0  0  0  0  0  0  0  0  0
    2.4091    0.2976   -1.6248 H   0  0  0  0  0  0  0  0  0  0  0  0
    2.0856   -1.3357   -0.8506 H   0  0  0  0  0  0  0  0  0  0  0  0
    3.8930    0.8546    0.2579 H   0  0  0  0  0  0  0  0  0  0  0  0
    0.1896   -1.6513    0.4554 H   0  0  0  0  0  0  0  0  0  0  0  0
    0.1226   -0.3319    1.7894 H   0  0  0  0  0  0  0  0  0  0  0  0
  1  2  1  0
  2  3  1  0
  2  4  1  0
  4  5  1  0
  5  6  1  0
  6  7  1  0
  7  8  2  0
  5  9  1  0
  9  2  1  0
  1 10  1  0
  1 11  1  0
  1 12  1  0
  3 13  1  0
  3 14  1  0
  3 15  1  0
  4 16  1  0
  4 17  1  0
  5 18  1  0
  6 19  1  0
  6 20  1  0
  7 21  1  0
  9 22  1  0
  9 23  1  0
M  END
