
     RDKit          3D

 23 24  0  0  0  0  0  0  0  0999 V2000
   -2.1780    1.0965   -1.0140 C   0  0  0  0  0  0  0  0  0  0  0  0
   -1.1557    0.2096   -0.2709 C   0  0  0  0  0  0  0  0  0  0  0  0
    0.2413    0.5383   -0.5916 C   0  0  0  0  0  0  0  0  0  0  0  0
    1.3224   -0.2383    0.0719 C   0  0  0  0  0  0  0  0  0  0  0  0
    1.3299   -1.5969   -0.1678 O   0  0  0  0  0  0  0  0  0  0  0  0
    1.9134    0.1949    1.3607 C   0  0  0  0  0  0  0  0  0  0  0  0
    2.7336    0.3507    0.0872 C   0  0  0  0  0  0  0  0  0  0  0  0
   -1.5700   -1.2544   -0.2948 C   0  0  0  0  0  0  0  0  0  0  0  0
   -1.6118   -0.4094    0.9762 C   0  0  0  0  0  0  0  0  0  0  0  0
   -2.4588    0.5250   -1.9222 H   0  0  0  0  0  0  0  0  0  0  0  0
   -3.0572    1.2965   -0.3496 H   0  0  0  0  0  0  0  0  0  0  0  0
   -1.7026    2.0325   -1.3591 H   0  0  0  0  0  0  0  0  0  0  0  0
    0.3369    0.5321   -1.7129 H   0  0  0  0  0  0  0  0  0  0  0  0
    0.4476    1.6240   -0.3345 H   0  0  0  0  0  0  0  0  0  0  0  0
    2.1822   -2.0368   -0.0057 H   0  0  0  0  0  0  0  0  0  0  0  0
    1.6521    1.1660    1.8231 H   0  0  0  0  0  0  0  0  0  0  0  0
    2.1779   -0.5798    2.0878 H   0  0  0  0  0  0  0  0  0  0  0  0
    2.8037    1.3473   -0.3740 H   0  0  0  0  0  0  0  0  0  0  0  0
    3.6008   -0.3014   -0.0213 H   0  0  0  0  0  0  0  0  0  0  0  0
   -0.8555   -2.0646   -0.3431 H   0  0  0  0  0  0  0  0  0  0  0  0
   -2.5562   -1.5260   -0.7442 H   0  0  0  0  0  0  0  0  0  0  0  0
   -2.6396   -0.1421    1.3317 H   0  0  0  0  0  0  0  0  0  0  0  0
   -0.9566   -0.7637    1.7673 H   0  0  0  0  0  0  0  0  0  0  0  0
  1  2  1  0
  2  3  1  0
  3  4  1  0
  4  5  1  0
  4  6  1  0
  6  7  1  0
  2  8  1  0
  8  9  1  0
  9  2  1  0
  7  4  1  0
  1 10  1  0
  1 11  1  0
  1 12  1  0
  3 13  1  0
  3 14  1  0
  5 15  1  0
  6 16  1  0
  6 17  1  0
  7 18  1  0
  7 19  1  0
  8 20  1  0
  8 21  1  0
  9 22  1  0
  9 23  1  0
M  END
