
     RDKit          3D

 19 19  0  0  0  0  0  0  0  0999 V2000
   -0.9921    1.6332   -0.3608 C   0  0  0  0  0  0  0  0  0  0  0  0
   -0.8063    0.1399   -0.5014 C   0  0  0  0  0  0  0  0  0  0  0  0
   -2.0180   -0.7126   -0.2213 C   0  0  0  0  0  0  0  0  0  0  0  0
   -1.5959   -2.0051    0.1519 O   0  0  0  0  0  0  0  0  0  0  0  0
    0.0017   -0.3443   -1.5238 O   0  0  0  0  0  0  0  0  0  0  0  0
    0.5442   -0.4213   -0.2620 C   0  0  0  0  0  0  0  0  0  0  0  0
    1.7237    0.4775   -0.0195 C   0  0  0  0  0  0  0  0  0  0  0  0
    2.9417   -0.3642    0.1884 C   0  0  0  0  0  0  0  0  0  0  0  0
    2.8919   -1.5825    0.1498 O   0  0  0  0  0  0  0  0  0  0  0  0
   -0.1587    2.1956   -0.8293 H   0  0  0  0  0  0  0  0  0  0  0  0
   -1.9343    1.9063   -0.8906 H   0  0  0  0  0  0  0  0  0  0  0  0
   -1.0224    1.9117    0.7114 H   0  0  0  0  0  0  0  0  0  0  0  0
   -2.6494   -0.8099   -1.1269 H   0  0  0  0  0  0  0  0  0  0  0  0
   -2.6080   -0.3347    0.6431 H   0  0  0  0  0  0  0  0  0  0  0  0
   -2.2925   -2.6629   -0.1084 H   0  0  0  0  0  0  0  0  0  0  0  0
    0.5624   -1.3864    0.2893 H   0  0  0  0  0  0  0  0  0  0  0  0
    1.5690    1.1344    0.8737 H   0  0  0  0  0  0  0  0  0  0  0  0
    1.9253    1.1573   -0.8666 H   0  0  0  0  0  0  0  0  0  0  0  0
    3.9178    0.0680    0.3814 H   0  0  0  0  0  0  0  0  0  0  0  0
  1  2  1  0
  2  3  1  0
  3  4  1  0
  2  5  1  0
  5  6  1  0
  6  7  1  0
  7  8  1  0
  8  9  2  0
  6  2  1  0
  1 10  1  0
  1 11  1  0
  1 12  1  0
  3 13  1  0
  3 14  1  0
  4 15  1  0
  6 16  1  0
  7 17  1  0
  7 18  1  0
  8 19  1  0
M  END
