
     RDKit          3D

 19 19  0  0  0  0  0  0  0  0999 V2000
    1.2879   -0.3615   -1.2060 C   0  0  0  0  0  0  0  0  0  0  0  0
    0.5177    0.2163   -0.0500 C   0  0  0  0  0  0  0  0  0  0  0  0
    1.1900    1.3689    0.5532 C   0  0  0  0  0  0  0  0  0  0  0  0
    1.2031    2.4287   -0.0295 O   0  0  0  0  0  0  0  0  0  0  0  0
    0.1079   -0.8860    0.9294 C   0  0  0  0  0  0  0  0  0  0  0  0
   -0.0809   -0.4726    2.2250 O   0  0  0  0  0  0  0  0  0  0  0  0
   -1.1852   -0.9818    0.1081 C   0  0  0  0  0  0  0  0  0  0  0  0
   -0.9309    0.4720   -0.2821 C   0  0  0  0  0  0  0  0  0  0  0  0
   -1.3301    0.7939   -1.5535 O   0  0  0  0  0  0  0  0  0  0  0  0
    2.2247   -0.8219   -0.7870 H   0  0  0  0  0  0  0  0  0  0  0  0
    1.6220    0.4369   -1.8788 H   0  0  0  0  0  0  0  0  0  0  0  0
    0.7536   -1.1557   -1.7204 H   0  0  0  0  0  0  0  0  0  0  0  0
    1.6776    1.3014    1.5083 H   0  0  0  0  0  0  0  0  0  0  0  0
    0.7282   -1.7905    0.8914 H   0  0  0  0  0  0  0  0  0  0  0  0
   -0.9293   -0.0084    2.3973 H   0  0  0  0  0  0  0  0  0  0  0  0
   -1.1136   -1.6415   -0.7691 H   0  0  0  0  0  0  0  0  0  0  0  0
   -2.0991   -1.0432    0.6978 H   0  0  0  0  0  0  0  0  0  0  0  0
   -1.3329    1.1832    0.4845 H   0  0  0  0  0  0  0  0  0  0  0  0
   -2.3111    0.9619   -1.5183 H   0  0  0  0  0  0  0  0  0  0  0  0
  1  2  1  0
  2  3  1  0
  3  4  2  0
  2  5  1  0
  5  6  1  0
  5  7  1  0
  7  8  1  0
  8  9  1  0
  8  2  1  0
  1 10  1  0
  1 11  1  0
  1 12  1  0
  3 13  1  0
  5 14  1  0
  6 15  1  0
  7 16  1  0
  7 17  1  0
  8 18  1  0
  9 19  1  0
M  END
