
     RDKit          3D

 27 27  0  0  0  0  0  0  0  0999 V2000
    1.6289   -0.3972   -1.2088 C   0  0  0  0  0  0  0  0  0  0  0  0
    0.7132    0.2575   -0.2444 C   0  0  0  0  0  0  0  0  0  0  0  0
    1.4486    0.8514    0.9207 C   0  0  0  0  0  0  0  0  0  0  0  0
   -0.1080    1.3865   -0.8688 C   0  0  0  0  0  0  0  0  0  0  0  0
   -1.1763    1.5917    0.1784 C   0  0  0  0  0  0  0  0  0  0  0  0
   -1.2398    0.3534    1.0134 C   0  0  0  0  0  0  0  0  0  0  0  0
   -0.4199   -0.6371    0.2265 C   0  0  0  0  0  0  0  0  0  0  0  0
   -1.2463   -1.0990   -0.9380 C   0  0  0  0  0  0  0  0  0  0  0  0
    0.0418   -1.8001    1.0315 C   0  0  0  0  0  0  0  0  0  0  0  0
    1.3546   -0.2975   -2.2690 H   0  0  0  0  0  0  0  0  0  0  0  0
    1.7619   -1.4764   -0.9059 H   0  0  0  0  0  0  0  0  0  0  0  0
    2.6551    0.0466   -1.0563 H   0  0  0  0  0  0  0  0  0  0  0  0
    0.7766    1.5646    1.4758 H   0  0  0  0  0  0  0  0  0  0  0  0
    2.2453    1.5210    0.4826 H   0  0  0  0  0  0  0  0  0  0  0  0
    1.9431    0.1301    1.5704 H   0  0  0  0  0  0  0  0  0  0  0  0
   -0.5652    1.0389   -1.8394 H   0  0  0  0  0  0  0  0  0  0  0  0
    0.4913    2.2973   -1.0246 H   0  0  0  0  0  0  0  0  0  0  0  0
   -2.1334    1.7730   -0.3804 H   0  0  0  0  0  0  0  0  0  0  0  0
   -0.9600    2.5136    0.7429 H   0  0  0  0  0  0  0  0  0  0  0  0
   -0.8658    0.4938    2.0458 H   0  0  0  0  0  0  0  0  0  0  0  0
   -2.2713   -0.0206    1.0578 H   0  0  0  0  0  0  0  0  0  0  0  0
   -2.0117   -0.3109   -1.1983 H   0  0  0  0  0  0  0  0  0  0  0  0
   -0.6441   -1.3990   -1.8070 H   0  0  0  0  0  0  0  0  0  0  0  0
   -1.8735   -1.9583   -0.5607 H   0  0  0  0  0  0  0  0  0  0  0  0
    0.8692   -1.5969    1.7216 H   0  0  0  0  0  0  0  0  0  0  0  0
    0.4255   -2.5732    0.3110 H   0  0  0  0  0  0  0  0  0  0  0  0
   -0.8398   -2.2529    1.5231 H   0  0  0  0  0  0  0  0  0  0  0  0
  1  2  1  0
  2  3  1  0
  2  4  1  0
  4  5  1  0
  5  6  1  0
  6  7  1  0
  7  8  1  0
  7  9  1  0
  7  2  1  0
  1 10  1  0
  1 11  1  0
  1 12  1  0
  3 13  1  0
  3 14  1  0
  3 15  1  0
  4 16  1  0
  4 17  1  0
  5 18  1  0
  5 19  1  0
  6 20  1  0
  6 21  1  0
  8 22  1  0
  8 23  1  0
  8 24  1  0
  9 25  1  0
  9 26  1  0
  9 27  1  0
M  END
