
     RDKit          3D

 19 19  0  0  0  0  0  0  0  0999 V2000
   -1.8726   -0.9266   -0.1606 C   0  0  0  0  0  0  0  0  0  0  0  0
   -0.7364    0.0642    0.0783 C   0  0  0  0  0  0  0  0  0  0  0  0
   -0.5526    0.4821    1.4764 C   0  0  0  0  0  0  0  0  0  0  0  0
   -1.1608   -0.0094    2.4052 O   0  0  0  0  0  0  0  0  0  0  0  0
   -0.4092    1.0882   -0.9527 C   0  0  0  0  0  0  0  0  0  0  0  0
   -0.0081    2.3422   -0.5068 O   0  0  0  0  0  0  0  0  0  0  0  0
    0.4178   -0.0954   -0.8695 C   0  0  0  0  0  0  0  0  0  0  0  0
    1.7396   -0.2264   -0.1870 C   0  0  0  0  0  0  0  0  0  0  0  0
    1.6458   -1.3890    0.6198 O   0  0  0  0  0  0  0  0  0  0  0  0
   -1.8209   -1.3269   -1.2017 H   0  0  0  0  0  0  0  0  0  0  0  0
   -1.6571   -1.7853    0.5269 H   0  0  0  0  0  0  0  0  0  0  0  0
   -2.8504   -0.4963    0.0688 H   0  0  0  0  0  0  0  0  0  0  0  0
    0.1496    1.2637    1.7442 H   0  0  0  0  0  0  0  0  0  0  0  0
   -1.1396    1.1535   -1.7835 H   0  0  0  0  0  0  0  0  0  0  0  0
    0.8558    2.2396   -0.0436 H   0  0  0  0  0  0  0  0  0  0  0  0
    0.3052   -0.8479   -1.7063 H   0  0  0  0  0  0  0  0  0  0  0  0
    1.9446    0.6238    0.5064 H   0  0  0  0  0  0  0  0  0  0  0  0
    2.5988   -0.4251   -0.8591 H   0  0  0  0  0  0  0  0  0  0  0  0
    2.5505   -1.7291    0.8450 H   0  0  0  0  0  0  0  0  0  0  0  0
  1  2  1  0
  2  3  1  0
  3  4  2  0
  2  5  1  0
  5  6  1  0
  5  7  1  0
  7  8  1  0
  8  9  1  0
  7  2  1  0
  1 10  1  0
  1 11  1  0
  1 12  1  0
  3 13  1  0
  5 14  1  0
  6 15  1  0
  7 16  1  0
  8 17  1  0
  8 18  1  0
  9 19  1  0
M  END
