
     RDKit          3D

 20 22  0  0  0  0  0  0  0  0999 V2000
   -1.8247   -1.2585   -0.4633 C   0  0  0  0  0  0  0  0  0  0  0  0
   -0.9542   -0.0540   -0.0688 C   0  0  0  0  0  0  0  0  0  0  0  0
   -1.8530    1.0932    0.4271 C   0  0  0  0  0  0  0  0  0  0  0  0
    0.2844   -0.2305    0.6423 C   0  0  0  0  0  0  0  0  0  0  0  0
    1.5680    0.5331    0.4832 C   0  0  0  0  0  0  0  0  0  0  0  0
    2.7611    0.1438   -0.2240 C   0  0  0  0  0  0  0  0  0  0  0  0
    1.5711   -0.4170   -0.7826 C   0  0  0  0  0  0  0  0  0  0  0  0
    0.2023    0.2011   -0.8764 C   0  0  0  0  0  0  0  0  0  0  0  0
   -2.1499   -1.7006    0.5193 H   0  0  0  0  0  0  0  0  0  0  0  0
   -2.7562   -0.8954   -0.9393 H   0  0  0  0  0  0  0  0  0  0  0  0
   -1.2943   -1.9603   -1.1020 H   0  0  0  0  0  0  0  0  0  0  0  0
   -2.1512    0.8174    1.4549 H   0  0  0  0  0  0  0  0  0  0  0  0
   -1.1748    1.9963    0.4248 H   0  0  0  0  0  0  0  0  0  0  0  0
   -2.6944    1.2717   -0.2466 H   0  0  0  0  0  0  0  0  0  0  0  0
    0.5286   -1.3206    0.8136 H   0  0  0  0  0  0  0  0  0  0  0  0
    1.2926    1.6108    0.2712 H   0  0  0  0  0  0  0  0  0  0  0  0
    3.4970   -0.4757    0.3653 H   0  0  0  0  0  0  0  0  0  0  0  0
    3.3393    0.8537   -0.8891 H   0  0  0  0  0  0  0  0  0  0  0  0
    1.4469   -1.5153   -0.5429 H   0  0  0  0  0  0  0  0  0  0  0  0
    0.3614    1.3069   -1.0634 H   0  0  0  0  0  0  0  0  0  0  0  0
  1  2  1  0
  2  3  1  0
  2  4  1  0
  4  5  1  0
  5  6  1  0
  6  7  1  0
  7  8  1  0
  8  2  1  0
  8  4  1  0
  7  5  1  0
  1  9  1  0
  1 10  1  0
  1 11  1  0
  3 12  1  0
  3 13  1  0
  3 14  1  0
  4 15  1  0
  5 16  1  0
  6 17  1  0
  6 18  1  0
  7 19  1  0
  8 20  1  0
M  END
