
     RDKit          3D

 21 22  0  0  0  0  0  0  0  0999 V2000
   -1.7451    0.9813   -0.6376 C   0  0  0  0  0  0  0  0  0  0  0  0
   -1.0258   -0.1388    0.1019 C   0  0  0  0  0  0  0  0  0  0  0  0
   -1.9104   -1.1624    0.6409 C   0  0  0  0  0  0  0  0  0  0  0  0
   -2.6263   -0.9179    1.5812 O   0  0  0  0  0  0  0  0  0  0  0  0
   -0.0000    0.4462    1.0402 C   0  0  0  0  0  0  0  0  0  0  0  0
    1.0954    0.2934    0.0475 C   0  0  0  0  0  0  0  0  0  0  0  0
    2.3886   -0.2761    0.5617 C   0  0  0  0  0  0  0  0  0  0  0  0
    0.9249    0.3655   -1.3977 C   0  0  0  0  0  0  0  0  0  0  0  0
    0.1480   -0.6781   -0.7090 C   0  0  0  0  0  0  0  0  0  0  0  0
   -1.1215    1.8954   -0.6281 H   0  0  0  0  0  0  0  0  0  0  0  0
   -2.0233    0.6437   -1.6411 H   0  0  0  0  0  0  0  0  0  0  0  0
   -2.6724    1.2046   -0.0460 H   0  0  0  0  0  0  0  0  0  0  0  0
   -1.9318   -2.1419    0.2051 H   0  0  0  0  0  0  0  0  0  0  0  0
    0.1393   -0.2612    1.9008 H   0  0  0  0  0  0  0  0  0  0  0  0
   -0.2255    1.4507    1.4110 H   0  0  0  0  0  0  0  0  0  0  0  0
    2.6850    0.3298    1.4421 H   0  0  0  0  0  0  0  0  0  0  0  0
    3.2067   -0.1814   -0.1762 H   0  0  0  0  0  0  0  0  0  0  0  0
    2.1994   -1.3318    0.8473 H   0  0  0  0  0  0  0  0  0  0  0  0
    1.7487    0.0341   -2.0312 H   0  0  0  0  0  0  0  0  0  0  0  0
    0.2993    1.1622   -1.8960 H   0  0  0  0  0  0  0  0  0  0  0  0
    0.4467   -1.7172   -0.6169 H   0  0  0  0  0  0  0  0  0  0  0  0
  1  2  1  0
  2  3  1  0
  3  4  2  0
  2  5  1  0
  5  6  1  0
  6  7  1  0
  6  8  1  0
  8  9  1  0
  9  2  1  0
  9  6  1  0
  1 10  1  0
  1 11  1  0
  1 12  1  0
  3 13  1  0
  5 14  1  0
  5 15  1  0
  7 16  1  0
  7 17  1  0
  7 18  1  0
  8 19  1  0
  8 20  1  0
  9 21  1  0
M  END
