
     RDKit          3D

 19 19  0  0  0  0  0  0  0  0999 V2000
   -1.2374   -1.0821   -0.3109 C   0  0  0  0  0  0  0  0  0  0  0  0
   -0.8207    0.3090    0.1090 C   0  0  0  0  0  0  0  0  0  0  0  0
    0.4395    0.7928   -0.5612 C   0  0  0  0  0  0  0  0  0  0  0  0
    0.1620    1.1576   -1.8736 O   0  0  0  0  0  0  0  0  0  0  0  0
    1.4539   -0.3316   -0.6104 C   0  0  0  0  0  0  0  0  0  0  0  0
    1.7935   -0.8017    0.7739 C   0  0  0  0  0  0  0  0  0  0  0  0
    2.6044   -1.7081    0.8558 O   0  0  0  0  0  0  0  0  0  0  0  0
   -1.2071    0.8572    1.3903 C   0  0  0  0  0  0  0  0  0  0  0  0
   -1.8725    1.2166    0.1852 O   0  0  0  0  0  0  0  0  0  0  0  0
   -0.9734   -1.2109   -1.3986 H   0  0  0  0  0  0  0  0  0  0  0  0
   -2.3500   -1.2163   -0.2793 H   0  0  0  0  0  0  0  0  0  0  0  0
   -0.8075   -1.8666    0.3221 H   0  0  0  0  0  0  0  0  0  0  0  0
    0.8359    1.6485    0.0147 H   0  0  0  0  0  0  0  0  0  0  0  0
   -0.4461    1.9273   -1.9288 H   0  0  0  0  0  0  0  0  0  0  0  0
    1.0532   -1.2172   -1.1386 H   0  0  0  0  0  0  0  0  0  0  0  0
    2.3848   -0.0060   -1.1131 H   0  0  0  0  0  0  0  0  0  0  0  0
    1.3707   -0.3915    1.6651 H   0  0  0  0  0  0  0  0  0  0  0  0
   -0.6299    1.7098    1.8029 H   0  0  0  0  0  0  0  0  0  0  0  0
   -1.7534    0.2132    2.0957 H   0  0  0  0  0  0  0  0  0  0  0  0
  1  2  1  0
  2  3  1  0
  3  4  1  0
  3  5  1  0
  5  6  1  0
  6  7  2  0
  2  8  1  0
  8  9  1  0
  9  2  1  0
  1 10  1  0
  1 11  1  0
  1 12  1  0
  3 13  1  0
  4 14  1  0
  5 15  1  0
  5 16  1  0
  6 17  1  0
  8 18  1  0
  8 19  1  0
M  END
