
     RDKit          3D

 19 20  0  0  0  0  0  0  0  0999 V2000
   -1.2673    1.1016    0.2969 C   0  0  0  0  0  0  0  0  0  0  0  0
   -0.8745   -0.2185   -0.2104 C   0  0  0  0  0  0  0  0  0  0  0  0
   -1.9735   -0.9817   -0.5895 O   0  0  0  0  0  0  0  0  0  0  0  0
    0.2226   -0.3301   -1.2001 C   0  0  0  0  0  0  0  0  0  0  0  0
    1.3757    0.6020   -0.9495 C   0  0  0  0  0  0  0  0  0  0  0  0
    2.1661    0.0374    0.0594 O   0  0  0  0  0  0  0  0  0  0  0  0
    1.2655   -0.2749    1.1041 C   0  0  0  0  0  0  0  0  0  0  0  0
    0.0851   -1.0473    0.5855 C   0  0  0  0  0  0  0  0  0  0  0  0
    0.5004   -1.6047   -0.6492 O   0  0  0  0  0  0  0  0  0  0  0  0
   -0.5839    1.6196    0.9545 H   0  0  0  0  0  0  0  0  0  0  0  0
   -2.2372    0.9904    0.8585 H   0  0  0  0  0  0  0  0  0  0  0  0
   -1.5529    1.7646   -0.5735 H   0  0  0  0  0  0  0  0  0  0  0  0
   -2.4063   -1.3882    0.1951 H   0  0  0  0  0  0  0  0  0  0  0  0
   -0.0823   -0.4675   -2.2428 H   0  0  0  0  0  0  0  0  0  0  0  0
    0.9365    1.5386   -0.5140 H   0  0  0  0  0  0  0  0  0  0  0  0
    1.9534    0.7994   -1.8681 H   0  0  0  0  0  0  0  0  0  0  0  0
    1.0130    0.5975    1.7056 H   0  0  0  0  0  0  0  0  0  0  0  0
    1.8351   -0.9705    1.7701 H   0  0  0  0  0  0  0  0  0  0  0  0
   -0.3756   -1.7678    1.2675 H   0  0  0  0  0  0  0  0  0  0  0  0
  1  2  1  0
  2  3  1  0
  2  4  1  0
  4  5  1  0
  5  6  1  0
  6  7  1  0
  7  8  1  0
  8  9  1  0
  8  2  1  0
  9  4  1  0
  1 10  1  0
  1 11  1  0
  1 12  1  0
  3 13  1  0
  4 14  1  0
  5 15  1  0
  5 16  1  0
  7 17  1  0
  7 18  1  0
  8 19  1  0
M  END
