
     RDKit          3D

 19 20  0  0  0  0  0  0  0  0999 V2000
    0.2210    1.4190    0.7432 C   0  0  0  0  0  0  0  0  0  0  0  0
    0.1937    0.1029    0.0464 C   0  0  0  0  0  0  0  0  0  0  0  0
    1.5275   -0.5543   -0.1681 C   0  0  0  0  0  0  0  0  0  0  0  0
    2.3400    0.2721   -0.9404 O   0  0  0  0  0  0  0  0  0  0  0  0
   -0.8356   -0.9001    0.5803 C   0  0  0  0  0  0  0  0  0  0  0  0
   -1.6112   -0.4187    1.6187 O   0  0  0  0  0  0  0  0  0  0  0  0
   -1.5244   -0.7526   -0.7872 C   0  0  0  0  0  0  0  0  0  0  0  0
   -2.0074    0.5349   -0.9836 O   0  0  0  0  0  0  0  0  0  0  0  0
   -0.5987    0.1333   -1.2182 C   0  0  0  0  0  0  0  0  0  0  0  0
   -0.5033    2.1363    0.2795 H   0  0  0  0  0  0  0  0  0  0  0  0
    0.0475    1.2622    1.8138 H   0  0  0  0  0  0  0  0  0  0  0  0
    1.2525    1.8408    0.6371 H   0  0  0  0  0  0  0  0  0  0  0  0
    1.4738   -1.5819   -0.5140 H   0  0  0  0  0  0  0  0  0  0  0  0
    2.0231   -0.5910    0.8465 H   0  0  0  0  0  0  0  0  0  0  0  0
    1.8654    0.5874   -1.7565 H   0  0  0  0  0  0  0  0  0  0  0  0
   -0.4686   -1.9248    0.6797 H   0  0  0  0  0  0  0  0  0  0  0  0
   -1.0881   -0.5284    2.4480 H   0  0  0  0  0  0  0  0  0  0  0  0
   -2.0447   -1.6195   -1.1933 H   0  0  0  0  0  0  0  0  0  0  0  0
   -0.2624    0.5824   -2.1318 H   0  0  0  0  0  0  0  0  0  0  0  0
  1  2  1  0
  2  3  1  0
  3  4  1  0
  2  5  1  0
  5  6  1  0
  5  7  1  0
  7  8  1  0
  8  9  1  0
  9  2  1  0
  9  7  1  0
  1 10  1  0
  1 11  1  0
  1 12  1  0
  3 13  1  0
  3 14  1  0
  4 15  1  0
  5 16  1  0
  6 17  1  0
  7 18  1  0
  9 19  1  0
M  END
