
     RDKit          3D

 20 20  0  0  0  0  0  0  0  0999 V2000
   -0.1035   -1.6233    0.4061 C   0  0  0  0  0  0  0  0  0  0  0  0
   -0.3953   -0.1824    0.0866 C   0  0  0  0  0  0  0  0  0  0  0  0
    0.6271    0.5317   -0.7358 C   0  0  0  0  0  0  0  0  0  0  0  0
    1.9872    0.5849   -0.1017 C   0  0  0  0  0  0  0  0  0  0  0  0
    2.5460   -0.6417    0.1470 O   0  0  0  0  0  0  0  0  0  0  0  0
   -1.7608   -0.0766   -0.5749 C   0  0  0  0  0  0  0  0  0  0  0  0
   -1.8526    1.1181    0.3344 C   0  0  0  0  0  0  0  0  0  0  0  0
   -0.8946    0.5350    1.1614 O   0  0  0  0  0  0  0  0  0  0  0  0
   -1.0138   -2.0118    0.9507 H   0  0  0  0  0  0  0  0  0  0  0  0
    0.7343   -1.7687    1.1006 H   0  0  0  0  0  0  0  0  0  0  0  0
   -0.0347   -2.2510   -0.5061 H   0  0  0  0  0  0  0  0  0  0  0  0
    0.2816    1.5823   -0.8589 H   0  0  0  0  0  0  0  0  0  0  0  0
    0.6757    0.1170   -1.7734 H   0  0  0  0  0  0  0  0  0  0  0  0
    1.9015    1.2218    0.8097 H   0  0  0  0  0  0  0  0  0  0  0  0
    2.6536    1.1448   -0.7925 H   0  0  0  0  0  0  0  0  0  0  0  0
    3.2493   -0.8433   -0.4899 H   0  0  0  0  0  0  0  0  0  0  0  0
   -1.7422    0.1325   -1.6463 H   0  0  0  0  0  0  0  0  0  0  0  0
   -2.4642   -0.8598   -0.2453 H   0  0  0  0  0  0  0  0  0  0  0  0
   -2.8090    1.2018    0.9167 H   0  0  0  0  0  0  0  0  0  0  0  0
   -1.5857    2.0887   -0.1042 H   0  0  0  0  0  0  0  0  0  0  0  0
  1  2  1  0
  2  3  1  0
  3  4  1  0
  4  5  1  0
  2  6  1  0
  6  7  1  0
  7  8  1  0
  8  2  1  0
  1  9  1  0
  1 10  1  0
  1 11  1  0
  3 12  1  0
  3 13  1  0
  4 14  1  0
  4 15  1  0
  5 16  1  0
  6 17  1  0
  6 18  1  0
  7 19  1  0
  7 20  1  0
M  END
