
     RDKit          3D

 20 21  0  0  0  0  0  0  0  0999 V2000
    1.5236   -0.8651    0.2591 C   0  0  0  0  0  0  0  0  0  0  0  0
    0.4520    0.1311    0.0457 C   0  0  0  0  0  0  0  0  0  0  0  0
    1.1203    1.4280   -0.4281 C   0  0  0  0  0  0  0  0  0  0  0  0
   -0.5358   -0.2467   -1.0399 C   0  0  0  0  0  0  0  0  0  0  0  0
   -1.8710   -0.2927   -0.2676 C   0  0  0  0  0  0  0  0  0  0  0  0
   -1.3210   -0.8258    1.0160 C   0  0  0  0  0  0  0  0  0  0  0  0
   -0.9671   -0.2870    2.1461 O   0  0  0  0  0  0  0  0  0  0  0  0
   -0.4092    0.4300    1.2089 C   0  0  0  0  0  0  0  0  0  0  0  0
    2.2779   -0.7487   -0.5600 H   0  0  0  0  0  0  0  0  0  0  0  0
    1.2093   -1.9155    0.2823 H   0  0  0  0  0  0  0  0  0  0  0  0
    2.0554   -0.6119    1.1933 H   0  0  0  0  0  0  0  0  0  0  0  0
    2.0312    1.6017    0.1828 H   0  0  0  0  0  0  0  0  0  0  0  0
    0.4341    2.2618   -0.2451 H   0  0  0  0  0  0  0  0  0  0  0  0
    1.4140    1.3169   -1.4812 H   0  0  0  0  0  0  0  0  0  0  0  0
   -0.5951    0.4758   -1.8514 H   0  0  0  0  0  0  0  0  0  0  0  0
   -0.3408   -1.2973   -1.3970 H   0  0  0  0  0  0  0  0  0  0  0  0
   -2.2049    0.7583   -0.1951 H   0  0  0  0  0  0  0  0  0  0  0  0
   -2.5870   -0.9536   -0.7500 H   0  0  0  0  0  0  0  0  0  0  0  0
   -0.7588   -1.7904    0.8035 H   0  0  0  0  0  0  0  0  0  0  0  0
   -0.9270    1.4310    1.0779 H   0  0  0  0  0  0  0  0  0  0  0  0
  1  2  1  0
  2  3  1  0
  2  4  1  0
  4  5  1  0
  5  6  1  0
  6  7  1  0
  7  8  1  0
  8  2  1  0
  8  6  1  0
  1  9  1  0
  1 10  1  0
  1 11  1  0
  3 12  1  0
  3 13  1  0
  3 14  1  0
  4 15  1  0
  4 16  1  0
  5 17  1  0
  5 18  1  0
  6 19  1  0
  8 20  1  0
M  END
