
     RDKit          3D

 21 21  0  0  0  0  0  0  0  0999 V2000
   -1.7781    0.8188   -1.2881 C   0  0  0  0  0  0  0  0  0  0  0  0
   -1.0187    0.2479   -0.0861 C   0  0  0  0  0  0  0  0  0  0  0  0
   -1.7851    0.6843    1.1571 C   0  0  0  0  0  0  0  0  0  0  0  0
   -1.0027   -1.1223   -0.1036 O   0  0  0  0  0  0  0  0  0  0  0  0
    0.3302   -1.5292    0.0776 C   0  0  0  0  0  0  0  0  0  0  0  0
    1.0549   -0.3273   -0.5298 C   0  0  0  0  0  0  0  0  0  0  0  0
    2.4753   -0.2719   -0.0310 C   0  0  0  0  0  0  0  0  0  0  0  0
    2.5850   -0.3506    1.3290 O   0  0  0  0  0  0  0  0  0  0  0  0
    0.2749    0.7130   -0.0305 O   0  0  0  0  0  0  0  0  0  0  0  0
   -2.7460    0.2964   -1.3410 H   0  0  0  0  0  0  0  0  0  0  0  0
   -1.9468    1.9137   -1.0870 H   0  0  0  0  0  0  0  0  0  0  0  0
   -1.2441    0.6613   -2.2290 H   0  0  0  0  0  0  0  0  0  0  0  0
   -2.8486    0.4425    1.0537 H   0  0  0  0  0  0  0  0  0  0  0  0
   -1.3765    0.0834    2.0096 H   0  0  0  0  0  0  0  0  0  0  0  0
   -1.6209    1.7669    1.2801 H   0  0  0  0  0  0  0  0  0  0  0  0
    0.5222   -1.5001    1.1515 H   0  0  0  0  0  0  0  0  0  0  0  0
    0.5672   -2.4649   -0.4267 H   0  0  0  0  0  0  0  0  0  0  0  0
    0.9965   -0.3148   -1.6256 H   0  0  0  0  0  0  0  0  0  0  0  0
    2.8940    0.7135   -0.3898 H   0  0  0  0  0  0  0  0  0  0  0  0
    3.0485   -1.0506   -0.5764 H   0  0  0  0  0  0  0  0  0  0  0  0
    2.6186    0.5901    1.6860 H   0  0  0  0  0  0  0  0  0  0  0  0
  1  2  1  0
  2  3  1  0
  2  4  1  0
  4  5  1  0
  5  6  1  0
  6  7  1  0
  7  8  1  0
  6  9  1  0
  9  2  1  0
  1 10  1  0
  1 11  1  0
  1 12  1  0
  3 13  1  0
  3 14  1  0
  3 15  1  0
  5 16  1  0
  5 17  1  0
  6 18  1  0
  7 19  1  0
  7 20  1  0
  8 21  1  0
M  END
