
     RDKit          3D

 23 23  0  0  0  0  0  0  0  0999 V2000
   -0.9007   -1.9411   -0.1074 C   0  0  0  0  0  0  0  0  0  0  0  0
   -0.5847   -0.5374    0.3526 C   0  0  0  0  0  0  0  0  0  0  0  0
   -0.4367   -0.4450    1.7229 O   0  0  0  0  0  0  0  0  0  0  0  0
   -1.7285    0.3611   -0.1372 C   0  0  0  0  0  0  0  0  0  0  0  0
   -1.0900    1.7047   -0.4238 C   0  0  0  0  0  0  0  0  0  0  0  0
    0.3565    1.5633   -0.0935 C   0  0  0  0  0  0  0  0  0  0  0  0
    0.5899    0.0677   -0.3458 C   0  0  0  0  0  0  0  0  0  0  0  0
    1.9055   -0.2753    0.3254 C   0  0  0  0  0  0  0  0  0  0  0  0
    2.9638    0.3035   -0.3517 O   0  0  0  0  0  0  0  0  0  0  0  0
   -1.8030   -1.9855   -0.7556 H   0  0  0  0  0  0  0  0  0  0  0  0
   -1.0612   -2.5531    0.8140 H   0  0  0  0  0  0  0  0  0  0  0  0
   -0.0684   -2.3517   -0.7104 H   0  0  0  0  0  0  0  0  0  0  0  0
    0.0871   -1.2193    2.0298 H   0  0  0  0  0  0  0  0  0  0  0  0
   -2.0885   -0.0417   -1.1135 H   0  0  0  0  0  0  0  0  0  0  0  0
   -2.5385    0.4256    0.6156 H   0  0  0  0  0  0  0  0  0  0  0  0
   -1.1679    1.9797   -1.5027 H   0  0  0  0  0  0  0  0  0  0  0  0
   -1.6161    2.4864    0.1720 H   0  0  0  0  0  0  0  0  0  0  0  0
    1.0365    2.1927   -0.6658 H   0  0  0  0  0  0  0  0  0  0  0  0
    0.4955    1.6693    1.0222 H   0  0  0  0  0  0  0  0  0  0  0  0
    0.6200   -0.1563   -1.4162 H   0  0  0  0  0  0  0  0  0  0  0  0
    2.0320   -1.3676    0.4780 H   0  0  0  0  0  0  0  0  0  0  0  0
    1.9096    0.1764    1.3555 H   0  0  0  0  0  0  0  0  0  0  0  0
    3.0878   -0.0565   -1.2646 H   0  0  0  0  0  0  0  0  0  0  0  0
  1  2  1  0
  2  3  1  0
  2  4  1  0
  4  5  1  0
  5  6  1  0
  6  7  1  0
  7  8  1  0
  8  9  1  0
  7  2  1  0
  1 10  1  0
  1 11  1  0
  1 12  1  0
  3 13  1  0
  4 14  1  0
  4 15  1  0
  5 16  1  0
  5 17  1  0
  6 18  1  0
  6 19  1  0
  7 20  1  0
  8 21  1  0
  8 22  1  0
  9 23  1  0
M  END
