
     RDKit          3D

 19 20  0  0  0  0  0  0  0  0999 V2000
   -1.8887    0.8326    0.1658 C   0  0  0  0  0  0  0  0  0  0  0  0
   -0.5703    0.1383    0.4350 C   0  0  0  0  0  0  0  0  0  0  0  0
   -0.4416    0.0165    1.8207 O   0  0  0  0  0  0  0  0  0  0  0  0
   -0.5348   -1.1961   -0.2645 C   0  0  0  0  0  0  0  0  0  0  0  0
    0.7210   -1.2543   -1.0302 C   0  0  0  0  0  0  0  0  0  0  0  0
    1.1660   -2.2186   -1.5858 O   0  0  0  0  0  0  0  0  0  0  0  0
    1.3687    0.0880   -1.0117 C   0  0  0  0  0  0  0  0  0  0  0  0
    1.9610    0.4712    0.3062 C   0  0  0  0  0  0  0  0  0  0  0  0
    0.5966    0.9238   -0.0660 C   0  0  0  0  0  0  0  0  0  0  0  0
   -1.7633    1.8956   -0.0445 H   0  0  0  0  0  0  0  0  0  0  0  0
   -2.4352    0.3123   -0.6708 H   0  0  0  0  0  0  0  0  0  0  0  0
   -2.5602    0.7300    1.0472 H   0  0  0  0  0  0  0  0  0  0  0  0
   -0.7741   -0.8451    2.1581 H   0  0  0  0  0  0  0  0  0  0  0  0
   -0.5180   -2.0242    0.4723 H   0  0  0  0  0  0  0  0  0  0  0  0
   -1.3751   -1.2527   -0.9666 H   0  0  0  0  0  0  0  0  0  0  0  0
    1.7337    0.5332   -1.9406 H   0  0  0  0  0  0  0  0  0  0  0  0
    2.0116   -0.2974    1.1211 H   0  0  0  0  0  0  0  0  0  0  0  0
    2.8332    1.1447    0.2466 H   0  0  0  0  0  0  0  0  0  0  0  0
    0.4696    2.0022   -0.1924 H   0  0  0  0  0  0  0  0  0  0  0  0
  1  2  1  0
  2  3  1  0
  2  4  1  0
  4  5  1  0
  5  6  2  0
  5  7  1  0
  7  8  1  0
  8  9  1  0
  9  2  1  0
  9  7  1  0
  1 10  1  0
  1 11  1  0
  1 12  1  0
  3 13  1  0
  4 14  1  0
  4 15  1  0
  7 16  1  0
  8 17  1  0
  8 18  1  0
  9 19  1  0
M  END
