
     RDKit          3D

 21 22  0  0  0  0  0  0  0  0999 V2000
   -1.6082    0.6037    0.7946 C   0  0  0  0  0  0  0  0  0  0  0  0
   -0.7900    0.0675   -0.3167 C   0  0  0  0  0  0  0  0  0  0  0  0
   -1.2515    0.4482   -1.5556 O   0  0  0  0  0  0  0  0  0  0  0  0
   -0.7202   -1.4700   -0.1935 C   0  0  0  0  0  0  0  0  0  0  0  0
    0.7932   -1.5634   -0.0752 C   0  0  0  0  0  0  0  0  0  0  0  0
    1.1859   -0.5133    0.9177 C   0  0  0  0  0  0  0  0  0  0  0  0
    0.6834    0.3372   -0.2075 C   0  0  0  0  0  0  0  0  0  0  0  0
    1.1823    1.6979   -0.3688 C   0  0  0  0  0  0  0  0  0  0  0  0
    1.1988   -0.6562   -1.0782 O   0  0  0  0  0  0  0  0  0  0  0  0
   -2.6796    0.6309    0.4349 H   0  0  0  0  0  0  0  0  0  0  0  0
   -1.3768    1.6362    1.0928 H   0  0  0  0  0  0  0  0  0  0  0  0
   -1.6328   -0.1056    1.6677 H   0  0  0  0  0  0  0  0  0  0  0  0
   -0.7720   -0.0864   -2.2344 H   0  0  0  0  0  0  0  0  0  0  0  0
   -1.2368   -1.8064    0.7100 H   0  0  0  0  0  0  0  0  0  0  0  0
   -1.0723   -1.8828   -1.1324 H   0  0  0  0  0  0  0  0  0  0  0  0
    1.2470   -2.5230   -0.0575 H   0  0  0  0  0  0  0  0  0  0  0  0
    2.2663   -0.4821    1.0509 H   0  0  0  0  0  0  0  0  0  0  0  0
    0.5827   -0.4780    1.8536 H   0  0  0  0  0  0  0  0  0  0  0  0
    1.6643    1.8094   -1.3664 H   0  0  0  0  0  0  0  0  0  0  0  0
    1.9721    1.9038    0.3980 H   0  0  0  0  0  0  0  0  0  0  0  0
    0.3643    2.4324   -0.3339 H   0  0  0  0  0  0  0  0  0  0  0  0
  1  2  1  0
  2  3  1  0
  2  4  1  0
  4  5  1  0
  5  6  1  0
  6  7  1  0
  7  8  1  0
  7  9  1  0
  7  2  1  0
  9  5  1  0
  1 10  1  0
  1 11  1  0
  1 12  1  0
  3 13  1  0
  4 14  1  0
  4 15  1  0
  5 16  1  0
  6 17  1  0
  6 18  1  0
  8 19  1  0
  8 20  1  0
  8 21  1  0
M  END
