
     RDKit          3D

 17 18  0  0  0  0  0  0  0  0999 V2000
    0.2363    1.0161   -1.1040 C   0  0  0  0  0  0  0  0  0  0  0  0
    0.5443    0.1676    0.1073 C   0  0  0  0  0  0  0  0  0  0  0  0
    1.9115    0.3112    0.6434 C   0  0  0  0  0  0  0  0  0  0  0  0
    2.1110    0.6179    1.8173 O   0  0  0  0  0  0  0  0  0  0  0  0
    0.0807   -1.2613    0.0250 C   0  0  0  0  0  0  0  0  0  0  0  0
   -1.2921   -1.1190   -0.5216 C   0  0  0  0  0  0  0  0  0  0  0  0
   -1.7623   -0.1080    0.2513 C   0  0  0  0  0  0  0  0  0  0  0  0
   -0.5633    0.1572    1.1026 C   0  0  0  0  0  0  0  0  0  0  0  0
   -0.1683   -1.1620    1.4075 O   0  0  0  0  0  0  0  0  0  0  0  0
   -0.7716    1.4850   -1.0369 H   0  0  0  0  0  0  0  0  0  0  0  0
    0.3590    0.3932   -2.0067 H   0  0  0  0  0  0  0  0  0  0  0  0
    0.9913    1.8288   -1.1303 H   0  0  0  0  0  0  0  0  0  0  0  0
    2.7410    0.1375   -0.0323 H   0  0  0  0  0  0  0  0  0  0  0  0
    0.7228   -2.0174   -0.3269 H   0  0  0  0  0  0  0  0  0  0  0  0
   -1.7776   -1.6683   -1.3131 H   0  0  0  0  0  0  0  0  0  0  0  0
   -2.7402    0.3580    0.2342 H   0  0  0  0  0  0  0  0  0  0  0  0
   -0.6224    0.8635    1.8831 H   0  0  0  0  0  0  0  0  0  0  0  0
  1  2  1  0
  2  3  1  0
  3  4  2  0
  2  5  1  0
  5  6  1  0
  6  7  2  0
  7  8  1  0
  8  9  1  0
  8  2  1  0
  9  5  1  0
  1 10  1  0
  1 11  1  0
  1 12  1  0
  3 13  1  0
  5 14  1  0
  6 15  1  0
  7 16  1  0
  8 17  1  0
M  END
