
     RDKit          3D

 16 16  0  0  0  0  0  0  0  0999 V2000
    0.3564    1.8890   -0.2432 C   0  0  0  0  0  0  0  0  0  0  0  0
   -0.2932    0.5400   -0.2874 C   0  0  0  0  0  0  0  0  0  0  0  0
    0.5897   -0.6224   -0.1323 C   0  0  0  0  0  0  0  0  0  0  0  0
    1.3132   -1.5906    0.0153 C   0  0  0  0  0  0  0  0  0  0  0  0
    2.1642   -2.7333    0.1644 C   0  0  0  0  0  0  0  0  0  0  0  0
    3.0580   -2.8211    1.0361 O   0  0  0  0  0  0  0  0  0  0  0  0
   -1.6421    0.4412    0.4929 C   0  0  0  0  0  0  0  0  0  0  0  0
   -1.5854    0.3404   -0.9801 C   0  0  0  0  0  0  0  0  0  0  0  0
    0.2591    2.2747    0.8097 H   0  0  0  0  0  0  0  0  0  0  0  0
    1.4445    1.7523   -0.4225 H   0  0  0  0  0  0  0  0  0  0  0  0
   -0.1056    2.6436   -0.8858 H   0  0  0  0  0  0  0  0  0  0  0  0
    2.0165   -3.5592   -0.5201 H   0  0  0  0  0  0  0  0  0  0  0  0
   -1.9716    1.3754    1.0013 H   0  0  0  0  0  0  0  0  0  0  0  0
   -1.7673   -0.4965    1.0956 H   0  0  0  0  0  0  0  0  0  0  0  0
   -1.9808    1.2080   -1.5359 H   0  0  0  0  0  0  0  0  0  0  0  0
   -1.8557   -0.6415   -1.4094 H   0  0  0  0  0  0  0  0  0  0  0  0
  1  2  1  0
  2  3  1  0
  3  4  3  0
  4  5  1  0
  5  6  2  0
  2  7  1  0
  7  8  1  0
  8  2  1  0
  1  9  1  0
  1 10  1  0
  1 11  1  0
  5 12  1  0
  7 13  1  0
  7 14  1  0
  8 15  1  0
  8 16  1  0
M  END
