
     RDKit          3D

 19 19  0  0  0  0  0  0  0  0999 V2000
   -1.3930   -1.1421    0.6723 C   0  0  0  0  0  0  0  0  0  0  0  0
   -0.2753   -0.5458   -0.1192 C   0  0  0  0  0  0  0  0  0  0  0  0
   -0.4656   -0.9492   -1.4585 O   0  0  0  0  0  0  0  0  0  0  0  0
    1.0461   -0.9968    0.4156 C   0  0  0  0  0  0  0  0  0  0  0  0
    1.9699    0.0074   -0.3085 C   0  0  0  0  0  0  0  0  0  0  0  0
    1.0933    1.2339   -0.2206 C   0  0  0  0  0  0  0  0  0  0  0  0
   -0.1768    0.8991   -0.1125 C   0  0  0  0  0  0  0  0  0  0  0  0
   -1.2526    1.9106   -0.0074 C   0  0  0  0  0  0  0  0  0  0  0  0
   -0.9664    3.1287   -0.0196 O   0  0  0  0  0  0  0  0  0  0  0  0
   -1.2186   -1.1376    1.7662 H   0  0  0  0  0  0  0  0  0  0  0  0
   -2.3634   -0.7251    0.3719 H   0  0  0  0  0  0  0  0  0  0  0  0
   -1.4187   -2.2313    0.3897 H   0  0  0  0  0  0  0  0  0  0  0  0
   -1.2224   -0.4061   -1.8026 H   0  0  0  0  0  0  0  0  0  0  0  0
    1.3117   -2.0292    0.1717 H   0  0  0  0  0  0  0  0  0  0  0  0
    1.1048   -0.7395    1.4714 H   0  0  0  0  0  0  0  0  0  0  0  0
    2.8571    0.2259    0.2884 H   0  0  0  0  0  0  0  0  0  0  0  0
    2.1310   -0.3194   -1.3289 H   0  0  0  0  0  0  0  0  0  0  0  0
    1.5109    2.2556   -0.2479 H   0  0  0  0  0  0  0  0  0  0  0  0
   -2.2721    1.5609    0.0785 H   0  0  0  0  0  0  0  0  0  0  0  0
  1  2  1  0
  2  3  1  0
  2  4  1  0
  4  5  1  0
  5  6  1  0
  6  7  2  0
  7  8  1  0
  8  9  2  0
  7  2  1  0
  1 10  1  0
  1 11  1  0
  1 12  1  0
  3 13  1  0
  4 14  1  0
  4 15  1  0
  5 16  1  0
  5 17  1  0
  6 18  1  0
  8 19  1  0
M  END
