
     RDKit          3D

 21 22  0  0  0  0  0  0  0  0999 V2000
   -1.8105   -1.0170   -0.5890 C   0  0  0  0  0  0  0  0  0  0  0  0
   -1.1068    0.1559    0.0498 C   0  0  0  0  0  0  0  0  0  0  0  0
   -1.9621    1.2479    0.5240 C   0  0  0  0  0  0  0  0  0  0  0  0
   -2.3315    1.2598    1.7046 O   0  0  0  0  0  0  0  0  0  0  0  0
   -0.0601   -0.2427    1.0938 C   0  0  0  0  0  0  0  0  0  0  0  0
    0.9775   -0.0183    0.0702 C   0  0  0  0  0  0  0  0  0  0  0  0
    2.3093    0.5166    0.3070 C   0  0  0  0  0  0  0  0  0  0  0  0
    2.0819   -0.8801   -0.2501 C   0  0  0  0  0  0  0  0  0  0  0  0
    0.0286    0.6038   -0.8779 C   0  0  0  0  0  0  0  0  0  0  0  0
   -2.3489   -0.6126   -1.4799 H   0  0  0  0  0  0  0  0  0  0  0  0
   -1.0333   -1.6992   -0.9911 H   0  0  0  0  0  0  0  0  0  0  0  0
   -2.5459   -1.4933    0.0559 H   0  0  0  0  0  0  0  0  0  0  0  0
   -2.2592    2.0223   -0.1502 H   0  0  0  0  0  0  0  0  0  0  0  0
    0.0303    0.4574    1.9403 H   0  0  0  0  0  0  0  0  0  0  0  0
   -0.1306   -1.3214    1.3694 H   0  0  0  0  0  0  0  0  0  0  0  0
    2.6880    1.2430   -0.4685 H   0  0  0  0  0  0  0  0  0  0  0  0
    2.7433    0.6389    1.3089 H   0  0  0  0  0  0  0  0  0  0  0  0
    2.3517   -1.1015   -1.2916 H   0  0  0  0  0  0  0  0  0  0  0  0
    2.3642   -1.6788    0.4878 H   0  0  0  0  0  0  0  0  0  0  0  0
    0.0380    1.7169   -0.9219 H   0  0  0  0  0  0  0  0  0  0  0  0
   -0.0239    0.2021   -1.8913 H   0  0  0  0  0  0  0  0  0  0  0  0
  1  2  1  0
  2  3  1  0
  3  4  2  0
  2  5  1  0
  5  6  1  0
  6  7  1  0
  7  8  1  0
  6  9  1  0
  9  2  1  0
  8  6  1  0
  1 10  1  0
  1 11  1  0
  1 12  1  0
  3 13  1  0
  5 14  1  0
  5 15  1  0
  7 16  1  0
  7 17  1  0
  8 18  1  0
  8 19  1  0
  9 20  1  0
  9 21  1  0
M  END
