
     RDKit          3D

 23 24  0  0  0  0  0  0  0  0999 V2000
    1.5290    0.7225    1.1264 C   0  0  0  0  0  0  0  0  0  0  0  0
    0.6460    0.0306    0.0755 C   0  0  0  0  0  0  0  0  0  0  0  0
    1.6216   -0.5545   -0.9375 C   0  0  0  0  0  0  0  0  0  0  0  0
   -0.2270    1.0633   -0.5146 C   0  0  0  0  0  0  0  0  0  0  0  0
   -1.6058    0.6206   -0.9389 C   0  0  0  0  0  0  0  0  0  0  0  0
   -1.9998   -0.6903   -0.4017 C   0  0  0  0  0  0  0  0  0  0  0  0
   -2.6146   -1.0752    0.6946 O   0  0  0  0  0  0  0  0  0  0  0  0
   -1.4337   -0.6270    1.0395 C   0  0  0  0  0  0  0  0  0  0  0  0
   -0.0577   -1.0824    0.8165 C   0  0  0  0  0  0  0  0  0  0  0  0
    1.0281    1.6600    1.4854 H   0  0  0  0  0  0  0  0  0  0  0  0
    1.7613    0.0398    1.9549 H   0  0  0  0  0  0  0  0  0  0  0  0
    2.4886    1.0560    0.6823 H   0  0  0  0  0  0  0  0  0  0  0  0
    1.9366   -1.5593   -0.6005 H   0  0  0  0  0  0  0  0  0  0  0  0
    1.1153   -0.5642   -1.9285 H   0  0  0  0  0  0  0  0  0  0  0  0
    2.5067    0.0975   -1.0176 H   0  0  0  0  0  0  0  0  0  0  0  0
    0.3273    1.4744   -1.4114 H   0  0  0  0  0  0  0  0  0  0  0  0
   -0.3652    1.9438    0.1491 H   0  0  0  0  0  0  0  0  0  0  0  0
   -1.6518    0.6021   -2.0488 H   0  0  0  0  0  0  0  0  0  0  0  0
   -2.3980    1.3685   -0.6367 H   0  0  0  0  0  0  0  0  0  0  0  0
   -1.6601   -1.5459   -1.0498 H   0  0  0  0  0  0  0  0  0  0  0  0
   -1.4693    0.3822    1.5495 H   0  0  0  0  0  0  0  0  0  0  0  0
    0.4922   -1.3696    1.7511 H   0  0  0  0  0  0  0  0  0  0  0  0
    0.0302   -1.9932    0.1612 H   0  0  0  0  0  0  0  0  0  0  0  0
  1  2  1  0
  2  3  1  0
  2  4  1  0
  4  5  1  0
  5  6  1  0
  6  7  1  0
  7  8  1  0
  8  9  1  0
  9  2  1  0
  8  6  1  0
  1 10  1  0
  1 11  1  0
  1 12  1  0
  3 13  1  0
  3 14  1  0
  3 15  1  0
  4 16  1  0
  4 17  1  0
  5 18  1  0
  5 19  1  0
  6 20  1  0
  8 21  1  0
  9 22  1  0
  9 23  1  0
M  END
