
     RDKit          3D

 23 23  0  0  0  0  0  0  0  0999 V2000
   -1.1892   -0.6217   -1.3385 C   0  0  0  0  0  0  0  0  0  0  0  0
   -0.7219   -0.0879   -0.0268 C   0  0  0  0  0  0  0  0  0  0  0  0
   -1.4574    1.1962    0.3138 C   0  0  0  0  0  0  0  0  0  0  0  0
   -0.7920   -1.0385    1.1462 C   0  0  0  0  0  0  0  0  0  0  0  0
    0.6236   -0.7034    1.4526 C   0  0  0  0  0  0  0  0  0  0  0  0
    1.3485   -0.9173    2.3953 O   0  0  0  0  0  0  0  0  0  0  0  0
    0.7710   -0.0207    0.1637 C   0  0  0  0  0  0  0  0  0  0  0  0
    1.3249    1.3905    0.2187 C   0  0  0  0  0  0  0  0  0  0  0  0
    1.5953   -0.8279   -0.7947 C   0  0  0  0  0  0  0  0  0  0  0  0
   -2.2976   -0.4874   -1.3791 H   0  0  0  0  0  0  0  0  0  0  0  0
   -0.7919    0.0704   -2.1349 H   0  0  0  0  0  0  0  0  0  0  0  0
   -0.9260   -1.6628   -1.5427 H   0  0  0  0  0  0  0  0  0  0  0  0
   -1.5049    1.8133   -0.5943 H   0  0  0  0  0  0  0  0  0  0  0  0
   -1.0602    1.6992    1.1924 H   0  0  0  0  0  0  0  0  0  0  0  0
   -2.5191    0.9135    0.5646 H   0  0  0  0  0  0  0  0  0  0  0  0
   -0.9797   -2.0976    0.8912 H   0  0  0  0  0  0  0  0  0  0  0  0
   -1.4743   -0.7379    1.9653 H   0  0  0  0  0  0  0  0  0  0  0  0
    2.4309    1.2898    0.3122 H   0  0  0  0  0  0  0  0  0  0  0  0
    1.0792    1.8572   -0.7725 H   0  0  0  0  0  0  0  0  0  0  0  0
    0.9618    1.9706    1.0637 H   0  0  0  0  0  0  0  0  0  0  0  0
    1.0891   -1.6890   -1.2270 H   0  0  0  0  0  0  0  0  0  0  0  0
    2.5326   -1.1213   -0.2356 H   0  0  0  0  0  0  0  0  0  0  0  0
    1.9573   -0.1872   -1.6335 H   0  0  0  0  0  0  0  0  0  0  0  0
  1  2  1  0
  2  3  1  0
  2  4  1  0
  4  5  1  0
  5  6  2  0
  5  7  1  0
  7  8  1  0
  7  9  1  0
  7  2  1  0
  1 10  1  0
  1 11  1  0
  1 12  1  0
  3 13  1  0
  3 14  1  0
  3 15  1  0
  4 16  1  0
  4 17  1  0
  8 18  1  0
  8 19  1  0
  8 20  1  0
  9 21  1  0
  9 22  1  0
  9 23  1  0
M  END
