
     RDKit          3D

 21 21  0  0  0  0  0  0  0  0999 V2000
   -0.8624   -1.5262   -0.6584 C   0  0  0  0  0  0  0  0  0  0  0  0
   -0.6191   -0.4614    0.3531 C   0  0  0  0  0  0  0  0  0  0  0  0
   -1.2406   -0.6810    1.5714 O   0  0  0  0  0  0  0  0  0  0  0  0
   -1.1419    0.8943   -0.1470 C   0  0  0  0  0  0  0  0  0  0  0  0
   -0.3066    1.8020    0.7542 C   0  0  0  0  0  0  0  0  0  0  0  0
    0.9159    1.2062    0.9103 O   0  0  0  0  0  0  0  0  0  0  0  0
    0.8459   -0.1046    0.5149 C   0  0  0  0  0  0  0  0  0  0  0  0
    1.5293   -0.2309   -0.8256 C   0  0  0  0  0  0  0  0  0  0  0  0
    2.8598    0.1660   -0.6925 O   0  0  0  0  0  0  0  0  0  0  0  0
   -0.8790   -1.0779   -1.6734 H   0  0  0  0  0  0  0  0  0  0  0  0
   -0.1536   -2.3679   -0.6051 H   0  0  0  0  0  0  0  0  0  0  0  0
   -1.8744   -1.9759   -0.4473 H   0  0  0  0  0  0  0  0  0  0  0  0
   -2.1288   -0.2529    1.5731 H   0  0  0  0  0  0  0  0  0  0  0  0
   -2.2080    0.9820    0.0517 H   0  0  0  0  0  0  0  0  0  0  0  0
   -0.8580    0.9912   -1.2015 H   0  0  0  0  0  0  0  0  0  0  0  0
   -0.8270    1.7887    1.7467 H   0  0  0  0  0  0  0  0  0  0  0  0
   -0.2844    2.8104    0.3255 H   0  0  0  0  0  0  0  0  0  0  0  0
    1.3622   -0.7926    1.2111 H   0  0  0  0  0  0  0  0  0  0  0  0
    1.0708    0.4411   -1.5804 H   0  0  0  0  0  0  0  0  0  0  0  0
    1.4876   -1.2594   -1.2256 H   0  0  0  0  0  0  0  0  0  0  0  0
    3.3122   -0.3513    0.0448 H   0  0  0  0  0  0  0  0  0  0  0  0
  1  2  1  0
  2  3  1  0
  2  4  1  0
  4  5  1  0
  5  6  1  0
  6  7  1  0
  7  8  1  0
  8  9  1  0
  7  2  1  0
  1 10  1  0
  1 11  1  0
  1 12  1  0
  3 13  1  0
  4 14  1  0
  4 15  1  0
  5 16  1  0
  5 17  1  0
  7 18  1  0
  8 19  1  0
  8 20  1  0
  9 21  1  0
M  END
