
     RDKit          3D

 17 18  0  0  0  0  0  0  0  0999 V2000
    1.0628   -0.9962    0.9413 C   0  0  0  0  0  0  0  0  0  0  0  0
    0.4548    0.0143   -0.0254 C   0  0  0  0  0  0  0  0  0  0  0  0
    1.6071    0.5133   -0.8317 C   0  0  0  0  0  0  0  0  0  0  0  0
    2.2429   -0.2675   -1.4909 O   0  0  0  0  0  0  0  0  0  0  0  0
   -0.2153    1.1181    0.6724 C   0  0  0  0  0  0  0  0  0  0  0  0
   -1.4996    1.1084    0.3940 C   0  0  0  0  0  0  0  0  0  0  0  0
   -1.8657    0.0074   -0.5206 C   0  0  0  0  0  0  0  0  0  0  0  0
   -1.3183    0.0047   -1.8025 O   0  0  0  0  0  0  0  0  0  0  0  0
   -0.5749   -0.6576   -0.8637 C   0  0  0  0  0  0  0  0  0  0  0  0
    1.8826   -0.5142    1.5008 H   0  0  0  0  0  0  0  0  0  0  0  0
    0.2921   -1.4435    1.5679 H   0  0  0  0  0  0  0  0  0  0  0  0
    1.5158   -1.7818    0.2997 H   0  0  0  0  0  0  0  0  0  0  0  0
    1.8427    1.5552   -0.8057 H   0  0  0  0  0  0  0  0  0  0  0  0
    0.2197    1.8760    1.3402 H   0  0  0  0  0  0  0  0  0  0  0  0
   -2.2630    1.8338    0.7846 H   0  0  0  0  0  0  0  0  0  0  0  0
   -2.7819   -0.5904   -0.3257 H   0  0  0  0  0  0  0  0  0  0  0  0
   -0.6019   -1.7800   -0.8347 H   0  0  0  0  0  0  0  0  0  0  0  0
  1  2  1  0
  2  3  1  0
  3  4  2  0
  2  5  1  0
  5  6  2  0
  6  7  1  0
  7  8  1  0
  8  9  1  0
  9  2  1  0
  9  7  1  0
  1 10  1  0
  1 11  1  0
  1 12  1  0
  3 13  1  0
  5 14  1  0
  6 15  1  0
  7 16  1  0
  9 17  1  0
M  END
