
     RDKit          3D

 23 24  0  0  0  0  0  0  0  0999 V2000
    2.3697   -0.1872    0.5486 C   0  0  0  0  0  0  0  0  0  0  0  0
    1.0368   -0.1269   -0.2119 C   0  0  0  0  0  0  0  0  0  0  0  0
    1.3787   -0.1892   -1.5570 O   0  0  0  0  0  0  0  0  0  0  0  0
    0.1061   -1.2247    0.2162 C   0  0  0  0  0  0  0  0  0  0  0  0
   -1.3356   -0.8565    0.0164 C   0  0  0  0  0  0  0  0  0  0  0  0
   -1.5163    0.1183   -1.1369 C   0  0  0  0  0  0  0  0  0  0  0  0
   -1.1001    1.1936   -0.1736 C   0  0  0  0  0  0  0  0  0  0  0  0
   -1.7476    0.3223    0.9128 C   0  0  0  0  0  0  0  0  0  0  0  0
    0.3787    1.1867    0.1213 C   0  0  0  0  0  0  0  0  0  0  0  0
    2.9078   -1.0781    0.2193 H   0  0  0  0  0  0  0  0  0  0  0  0
    2.9545    0.6917    0.1487 H   0  0  0  0  0  0  0  0  0  0  0  0
    2.2454   -0.0623    1.6192 H   0  0  0  0  0  0  0  0  0  0  0  0
    1.5886   -1.0867   -1.8531 H   0  0  0  0  0  0  0  0  0  0  0  0
    0.2510   -1.3474    1.3262 H   0  0  0  0  0  0  0  0  0  0  0  0
    0.2887   -2.1823   -0.2708 H   0  0  0  0  0  0  0  0  0  0  0  0
   -2.0412   -1.6796    0.0661 H   0  0  0  0  0  0  0  0  0  0  0  0
   -0.9092   -0.0466   -2.0135 H   0  0  0  0  0  0  0  0  0  0  0  0
   -2.5831    0.2070   -1.3715 H   0  0  0  0  0  0  0  0  0  0  0  0
   -1.5431    2.1747   -0.3058 H   0  0  0  0  0  0  0  0  0  0  0  0
   -2.8352    0.4637    0.8582 H   0  0  0  0  0  0  0  0  0  0  0  0
   -1.2630    0.3546    1.8822 H   0  0  0  0  0  0  0  0  0  0  0  0
    0.9117    2.0620   -0.2856 H   0  0  0  0  0  0  0  0  0  0  0  0
    0.4569    1.2928    1.2445 H   0  0  0  0  0  0  0  0  0  0  0  0
  1  2  1  0
  2  3  1  0
  2  4  1  0
  4  5  1  0
  5  6  1  0
  6  7  1  0
  7  8  1  0
  7  9  1  0
  9  2  1  0
  8  5  1  0
  1 10  1  0
  1 11  1  0
  1 12  1  0
  3 13  1  0
  4 14  1  0
  4 15  1  0
  5 16  1  0
  6 17  1  0
  6 18  1  0
  7 19  1  0
  8 20  1  0
  8 21  1  0
  9 22  1  0
  9 23  1  0
M  END
