
     RDKit          3D

 21 23  0  0  0  0  0  0  0  0999 V2000
   -1.9826   -1.1485   -0.4075 C   0  0  0  0  0  0  0  0  0  0  0  0
   -1.1053    0.0073    0.0375 C   0  0  0  0  0  0  0  0  0  0  0  0
   -1.8366    0.9689    0.9869 C   0  0  0  0  0  0  0  0  0  0  0  0
   -0.6389    0.7322   -1.2012 O   0  0  0  0  0  0  0  0  0  0  0  0
    0.1735    0.1492   -0.2768 C   0  0  0  0  0  0  0  0  0  0  0  0
    1.2973   -0.7410   -0.6683 C   0  0  0  0  0  0  0  0  0  0  0  0
    1.7896   -0.5610    0.7380 C   0  0  0  0  0  0  0  0  0  0  0  0
    1.3494    0.8220    0.3282 C   0  0  0  0  0  0  0  0  0  0  0  0
    2.0447    0.5432   -0.9773 C   0  0  0  0  0  0  0  0  0  0  0  0
   -2.5298   -1.5415    0.4566 H   0  0  0  0  0  0  0  0  0  0  0  0
   -2.7235   -0.7763   -1.1476 H   0  0  0  0  0  0  0  0  0  0  0  0
   -1.3344   -1.9492   -0.8009 H   0  0  0  0  0  0  0  0  0  0  0  0
   -1.7195    2.0231    0.6522 H   0  0  0  0  0  0  0  0  0  0  0  0
   -2.8856    0.7057    1.1193 H   0  0  0  0  0  0  0  0  0  0  0  0
   -1.2960    0.8640    1.9728 H   0  0  0  0  0  0  0  0  0  0  0  0
    1.2956   -1.5716   -1.2210 H   0  0  0  0  0  0  0  0  0  0  0  0
    1.1283   -1.0927    1.4423 H   0  0  0  0  0  0  0  0  0  0  0  0
    2.8643   -0.6314    0.9001 H   0  0  0  0  0  0  0  0  0  0  0  0
    1.3984    1.6564    0.8757 H   0  0  0  0  0  0  0  0  0  0  0  0
    3.1311    0.4874   -0.9622 H   0  0  0  0  0  0  0  0  0  0  0  0
    1.5800    1.0540   -1.8466 H   0  0  0  0  0  0  0  0  0  0  0  0
  1  2  1  0
  2  3  1  0
  2  4  1  0
  4  5  1  0
  5  6  1  0
  6  7  1  0
  7  8  1  0
  8  9  1  0
  5  2  1  0
  9  6  1  0
  8  5  1  0
  1 10  1  0
  1 11  1  0
  1 12  1  0
  3 13  1  0
  3 14  1  0
  3 15  1  0
  6 16  1  0
  7 17  1  0
  7 18  1  0
  8 19  1  0
  9 20  1  0
  9 21  1  0
M  END
