
     RDKit          3D

 19 20  0  0  0  0  0  0  0  0999 V2000
   -1.4196    0.9049   -0.8080 C   0  0  0  0  0  0  0  0  0  0  0  0
   -1.1429    0.0399    0.4007 C   0  0  0  0  0  0  0  0  0  0  0  0
   -2.2032   -0.6590    0.9220 O   0  0  0  0  0  0  0  0  0  0  0  0
   -0.0736    0.5868    1.3130 C   0  0  0  0  0  0  0  0  0  0  0  0
    0.2098   -0.6169    0.5308 C   0  0  0  0  0  0  0  0  0  0  0  0
    0.2742   -1.8266    1.2205 O   0  0  0  0  0  0  0  0  0  0  0  0
    1.0230   -0.5942   -0.7309 C   0  0  0  0  0  0  0  0  0  0  0  0
    1.9712    0.4047   -1.0898 C   0  0  0  0  0  0  0  0  0  0  0  0
    2.4655   -0.8293   -0.5135 O   0  0  0  0  0  0  0  0  0  0  0  0
   -0.9101    1.8823   -0.7520 H   0  0  0  0  0  0  0  0  0  0  0  0
   -1.1555    0.3580   -1.7500 H   0  0  0  0  0  0  0  0  0  0  0  0
   -2.5118    1.0943   -0.8385 H   0  0  0  0  0  0  0  0  0  0  0  0
   -2.1886   -1.5752    0.5029 H   0  0  0  0  0  0  0  0  0  0  0  0
   -0.3213    0.4428    2.3951 H   0  0  0  0  0  0  0  0  0  0  0  0
    0.3750    1.5763    1.1138 H   0  0  0  0  0  0  0  0  0  0  0  0
    0.4626   -1.6856    2.1921 H   0  0  0  0  0  0  0  0  0  0  0  0
    0.6737   -1.3103   -1.5040 H   0  0  0  0  0  0  0  0  0  0  0  0
    2.2191    0.5585   -2.1610 H   0  0  0  0  0  0  0  0  0  0  0  0
    2.2526    1.2489   -0.4431 H   0  0  0  0  0  0  0  0  0  0  0  0
  1  2  1  0
  2  3  1  0
  2  4  1  0
  4  5  1  0
  5  6  1  0
  5  7  1  0
  7  8  1  0
  8  9  1  0
  5  2  1  0
  9  7  1  0
  1 10  1  0
  1 11  1  0
  1 12  1  0
  3 13  1  0
  4 14  1  0
  4 15  1  0
  6 16  1  0
  7 17  1  0
  8 18  1  0
  8 19  1  0
M  END
