
     RDKit          3D

 20 21  0  0  0  0  0  0  0  0999 V2000
    1.5910    0.1102    1.1627 C   0  0  0  0  0  0  0  0  0  0  0  0
    0.7271    0.1040   -0.1020 C   0  0  0  0  0  0  0  0  0  0  0  0
    1.3721   -0.4343   -1.3479 C   0  0  0  0  0  0  0  0  0  0  0  0
   -0.1376    1.3722   -0.2264 C   0  0  0  0  0  0  0  0  0  0  0  0
   -0.6758    0.0610    0.0488 C   0  0  0  0  0  0  0  0  0  0  0  0
   -1.4877   -0.3753    1.1844 C   0  0  0  0  0  0  0  0  0  0  0  0
   -2.6163   -0.2686    0.3471 O   0  0  0  0  0  0  0  0  0  0  0  0
   -1.7496   -0.5034   -0.7507 C   0  0  0  0  0  0  0  0  0  0  0  0
    2.3426    0.9293    1.1053 H   0  0  0  0  0  0  0  0  0  0  0  0
    2.0338   -0.8789    1.3546 H   0  0  0  0  0  0  0  0  0  0  0  0
    0.9283    0.3252    2.0429 H   0  0  0  0  0  0  0  0  0  0  0  0
    2.4168   -0.1095   -1.4313 H   0  0  0  0  0  0  0  0  0  0  0  0
    0.8179   -0.0207   -2.2117 H   0  0  0  0  0  0  0  0  0  0  0  0
    1.2659   -1.5393   -1.3218 H   0  0  0  0  0  0  0  0  0  0  0  0
   -0.0443    2.1487    0.5304 H   0  0  0  0  0  0  0  0  0  0  0  0
   -0.2130    1.7408   -1.2880 H   0  0  0  0  0  0  0  0  0  0  0  0
   -1.3041   -1.4627    1.4241 H   0  0  0  0  0  0  0  0  0  0  0  0
   -1.5126    0.2292    2.0887 H   0  0  0  0  0  0  0  0  0  0  0  0
   -2.0995    0.1409   -1.6062 H   0  0  0  0  0  0  0  0  0  0  0  0
   -1.6551   -1.5685   -1.0029 H   0  0  0  0  0  0  0  0  0  0  0  0
  1  2  1  0
  2  3  1  0
  2  4  1  0
  4  5  1  0
  5  6  1  0
  6  7  1  0
  7  8  1  0
  5  2  1  0
  8  5  1  0
  1  9  1  0
  1 10  1  0
  1 11  1  0
  3 12  1  0
  3 13  1  0
  3 14  1  0
  4 15  1  0
  4 16  1  0
  6 17  1  0
  6 18  1  0
  8 19  1  0
  8 20  1  0
M  END
