
     RDKit          3D

 19 20  0  0  0  0  0  0  0  0999 V2000
    2.1625   -0.4692    0.1268 C   0  0  0  0  0  0  0  0  0  0  0  0
    0.8754    0.0766   -0.5142 C   0  0  0  0  0  0  0  0  0  0  0  0
    1.2155    0.7389   -1.7173 O   0  0  0  0  0  0  0  0  0  0  0  0
   -0.3071   -0.6831   -0.5321 C   0  0  0  0  0  0  0  0  0  0  0  0
   -1.7551   -0.3933   -0.6285 C   0  0  0  0  0  0  0  0  0  0  0  0
   -2.1260   -0.1522    0.6968 O   0  0  0  0  0  0  0  0  0  0  0  0
   -0.9313    0.0412    1.4410 C   0  0  0  0  0  0  0  0  0  0  0  0
   -0.0776    0.6089    0.3618 C   0  0  0  0  0  0  0  0  0  0  0  0
   -0.6955    1.7892   -0.1305 O   0  0  0  0  0  0  0  0  0  0  0  0
    2.9086    0.3613    0.1775 H   0  0  0  0  0  0  0  0  0  0  0  0
    1.9537   -0.8348    1.1361 H   0  0  0  0  0  0  0  0  0  0  0  0
    2.6102   -1.2473   -0.5262 H   0  0  0  0  0  0  0  0  0  0  0  0
    2.0982    1.1357   -1.6915 H   0  0  0  0  0  0  0  0  0  0  0  0
   -0.1922   -1.6749    0.0101 H   0  0  0  0  0  0  0  0  0  0  0  0
   -2.3201   -1.3114   -0.9461 H   0  0  0  0  0  0  0  0  0  0  0  0
   -2.0427    0.4046   -1.3226 H   0  0  0  0  0  0  0  0  0  0  0  0
   -1.1032    0.7340    2.2636 H   0  0  0  0  0  0  0  0  0  0  0  0
   -0.6344   -0.9808    1.7523 H   0  0  0  0  0  0  0  0  0  0  0  0
   -1.6390    1.8565    0.0432 H   0  0  0  0  0  0  0  0  0  0  0  0
  1  2  1  0
  2  3  1  0
  2  4  1  0
  4  5  1  0
  5  6  1  0
  6  7  1  0
  7  8  1  0
  8  9  1  0
  8  2  1  0
  8  4  1  0
  1 10  1  0
  1 11  1  0
  1 12  1  0
  3 13  1  0
  4 14  1  0
  5 15  1  0
  5 16  1  0
  7 17  1  0
  7 18  1  0
  9 19  1  0
M  END
