
     RDKit          3D

 15 16  0  0  0  0  0  0  0  0999 V2000
    1.6395    0.0423    0.2825 C   0  0  0  0  0  0  0  0  0  0  0  0
    0.1724    0.2013    0.0336 C   0  0  0  0  0  0  0  0  0  0  0  0
   -0.1181    1.5485   -0.5525 C   0  0  0  0  0  0  0  0  0  0  0  0
   -0.2239    1.6036   -1.7626 O   0  0  0  0  0  0  0  0  0  0  0  0
   -0.7297   -0.1163    1.1459 C   0  0  0  0  0  0  0  0  0  0  0  0
   -0.9378    0.1480    2.3223 O   0  0  0  0  0  0  0  0  0  0  0  0
   -1.4644   -1.0405    0.2394 C   0  0  0  0  0  0  0  0  0  0  0  0
   -0.7374   -2.1277   -0.1630 O   0  0  0  0  0  0  0  0  0  0  0  0
   -0.4056   -0.9262   -0.7539 C   0  0  0  0  0  0  0  0  0  0  0  0
    2.0200    0.6761    1.1048 H   0  0  0  0  0  0  0  0  0  0  0  0
    1.9101   -1.0224    0.4785 H   0  0  0  0  0  0  0  0  0  0  0  0
    2.1662    0.3595   -0.6539 H   0  0  0  0  0  0  0  0  0  0  0  0
   -0.2237    2.4133    0.0928 H   0  0  0  0  0  0  0  0  0  0  0  0
   -2.5165   -0.9039    0.0228 H   0  0  0  0  0  0  0  0  0  0  0  0
   -0.5512   -0.8558   -1.8366 H   0  0  0  0  0  0  0  0  0  0  0  0
  1  2  1  0
  2  3  1  0
  3  4  2  0
  2  5  1  0
  5  6  2  0
  5  7  1  0
  7  8  1  0
  8  9  1  0
  9  2  1  0
  9  7  1  0
  1 10  1  0
  1 11  1  0
  1 12  1  0
  3 13  1  0
  7 14  1  0
  9 15  1  0
M  END
