
     RDKit          3D

 22 22  0  0  0  0  0  0  0  0999 V2000
   -0.2919   -1.4082   -0.9564 C   0  0  0  0  0  0  0  0  0  0  0  0
   -0.2669   -0.0483   -0.2533 C   0  0  0  0  0  0  0  0  0  0  0  0
    1.1124    0.4015    0.0256 C   0  0  0  0  0  0  0  0  0  0  0  0
    1.8927   -0.5420    0.9162 C   0  0  0  0  0  0  0  0  0  0  0  0
    3.1838   -0.0694    1.1457 O   0  0  0  0  0  0  0  0  0  0  0  0
   -1.2744    0.0137    0.8439 C   0  0  0  0  0  0  0  0  0  0  0  0
   -2.0561    1.1240    0.1579 C   0  0  0  0  0  0  0  0  0  0  0  0
   -1.0513    1.0162   -0.9899 C   0  0  0  0  0  0  0  0  0  0  0  0
   -1.3037   -1.4508   -1.4509 H   0  0  0  0  0  0  0  0  0  0  0  0
   -0.3125   -2.2159   -0.1972 H   0  0  0  0  0  0  0  0  0  0  0  0
    0.5258   -1.4869   -1.6769 H   0  0  0  0  0  0  0  0  0  0  0  0
    1.1538    1.3978    0.4789 H   0  0  0  0  0  0  0  0  0  0  0  0
    1.6712    0.4442   -0.9353 H   0  0  0  0  0  0  0  0  0  0  0  0
    2.0213   -1.5501    0.4362 H   0  0  0  0  0  0  0  0  0  0  0  0
    1.3888   -0.7324    1.8760 H   0  0  0  0  0  0  0  0  0  0  0  0
    3.5440    0.1933    0.2648 H   0  0  0  0  0  0  0  0  0  0  0  0
   -0.9170    0.2805    1.8493 H   0  0  0  0  0  0  0  0  0  0  0  0
   -1.9186   -0.8941    0.9059 H   0  0  0  0  0  0  0  0  0  0  0  0
   -1.9954    2.0422    0.7379 H   0  0  0  0  0  0  0  0  0  0  0  0
   -3.0744    0.8615   -0.1429 H   0  0  0  0  0  0  0  0  0  0  0  0
   -0.5253    1.9877   -1.0950 H   0  0  0  0  0  0  0  0  0  0  0  0
   -1.5063    0.6356   -1.9407 H   0  0  0  0  0  0  0  0  0  0  0  0
  1  2  1  0
  2  3  1  0
  3  4  1  0
  4  5  1  0
  2  6  1  0
  6  7  1  0
  7  8  1  0
  8  2  1  0
  1  9  1  0
  1 10  1  0
  1 11  1  0
  3 12  1  0
  3 13  1  0
  4 14  1  0
  4 15  1  0
  5 16  1  0
  6 17  1  0
  6 18  1  0
  7 19  1  0
  7 20  1  0
  8 21  1  0
  8 22  1  0
M  END
