
     RDKit          3D

 22 23  0  0  0  0  0  0  0  0999 V2000
    1.9721   -0.7138    0.9124 C   0  0  0  0  0  0  0  0  0  0  0  0
    1.0225    0.0861    0.0093 C   0  0  0  0  0  0  0  0  0  0  0  0
    1.8522    1.0064   -0.8994 C   0  0  0  0  0  0  0  0  0  0  0  0
   -0.1674    0.5591    0.5628 C   0  0  0  0  0  0  0  0  0  0  0  0
   -1.3449   -0.0608    1.2215 C   0  0  0  0  0  0  0  0  0  0  0  0
   -2.2791   -0.1932   -0.0000 C   0  0  0  0  0  0  0  0  0  0  0  0
   -1.3352   -0.1025   -1.2183 C   0  0  0  0  0  0  0  0  0  0  0  0
   -0.0816   -0.5536   -0.5608 C   0  0  0  0  0  0  0  0  0  0  0  0
    1.4722   -1.5832    1.3598 H   0  0  0  0  0  0  0  0  0  0  0  0
    2.5230   -0.0798    1.6023 H   0  0  0  0  0  0  0  0  0  0  0  0
    2.7349   -1.1413    0.1968 H   0  0  0  0  0  0  0  0  0  0  0  0
    2.5043    1.6633   -0.2748 H   0  0  0  0  0  0  0  0  0  0  0  0
    2.5148    0.3528   -1.4858 H   0  0  0  0  0  0  0  0  0  0  0  0
    1.1179    1.5685   -1.4963 H   0  0  0  0  0  0  0  0  0  0  0  0
   -0.4879    1.5875    0.2007 H   0  0  0  0  0  0  0  0  0  0  0  0
   -1.1701   -1.0190    1.7050 H   0  0  0  0  0  0  0  0  0  0  0  0
   -1.8618    0.6457    1.9062 H   0  0  0  0  0  0  0  0  0  0  0  0
   -2.7268   -1.2055   -0.0310 H   0  0  0  0  0  0  0  0  0  0  0  0
   -3.0372    0.5879   -0.0170 H   0  0  0  0  0  0  0  0  0  0  0  0
   -1.2562    0.9601   -1.4777 H   0  0  0  0  0  0  0  0  0  0  0  0
   -1.7050   -0.7501   -2.0218 H   0  0  0  0  0  0  0  0  0  0  0  0
   -0.2605   -1.6144   -0.1939 H   0  0  0  0  0  0  0  0  0  0  0  0
  1  2  1  0
  2  3  1  0
  2  4  1  0
  4  5  1  0
  5  6  1  0
  6  7  1  0
  7  8  1  0
  8  2  1  0
  8  4  1  0
  1  9  1  0
  1 10  1  0
  1 11  1  0
  3 12  1  0
  3 13  1  0
  3 14  1  0
  4 15  1  0
  5 16  1  0
  5 17  1  0
  6 18  1  0
  6 19  1  0
  7 20  1  0
  7 21  1  0
  8 22  1  0
M  END
