
     RDKit          3D

 25 26  0  0  0  0  0  0  0  0999 V2000
    1.5421   -0.0685   -0.9627 C   0  0  0  0  0  0  0  0  0  0  0  0
    0.7630    0.1324    0.3243 C   0  0  0  0  0  0  0  0  0  0  0  0
    1.8121    0.5068    1.3811 C   0  0  0  0  0  0  0  0  0  0  0  0
    0.2181   -1.2183    0.7708 C   0  0  0  0  0  0  0  0  0  0  0  0
   -0.8915   -1.5861   -0.1523 C   0  0  0  0  0  0  0  0  0  0  0  0
   -1.9932   -0.6007   -0.1747 C   0  0  0  0  0  0  0  0  0  0  0  0
   -1.6159    0.8241   -0.1148 C   0  0  0  0  0  0  0  0  0  0  0  0
   -0.7749    1.4653   -1.1740 C   0  0  0  0  0  0  0  0  0  0  0  0
   -0.2687    1.1895    0.2433 C   0  0  0  0  0  0  0  0  0  0  0  0
    2.4067   -0.7399   -0.6816 H   0  0  0  0  0  0  0  0  0  0  0  0
    1.8946    0.8875   -1.3694 H   0  0  0  0  0  0  0  0  0  0  0  0
    0.9885   -0.5967   -1.7342 H   0  0  0  0  0  0  0  0  0  0  0  0
    1.9631    1.6149    1.2389 H   0  0  0  0  0  0  0  0  0  0  0  0
    1.3868    0.2614    2.3569 H   0  0  0  0  0  0  0  0  0  0  0  0
    2.7557    0.0118    1.1418 H   0  0  0  0  0  0  0  0  0  0  0  0
   -0.1900   -1.1547    1.7955 H   0  0  0  0  0  0  0  0  0  0  0  0
    1.0365   -1.9476    0.7336 H   0  0  0  0  0  0  0  0  0  0  0  0
   -1.3165   -2.5646    0.2222 H   0  0  0  0  0  0  0  0  0  0  0  0
   -0.5620   -1.8042   -1.1877 H   0  0  0  0  0  0  0  0  0  0  0  0
   -2.6191   -0.8092   -1.0924 H   0  0  0  0  0  0  0  0  0  0  0  0
   -2.6800   -0.8217    0.6782 H   0  0  0  0  0  0  0  0  0  0  0  0
   -2.4438    1.5026    0.2510 H   0  0  0  0  0  0  0  0  0  0  0  0
   -0.9036    2.5439   -1.4002 H   0  0  0  0  0  0  0  0  0  0  0  0
   -0.3870    0.8844   -2.0082 H   0  0  0  0  0  0  0  0  0  0  0  0
   -0.1213    2.0874    0.9146 H   0  0  0  0  0  0  0  0  0  0  0  0
  1  2  1  0
  2  3  1  0
  2  4  1  0
  4  5  1  0
  5  6  1  0
  6  7  1  0
  7  8  1  0
  8  9  1  0
  9  2  1  0
  9  7  1  0
  1 10  1  0
  1 11  1  0
  1 12  1  0
  3 13  1  0
  3 14  1  0
  3 15  1  0
  4 16  1  0
  4 17  1  0
  5 18  1  0
  5 19  1  0
  6 20  1  0
  6 21  1  0
  7 22  1  0
  8 23  1  0
  8 24  1  0
  9 25  1  0
M  END
