
     RDKit          3D

 21 21  0  0  0  0  0  0  0  0999 V2000
   -1.1420    0.5021   -1.4247 C   0  0  0  0  0  0  0  0  0  0  0  0
   -0.5798    0.3691   -0.0005 C   0  0  0  0  0  0  0  0  0  0  0  0
   -1.7661    0.7235    0.9152 C   0  0  0  0  0  0  0  0  0  0  0  0
   -0.2830   -1.0588    0.2314 C   0  0  0  0  0  0  0  0  0  0  0  0
    1.1249   -1.4633   -0.2157 C   0  0  0  0  0  0  0  0  0  0  0  0
    2.0138   -0.4618    0.4807 C   0  0  0  0  0  0  0  0  0  0  0  0
    2.9462   -0.8135    1.1741 O   0  0  0  0  0  0  0  0  0  0  0  0
    1.6699    0.9478    0.2587 C   0  0  0  0  0  0  0  0  0  0  0  0
    0.3756    1.2734    0.2462 O   0  0  0  0  0  0  0  0  0  0  0  0
   -2.2064    0.1255   -1.4330 H   0  0  0  0  0  0  0  0  0  0  0  0
   -1.1175    1.5386   -1.7767 H   0  0  0  0  0  0  0  0  0  0  0  0
   -0.5851   -0.1923   -2.0741 H   0  0  0  0  0  0  0  0  0  0  0  0
   -1.8377    1.8146    0.9794 H   0  0  0  0  0  0  0  0  0  0  0  0
   -2.6813    0.2168    0.6129 H   0  0  0  0  0  0  0  0  0  0  0  0
   -1.4485    0.3664    1.9278 H   0  0  0  0  0  0  0  0  0  0  0  0
   -0.3946   -1.2923    1.3011 H   0  0  0  0  0  0  0  0  0  0  0  0
   -0.9766   -1.6923   -0.3707 H   0  0  0  0  0  0  0  0  0  0  0  0
    1.1960   -1.2446   -1.2809 H   0  0  0  0  0  0  0  0  0  0  0  0
    1.3453   -2.4808    0.0828 H   0  0  0  0  0  0  0  0  0  0  0  0
    2.1642    1.2657   -0.6962 H   0  0  0  0  0  0  0  0  0  0  0  0
    2.1828    1.5562    1.0624 H   0  0  0  0  0  0  0  0  0  0  0  0
  1  2  1  0
  2  3  1  0
  2  4  1  0
  4  5  1  0
  5  6  1  0
  6  7  2  0
  6  8  1  0
  8  9  1  0
  9  2  1  0
  1 10  1  0
  1 11  1  0
  1 12  1  0
  3 13  1  0
  3 14  1  0
  3 15  1  0
  4 16  1  0
  4 17  1  0
  5 18  1  0
  5 19  1  0
  8 20  1  0
  8 21  1  0
M  END
