
     RDKit          3D

 17 18  0  0  0  0  0  0  0  0999 V2000
   -2.0652    0.6242    0.1449 C   0  0  0  0  0  0  0  0  0  0  0  0
   -0.7661   -0.0442    0.3898 C   0  0  0  0  0  0  0  0  0  0  0  0
   -0.7319   -0.9587    1.4461 O   0  0  0  0  0  0  0  0  0  0  0  0
    0.4540    0.8272    0.2616 C   0  0  0  0  0  0  0  0  0  0  0  0
    0.2494    0.8078   -1.1023 O   0  0  0  0  0  0  0  0  0  0  0  0
    0.0155   -0.5195   -0.7818 C   0  0  0  0  0  0  0  0  0  0  0  0
    1.2363   -0.4356    0.0874 C   0  0  0  0  0  0  0  0  0  0  0  0
    2.5251   -0.2836   -0.5730 C   0  0  0  0  0  0  0  0  0  0  0  0
    3.2046    0.7018   -0.3882 O   0  0  0  0  0  0  0  0  0  0  0  0
   -1.8620    1.7283    0.0252 H   0  0  0  0  0  0  0  0  0  0  0  0
   -2.6062    0.3140   -0.7519 H   0  0  0  0  0  0  0  0  0  0  0  0
   -2.6915    0.5634    1.0757 H   0  0  0  0  0  0  0  0  0  0  0  0
   -1.5482   -1.5128    1.3641 H   0  0  0  0  0  0  0  0  0  0  0  0
    0.6881    1.6157    0.8405 H   0  0  0  0  0  0  0  0  0  0  0  0
   -0.2139   -1.2649   -1.4221 H   0  0  0  0  0  0  0  0  0  0  0  0
    1.2175   -1.1176    0.9562 H   0  0  0  0  0  0  0  0  0  0  0  0
    2.8946   -1.0457   -1.2367 H   0  0  0  0  0  0  0  0  0  0  0  0
  1  2  1  0
  2  3  1  0
  2  4  1  0
  4  5  1  0
  5  6  1  0
  6  7  1  0
  7  8  1  0
  8  9  2  0
  6  2  1  0
  7  4  1  0
  1 10  1  0
  1 11  1  0
  1 12  1  0
  3 13  1  0
  4 14  1  0
  6 15  1  0
  7 16  1  0
  8 17  1  0
M  END
