
     RDKit          3D

 21 23  0  0  0  0  0  0  0  0999 V2000
   -1.5508   -0.8842   -0.7639 C   0  0  0  0  0  0  0  0  0  0  0  0
   -0.8890    0.2400    0.0052 C   0  0  0  0  0  0  0  0  0  0  0  0
   -1.6388    0.6142    1.2693 C   0  0  0  0  0  0  0  0  0  0  0  0
   -0.2406    1.2769   -0.6794 C   0  0  0  0  0  0  0  0  0  0  0  0
    0.5615    0.3922    0.0837 C   0  0  0  0  0  0  0  0  0  0  0  0
    1.7223    0.0973   -0.7480 C   0  0  0  0  0  0  0  0  0  0  0  0
    2.4487   -0.3903    0.4730 C   0  0  0  0  0  0  0  0  0  0  0  0
    1.0325   -0.8964    0.4440 C   0  0  0  0  0  0  0  0  0  0  0  0
    1.2556   -1.1907   -0.9089 O   0  0  0  0  0  0  0  0  0  0  0  0
   -2.5737   -1.0981   -0.3994 H   0  0  0  0  0  0  0  0  0  0  0  0
   -0.9805   -1.8262   -0.6655 H   0  0  0  0  0  0  0  0  0  0  0  0
   -1.6359   -0.5545   -1.8143 H   0  0  0  0  0  0  0  0  0  0  0  0
   -2.5339    1.2033    0.9265 H   0  0  0  0  0  0  0  0  0  0  0  0
   -2.0258   -0.2465    1.8133 H   0  0  0  0  0  0  0  0  0  0  0  0
   -1.0616    1.3128    1.9063 H   0  0  0  0  0  0  0  0  0  0  0  0
   -0.3844    1.3193   -1.8020 H   0  0  0  0  0  0  0  0  0  0  0  0
   -0.2634    2.3474   -0.3026 H   0  0  0  0  0  0  0  0  0  0  0  0
    2.1621    0.6610   -1.4862 H   0  0  0  0  0  0  0  0  0  0  0  0
    2.6761    0.3746    1.2416 H   0  0  0  0  0  0  0  0  0  0  0  0
    3.2382   -1.1406    0.3105 H   0  0  0  0  0  0  0  0  0  0  0  0
    0.6814   -1.6116    1.0968 H   0  0  0  0  0  0  0  0  0  0  0  0
  1  2  1  0
  2  3  1  0
  2  4  1  0
  4  5  1  0
  5  6  1  0
  6  7  1  0
  7  8  1  0
  8  9  1  0
  5  2  1  0
  9  6  1  0
  8  5  1  0
  1 10  1  0
  1 11  1  0
  1 12  1  0
  3 13  1  0
  3 14  1  0
  3 15  1  0
  4 16  1  0
  4 17  1  0
  6 18  1  0
  7 19  1  0
  7 20  1  0
  8 21  1  0
M  END
