
     RDKit          3D

 18 19  0  0  0  0  0  0  0  0999 V2000
    1.9609    0.0791    0.5426 C   0  0  0  0  0  0  0  0  0  0  0  0
    0.6040   -0.2674    0.0371 C   0  0  0  0  0  0  0  0  0  0  0  0
    0.7205   -1.3731   -0.8400 O   0  0  0  0  0  0  0  0  0  0  0  0
   -0.0399    0.9080   -0.6667 C   0  0  0  0  0  0  0  0  0  0  0  0
   -1.5062    0.5434   -0.6939 C   0  0  0  0  0  0  0  0  0  0  0  0
   -1.6840   -0.4053    0.4438 C   0  0  0  0  0  0  0  0  0  0  0  0
   -1.2401    0.2083    1.6720 O   0  0  0  0  0  0  0  0  0  0  0  0
   -0.3769   -0.6604    1.0843 C   0  0  0  0  0  0  0  0  0  0  0  0
    2.3241    1.0372    0.0825 H   0  0  0  0  0  0  0  0  0  0  0  0
    2.7195   -0.6871    0.2238 H   0  0  0  0  0  0  0  0  0  0  0  0
    2.0090    0.1179    1.6584 H   0  0  0  0  0  0  0  0  0  0  0  0
    0.6165   -1.1203   -1.7727 H   0  0  0  0  0  0  0  0  0  0  0  0
    0.1319    1.8009   -0.0237 H   0  0  0  0  0  0  0  0  0  0  0  0
    0.4028    1.0115   -1.6647 H   0  0  0  0  0  0  0  0  0  0  0  0
   -1.7512    0.1520   -1.6782 H   0  0  0  0  0  0  0  0  0  0  0  0
   -2.1498    1.4429   -0.4592 H   0  0  0  0  0  0  0  0  0  0  0  0
   -2.4782   -1.1319    0.5008 H   0  0  0  0  0  0  0  0  0  0  0  0
   -0.2631   -1.6557    1.5539 H   0  0  0  0  0  0  0  0  0  0  0  0
  1  2  1  0
  2  3  1  0
  2  4  1  0
  4  5  1  0
  5  6  1  0
  6  7  1  0
  7  8  1  0
  8  2  1  0
  8  6  1  0
  1  9  1  0
  1 10  1  0
  1 11  1  0
  3 12  1  0
  4 13  1  0
  4 14  1  0
  5 15  1  0
  5 16  1  0
  6 17  1  0
  8 18  1  0
M  END
