
     RDKit          3D

 25 26  0  0  0  0  0  0  0  0999 V2000
   -2.3122    1.0707    0.5717 C   0  0  0  0  0  0  0  0  0  0  0  0
   -1.3006    0.0386    0.1546 C   0  0  0  0  0  0  0  0  0  0  0  0
   -1.7566   -1.3837    0.1687 C   0  0  0  0  0  0  0  0  0  0  0  0
   -0.5226    0.4038   -1.1135 C   0  0  0  0  0  0  0  0  0  0  0  0
    0.7079    0.1413   -0.3876 C   0  0  0  0  0  0  0  0  0  0  0  0
    1.9201    0.9636   -0.6103 C   0  0  0  0  0  0  0  0  0  0  0  0
    2.7171   -0.2713   -0.1640 C   0  0  0  0  0  0  0  0  0  0  0  0
    1.5001   -1.0860   -0.6290 C   0  0  0  0  0  0  0  0  0  0  0  0
    0.0091    0.2855    0.9154 C   0  0  0  0  0  0  0  0  0  0  0  0
   -2.6715    0.7915    1.5780 H   0  0  0  0  0  0  0  0  0  0  0  0
   -1.7928    2.0433    0.6826 H   0  0  0  0  0  0  0  0  0  0  0  0
   -3.1941    1.1142   -0.0910 H   0  0  0  0  0  0  0  0  0  0  0  0
   -1.2811   -1.9281   -0.6860 H   0  0  0  0  0  0  0  0  0  0  0  0
   -2.8773   -1.3802    0.0529 H   0  0  0  0  0  0  0  0  0  0  0  0
   -1.4440   -1.8636    1.1216 H   0  0  0  0  0  0  0  0  0  0  0  0
   -0.7026    1.4861   -1.3284 H   0  0  0  0  0  0  0  0  0  0  0  0
   -0.8113   -0.2186   -1.9654 H   0  0  0  0  0  0  0  0  0  0  0  0
    1.9945    1.8232    0.0554 H   0  0  0  0  0  0  0  0  0  0  0  0
    2.2012    1.2078   -1.6333 H   0  0  0  0  0  0  0  0  0  0  0  0
    3.6335   -0.4549   -0.7103 H   0  0  0  0  0  0  0  0  0  0  0  0
    2.7447   -0.3078    0.9388 H   0  0  0  0  0  0  0  0  0  0  0  0
    1.6334   -1.3498   -1.6995 H   0  0  0  0  0  0  0  0  0  0  0  0
    1.2355   -1.9206    0.0375 H   0  0  0  0  0  0  0  0  0  0  0  0
    0.2706   -0.5225    1.6230 H   0  0  0  0  0  0  0  0  0  0  0  0
    0.0992    1.3174    1.3127 H   0  0  0  0  0  0  0  0  0  0  0  0
  1  2  1  0
  2  3  1  0
  2  4  1  0
  4  5  1  0
  5  6  1  0
  6  7  1  0
  7  8  1  0
  5  9  1  0
  9  2  1  0
  8  5  1  0
  1 10  1  0
  1 11  1  0
  1 12  1  0
  3 13  1  0
  3 14  1  0
  3 15  1  0
  4 16  1  0
  4 17  1  0
  6 18  1  0
  6 19  1  0
  7 20  1  0
  7 21  1  0
  8 22  1  0
  8 23  1  0
  9 24  1  0
  9 25  1  0
M  END
