
     RDKit          3D

 18 19  0  0  0  0  0  0  0  0999 V2000
    1.8032   -0.9104   -0.1929 C   0  0  0  0  0  0  0  0  0  0  0  0
    0.8357   -0.0555    0.5683 C   0  0  0  0  0  0  0  0  0  0  0  0
    0.9424   -0.1277    1.9376 O   0  0  0  0  0  0  0  0  0  0  0  0
    0.3631    1.1591   -0.1348 C   0  0  0  0  0  0  0  0  0  0  0  0
   -0.3828    2.0865    0.5496 O   0  0  0  0  0  0  0  0  0  0  0  0
   -1.4509    1.1833    0.5246 C   0  0  0  0  0  0  0  0  0  0  0  0
   -0.5939    0.0623    0.0691 C   0  0  0  0  0  0  0  0  0  0  0  0
   -1.0298   -0.8666   -1.0064 C   0  0  0  0  0  0  0  0  0  0  0  0
    1.6782   -0.7224   -1.2874 H   0  0  0  0  0  0  0  0  0  0  0  0
    1.6680   -1.9482    0.1008 H   0  0  0  0  0  0  0  0  0  0  0  0
    2.8327   -0.5146    0.0385 H   0  0  0  0  0  0  0  0  0  0  0  0
    0.1379    0.2342    2.4138 H   0  0  0  0  0  0  0  0  0  0  0  0
    0.7926    1.3981   -1.1361 H   0  0  0  0  0  0  0  0  0  0  0  0
   -2.2389    1.4348   -0.2288 H   0  0  0  0  0  0  0  0  0  0  0  0
   -1.9337    1.0525    1.5189 H   0  0  0  0  0  0  0  0  0  0  0  0
   -1.8179   -1.5444   -0.5615 H   0  0  0  0  0  0  0  0  0  0  0  0
   -1.4175   -0.3762   -1.9159 H   0  0  0  0  0  0  0  0  0  0  0  0
   -0.1883   -1.5449   -1.2573 H   0  0  0  0  0  0  0  0  0  0  0  0
  1  2  1  0
  2  3  1  0
  2  4  1  0
  4  5  1  0
  5  6  1  0
  6  7  1  0
  7  8  1  0
  7  2  1  0
  7  4  1  0
  1  9  1  0
  1 10  1  0
  1 11  1  0
  3 12  1  0
  4 13  1  0
  6 14  1  0
  6 15  1  0
  8 16  1  0
  8 17  1  0
  8 18  1  0
M  END
