
     RDKit          3D

 23 24  0  0  0  0  0  0  0  0999 V2000
   -1.4359   -1.6447   -0.5463 C   0  0  0  0  0  0  0  0  0  0  0  0
   -0.9943   -0.3004    0.0556 C   0  0  0  0  0  0  0  0  0  0  0  0
   -2.2090    0.4284    0.6260 C   0  0  0  0  0  0  0  0  0  0  0  0
    0.2034   -0.3414    0.7935 C   0  0  0  0  0  0  0  0  0  0  0  0
    1.6062   -0.6860    0.4725 C   0  0  0  0  0  0  0  0  0  0  0  0
    2.1426    0.7435    0.2461 C   0  0  0  0  0  0  0  0  0  0  0  0
    0.8950    1.5619   -0.1508 C   0  0  0  0  0  0  0  0  0  0  0  0
    0.0025    0.4527   -0.5638 C   0  0  0  0  0  0  0  0  0  0  0  0
    0.5810   -0.1669   -1.7089 O   0  0  0  0  0  0  0  0  0  0  0  0
   -0.5916   -2.0576   -1.1080 H   0  0  0  0  0  0  0  0  0  0  0  0
   -1.5620   -2.3162    0.3519 H   0  0  0  0  0  0  0  0  0  0  0  0
   -2.3743   -1.5594   -1.0904 H   0  0  0  0  0  0  0  0  0  0  0  0
   -2.0474    1.4981    0.7366 H   0  0  0  0  0  0  0  0  0  0  0  0
   -3.0720    0.2692   -0.0428 H   0  0  0  0  0  0  0  0  0  0  0  0
   -2.4675   -0.0910    1.5894 H   0  0  0  0  0  0  0  0  0  0  0  0
    0.2026    0.3022    1.7278 H   0  0  0  0  0  0  0  0  0  0  0  0
    1.6592   -1.2251   -0.5050 H   0  0  0  0  0  0  0  0  0  0  0  0
    2.1685   -1.2075    1.2417 H   0  0  0  0  0  0  0  0  0  0  0  0
    2.5428    1.0665    1.2066 H   0  0  0  0  0  0  0  0  0  0  0  0
    2.8534    0.6863   -0.5781 H   0  0  0  0  0  0  0  0  0  0  0  0
    1.2262    2.1970   -0.9959 H   0  0  0  0  0  0  0  0  0  0  0  0
    0.5386    2.1566    0.7098 H   0  0  0  0  0  0  0  0  0  0  0  0
    0.1318    0.2338   -2.4674 H   0  0  0  0  0  0  0  0  0  0  0  0
  1  2  1  0
  2  3  1  0
  2  4  1  0
  4  5  1  0
  5  6  1  0
  6  7  1  0
  7  8  1  0
  8  9  1  0
  8  2  1  0
  8  4  1  0
  1 10  1  0
  1 11  1  0
  1 12  1  0
  3 13  1  0
  3 14  1  0
  3 15  1  0
  4 16  1  0
  5 17  1  0
  5 18  1  0
  6 19  1  0
  6 20  1  0
  7 21  1  0
  7 22  1  0
  9 23  1  0
M  END
