
     RDKit          3D

 19 19  0  0  0  0  0  0  0  0999 V2000
   -1.9939   -0.0180    0.3534 C   0  0  0  0  0  0  0  0  0  0  0  0
   -0.6026   -0.1141   -0.2805 C   0  0  0  0  0  0  0  0  0  0  0  0
   -0.8184   -0.6922   -1.5539 O   0  0  0  0  0  0  0  0  0  0  0  0
    0.1994   -1.0914    0.5052 C   0  0  0  0  0  0  0  0  0  0  0  0
    1.6518   -1.0439    0.2248 C   0  0  0  0  0  0  0  0  0  0  0  0
    2.1888    0.1495    0.0204 C   0  0  0  0  0  0  0  0  0  0  0  0
    1.3687    1.3554    0.0731 C   0  0  0  0  0  0  0  0  0  0  0  0
    1.8816    2.4372    0.4981 O   0  0  0  0  0  0  0  0  0  0  0  0
   -0.0359    1.2570   -0.3765 C   0  0  0  0  0  0  0  0  0  0  0  0
   -1.8433    0.5154    1.3126 H   0  0  0  0  0  0  0  0  0  0  0  0
   -2.4306   -1.0130    0.4987 H   0  0  0  0  0  0  0  0  0  0  0  0
   -2.5887    0.6219   -0.3245 H   0  0  0  0  0  0  0  0  0  0  0  0
   -1.6632   -1.2355   -1.5513 H   0  0  0  0  0  0  0  0  0  0  0  0
    0.0793   -0.9083    1.6071 H   0  0  0  0  0  0  0  0  0  0  0  0
   -0.2271   -2.1033    0.3312 H   0  0  0  0  0  0  0  0  0  0  0  0
    2.2925   -1.8963    0.1759 H   0  0  0  0  0  0  0  0  0  0  0  0
    3.2499    0.2131   -0.1858 H   0  0  0  0  0  0  0  0  0  0  0  0
   -0.0436    1.5466   -1.4670 H   0  0  0  0  0  0  0  0  0  0  0  0
   -0.6648    2.0199    0.1392 H   0  0  0  0  0  0  0  0  0  0  0  0
  1  2  1  0
  2  3  1  0
  2  4  1  0
  4  5  1  0
  5  6  2  0
  6  7  1  0
  7  8  2  0
  7  9  1  0
  9  2  1  0
  1 10  1  0
  1 11  1  0
  1 12  1  0
  3 13  1  0
  4 14  1  0
  4 15  1  0
  5 16  1  0
  6 17  1  0
  9 18  1  0
  9 19  1  0
M  END
