
     RDKit          3D

 21 22  0  0  0  0  0  0  0  0999 V2000
    2.0770    0.1408   -0.2990 C   0  0  0  0  0  0  0  0  0  0  0  0
    0.7360   -0.4092   -0.0136 C   0  0  0  0  0  0  0  0  0  0  0  0
    0.7344   -1.6836    0.4829 O   0  0  0  0  0  0  0  0  0  0  0  0
   -0.0702    0.4599    0.9672 C   0  0  0  0  0  0  0  0  0  0  0  0
   -1.3493   -0.3424    1.0051 C   0  0  0  0  0  0  0  0  0  0  0  0
   -1.5253   -0.6896   -0.4841 C   0  0  0  0  0  0  0  0  0  0  0  0
   -0.2582   -0.2175   -1.1554 C   0  0  0  0  0  0  0  0  0  0  0  0
   -0.3555    1.1866   -1.2309 O   0  0  0  0  0  0  0  0  0  0  0  0
   -0.3283    1.6541    0.0776 C   0  0  0  0  0  0  0  0  0  0  0  0
    2.8105   -0.3485    0.3923 H   0  0  0  0  0  0  0  0  0  0  0  0
    2.1010    1.2148   -0.1404 H   0  0  0  0  0  0  0  0  0  0  0  0
    2.4238   -0.1128   -1.3208 H   0  0  0  0  0  0  0  0  0  0  0  0
    0.8739   -2.3639   -0.2241 H   0  0  0  0  0  0  0  0  0  0  0  0
    0.4114    0.6452    1.8945 H   0  0  0  0  0  0  0  0  0  0  0  0
   -1.2568   -1.2337    1.6245 H   0  0  0  0  0  0  0  0  0  0  0  0
   -2.1974    0.2512    1.3733 H   0  0  0  0  0  0  0  0  0  0  0  0
   -2.4195   -0.1737   -0.8425 H   0  0  0  0  0  0  0  0  0  0  0  0
   -1.5857   -1.7923   -0.5561 H   0  0  0  0  0  0  0  0  0  0  0  0
    0.0040   -0.6951   -2.0669 H   0  0  0  0  0  0  0  0  0  0  0  0
   -1.3021    2.0929    0.3797 H   0  0  0  0  0  0  0  0  0  0  0  0
    0.4762    2.4168    0.1369 H   0  0  0  0  0  0  0  0  0  0  0  0
  1  2  1  0
  2  3  1  0
  2  4  1  0
  4  5  1  0
  5  6  1  0
  6  7  1  0
  7  8  1  0
  8  9  1  0
  7  2  1  0
  9  4  1  0
  1 10  1  0
  1 11  1  0
  1 12  1  0
  3 13  1  0
  4 14  1  0
  5 15  1  0
  5 16  1  0
  6 17  1  0
  6 18  1  0
  7 19  1  0
  9 20  1  0
  9 21  1  0
M  END
