
     RDKit          3D

 21 22  0  0  0  0  0  0  0  0999 V2000
   -1.4146    0.0786    1.3579 C   0  0  0  0  0  0  0  0  0  0  0  0
   -0.5695   -0.0102    0.1366 C   0  0  0  0  0  0  0  0  0  0  0  0
   -1.3359    0.3694   -1.1193 C   0  0  0  0  0  0  0  0  0  0  0  0
    0.2519   -1.2712   -0.0224 C   0  0  0  0  0  0  0  0  0  0  0  0
    0.9832   -0.9923   -1.2649 C   0  0  0  0  0  0  0  0  0  0  0  0
    1.3530    0.2835   -1.1279 C   0  0  0  0  0  0  0  0  0  0  0  0
    0.7916    0.6344    0.2237 C   0  0  0  0  0  0  0  0  0  0  0  0
    0.9751    1.8168    0.7457 O   0  0  0  0  0  0  0  0  0  0  0  0
    1.2147   -0.6262    0.9904 C   0  0  0  0  0  0  0  0  0  0  0  0
   -1.1318   -0.5928    2.1770 H   0  0  0  0  0  0  0  0  0  0  0  0
   -2.4594   -0.2264    1.0618 H   0  0  0  0  0  0  0  0  0  0  0  0
   -1.5184    1.1084    1.7499 H   0  0  0  0  0  0  0  0  0  0  0  0
   -1.8228    1.3607   -0.9041 H   0  0  0  0  0  0  0  0  0  0  0  0
   -0.6622    0.4980   -1.9792 H   0  0  0  0  0  0  0  0  0  0  0  0
   -2.1464   -0.3354   -1.3348 H   0  0  0  0  0  0  0  0  0  0  0  0
   -0.1551   -2.2090    0.2012 H   0  0  0  0  0  0  0  0  0  0  0  0
    1.1582   -1.6835   -2.0735 H   0  0  0  0  0  0  0  0  0  0  0  0
    1.9098    0.9369   -1.7857 H   0  0  0  0  0  0  0  0  0  0  0  0
    1.4375    2.5071    0.1967 H   0  0  0  0  0  0  0  0  0  0  0  0
    0.9006   -0.6737    2.0223 H   0  0  0  0  0  0  0  0  0  0  0  0
    2.2402   -0.9731    0.7487 H   0  0  0  0  0  0  0  0  0  0  0  0
  1  2  1  0
  2  3  1  0
  2  4  1  0
  4  5  1  0
  5  6  2  0
  6  7  1  0
  7  8  1  0
  7  9  1  0
  7  2  1  0
  9  4  1  0
  1 10  1  0
  1 11  1  0
  1 12  1  0
  3 13  1  0
  3 14  1  0
  3 15  1  0
  4 16  1  0
  5 17  1  0
  6 18  1  0
  8 19  1  0
  9 20  1  0
  9 21  1  0
M  END
