
     RDKit          3D

 23 24  0  0  0  0  0  0  0  0999 V2000
    1.7679   -1.1035    0.0687 C   0  0  0  0  0  0  0  0  0  0  0  0
    0.8029    0.0892    0.1658 C   0  0  0  0  0  0  0  0  0  0  0  0
   -0.6156   -0.2895   -0.0255 C   0  0  0  0  0  0  0  0  0  0  0  0
   -1.1215   -1.3063    1.0081 C   0  0  0  0  0  0  0  0  0  0  0  0
   -1.0059   -0.5521   -1.4758 C   0  0  0  0  0  0  0  0  0  0  0  0
   -1.6329    0.5354   -0.6673 C   0  0  0  0  0  0  0  0  0  0  0  0
   -1.4336    1.8672   -1.0105 O   0  0  0  0  0  0  0  0  0  0  0  0
    1.3796    1.3900   -0.1389 C   0  0  0  0  0  0  0  0  0  0  0  0
    1.0444    1.0694    1.3067 C   0  0  0  0  0  0  0  0  0  0  0  0
    1.2437   -2.0583    0.0653 H   0  0  0  0  0  0  0  0  0  0  0  0
    2.3280   -0.9409   -0.8782 H   0  0  0  0  0  0  0  0  0  0  0  0
    2.5409   -1.0303    0.8854 H   0  0  0  0  0  0  0  0  0  0  0  0
   -1.7016   -0.7167    1.7507 H   0  0  0  0  0  0  0  0  0  0  0  0
   -1.8524   -1.9827    0.5159 H   0  0  0  0  0  0  0  0  0  0  0  0
   -0.3000   -1.8146    1.5103 H   0  0  0  0  0  0  0  0  0  0  0  0
   -1.5817   -1.4870   -1.7014 H   0  0  0  0  0  0  0  0  0  0  0  0
   -0.2984   -0.2893   -2.2773 H   0  0  0  0  0  0  0  0  0  0  0  0
   -2.7067    0.3322   -0.4080 H   0  0  0  0  0  0  0  0  0  0  0  0
   -2.2071    2.2356   -1.4658 H   0  0  0  0  0  0  0  0  0  0  0  0
    0.8409    2.2234   -0.6310 H   0  0  0  0  0  0  0  0  0  0  0  0
    2.4790    1.4566   -0.3082 H   0  0  0  0  0  0  0  0  0  0  0  0
    0.1767    1.6066    1.7139 H   0  0  0  0  0  0  0  0  0  0  0  0
    1.8534    0.7656    1.9971 H   0  0  0  0  0  0  0  0  0  0  0  0
  1  2  1  0
  2  3  1  0
  3  4  1  0
  3  5  1  0
  5  6  1  0
  6  7  1  0
  2  8  1  0
  8  9  1  0
  9  2  1  0
  6  3  1  0
  1 10  1  0
  1 11  1  0
  1 12  1  0
  4 13  1  0
  4 14  1  0
  4 15  1  0
  5 16  1  0
  5 17  1  0
  6 18  1  0
  7 19  1  0
  8 20  1  0
  8 21  1  0
  9 22  1  0
  9 23  1  0
M  END
