
     RDKit          3D

 19 20  0  0  0  0  0  0  0  0999 V2000
   -1.2745    1.0995   -0.7233 C   0  0  0  0  0  0  0  0  0  0  0  0
   -0.6731   -0.2098   -0.3490 C   0  0  0  0  0  0  0  0  0  0  0  0
   -1.5501   -0.9941    0.5908 C   0  0  0  0  0  0  0  0  0  0  0  0
   -0.3135   -1.0537   -1.4564 O   0  0  0  0  0  0  0  0  0  0  0  0
    0.7754   -1.4568   -0.6942 C   0  0  0  0  0  0  0  0  0  0  0  0
    1.4509   -2.5125   -0.6216 O   0  0  0  0  0  0  0  0  0  0  0  0
    0.7678   -0.1650   -0.0589 C   0  0  0  0  0  0  0  0  0  0  0  0
    1.6935    0.9101   -0.2740 C   0  0  0  0  0  0  0  0  0  0  0  0
    1.4294    0.2678    1.1256 C   0  0  0  0  0  0  0  0  0  0  0  0
   -1.9239    1.4245    0.1385 H   0  0  0  0  0  0  0  0  0  0  0  0
   -1.8442    1.0913   -1.6713 H   0  0  0  0  0  0  0  0  0  0  0  0
   -0.5097    1.8972   -0.8193 H   0  0  0  0  0  0  0  0  0  0  0  0
   -1.2103   -0.9497    1.6467 H   0  0  0  0  0  0  0  0  0  0  0  0
   -2.6059   -0.6242    0.4751 H   0  0  0  0  0  0  0  0  0  0  0  0
   -1.5992   -2.0762    0.3338 H   0  0  0  0  0  0  0  0  0  0  0  0
    1.4778    1.9747   -0.3655 H   0  0  0  0  0  0  0  0  0  0  0  0
    2.7029    0.6422   -0.7058 H   0  0  0  0  0  0  0  0  0  0  0  0
    2.2947   -0.2373    1.5896 H   0  0  0  0  0  0  0  0  0  0  0  0
    0.9118    0.9723    1.8391 H   0  0  0  0  0  0  0  0  0  0  0  0
  1  2  1  0
  2  3  1  0
  2  4  1  0
  4  5  1  0
  5  6  2  0
  5  7  1  0
  7  8  1  0
  8  9  1  0
  7  2  1  0
  9  7  1  0
  1 10  1  0
  1 11  1  0
  1 12  1  0
  3 13  1  0
  3 14  1  0
  3 15  1  0
  8 16  1  0
  8 17  1  0
  9 18  1  0
  9 19  1  0
M  END
