
     RDKit          3D

 21 21  0  0  0  0  0  0  0  0999 V2000
   -0.6564   -0.8686   -1.1366 C   0  0  0  0  0  0  0  0  0  0  0  0
   -0.5816   -0.0225    0.0924 C   0  0  0  0  0  0  0  0  0  0  0  0
   -1.9619    0.2946    0.6387 C   0  0  0  0  0  0  0  0  0  0  0  0
    0.2740   -0.5840    1.1804 C   0  0  0  0  0  0  0  0  0  0  0  0
    1.5586   -1.0365    0.5914 C   0  0  0  0  0  0  0  0  0  0  0  0
    2.1120   -0.1928   -0.2986 C   0  0  0  0  0  0  0  0  0  0  0  0
    1.4519    1.0653   -0.6241 C   0  0  0  0  0  0  0  0  0  0  0  0
    2.1116    1.9714   -1.1870 O   0  0  0  0  0  0  0  0  0  0  0  0
    0.0225    1.3277   -0.3185 C   0  0  0  0  0  0  0  0  0  0  0  0
    0.2516   -1.4593   -1.3040 H   0  0  0  0  0  0  0  0  0  0  0  0
   -0.8110   -0.1927   -2.0269 H   0  0  0  0  0  0  0  0  0  0  0  0
   -1.5457   -1.5391   -1.1292 H   0  0  0  0  0  0  0  0  0  0  0  0
   -1.9473    0.4214    1.7527 H   0  0  0  0  0  0  0  0  0  0  0  0
   -2.6461   -0.5304    0.3326 H   0  0  0  0  0  0  0  0  0  0  0  0
   -2.3398    1.2635    0.2350 H   0  0  0  0  0  0  0  0  0  0  0  0
    0.4480    0.2466    1.9203 H   0  0  0  0  0  0  0  0  0  0  0  0
   -0.2219   -1.3927    1.7518 H   0  0  0  0  0  0  0  0  0  0  0  0
    1.9847   -1.9651    0.8728 H   0  0  0  0  0  0  0  0  0  0  0  0
    3.0533   -0.5072   -0.7406 H   0  0  0  0  0  0  0  0  0  0  0  0
   -0.0373    1.9658    0.5852 H   0  0  0  0  0  0  0  0  0  0  0  0
   -0.5191    1.7344   -1.1879 H   0  0  0  0  0  0  0  0  0  0  0  0
  1  2  1  0
  2  3  1  0
  2  4  1  0
  4  5  1  0
  5  6  2  0
  6  7  1  0
  7  8  2  0
  7  9  1  0
  9  2  1  0
  1 10  1  0
  1 11  1  0
  1 12  1  0
  3 13  1  0
  3 14  1  0
  3 15  1  0
  4 16  1  0
  4 17  1  0
  5 18  1  0
  6 19  1  0
  9 20  1  0
  9 21  1  0
M  END
