
     RDKit          3D

 23 24  0  0  0  0  0  0  0  0999 V2000
    1.1044   -1.5334   -0.8177 C   0  0  0  0  0  0  0  0  0  0  0  0
    1.3165   -0.3607    0.1178 C   0  0  0  0  0  0  0  0  0  0  0  0
    2.7776   -0.1336    0.3511 C   0  0  0  0  0  0  0  0  0  0  0  0
    0.5239    0.8715   -0.2628 C   0  0  0  0  0  0  0  0  0  0  0  0
   -0.2802    0.6360    0.9577 C   0  0  0  0  0  0  0  0  0  0  0  0
   -1.7174    0.2392    0.7866 C   0  0  0  0  0  0  0  0  0  0  0  0
   -2.6932    1.0787    0.0967 C   0  0  0  0  0  0  0  0  0  0  0  0
   -2.2462   -0.2554   -0.5064 C   0  0  0  0  0  0  0  0  0  0  0  0
    0.5798   -0.4077    1.2960 O   0  0  0  0  0  0  0  0  0  0  0  0
    0.4965   -1.1763   -1.6994 H   0  0  0  0  0  0  0  0  0  0  0  0
    2.0605   -1.9738   -1.1583 H   0  0  0  0  0  0  0  0  0  0  0  0
    0.4525   -2.2658   -0.2981 H   0  0  0  0  0  0  0  0  0  0  0  0
    3.3129   -1.0966    0.2178 H   0  0  0  0  0  0  0  0  0  0  0  0
    3.0013    0.1944    1.3969 H   0  0  0  0  0  0  0  0  0  0  0  0
    3.2272    0.5963   -0.3526 H   0  0  0  0  0  0  0  0  0  0  0  0
    0.0467    0.8466   -1.2350 H   0  0  0  0  0  0  0  0  0  0  0  0
    1.2126    1.7647   -0.2164 H   0  0  0  0  0  0  0  0  0  0  0  0
   -0.1594    1.4875    1.6781 H   0  0  0  0  0  0  0  0  0  0  0  0
   -2.1177   -0.3287    1.6752 H   0  0  0  0  0  0  0  0  0  0  0  0
   -2.4231    1.9934   -0.4686 H   0  0  0  0  0  0  0  0  0  0  0  0
   -3.7647    1.0881    0.4113 H   0  0  0  0  0  0  0  0  0  0  0  0
   -3.0052   -1.0890   -0.5195 H   0  0  0  0  0  0  0  0  0  0  0  0
   -1.7054   -0.1753   -1.4505 H   0  0  0  0  0  0  0  0  0  0  0  0
  1  2  1  0
  2  3  1  0
  2  4  1  0
  4  5  1  0
  5  6  1  0
  6  7  1  0
  7  8  1  0
  5  9  1  0
  9  2  1  0
  8  6  1  0
  1 10  1  0
  1 11  1  0
  1 12  1  0
  3 13  1  0
  3 14  1  0
  3 15  1  0
  4 16  1  0
  4 17  1  0
  5 18  1  0
  6 19  1  0
  7 20  1  0
  7 21  1  0
  8 22  1  0
  8 23  1  0
M  END
