
     RDKit          3D

 23 23  0  0  0  0  0  0  0  0999 V2000
   -1.0481    1.4356   -0.8480 C   0  0  0  0  0  0  0  0  0  0  0  0
   -0.9779    0.1017   -0.1793 C   0  0  0  0  0  0  0  0  0  0  0  0
    0.3333   -0.1076    0.5140 C   0  0  0  0  0  0  0  0  0  0  0  0
    1.4732   -0.0280   -0.4824 C   0  0  0  0  0  0  0  0  0  0  0  0
    2.7927   -0.2459    0.2591 C   0  0  0  0  0  0  0  0  0  0  0  0
    3.8691   -0.1858   -0.5896 O   0  0  0  0  0  0  0  0  0  0  0  0
   -2.2071   -0.2348    0.5824 C   0  0  0  0  0  0  0  0  0  0  0  0
   -2.4238   -1.3635   -0.3974 C   0  0  0  0  0  0  0  0  0  0  0  0
   -1.2551   -0.9364   -1.0694 O   0  0  0  0  0  0  0  0  0  0  0  0
   -0.5137    2.1939   -0.2507 H   0  0  0  0  0  0  0  0  0  0  0  0
   -0.6796    1.3481   -1.8892 H   0  0  0  0  0  0  0  0  0  0  0  0
   -2.1199    1.7843   -0.8931 H   0  0  0  0  0  0  0  0  0  0  0  0
    0.3987   -1.0499    1.0851 H   0  0  0  0  0  0  0  0  0  0  0  0
    0.5150    0.7235    1.2492 H   0  0  0  0  0  0  0  0  0  0  0  0
    1.5443    0.9774   -0.9304 H   0  0  0  0  0  0  0  0  0  0  0  0
    1.3607   -0.7599   -1.3040 H   0  0  0  0  0  0  0  0  0  0  0  0
    2.8852    0.5447    1.0232 H   0  0  0  0  0  0  0  0  0  0  0  0
    2.7657   -1.2452    0.7190 H   0  0  0  0  0  0  0  0  0  0  0  0
    4.0242    0.7057   -0.9882 H   0  0  0  0  0  0  0  0  0  0  0  0
   -3.0524    0.5017    0.4592 H   0  0  0  0  0  0  0  0  0  0  0  0
   -2.0983   -0.5233    1.6364 H   0  0  0  0  0  0  0  0  0  0  0  0
   -3.3100   -1.2942   -1.0338 H   0  0  0  0  0  0  0  0  0  0  0  0
   -2.2761   -2.3420    0.1048 H   0  0  0  0  0  0  0  0  0  0  0  0
  1  2  1  0
  2  3  1  0
  3  4  1  0
  4  5  1  0
  5  6  1  0
  2  7  1  0
  7  8  1  0
  8  9  1  0
  9  2  1  0
  1 10  1  0
  1 11  1  0
  1 12  1  0
  3 13  1  0
  3 14  1  0
  4 15  1  0
  4 16  1  0
  5 17  1  0
  5 18  1  0
  6 19  1  0
  7 20  1  0
  7 21  1  0
  8 22  1  0
  8 23  1  0
M  END
