
     RDKit          3D

 21 21  0  0  0  0  0  0  0  0999 V2000
    1.7353   -0.1317    0.9303 C   0  0  0  0  0  0  0  0  0  0  0  0
    0.7248    0.0059   -0.1942 C   0  0  0  0  0  0  0  0  0  0  0  0
    1.2252    0.8915   -1.3031 C   0  0  0  0  0  0  0  0  0  0  0  0
    0.0020   -1.2593   -0.5094 C   0  0  0  0  0  0  0  0  0  0  0  0
   -0.7087   -0.1104    0.1315 C   0  0  0  0  0  0  0  0  0  0  0  0
   -1.1937   -0.2292    1.5566 C   0  0  0  0  0  0  0  0  0  0  0  0
   -1.7538    0.5263   -0.7658 C   0  0  0  0  0  0  0  0  0  0  0  0
    1.4777   -0.8950    1.6605 H   0  0  0  0  0  0  0  0  0  0  0  0
    2.0011    0.8524    1.3674 H   0  0  0  0  0  0  0  0  0  0  0  0
    2.6850   -0.4863    0.4293 H   0  0  0  0  0  0  0  0  0  0  0  0
    0.4486    1.3129   -1.9362 H   0  0  0  0  0  0  0  0  0  0  0  0
    1.7492    1.7634   -0.8190 H   0  0  0  0  0  0  0  0  0  0  0  0
    1.9532    0.3302   -1.9385 H   0  0  0  0  0  0  0  0  0  0  0  0
   -0.2162   -1.5400   -1.5629 H   0  0  0  0  0  0  0  0  0  0  0  0
    0.1511   -2.1621    0.1334 H   0  0  0  0  0  0  0  0  0  0  0  0
   -0.4513   -0.6006    2.2555 H   0  0  0  0  0  0  0  0  0  0  0  0
   -1.5406    0.7652    1.8895 H   0  0  0  0  0  0  0  0  0  0  0  0
   -2.0578   -0.9219    1.5590 H   0  0  0  0  0  0  0  0  0  0  0  0
   -2.6384   -0.1764   -0.7372 H   0  0  0  0  0  0  0  0  0  0  0  0
   -2.1382    1.4759   -0.3363 H   0  0  0  0  0  0  0  0  0  0  0  0
   -1.4545    0.5891   -1.8105 H   0  0  0  0  0  0  0  0  0  0  0  0
  1  2  1  0
  2  3  1  0
  2  4  1  0
  4  5  1  0
  5  6  1  0
  5  7  1  0
  5  2  1  0
  1  8  1  0
  1  9  1  0
  1 10  1  0
  3 11  1  0
  3 12  1  0
  3 13  1  0
  4 14  1  0
  4 15  1  0
  6 16  1  0
  6 17  1  0
  6 18  1  0
  7 19  1  0
  7 20  1  0
  7 21  1  0
M  END
