
     RDKit          3D

 21 21  0  0  0  0  0  0  0  0999 V2000
   -1.9989   -0.8045    0.8910 C   0  0  0  0  0  0  0  0  0  0  0  0
   -0.9126    0.0746    0.3038 C   0  0  0  0  0  0  0  0  0  0  0  0
   -1.4069    1.2038   -0.5576 C   0  0  0  0  0  0  0  0  0  0  0  0
    0.0206    0.5141    1.2507 O   0  0  0  0  0  0  0  0  0  0  0  0
    1.0985   -0.1445    0.6983 C   0  0  0  0  0  0  0  0  0  0  0  0
    2.1160    0.7255   -0.0064 C   0  0  0  0  0  0  0  0  0  0  0  0
    3.1139   -0.1552   -0.4841 O   0  0  0  0  0  0  0  0  0  0  0  0
    0.1686   -0.7763   -0.3135 C   0  0  0  0  0  0  0  0  0  0  0  0
    0.3944   -0.4095   -1.6223 O   0  0  0  0  0  0  0  0  0  0  0  0
   -1.4753   -1.6119    1.4556 H   0  0  0  0  0  0  0  0  0  0  0  0
   -2.6943   -0.2575    1.5366 H   0  0  0  0  0  0  0  0  0  0  0  0
   -2.5078   -1.3011    0.0207 H   0  0  0  0  0  0  0  0  0  0  0  0
   -1.6667    0.8914   -1.5783 H   0  0  0  0  0  0  0  0  0  0  0  0
   -2.2499    1.6865   -0.0319 H   0  0  0  0  0  0  0  0  0  0  0  0
   -0.5821    1.9512   -0.6210 H   0  0  0  0  0  0  0  0  0  0  0  0
    1.5315   -0.8554    1.4306 H   0  0  0  0  0  0  0  0  0  0  0  0
    2.5253    1.5109    0.6283 H   0  0  0  0  0  0  0  0  0  0  0  0
    1.6768    1.1804   -0.9160 H   0  0  0  0  0  0  0  0  0  0  0  0
    3.2159   -0.8504    0.2158 H   0  0  0  0  0  0  0  0  0  0  0  0
    0.0408   -1.8772   -0.1539 H   0  0  0  0  0  0  0  0  0  0  0  0
   -0.4077   -0.6949   -2.1461 H   0  0  0  0  0  0  0  0  0  0  0  0
  1  2  1  0
  2  3  1  0
  2  4  1  0
  4  5  1  0
  5  6  1  0
  6  7  1  0
  5  8  1  0
  8  9  1  0
  8  2  1  0
  1 10  1  0
  1 11  1  0
  1 12  1  0
  3 13  1  0
  3 14  1  0
  3 15  1  0
  5 16  1  0
  6 17  1  0
  6 18  1  0
  7 19  1  0
  8 20  1  0
  9 21  1  0
M  END
