
     RDKit          3D

 21 21  0  0  0  0  0  0  0  0999 V2000
    0.9903    1.1921    0.6162 C   0  0  0  0  0  0  0  0  0  0  0  0
    0.8158   -0.1585   -0.0113 C   0  0  0  0  0  0  0  0  0  0  0  0
    1.5282   -0.1980   -1.3631 C   0  0  0  0  0  0  0  0  0  0  0  0
    1.1827   -1.1816    0.8504 O   0  0  0  0  0  0  0  0  0  0  0  0
   -0.1538   -1.3171    1.2069 C   0  0  0  0  0  0  0  0  0  0  0  0
   -0.5715   -0.6966   -0.0917 C   0  0  0  0  0  0  0  0  0  0  0  0
   -0.7115   -1.6172   -1.1210 O   0  0  0  0  0  0  0  0  0  0  0  0
   -1.6915    0.3136   -0.0075 C   0  0  0  0  0  0  0  0  0  0  0  0
   -1.4684    1.1828    1.0395 O   0  0  0  0  0  0  0  0  0  0  0  0
    0.7724    1.2118    1.7031 H   0  0  0  0  0  0  0  0  0  0  0  0
    2.0908    1.4337    0.5406 H   0  0  0  0  0  0  0  0  0  0  0  0
    0.4852    2.0030    0.0536 H   0  0  0  0  0  0  0  0  0  0  0  0
    1.6355   -1.2419   -1.7234 H   0  0  0  0  0  0  0  0  0  0  0  0
    2.5150    0.2996   -1.2784 H   0  0  0  0  0  0  0  0  0  0  0  0
    0.8825    0.4178   -2.0512 H   0  0  0  0  0  0  0  0  0  0  0  0
   -0.4233   -0.7152    2.1152 H   0  0  0  0  0  0  0  0  0  0  0  0
   -0.4782   -2.3856    1.3091 H   0  0  0  0  0  0  0  0  0  0  0  0
   -1.1133   -1.1913   -1.9199 H   0  0  0  0  0  0  0  0  0  0  0  0
   -1.7609    0.8237   -0.9890 H   0  0  0  0  0  0  0  0  0  0  0  0
   -2.6290   -0.2467    0.2191 H   0  0  0  0  0  0  0  0  0  0  0  0
   -1.8972    2.0714    0.9028 H   0  0  0  0  0  0  0  0  0  0  0  0
  1  2  1  0
  2  3  1  0
  2  4  1  0
  4  5  1  0
  5  6  1  0
  6  7  1  0
  6  8  1  0
  8  9  1  0
  6  2  1  0
  1 10  1  0
  1 11  1  0
  1 12  1  0
  3 13  1  0
  3 14  1  0
  3 15  1  0
  5 16  1  0
  5 17  1  0
  7 18  1  0
  8 19  1  0
  8 20  1  0
  9 21  1  0
M  END
