
     RDKit          3D

 23 24  0  0  0  0  0  0  0  0999 V2000
   -1.5859    1.1700   -0.8425 C   0  0  0  0  0  0  0  0  0  0  0  0
   -0.9322    0.1816    0.1063 C   0  0  0  0  0  0  0  0  0  0  0  0
    0.0066   -0.7815   -0.5449 C   0  0  0  0  0  0  0  0  0  0  0  0
    0.6904   -1.7842    0.3273 C   0  0  0  0  0  0  0  0  0  0  0  0
    1.4627   -0.7064   -0.4485 C   0  0  0  0  0  0  0  0  0  0  0  0
    2.2076    0.3151    0.3273 C   0  0  0  0  0  0  0  0  0  0  0  0
    1.9675    1.6202   -0.0815 O   0  0  0  0  0  0  0  0  0  0  0  0
   -1.9561   -0.4574    1.0506 C   0  0  0  0  0  0  0  0  0  0  0  0
   -0.8985    0.5281    1.5267 C   0  0  0  0  0  0  0  0  0  0  0  0
   -0.8893    1.5516   -1.6014 H   0  0  0  0  0  0  0  0  0  0  0  0
   -2.0852    1.9575   -0.2561 H   0  0  0  0  0  0  0  0  0  0  0  0
   -2.3961    0.5900   -1.3591 H   0  0  0  0  0  0  0  0  0  0  0  0
   -0.4322   -1.2516   -1.4744 H   0  0  0  0  0  0  0  0  0  0  0  0
    0.6965   -1.6517    1.4318 H   0  0  0  0  0  0  0  0  0  0  0  0
    0.7987   -2.8353    0.0205 H   0  0  0  0  0  0  0  0  0  0  0  0
    2.0413   -1.1462   -1.3115 H   0  0  0  0  0  0  0  0  0  0  0  0
    2.0238    0.2626    1.4407 H   0  0  0  0  0  0  0  0  0  0  0  0
    3.2989    0.1435    0.2200 H   0  0  0  0  0  0  0  0  0  0  0  0
    2.2317    2.2069    0.6810 H   0  0  0  0  0  0  0  0  0  0  0  0
   -1.8232   -1.5175    1.2788 H   0  0  0  0  0  0  0  0  0  0  0  0
   -2.9693   -0.0690    1.0976 H   0  0  0  0  0  0  0  0  0  0  0  0
   -1.2362    1.5678    1.8005 H   0  0  0  0  0  0  0  0  0  0  0  0
   -0.2214    0.1060    2.2678 H   0  0  0  0  0  0  0  0  0  0  0  0
  1  2  1  0
  2  3  1  0
  3  4  1  0
  4  5  1  0
  5  6  1  0
  6  7  1  0
  2  8  1  0
  8  9  1  0
  9  2  1  0
  5  3  1  0
  1 10  1  0
  1 11  1  0
  1 12  1  0
  3 13  1  0
  4 14  1  0
  4 15  1  0
  5 16  1  0
  6 17  1  0
  6 18  1  0
  7 19  1  0
  8 20  1  0
  8 21  1  0
  9 22  1  0
  9 23  1  0
M  END
