
     RDKit          3D

 20 20  0  0  0  0  0  0  0  0999 V2000
    0.0177    1.9888    0.2311 C   0  0  0  0  0  0  0  0  0  0  0  0
    0.0787    0.4772    0.0811 C   0  0  0  0  0  0  0  0  0  0  0  0
    1.3790    0.1754   -0.6620 C   0  0  0  0  0  0  0  0  0  0  0  0
    1.5709   -1.1672   -0.8709 O   0  0  0  0  0  0  0  0  0  0  0  0
    0.0341   -0.2201    1.3677 C   0  0  0  0  0  0  0  0  0  0  0  0
   -0.6841   -1.3200    1.2409 C   0  0  0  0  0  0  0  0  0  0  0  0
   -1.1922   -1.4601   -0.1571 C   0  0  0  0  0  0  0  0  0  0  0  0
   -1.1133   -0.0305   -0.6751 C   0  0  0  0  0  0  0  0  0  0  0  0
   -0.0583    2.3951   -0.8057 H   0  0  0  0  0  0  0  0  0  0  0  0
    0.9814    2.3016    0.6620 H   0  0  0  0  0  0  0  0  0  0  0  0
   -0.8538    2.3121    0.8101 H   0  0  0  0  0  0  0  0  0  0  0  0
    1.2918    0.6789   -1.6398 H   0  0  0  0  0  0  0  0  0  0  0  0
    2.1915    0.5745   -0.0322 H   0  0  0  0  0  0  0  0  0  0  0  0
    2.5495   -1.3698   -0.9168 H   0  0  0  0  0  0  0  0  0  0  0  0
    0.5074    0.0937    2.2978 H   0  0  0  0  0  0  0  0  0  0  0  0
   -0.9074   -2.0596    2.0152 H   0  0  0  0  0  0  0  0  0  0  0  0
   -2.2397   -1.8050   -0.0813 H   0  0  0  0  0  0  0  0  0  0  0  0
   -0.5490   -2.1269   -0.7306 H   0  0  0  0  0  0  0  0  0  0  0  0
   -0.9810    0.0178   -1.7578 H   0  0  0  0  0  0  0  0  0  0  0  0
   -2.0233    0.5440   -0.3764 H   0  0  0  0  0  0  0  0  0  0  0  0
  1  2  1  0
  2  3  1  0
  3  4  1  0
  2  5  1  0
  5  6  2  0
  6  7  1  0
  7  8  1  0
  8  2  1  0
  1  9  1  0
  1 10  1  0
  1 11  1  0
  3 12  1  0
  3 13  1  0
  4 14  1  0
  5 15  1  0
  6 16  1  0
  7 17  1  0
  7 18  1  0
  8 19  1  0
  8 20  1  0
M  END
