
     RDKit          3D

 23 24  0  0  0  0  0  0  0  0999 V2000
   -1.9109    0.4979    0.7583 C   0  0  0  0  0  0  0  0  0  0  0  0
   -0.7619   -0.0238   -0.0480 C   0  0  0  0  0  0  0  0  0  0  0  0
   -1.3363   -0.8995   -1.1686 C   0  0  0  0  0  0  0  0  0  0  0  0
   -0.0671    1.1287   -0.7297 C   0  0  0  0  0  0  0  0  0  0  0  0
    1.4039    0.9378   -0.5132 C   0  0  0  0  0  0  0  0  0  0  0  0
    1.5462   -0.3681    0.1969 C   0  0  0  0  0  0  0  0  0  0  0  0
    2.5139   -1.2834   -0.1695 O   0  0  0  0  0  0  0  0  0  0  0  0
    1.1720   -0.2881    1.6815 C   0  0  0  0  0  0  0  0  0  0  0  0
    0.2349   -0.8086    0.6998 C   0  0  0  0  0  0  0  0  0  0  0  0
   -1.7852    1.6035    0.9229 H   0  0  0  0  0  0  0  0  0  0  0  0
   -2.0504   -0.0123    1.7203 H   0  0  0  0  0  0  0  0  0  0  0  0
   -2.8647    0.4215    0.1633 H   0  0  0  0  0  0  0  0  0  0  0  0
   -0.5060   -1.3856   -1.7092 H   0  0  0  0  0  0  0  0  0  0  0  0
   -2.0376   -1.6276   -0.7007 H   0  0  0  0  0  0  0  0  0  0  0  0
   -1.9367   -0.2395   -1.8160 H   0  0  0  0  0  0  0  0  0  0  0  0
   -0.2426    1.1582   -1.8223 H   0  0  0  0  0  0  0  0  0  0  0  0
   -0.4388    2.0909   -0.3283 H   0  0  0  0  0  0  0  0  0  0  0  0
    1.7253    1.7419    0.2104 H   0  0  0  0  0  0  0  0  0  0  0  0
    2.0197    1.0626   -1.3993 H   0  0  0  0  0  0  0  0  0  0  0  0
    2.4696   -1.4833   -1.1209 H   0  0  0  0  0  0  0  0  0  0  0  0
    1.7087   -1.0171    2.3134 H   0  0  0  0  0  0  0  0  0  0  0  0
    1.1058    0.7147    2.1490 H   0  0  0  0  0  0  0  0  0  0  0  0
    0.0383   -1.9208    0.7100 H   0  0  0  0  0  0  0  0  0  0  0  0
  1  2  1  0
  2  3  1  0
  2  4  1  0
  4  5  1  0
  5  6  1  0
  6  7  1  0
  6  8  1  0
  8  9  1  0
  9  2  1  0
  9  6  1  0
  1 10  1  0
  1 11  1  0
  1 12  1  0
  3 13  1  0
  3 14  1  0
  3 15  1  0
  4 16  1  0
  4 17  1  0
  5 18  1  0
  5 19  1  0
  7 20  1  0
  8 21  1  0
  8 22  1  0
  9 23  1  0
M  END
