
     RDKit          3D

 18 18  0  0  0  0  0  0  0  0999 V2000
   -0.4580    1.6634    0.0832 C   0  0  0  0  0  0  0  0  0  0  0  0
   -0.2775    0.1923    0.1906 C   0  0  0  0  0  0  0  0  0  0  0  0
   -1.5486   -0.5436    0.5920 C   0  0  0  0  0  0  0  0  0  0  0  0
   -1.2510   -1.9048    0.5097 O   0  0  0  0  0  0  0  0  0  0  0  0
    0.2421   -0.3242   -1.1161 C   0  0  0  0  0  0  0  0  0  0  0  0
    1.5427   -0.5149   -0.9773 C   0  0  0  0  0  0  0  0  0  0  0  0
    1.9068   -0.1370    0.3939 C   0  0  0  0  0  0  0  0  0  0  0  0
    0.7137   -0.1837    1.0927 O   0  0  0  0  0  0  0  0  0  0  0  0
   -0.7331    2.0702    1.0763 H   0  0  0  0  0  0  0  0  0  0  0  0
    0.4853    2.1137   -0.2305 H   0  0  0  0  0  0  0  0  0  0  0  0
   -1.2405    1.8881   -0.6436 H   0  0  0  0  0  0  0  0  0  0  0  0
   -2.4159   -0.2512   -0.0196 H   0  0  0  0  0  0  0  0  0  0  0  0
   -1.8059   -0.3499    1.6498 H   0  0  0  0  0  0  0  0  0  0  0  0
   -1.8908   -2.3918   -0.0619 H   0  0  0  0  0  0  0  0  0  0  0  0
   -0.3422   -0.5103   -2.0188 H   0  0  0  0  0  0  0  0  0  0  0  0
    2.1624   -0.8910   -1.7925 H   0  0  0  0  0  0  0  0  0  0  0  0
    2.6416   -0.8456    0.8229 H   0  0  0  0  0  0  0  0  0  0  0  0
    2.2692    0.9202    0.4491 H   0  0  0  0  0  0  0  0  0  0  0  0
  1  2  1  0
  2  3  1  0
  3  4  1  0
  2  5  1  0
  5  6  2  0
  6  7  1  0
  7  8  1  0
  8  2  1  0
  1  9  1  0
  1 10  1  0
  1 11  1  0
  3 12  1  0
  3 13  1  0
  4 14  1  0
  5 15  1  0
  6 16  1  0
  7 17  1  0
  7 18  1  0
M  END
