
     RDKit          3D

 21 23  0  0  0  0  0  0  0  0999 V2000
    1.8451   -0.3055   -1.1335 C   0  0  0  0  0  0  0  0  0  0  0  0
    1.1399    0.1599    0.1236 C   0  0  0  0  0  0  0  0  0  0  0  0
    2.0671    0.6677    1.0050 O   0  0  0  0  0  0  0  0  0  0  0  0
    0.3937   -1.0246    0.6825 C   0  0  0  0  0  0  0  0  0  0  0  0
   -1.0379   -0.5781    0.8985 C   0  0  0  0  0  0  0  0  0  0  0  0
   -1.8261   -0.6240   -0.3899 C   0  0  0  0  0  0  0  0  0  0  0  0
   -1.2087    0.6695   -0.7837 C   0  0  0  0  0  0  0  0  0  0  0  0
   -0.9937    0.9102    0.7455 C   0  0  0  0  0  0  0  0  0  0  0  0
    0.0503    1.1789   -0.2104 C   0  0  0  0  0  0  0  0  0  0  0  0
    2.4570   -1.1852   -0.8563 H   0  0  0  0  0  0  0  0  0  0  0  0
    1.0457   -0.6878   -1.8127 H   0  0  0  0  0  0  0  0  0  0  0  0
    2.4146    0.5304   -1.5457 H   0  0  0  0  0  0  0  0  0  0  0  0
    1.6958    1.2530    1.7041 H   0  0  0  0  0  0  0  0  0  0  0  0
    0.8322   -1.3436    1.6567 H   0  0  0  0  0  0  0  0  0  0  0  0
    0.3946   -1.8885   -0.0088 H   0  0  0  0  0  0  0  0  0  0  0  0
   -1.5365   -0.9456    1.7903 H   0  0  0  0  0  0  0  0  0  0  0  0
   -1.6120   -1.4483   -1.0657 H   0  0  0  0  0  0  0  0  0  0  0  0
   -2.9144   -0.4616   -0.1371 H   0  0  0  0  0  0  0  0  0  0  0  0
   -1.8699    1.3826   -1.3009 H   0  0  0  0  0  0  0  0  0  0  0  0
   -1.7161    1.5764    1.1731 H   0  0  0  0  0  0  0  0  0  0  0  0
    0.3792    2.1642   -0.5346 H   0  0  0  0  0  0  0  0  0  0  0  0
  1  2  1  0
  2  3  1  0
  2  4  1  0
  4  5  1  0
  5  6  1  0
  6  7  1  0
  7  8  1  0
  8  9  1  0
  9  2  1  0
  8  5  1  0
  9  7  1  0
  1 10  1  0
  1 11  1  0
  1 12  1  0
  3 13  1  0
  4 14  1  0
  4 15  1  0
  5 16  1  0
  6 17  1  0
  6 18  1  0
  7 19  1  0
  8 20  1  0
  9 21  1  0
M  END
