
     RDKit          3D

 19 20  0  0  0  0  0  0  0  0999 V2000
   -1.0007   -1.1921   -0.4414 C   0  0  0  0  0  0  0  0  0  0  0  0
   -0.4845    0.1665   -0.1103 C   0  0  0  0  0  0  0  0  0  0  0  0
   -1.4637    1.2843   -0.0446 C   0  0  0  0  0  0  0  0  0  0  0  0
    0.8353    0.4689   -0.7895 C   0  0  0  0  0  0  0  0  0  0  0  0
    1.5456   -0.8205   -0.5640 C   0  0  0  0  0  0  0  0  0  0  0  0
    1.2598   -1.0835    0.7185 C   0  0  0  0  0  0  0  0  0  0  0  0
    0.4325    0.0893    1.1095 C   0  0  0  0  0  0  0  0  0  0  0  0
    1.1775    1.1783    0.4557 C   0  0  0  0  0  0  0  0  0  0  0  0
    1.7636    2.1493    0.7846 O   0  0  0  0  0  0  0  0  0  0  0  0
   -1.2571   -1.6922    0.5383 H   0  0  0  0  0  0  0  0  0  0  0  0
   -1.8869   -1.1642   -1.0933 H   0  0  0  0  0  0  0  0  0  0  0  0
   -0.2372   -1.8267   -0.9196 H   0  0  0  0  0  0  0  0  0  0  0  0
   -2.4495    0.8985   -0.4022 H   0  0  0  0  0  0  0  0  0  0  0  0
   -1.6176    1.5487    1.0209 H   0  0  0  0  0  0  0  0  0  0  0  0
   -1.1727    2.1543   -0.6511 H   0  0  0  0  0  0  0  0  0  0  0  0
    0.8577    0.9414   -1.7259 H   0  0  0  0  0  0  0  0  0  0  0  0
    2.1276   -1.3551   -1.2962 H   0  0  0  0  0  0  0  0  0  0  0  0
    1.5417   -1.9235    1.3412 H   0  0  0  0  0  0  0  0  0  0  0  0
    0.0285    0.1784    2.0693 H   0  0  0  0  0  0  0  0  0  0  0  0
  1  2  1  0
  2  3  1  0
  2  4  1  0
  4  5  1  0
  5  6  2  0
  6  7  1  0
  7  8  1  0
  8  9  2  0
  7  2  1  0
  8  4  1  0
  1 10  1  0
  1 11  1  0
  1 12  1  0
  3 13  1  0
  3 14  1  0
  3 15  1  0
  4 16  1  0
  5 17  1  0
  6 18  1  0
  7 19  1  0
M  END
