
     RDKit          3D

 21 21  0  0  0  0  0  0  0  0999 V2000
   -1.2605   -0.1547    1.3982 C   0  0  0  0  0  0  0  0  0  0  0  0
   -0.9836   -0.1757   -0.0644 C   0  0  0  0  0  0  0  0  0  0  0  0
    0.2951   -0.6001   -0.3768 O   0  0  0  0  0  0  0  0  0  0  0  0
    1.2844    0.2026    0.1749 C   0  0  0  0  0  0  0  0  0  0  0  0
    2.6189   -0.3983   -0.2620 C   0  0  0  0  0  0  0  0  0  0  0  0
    3.6903    0.3243    0.2327 O   0  0  0  0  0  0  0  0  0  0  0  0
   -1.4867    1.0211   -0.8252 C   0  0  0  0  0  0  0  0  0  0  0  0
   -2.7063    0.3312   -1.0010 O   0  0  0  0  0  0  0  0  0  0  0  0
   -1.9950   -0.8481   -0.9437 C   0  0  0  0  0  0  0  0  0  0  0  0
   -1.0246    0.8369    1.8583 H   0  0  0  0  0  0  0  0  0  0  0  0
   -2.3193   -0.4466    1.5598 H   0  0  0  0  0  0  0  0  0  0  0  0
   -0.6267   -0.9117    1.8903 H   0  0  0  0  0  0  0  0  0  0  0  0
    1.2602    0.2594    1.2662 H   0  0  0  0  0  0  0  0  0  0  0  0
    1.2406    1.2062   -0.3250 H   0  0  0  0  0  0  0  0  0  0  0  0
    2.6088   -1.4525    0.0951 H   0  0  0  0  0  0  0  0  0  0  0  0
    2.6982   -0.4208   -1.3634 H   0  0  0  0  0  0  0  0  0  0  0  0
    3.4109    0.8197    1.0424 H   0  0  0  0  0  0  0  0  0  0  0  0
   -1.7053    1.9249   -0.2078 H   0  0  0  0  0  0  0  0  0  0  0  0
   -0.9615    1.2729   -1.7537 H   0  0  0  0  0  0  0  0  0  0  0  0
   -2.4925   -1.6987   -0.4497 H   0  0  0  0  0  0  0  0  0  0  0  0
   -1.5451   -1.0921   -1.9451 H   0  0  0  0  0  0  0  0  0  0  0  0
  1  2  1  0
  2  3  1  0
  3  4  1  0
  4  5  1  0
  5  6  1  0
  2  7  1  0
  7  8  1  0
  8  9  1  0
  9  2  1  0
  1 10  1  0
  1 11  1  0
  1 12  1  0
  4 13  1  0
  4 14  1  0
  5 15  1  0
  5 16  1  0
  6 17  1  0
  7 18  1  0
  7 19  1  0
  9 20  1  0
  9 21  1  0
M  END
