
     RDKit          3D

 21 22  0  0  0  0  0  0  0  0999 V2000
   -1.9044   -0.2825   -0.8190 C   0  0  0  0  0  0  0  0  0  0  0  0
   -0.7577    0.0869    0.0576 C   0  0  0  0  0  0  0  0  0  0  0  0
   -1.2272    1.2243    0.9676 C   0  0  0  0  0  0  0  0  0  0  0  0
   -0.3705   -1.0173    0.7955 O   0  0  0  0  0  0  0  0  0  0  0  0
    0.6454   -1.6300    0.0672 C   0  0  0  0  0  0  0  0  0  0  0  0
    1.4837   -0.4927   -0.4539 C   0  0  0  0  0  0  0  0  0  0  0  0
    2.0974    0.3992    0.5906 C   0  0  0  0  0  0  0  0  0  0  0  0
    1.2500    1.4268    0.1330 O   0  0  0  0  0  0  0  0  0  0  0  0
    0.4483    0.5887   -0.6777 C   0  0  0  0  0  0  0  0  0  0  0  0
   -2.4999    0.5892   -1.1798 H   0  0  0  0  0  0  0  0  0  0  0  0
   -1.6487   -0.8985   -1.6899 H   0  0  0  0  0  0  0  0  0  0  0  0
   -2.6227   -0.8826   -0.1986 H   0  0  0  0  0  0  0  0  0  0  0  0
   -2.0589    0.8084    1.5663 H   0  0  0  0  0  0  0  0  0  0  0  0
   -0.3565    1.5126    1.5732 H   0  0  0  0  0  0  0  0  0  0  0  0
   -1.5187    2.0778    0.3568 H   0  0  0  0  0  0  0  0  0  0  0  0
    0.2720   -2.1886   -0.8128 H   0  0  0  0  0  0  0  0  0  0  0  0
    1.2468   -2.2324    0.7528 H   0  0  0  0  0  0  0  0  0  0  0  0
    2.1282   -0.7191   -1.3074 H   0  0  0  0  0  0  0  0  0  0  0  0
    3.1642    0.6043    0.3370 H   0  0  0  0  0  0  0  0  0  0  0  0
    1.9148    0.0930    1.6427 H   0  0  0  0  0  0  0  0  0  0  0  0
    0.3145    0.9324   -1.7012 H   0  0  0  0  0  0  0  0  0  0  0  0
  1  2  1  0
  2  3  1  0
  2  4  1  0
  4  5  1  0
  5  6  1  0
  6  7  1  0
  7  8  1  0
  8  9  1  0
  9  2  1  0
  9  6  1  0
  1 10  1  0
  1 11  1  0
  1 12  1  0
  3 13  1  0
  3 14  1  0
  3 15  1  0
  5 16  1  0
  5 17  1  0
  6 18  1  0
  7 19  1  0
  7 20  1  0
  9 21  1  0
M  END
