
     RDKit          3D

 18 19  0  0  0  0  0  0  0  0999 V2000
   -1.7551    0.7294    0.6502 C   0  0  0  0  0  0  0  0  0  0  0  0
   -0.5778    0.0041    0.0876 C   0  0  0  0  0  0  0  0  0  0  0  0
   -0.9398   -1.3810   -0.2978 C   0  0  0  0  0  0  0  0  0  0  0  0
   -0.8349   -2.2881    0.5067 O   0  0  0  0  0  0  0  0  0  0  0  0
    0.2477    0.7530   -0.9283 C   0  0  0  0  0  0  0  0  0  0  0  0
    1.5285    0.4759   -0.1917 C   0  0  0  0  0  0  0  0  0  0  0  0
    1.7785   -0.8202    0.4528 C   0  0  0  0  0  0  0  0  0  0  0  0
    0.6518   -0.0230    0.9813 C   0  0  0  0  0  0  0  0  0  0  0  0
   -1.4594    1.7407    0.9754 H   0  0  0  0  0  0  0  0  0  0  0  0
   -2.1056    0.1882    1.5415 H   0  0  0  0  0  0  0  0  0  0  0  0
   -2.5511    0.7424   -0.0982 H   0  0  0  0  0  0  0  0  0  0  0  0
   -1.2966   -1.5681   -1.3012 H   0  0  0  0  0  0  0  0  0  0  0  0
    0.0137    1.8411   -0.8650 H   0  0  0  0  0  0  0  0  0  0  0  0
    0.2207    0.3500   -1.9440 H   0  0  0  0  0  0  0  0  0  0  0  0
    2.2426    1.2813    0.0094 H   0  0  0  0  0  0  0  0  0  0  0  0
    2.6522   -0.9205    1.0903 H   0  0  0  0  0  0  0  0  0  0  0  0
    1.4703   -1.7242   -0.1394 H   0  0  0  0  0  0  0  0  0  0  0  0
    0.7143    0.6189    1.8561 H   0  0  0  0  0  0  0  0  0  0  0  0
  1  2  1  0
  2  3  1  0
  3  4  2  0
  2  5  1  0
  5  6  1  0
  6  7  1  0
  7  8  1  0
  8  2  1  0
  8  6  1  0
  1  9  1  0
  1 10  1  0
  1 11  1  0
  3 12  1  0
  5 13  1  0
  5 14  1  0
  6 15  1  0
  7 16  1  0
  7 17  1  0
  8 18  1  0
M  END
