
     RDKit          3D

 21 22  0  0  0  0  0  0  0  0999 V2000
   -0.3087    1.2552    0.9220 C   0  0  0  0  0  0  0  0  0  0  0  0
   -0.3283    0.1356   -0.0601 C   0  0  0  0  0  0  0  0  0  0  0  0
    0.9702   -0.4122   -0.5261 C   0  0  0  0  0  0  0  0  0  0  0  0
    1.8451   -0.9775    0.5557 C   0  0  0  0  0  0  0  0  0  0  0  0
    2.2701    0.1897   -0.2945 C   0  0  0  0  0  0  0  0  0  0  0  0
   -1.3001   -0.9887    0.2561 C   0  0  0  0  0  0  0  0  0  0  0  0
   -2.3749   -0.0698   -0.2450 C   0  0  0  0  0  0  0  0  0  0  0  0
   -3.5504    0.1387    0.0069 O   0  0  0  0  0  0  0  0  0  0  0  0
   -1.3235    0.4533   -1.1826 C   0  0  0  0  0  0  0  0  0  0  0  0
   -1.3767    1.6102    1.0249 H   0  0  0  0  0  0  0  0  0  0  0  0
    0.0996    0.9698    1.9188 H   0  0  0  0  0  0  0  0  0  0  0  0
    0.2419    2.1065    0.4805 H   0  0  0  0  0  0  0  0  0  0  0  0
    0.8646   -1.0566   -1.4471 H   0  0  0  0  0  0  0  0  0  0  0  0
    2.2493   -1.9747    0.4055 H   0  0  0  0  0  0  0  0  0  0  0  0
    1.6343   -0.6889    1.6243 H   0  0  0  0  0  0  0  0  0  0  0  0
    3.0947   -0.0457   -1.0131 H   0  0  0  0  0  0  0  0  0  0  0  0
    2.4137    1.1874    0.1745 H   0  0  0  0  0  0  0  0  0  0  0  0
   -1.1743   -1.8099   -0.4820 H   0  0  0  0  0  0  0  0  0  0  0  0
   -1.3743   -1.2754    1.3029 H   0  0  0  0  0  0  0  0  0  0  0  0
   -1.3772    1.5105   -1.4113 H   0  0  0  0  0  0  0  0  0  0  0  0
   -1.1951   -0.2574   -2.0102 H   0  0  0  0  0  0  0  0  0  0  0  0
  1  2  1  0
  2  3  1  0
  3  4  1  0
  4  5  1  0
  2  6  1  0
  6  7  1  0
  7  8  2  0
  7  9  1  0
  9  2  1  0
  5  3  1  0
  1 10  1  0
  1 11  1  0
  1 12  1  0
  3 13  1  0
  4 14  1  0
  4 15  1  0
  5 16  1  0
  5 17  1  0
  6 18  1  0
  6 19  1  0
  9 20  1  0
  9 21  1  0
M  END
