
     RDKit          3D

 17 17  0  0  0  0  0  0  0  0999 V2000
   -1.5029    0.9308   -0.4032 C   0  0  0  0  0  0  0  0  0  0  0  0
   -0.4192    0.1755    0.3534 C   0  0  0  0  0  0  0  0  0  0  0  0
   -0.2895    0.5095    1.6745 O   0  0  0  0  0  0  0  0  0  0  0  0
   -0.5662   -1.3084    0.0661 C   0  0  0  0  0  0  0  0  0  0  0  0
    0.8250   -1.3497   -0.4743 C   0  0  0  0  0  0  0  0  0  0  0  0
    1.6227   -2.2087   -0.7961 O   0  0  0  0  0  0  0  0  0  0  0  0
    0.8384    0.1522   -0.4580 C   0  0  0  0  0  0  0  0  0  0  0  0
    2.0634    0.6414    0.1963 C   0  0  0  0  0  0  0  0  0  0  0  0
    2.0343    1.3508    1.1703 O   0  0  0  0  0  0  0  0  0  0  0  0
   -1.2816    2.0056   -0.3787 H   0  0  0  0  0  0  0  0  0  0  0  0
   -1.3907    0.6176   -1.4822 H   0  0  0  0  0  0  0  0  0  0  0  0
   -2.5069    0.6478   -0.0886 H   0  0  0  0  0  0  0  0  0  0  0  0
   -1.1748    0.4373    2.1070 H   0  0  0  0  0  0  0  0  0  0  0  0
   -1.2887   -1.5637   -0.7301 H   0  0  0  0  0  0  0  0  0  0  0  0
   -0.7254   -1.9466    0.9532 H   0  0  0  0  0  0  0  0  0  0  0  0
    0.7518    0.5558   -1.4964 H   0  0  0  0  0  0  0  0  0  0  0  0
    3.0105    0.3527   -0.2133 H   0  0  0  0  0  0  0  0  0  0  0  0
  1  2  1  0
  2  3  1  0
  2  4  1  0
  4  5  1  0
  5  6  2  0
  5  7  1  0
  7  8  1  0
  8  9  2  0
  7  2  1  0
  1 10  1  0
  1 11  1  0
  1 12  1  0
  3 13  1  0
  4 14  1  0
  4 15  1  0
  7 16  1  0
  8 17  1  0
M  END
