
     RDKit          3D

 17 18  0  0  0  0  0  0  0  0999 V2000
   -1.6196    0.1621   -0.4519 C   0  0  0  0  0  0  0  0  0  0  0  0
   -0.4445   -0.6076    0.0684 C   0  0  0  0  0  0  0  0  0  0  0  0
   -0.6720   -1.8866    0.5028 O   0  0  0  0  0  0  0  0  0  0  0  0
    0.4033    0.1665    1.0787 C   0  0  0  0  0  0  0  0  0  0  0  0
    0.6813    1.4463    0.3649 C   0  0  0  0  0  0  0  0  0  0  0  0
    0.9899    1.0197   -0.8629 C   0  0  0  0  0  0  0  0  0  0  0  0
    0.8337   -0.4434   -0.7482 C   0  0  0  0  0  0  0  0  0  0  0  0
    1.5370   -0.6763    0.5713 C   0  0  0  0  0  0  0  0  0  0  0  0
    2.5106   -1.2521    0.9697 O   0  0  0  0  0  0  0  0  0  0  0  0
   -1.9226   -0.1968   -1.4421 H   0  0  0  0  0  0  0  0  0  0  0  0
   -1.3608    1.2391   -0.5047 H   0  0  0  0  0  0  0  0  0  0  0  0
   -2.4384    0.0666    0.2744 H   0  0  0  0  0  0  0  0  0  0  0  0
   -1.6086   -2.1148    0.6500 H   0  0  0  0  0  0  0  0  0  0  0  0
    0.1496    0.1514    2.0917 H   0  0  0  0  0  0  0  0  0  0  0  0
    0.6459    2.4655    0.7343 H   0  0  0  0  0  0  0  0  0  0  0  0
    1.2848    1.5527   -1.7521 H   0  0  0  0  0  0  0  0  0  0  0  0
    1.0305   -1.0922   -1.5444 H   0  0  0  0  0  0  0  0  0  0  0  0
  1  2  1  0
  2  3  1  0
  2  4  1  0
  4  5  1  0
  5  6  2  0
  6  7  1  0
  7  8  1  0
  8  9  2  0
  7  2  1  0
  8  4  1  0
  1 10  1  0
  1 11  1  0
  1 12  1  0
  3 13  1  0
  4 14  1  0
  5 15  1  0
  6 16  1  0
  7 17  1  0
M  END
