
     RDKit          3D

 23 23  0  0  0  0  0  0  0  0999 V2000
   -2.3773   -0.2878   -0.8863 C   0  0  0  0  0  0  0  0  0  0  0  0
   -1.0001   -0.2669   -0.1893 C   0  0  0  0  0  0  0  0  0  0  0  0
   -1.1021    0.4570    1.0579 C   0  0  0  0  0  0  0  0  0  0  0  0
   -0.4789   -1.6744   -0.2030 C   0  0  0  0  0  0  0  0  0  0  0  0
   -0.2324   -1.4334   -1.5579 O   0  0  0  0  0  0  0  0  0  0  0  0
    0.0487   -0.1118   -1.1738 C   0  0  0  0  0  0  0  0  0  0  0  0
    1.4785   -0.0044   -0.8896 C   0  0  0  0  0  0  0  0  0  0  0  0
    1.9431    1.1252   -0.0391 C   0  0  0  0  0  0  0  0  0  0  0  0
    3.3512    0.9960    0.0768 O   0  0  0  0  0  0  0  0  0  0  0  0
   -2.2732   -0.7088   -1.9023 H   0  0  0  0  0  0  0  0  0  0  0  0
   -2.7866    0.7261   -0.9383 H   0  0  0  0  0  0  0  0  0  0  0  0
   -3.0166   -0.9676   -0.2827 H   0  0  0  0  0  0  0  0  0  0  0  0
   -0.8929    1.5491    0.8670 H   0  0  0  0  0  0  0  0  0  0  0  0
   -0.4568    0.1743    1.8964 H   0  0  0  0  0  0  0  0  0  0  0  0
   -2.1405    0.4298    1.4505 H   0  0  0  0  0  0  0  0  0  0  0  0
    0.3925   -1.8832    0.4239 H   0  0  0  0  0  0  0  0  0  0  0  0
   -1.3107   -2.4286   -0.0850 H   0  0  0  0  0  0  0  0  0  0  0  0
   -0.2896    0.5445   -2.0331 H   0  0  0  0  0  0  0  0  0  0  0  0
    2.0088    0.1285   -1.8842 H   0  0  0  0  0  0  0  0  0  0  0  0
    1.9510   -0.9374   -0.4788 H   0  0  0  0  0  0  0  0  0  0  0  0
    1.5806    1.0557    1.0007 H   0  0  0  0  0  0  0  0  0  0  0  0
    1.7969    2.1224   -0.4914 H   0  0  0  0  0  0  0  0  0  0  0  0
    3.8063    1.3956   -0.7003 H   0  0  0  0  0  0  0  0  0  0  0  0
  1  2  1  0
  2  3  1  0
  2  4  1  0
  4  5  1  0
  5  6  1  0
  6  7  1  0
  7  8  1  0
  8  9  1  0
  6  2  1  0
  1 10  1  0
  1 11  1  0
  1 12  1  0
  3 13  1  0
  3 14  1  0
  3 15  1  0
  4 16  1  0
  4 17  1  0
  6 18  1  0
  7 19  1  0
  7 20  1  0
  8 21  1  0
  8 22  1  0
  9 23  1  0
M  END
