
     RDKit          3D

 21 22  0  0  0  0  0  0  0  0999 V2000
    2.2320    0.6165    0.0141 C   0  0  0  0  0  0  0  0  0  0  0  0
    1.0664   -0.1441   -0.6468 C   0  0  0  0  0  0  0  0  0  0  0  0
    1.4431   -0.4431   -1.9849 O   0  0  0  0  0  0  0  0  0  0  0  0
    0.3748   -1.0455    0.2009 C   0  0  0  0  0  0  0  0  0  0  0  0
   -0.8020   -0.8459    1.1140 C   0  0  0  0  0  0  0  0  0  0  0  0
   -1.5047   -0.6711   -0.2526 C   0  0  0  0  0  0  0  0  0  0  0  0
   -2.6680    0.0249   -0.0545 O   0  0  0  0  0  0  0  0  0  0  0  0
   -0.3036    0.2183   -0.4753 C   0  0  0  0  0  0  0  0  0  0  0  0
   -0.4289    1.4632    0.4072 C   0  0  0  0  0  0  0  0  0  0  0  0
    3.1926    0.1106   -0.2561 H   0  0  0  0  0  0  0  0  0  0  0  0
    2.3001    1.6450   -0.3629 H   0  0  0  0  0  0  0  0  0  0  0  0
    2.1626    0.5527    1.1226 H   0  0  0  0  0  0  0  0  0  0  0  0
    0.9785   -1.2529   -2.2965 H   0  0  0  0  0  0  0  0  0  0  0  0
    0.1638   -2.0196   -0.3570 H   0  0  0  0  0  0  0  0  0  0  0  0
   -1.1078   -1.7487    1.6527 H   0  0  0  0  0  0  0  0  0  0  0  0
   -0.8262    0.0118    1.7668 H   0  0  0  0  0  0  0  0  0  0  0  0
   -1.5415   -1.6025   -0.8053 H   0  0  0  0  0  0  0  0  0  0  0  0
   -3.4762   -0.3825   -0.4019 H   0  0  0  0  0  0  0  0  0  0  0  0
    0.3733    1.5317    1.1640 H   0  0  0  0  0  0  0  0  0  0  0  0
   -0.1934    2.3131   -0.3070 H   0  0  0  0  0  0  0  0  0  0  0  0
   -1.4352    1.6682    0.7585 H   0  0  0  0  0  0  0  0  0  0  0  0
  1  2  1  0
  2  3  1  0
  2  4  1  0
  4  5  1  0
  5  6  1  0
  6  7  1  0
  6  8  1  0
  8  9  1  0
  8  2  1  0
  8  4  1  0
  1 10  1  0
  1 11  1  0
  1 12  1  0
  3 13  1  0
  4 14  1  0
  5 15  1  0
  5 16  1  0
  6 17  1  0
  7 18  1  0
  9 19  1  0
  9 20  1  0
  9 21  1  0
M  END
