
     RDKit          3D

 19 19  0  0  0  0  0  0  0  0999 V2000
    0.9539    0.5325    1.3334 C   0  0  0  0  0  0  0  0  0  0  0  0
    0.5204   -0.1827    0.0959 C   0  0  0  0  0  0  0  0  0  0  0  0
    1.5616   -0.2078   -0.9806 C   0  0  0  0  0  0  0  0  0  0  0  0
    0.2139   -1.5116    0.4225 O   0  0  0  0  0  0  0  0  0  0  0  0
   -1.0928   -1.5001    0.8350 C   0  0  0  0  0  0  0  0  0  0  0  0
   -1.7130   -0.4647   -0.0245 C   0  0  0  0  0  0  0  0  0  0  0  0
   -0.7525    0.3253   -0.4682 C   0  0  0  0  0  0  0  0  0  0  0  0
   -0.9249    1.4708   -1.3425 C   0  0  0  0  0  0  0  0  0  0  0  0
    0.0546    2.1663   -1.7134 O   0  0  0  0  0  0  0  0  0  0  0  0
    0.7700   -0.0796    2.2571 H   0  0  0  0  0  0  0  0  0  0  0  0
    0.3772    1.4677    1.4669 H   0  0  0  0  0  0  0  0  0  0  0  0
    2.0452    0.8129    1.2744 H   0  0  0  0  0  0  0  0  0  0  0  0
    1.9783    0.8044   -1.1012 H   0  0  0  0  0  0  0  0  0  0  0  0
    1.0626   -0.5181   -1.9351 H   0  0  0  0  0  0  0  0  0  0  0  0
    2.3496   -0.9625   -0.7603 H   0  0  0  0  0  0  0  0  0  0  0  0
   -1.6047   -2.4733    0.7403 H   0  0  0  0  0  0  0  0  0  0  0  0
   -1.1256   -1.0997    1.8751 H   0  0  0  0  0  0  0  0  0  0  0  0
   -2.7736   -0.3436   -0.2713 H   0  0  0  0  0  0  0  0  0  0  0  0
   -1.9002    1.7638   -1.7035 H   0  0  0  0  0  0  0  0  0  0  0  0
  1  2  1  0
  2  3  1  0
  2  4  1  0
  4  5  1  0
  5  6  1  0
  6  7  2  0
  7  8  1  0
  8  9  2  0
  7  2  1  0
  1 10  1  0
  1 11  1  0
  1 12  1  0
  3 13  1  0
  3 14  1  0
  3 15  1  0
  5 16  1  0
  5 17  1  0
  6 18  1  0
  8 19  1  0
M  END
