
     RDKit          3D

 21 22  0  0  0  0  0  0  0  0999 V2000
    1.9866    0.3638    0.4582 C   0  0  0  0  0  0  0  0  0  0  0  0
    0.8180   -0.2627   -0.2034 C   0  0  0  0  0  0  0  0  0  0  0  0
    1.1339   -0.9369   -1.3660 O   0  0  0  0  0  0  0  0  0  0  0  0
    0.1102   -1.2881    0.7038 C   0  0  0  0  0  0  0  0  0  0  0  0
   -1.3063   -0.8336    0.4950 C   0  0  0  0  0  0  0  0  0  0  0  0
   -1.1598    0.6618    0.8196 C   0  0  0  0  0  0  0  0  0  0  0  0
   -0.3316    0.6477   -0.4709 C   0  0  0  0  0  0  0  0  0  0  0  0
   -0.1918    1.7755   -1.1494 O   0  0  0  0  0  0  0  0  0  0  0  0
   -1.3910   -0.3616   -0.9411 C   0  0  0  0  0  0  0  0  0  0  0  0
    2.5741   -0.3820    1.0532 H   0  0  0  0  0  0  0  0  0  0  0  0
    1.7565    1.2383    1.0743 H   0  0  0  0  0  0  0  0  0  0  0  0
    2.6810    0.7354   -0.3513 H   0  0  0  0  0  0  0  0  0  0  0  0
    1.0188   -0.3143   -2.1212 H   0  0  0  0  0  0  0  0  0  0  0  0
    0.4487   -1.1030    1.7599 H   0  0  0  0  0  0  0  0  0  0  0  0
    0.3128   -2.3127    0.3970 H   0  0  0  0  0  0  0  0  0  0  0  0
   -2.1147   -1.3544    0.9261 H   0  0  0  0  0  0  0  0  0  0  0  0
   -2.1269    1.1423    0.6710 H   0  0  0  0  0  0  0  0  0  0  0  0
   -0.6009    0.8632    1.7285 H   0  0  0  0  0  0  0  0  0  0  0  0
   -0.3300    2.6193   -0.6277 H   0  0  0  0  0  0  0  0  0  0  0  0
   -2.3445    0.1118   -1.1614 H   0  0  0  0  0  0  0  0  0  0  0  0
   -0.9430   -1.0099   -1.6941 H   0  0  0  0  0  0  0  0  0  0  0  0
  1  2  1  0
  2  3  1  0
  2  4  1  0
  4  5  1  0
  5  6  1  0
  6  7  1  0
  7  8  1  0
  7  9  1  0
  7  2  1  0
  9  5  1  0
  1 10  1  0
  1 11  1  0
  1 12  1  0
  3 13  1  0
  4 14  1  0
  4 15  1  0
  5 16  1  0
  6 17  1  0
  6 18  1  0
  8 19  1  0
  9 20  1  0
  9 21  1  0
M  END
