
     RDKit          3D

 17 18  0  0  0  0  0  0  0  0999 V2000
   -1.8593   -0.5892   -0.4536 C   0  0  0  0  0  0  0  0  0  0  0  0
   -0.6949    0.3564   -0.0674 C   0  0  0  0  0  0  0  0  0  0  0  0
   -1.2856    1.6467    0.4284 C   0  0  0  0  0  0  0  0  0  0  0  0
   -1.0590    2.6043   -0.2862 O   0  0  0  0  0  0  0  0  0  0  0  0
    0.3415   -0.2775    0.7237 C   0  0  0  0  0  0  0  0  0  0  0  0
    1.6296    0.0100    1.0228 O   0  0  0  0  0  0  0  0  0  0  0  0
    2.2803   -0.6709   -0.0442 C   0  0  0  0  0  0  0  0  0  0  0  0
    1.3846   -0.6907   -1.1204 O   0  0  0  0  0  0  0  0  0  0  0  0
    0.4847    0.2866   -0.7452 C   0  0  0  0  0  0  0  0  0  0  0  0
   -2.2429   -0.1688   -1.4517 H   0  0  0  0  0  0  0  0  0  0  0  0
   -1.3866   -1.5479   -0.7477 H   0  0  0  0  0  0  0  0  0  0  0  0
   -2.6295   -0.6714    0.2425 H   0  0  0  0  0  0  0  0  0  0  0  0
   -1.8656    1.7207    1.3613 H   0  0  0  0  0  0  0  0  0  0  0  0
    0.2365   -1.4132    0.7978 H   0  0  0  0  0  0  0  0  0  0  0  0
    2.4227   -1.7388    0.2382 H   0  0  0  0  0  0  0  0  0  0  0  0
    3.2029   -0.1313   -0.2542 H   0  0  0  0  0  0  0  0  0  0  0  0
    1.0408    1.2751   -0.8237 H   0  0  0  0  0  0  0  0  0  0  0  0
  1  2  1  0
  2  3  1  0
  3  4  2  0
  2  5  1  0
  5  6  1  0
  6  7  1  0
  7  8  1  0
  8  9  1  0
  9  2  1  0
  9  5  1  0
  1 10  1  0
  1 11  1  0
  1 12  1  0
  3 13  1  0
  5 14  1  0
  7 15  1  0
  7 16  1  0
  9 17  1  0
M  END
