
     RDKit          3D

 21 22  0  0  0  0  0  0  0  0999 V2000
    1.6318   -1.1011    0.6012 C   0  0  0  0  0  0  0  0  0  0  0  0
    0.7507   -0.1221   -0.1915 C   0  0  0  0  0  0  0  0  0  0  0  0
    1.4687    0.3391   -1.3245 O   0  0  0  0  0  0  0  0  0  0  0  0
   -0.0811    0.7163    0.6356 C   0  0  0  0  0  0  0  0  0  0  0  0
    0.0091    2.1630    0.1696 C   0  0  0  0  0  0  0  0  0  0  0  0
   -1.5069    0.4451    1.0628 C   0  0  0  0  0  0  0  0  0  0  0  0
   -1.7096    0.5659   -0.3370 O   0  0  0  0  0  0  0  0  0  0  0  0
   -0.6472   -0.3122   -0.4102 C   0  0  0  0  0  0  0  0  0  0  0  0
   -1.0758   -1.6817    0.0689 C   0  0  0  0  0  0  0  0  0  0  0  0
    2.6146   -0.5756    0.7050 H   0  0  0  0  0  0  0  0  0  0  0  0
    1.2519   -1.2427    1.6250 H   0  0  0  0  0  0  0  0  0  0  0  0
    1.7332   -2.0620    0.0591 H   0  0  0  0  0  0  0  0  0  0  0  0
    2.3451    0.7067   -1.0517 H   0  0  0  0  0  0  0  0  0  0  0  0
   -0.1043    2.2837   -0.9032 H   0  0  0  0  0  0  0  0  0  0  0  0
   -0.6590    2.8389    0.6868 H   0  0  0  0  0  0  0  0  0  0  0  0
    1.0582    2.4824    0.4285 H   0  0  0  0  0  0  0  0  0  0  0  0
   -1.9610    1.2894    1.6090 H   0  0  0  0  0  0  0  0  0  0  0  0
   -1.7562   -0.4788    1.5344 H   0  0  0  0  0  0  0  0  0  0  0  0
   -2.1492   -1.8540    0.0910 H   0  0  0  0  0  0  0  0  0  0  0  0
   -0.5310   -2.0051    0.9919 H   0  0  0  0  0  0  0  0  0  0  0  0
   -0.6819   -2.3955   -0.7202 H   0  0  0  0  0  0  0  0  0  0  0  0
  1  2  1  0
  2  3  1  0
  2  4  1  0
  4  5  1  0
  4  6  1  0
  6  7  1  0
  7  8  1  0
  8  9  1  0
  8  2  1  0
  8  4  1  0
  1 10  1  0
  1 11  1  0
  1 12  1  0
  3 13  1  0
  5 14  1  0
  5 15  1  0
  5 16  1  0
  6 17  1  0
  6 18  1  0
  9 19  1  0
  9 20  1  0
  9 21  1  0
M  END
