
     RDKit          3D

 18 18  0  0  0  0  0  0  0  0999 V2000
   -0.4913   -1.6364    0.4481 C   0  0  0  0  0  0  0  0  0  0  0  0
   -0.1388   -0.1805    0.3108 C   0  0  0  0  0  0  0  0  0  0  0  0
    1.3095    0.1972    0.1043 C   0  0  0  0  0  0  0  0  0  0  0  0
    1.8839   -0.3746   -1.1018 C   0  0  0  0  0  0  0  0  0  0  0  0
    2.1929    0.3597   -2.0404 O   0  0  0  0  0  0  0  0  0  0  0  0
   -0.9154    0.8562    1.1195 C   0  0  0  0  0  0  0  0  0  0  0  0
   -1.2269    0.6708   -0.3132 C   0  0  0  0  0  0  0  0  0  0  0  0
   -0.8001    1.5421   -1.2909 O   0  0  0  0  0  0  0  0  0  0  0  0
   -0.9805   -1.9455   -0.5270 H   0  0  0  0  0  0  0  0  0  0  0  0
    0.3862   -2.2964    0.6081 H   0  0  0  0  0  0  0  0  0  0  0  0
   -1.2210   -1.7970    1.2515 H   0  0  0  0  0  0  0  0  0  0  0  0
    1.4161    1.3138    0.0804 H   0  0  0  0  0  0  0  0  0  0  0  0
    1.8836   -0.1030    1.0165 H   0  0  0  0  0  0  0  0  0  0  0  0
    2.0702   -1.4339   -1.2677 H   0  0  0  0  0  0  0  0  0  0  0  0
   -0.3724    1.7353    1.5186 H   0  0  0  0  0  0  0  0  0  0  0  0
   -1.6736    0.4506    1.8470 H   0  0  0  0  0  0  0  0  0  0  0  0
   -2.2034    0.1707   -0.5600 H   0  0  0  0  0  0  0  0  0  0  0  0
   -1.1189    2.4709   -1.2040 H   0  0  0  0  0  0  0  0  0  0  0  0
  1  2  1  0
  2  3  1  0
  3  4  1  0
  4  5  2  0
  2  6  1  0
  6  7  1  0
  7  8  1  0
  7  2  1  0
  1  9  1  0
  1 10  1  0
  1 11  1  0
  3 12  1  0
  3 13  1  0
  4 14  1  0
  6 15  1  0
  6 16  1  0
  7 17  1  0
  8 18  1  0
M  END
