
     RDKit          3D

 19 20  0  0  0  0  0  0  0  0999 V2000
    2.2109   -0.4684   -0.3022 C   0  0  0  0  0  0  0  0  0  0  0  0
    1.0502    0.1812    0.4361 C   0  0  0  0  0  0  0  0  0  0  0  0
    1.3900    1.0570    1.4324 O   0  0  0  0  0  0  0  0  0  0  0  0
    0.0575    0.7291   -0.5994 C   0  0  0  0  0  0  0  0  0  0  0  0
   -0.3407    1.9855   -0.2227 O   0  0  0  0  0  0  0  0  0  0  0  0
   -0.8636   -0.4016   -0.1979 C   0  0  0  0  0  0  0  0  0  0  0  0
   -2.3257   -0.3076   -0.3829 C   0  0  0  0  0  0  0  0  0  0  0  0
   -0.3344   -1.6870   -0.2455 O   0  0  0  0  0  0  0  0  0  0  0  0
   -0.0558   -0.8185    0.7978 C   0  0  0  0  0  0  0  0  0  0  0  0
    2.3175   -0.0014   -1.3227 H   0  0  0  0  0  0  0  0  0  0  0  0
    3.1225   -0.2771    0.2861 H   0  0  0  0  0  0  0  0  0  0  0  0
    1.9841   -1.5330   -0.4592 H   0  0  0  0  0  0  0  0  0  0  0  0
    1.0836    0.7806    2.3403 H   0  0  0  0  0  0  0  0  0  0  0  0
    0.3872    0.6622   -1.6335 H   0  0  0  0  0  0  0  0  0  0  0  0
   -1.2514    2.2354   -0.4534 H   0  0  0  0  0  0  0  0  0  0  0  0
   -2.6397   -0.7578   -1.3679 H   0  0  0  0  0  0  0  0  0  0  0  0
   -2.8192   -0.9757    0.3817 H   0  0  0  0  0  0  0  0  0  0  0  0
   -2.7571    0.6870   -0.3228 H   0  0  0  0  0  0  0  0  0  0  0  0
   -0.2155   -1.0898    1.8356 H   0  0  0  0  0  0  0  0  0  0  0  0
  1  2  1  0
  2  3  1  0
  2  4  1  0
  4  5  1  0
  4  6  1  0
  6  7  1  0
  6  8  1  0
  8  9  1  0
  9  2  1  0
  9  6  1  0
  1 10  1  0
  1 11  1  0
  1 12  1  0
  3 13  1  0
  4 14  1  0
  5 15  1  0
  7 16  1  0
  7 17  1  0
  7 18  1  0
  9 19  1  0
M  END
