
     RDKit          3D

 19 20  0  0  0  0  0  0  0  0999 V2000
   -0.9998   -1.5293   -0.3136 C   0  0  0  0  0  0  0  0  0  0  0  0
   -0.5664   -0.1006    0.0303 C   0  0  0  0  0  0  0  0  0  0  0  0
    0.8268   -0.0275    0.5746 C   0  0  0  0  0  0  0  0  0  0  0  0
    1.9601   -0.5134   -0.2780 C   0  0  0  0  0  0  0  0  0  0  0  0
    1.8361    0.9145    0.0515 C   0  0  0  0  0  0  0  0  0  0  0  0
   -1.5493    0.7648    0.7984 C   0  0  0  0  0  0  0  0  0  0  0  0
   -1.2493    0.9932   -0.6380 C   0  0  0  0  0  0  0  0  0  0  0  0
   -0.4567   -2.2664    0.2907 H   0  0  0  0  0  0  0  0  0  0  0  0
   -2.0883   -1.6354   -0.1234 H   0  0  0  0  0  0  0  0  0  0  0  0
   -0.8091   -1.6612   -1.4155 H   0  0  0  0  0  0  0  0  0  0  0  0
    0.9053   -0.2822    1.6552 H   0  0  0  0  0  0  0  0  0  0  0  0
    2.7718   -1.1055    0.2153 H   0  0  0  0  0  0  0  0  0  0  0  0
    1.6628   -0.9163   -1.2572 H   0  0  0  0  0  0  0  0  0  0  0  0
    1.5884    1.6529   -0.7530 H   0  0  0  0  0  0  0  0  0  0  0  0
    2.5939    1.3353    0.7633 H   0  0  0  0  0  0  0  0  0  0  0  0
   -1.1677    1.5056    1.5241 H   0  0  0  0  0  0  0  0  0  0  0  0
   -2.4308    0.2190    1.1439 H   0  0  0  0  0  0  0  0  0  0  0  0
   -0.7464    1.9324   -0.9377 H   0  0  0  0  0  0  0  0  0  0  0  0
   -2.0814    0.7201   -1.3306 H   0  0  0  0  0  0  0  0  0  0  0  0
  1  2  1  0
  2  3  1  0
  3  4  1  0
  4  5  1  0
  2  6  1  0
  6  7  1  0
  7  2  1  0
  5  3  1  0
  1  8  1  0
  1  9  1  0
  1 10  1  0
  3 11  1  0
  4 12  1  0
  4 13  1  0
  5 14  1  0
  5 15  1  0
  6 16  1  0
  6 17  1  0
  7 18  1  0
  7 19  1  0
M  END
