
     RDKit          3D

 16 17  0  0  0  0  0  0  0  0999 V2000
   -1.2331   -0.9686   -0.6145 C   0  0  0  0  0  0  0  0  0  0  0  0
   -0.2325   -0.0234   -0.0455 C   0  0  0  0  0  0  0  0  0  0  0  0
   -0.7609    1.3687    0.1664 C   0  0  0  0  0  0  0  0  0  0  0  0
    0.4733   -0.4959    1.1901 C   0  0  0  0  0  0  0  0  0  0  0  0
    0.2071   -0.8479    2.3244 O   0  0  0  0  0  0  0  0  0  0  0  0
    1.7411   -0.3627    0.4458 C   0  0  0  0  0  0  0  0  0  0  0  0
    1.9974    0.9049   -0.1804 O   0  0  0  0  0  0  0  0  0  0  0  0
    1.1365   -0.0323   -0.7234 C   0  0  0  0  0  0  0  0  0  0  0  0
   -1.1049   -1.0523   -1.7134 H   0  0  0  0  0  0  0  0  0  0  0  0
   -1.1601   -1.9633   -0.1065 H   0  0  0  0  0  0  0  0  0  0  0  0
   -2.2551   -0.5757   -0.3545 H   0  0  0  0  0  0  0  0  0  0  0  0
   -0.2880    2.0416   -0.6007 H   0  0  0  0  0  0  0  0  0  0  0  0
   -0.5229    1.7681    1.1599 H   0  0  0  0  0  0  0  0  0  0  0  0
   -1.8708    1.4339    0.0518 H   0  0  0  0  0  0  0  0  0  0  0  0
    2.6578   -0.8442    0.7613 H   0  0  0  0  0  0  0  0  0  0  0  0
    1.2149   -0.3508   -1.7607 H   0  0  0  0  0  0  0  0  0  0  0  0
  1  2  1  0
  2  3  1  0
  2  4  1  0
  4  5  2  0
  4  6  1  0
  6  7  1  0
  7  8  1  0
  8  2  1  0
  8  6  1  0
  1  9  1  0
  1 10  1  0
  1 11  1  0
  3 12  1  0
  3 13  1  0
  3 14  1  0
  6 15  1  0
  8 16  1  0
M  END
