
     RDKit          3D

 23 24  0  0  0  0  0  0  0  0999 V2000
   -0.0710   -1.7152    0.4818 C   0  0  0  0  0  0  0  0  0  0  0  0
   -0.1586   -0.2246    0.1377 C   0  0  0  0  0  0  0  0  0  0  0  0
    1.1442    0.4782    0.2065 C   0  0  0  0  0  0  0  0  0  0  0  0
    2.1796   -0.1024   -0.7533 C   0  0  0  0  0  0  0  0  0  0  0  0
    3.3397    0.6714   -0.5602 O   0  0  0  0  0  0  0  0  0  0  0  0
   -1.3079    0.4513    0.7929 C   0  0  0  0  0  0  0  0  0  0  0  0
   -1.3165    1.4112   -0.3456 C   0  0  0  0  0  0  0  0  0  0  0  0
   -1.0318    0.1070   -1.0008 C   0  0  0  0  0  0  0  0  0  0  0  0
   -2.1747   -0.3906   -0.1217 C   0  0  0  0  0  0  0  0  0  0  0  0
   -0.4296   -2.3555   -0.3225 H   0  0  0  0  0  0  0  0  0  0  0  0
    0.9939   -2.0096    0.6887 H   0  0  0  0  0  0  0  0  0  0  0  0
   -0.6071   -1.8283    1.4467 H   0  0  0  0  0  0  0  0  0  0  0  0
    1.5735    0.2573    1.2262 H   0  0  0  0  0  0  0  0  0  0  0  0
    1.1532    1.5542   -0.0101 H   0  0  0  0  0  0  0  0  0  0  0  0
    1.8759    0.0500   -1.8090 H   0  0  0  0  0  0  0  0  0  0  0  0
    2.4340   -1.1338   -0.5181 H   0  0  0  0  0  0  0  0  0  0  0  0
    3.1165    1.6371   -0.7481 H   0  0  0  0  0  0  0  0  0  0  0  0
   -1.4692    0.6281    1.7617 H   0  0  0  0  0  0  0  0  0  0  0  0
   -2.3485    1.7469   -0.6498 H   0  0  0  0  0  0  0  0  0  0  0  0
   -0.6158    2.2281   -0.3858 H   0  0  0  0  0  0  0  0  0  0  0  0
   -0.9363   -0.0914   -1.9768 H   0  0  0  0  0  0  0  0  0  0  0  0
   -2.2165   -1.4549    0.0683 H   0  0  0  0  0  0  0  0  0  0  0  0
   -3.1270    0.0854   -0.3728 H   0  0  0  0  0  0  0  0  0  0  0  0
  1  2  1  0
  2  3  1  0
  3  4  1  0
  4  5  1  0
  2  6  1  0
  6  7  1  0
  7  8  1  0
  8  9  1  0
  8  2  1  0
  9  6  1  0
  1 10  1  0
  1 11  1  0
  1 12  1  0
  3 13  1  0
  3 14  1  0
  4 15  1  0
  4 16  1  0
  5 17  1  0
  6 18  1  0
  7 19  1  0
  7 20  1  0
  8 21  1  0
  9 22  1  0
  9 23  1  0
M  END
