
     RDKit          3D

 19 20  0  0  0  0  0  0  0  0999 V2000
   -1.8622   -0.6117    0.2624 C   0  0  0  0  0  0  0  0  0  0  0  0
   -0.7934    0.3775   -0.1029 C   0  0  0  0  0  0  0  0  0  0  0  0
   -1.2547    1.6295   -0.7201 C   0  0  0  0  0  0  0  0  0  0  0  0
   -0.4993    2.2134   -1.4923 O   0  0  0  0  0  0  0  0  0  0  0  0
    0.2657    0.5303    0.9769 C   0  0  0  0  0  0  0  0  0  0  0  0
    1.1087   -0.4422    0.2497 C   0  0  0  0  0  0  0  0  0  0  0  0
    2.4423   -0.7134    0.2638 C   0  0  0  0  0  0  0  0  0  0  0  0
    1.4815   -1.6511    0.7598 O   0  0  0  0  0  0  0  0  0  0  0  0
    0.2602   -0.3169   -0.9756 C   0  0  0  0  0  0  0  0  0  0  0  0
   -1.3910   -1.6119    0.4306 H   0  0  0  0  0  0  0  0  0  0  0  0
   -2.3863   -0.3649    1.2017 H   0  0  0  0  0  0  0  0  0  0  0  0
   -2.5834   -0.7000   -0.5647 H   0  0  0  0  0  0  0  0  0  0  0  0
   -2.2256    2.0911   -0.5480 H   0  0  0  0  0  0  0  0  0  0  0  0
   -0.1338    0.2193    1.9608 H   0  0  0  0  0  0  0  0  0  0  0  0
    0.7394    1.5331    1.0253 H   0  0  0  0  0  0  0  0  0  0  0  0
    3.0098   -1.0479   -0.6468 H   0  0  0  0  0  0  0  0  0  0  0  0
    3.1556   -0.3025    1.0299 H   0  0  0  0  0  0  0  0  0  0  0  0
    0.7361    0.4240   -1.6791 H   0  0  0  0  0  0  0  0  0  0  0  0
   -0.0695   -1.2558   -1.4317 H   0  0  0  0  0  0  0  0  0  0  0  0
  1  2  1  0
  2  3  1  0
  3  4  2  0
  2  5  1  0
  5  6  1  0
  6  7  1  0
  7  8  1  0
  6  9  1  0
  9  2  1  0
  8  6  1  0
  1 10  1  0
  1 11  1  0
  1 12  1  0
  3 13  1  0
  5 14  1  0
  5 15  1  0
  7 16  1  0
  7 17  1  0
  9 18  1  0
  9 19  1  0
M  END
