
     RDKit          3D

 19 20  0  0  0  0  0  0  0  0999 V2000
    1.7198    0.7804   -0.1454 C   0  0  0  0  0  0  0  0  0  0  0  0
    0.5881   -0.0943   -0.5527 C   0  0  0  0  0  0  0  0  0  0  0  0
    0.6093   -0.3095   -1.9357 O   0  0  0  0  0  0  0  0  0  0  0  0
    0.6638   -1.3993    0.2390 C   0  0  0  0  0  0  0  0  0  0  0  0
   -0.5436   -0.8711    0.9835 C   0  0  0  0  0  0  0  0  0  0  0  0
   -1.7745   -0.9148    0.1942 C   0  0  0  0  0  0  0  0  0  0  0  0
   -0.7672    0.1885   -0.0331 C   0  0  0  0  0  0  0  0  0  0  0  0
   -1.2423    1.5265    0.2969 C   0  0  0  0  0  0  0  0  0  0  0  0
   -0.6071    2.4155    0.8188 O   0  0  0  0  0  0  0  0  0  0  0  0
    2.5470    0.7146   -0.9035 H   0  0  0  0  0  0  0  0  0  0  0  0
    2.2140    0.4598    0.8140 H   0  0  0  0  0  0  0  0  0  0  0  0
    1.4896    1.8404   -0.0391 H   0  0  0  0  0  0  0  0  0  0  0  0
    0.4513    0.5815   -2.3539 H   0  0  0  0  0  0  0  0  0  0  0  0
    0.4131   -2.2552   -0.4288 H   0  0  0  0  0  0  0  0  0  0  0  0
    1.5706   -1.5486    0.8176 H   0  0  0  0  0  0  0  0  0  0  0  0
   -0.4602   -0.5216    2.0106 H   0  0  0  0  0  0  0  0  0  0  0  0
   -1.8809   -1.7250   -0.5487 H   0  0  0  0  0  0  0  0  0  0  0  0
   -2.7054   -0.6664    0.7036 H   0  0  0  0  0  0  0  0  0  0  0  0
   -2.2855    1.7986    0.0627 H   0  0  0  0  0  0  0  0  0  0  0  0
  1  2  1  0
  2  3  1  0
  2  4  1  0
  4  5  1  0
  5  6  1  0
  6  7  1  0
  7  8  1  0
  8  9  2  0
  7  2  1  0
  7  5  1  0
  1 10  1  0
  1 11  1  0
  1 12  1  0
  3 13  1  0
  4 14  1  0
  4 15  1  0
  5 16  1  0
  6 17  1  0
  6 18  1  0
  8 19  1  0
M  END
