
     RDKit          3D

 19 20  0  0  0  0  0  0  0  0999 V2000
   -1.4180    1.5010   -0.5584 C   0  0  0  0  0  0  0  0  0  0  0  0
   -0.3445    0.8065    0.2362 C   0  0  0  0  0  0  0  0  0  0  0  0
    0.4423    1.6403    1.0410 O   0  0  0  0  0  0  0  0  0  0  0  0
   -0.4224   -0.5907    0.6386 C   0  0  0  0  0  0  0  0  0  0  0  0
    0.0755   -1.0862    1.8224 O   0  0  0  0  0  0  0  0  0  0  0  0
   -0.8782   -1.6738   -0.3303 C   0  0  0  0  0  0  0  0  0  0  0  0
   -0.3062   -1.0143   -1.4117 O   0  0  0  0  0  0  0  0  0  0  0  0
    0.4044   -0.2421   -0.5137 C   0  0  0  0  0  0  0  0  0  0  0  0
    1.8870   -0.2025   -0.5094 C   0  0  0  0  0  0  0  0  0  0  0  0
   -1.4588    1.1556   -1.6222 H   0  0  0  0  0  0  0  0  0  0  0  0
   -2.4127    1.3019   -0.1272 H   0  0  0  0  0  0  0  0  0  0  0  0
   -1.2022    2.5991   -0.5858 H   0  0  0  0  0  0  0  0  0  0  0  0
    0.3662    1.3845    1.9909 H   0  0  0  0  0  0  0  0  0  0  0  0
    0.8162   -0.5933    2.2102 H   0  0  0  0  0  0  0  0  0  0  0  0
   -0.4025   -2.6605   -0.1400 H   0  0  0  0  0  0  0  0  0  0  0  0
   -1.9673   -1.7751   -0.4273 H   0  0  0  0  0  0  0  0  0  0  0  0
    2.2496   -0.4308   -1.5487 H   0  0  0  0  0  0  0  0  0  0  0  0
    2.3555   -0.9548    0.1444 H   0  0  0  0  0  0  0  0  0  0  0  0
    2.2159    0.8354   -0.3089 H   0  0  0  0  0  0  0  0  0  0  0  0
  1  2  1  0
  2  3  1  0
  2  4  1  0
  4  5  1  0
  4  6  1  0
  6  7  1  0
  7  8  1  0
  8  9  1  0
  8  2  1  0
  8  4  1  0
  1 10  1  0
  1 11  1  0
  1 12  1  0
  3 13  1  0
  5 14  1  0
  6 15  1  0
  6 16  1  0
  9 17  1  0
  9 18  1  0
  9 19  1  0
M  END
