
     RDKit          3D

 21 22  0  0  0  0  0  0  0  0999 V2000
    2.0007   -0.8422   -0.4449 C   0  0  0  0  0  0  0  0  0  0  0  0
    0.7873   -0.0992    0.0020 C   0  0  0  0  0  0  0  0  0  0  0  0
    1.1062    0.6760    1.1374 O   0  0  0  0  0  0  0  0  0  0  0  0
    0.2347    0.8438   -1.0230 C   0  0  0  0  0  0  0  0  0  0  0  0
   -1.1766    1.2228   -0.5548 C   0  0  0  0  0  0  0  0  0  0  0  0
   -1.8381    0.0525    0.1183 C   0  0  0  0  0  0  0  0  0  0  0  0
   -1.1778   -0.3904    1.3719 C   0  0  0  0  0  0  0  0  0  0  0  0
   -0.2866   -1.0812    0.3693 C   0  0  0  0  0  0  0  0  0  0  0  0
   -1.3452   -1.1018   -0.5277 O   0  0  0  0  0  0  0  0  0  0  0  0
    1.7636   -1.5203   -1.2731 H   0  0  0  0  0  0  0  0  0  0  0  0
    2.7958   -0.1077   -0.6653 H   0  0  0  0  0  0  0  0  0  0  0  0
    2.3618   -1.4504    0.4063 H   0  0  0  0  0  0  0  0  0  0  0  0
    2.0669    0.9451    1.0802 H   0  0  0  0  0  0  0  0  0  0  0  0
    0.1613    0.2686   -1.9864 H   0  0  0  0  0  0  0  0  0  0  0  0
    0.8633    1.7510   -1.1565 H   0  0  0  0  0  0  0  0  0  0  0  0
   -1.1923    2.1479    0.0161 H   0  0  0  0  0  0  0  0  0  0  0  0
   -1.7513    1.3822   -1.5141 H   0  0  0  0  0  0  0  0  0  0  0  0
   -2.9315    0.1264    0.1619 H   0  0  0  0  0  0  0  0  0  0  0  0
   -0.6905    0.4034    1.9642 H   0  0  0  0  0  0  0  0  0  0  0  0
   -1.7758   -1.1251    1.9122 H   0  0  0  0  0  0  0  0  0  0  0  0
    0.0240   -2.1015    0.6059 H   0  0  0  0  0  0  0  0  0  0  0  0
  1  2  1  0
  2  3  1  0
  2  4  1  0
  4  5  1  0
  5  6  1  0
  6  7  1  0
  7  8  1  0
  8  9  1  0
  8  2  1  0
  9  6  1  0
  1 10  1  0
  1 11  1  0
  1 12  1  0
  3 13  1  0
  4 14  1  0
  4 15  1  0
  5 16  1  0
  5 17  1  0
  6 18  1  0
  7 19  1  0
  7 20  1  0
  8 21  1  0
M  END
