
     RDKit          3D

 19 19  0  0  0  0  0  0  0  0999 V2000
   -1.9587   -0.0080    0.4686 C   0  0  0  0  0  0  0  0  0  0  0  0
   -0.5424   -0.5222    0.6743 C   0  0  0  0  0  0  0  0  0  0  0  0
   -0.4741   -1.3398    1.7809 O   0  0  0  0  0  0  0  0  0  0  0  0
    0.3477    0.6431    0.7748 C   0  0  0  0  0  0  0  0  0  0  0  0
    1.1116    0.7717   -0.3001 C   0  0  0  0  0  0  0  0  0  0  0  0
    2.0982    1.7972   -0.5432 C   0  0  0  0  0  0  0  0  0  0  0  0
    2.2886    2.6778    0.3197 O   0  0  0  0  0  0  0  0  0  0  0  0
    0.7950   -0.3260   -1.2466 C   0  0  0  0  0  0  0  0  0  0  0  0
   -0.0718   -1.3109   -0.5359 C   0  0  0  0  0  0  0  0  0  0  0  0
   -2.3303    0.3181    1.4626 H   0  0  0  0  0  0  0  0  0  0  0  0
   -1.9439    0.9207   -0.1716 H   0  0  0  0  0  0  0  0  0  0  0  0
   -2.6131   -0.7766    0.0058 H   0  0  0  0  0  0  0  0  0  0  0  0
   -1.3555   -1.4786    2.2209 H   0  0  0  0  0  0  0  0  0  0  0  0
    0.3838    1.3147    1.6111 H   0  0  0  0  0  0  0  0  0  0  0  0
    2.6654    1.8116   -1.4495 H   0  0  0  0  0  0  0  0  0  0  0  0
    1.7510   -0.7452   -1.6082 H   0  0  0  0  0  0  0  0  0  0  0  0
    0.2006    0.1098   -2.0785 H   0  0  0  0  0  0  0  0  0  0  0  0
   -0.9149   -1.6853   -1.1472 H   0  0  0  0  0  0  0  0  0  0  0  0
    0.5627   -2.1720   -0.2379 H   0  0  0  0  0  0  0  0  0  0  0  0
  1  2  1  0
  2  3  1  0
  2  4  1  0
  4  5  2  0
  5  6  1  0
  6  7  2  0
  5  8  1  0
  8  9  1  0
  9  2  1  0
  1 10  1  0
  1 11  1  0
  1 12  1  0
  3 13  1  0
  4 14  1  0
  6 15  1  0
  8 16  1  0
  8 17  1  0
  9 18  1  0
  9 19  1  0
M  END
