
     RDKit          3D

 17 19  0  0  0  0  0  0  0  0999 V2000
    1.6251   -0.2520   -0.7686 C   0  0  0  0  0  0  0  0  0  0  0  0
    0.6570    0.1621    0.3418 C   0  0  0  0  0  0  0  0  0  0  0  0
    1.3880    0.5244    1.4497 O   0  0  0  0  0  0  0  0  0  0  0  0
   -0.2959    1.1910   -0.1467 C   0  0  0  0  0  0  0  0  0  0  0  0
   -0.7721    1.0234   -1.4407 O   0  0  0  0  0  0  0  0  0  0  0  0
   -1.5857    0.4818   -0.4870 C   0  0  0  0  0  0  0  0  0  0  0  0
   -1.4762   -0.9253   -0.0404 C   0  0  0  0  0  0  0  0  0  0  0  0
   -0.5163   -1.7888   -0.4629 O   0  0  0  0  0  0  0  0  0  0  0  0
   -0.1965   -1.0334    0.6539 C   0  0  0  0  0  0  0  0  0  0  0  0
    1.0394   -0.9322   -1.4417 H   0  0  0  0  0  0  0  0  0  0  0  0
    1.9279    0.6011   -1.3931 H   0  0  0  0  0  0  0  0  0  0  0  0
    2.4877   -0.7934   -0.3218 H   0  0  0  0  0  0  0  0  0  0  0  0
    1.1064    1.4200    1.7933 H   0  0  0  0  0  0  0  0  0  0  0  0
   -0.3142    2.1757    0.3350 H   0  0  0  0  0  0  0  0  0  0  0  0
   -2.4854    1.0214   -0.1321 H   0  0  0  0  0  0  0  0  0  0  0  0
   -2.3780   -1.4050    0.4013 H   0  0  0  0  0  0  0  0  0  0  0  0
   -0.2112   -1.4708    1.6601 H   0  0  0  0  0  0  0  0  0  0  0  0
  1  2  1  0
  2  3  1  0
  2  4  1  0
  4  5  1  0
  5  6  1  0
  6  7  1  0
  7  8  1  0
  8  9  1  0
  9  2  1  0
  6  4  1  0
  9  7  1  0
  1 10  1  0
  1 11  1  0
  1 12  1  0
  3 13  1  0
  4 14  1  0
  6 15  1  0
  7 16  1  0
  9 17  1  0
M  END
