
     RDKit          3D

 25 25  0  0  0  0  0  0  0  0999 V2000
   -2.1675    1.0295    0.2121 C   0  0  0  0  0  0  0  0  0  0  0  0
   -1.1363   -0.0712    0.1186 C   0  0  0  0  0  0  0  0  0  0  0  0
   -1.7567   -1.4031    0.4680 C   0  0  0  0  0  0  0  0  0  0  0  0
    0.1119    0.1474    0.9198 C   0  0  0  0  0  0  0  0  0  0  0  0
    0.9496   -0.0353   -0.3276 C   0  0  0  0  0  0  0  0  0  0  0  0
    1.6965   -1.3261   -0.4290 C   0  0  0  0  0  0  0  0  0  0  0  0
    1.8461    1.1622   -0.5185 C   0  0  0  0  0  0  0  0  0  0  0  0
    2.6623    1.2336    0.6300 O   0  0  0  0  0  0  0  0  0  0  0  0
   -0.3352   -0.0108   -1.1274 C   0  0  0  0  0  0  0  0  0  0  0  0
   -1.8260    1.8220    0.8999 H   0  0  0  0  0  0  0  0  0  0  0  0
   -2.3431    1.4709   -0.7981 H   0  0  0  0  0  0  0  0  0  0  0  0
   -3.1568    0.6616    0.5592 H   0  0  0  0  0  0  0  0  0  0  0  0
   -1.0184   -2.2115    0.3687 H   0  0  0  0  0  0  0  0  0  0  0  0
   -2.7142   -1.5889   -0.0367 H   0  0  0  0  0  0  0  0  0  0  0  0
   -1.9920   -1.3480    1.5714 H   0  0  0  0  0  0  0  0  0  0  0  0
    0.1317    1.1396    1.3780 H   0  0  0  0  0  0  0  0  0  0  0  0
    0.3724   -0.6577    1.6477 H   0  0  0  0  0  0  0  0  0  0  0  0
    1.6460   -1.8765    0.5372 H   0  0  0  0  0  0  0  0  0  0  0  0
    2.7684   -1.1779   -0.6978 H   0  0  0  0  0  0  0  0  0  0  0  0
    1.2050   -1.9491   -1.2197 H   0  0  0  0  0  0  0  0  0  0  0  0
    2.5159    0.9932   -1.3993 H   0  0  0  0  0  0  0  0  0  0  0  0
    1.2974    2.1065   -0.5920 H   0  0  0  0  0  0  0  0  0  0  0  0
    2.1260    1.6808    1.3357 H   0  0  0  0  0  0  0  0  0  0  0  0
   -0.4650   -0.7873   -1.8740 H   0  0  0  0  0  0  0  0  0  0  0  0
   -0.4181    0.9960   -1.6264 H   0  0  0  0  0  0  0  0  0  0  0  0
  1  2  1  0
  2  3  1  0
  2  4  1  0
  4  5  1  0
  5  6  1  0
  5  7  1  0
  7  8  1  0
  5  9  1  0
  9  2  1  0
  1 10  1  0
  1 11  1  0
  1 12  1  0
  3 13  1  0
  3 14  1  0
  3 15  1  0
  4 16  1  0
  4 17  1  0
  6 18  1  0
  6 19  1  0
  6 20  1  0
  7 21  1  0
  7 22  1  0
  8 23  1  0
  9 24  1  0
  9 25  1  0
M  END
