
     RDKit          3D

 21 22  0  0  0  0  0  0  0  0999 V2000
   -1.9921   -0.6403    0.3753 C   0  0  0  0  0  0  0  0  0  0  0  0
   -0.7750    0.1525    0.0097 C   0  0  0  0  0  0  0  0  0  0  0  0
   -1.0432    1.5819   -0.3826 C   0  0  0  0  0  0  0  0  0  0  0  0
    0.3034    0.0947    1.0767 C   0  0  0  0  0  0  0  0  0  0  0  0
    1.2963   -0.2247    0.0229 C   0  0  0  0  0  0  0  0  0  0  0  0
    2.5307    0.2824   -0.2551 C   0  0  0  0  0  0  0  0  0  0  0  0
    2.3403   -1.0858    0.2475 O   0  0  0  0  0  0  0  0  0  0  0  0
    0.1887   -0.5595   -0.9172 C   0  0  0  0  0  0  0  0  0  0  0  0
   -0.0650   -1.9304   -0.9057 O   0  0  0  0  0  0  0  0  0  0  0  0
   -1.6625   -1.6608    0.6611 H   0  0  0  0  0  0  0  0  0  0  0  0
   -2.6564   -0.6671   -0.5093 H   0  0  0  0  0  0  0  0  0  0  0  0
   -2.4732   -0.2071    1.2718 H   0  0  0  0  0  0  0  0  0  0  0  0
   -1.9209    1.7014   -1.0377 H   0  0  0  0  0  0  0  0  0  0  0  0
   -0.1221    1.9967   -0.8601 H   0  0  0  0  0  0  0  0  0  0  0  0
   -1.2491    2.1473    0.5539 H   0  0  0  0  0  0  0  0  0  0  0  0
    0.4317    1.0067    1.6644 H   0  0  0  0  0  0  0  0  0  0  0  0
    0.1823   -0.7898    1.7688 H   0  0  0  0  0  0  0  0  0  0  0  0
    2.9620    0.3063   -1.2795 H   0  0  0  0  0  0  0  0  0  0  0  0
    3.1190    0.9255    0.4476 H   0  0  0  0  0  0  0  0  0  0  0  0
    0.3229   -0.0985   -1.8992 H   0  0  0  0  0  0  0  0  0  0  0  0
    0.2820   -2.3315   -0.0531 H   0  0  0  0  0  0  0  0  0  0  0  0
  1  2  1  0
  2  3  1  0
  2  4  1  0
  4  5  1  0
  5  6  1  0
  6  7  1  0
  5  8  1  0
  8  9  1  0
  8  2  1  0
  7  5  1  0
  1 10  1  0
  1 11  1  0
  1 12  1  0
  3 13  1  0
  3 14  1  0
  3 15  1  0
  4 16  1  0
  4 17  1  0
  6 18  1  0
  6 19  1  0
  8 20  1  0
  9 21  1  0
M  END
