
     RDKit          3D

 23 24  0  0  0  0  0  0  0  0999 V2000
    2.0895   -0.7604    0.6647 C   0  0  0  0  0  0  0  0  0  0  0  0
    0.9435   -0.0080    0.0116 C   0  0  0  0  0  0  0  0  0  0  0  0
    1.5544    0.9428   -0.8452 O   0  0  0  0  0  0  0  0  0  0  0  0
    0.1037   -0.8841   -0.8551 C   0  0  0  0  0  0  0  0  0  0  0  0
   -1.3584   -0.8196   -0.5922 C   0  0  0  0  0  0  0  0  0  0  0  0
   -1.7519    0.2809    0.3416 C   0  0  0  0  0  0  0  0  0  0  0  0
   -0.9101    1.5309    0.1716 C   0  0  0  0  0  0  0  0  0  0  0  0
    0.1524    0.7941    1.0027 C   0  0  0  0  0  0  0  0  0  0  0  0
   -0.9728    0.0265    1.6367 C   0  0  0  0  0  0  0  0  0  0  0  0
    3.0594   -0.2340    0.5487 H   0  0  0  0  0  0  0  0  0  0  0  0
    1.9089   -0.9905    1.7191 H   0  0  0  0  0  0  0  0  0  0  0  0
    2.2013   -1.7185    0.1010 H   0  0  0  0  0  0  0  0  0  0  0  0
    2.0778    1.5370   -0.2578 H   0  0  0  0  0  0  0  0  0  0  0  0
    0.4913   -1.9381   -0.7260 H   0  0  0  0  0  0  0  0  0  0  0  0
    0.2513   -0.6871   -1.9577 H   0  0  0  0  0  0  0  0  0  0  0  0
   -1.6690   -1.7867   -0.0971 H   0  0  0  0  0  0  0  0  0  0  0  0
   -1.9718   -0.7902   -1.5317 H   0  0  0  0  0  0  0  0  0  0  0  0
   -2.8185    0.4208    0.4553 H   0  0  0  0  0  0  0  0  0  0  0  0
   -0.5724    1.7286   -0.8700 H   0  0  0  0  0  0  0  0  0  0  0  0
   -1.3162    2.3753    0.7222 H   0  0  0  0  0  0  0  0  0  0  0  0
    0.7629    1.4214    1.6371 H   0  0  0  0  0  0  0  0  0  0  0  0
   -0.8178   -1.0416    1.8066 H   0  0  0  0  0  0  0  0  0  0  0  0
   -1.4376    0.6007    2.4448 H   0  0  0  0  0  0  0  0  0  0  0  0
  1  2  1  0
  2  3  1  0
  2  4  1  0
  4  5  1  0
  5  6  1  0
  6  7  1  0
  7  8  1  0
  8  9  1  0
  8  2  1  0
  9  6  1  0
  1 10  1  0
  1 11  1  0
  1 12  1  0
  3 13  1  0
  4 14  1  0
  4 15  1  0
  5 16  1  0
  5 17  1  0
  6 18  1  0
  7 19  1  0
  7 20  1  0
  8 21  1  0
  9 22  1  0
  9 23  1  0
M  END
