
     RDKit          3D

 21 22  0  0  0  0  0  0  0  0999 V2000
   -1.4357   -1.1336    0.1200 C   0  0  0  0  0  0  0  0  0  0  0  0
   -0.8941    0.2198   -0.2299 C   0  0  0  0  0  0  0  0  0  0  0  0
   -1.9362    1.2838    0.0185 C   0  0  0  0  0  0  0  0  0  0  0  0
   -0.2976    0.2616   -1.4920 O   0  0  0  0  0  0  0  0  0  0  0  0
    0.9501    0.6837   -1.0334 C   0  0  0  0  0  0  0  0  0  0  0  0
    2.0267   -0.3068   -1.0644 C   0  0  0  0  0  0  0  0  0  0  0  0
    2.1644   -0.9482    0.0845 C   0  0  0  0  0  0  0  0  0  0  0  0
    1.1739   -0.4721    1.0880 C   0  0  0  0  0  0  0  0  0  0  0  0
    0.4165    0.5956    0.3667 C   0  0  0  0  0  0  0  0  0  0  0  0
   -2.4176   -1.2342   -0.4266 H   0  0  0  0  0  0  0  0  0  0  0  0
   -1.6928   -1.1735    1.1985 H   0  0  0  0  0  0  0  0  0  0  0  0
   -0.8049   -1.9730   -0.1899 H   0  0  0  0  0  0  0  0  0  0  0  0
   -2.0249    1.9103   -0.8643 H   0  0  0  0  0  0  0  0  0  0  0  0
   -1.6585    1.8197    0.9483 H   0  0  0  0  0  0  0  0  0  0  0  0
   -2.9512    0.8426    0.2162 H   0  0  0  0  0  0  0  0  0  0  0  0
    1.2195    1.7145   -1.3768 H   0  0  0  0  0  0  0  0  0  0  0  0
    2.6542   -0.5072   -1.9269 H   0  0  0  0  0  0  0  0  0  0  0  0
    2.8840   -1.7329    0.3384 H   0  0  0  0  0  0  0  0  0  0  0  0
    1.6887   -0.0643    1.9864 H   0  0  0  0  0  0  0  0  0  0  0  0
    0.5143   -1.3250    1.3170 H   0  0  0  0  0  0  0  0  0  0  0  0
    0.4208    1.5392    0.9215 H   0  0  0  0  0  0  0  0  0  0  0  0
  1  2  1  0
  2  3  1  0
  2  4  1  0
  4  5  1  0
  5  6  1  0
  6  7  2  0
  7  8  1  0
  8  9  1  0
  9  2  1  0
  9  5  1  0
  1 10  1  0
  1 11  1  0
  1 12  1  0
  3 13  1  0
  3 14  1  0
  3 15  1  0
  5 16  1  0
  6 17  1  0
  7 18  1  0
  8 19  1  0
  8 20  1  0
  9 21  1  0
M  END
