
     RDKit          3D

 21 22  0  0  0  0  0  0  0  0999 V2000
   -1.9668   -0.9084   -0.1590 C   0  0  0  0  0  0  0  0  0  0  0  0
   -0.9472   -0.3182    0.8003 C   0  0  0  0  0  0  0  0  0  0  0  0
   -1.3071   -0.6500    2.1240 O   0  0  0  0  0  0  0  0  0  0  0  0
   -0.8819    1.1690    0.6176 C   0  0  0  0  0  0  0  0  0  0  0  0
    0.5866    1.4956    0.4393 C   0  0  0  0  0  0  0  0  0  0  0  0
    1.2984    0.2517    0.0973 C   0  0  0  0  0  0  0  0  0  0  0  0
    2.3872    0.0267   -0.7368 C   0  0  0  0  0  0  0  0  0  0  0  0
    2.6635    0.2395    0.6141 O   0  0  0  0  0  0  0  0  0  0  0  0
    0.4217   -0.8759    0.5668 C   0  0  0  0  0  0  0  0  0  0  0  0
   -2.6268   -0.1175   -0.5807 H   0  0  0  0  0  0  0  0  0  0  0  0
   -1.4393   -1.4034   -1.0112 H   0  0  0  0  0  0  0  0  0  0  0  0
   -2.6263   -1.6038    0.3875 H   0  0  0  0  0  0  0  0  0  0  0  0
   -0.9896   -1.5475    2.3766 H   0  0  0  0  0  0  0  0  0  0  0  0
   -1.5048    1.5433   -0.2180 H   0  0  0  0  0  0  0  0  0  0  0  0
   -1.3042    1.6457    1.5395 H   0  0  0  0  0  0  0  0  0  0  0  0
    0.7121    2.3362   -0.2524 H   0  0  0  0  0  0  0  0  0  0  0  0
    0.9374    1.8735    1.4441 H   0  0  0  0  0  0  0  0  0  0  0  0
    2.6307   -1.0042   -1.0656 H   0  0  0  0  0  0  0  0  0  0  0  0
    2.7277    0.8013   -1.4744 H   0  0  0  0  0  0  0  0  0  0  0  0
    0.8910   -1.3111    1.4657 H   0  0  0  0  0  0  0  0  0  0  0  0
    0.3376   -1.6426   -0.2426 H   0  0  0  0  0  0  0  0  0  0  0  0
  1  2  1  0
  2  3  1  0
  2  4  1  0
  4  5  1  0
  5  6  1  0
  6  7  1  0
  7  8  1  0
  6  9  1  0
  9  2  1  0
  8  6  1  0
  1 10  1  0
  1 11  1  0
  1 12  1  0
  3 13  1  0
  4 14  1  0
  4 15  1  0
  5 16  1  0
  5 17  1  0
  7 18  1  0
  7 19  1  0
  9 20  1  0
  9 21  1  0
M  END
