
     RDKit          3D

 21 22  0  0  0  0  0  0  0  0999 V2000
    2.0394    1.5111    0.7353 C   0  0  0  0  0  0  0  0  0  0  0  0
    1.6454    0.2826   -0.0290 C   0  0  0  0  0  0  0  0  0  0  0  0
    0.2238   -0.0996    0.0501 C   0  0  0  0  0  0  0  0  0  0  0  0
   -0.9397   -0.4319    0.1240 C   0  0  0  0  0  0  0  0  0  0  0  0
   -2.3477   -0.8445    0.2360 C   0  0  0  0  0  0  0  0  0  0  0  0
   -3.3228    0.2680    0.1858 C   0  0  0  0  0  0  0  0  0  0  0  0
   -3.1975   -0.5780   -1.0094 C   0  0  0  0  0  0  0  0  0  0  0  0
    2.6589   -0.8863   -0.0226 C   0  0  0  0  0  0  0  0  0  0  0  0
    2.4070   -0.1174   -1.2543 C   0  0  0  0  0  0  0  0  0  0  0  0
    1.1636    2.0599    1.1054 H   0  0  0  0  0  0  0  0  0  0  0  0
    2.5981    1.1677    1.6424 H   0  0  0  0  0  0  0  0  0  0  0  0
    2.6614    2.1374    0.0671 H   0  0  0  0  0  0  0  0  0  0  0  0
   -2.5964   -1.7492    0.8177 H   0  0  0  0  0  0  0  0  0  0  0  0
   -3.0029    1.3278    0.1454 H   0  0  0  0  0  0  0  0  0  0  0  0
   -4.2353    0.1217    0.8265 H   0  0  0  0  0  0  0  0  0  0  0  0
   -3.9577   -1.3638   -1.2485 H   0  0  0  0  0  0  0  0  0  0  0  0
   -2.6564   -0.2420   -1.9142 H   0  0  0  0  0  0  0  0  0  0  0  0
    2.2184   -1.8747    0.1623 H   0  0  0  0  0  0  0  0  0  0  0  0
    3.5950   -0.7178    0.5703 H   0  0  0  0  0  0  0  0  0  0  0  0
    1.8785   -0.5917   -2.0955 H   0  0  0  0  0  0  0  0  0  0  0  0
    3.1668    0.6210   -1.5755 H   0  0  0  0  0  0  0  0  0  0  0  0
  1  2  1  0
  2  3  1  0
  3  4  3  0
  4  5  1  0
  5  6  1  0
  6  7  1  0
  2  8  1  0
  8  9  1  0
  9  2  1  0
  7  5  1  0
  1 10  1  0
  1 11  1  0
  1 12  1  0
  5 13  1  0
  6 14  1  0
  6 15  1  0
  7 16  1  0
  7 17  1  0
  8 18  1  0
  8 19  1  0
  9 20  1  0
  9 21  1  0
M  END
