
     RDKit          3D

 18 18  0  0  0  0  0  0  0  0999 V2000
   -1.1891   -0.8510   -0.7914 C   0  0  0  0  0  0  0  0  0  0  0  0
   -0.8030    0.0374    0.3543 C   0  0  0  0  0  0  0  0  0  0  0  0
   -1.8046    0.6437    1.0519 O   0  0  0  0  0  0  0  0  0  0  0  0
    0.2700   -0.6535    1.2092 C   0  0  0  0  0  0  0  0  0  0  0  0
    1.2192   -0.2787    0.0603 C   0  0  0  0  0  0  0  0  0  0  0  0
    2.5112   -0.0358    0.4318 O   0  0  0  0  0  0  0  0  0  0  0  0
    0.3366    0.9617   -0.0988 C   0  0  0  0  0  0  0  0  0  0  0  0
    0.1626    1.3810   -1.4019 O   0  0  0  0  0  0  0  0  0  0  0  0
   -0.8684   -0.4131   -1.7726 H   0  0  0  0  0  0  0  0  0  0  0  0
   -0.7144   -1.8603   -0.7351 H   0  0  0  0  0  0  0  0  0  0  0  0
   -2.2716   -1.0137   -0.7482 H   0  0  0  0  0  0  0  0  0  0  0  0
   -2.1247    1.4314    0.5273 H   0  0  0  0  0  0  0  0  0  0  0  0
    0.1257   -1.7259    1.3476 H   0  0  0  0  0  0  0  0  0  0  0  0
    0.4451   -0.0357    2.1020 H   0  0  0  0  0  0  0  0  0  0  0  0
    1.1029   -0.9363   -0.8112 H   0  0  0  0  0  0  0  0  0  0  0  0
    3.0845   -0.7367   -0.0093 H   0  0  0  0  0  0  0  0  0  0  0  0
    0.5545    1.7309    0.6530 H   0  0  0  0  0  0  0  0  0  0  0  0
   -0.0364    2.3546   -1.3690 H   0  0  0  0  0  0  0  0  0  0  0  0
  1  2  1  0
  2  3  1  0
  2  4  1  0
  4  5  1  0
  5  6  1  0
  5  7  1  0
  7  8  1  0
  7  2  1  0
  1  9  1  0
  1 10  1  0
  1 11  1  0
  3 12  1  0
  4 13  1  0
  4 14  1  0
  5 15  1  0
  6 16  1  0
  7 17  1  0
  8 18  1  0
M  END
