
     RDKit          3D

 23 25  0  0  0  0  0  0  0  0999 V2000
   -2.4016   -0.9609   -0.1508 C   0  0  0  0  0  0  0  0  0  0  0  0
   -1.0248   -0.3264    0.1477 C   0  0  0  0  0  0  0  0  0  0  0  0
   -1.0842    0.5981    1.3029 C   0  0  0  0  0  0  0  0  0  0  0  0
   -0.3371    0.2297   -1.0767 C   0  0  0  0  0  0  0  0  0  0  0  0
    0.7646    1.2436   -0.9332 C   0  0  0  0  0  0  0  0  0  0  0  0
    1.9371    0.6079   -0.3176 C   0  0  0  0  0  0  0  0  0  0  0  0
    2.0434    0.0064    0.9897 C   0  0  0  0  0  0  0  0  0  0  0  0
    1.5410   -0.8062   -0.1255 C   0  0  0  0  0  0  0  0  0  0  0  0
    0.1114   -1.0086   -0.3997 C   0  0  0  0  0  0  0  0  0  0  0  0
   -3.0122   -1.0146    0.7675 H   0  0  0  0  0  0  0  0  0  0  0  0
   -2.8576   -0.3442   -0.9275 H   0  0  0  0  0  0  0  0  0  0  0  0
   -2.2644   -2.0083   -0.4951 H   0  0  0  0  0  0  0  0  0  0  0  0
   -0.4495    1.5108    1.2270 H   0  0  0  0  0  0  0  0  0  0  0  0
   -2.1246    1.0459    1.3732 H   0  0  0  0  0  0  0  0  0  0  0  0
   -0.9743    0.0893    2.3050 H   0  0  0  0  0  0  0  0  0  0  0  0
   -0.8653    0.1242   -2.0621 H   0  0  0  0  0  0  0  0  0  0  0  0
    0.4305    2.2013   -0.4657 H   0  0  0  0  0  0  0  0  0  0  0  0
    1.0149    1.5545   -1.9938 H   0  0  0  0  0  0  0  0  0  0  0  0
    2.9209    0.8648   -0.8222 H   0  0  0  0  0  0  0  0  0  0  0  0
    1.3735    0.1153    1.8504 H   0  0  0  0  0  0  0  0  0  0  0  0
    3.0842   -0.2319    1.3659 H   0  0  0  0  0  0  0  0  0  0  0  0
    2.2750   -1.5224   -0.5895 H   0  0  0  0  0  0  0  0  0  0  0  0
   -0.1009   -1.9684   -0.9698 H   0  0  0  0  0  0  0  0  0  0  0  0
  1  2  1  0
  2  3  1  0
  2  4  1  0
  4  5  1  0
  5  6  1  0
  6  7  1  0
  7  8  1  0
  8  9  1  0
  9  2  1  0
  9  4  1  0
  8  6  1  0
  1 10  1  0
  1 11  1  0
  1 12  1  0
  3 13  1  0
  3 14  1  0
  3 15  1  0
  4 16  1  0
  5 17  1  0
  5 18  1  0
  6 19  1  0
  7 20  1  0
  7 21  1  0
  8 22  1  0
  9 23  1  0
M  END
