
     RDKit          3D

 21 22  0  0  0  0  0  0  0  0999 V2000
   -1.9346   -0.2886    0.3176 C   0  0  0  0  0  0  0  0  0  0  0  0
   -0.6764    0.5167    0.0262 C   0  0  0  0  0  0  0  0  0  0  0  0
   -0.7831    1.1843   -1.2989 C   0  0  0  0  0  0  0  0  0  0  0  0
   -0.4926    1.4648    1.0621 O   0  0  0  0  0  0  0  0  0  0  0  0
    0.3481    0.5457    1.7310 C   0  0  0  0  0  0  0  0  0  0  0  0
    0.5816   -0.1036    0.4277 C   0  0  0  0  0  0  0  0  0  0  0  0
    1.0374   -1.4524    0.2038 C   0  0  0  0  0  0  0  0  0  0  0  0
    1.8025   -0.2434   -0.2941 C   0  0  0  0  0  0  0  0  0  0  0  0
    1.8692   -0.0873   -1.6819 O   0  0  0  0  0  0  0  0  0  0  0  0
   -1.5866   -1.2535    0.7674 H   0  0  0  0  0  0  0  0  0  0  0  0
   -2.5999    0.2779    1.0076 H   0  0  0  0  0  0  0  0  0  0  0  0
   -2.5183   -0.4933   -0.6104 H   0  0  0  0  0  0  0  0  0  0  0  0
    0.1149    1.7009   -1.6430 H   0  0  0  0  0  0  0  0  0  0  0  0
   -1.5981    1.9418   -1.2592 H   0  0  0  0  0  0  0  0  0  0  0  0
   -1.0770    0.4242   -2.0692 H   0  0  0  0  0  0  0  0  0  0  0  0
    1.1843    0.9899    2.2713 H   0  0  0  0  0  0  0  0  0  0  0  0
   -0.3131   -0.0516    2.4185 H   0  0  0  0  0  0  0  0  0  0  0  0
    0.4918   -2.0910   -0.4999 H   0  0  0  0  0  0  0  0  0  0  0  0
    1.5044   -1.9957    1.0598 H   0  0  0  0  0  0  0  0  0  0  0  0
    2.7705   -0.0153    0.2135 H   0  0  0  0  0  0  0  0  0  0  0  0
    1.8750   -0.9704   -2.1499 H   0  0  0  0  0  0  0  0  0  0  0  0
  1  2  1  0
  2  3  1  0
  2  4  1  0
  4  5  1  0
  5  6  1  0
  6  7  1  0
  7  8  1  0
  8  9  1  0
  6  2  1  0
  8  6  1  0
  1 10  1  0
  1 11  1  0
  1 12  1  0
  3 13  1  0
  3 14  1  0
  3 15  1  0
  5 16  1  0
  5 17  1  0
  7 18  1  0
  7 19  1  0
  8 20  1  0
  9 21  1  0
M  END
