
     RDKit          3D

 23 24  0  0  0  0  0  0  0  0999 V2000
   -0.0820   -1.8942    0.4946 C   0  0  0  0  0  0  0  0  0  0  0  0
   -0.0760   -0.4546    0.0271 C   0  0  0  0  0  0  0  0  0  0  0  0
    1.1807    0.0121   -0.6175 C   0  0  0  0  0  0  0  0  0  0  0  0
    2.4849    0.0026    0.0982 C   0  0  0  0  0  0  0  0  0  0  0  0
    1.8058    1.2914   -0.2612 C   0  0  0  0  0  0  0  0  0  0  0  0
   -1.2621   -0.1992   -0.9160 C   0  0  0  0  0  0  0  0  0  0  0  0
   -2.0452    0.4444    0.2067 C   0  0  0  0  0  0  0  0  0  0  0  0
   -2.5229    1.7233   -0.0720 O   0  0  0  0  0  0  0  0  0  0  0  0
   -0.7468    0.4288    1.0158 C   0  0  0  0  0  0  0  0  0  0  0  0
   -0.4009   -1.9853    1.5577 H   0  0  0  0  0  0  0  0  0  0  0  0
    0.9261   -2.3534    0.4421 H   0  0  0  0  0  0  0  0  0  0  0  0
   -0.7666   -2.4972   -0.1275 H   0  0  0  0  0  0  0  0  0  0  0  0
    1.2685   -0.2787   -1.7064 H   0  0  0  0  0  0  0  0  0  0  0  0
    3.4207   -0.1918   -0.4657 H   0  0  0  0  0  0  0  0  0  0  0  0
    2.5659   -0.2847    1.1628 H   0  0  0  0  0  0  0  0  0  0  0  0
    2.2340    1.9228   -1.0803 H   0  0  0  0  0  0  0  0  0  0  0  0
    1.5137    1.8998    0.6111 H   0  0  0  0  0  0  0  0  0  0  0  0
   -1.0510    0.5584   -1.6984 H   0  0  0  0  0  0  0  0  0  0  0  0
   -1.6955   -1.1029   -1.3541 H   0  0  0  0  0  0  0  0  0  0  0  0
   -2.8215   -0.2540    0.5945 H   0  0  0  0  0  0  0  0  0  0  0  0
   -2.5696    1.8186   -1.0729 H   0  0  0  0  0  0  0  0  0  0  0  0
   -0.3982    1.4471    1.1478 H   0  0  0  0  0  0  0  0  0  0  0  0
   -0.9619   -0.0533    2.0133 H   0  0  0  0  0  0  0  0  0  0  0  0
  1  2  1  0
  2  3  1  0
  3  4  1  0
  4  5  1  0
  2  6  1  0
  6  7  1  0
  7  8  1  0
  7  9  1  0
  9  2  1  0
  5  3  1  0
  1 10  1  0
  1 11  1  0
  1 12  1  0
  3 13  1  0
  4 14  1  0
  4 15  1  0
  5 16  1  0
  5 17  1  0
  6 18  1  0
  6 19  1  0
  7 20  1  0
  8 21  1  0
  9 22  1  0
  9 23  1  0
M  END
