
     RDKit          3D

 21 22  0  0  0  0  0  0  0  0999 V2000
   -2.6561   -0.9193    0.3945 C   0  0  0  0  0  0  0  0  0  0  0  0
   -1.7293    0.0428   -0.3105 C   0  0  0  0  0  0  0  0  0  0  0  0
   -1.9044    1.3909    0.0249 O   0  0  0  0  0  0  0  0  0  0  0  0
   -1.3102   -0.2035   -1.7048 C   0  0  0  0  0  0  0  0  0  0  0  0
   -0.3140   -0.4206   -0.6385 C   0  0  0  0  0  0  0  0  0  0  0  0
    0.6620    0.4951   -0.3278 O   0  0  0  0  0  0  0  0  0  0  0  0
    1.7783   -0.0508    0.2715 C   0  0  0  0  0  0  0  0  0  0  0  0
    2.6601    0.7060    1.1702 C   0  0  0  0  0  0  0  0  0  0  0  0
    3.0926    0.5314   -0.2400 C   0  0  0  0  0  0  0  0  0  0  0  0
   -2.2904   -1.9498    0.4196 H   0  0  0  0  0  0  0  0  0  0  0  0
   -3.6286   -0.8894   -0.1739 H   0  0  0  0  0  0  0  0  0  0  0  0
   -2.9068   -0.5074    1.4008 H   0  0  0  0  0  0  0  0  0  0  0  0
   -2.7906    1.7252   -0.1861 H   0  0  0  0  0  0  0  0  0  0  0  0
   -1.6655   -1.0761   -2.2708 H   0  0  0  0  0  0  0  0  0  0  0  0
   -1.1011    0.6733   -2.3711 H   0  0  0  0  0  0  0  0  0  0  0  0
   -0.0861   -1.4806   -0.3711 H   0  0  0  0  0  0  0  0  0  0  0  0
    1.7244   -1.1512    0.4150 H   0  0  0  0  0  0  0  0  0  0  0  0
    3.1953    0.1280    1.9618 H   0  0  0  0  0  0  0  0  0  0  0  0
    2.3805    1.7275    1.5318 H   0  0  0  0  0  0  0  0  0  0  0  0
    3.8442   -0.2158   -0.5170 H   0  0  0  0  0  0  0  0  0  0  0  0
    3.0457    1.4441   -0.8774 H   0  0  0  0  0  0  0  0  0  0  0  0
  1  2  1  0
  2  3  1  0
  2  4  1  0
  4  5  1  0
  5  6  1  0
  6  7  1  0
  7  8  1  0
  8  9  1  0
  5  2  1  0
  9  7  1  0
  1 10  1  0
  1 11  1  0
  1 12  1  0
  3 13  1  0
  4 14  1  0
  4 15  1  0
  5 16  1  0
  7 17  1  0
  8 18  1  0
  8 19  1  0
  9 20  1  0
  9 21  1  0
M  END
