
     RDKit          3D

 20 21  0  0  0  0  0  0  0  0999 V2000
   -2.0597   -0.0430   -0.3163 C   0  0  0  0  0  0  0  0  0  0  0  0
   -0.6221    0.0920    0.1355 C   0  0  0  0  0  0  0  0  0  0  0  0
   -0.4827    1.1047    1.2304 C   0  0  0  0  0  0  0  0  0  0  0  0
   -0.0299   -1.2477    0.4632 C   0  0  0  0  0  0  0  0  0  0  0  0
    0.9451   -1.0790   -0.6755 C   0  0  0  0  0  0  0  0  0  0  0  0
    1.8086    0.1156   -0.7472 C   0  0  0  0  0  0  0  0  0  0  0  0
    2.2402    0.7911    0.3752 O   0  0  0  0  0  0  0  0  0  0  0  0
    0.3240    0.2088   -1.0149 C   0  0  0  0  0  0  0  0  0  0  0  0
   -2.6184   -0.4824    0.5534 H   0  0  0  0  0  0  0  0  0  0  0  0
   -2.4509    0.9625   -0.5762 H   0  0  0  0  0  0  0  0  0  0  0  0
   -2.1080   -0.7548   -1.1605 H   0  0  0  0  0  0  0  0  0  0  0  0
    0.2357    1.9120    1.0023 H   0  0  0  0  0  0  0  0  0  0  0  0
   -1.4705    1.5818    1.4630 H   0  0  0  0  0  0  0  0  0  0  0  0
   -0.1371    0.5907    2.1524 H   0  0  0  0  0  0  0  0  0  0  0  0
    0.4686   -1.3147    1.4524 H   0  0  0  0  0  0  0  0  0  0  0  0
   -0.7126   -2.0924    0.2854 H   0  0  0  0  0  0  0  0  0  0  0  0
    1.0553   -1.9104   -1.3915 H   0  0  0  0  0  0  0  0  0  0  0  0
    2.4349    0.2039   -1.6521 H   0  0  0  0  0  0  0  0  0  0  0  0
    3.2112    0.8923    0.4466 H   0  0  0  0  0  0  0  0  0  0  0  0
   -0.0316    0.4691   -2.0256 H   0  0  0  0  0  0  0  0  0  0  0  0
  1  2  1  0
  2  3  1  0
  2  4  1  0
  4  5  1  0
  5  6  1  0
  6  7  1  0
  6  8  1  0
  8  2  1  0
  8  5  1  0
  1  9  1  0
  1 10  1  0
  1 11  1  0
  3 12  1  0
  3 13  1  0
  3 14  1  0
  4 15  1  0
  4 16  1  0
  5 17  1  0
  6 18  1  0
  7 19  1  0
  8 20  1  0
M  END
