
     RDKit          3D

 25 25  0  0  0  0  0  0  0  0999 V2000
   -1.2572    0.3292    1.2397 C   0  0  0  0  0  0  0  0  0  0  0  0
   -0.9529    0.2491   -0.2165 C   0  0  0  0  0  0  0  0  0  0  0  0
   -2.3158    0.4031   -0.9202 C   0  0  0  0  0  0  0  0  0  0  0  0
   -0.4045   -1.0523   -0.6660 C   0  0  0  0  0  0  0  0  0  0  0  0
    0.7373   -1.5954    0.1098 C   0  0  0  0  0  0  0  0  0  0  0  0
    1.8490   -0.7076    0.4361 C   0  0  0  0  0  0  0  0  0  0  0  0
    1.9618    0.5566   -0.3494 C   0  0  0  0  0  0  0  0  0  0  0  0
    0.9139    1.5883    0.0703 C   0  0  0  0  0  0  0  0  0  0  0  0
   -0.2079    1.3423   -0.6827 O   0  0  0  0  0  0  0  0  0  0  0  0
   -0.4663    0.0273    1.9127 H   0  0  0  0  0  0  0  0  0  0  0  0
   -1.6073    1.3549    1.4679 H   0  0  0  0  0  0  0  0  0  0  0  0
   -2.1324   -0.3414    1.4346 H   0  0  0  0  0  0  0  0  0  0  0  0
   -2.8280   -0.5634   -0.9285 H   0  0  0  0  0  0  0  0  0  0  0  0
   -2.8919    1.2352   -0.4912 H   0  0  0  0  0  0  0  0  0  0  0  0
   -2.0639    0.6459   -1.9776 H   0  0  0  0  0  0  0  0  0  0  0  0
   -0.1979   -0.9876   -1.7563 H   0  0  0  0  0  0  0  0  0  0  0  0
   -1.2406   -1.8123   -0.5912 H   0  0  0  0  0  0  0  0  0  0  0  0
    0.3233   -2.0313    1.0654 H   0  0  0  0  0  0  0  0  0  0  0  0
    1.1087   -2.4966   -0.4517 H   0  0  0  0  0  0  0  0  0  0  0  0
    1.8607   -0.4149    1.5266 H   0  0  0  0  0  0  0  0  0  0  0  0
    2.8323   -1.2527    0.3094 H   0  0  0  0  0  0  0  0  0  0  0  0
    1.9785    0.4276   -1.4288 H   0  0  0  0  0  0  0  0  0  0  0  0
    2.9453    1.0327   -0.0614 H   0  0  0  0  0  0  0  0  0  0  0  0
    0.7468    1.4856    1.1621 H   0  0  0  0  0  0  0  0  0  0  0  0
    1.3091    2.5777   -0.2134 H   0  0  0  0  0  0  0  0  0  0  0  0
  1  2  1  0
  2  3  1  0
  2  4  1  0
  4  5  1  0
  5  6  1  0
  6  7  1  0
  7  8  1  0
  8  9  1  0
  9  2  1  0
  1 10  1  0
  1 11  1  0
  1 12  1  0
  3 13  1  0
  3 14  1  0
  3 15  1  0
  4 16  1  0
  4 17  1  0
  5 18  1  0
  5 19  1  0
  6 20  1  0
  6 21  1  0
  7 22  1  0
  7 23  1  0
  8 24  1  0
  8 25  1  0
M  END
