
     RDKit          3D

 19 20  0  0  0  0  0  0  0  0999 V2000
    0.9403    0.5160   -1.4498 C   0  0  0  0  0  0  0  0  0  0  0  0
    0.3620    0.4605   -0.0643 C   0  0  0  0  0  0  0  0  0  0  0  0
    1.4342    0.3924    1.0033 C   0  0  0  0  0  0  0  0  0  0  0  0
    2.3591   -0.5871    0.6389 O   0  0  0  0  0  0  0  0  0  0  0  0
   -0.6300    1.3930    0.1619 O   0  0  0  0  0  0  0  0  0  0  0  0
   -1.7093    0.5431    0.1532 C   0  0  0  0  0  0  0  0  0  0  0  0
   -1.8243   -0.6059   -0.7550 C   0  0  0  0  0  0  0  0  0  0  0  0
   -0.6669   -0.6165    0.1716 C   0  0  0  0  0  0  0  0  0  0  0  0
   -0.6655   -1.3341    1.3438 O   0  0  0  0  0  0  0  0  0  0  0  0
    1.9963    0.2144   -1.4347 H   0  0  0  0  0  0  0  0  0  0  0  0
    0.3402   -0.0353   -2.1930 H   0  0  0  0  0  0  0  0  0  0  0  0
    0.9308    1.5952   -1.7640 H   0  0  0  0  0  0  0  0  0  0  0  0
    1.0120    0.0626    1.9833 H   0  0  0  0  0  0  0  0  0  0  0  0
    1.9094    1.3832    1.1339 H   0  0  0  0  0  0  0  0  0  0  0  0
    1.8624   -1.3929    0.3516 H   0  0  0  0  0  0  0  0  0  0  0  0
   -2.3821    0.6242    1.0008 H   0  0  0  0  0  0  0  0  0  0  0  0
   -2.6125   -1.3434   -0.5164 H   0  0  0  0  0  0  0  0  0  0  0  0
   -1.6351   -0.5126   -1.8588 H   0  0  0  0  0  0  0  0  0  0  0  0
   -1.0211   -0.7567    2.0937 H   0  0  0  0  0  0  0  0  0  0  0  0
  1  2  1  0
  2  3  1  0
  3  4  1  0
  2  5  1  0
  5  6  1  0
  6  7  1  0
  7  8  1  0
  8  9  1  0
  8  2  1  0
  8  6  1  0
  1 10  1  0
  1 11  1  0
  1 12  1  0
  3 13  1  0
  3 14  1  0
  4 15  1  0
  6 16  1  0
  7 17  1  0
  7 18  1  0
  9 19  1  0
M  END
