
     RDKit          3D

 23 24  0  0  0  0  0  0  0  0999 V2000
   -1.5769   -0.1487    1.2105 C   0  0  0  0  0  0  0  0  0  0  0  0
   -0.7858    0.2183    0.0040 C   0  0  0  0  0  0  0  0  0  0  0  0
   -1.5312    1.0506   -0.9772 C   0  0  0  0  0  0  0  0  0  0  0  0
    0.4851    0.9600    0.4706 C   0  0  0  0  0  0  0  0  0  0  0  0
    1.5162   -0.0671    0.0913 C   0  0  0  0  0  0  0  0  0  0  0  0
    2.7956    0.1092    0.3957 O   0  0  0  0  0  0  0  0  0  0  0  0
    1.1074   -0.4935   -1.2897 C   0  0  0  0  0  0  0  0  0  0  0  0
   -0.1477   -1.0010   -0.5672 C   0  0  0  0  0  0  0  0  0  0  0  0
    0.8331   -1.3642    0.5556 C   0  0  0  0  0  0  0  0  0  0  0  0
   -1.1168    0.2554    2.1420 H   0  0  0  0  0  0  0  0  0  0  0  0
   -2.6070    0.2060    1.0848 H   0  0  0  0  0  0  0  0  0  0  0  0
   -1.6395   -1.2658    1.3224 H   0  0  0  0  0  0  0  0  0  0  0  0
   -1.8795    1.9684   -0.4572 H   0  0  0  0  0  0  0  0  0  0  0  0
   -0.8638    1.3276   -1.8119 H   0  0  0  0  0  0  0  0  0  0  0  0
   -2.4157    0.5141   -1.3159 H   0  0  0  0  0  0  0  0  0  0  0  0
    0.4660    1.1460    1.5483 H   0  0  0  0  0  0  0  0  0  0  0  0
    0.5925    1.9038   -0.1282 H   0  0  0  0  0  0  0  0  0  0  0  0
    3.0223    1.0484    0.5186 H   0  0  0  0  0  0  0  0  0  0  0  0
    1.7389   -1.3481   -1.6236 H   0  0  0  0  0  0  0  0  0  0  0  0
    0.9207    0.2956   -2.0141 H   0  0  0  0  0  0  0  0  0  0  0  0
   -0.7046   -1.7751   -1.0141 H   0  0  0  0  0  0  0  0  0  0  0  0
    1.3637   -2.2783    0.2946 H   0  0  0  0  0  0  0  0  0  0  0  0
    0.4270   -1.2619    1.5607 H   0  0  0  0  0  0  0  0  0  0  0  0
  1  2  1  0
  2  3  1  0
  2  4  1  0
  4  5  1  0
  5  6  1  0
  5  7  1  0
  7  8  1  0
  8  9  1  0
  8  2  1  0
  9  5  1  0
  1 10  1  0
  1 11  1  0
  1 12  1  0
  3 13  1  0
  3 14  1  0
  3 15  1  0
  4 16  1  0
  4 17  1  0
  6 18  1  0
  7 19  1  0
  7 20  1  0
  8 21  1  0
  9 22  1  0
  9 23  1  0
M  END
