
     RDKit          3D

 21 22  0  0  0  0  0  0  0  0999 V2000
    1.7173    1.1016   -0.8891 C   0  0  0  0  0  0  0  0  0  0  0  0
    1.2426   -0.0979   -0.1084 C   0  0  0  0  0  0  0  0  0  0  0  0
    2.0033   -1.2504   -0.3326 O   0  0  0  0  0  0  0  0  0  0  0  0
    0.8062    0.1007    1.3274 C   0  0  0  0  0  0  0  0  0  0  0  0
   -0.1819   -0.2392    0.2764 C   0  0  0  0  0  0  0  0  0  0  0  0
   -0.7014   -1.6828    0.2735 C   0  0  0  0  0  0  0  0  0  0  0  0
   -1.1926    0.7941   -0.1780 C   0  0  0  0  0  0  0  0  0  0  0  0
   -2.6174    0.5697    0.2603 C   0  0  0  0  0  0  0  0  0  0  0  0
   -1.7918    1.5257    0.8603 O   0  0  0  0  0  0  0  0  0  0  0  0
    0.9324    1.8280   -1.0877 H   0  0  0  0  0  0  0  0  0  0  0  0
    2.5761    1.5440   -0.3088 H   0  0  0  0  0  0  0  0  0  0  0  0
    2.1371    0.7451   -1.8403 H   0  0  0  0  0  0  0  0  0  0  0  0
    2.8094   -1.1639    0.2135 H   0  0  0  0  0  0  0  0  0  0  0  0
    0.8132    1.1166    1.7513 H   0  0  0  0  0  0  0  0  0  0  0  0
    1.1200   -0.6703    2.0790 H   0  0  0  0  0  0  0  0  0  0  0  0
    0.1581   -2.3866    0.4079 H   0  0  0  0  0  0  0  0  0  0  0  0
   -1.4002   -1.8667    1.0905 H   0  0  0  0  0  0  0  0  0  0  0  0
   -1.0988   -1.8684   -0.7343 H   0  0  0  0  0  0  0  0  0  0  0  0
   -1.0805    1.2607   -1.1692 H   0  0  0  0  0  0  0  0  0  0  0  0
   -2.8216   -0.3720    0.8051 H   0  0  0  0  0  0  0  0  0  0  0  0
   -3.4294    1.0119   -0.3342 H   0  0  0  0  0  0  0  0  0  0  0  0
  1  2  1  0
  2  3  1  0
  2  4  1  0
  4  5  1  0
  5  6  1  0
  5  7  1  0
  7  8  1  0
  8  9  1  0
  5  2  1  0
  9  7  1  0
  1 10  1  0
  1 11  1  0
  1 12  1  0
  3 13  1  0
  4 14  1  0
  4 15  1  0
  6 16  1  0
  6 17  1  0
  6 18  1  0
  7 19  1  0
  8 20  1  0
  8 21  1  0
M  END
