
     RDKit          3D

 21 22  0  0  0  0  0  0  0  0999 V2000
    1.8877   -1.1648    0.2254 C   0  0  0  0  0  0  0  0  0  0  0  0
    1.0202    0.0737    0.1797 C   0  0  0  0  0  0  0  0  0  0  0  0
    1.7331    1.3584    0.4663 C   0  0  0  0  0  0  0  0  0  0  0  0
   -0.0971   -0.1425    1.0163 O   0  0  0  0  0  0  0  0  0  0  0  0
   -0.9900   -0.2212   -0.0223 C   0  0  0  0  0  0  0  0  0  0  0  0
   -2.3172    0.4569    0.0582 C   0  0  0  0  0  0  0  0  0  0  0  0
   -2.9988   -0.0894    1.1689 O   0  0  0  0  0  0  0  0  0  0  0  0
   -0.7509   -1.0943   -1.1955 C   0  0  0  0  0  0  0  0  0  0  0  0
    0.0563    0.1443   -0.9735 C   0  0  0  0  0  0  0  0  0  0  0  0
    2.5816   -1.2420   -0.6143 H   0  0  0  0  0  0  0  0  0  0  0  0
    2.4092   -1.1368    1.2252 H   0  0  0  0  0  0  0  0  0  0  0  0
    1.2158   -2.0376    0.2744 H   0  0  0  0  0  0  0  0  0  0  0  0
    2.8051    1.1033    0.6754 H   0  0  0  0  0  0  0  0  0  0  0  0
    1.6961    2.0492   -0.4137 H   0  0  0  0  0  0  0  0  0  0  0  0
    1.2972    1.9141    1.3080 H   0  0  0  0  0  0  0  0  0  0  0  0
   -2.2433    1.5532    0.2430 H   0  0  0  0  0  0  0  0  0  0  0  0
   -2.8810    0.3060   -0.8674 H   0  0  0  0  0  0  0  0  0  0  0  0
   -2.6719    0.2980    1.9977 H   0  0  0  0  0  0  0  0  0  0  0  0
   -0.3004   -2.0996   -1.0894 H   0  0  0  0  0  0  0  0  0  0  0  0
   -1.4746   -1.0267   -2.0190 H   0  0  0  0  0  0  0  0  0  0  0  0
    0.0230    0.9977   -1.6434 H   0  0  0  0  0  0  0  0  0  0  0  0
  1  2  1  0
  2  3  1  0
  2  4  1  0
  4  5  1  0
  5  6  1  0
  6  7  1  0
  5  8  1  0
  8  9  1  0
  9  2  1  0
  9  5  1  0
  1 10  1  0
  1 11  1  0
  1 12  1  0
  3 13  1  0
  3 14  1  0
  3 15  1  0
  6 16  1  0
  6 17  1  0
  7 18  1  0
  8 19  1  0
  8 20  1  0
  9 21  1  0
M  END
