
     RDKit          3D

 19 20  0  0  0  0  0  0  0  0999 V2000
    1.6374    1.0596   -0.3129 C   0  0  0  0  0  0  0  0  0  0  0  0
    0.8926   -0.2266   -0.0086 C   0  0  0  0  0  0  0  0  0  0  0  0
    1.8336   -1.2734    0.0796 O   0  0  0  0  0  0  0  0  0  0  0  0
    0.2842   -0.0919    1.3290 C   0  0  0  0  0  0  0  0  0  0  0  0
   -0.9897    0.1549    1.5360 C   0  0  0  0  0  0  0  0  0  0  0  0
   -1.8946    0.3127    0.3932 C   0  0  0  0  0  0  0  0  0  0  0  0
   -2.3551   -0.8893   -0.1569 O   0  0  0  0  0  0  0  0  0  0  0  0
   -1.4630   -0.1259   -0.8819 C   0  0  0  0  0  0  0  0  0  0  0  0
   -0.0638   -0.5701   -1.0880 C   0  0  0  0  0  0  0  0  0  0  0  0
    0.9361    1.7955   -0.7606 H   0  0  0  0  0  0  0  0  0  0  0  0
    2.4498    0.7915   -1.0229 H   0  0  0  0  0  0  0  0  0  0  0  0
    2.1112    1.4974    0.5886 H   0  0  0  0  0  0  0  0  0  0  0  0
    1.2953   -2.1155    0.2037 H   0  0  0  0  0  0  0  0  0  0  0  0
    0.9470   -0.2070    2.1945 H   0  0  0  0  0  0  0  0  0  0  0  0
   -1.3462    0.2369    2.5431 H   0  0  0  0  0  0  0  0  0  0  0  0
   -2.6299    1.1632    0.4574 H   0  0  0  0  0  0  0  0  0  0  0  0
   -1.9331    0.3444   -1.7941 H   0  0  0  0  0  0  0  0  0  0  0  0
   -0.0788   -1.6881   -1.2495 H   0  0  0  0  0  0  0  0  0  0  0  0
    0.3670   -0.1682   -2.0498 H   0  0  0  0  0  0  0  0  0  0  0  0
  1  2  1  0
  2  3  1  0
  2  4  1  0
  4  5  2  0
  5  6  1  0
  6  7  1  0
  7  8  1  0
  8  9  1  0
  9  2  1  0
  8  6  1  0
  1 10  1  0
  1 11  1  0
  1 12  1  0
  3 13  1  0
  4 14  1  0
  5 15  1  0
  6 16  1  0
  8 17  1  0
  9 18  1  0
  9 19  1  0
M  END
