
     RDKit          3D

 23 23  0  0  0  0  0  0  0  0999 V2000
   -1.1838    0.3954    1.3045 C   0  0  0  0  0  0  0  0  0  0  0  0
   -0.7656    0.0392   -0.0888 C   0  0  0  0  0  0  0  0  0  0  0  0
   -1.6802   -0.9677   -0.7278 C   0  0  0  0  0  0  0  0  0  0  0  0
   -0.4754    1.2717   -0.8930 C   0  0  0  0  0  0  0  0  0  0  0  0
    0.9859    1.0576   -0.6604 C   0  0  0  0  0  0  0  0  0  0  0  0
    1.5427    1.7256    0.4212 O   0  0  0  0  0  0  0  0  0  0  0  0
    0.6721   -0.3731   -0.2629 C   0  0  0  0  0  0  0  0  0  0  0  0
    1.3783   -0.8460    0.9709 C   0  0  0  0  0  0  0  0  0  0  0  0
    0.8571   -1.2077   -1.3541 O   0  0  0  0  0  0  0  0  0  0  0  0
   -1.5461   -0.5241    1.8131 H   0  0  0  0  0  0  0  0  0  0  0  0
   -0.4080    0.9098    1.8884 H   0  0  0  0  0  0  0  0  0  0  0  0
   -2.0704    1.0879    1.2662 H   0  0  0  0  0  0  0  0  0  0  0  0
   -1.3113   -1.1778   -1.7561 H   0  0  0  0  0  0  0  0  0  0  0  0
   -1.5348   -1.9333   -0.1655 H   0  0  0  0  0  0  0  0  0  0  0  0
   -2.7399   -0.7226   -0.6691 H   0  0  0  0  0  0  0  0  0  0  0  0
   -0.7950    1.1623   -1.9432 H   0  0  0  0  0  0  0  0  0  0  0  0
   -0.8129    2.2305   -0.4700 H   0  0  0  0  0  0  0  0  0  0  0  0
    1.5589    1.1644   -1.6057 H   0  0  0  0  0  0  0  0  0  0  0  0
    2.5246    1.7932    0.2303 H   0  0  0  0  0  0  0  0  0  0  0  0
    0.6424   -1.0950    1.7495 H   0  0  0  0  0  0  0  0  0  0  0  0
    2.0974   -0.0679    1.2910 H   0  0  0  0  0  0  0  0  0  0  0  0
    1.9193   -1.7987    0.7408 H   0  0  0  0  0  0  0  0  0  0  0  0
    1.1446   -2.1239   -1.0793 H   0  0  0  0  0  0  0  0  0  0  0  0
  1  2  1  0
  2  3  1  0
  2  4  1  0
  4  5  1  0
  5  6  1  0
  5  7  1  0
  7  8  1  0
  7  9  1  0
  7  2  1  0
  1 10  1  0
  1 11  1  0
  1 12  1  0
  3 13  1  0
  3 14  1  0
  3 15  1  0
  4 16  1  0
  4 17  1  0
  5 18  1  0
  6 19  1  0
  8 20  1  0
  8 21  1  0
  8 22  1  0
  9 23  1  0
M  END
