
     RDKit          3D

 19 19  0  0  0  0  0  0  0  0999 V2000
   -1.6851   -0.5847    0.5302 C   0  0  0  0  0  0  0  0  0  0  0  0
   -1.0208    0.2864   -0.4886 C   0  0  0  0  0  0  0  0  0  0  0  0
   -1.8448    0.7019   -1.5142 O   0  0  0  0  0  0  0  0  0  0  0  0
   -0.2770    1.4412    0.1455 C   0  0  0  0  0  0  0  0  0  0  0  0
    0.9225    1.0469    0.5379 C   0  0  0  0  0  0  0  0  0  0  0  0
    1.0500   -0.3809    0.1953 C   0  0  0  0  0  0  0  0  0  0  0  0
    2.4440   -0.8098   -0.0379 C   0  0  0  0  0  0  0  0  0  0  0  0
    2.6704   -2.0062   -0.0038 O   0  0  0  0  0  0  0  0  0  0  0  0
    0.1919   -0.4918   -1.0414 C   0  0  0  0  0  0  0  0  0  0  0  0
   -1.6873   -0.1688    1.5527 H   0  0  0  0  0  0  0  0  0  0  0  0
   -1.2726   -1.6268    0.5564 H   0  0  0  0  0  0  0  0  0  0  0  0
   -2.7610   -0.7262    0.2196 H   0  0  0  0  0  0  0  0  0  0  0  0
   -2.0608    1.6676   -1.3086 H   0  0  0  0  0  0  0  0  0  0  0  0
   -0.7250    2.4182    0.2307 H   0  0  0  0  0  0  0  0  0  0  0  0
    1.6865    1.6865    1.0348 H   0  0  0  0  0  0  0  0  0  0  0  0
    0.5834   -0.9410    1.0534 H   0  0  0  0  0  0  0  0  0  0  0  0
    3.2088   -0.0684   -0.2283 H   0  0  0  0  0  0  0  0  0  0  0  0
    0.6587    0.0772   -1.8473 H   0  0  0  0  0  0  0  0  0  0  0  0
   -0.0818   -1.5211   -1.2983 H   0  0  0  0  0  0  0  0  0  0  0  0
  1  2  1  0
  2  3  1  0
  2  4  1  0
  4  5  2  0
  5  6  1  0
  6  7  1  0
  7  8  2  0
  6  9  1  0
  9  2  1  0
  1 10  1  0
  1 11  1  0
  1 12  1  0
  3 13  1  0
  4 14  1  0
  5 15  1  0
  6 16  1  0
  7 17  1  0
  9 18  1  0
  9 19  1  0
M  END
