
     RDKit          3D

 18 19  0  0  0  0  0  0  0  0999 V2000
    0.1353    1.4963   -0.9139 C   0  0  0  0  0  0  0  0  0  0  0  0
    0.0370    0.1627   -0.1766 C   0  0  0  0  0  0  0  0  0  0  0  0
    1.3306   -0.5226    0.0310 C   0  0  0  0  0  0  0  0  0  0  0  0
    2.2409    0.2233    0.7812 O   0  0  0  0  0  0  0  0  0  0  0  0
   -1.1653   -0.5970   -0.5780 C   0  0  0  0  0  0  0  0  0  0  0  0
   -1.2711   -1.1487    0.7823 C   0  0  0  0  0  0  0  0  0  0  0  0
   -0.9407    0.2752    0.9261 C   0  0  0  0  0  0  0  0  0  0  0  0
   -1.8838    0.5046   -0.0885 O   0  0  0  0  0  0  0  0  0  0  0  0
   -0.9096    1.8257   -1.0912 H   0  0  0  0  0  0  0  0  0  0  0  0
    0.6459    1.3751   -1.8817 H   0  0  0  0  0  0  0  0  0  0  0  0
    0.5979    2.2805   -0.2749 H   0  0  0  0  0  0  0  0  0  0  0  0
    1.2905   -1.5269    0.4674 H   0  0  0  0  0  0  0  0  0  0  0  0
    1.8091   -0.6699   -0.9756 H   0  0  0  0  0  0  0  0  0  0  0  0
    3.1421   -0.0998    0.5402 H   0  0  0  0  0  0  0  0  0  0  0  0
   -1.3467   -1.0441   -1.4653 H   0  0  0  0  0  0  0  0  0  0  0  0
   -2.3085   -1.4424    1.1223 H   0  0  0  0  0  0  0  0  0  0  0  0
   -0.5337   -1.9276    1.0291 H   0  0  0  0  0  0  0  0  0  0  0  0
   -0.8698    0.8355    1.7660 H   0  0  0  0  0  0  0  0  0  0  0  0
  1  2  1  0
  2  3  1  0
  3  4  1  0
  2  5  1  0
  5  6  1  0
  6  7  1  0
  7  8  1  0
  7  2  1  0
  8  5  1  0
  1  9  1  0
  1 10  1  0
  1 11  1  0
  3 12  1  0
  3 13  1  0
  4 14  1  0
  5 15  1  0
  6 16  1  0
  6 17  1  0
  7 18  1  0
M  END
