
     RDKit          3D

 23 24  0  0  0  0  0  0  0  0999 V2000
   -1.9656   -0.8099    1.4140 C   0  0  0  0  0  0  0  0  0  0  0  0
   -1.0536   -0.1786    0.3530 C   0  0  0  0  0  0  0  0  0  0  0  0
   -1.7978    0.4298   -0.7867 C   0  0  0  0  0  0  0  0  0  0  0  0
    0.2007   -0.8962    0.1186 C   0  0  0  0  0  0  0  0  0  0  0  0
    0.9697   -0.8371   -1.1704 C   0  0  0  0  0  0  0  0  0  0  0  0
    2.3123   -0.3013   -0.8193 C   0  0  0  0  0  0  0  0  0  0  0  0
    2.3265    0.8387   -0.1464 C   0  0  0  0  0  0  0  0  0  0  0  0
    0.9907    1.4204    0.1616 C   0  0  0  0  0  0  0  0  0  0  0  0
    0.1949    0.3979    0.8952 C   0  0  0  0  0  0  0  0  0  0  0  0
   -3.0050   -0.4849    1.3103 H   0  0  0  0  0  0  0  0  0  0  0  0
   -1.6266   -0.5428    2.4407 H   0  0  0  0  0  0  0  0  0  0  0  0
   -1.9376   -1.9017    1.2226 H   0  0  0  0  0  0  0  0  0  0  0  0
   -1.4884    1.4391   -1.0659 H   0  0  0  0  0  0  0  0  0  0  0  0
   -1.6675   -0.2533   -1.6695 H   0  0  0  0  0  0  0  0  0  0  0  0
   -2.9069    0.4511   -0.6142 H   0  0  0  0  0  0  0  0  0  0  0  0
    0.4841   -1.7929    0.7343 H   0  0  0  0  0  0  0  0  0  0  0  0
    1.0054   -1.8434   -1.5889 H   0  0  0  0  0  0  0  0  0  0  0  0
    0.4893   -0.1827   -1.9290 H   0  0  0  0  0  0  0  0  0  0  0  0
    3.2333   -0.7877   -1.0821 H   0  0  0  0  0  0  0  0  0  0  0  0
    3.2159    1.3569    0.1826 H   0  0  0  0  0  0  0  0  0  0  0  0
    0.4957    1.7965   -0.7559 H   0  0  0  0  0  0  0  0  0  0  0  0
    1.1284    2.3308    0.8030 H   0  0  0  0  0  0  0  0  0  0  0  0
    0.4020    0.3513    1.9922 H   0  0  0  0  0  0  0  0  0  0  0  0
  1  2  1  0
  2  3  1  0
  2  4  1  0
  4  5  1  0
  5  6  1  0
  6  7  2  0
  7  8  1  0
  8  9  1  0
  9  2  1  0
  9  4  1  0
  1 10  1  0
  1 11  1  0
  1 12  1  0
  3 13  1  0
  3 14  1  0
  3 15  1  0
  4 16  1  0
  5 17  1  0
  5 18  1  0
  6 19  1  0
  7 20  1  0
  8 21  1  0
  8 22  1  0
  9 23  1  0
M  END
