
     RDKit          3D

 15 15  0  0  0  0  0  0  0  0999 V2000
   -1.4576    0.2475   -0.7583 C   0  0  0  0  0  0  0  0  0  0  0  0
   -0.4217    0.2165    0.3322 C   0  0  0  0  0  0  0  0  0  0  0  0
   -0.8687    0.7239    1.5347 O   0  0  0  0  0  0  0  0  0  0  0  0
    0.1301   -1.1536    0.4537 C   0  0  0  0  0  0  0  0  0  0  0  0
    1.4119   -1.1603    0.1360 C   0  0  0  0  0  0  0  0  0  0  0  0
    1.8528    0.1713   -0.2251 C   0  0  0  0  0  0  0  0  0  0  0  0
    3.0203    0.5136   -0.5802 O   0  0  0  0  0  0  0  0  0  0  0  0
    0.7221    1.0566   -0.1109 C   0  0  0  0  0  0  0  0  0  0  0  0
    0.6592    2.2871   -0.3276 O   0  0  0  0  0  0  0  0  0  0  0  0
   -0.9527   -0.0988   -1.6907 H   0  0  0  0  0  0  0  0  0  0  0  0
   -1.7488    1.3109   -0.9455 H   0  0  0  0  0  0  0  0  0  0  0  0
   -2.3103   -0.4088   -0.5589 H   0  0  0  0  0  0  0  0  0  0  0  0
   -1.6971    0.3290    1.8556 H   0  0  0  0  0  0  0  0  0  0  0  0
   -0.4284   -2.0180    0.7558 H   0  0  0  0  0  0  0  0  0  0  0  0
    2.0890   -2.0169    0.1293 H   0  0  0  0  0  0  0  0  0  0  0  0
  1  2  1  0
  2  3  1  0
  2  4  1  0
  4  5  2  0
  5  6  1  0
  6  7  2  0
  6  8  1  0
  8  9  2  0
  8  2  1  0
  1 10  1  0
  1 11  1  0
  1 12  1  0
  3 13  1  0
  4 14  1  0
  5 15  1  0
M  END
