
     RDKit          3D

 21 22  0  0  0  0  0  0  0  0999 V2000
   -1.0105    1.3216    0.0101 C   0  0  0  0  0  0  0  0  0  0  0  0
   -0.3971    0.0008   -0.2549 C   0  0  0  0  0  0  0  0  0  0  0  0
    0.9877    0.0743   -0.8025 C   0  0  0  0  0  0  0  0  0  0  0  0
    1.9779    0.7620    0.0749 C   0  0  0  0  0  0  0  0  0  0  0  0
    2.1012    0.1182    1.3168 O   0  0  0  0  0  0  0  0  0  0  0  0
   -0.5949   -1.0624    0.8435 C   0  0  0  0  0  0  0  0  0  0  0  0
   -2.0213   -0.9912    0.3473 C   0  0  0  0  0  0  0  0  0  0  0  0
   -2.5038   -1.3190   -0.8375 O   0  0  0  0  0  0  0  0  0  0  0  0
   -1.2393   -1.0118   -1.0026 C   0  0  0  0  0  0  0  0  0  0  0  0
   -1.9250    1.4997   -0.6279 H   0  0  0  0  0  0  0  0  0  0  0  0
   -1.1926    1.5586    1.0762 H   0  0  0  0  0  0  0  0  0  0  0  0
   -0.3019    2.1335   -0.3367 H   0  0  0  0  0  0  0  0  0  0  0  0
    0.9522    0.6154   -1.7703 H   0  0  0  0  0  0  0  0  0  0  0  0
    1.3653   -0.9445   -1.0388 H   0  0  0  0  0  0  0  0  0  0  0  0
    2.9745    0.6754   -0.4072 H   0  0  0  0  0  0  0  0  0  0  0  0
    1.7804    1.8401    0.1905 H   0  0  0  0  0  0  0  0  0  0  0  0
    2.7313   -0.6162    1.2493 H   0  0  0  0  0  0  0  0  0  0  0  0
   -0.1498   -2.0146    0.5657 H   0  0  0  0  0  0  0  0  0  0  0  0
   -0.4857   -0.7052    1.8579 H   0  0  0  0  0  0  0  0  0  0  0  0
   -2.4489    0.0133    0.6594 H   0  0  0  0  0  0  0  0  0  0  0  0
   -0.5996   -1.9481   -1.1133 H   0  0  0  0  0  0  0  0  0  0  0  0
  1  2  1  0
  2  3  1  0
  3  4  1  0
  4  5  1  0
  2  6  1  0
  6  7  1  0
  7  8  1  0
  8  9  1  0
  9  2  1  0
  9  7  1  0
  1 10  1  0
  1 11  1  0
  1 12  1  0
  3 13  1  0
  3 14  1  0
  4 15  1  0
  4 16  1  0
  5 17  1  0
  6 18  1  0
  6 19  1  0
  7 20  1  0
  9 21  1  0
M  END
