
     RDKit          3D

 23 24  0  0  0  0  0  0  0  0999 V2000
    1.4480    1.2841    0.4414 C   0  0  0  0  0  0  0  0  0  0  0  0
    1.0630   -0.1547    0.2693 C   0  0  0  0  0  0  0  0  0  0  0  0
    2.2735   -1.0210    0.0467 C   0  0  0  0  0  0  0  0  0  0  0  0
    0.1543   -0.6502    1.1994 O   0  0  0  0  0  0  0  0  0  0  0  0
   -0.2892   -1.5210    0.1816 C   0  0  0  0  0  0  0  0  0  0  0  0
   -0.0251   -0.3875   -0.7849 C   0  0  0  0  0  0  0  0  0  0  0  0
   -1.0797    0.6765   -0.7922 C   0  0  0  0  0  0  0  0  0  0  0  0
   -1.9245    0.9817    0.3555 C   0  0  0  0  0  0  0  0  0  0  0  0
   -2.5220    0.2963   -0.8533 C   0  0  0  0  0  0  0  0  0  0  0  0
    0.5838    1.9653    0.5220 H   0  0  0  0  0  0  0  0  0  0  0  0
    2.0070    1.5882   -0.4774 H   0  0  0  0  0  0  0  0  0  0  0  0
    2.1458    1.3564    1.2782 H   0  0  0  0  0  0  0  0  0  0  0  0
    3.2237   -0.4683    0.1341 H   0  0  0  0  0  0  0  0  0  0  0  0
    2.2239   -1.4139   -0.9938 H   0  0  0  0  0  0  0  0  0  0  0  0
    2.3143   -1.8641    0.7864 H   0  0  0  0  0  0  0  0  0  0  0  0
   -1.3484   -1.7721    0.2071 H   0  0  0  0  0  0  0  0  0  0  0  0
    0.4149   -2.3697    0.0059 H   0  0  0  0  0  0  0  0  0  0  0  0
    0.3767   -0.6861   -1.7622 H   0  0  0  0  0  0  0  0  0  0  0  0
   -0.8203    1.5445   -1.4558 H   0  0  0  0  0  0  0  0  0  0  0  0
   -2.1927    2.0465    0.5641 H   0  0  0  0  0  0  0  0  0  0  0  0
   -1.9483    0.3688    1.2823 H   0  0  0  0  0  0  0  0  0  0  0  0
   -3.2414    0.9630   -1.4121 H   0  0  0  0  0  0  0  0  0  0  0  0
   -2.8375   -0.7626   -0.7455 H   0  0  0  0  0  0  0  0  0  0  0  0
  1  2  1  0
  2  3  1  0
  2  4  1  0
  4  5  1  0
  5  6  1  0
  6  7  1  0
  7  8  1  0
  8  9  1  0
  6  2  1  0
  9  7  1  0
  1 10  1  0
  1 11  1  0
  1 12  1  0
  3 13  1  0
  3 14  1  0
  3 15  1  0
  5 16  1  0
  5 17  1  0
  6 18  1  0
  7 19  1  0
  8 20  1  0
  8 21  1  0
  9 22  1  0
  9 23  1  0
M  END
