
     RDKit          3D

 19 19  0  0  0  0  0  0  0  0999 V2000
   -0.4113    1.6780   -0.4694 C   0  0  0  0  0  0  0  0  0  0  0  0
    0.0372    0.2521   -0.1299 C   0  0  0  0  0  0  0  0  0  0  0  0
    1.4819    0.1542   -0.5345 C   0  0  0  0  0  0  0  0  0  0  0  0
    2.0577   -1.1869   -0.2617 C   0  0  0  0  0  0  0  0  0  0  0  0
    1.4610   -2.1065    0.2255 O   0  0  0  0  0  0  0  0  0  0  0  0
   -0.8449   -0.7456   -0.7827 C   0  0  0  0  0  0  0  0  0  0  0  0
   -1.3552   -1.4810    0.3094 O   0  0  0  0  0  0  0  0  0  0  0  0
   -1.4605   -0.4504    1.2617 C   0  0  0  0  0  0  0  0  0  0  0  0
   -0.1776    0.0815    1.2157 O   0  0  0  0  0  0  0  0  0  0  0  0
   -1.2585    1.9940    0.1376 H   0  0  0  0  0  0  0  0  0  0  0  0
    0.4271    2.3919   -0.2423 H   0  0  0  0  0  0  0  0  0  0  0  0
   -0.6022    1.6820   -1.5630 H   0  0  0  0  0  0  0  0  0  0  0  0
    2.0799    0.9388   -0.0275 H   0  0  0  0  0  0  0  0  0  0  0  0
    1.5220    0.3139   -1.6355 H   0  0  0  0  0  0  0  0  0  0  0  0
    3.0958   -1.3369   -0.5259 H   0  0  0  0  0  0  0  0  0  0  0  0
   -0.3785   -1.3845   -1.5308 H   0  0  0  0  0  0  0  0  0  0  0  0
   -1.7089   -0.2049   -1.2608 H   0  0  0  0  0  0  0  0  0  0  0  0
   -2.2350    0.2286    0.8983 H   0  0  0  0  0  0  0  0  0  0  0  0
   -1.7300   -0.8184    2.2536 H   0  0  0  0  0  0  0  0  0  0  0  0
  1  2  1  0
  2  3  1  0
  3  4  1  0
  4  5  2  0
  2  6  1  0
  6  7  1  0
  7  8  1  0
  8  9  1  0
  9  2  1  0
  1 10  1  0
  1 11  1  0
  1 12  1  0
  3 13  1  0
  3 14  1  0
  4 15  1  0
  6 16  1  0
  6 17  1  0
  8 18  1  0
  8 19  1  0
M  END
