
     RDKit          3D

 16 16  0  0  0  0  0  0  0  0999 V2000
   -1.0854    1.1421   -0.4003 C   0  0  0  0  0  0  0  0  0  0  0  0
   -0.2695    0.0235    0.2395 C   0  0  0  0  0  0  0  0  0  0  0  0
    1.1410    0.3343    0.4326 C   0  0  0  0  0  0  0  0  0  0  0  0
    1.4919    0.3321    1.7280 O   0  0  0  0  0  0  0  0  0  0  0  0
    2.1726    0.6261   -0.5112 C   0  0  0  0  0  0  0  0  0  0  0  0
    2.2241    0.6307   -1.7414 O   0  0  0  0  0  0  0  0  0  0  0  0
   -0.6288   -1.3196   -0.3956 C   0  0  0  0  0  0  0  0  0  0  0  0
   -0.8977   -1.1035    1.0507 C   0  0  0  0  0  0  0  0  0  0  0  0
   -1.0111    0.9790   -1.5290 H   0  0  0  0  0  0  0  0  0  0  0  0
   -2.1511    1.0234   -0.1091 H   0  0  0  0  0  0  0  0  0  0  0  0
   -0.7353    2.1336   -0.1254 H   0  0  0  0  0  0  0  0  0  0  0  0
    3.1982    0.9297   -0.0694 H   0  0  0  0  0  0  0  0  0  0  0  0
    0.1951   -1.9579   -0.7108 H   0  0  0  0  0  0  0  0  0  0  0  0
   -1.5537   -1.2352   -1.0488 H   0  0  0  0  0  0  0  0  0  0  0  0
   -1.8866   -0.8561    1.4593 H   0  0  0  0  0  0  0  0  0  0  0  0
   -0.2039   -1.6824    1.7308 H   0  0  0  0  0  0  0  0  0  0  0  0
  1  2  1  0
  2  3  1  0
  3  4  2  0
  3  5  1  0
  5  6  2  0
  2  7  1  0
  7  8  1  0
  8  2  1  0
  1  9  1  0
  1 10  1  0
  1 11  1  0
  5 12  1  0
  7 13  1  0
  7 14  1  0
  8 15  1  0
  8 16  1  0
M  END
