
     RDKit          3D

 23 24  0  0  0  0  0  0  0  0999 V2000
   -2.2435   -1.2169   -0.2609 C   0  0  0  0  0  0  0  0  0  0  0  0
   -1.3720   -0.0416    0.0633 C   0  0  0  0  0  0  0  0  0  0  0  0
   -1.8034    1.3443   -0.3661 C   0  0  0  0  0  0  0  0  0  0  0  0
   -0.7348   -0.0963    1.4320 C   0  0  0  0  0  0  0  0  0  0  0  0
    0.0901   -0.2790    0.2200 C   0  0  0  0  0  0  0  0  0  0  0  0
    1.0712    0.8021   -0.1037 C   0  0  0  0  0  0  0  0  0  0  0  0
    2.4780    0.3399    0.1280 C   0  0  0  0  0  0  0  0  0  0  0  0
    2.8834   -0.8606   -0.7049 C   0  0  0  0  0  0  0  0  0  0  0  0
    2.7256   -0.9114    0.6732 O   0  0  0  0  0  0  0  0  0  0  0  0
   -1.6244   -2.1267   -0.2858 H   0  0  0  0  0  0  0  0  0  0  0  0
   -3.0135   -1.3528    0.5241 H   0  0  0  0  0  0  0  0  0  0  0  0
   -2.7139   -1.1297   -1.2648 H   0  0  0  0  0  0  0  0  0  0  0  0
   -2.9009    1.4295   -0.2687 H   0  0  0  0  0  0  0  0  0  0  0  0
   -1.3565    2.1308    0.2709 H   0  0  0  0  0  0  0  0  0  0  0  0
   -1.4603    1.5674   -1.4150 H   0  0  0  0  0  0  0  0  0  0  0  0
   -0.6380    0.8428    2.0113 H   0  0  0  0  0  0  0  0  0  0  0  0
   -0.8952   -0.9924    2.0684 H   0  0  0  0  0  0  0  0  0  0  0  0
    0.4525   -1.3042   -0.0402 H   0  0  0  0  0  0  0  0  0  0  0  0
    0.8981    1.0858   -1.1807 H   0  0  0  0  0  0  0  0  0  0  0  0
    0.8847    1.6836    0.5376 H   0  0  0  0  0  0  0  0  0  0  0  0
    3.2343    1.0918    0.3722 H   0  0  0  0  0  0  0  0  0  0  0  0
    2.1339   -1.4020   -1.2797 H   0  0  0  0  0  0  0  0  0  0  0  0
    3.9046   -0.7725   -1.1307 H   0  0  0  0  0  0  0  0  0  0  0  0
  1  2  1  0
  2  3  1  0
  2  4  1  0
  4  5  1  0
  5  6  1  0
  6  7  1  0
  7  8  1  0
  8  9  1  0
  5  2  1  0
  9  7  1  0
  1 10  1  0
  1 11  1  0
  1 12  1  0
  3 13  1  0
  3 14  1  0
  3 15  1  0
  4 16  1  0
  4 17  1  0
  5 18  1  0
  6 19  1  0
  6 20  1  0
  7 21  1  0
  8 22  1  0
  8 23  1  0
M  END
