
     RDKit          3D

 19 20  0  0  0  0  0  0  0  0999 V2000
    1.4817    0.9186   -0.4527 C   0  0  0  0  0  0  0  0  0  0  0  0
    0.8653   -0.2859    0.1548 C   0  0  0  0  0  0  0  0  0  0  0  0
    1.7377   -1.2289    0.6437 O   0  0  0  0  0  0  0  0  0  0  0  0
   -0.2566   -0.0005    1.1714 C   0  0  0  0  0  0  0  0  0  0  0  0
   -1.1987    0.9306    0.4575 C   0  0  0  0  0  0  0  0  0  0  0  0
   -1.2205    0.2320   -0.9163 C   0  0  0  0  0  0  0  0  0  0  0  0
   -0.2879   -0.9125   -0.6009 C   0  0  0  0  0  0  0  0  0  0  0  0
   -0.7785   -1.3180    0.7390 C   0  0  0  0  0  0  0  0  0  0  0  0
   -1.3292   -2.2275    1.2907 O   0  0  0  0  0  0  0  0  0  0  0  0
    1.1239    1.8835   -0.0525 H   0  0  0  0  0  0  0  0  0  0  0  0
    2.5840    0.8914   -0.2053 H   0  0  0  0  0  0  0  0  0  0  0  0
    1.4285    0.9517   -1.5593 H   0  0  0  0  0  0  0  0  0  0  0  0
    2.0826   -1.8545   -0.0258 H   0  0  0  0  0  0  0  0  0  0  0  0
    0.0191    0.1671    2.1748 H   0  0  0  0  0  0  0  0  0  0  0  0
   -2.1952    0.8486    0.9416 H   0  0  0  0  0  0  0  0  0  0  0  0
   -0.8656    1.9594    0.3914 H   0  0  0  0  0  0  0  0  0  0  0  0
   -0.8763    0.8864   -1.7124 H   0  0  0  0  0  0  0  0  0  0  0  0
   -2.2265   -0.1906   -1.1032 H   0  0  0  0  0  0  0  0  0  0  0  0
   -0.0879   -1.6510   -1.3365 H   0  0  0  0  0  0  0  0  0  0  0  0
  1  2  1  0
  2  3  1  0
  2  4  1  0
  4  5  1  0
  5  6  1  0
  6  7  1  0
  7  8  1  0
  8  9  2  0
  7  2  1  0
  8  4  1  0
  1 10  1  0
  1 11  1  0
  1 12  1  0
  3 13  1  0
  4 14  1  0
  5 15  1  0
  5 16  1  0
  6 17  1  0
  6 18  1  0
  7 19  1  0
M  END
