
     RDKit          3D

 19 19  0  0  0  0  0  0  0  0999 V2000
    1.1378    1.3333   -0.2380 C   0  0  0  0  0  0  0  0  0  0  0  0
    0.7368   -0.0733    0.1355 C   0  0  0  0  0  0  0  0  0  0  0  0
    1.8825   -0.9005    0.6060 C   0  0  0  0  0  0  0  0  0  0  0  0
    2.0384   -1.0133    1.8124 O   0  0  0  0  0  0  0  0  0  0  0  0
   -0.4148   -0.1870    1.0792 C   0  0  0  0  0  0  0  0  0  0  0  0
   -1.3190   -0.6166   -0.0814 C   0  0  0  0  0  0  0  0  0  0  0  0
   -2.2649    0.4641   -0.4210 C   0  0  0  0  0  0  0  0  0  0  0  0
   -3.2517    0.1906   -1.0781 O   0  0  0  0  0  0  0  0  0  0  0  0
   -0.0909   -0.7015   -0.9496 C   0  0  0  0  0  0  0  0  0  0  0  0
    0.6379    1.6735   -1.1671 H   0  0  0  0  0  0  0  0  0  0  0  0
    0.9268    2.0695    0.5463 H   0  0  0  0  0  0  0  0  0  0  0  0
    2.2341    1.3402   -0.4647 H   0  0  0  0  0  0  0  0  0  0  0  0
    2.5691   -1.3961   -0.0404 H   0  0  0  0  0  0  0  0  0  0  0  0
   -0.7148    0.7823    1.5313 H   0  0  0  0  0  0  0  0  0  0  0  0
   -0.3303   -1.0012    1.8254 H   0  0  0  0  0  0  0  0  0  0  0  0
   -1.7553   -1.6169    0.0654 H   0  0  0  0  0  0  0  0  0  0  0  0
   -2.1355    1.4944   -0.1197 H   0  0  0  0  0  0  0  0  0  0  0  0
    0.2728   -1.7274   -1.1567 H   0  0  0  0  0  0  0  0  0  0  0  0
   -0.1589   -0.1140   -1.8845 H   0  0  0  0  0  0  0  0  0  0  0  0
  1  2  1  0
  2  3  1  0
  3  4  2  0
  2  5  1  0
  5  6  1  0
  6  7  1  0
  7  8  2  0
  6  9  1  0
  9  2  1  0
  1 10  1  0
  1 11  1  0
  1 12  1  0
  3 13  1  0
  5 14  1  0
  5 15  1  0
  6 16  1  0
  7 17  1  0
  9 18  1  0
  9 19  1  0
M  END
