
     RDKit          3D

 21 21  0  0  0  0  0  0  0  0999 V2000
   -1.3145    0.3902   -1.3456 C   0  0  0  0  0  0  0  0  0  0  0  0
   -0.6789   -0.0614   -0.0537 C   0  0  0  0  0  0  0  0  0  0  0  0
   -1.3289    0.5177    1.1670 C   0  0  0  0  0  0  0  0  0  0  0  0
    0.0453   -1.3614   -0.0507 C   0  0  0  0  0  0  0  0  0  0  0  0
    0.0898   -2.1789    1.0716 O   0  0  0  0  0  0  0  0  0  0  0  0
    0.8629   -0.1223    0.0129 C   0  0  0  0  0  0  0  0  0  0  0  0
    1.5486    0.4482   -1.2124 C   0  0  0  0  0  0  0  0  0  0  0  0
    1.4982    0.2913    1.2804 C   0  0  0  0  0  0  0  0  0  0  0  0
    2.6161   -0.0481    1.5510 O   0  0  0  0  0  0  0  0  0  0  0  0
   -0.7951   -0.0257   -2.2293 H   0  0  0  0  0  0  0  0  0  0  0  0
   -2.3505   -0.0361   -1.3960 H   0  0  0  0  0  0  0  0  0  0  0  0
   -1.3773    1.4919   -1.3708 H   0  0  0  0  0  0  0  0  0  0  0  0
   -2.3973    0.7427    1.0267 H   0  0  0  0  0  0  0  0  0  0  0  0
   -0.8180    1.5149    1.3186 H   0  0  0  0  0  0  0  0  0  0  0  0
   -1.1839   -0.0737    2.0853 H   0  0  0  0  0  0  0  0  0  0  0  0
   -0.0175   -1.9333   -1.0054 H   0  0  0  0  0  0  0  0  0  0  0  0
   -0.7250   -2.1950    1.6052 H   0  0  0  0  0  0  0  0  0  0  0  0
    2.6501    0.1655   -1.0889 H   0  0  0  0  0  0  0  0  0  0  0  0
    1.4792    1.5505   -1.2242 H   0  0  0  0  0  0  0  0  0  0  0  0
    1.2268    0.0012   -2.1533 H   0  0  0  0  0  0  0  0  0  0  0  0
    0.9698    0.9218    2.0118 H   0  0  0  0  0  0  0  0  0  0  0  0
  1  2  1  0
  2  3  1  0
  2  4  1  0
  4  5  1  0
  4  6  1  0
  6  7  1  0
  6  8  1  0
  8  9  2  0
  6  2  1  0
  1 10  1  0
  1 11  1  0
  1 12  1  0
  3 13  1  0
  3 14  1  0
  3 15  1  0
  4 16  1  0
  5 17  1  0
  7 18  1  0
  7 19  1  0
  7 20  1  0
  8 21  1  0
M  END
