
     RDKit          3D

 19 19  0  0  0  0  0  0  0  0999 V2000
   -0.8946   -1.2579   -0.3485 C   0  0  0  0  0  0  0  0  0  0  0  0
   -0.6293    0.1137    0.1609 C   0  0  0  0  0  0  0  0  0  0  0  0
   -1.3119    1.2093   -0.5801 C   0  0  0  0  0  0  0  0  0  0  0  0
   -0.7669    0.1417    1.6429 C   0  0  0  0  0  0  0  0  0  0  0  0
   -1.6243    0.4079    2.4996 O   0  0  0  0  0  0  0  0  0  0  0  0
    0.5623   -0.2862    1.6998 O   0  0  0  0  0  0  0  0  0  0  0  0
    0.7751    0.4544    0.5514 C   0  0  0  0  0  0  0  0  0  0  0  0
    1.8640    0.0714   -0.3763 C   0  0  0  0  0  0  0  0  0  0  0  0
    1.7702   -1.1852   -0.9100 O   0  0  0  0  0  0  0  0  0  0  0  0
   -0.9494   -1.2741   -1.4752 H   0  0  0  0  0  0  0  0  0  0  0  0
   -1.9262   -1.5699   -0.0200 H   0  0  0  0  0  0  0  0  0  0  0  0
   -0.2112   -2.0266    0.0004 H   0  0  0  0  0  0  0  0  0  0  0  0
   -0.8754    1.2634   -1.6071 H   0  0  0  0  0  0  0  0  0  0  0  0
   -1.2064    2.1838   -0.0829 H   0  0  0  0  0  0  0  0  0  0  0  0
   -2.3972    1.0235   -0.7205 H   0  0  0  0  0  0  0  0  0  0  0  0
    0.8335    1.5450    0.7939 H   0  0  0  0  0  0  0  0  0  0  0  0
    2.8344    0.1293    0.1943 H   0  0  0  0  0  0  0  0  0  0  0  0
    1.9474    0.8733   -1.1472 H   0  0  0  0  0  0  0  0  0  0  0  0
    2.2059   -1.8168   -0.2754 H   0  0  0  0  0  0  0  0  0  0  0  0
  1  2  1  0
  2  3  1  0
  2  4  1  0
  4  5  2  0
  4  6  1  0
  6  7  1  0
  7  8  1  0
  8  9  1  0
  7  2  1  0
  1 10  1  0
  1 11  1  0
  1 12  1  0
  3 13  1  0
  3 14  1  0
  3 15  1  0
  7 16  1  0
  8 17  1  0
  8 18  1  0
  9 19  1  0
M  END
