
     RDKit          3D

 20 20  0  0  0  0  0  0  0  0999 V2000
   -0.8352    0.9118    1.1329 C   0  0  0  0  0  0  0  0  0  0  0  0
   -0.7799    0.1875   -0.1738 C   0  0  0  0  0  0  0  0  0  0  0  0
   -1.8682   -0.8342   -0.3174 C   0  0  0  0  0  0  0  0  0  0  0  0
   -0.6991    1.1212   -1.2229 O   0  0  0  0  0  0  0  0  0  0  0  0
    0.7027    1.0858   -1.0217 C   0  0  0  0  0  0  0  0  0  0  0  0
    0.5353   -0.3417   -0.6158 C   0  0  0  0  0  0  0  0  0  0  0  0
    1.4493   -0.9201    0.3794 C   0  0  0  0  0  0  0  0  0  0  0  0
    1.8546   -0.0879    1.3874 O   0  0  0  0  0  0  0  0  0  0  0  0
   -1.9302    0.9890    1.4051 H   0  0  0  0  0  0  0  0  0  0  0  0
   -0.4792    1.9729    1.0588 H   0  0  0  0  0  0  0  0  0  0  0  0
   -0.3545    0.4068    1.9689 H   0  0  0  0  0  0  0  0  0  0  0  0
   -2.1703   -1.1354    0.7272 H   0  0  0  0  0  0  0  0  0  0  0  0
   -1.4727   -1.7858   -0.7662 H   0  0  0  0  0  0  0  0  0  0  0  0
   -2.7263   -0.5046   -0.9172 H   0  0  0  0  0  0  0  0  0  0  0  0
    1.0624    1.7902   -0.2652 H   0  0  0  0  0  0  0  0  0  0  0  0
    1.1932    1.2803   -1.9921 H   0  0  0  0  0  0  0  0  0  0  0  0
    0.4252   -0.9866   -1.5057 H   0  0  0  0  0  0  0  0  0  0  0  0
    2.3207   -1.3661   -0.1405 H   0  0  0  0  0  0  0  0  0  0  0  0
    0.9291   -1.7958    0.8683 H   0  0  0  0  0  0  0  0  0  0  0  0
    2.8430    0.0126    1.4065 H   0  0  0  0  0  0  0  0  0  0  0  0
  1  2  1  0
  2  3  1  0
  2  4  1  0
  4  5  1  0
  5  6  1  0
  6  7  1  0
  7  8  1  0
  6  2  1  0
  1  9  1  0
  1 10  1  0
  1 11  1  0
  3 12  1  0
  3 13  1  0
  3 14  1  0
  5 15  1  0
  5 16  1  0
  6 17  1  0
  7 18  1  0
  7 19  1  0
  8 20  1  0
M  END
