
     RDKit          3D

 21 22  0  0  0  0  0  0  0  0999 V2000
    1.5547   -1.2606    0.4310 C   0  0  0  0  0  0  0  0  0  0  0  0
    0.4913   -0.3436   -0.1434 C   0  0  0  0  0  0  0  0  0  0  0  0
    1.1257    0.9981   -0.3738 C   0  0  0  0  0  0  0  0  0  0  0  0
    1.6515    1.5438    0.7921 O   0  0  0  0  0  0  0  0  0  0  0  0
    0.0000   -0.8030   -1.3526 O   0  0  0  0  0  0  0  0  0  0  0  0
   -1.2937   -0.2951   -1.4761 C   0  0  0  0  0  0  0  0  0  0  0  0
   -1.8661   -0.1862   -0.0995 C   0  0  0  0  0  0  0  0  0  0  0  0
   -1.4984    0.8815    0.8344 C   0  0  0  0  0  0  0  0  0  0  0  0
   -0.6538   -0.3166    0.8114 C   0  0  0  0  0  0  0  0  0  0  0  0
    1.1308   -2.2890    0.5801 H   0  0  0  0  0  0  0  0  0  0  0  0
    2.3570   -1.3320   -0.3171 H   0  0  0  0  0  0  0  0  0  0  0  0
    1.8680   -0.8674    1.3982 H   0  0  0  0  0  0  0  0  0  0  0  0
    0.4671    1.7313   -0.8603 H   0  0  0  0  0  0  0  0  0  0  0  0
    1.9749    0.8310   -1.0866 H   0  0  0  0  0  0  0  0  0  0  0  0
    2.5656    1.2321    0.9883 H   0  0  0  0  0  0  0  0  0  0  0  0
   -1.2858    0.6639   -2.0290 H   0  0  0  0  0  0  0  0  0  0  0  0
   -1.8686   -1.0862   -2.0411 H   0  0  0  0  0  0  0  0  0  0  0  0
   -2.7693   -0.8101    0.1356 H   0  0  0  0  0  0  0  0  0  0  0  0
   -1.0339    1.8348    0.5168 H   0  0  0  0  0  0  0  0  0  0  0  0
   -2.1532    1.0046    1.7217 H   0  0  0  0  0  0  0  0  0  0  0  0
   -0.7637   -1.1311    1.5700 H   0  0  0  0  0  0  0  0  0  0  0  0
  1  2  1  0
  2  3  1  0
  3  4  1  0
  2  5  1  0
  5  6  1  0
  6  7  1  0
  7  8  1  0
  8  9  1  0
  9  2  1  0
  9  7  1  0
  1 10  1  0
  1 11  1  0
  1 12  1  0
  3 13  1  0
  3 14  1  0
  4 15  1  0
  6 16  1  0
  6 17  1  0
  7 18  1  0
  8 19  1  0
  8 20  1  0
  9 21  1  0
M  END
