
     RDKit          3D

 19 20  0  0  0  0  0  0  0  0999 V2000
   -2.1515   -1.2476    0.5639 C   0  0  0  0  0  0  0  0  0  0  0  0
   -1.3297   -0.0218    0.2183 C   0  0  0  0  0  0  0  0  0  0  0  0
    0.1263   -0.2701    0.1126 C   0  0  0  0  0  0  0  0  0  0  0  0
    1.3131   -0.4775    0.0336 C   0  0  0  0  0  0  0  0  0  0  0  0
    2.7519   -0.7547   -0.0656 C   0  0  0  0  0  0  0  0  0  0  0  0
    3.6970    0.4246    0.0699 C   0  0  0  0  0  0  0  0  0  0  0  0
    3.4578   -0.5328    1.1087 O   0  0  0  0  0  0  0  0  0  0  0  0
   -1.9432    0.8064   -0.9437 C   0  0  0  0  0  0  0  0  0  0  0  0
   -1.8297    1.3342    0.4458 C   0  0  0  0  0  0  0  0  0  0  0  0
   -3.2142   -1.0450    0.3113 H   0  0  0  0  0  0  0  0  0  0  0  0
   -1.8255   -2.0624   -0.1075 H   0  0  0  0  0  0  0  0  0  0  0  0
   -2.0753   -1.5395    1.6092 H   0  0  0  0  0  0  0  0  0  0  0  0
    3.0860   -1.5673   -0.7446 H   0  0  0  0  0  0  0  0  0  0  0  0
    4.6616    0.3709   -0.4426 H   0  0  0  0  0  0  0  0  0  0  0  0
    3.2635    1.4099    0.3684 H   0  0  0  0  0  0  0  0  0  0  0  0
   -2.9057    0.4937   -1.3405 H   0  0  0  0  0  0  0  0  0  0  0  0
   -1.2122    1.1138   -1.7317 H   0  0  0  0  0  0  0  0  0  0  0  0
   -2.8022    1.4337    0.9830 H   0  0  0  0  0  0  0  0  0  0  0  0
   -1.0680    2.1316    0.6241 H   0  0  0  0  0  0  0  0  0  0  0  0
  1  2  1  0
  2  3  1  0
  3  4  3  0
  4  5  1  0
  5  6  1  0
  6  7  1  0
  2  8  1  0
  8  9  1  0
  9  2  1  0
  7  5  1  0
  1 10  1  0
  1 11  1  0
  1 12  1  0
  5 13  1  0
  6 14  1  0
  6 15  1  0
  8 16  1  0
  8 17  1  0
  9 18  1  0
  9 19  1  0
M  END
