
     RDKit          3D

 23 23  0  0  0  0  0  0  0  0999 V2000
   -1.6786    0.8637    1.1240 C   0  0  0  0  0  0  0  0  0  0  0  0
   -1.6600    0.1932   -0.2172 C   0  0  0  0  0  0  0  0  0  0  0  0
   -3.0599    0.1708   -0.8122 C   0  0  0  0  0  0  0  0  0  0  0  0
   -1.1334   -1.1535   -0.1711 O   0  0  0  0  0  0  0  0  0  0  0  0
   -0.5745   -0.0836   -1.0460 C   0  0  0  0  0  0  0  0  0  0  0  0
    0.8768   -0.0025   -0.8293 C   0  0  0  0  0  0  0  0  0  0  0  0
    1.4506   -0.8442    0.2661 C   0  0  0  0  0  0  0  0  0  0  0  0
    2.9612   -0.5519    0.2512 C   0  0  0  0  0  0  0  0  0  0  0  0
    3.2096    0.7960    0.4805 O   0  0  0  0  0  0  0  0  0  0  0  0
   -2.3070    0.2357    1.8006 H   0  0  0  0  0  0  0  0  0  0  0  0
   -2.2534    1.8199    1.0024 H   0  0  0  0  0  0  0  0  0  0  0  0
   -0.7088    1.0265    1.5741 H   0  0  0  0  0  0  0  0  0  0  0  0
   -3.5733   -0.7953   -0.6157 H   0  0  0  0  0  0  0  0  0  0  0  0
   -3.6608    1.0505   -0.4978 H   0  0  0  0  0  0  0  0  0  0  0  0
   -3.0025    0.2440   -1.9333 H   0  0  0  0  0  0  0  0  0  0  0  0
   -0.7992   -0.2892   -2.1329 H   0  0  0  0  0  0  0  0  0  0  0  0
    1.1904    1.0593   -0.6009 H   0  0  0  0  0  0  0  0  0  0  0  0
    1.4344   -0.2583   -1.7489 H   0  0  0  0  0  0  0  0  0  0  0  0
    1.1072   -0.5531    1.2694 H   0  0  0  0  0  0  0  0  0  0  0  0
    1.3599   -1.9068    0.0346 H   0  0  0  0  0  0  0  0  0  0  0  0
    3.3408   -0.7708   -0.7884 H   0  0  0  0  0  0  0  0  0  0  0  0
    3.5125   -1.2046    0.9237 H   0  0  0  0  0  0  0  0  0  0  0  0
    3.9680    0.9540    1.0791 H   0  0  0  0  0  0  0  0  0  0  0  0
  1  2  1  0
  2  3  1  0
  2  4  1  0
  4  5  1  0
  5  6  1  0
  6  7  1  0
  7  8  1  0
  8  9  1  0
  5  2  1  0
  1 10  1  0
  1 11  1  0
  1 12  1  0
  3 13  1  0
  3 14  1  0
  3 15  1  0
  5 16  1  0
  6 17  1  0
  6 18  1  0
  7 19  1  0
  7 20  1  0
  8 21  1  0
  8 22  1  0
  9 23  1  0
M  END
