
     RDKit          3D

 17 17  0  0  0  0  0  0  0  0999 V2000
    0.9003    1.4517    0.6325 C   0  0  0  0  0  0  0  0  0  0  0  0
    0.3997    0.1418    0.0721 C   0  0  0  0  0  0  0  0  0  0  0  0
    1.5073   -0.6425   -0.5991 C   0  0  0  0  0  0  0  0  0  0  0  0
   -0.0686   -0.6367    1.1692 O   0  0  0  0  0  0  0  0  0  0  0  0
   -1.2371   -1.2549    0.7632 C   0  0  0  0  0  0  0  0  0  0  0  0
   -1.5879   -2.3933    1.1318 O   0  0  0  0  0  0  0  0  0  0  0  0
   -1.9152   -0.3039   -0.1462 C   0  0  0  0  0  0  0  0  0  0  0  0
   -0.7585    0.3155   -0.8325 C   0  0  0  0  0  0  0  0  0  0  0  0
   -0.7303    0.8560   -1.9028 O   0  0  0  0  0  0  0  0  0  0  0  0
    1.9591    1.2734    0.9502 H   0  0  0  0  0  0  0  0  0  0  0  0
    0.3335    1.7410    1.5596 H   0  0  0  0  0  0  0  0  0  0  0  0
    0.8025    2.2892   -0.0737 H   0  0  0  0  0  0  0  0  0  0  0  0
    1.1605   -1.0881   -1.5566 H   0  0  0  0  0  0  0  0  0  0  0  0
    2.3723    0.0201   -0.8460 H   0  0  0  0  0  0  0  0  0  0  0  0
    1.8761   -1.4388    0.0670 H   0  0  0  0  0  0  0  0  0  0  0  0
   -2.4054    0.4766    0.4599 H   0  0  0  0  0  0  0  0  0  0  0  0
   -2.6084   -0.8071   -0.8487 H   0  0  0  0  0  0  0  0  0  0  0  0
  1  2  1  0
  2  3  1  0
  2  4  1  0
  4  5  1  0
  5  6  2  0
  5  7  1  0
  7  8  1  0
  8  9  2  0
  8  2  1  0
  1 10  1  0
  1 11  1  0
  1 12  1  0
  3 13  1  0
  3 14  1  0
  3 15  1  0
  7 16  1  0
  7 17  1  0
M  END
