
     RDKit          3D

 21 23  0  0  0  0  0  0  0  0999 V2000
    1.8722   -0.7713   -0.6770 C   0  0  0  0  0  0  0  0  0  0  0  0
    0.8725    0.2439   -0.2565 C   0  0  0  0  0  0  0  0  0  0  0  0
    1.4050    1.5396   -0.2894 O   0  0  0  0  0  0  0  0  0  0  0  0
   -0.4154    0.2132   -1.0137 C   0  0  0  0  0  0  0  0  0  0  0  0
   -1.0493   -1.0620   -0.5478 C   0  0  0  0  0  0  0  0  0  0  0  0
   -0.8694   -0.8949    0.9689 C   0  0  0  0  0  0  0  0  0  0  0  0
   -0.9687    0.5668    1.1976 C   0  0  0  0  0  0  0  0  0  0  0  0
   -1.2182    1.2189   -0.1711 C   0  0  0  0  0  0  0  0  0  0  0  0
    0.3462   -0.0838    1.1481 C   0  0  0  0  0  0  0  0  0  0  0  0
    1.7623   -1.7299   -0.1134 H   0  0  0  0  0  0  0  0  0  0  0  0
    1.9266   -0.9505   -1.7524 H   0  0  0  0  0  0  0  0  0  0  0  0
    2.8886   -0.3845   -0.3716 H   0  0  0  0  0  0  0  0  0  0  0  0
    1.2261    2.0488    0.5285 H   0  0  0  0  0  0  0  0  0  0  0  0
   -0.3976    0.4135   -2.0505 H   0  0  0  0  0  0  0  0  0  0  0  0
   -0.6010   -1.9712   -0.9198 H   0  0  0  0  0  0  0  0  0  0  0  0
   -2.1503   -0.9791   -0.7091 H   0  0  0  0  0  0  0  0  0  0  0  0
   -1.2302   -1.6498    1.6446 H   0  0  0  0  0  0  0  0  0  0  0  0
   -1.4148    1.0025    2.0835 H   0  0  0  0  0  0  0  0  0  0  0  0
   -2.2692    1.2092   -0.4451 H   0  0  0  0  0  0  0  0  0  0  0  0
   -0.7493    2.2087   -0.2265 H   0  0  0  0  0  0  0  0  0  0  0  0
    1.0337   -0.1881    1.9726 H   0  0  0  0  0  0  0  0  0  0  0  0
  1  2  1  0
  2  3  1  0
  2  4  1  0
  4  5  1  0
  5  6  1  0
  6  7  1  0
  7  8  1  0
  7  9  1  0
  9  2  1  0
  8  4  1  0
  9  6  1  0
  1 10  1  0
  1 11  1  0
  1 12  1  0
  3 13  1  0
  4 14  1  0
  5 15  1  0
  5 16  1  0
  6 17  1  0
  7 18  1  0
  8 19  1  0
  8 20  1  0
  9 21  1  0
M  END
