
     RDKit          3D

 23 24  0  0  0  0  0  0  0  0999 V2000
   -0.8331    0.4112    1.5759 C   0  0  0  0  0  0  0  0  0  0  0  0
   -0.6934   -0.0699    0.1849 C   0  0  0  0  0  0  0  0  0  0  0  0
   -1.4201   -1.3791   -0.1430 C   0  0  0  0  0  0  0  0  0  0  0  0
   -1.1606    1.0143   -0.7972 C   0  0  0  0  0  0  0  0  0  0  0  0
    0.0062    0.5800   -1.6865 C   0  0  0  0  0  0  0  0  0  0  0  0
    0.6207   -0.0280   -0.4774 C   0  0  0  0  0  0  0  0  0  0  0  0
    1.7648    0.6255    0.1601 C   0  0  0  0  0  0  0  0  0  0  0  0
    2.0726   -0.8090    0.5262 C   0  0  0  0  0  0  0  0  0  0  0  0
    1.3356   -1.1840   -0.6225 O   0  0  0  0  0  0  0  0  0  0  0  0
   -1.3771    1.3983    1.6539 H   0  0  0  0  0  0  0  0  0  0  0  0
   -1.5054   -0.3051    2.1252 H   0  0  0  0  0  0  0  0  0  0  0  0
    0.1022    0.5494    2.1337 H   0  0  0  0  0  0  0  0  0  0  0  0
   -2.5132   -1.2579   -0.0734 H   0  0  0  0  0  0  0  0  0  0  0  0
   -1.0788   -2.1993    0.4973 H   0  0  0  0  0  0  0  0  0  0  0  0
   -1.2008   -1.5831   -1.2252 H   0  0  0  0  0  0  0  0  0  0  0  0
   -1.0083    2.0286   -0.3629 H   0  0  0  0  0  0  0  0  0  0  0  0
   -2.1521    0.8199   -1.1958 H   0  0  0  0  0  0  0  0  0  0  0  0
    0.5855    1.4394   -2.0924 H   0  0  0  0  0  0  0  0  0  0  0  0
   -0.3954   -0.1116   -2.4569 H   0  0  0  0  0  0  0  0  0  0  0  0
    2.5080    1.0514   -0.5444 H   0  0  0  0  0  0  0  0  0  0  0  0
    1.6075    1.3185    0.9905 H   0  0  0  0  0  0  0  0  0  0  0  0
    1.6204   -1.1782    1.4481 H   0  0  0  0  0  0  0  0  0  0  0  0
    3.1149   -1.1313    0.3822 H   0  0  0  0  0  0  0  0  0  0  0  0
  1  2  1  0
  2  3  1  0
  2  4  1  0
  4  5  1  0
  5  6  1  0
  6  7  1  0
  7  8  1  0
  8  9  1  0
  6  2  1  0
  9  6  1  0
  1 10  1  0
  1 11  1  0
  1 12  1  0
  3 13  1  0
  3 14  1  0
  3 15  1  0
  4 16  1  0
  4 17  1  0
  5 18  1  0
  5 19  1  0
  7 20  1  0
  7 21  1  0
  8 22  1  0
  8 23  1  0
M  END
