
     RDKit          3D

 15 15  0  0  0  0  0  0  0  0999 V2000
   -1.0513    1.3065   -0.0447 C   0  0  0  0  0  0  0  0  0  0  0  0
   -0.4245   -0.0629   -0.1444 C   0  0  0  0  0  0  0  0  0  0  0  0
   -1.3796   -1.1335   -0.4080 C   0  0  0  0  0  0  0  0  0  0  0  0
   -1.2843   -1.8159   -1.4110 O   0  0  0  0  0  0  0  0  0  0  0  0
    0.4053   -0.2939    1.0605 C   0  0  0  0  0  0  0  0  0  0  0  0
    1.6853   -0.3646    0.7024 C   0  0  0  0  0  0  0  0  0  0  0  0
    1.7963   -0.1887   -0.7422 C   0  0  0  0  0  0  0  0  0  0  0  0
    2.8385   -0.1930   -1.4475 O   0  0  0  0  0  0  0  0  0  0  0  0
    0.5192   -0.0132   -1.1988 O   0  0  0  0  0  0  0  0  0  0  0  0
   -0.2101    2.0349    0.0039 H   0  0  0  0  0  0  0  0  0  0  0  0
   -1.6380    1.4365    0.8859 H   0  0  0  0  0  0  0  0  0  0  0  0
   -1.6383    1.5571   -0.9505 H   0  0  0  0  0  0  0  0  0  0  0  0
   -2.2026   -1.3531    0.2815 H   0  0  0  0  0  0  0  0  0  0  0  0
    0.0347   -0.3905    2.0729 H   0  0  0  0  0  0  0  0  0  0  0  0
    2.5495   -0.5257    1.3400 H   0  0  0  0  0  0  0  0  0  0  0  0
  1  2  1  0
  2  3  1  0
  3  4  2  0
  2  5  1  0
  5  6  2  0
  6  7  1  0
  7  8  2  0
  7  9  1  0
  9  2  1  0
  1 10  1  0
  1 11  1  0
  1 12  1  0
  3 13  1  0
  5 14  1  0
  6 15  1  0
M  END
