
     RDKit          3D

 21 22  0  0  0  0  0  0  0  0999 V2000
   -1.6901   -0.8179    0.9522 C   0  0  0  0  0  0  0  0  0  0  0  0
   -1.1071    0.1071   -0.1208 C   0  0  0  0  0  0  0  0  0  0  0  0
   -2.0713    1.0095   -0.4966 O   0  0  0  0  0  0  0  0  0  0  0  0
   -0.6446   -0.7797   -1.2444 C   0  0  0  0  0  0  0  0  0  0  0  0
    0.6391   -0.4078   -1.5542 O   0  0  0  0  0  0  0  0  0  0  0  0
    1.2063    0.2259   -0.4906 C   0  0  0  0  0  0  0  0  0  0  0  0
    2.2835   -0.5080    0.2617 C   0  0  0  0  0  0  0  0  0  0  0  0
    0.9766    1.6641   -0.3529 C   0  0  0  0  0  0  0  0  0  0  0  0
    0.1195    0.7568    0.3995 C   0  0  0  0  0  0  0  0  0  0  0  0
   -2.3704   -1.5037    0.4279 H   0  0  0  0  0  0  0  0  0  0  0  0
   -2.2351   -0.2202    1.6832 H   0  0  0  0  0  0  0  0  0  0  0  0
   -0.8864   -1.4395    1.4085 H   0  0  0  0  0  0  0  0  0  0  0  0
   -2.2953    1.5616    0.2842 H   0  0  0  0  0  0  0  0  0  0  0  0
   -0.6157   -1.8587   -0.9508 H   0  0  0  0  0  0  0  0  0  0  0  0
   -1.3192   -0.7390   -2.1303 H   0  0  0  0  0  0  0  0  0  0  0  0
    2.7002    0.0978    1.0807 H   0  0  0  0  0  0  0  0  0  0  0  0
    1.7712   -1.3788    0.7694 H   0  0  0  0  0  0  0  0  0  0  0  0
    3.0320   -0.9484   -0.4012 H   0  0  0  0  0  0  0  0  0  0  0  0
    0.5451    2.1949   -1.2264 H   0  0  0  0  0  0  0  0  0  0  0  0
    1.7164    2.2499    0.1947 H   0  0  0  0  0  0  0  0  0  0  0  0
    0.2455    0.7340    1.5062 H   0  0  0  0  0  0  0  0  0  0  0  0
  1  2  1  0
  2  3  1  0
  2  4  1  0
  4  5  1  0
  5  6  1  0
  6  7  1  0
  6  8  1  0
  8  9  1  0
  9  2  1  0
  9  6  1  0
  1 10  1  0
  1 11  1  0
  1 12  1  0
  3 13  1  0
  4 14  1  0
  4 15  1  0
  7 16  1  0
  7 17  1  0
  7 18  1  0
  8 19  1  0
  8 20  1  0
  9 21  1  0
M  END
