
     RDKit          3D

 15 16  0  0  0  0  0  0  0  0999 V2000
    1.2674    0.9222   -0.1519 C   0  0  0  0  0  0  0  0  0  0  0  0
    0.3733   -0.1969    0.3934 C   0  0  0  0  0  0  0  0  0  0  0  0
    1.1333   -1.0366    1.1811 O   0  0  0  0  0  0  0  0  0  0  0  0
   -0.3037   -0.8613   -0.7975 C   0  0  0  0  0  0  0  0  0  0  0  0
   -1.4869    0.0293   -0.4791 C   0  0  0  0  0  0  0  0  0  0  0  0
   -2.1301   -0.3197    0.6738 O   0  0  0  0  0  0  0  0  0  0  0  0
   -0.9282    0.2534    0.9349 C   0  0  0  0  0  0  0  0  0  0  0  0
    1.9955    1.2697    0.5770 H   0  0  0  0  0  0  0  0  0  0  0  0
    0.6423    1.7213   -0.5834 H   0  0  0  0  0  0  0  0  0  0  0  0
    1.8547    0.5013   -1.0177 H   0  0  0  0  0  0  0  0  0  0  0  0
    0.6308   -1.8745    1.2936 H   0  0  0  0  0  0  0  0  0  0  0  0
    0.1737   -0.7147   -1.7602 H   0  0  0  0  0  0  0  0  0  0  0  0
   -0.5949   -1.9258   -0.5968 H   0  0  0  0  0  0  0  0  0  0  0  0
   -1.6571    0.9522   -1.0172 H   0  0  0  0  0  0  0  0  0  0  0  0
   -0.9701    1.2800    1.3500 H   0  0  0  0  0  0  0  0  0  0  0  0
  1  2  1  0
  2  3  1  0
  2  4  1  0
  4  5  1  0
  5  6  1  0
  6  7  1  0
  7  2  1  0
  7  5  1  0
  1  8  1  0
  1  9  1  0
  1 10  1  0
  3 11  1  0
  4 12  1  0
  4 13  1  0
  5 14  1  0
  7 15  1  0
M  END
