
     RDKit          3D

 20 20  0  0  0  0  0  0  0  0999 V2000
   -1.3620   -0.4599   -1.1680 C   0  0  0  0  0  0  0  0  0  0  0  0
   -0.6417    0.0244    0.0462 C   0  0  0  0  0  0  0  0  0  0  0  0
   -1.2827    1.1573    0.7793 C   0  0  0  0  0  0  0  0  0  0  0  0
   -0.0257   -1.1410    0.8308 C   0  0  0  0  0  0  0  0  0  0  0  0
    0.8770   -0.1675    0.2017 C   0  0  0  0  0  0  0  0  0  0  0  0
    1.6443   -0.3591   -1.1158 C   0  0  0  0  0  0  0  0  0  0  0  0
    1.5240    0.7563    1.1104 C   0  0  0  0  0  0  0  0  0  0  0  0
    1.9993    0.3155    2.1207 O   0  0  0  0  0  0  0  0  0  0  0  0
   -2.3668    0.0816   -1.2454 H   0  0  0  0  0  0  0  0  0  0  0  0
   -1.6766   -1.5164   -1.0653 H   0  0  0  0  0  0  0  0  0  0  0  0
   -0.9222   -0.3154   -2.1203 H   0  0  0  0  0  0  0  0  0  0  0  0
   -2.1613    1.5577    0.1617 H   0  0  0  0  0  0  0  0  0  0  0  0
   -0.6235    2.0601    0.9036 H   0  0  0  0  0  0  0  0  0  0  0  0
   -1.7429    0.8128    1.7387 H   0  0  0  0  0  0  0  0  0  0  0  0
   -0.1739   -1.1917    1.9377 H   0  0  0  0  0  0  0  0  0  0  0  0
   -0.0183   -2.1741    0.3876 H   0  0  0  0  0  0  0  0  0  0  0  0
    0.9487   -0.1838   -1.9757 H   0  0  0  0  0  0  0  0  0  0  0  0
    2.4990    0.3237   -1.2119 H   0  0  0  0  0  0  0  0  0  0  0  0
    1.9135   -1.4396   -1.2257 H   0  0  0  0  0  0  0  0  0  0  0  0
    1.5916    1.8591    0.9097 H   0  0  0  0  0  0  0  0  0  0  0  0
  1  2  1  0
  2  3  1  0
  2  4  1  0
  4  5  1  0
  5  6  1  0
  5  7  1  0
  7  8  2  0
  5  2  1  0
  1  9  1  0
  1 10  1  0
  1 11  1  0
  3 12  1  0
  3 13  1  0
  3 14  1  0
  4 15  1  0
  4 16  1  0
  6 17  1  0
  6 18  1  0
  6 19  1  0
  7 20  1  0
M  END
