
     RDKit          3D

 23 24  0  0  0  0  0  0  0  0999 V2000
   -1.5931   -0.9410    0.8233 C   0  0  0  0  0  0  0  0  0  0  0  0
   -0.8266    0.0190   -0.0141 C   0  0  0  0  0  0  0  0  0  0  0  0
   -1.8056    1.0772   -0.5210 C   0  0  0  0  0  0  0  0  0  0  0  0
   -0.1551   -0.5748   -1.2048 C   0  0  0  0  0  0  0  0  0  0  0  0
    1.2530   -0.9438   -0.8106 C   0  0  0  0  0  0  0  0  0  0  0  0
    1.4200   -0.3556    0.5544 C   0  0  0  0  0  0  0  0  0  0  0  0
    2.1977    0.9367    0.5491 C   0  0  0  0  0  0  0  0  0  0  0  0
    1.0475    1.5699    0.0647 O   0  0  0  0  0  0  0  0  0  0  0  0
    0.3004    0.6350    0.7600 C   0  0  0  0  0  0  0  0  0  0  0  0
   -1.7944   -1.9156    0.3363 H   0  0  0  0  0  0  0  0  0  0  0  0
   -1.1107   -1.1501    1.8157 H   0  0  0  0  0  0  0  0  0  0  0  0
   -2.6113   -0.5380    1.0967 H   0  0  0  0  0  0  0  0  0  0  0  0
   -2.0410    1.8021    0.2726 H   0  0  0  0  0  0  0  0  0  0  0  0
   -2.7333    0.5130   -0.7907 H   0  0  0  0  0  0  0  0  0  0  0  0
   -1.4390    1.5323   -1.4475 H   0  0  0  0  0  0  0  0  0  0  0  0
   -0.0650    0.2368   -1.9777 H   0  0  0  0  0  0  0  0  0  0  0  0
   -0.6939   -1.3982   -1.6852 H   0  0  0  0  0  0  0  0  0  0  0  0
    1.4145   -2.0339   -0.8556 H   0  0  0  0  0  0  0  0  0  0  0  0
    2.0195   -0.4905   -1.4850 H   0  0  0  0  0  0  0  0  0  0  0  0
    1.6136   -1.0393    1.3804 H   0  0  0  0  0  0  0  0  0  0  0  0
    2.5152    1.2332    1.5568 H   0  0  0  0  0  0  0  0  0  0  0  0
    2.9740    0.9513   -0.2275 H   0  0  0  0  0  0  0  0  0  0  0  0
    0.1136    0.8744    1.8097 H   0  0  0  0  0  0  0  0  0  0  0  0
  1  2  1  0
  2  3  1  0
  2  4  1  0
  4  5  1  0
  5  6  1  0
  6  7  1  0
  7  8  1  0
  8  9  1  0
  9  2  1  0
  9  6  1  0
  1 10  1  0
  1 11  1  0
  1 12  1  0
  3 13  1  0
  3 14  1  0
  3 15  1  0
  4 16  1  0
  4 17  1  0
  5 18  1  0
  5 19  1  0
  6 20  1  0
  7 21  1  0
  7 22  1  0
  9 23  1  0
M  END
