
     RDKit          3D

 19 20  0  0  0  0  0  0  0  0999 V2000
   -1.5710    0.6672    1.2932 C   0  0  0  0  0  0  0  0  0  0  0  0
   -0.8065    0.2024    0.0828 C   0  0  0  0  0  0  0  0  0  0  0  0
   -1.7070    0.3009   -1.1188 C   0  0  0  0  0  0  0  0  0  0  0  0
   -0.3726   -1.1399    0.2409 O   0  0  0  0  0  0  0  0  0  0  0  0
    0.8195   -1.0919   -0.4078 C   0  0  0  0  0  0  0  0  0  0  0  0
    2.1545   -0.8506   -0.0385 C   0  0  0  0  0  0  0  0  0  0  0  0
    3.1079   -0.4671   -1.0132 O   0  0  0  0  0  0  0  0  0  0  0  0
    1.3018    0.1557    0.4438 C   0  0  0  0  0  0  0  0  0  0  0  0
    0.3695    0.9717   -0.1105 O   0  0  0  0  0  0  0  0  0  0  0  0
   -2.2827   -0.1628    1.5529 H   0  0  0  0  0  0  0  0  0  0  0  0
   -0.8375    0.8544    2.0949 H   0  0  0  0  0  0  0  0  0  0  0  0
   -2.1233    1.5771    1.0341 H   0  0  0  0  0  0  0  0  0  0  0  0
   -2.2122    1.2911   -1.0996 H   0  0  0  0  0  0  0  0  0  0  0  0
   -2.5124   -0.4513   -0.9826 H   0  0  0  0  0  0  0  0  0  0  0  0
   -1.1761    0.1257   -2.0785 H   0  0  0  0  0  0  0  0  0  0  0  0
    0.5969   -0.8674   -1.4998 H   0  0  0  0  0  0  0  0  0  0  0  0
    2.6450   -1.5704    0.6695 H   0  0  0  0  0  0  0  0  0  0  0  0
    3.5265    0.3640   -0.6194 H   0  0  0  0  0  0  0  0  0  0  0  0
    1.0797    0.0909    1.5566 H   0  0  0  0  0  0  0  0  0  0  0  0
  1  2  1  0
  2  3  1  0
  2  4  1  0
  4  5  1  0
  5  6  1  0
  6  7  1  0
  6  8  1  0
  8  9  1  0
  9  2  1  0
  8  5  1  0
  1 10  1  0
  1 11  1  0
  1 12  1  0
  3 13  1  0
  3 14  1  0
  3 15  1  0
  5 16  1  0
  6 17  1  0
  7 18  1  0
  8 19  1  0
M  END
