
     RDKit          3D

 17 18  0  0  0  0  0  0  0  0999 V2000
   -1.5131    0.1762    1.0493 C   0  0  0  0  0  0  0  0  0  0  0  0
   -0.6505   -0.1251   -0.1322 C   0  0  0  0  0  0  0  0  0  0  0  0
   -1.3869   -0.6135   -1.1824 O   0  0  0  0  0  0  0  0  0  0  0  0
    0.4160   -1.1765    0.2054 C   0  0  0  0  0  0  0  0  0  0  0  0
    1.5694   -0.2457    0.4086 C   0  0  0  0  0  0  0  0  0  0  0  0
    2.3843   -0.2040    1.3128 O   0  0  0  0  0  0  0  0  0  0  0  0
    1.5952    0.6783   -0.7018 C   0  0  0  0  0  0  0  0  0  0  0  0
    0.7214    1.0451   -1.6979 O   0  0  0  0  0  0  0  0  0  0  0  0
    0.2456    1.0443   -0.5349 C   0  0  0  0  0  0  0  0  0  0  0  0
   -1.8866   -0.7739    1.4564 H   0  0  0  0  0  0  0  0  0  0  0  0
   -0.9440    0.7438    1.8199 H   0  0  0  0  0  0  0  0  0  0  0  0
   -2.3972    0.7428    0.6857 H   0  0  0  0  0  0  0  0  0  0  0  0
   -1.3974   -0.0444   -1.9798 H   0  0  0  0  0  0  0  0  0  0  0  0
    0.6367   -1.8230   -0.6479 H   0  0  0  0  0  0  0  0  0  0  0  0
    0.1512   -1.7207    1.1345 H   0  0  0  0  0  0  0  0  0  0  0  0
    2.4017    0.3533   -1.3188 H   0  0  0  0  0  0  0  0  0  0  0  0
    0.0542    1.9430    0.1231 H   0  0  0  0  0  0  0  0  0  0  0  0
  1  2  1  0
  2  3  1  0
  2  4  1  0
  4  5  1  0
  5  6  2  0
  5  7  1  0
  7  8  1  0
  8  9  1  0
  9  2  1  0
  9  7  1  0
  1 10  1  0
  1 11  1  0
  1 12  1  0
  3 13  1  0
  4 14  1  0
  4 15  1  0
  7 16  1  0
  9 17  1  0
M  END
