
     RDKit          3D

 19 20  0  0  0  0  0  0  0  0999 V2000
   -1.7376   -0.5699   -0.5154 C   0  0  0  0  0  0  0  0  0  0  0  0
   -0.4336    0.0227   -0.1258 C   0  0  0  0  0  0  0  0  0  0  0  0
   -0.6617    1.1592    0.8246 C   0  0  0  0  0  0  0  0  0  0  0  0
    0.5238   -1.0169    0.4851 C   0  0  0  0  0  0  0  0  0  0  0  0
    1.6980   -0.7421   -0.4392 C   0  0  0  0  0  0  0  0  0  0  0  0
    1.0495   -0.8029   -1.6967 O   0  0  0  0  0  0  0  0  0  0  0  0
    0.4451    0.4087   -1.2861 C   0  0  0  0  0  0  0  0  0  0  0  0
    1.7527    0.7096   -0.6391 C   0  0  0  0  0  0  0  0  0  0  0  0
    2.4336    1.6921   -0.4323 O   0  0  0  0  0  0  0  0  0  0  0  0
   -1.9810   -1.5197    0.0443 H   0  0  0  0  0  0  0  0  0  0  0  0
   -1.8383   -0.7312   -1.6161 H   0  0  0  0  0  0  0  0  0  0  0  0
   -2.5944    0.1165   -0.2515 H   0  0  0  0  0  0  0  0  0  0  0  0
    0.2838    1.7364    1.0210 H   0  0  0  0  0  0  0  0  0  0  0  0
   -1.4497    1.8006    0.3982 H   0  0  0  0  0  0  0  0  0  0  0  0
   -1.0079    0.8060    1.8042 H   0  0  0  0  0  0  0  0  0  0  0  0
    0.7330   -0.8240    1.5279 H   0  0  0  0  0  0  0  0  0  0  0  0
    0.1198   -1.9904    0.2267 H   0  0  0  0  0  0  0  0  0  0  0  0
    2.5875   -1.3136   -0.3190 H   0  0  0  0  0  0  0  0  0  0  0  0
    0.0774    1.0590   -2.0392 H   0  0  0  0  0  0  0  0  0  0  0  0
  1  2  1  0
  2  3  1  0
  2  4  1  0
  4  5  1  0
  5  6  1  0
  6  7  1  0
  7  8  1  0
  8  9  2  0
  7  2  1  0
  8  5  1  0
  1 10  1  0
  1 11  1  0
  1 12  1  0
  3 13  1  0
  3 14  1  0
  3 15  1  0
  4 16  1  0
  4 17  1  0
  5 18  1  0
  7 19  1  0
M  END
