
     RDKit          3D

 19 20  0  0  0  0  0  0  0  0999 V2000
   -1.8469    0.8423    0.0665 C   0  0  0  0  0  0  0  0  0  0  0  0
   -0.9394   -0.3394    0.2168 C   0  0  0  0  0  0  0  0  0  0  0  0
   -1.2469   -1.1234    1.3513 O   0  0  0  0  0  0  0  0  0  0  0  0
   -0.5554   -1.1605   -0.9906 C   0  0  0  0  0  0  0  0  0  0  0  0
    0.4302   -0.3835   -0.2664 C   0  0  0  0  0  0  0  0  0  0  0  0
    1.1468    0.7918   -0.8638 C   0  0  0  0  0  0  0  0  0  0  0  0
    1.9061    1.2325    0.2418 O   0  0  0  0  0  0  0  0  0  0  0  0
    2.1490    0.1328    1.0245 C   0  0  0  0  0  0  0  0  0  0  0  0
    1.3759   -0.9131    0.5873 O   0  0  0  0  0  0  0  0  0  0  0  0
   -1.9524    1.3112    1.0659 H   0  0  0  0  0  0  0  0  0  0  0  0
   -2.8594    0.4403   -0.2176 H   0  0  0  0  0  0  0  0  0  0  0  0
   -1.5312    1.5705   -0.6804 H   0  0  0  0  0  0  0  0  0  0  0  0
   -2.0531   -1.6676    1.1634 H   0  0  0  0  0  0  0  0  0  0  0  0
   -0.6142   -2.2669   -0.9460 H   0  0  0  0  0  0  0  0  0  0  0  0
   -0.9598   -0.7420   -1.9420 H   0  0  0  0  0  0  0  0  0  0  0  0
    1.8839    0.3863   -1.5967 H   0  0  0  0  0  0  0  0  0  0  0  0
    0.5006    1.5668   -1.2695 H   0  0  0  0  0  0  0  0  0  0  0  0
    1.9267    0.4030    2.0781 H   0  0  0  0  0  0  0  0  0  0  0  0
    3.2394   -0.0812    0.9772 H   0  0  0  0  0  0  0  0  0  0  0  0
  1  2  1  0
  2  3  1  0
  2  4  1  0
  4  5  1  0
  5  6  1  0
  6  7  1  0
  7  8  1  0
  8  9  1  0
  5  2  1  0
  9  5  1  0
  1 10  1  0
  1 11  1  0
  1 12  1  0
  3 13  1  0
  4 14  1  0
  4 15  1  0
  6 16  1  0
  6 17  1  0
  8 18  1  0
  8 19  1  0
M  END
