
     RDKit          3D

 17 18  0  0  0  0  0  0  0  0999 V2000
    0.8765   -1.4120    0.3217 C   0  0  0  0  0  0  0  0  0  0  0  0
    0.5189   -0.0259   -0.1503 C   0  0  0  0  0  0  0  0  0  0  0  0
    1.6067    1.0020   -0.0575 C   0  0  0  0  0  0  0  0  0  0  0  0
   -0.0894    0.0364   -1.4047 O   0  0  0  0  0  0  0  0  0  0  0  0
   -1.2803    0.5508   -0.8873 C   0  0  0  0  0  0  0  0  0  0  0  0
   -1.9915   -0.3532    0.0380 C   0  0  0  0  0  0  0  0  0  0  0  0
   -0.7646    0.4144    0.4763 C   0  0  0  0  0  0  0  0  0  0  0  0
    1.1497   -2.0594   -0.5161 H   0  0  0  0  0  0  0  0  0  0  0  0
    0.0018   -1.9166    0.8263 H   0  0  0  0  0  0  0  0  0  0  0  0
    1.6497   -1.3020    1.0983 H   0  0  0  0  0  0  0  0  0  0  0  0
    2.2381    0.8576    0.8471 H   0  0  0  0  0  0  0  0  0  0  0  0
    2.2277    1.0258   -0.9941 H   0  0  0  0  0  0  0  0  0  0  0  0
    1.1488    2.0271   -0.0076 H   0  0  0  0  0  0  0  0  0  0  0  0
   -1.6855    1.4961   -1.2514 H   0  0  0  0  0  0  0  0  0  0  0  0
   -2.9034   -0.0637    0.5836 H   0  0  0  0  0  0  0  0  0  0  0  0
   -1.8875   -1.4464   -0.1742 H   0  0  0  0  0  0  0  0  0  0  0  0
   -0.8159    1.1689    1.2521 H   0  0  0  0  0  0  0  0  0  0  0  0
  1  2  1  0
  2  3  1  0
  2  4  1  0
  4  5  1  0
  5  6  1  0
  6  7  1  0
  7  2  1  0
  7  5  1  0
  1  8  1  0
  1  9  1  0
  1 10  1  0
  3 11  1  0
  3 12  1  0
  3 13  1  0
  5 14  1  0
  6 15  1  0
  6 16  1  0
  7 17  1  0
M  END
