
     RDKit          3D

 23 23  0  0  0  0  0  0  0  0999 V2000
   -1.6723    0.9752    0.7435 C   0  0  0  0  0  0  0  0  0  0  0  0
   -0.9981   -0.1689   -0.0263 C   0  0  0  0  0  0  0  0  0  0  0  0
   -2.1415   -0.9846   -0.6190 C   0  0  0  0  0  0  0  0  0  0  0  0
   -0.2481    0.4216   -1.1233 C   0  0  0  0  0  0  0  0  0  0  0  0
    1.0081    0.7144   -1.2955 C   0  0  0  0  0  0  0  0  0  0  0  0
    2.1408    0.5350   -0.3899 C   0  0  0  0  0  0  0  0  0  0  0  0
    2.0184   -0.7398    0.4256 C   0  0  0  0  0  0  0  0  0  0  0  0
    0.8336   -0.4924    1.3587 C   0  0  0  0  0  0  0  0  0  0  0  0
   -0.3023   -1.0007    0.8111 O   0  0  0  0  0  0  0  0  0  0  0  0
   -0.9634    1.5599    1.3261 H   0  0  0  0  0  0  0  0  0  0  0  0
   -2.1482    1.6195   -0.0290 H   0  0  0  0  0  0  0  0  0  0  0  0
   -2.5160    0.5681    1.3671 H   0  0  0  0  0  0  0  0  0  0  0  0
   -1.9940   -2.0807   -0.4400 H   0  0  0  0  0  0  0  0  0  0  0  0
   -3.1142   -0.7302   -0.1887 H   0  0  0  0  0  0  0  0  0  0  0  0
   -2.1760   -0.8846   -1.7353 H   0  0  0  0  0  0  0  0  0  0  0  0
   -0.8721    0.6779   -1.9988 H   0  0  0  0  0  0  0  0  0  0  0  0
    1.2726    1.1641   -2.2600 H   0  0  0  0  0  0  0  0  0  0  0  0
    2.2554    1.3617    0.3579 H   0  0  0  0  0  0  0  0  0  0  0  0
    3.1193    0.5151   -0.9403 H   0  0  0  0  0  0  0  0  0  0  0  0
    1.7296   -1.5376   -0.2758 H   0  0  0  0  0  0  0  0  0  0  0  0
    2.9241   -0.9716    0.9755 H   0  0  0  0  0  0  0  0  0  0  0  0
    1.0640   -1.0807    2.2843 H   0  0  0  0  0  0  0  0  0  0  0  0
    0.7803    0.5592    1.6720 H   0  0  0  0  0  0  0  0  0  0  0  0
  1  2  1  0
  2  3  1  0
  2  4  1  0
  4  5  2  0
  5  6  1  0
  6  7  1  0
  7  8  1  0
  8  9  1  0
  9  2  1  0
  1 10  1  0
  1 11  1  0
  1 12  1  0
  3 13  1  0
  3 14  1  0
  3 15  1  0
  4 16  1  0
  5 17  1  0
  6 18  1  0
  6 19  1  0
  7 20  1  0
  7 21  1  0
  8 22  1  0
  8 23  1  0
M  END
