
     RDKit          3D

 23 23  0  0  0  0  0  0  0  0999 V2000
   -0.7314    0.0148    1.4293 C   0  0  0  0  0  0  0  0  0  0  0  0
   -0.7323    0.1080   -0.0643 C   0  0  0  0  0  0  0  0  0  0  0  0
   -2.1831    0.3336   -0.4987 C   0  0  0  0  0  0  0  0  0  0  0  0
    0.0422    1.2955   -0.5354 C   0  0  0  0  0  0  0  0  0  0  0  0
    1.4142    1.3712   -0.0455 C   0  0  0  0  0  0  0  0  0  0  0  0
    2.2610    0.3982    0.2301 C   0  0  0  0  0  0  0  0  0  0  0  0
    2.0522   -1.0420    0.1179 C   0  0  0  0  0  0  0  0  0  0  0  0
    0.9751   -1.6925   -0.2778 C   0  0  0  0  0  0  0  0  0  0  0  0
   -0.3133   -1.1804   -0.7165 C   0  0  0  0  0  0  0  0  0  0  0  0
    0.0369   -0.6663    1.8329 H   0  0  0  0  0  0  0  0  0  0  0  0
   -1.7157   -0.3379    1.8319 H   0  0  0  0  0  0  0  0  0  0  0  0
   -0.5896    1.0448    1.8301 H   0  0  0  0  0  0  0  0  0  0  0  0
   -2.7064   -0.6252   -0.6593 H   0  0  0  0  0  0  0  0  0  0  0  0
   -2.7423    0.9042    0.2611 H   0  0  0  0  0  0  0  0  0  0  0  0
   -2.1838    0.8562   -1.4865 H   0  0  0  0  0  0  0  0  0  0  0  0
   -0.5060    2.2087   -0.1677 H   0  0  0  0  0  0  0  0  0  0  0  0
   -0.0192    1.3676   -1.6499 H   0  0  0  0  0  0  0  0  0  0  0  0
    1.8242    2.3621    0.1263 H   0  0  0  0  0  0  0  0  0  0  0  0
    3.2577    0.6756    0.5918 H   0  0  0  0  0  0  0  0  0  0  0  0
    2.9262   -1.6558    0.4084 H   0  0  0  0  0  0  0  0  0  0  0  0
    1.1060   -2.7858   -0.2613 H   0  0  0  0  0  0  0  0  0  0  0  0
   -1.0938   -1.9344   -0.4788 H   0  0  0  0  0  0  0  0  0  0  0  0
   -0.3788   -1.0201   -1.8181 H   0  0  0  0  0  0  0  0  0  0  0  0
  1  2  1  0
  2  3  1  0
  2  4  1  0
  4  5  1  0
  5  6  2  0
  6  7  1  0
  7  8  2  0
  8  9  1  0
  9  2  1  0
  1 10  1  0
  1 11  1  0
  1 12  1  0
  3 13  1  0
  3 14  1  0
  3 15  1  0
  4 16  1  0
  4 17  1  0
  5 18  1  0
  6 19  1  0
  7 20  1  0
  8 21  1  0
  9 22  1  0
  9 23  1  0
M  END
