
     RDKit          3D

 19 19  0  0  0  0  0  0  0  0999 V2000
   -1.3696    1.1818    0.3802 C   0  0  0  0  0  0  0  0  0  0  0  0
   -1.2655   -0.2031   -0.1453 C   0  0  0  0  0  0  0  0  0  0  0  0
   -2.3010   -0.5590   -1.0306 O   0  0  0  0  0  0  0  0  0  0  0  0
   -0.6724   -1.2452    0.7273 C   0  0  0  0  0  0  0  0  0  0  0  0
    0.0708   -0.8364   -0.4883 C   0  0  0  0  0  0  0  0  0  0  0  0
    1.2742    0.0265   -0.4306 C   0  0  0  0  0  0  0  0  0  0  0  0
    2.3945   -0.7821   -0.8203 O   0  0  0  0  0  0  0  0  0  0  0  0
    1.6479    0.5716    0.8670 C   0  0  0  0  0  0  0  0  0  0  0  0
    2.7043    0.3018    1.4028 O   0  0  0  0  0  0  0  0  0  0  0  0
   -2.4100    1.5676    0.1450 H   0  0  0  0  0  0  0  0  0  0  0  0
   -0.6753    1.9113   -0.0886 H   0  0  0  0  0  0  0  0  0  0  0  0
   -1.3371    1.2165    1.4942 H   0  0  0  0  0  0  0  0  0  0  0  0
   -2.0217   -0.2006   -1.9173 H   0  0  0  0  0  0  0  0  0  0  0  0
   -0.2358   -0.9486    1.6943 H   0  0  0  0  0  0  0  0  0  0  0  0
   -1.1092   -2.2651    0.7253 H   0  0  0  0  0  0  0  0  0  0  0  0
    0.0913   -1.5773   -1.3398 H   0  0  0  0  0  0  0  0  0  0  0  0
    1.1843    0.8042   -1.2312 H   0  0  0  0  0  0  0  0  0  0  0  0
    3.0213   -0.2019   -1.3567 H   0  0  0  0  0  0  0  0  0  0  0  0
    1.0088    1.2382    1.4129 H   0  0  0  0  0  0  0  0  0  0  0  0
  1  2  1  0
  2  3  1  0
  2  4  1  0
  4  5  1  0
  5  6  1  0
  6  7  1  0
  6  8  1  0
  8  9  2  0
  5  2  1  0
  1 10  1  0
  1 11  1  0
  1 12  1  0
  3 13  1  0
  4 14  1  0
  4 15  1  0
  5 16  1  0
  6 17  1  0
  7 18  1  0
  8 19  1  0
M  END
