
     RDKit          3D

 14 14  0  0  0  0  0  0  0  0999 V2000
   -1.1674   -1.0926   -0.2279 C   0  0  0  0  0  0  0  0  0  0  0  0
   -0.1207   -0.0306   -0.2452 C   0  0  0  0  0  0  0  0  0  0  0  0
   -0.6116    1.2716   -0.7274 C   0  0  0  0  0  0  0  0  0  0  0  0
   -1.6172    1.7556   -0.2771 O   0  0  0  0  0  0  0  0  0  0  0  0
    0.7003    0.1209    1.0123 C   0  0  0  0  0  0  0  0  0  0  0  0
    1.8877    0.0187    0.1403 C   0  0  0  0  0  0  0  0  0  0  0  0
    3.1214    0.2444    0.1915 O   0  0  0  0  0  0  0  0  0  0  0  0
    1.0707   -0.4687   -0.8679 O   0  0  0  0  0  0  0  0  0  0  0  0
   -0.8509   -2.0249    0.2357 H   0  0  0  0  0  0  0  0  0  0  0  0
   -2.0867   -0.7168    0.2986 H   0  0  0  0  0  0  0  0  0  0  0  0
   -1.4504   -1.2960   -1.2997 H   0  0  0  0  0  0  0  0  0  0  0  0
   -0.0795    1.8119   -1.4902 H   0  0  0  0  0  0  0  0  0  0  0  0
    0.5812   -0.7020    1.7465 H   0  0  0  0  0  0  0  0  0  0  0  0
    0.6231    1.1084    1.5107 H   0  0  0  0  0  0  0  0  0  0  0  0
  1  2  1  0
  2  3  1  0
  3  4  2  0
  2  5  1  0
  5  6  1  0
  6  7  2  0
  6  8  1  0
  8  2  1  0
  1  9  1  0
  1 10  1  0
  1 11  1  0
  3 12  1  0
  5 13  1  0
  5 14  1  0
M  END
