
     RDKit          3D

 21 22  0  0  0  0  0  0  0  0999 V2000
   -1.1069   -0.8514   -1.2399 C   0  0  0  0  0  0  0  0  0  0  0  0
   -0.4374    0.0360   -0.1665 C   0  0  0  0  0  0  0  0  0  0  0  0
   -1.3646    1.1794    0.1709 C   0  0  0  0  0  0  0  0  0  0  0  0
   -2.5437    0.6018    0.6541 O   0  0  0  0  0  0  0  0  0  0  0  0
   -0.1737   -0.8579    0.9548 C   0  0  0  0  0  0  0  0  0  0  0  0
    1.0876   -1.1810    1.0014 C   0  0  0  0  0  0  0  0  0  0  0  0
    1.8330   -0.5387   -0.0896 C   0  0  0  0  0  0  0  0  0  0  0  0
    2.0164    0.9271    0.0599 C   0  0  0  0  0  0  0  0  0  0  0  0
    0.8581    0.4452   -0.7298 C   0  0  0  0  0  0  0  0  0  0  0  0
   -0.3023   -1.5759   -1.5299 H   0  0  0  0  0  0  0  0  0  0  0  0
   -1.9665   -1.3599   -0.7638 H   0  0  0  0  0  0  0  0  0  0  0  0
   -1.3802   -0.1735   -2.0580 H   0  0  0  0  0  0  0  0  0  0  0  0
   -0.9338    1.8777    0.8995 H   0  0  0  0  0  0  0  0  0  0  0  0
   -1.6490    1.7270   -0.7500 H   0  0  0  0  0  0  0  0  0  0  0  0
   -2.6055    0.6360    1.6315 H   0  0  0  0  0  0  0  0  0  0  0  0
   -0.9510   -1.2136    1.6724 H   0  0  0  0  0  0  0  0  0  0  0  0
    1.5290   -1.8349    1.7437 H   0  0  0  0  0  0  0  0  0  0  0  0
    2.4714   -1.1491   -0.7506 H   0  0  0  0  0  0  0  0  0  0  0  0
    2.8438    1.3654   -0.5036 H   0  0  0  0  0  0  0  0  0  0  0  0
    1.8534    1.3713    1.0696 H   0  0  0  0  0  0  0  0  0  0  0  0
    0.9217    0.5690   -1.8426 H   0  0  0  0  0  0  0  0  0  0  0  0
  1  2  1  0
  2  3  1  0
  3  4  1  0
  2  5  1  0
  5  6  2  0
  6  7  1  0
  7  8  1  0
  8  9  1  0
  9  2  1  0
  9  7  1  0
  1 10  1  0
  1 11  1  0
  1 12  1  0
  3 13  1  0
  3 14  1  0
  4 15  1  0
  5 16  1  0
  6 17  1  0
  7 18  1  0
  8 19  1  0
  8 20  1  0
  9 21  1  0
M  END
