
     RDKit          3D

 19 19  0  0  0  0  0  0  0  0999 V2000
   -1.1100   -0.6284    1.3853 C   0  0  0  0  0  0  0  0  0  0  0  0
   -0.3442    0.0701    0.2466 C   0  0  0  0  0  0  0  0  0  0  0  0
   -1.3543    1.0833   -0.3026 C   0  0  0  0  0  0  0  0  0  0  0  0
   -0.0358   -0.9710   -0.7701 C   0  0  0  0  0  0  0  0  0  0  0  0
    1.3282   -0.9250   -1.3025 C   0  0  0  0  0  0  0  0  0  0  0  0
    1.6617   -1.6847   -2.2442 O   0  0  0  0  0  0  0  0  0  0  0  0
    2.2140   -0.0465   -0.7550 O   0  0  0  0  0  0  0  0  0  0  0  0
    1.8585    0.8677    0.2443 C   0  0  0  0  0  0  0  0  0  0  0  0
    0.6601    0.7443    0.8032 O   0  0  0  0  0  0  0  0  0  0  0  0
   -1.6140   -1.5333    1.0319 H   0  0  0  0  0  0  0  0  0  0  0  0
   -0.3262   -0.9639    2.1174 H   0  0  0  0  0  0  0  0  0  0  0  0
   -1.8312    0.0559    1.8608 H   0  0  0  0  0  0  0  0  0  0  0  0
   -2.2739    0.6004   -0.6450 H   0  0  0  0  0  0  0  0  0  0  0  0
   -0.8948    1.7538   -1.0492 H   0  0  0  0  0  0  0  0  0  0  0  0
   -1.6307    1.7247    0.5784 H   0  0  0  0  0  0  0  0  0  0  0  0
   -0.7359   -0.8330   -1.6448 H   0  0  0  0  0  0  0  0  0  0  0  0
   -0.2351   -2.0059   -0.4071 H   0  0  0  0  0  0  0  0  0  0  0  0
    2.6466    0.7961    1.0463 H   0  0  0  0  0  0  0  0  0  0  0  0
    2.0169    1.8954   -0.1936 H   0  0  0  0  0  0  0  0  0  0  0  0
  1  2  1  0
  2  3  1  0
  2  4  1  0
  4  5  1  0
  5  6  2  0
  5  7  1  0
  7  8  1  0
  8  9  1  0
  9  2  1  0
  1 10  1  0
  1 11  1  0
  1 12  1  0
  3 13  1  0
  3 14  1  0
  3 15  1  0
  4 16  1  0
  4 17  1  0
  8 18  1  0
  8 19  1  0
M  END
