
     RDKit          3D

 18 19  0  0  0  0  0  0  0  0999 V2000
   -1.7606   -0.7583   -0.3168 C   0  0  0  0  0  0  0  0  0  0  0  0
   -0.7690    0.2427    0.1643 C   0  0  0  0  0  0  0  0  0  0  0  0
   -1.2925    1.3871    0.7735 O   0  0  0  0  0  0  0  0  0  0  0  0
    0.3803   -0.2811    0.9812 C   0  0  0  0  0  0  0  0  0  0  0  0
    1.0934    0.9757    0.5584 C   0  0  0  0  0  0  0  0  0  0  0  0
    0.4302    0.4885   -0.7060 C   0  0  0  0  0  0  0  0  0  0  0  0
    0.8836   -0.8837   -0.2974 C   0  0  0  0  0  0  0  0  0  0  0  0
    2.2311   -1.1417   -0.3771 O   0  0  0  0  0  0  0  0  0  0  0  0
   -1.5806   -1.7936    0.0748 H   0  0  0  0  0  0  0  0  0  0  0  0
   -1.9172   -0.7408   -1.4103 H   0  0  0  0  0  0  0  0  0  0  0  0
   -2.7594   -0.4719    0.1251 H   0  0  0  0  0  0  0  0  0  0  0  0
   -1.6009    2.0512    0.1162 H   0  0  0  0  0  0  0  0  0  0  0  0
    0.3504   -0.6899    1.8892 H   0  0  0  0  0  0  0  0  0  0  0  0
    0.5973    1.8979    0.9425 H   0  0  0  0  0  0  0  0  0  0  0  0
    2.1811    0.9627    0.5855 H   0  0  0  0  0  0  0  0  0  0  0  0
    0.4626    0.9072   -1.6082 H   0  0  0  0  0  0  0  0  0  0  0  0
    0.3028   -1.7251   -0.7068 H   0  0  0  0  0  0  0  0  0  0  0  0
    2.7675   -0.4269   -0.7881 H   0  0  0  0  0  0  0  0  0  0  0  0
  1  2  1  0
  2  3  1  0
  2  4  1  0
  4  5  1  0
  5  6  1  0
  6  7  1  0
  7  8  1  0
  6  2  1  0
  7  4  1  0
  1  9  1  0
  1 10  1  0
  1 11  1  0
  3 12  1  0
  4 13  1  0
  5 14  1  0
  5 15  1  0
  6 16  1  0
  7 17  1  0
  8 18  1  0
M  END
