
     RDKit          3D

 18 18  0  0  0  0  0  0  0  0999 V2000
    1.7161   -0.8924    0.1691 C   0  0  0  0  0  0  0  0  0  0  0  0
    0.8549    0.3421    0.0208 C   0  0  0  0  0  0  0  0  0  0  0  0
    1.5349    1.6085    0.5133 C   0  0  0  0  0  0  0  0  0  0  0  0
    0.2065    0.5387   -1.2134 O   0  0  0  0  0  0  0  0  0  0  0  0
   -0.5737    0.3210    0.0319 C   0  0  0  0  0  0  0  0  0  0  0  0
   -1.4309   -0.8987   -0.1035 C   0  0  0  0  0  0  0  0  0  0  0  0
   -2.8653   -0.5460   -0.0468 C   0  0  0  0  0  0  0  0  0  0  0  0
   -3.3984   -0.3208    1.0129 O   0  0  0  0  0  0  0  0  0  0  0  0
    1.8346   -1.1436    1.2401 H   0  0  0  0  0  0  0  0  0  0  0  0
    2.7463   -0.7366   -0.2261 H   0  0  0  0  0  0  0  0  0  0  0  0
    1.2686   -1.7210   -0.4262 H   0  0  0  0  0  0  0  0  0  0  0  0
    0.8660    2.4887    0.4281 H   0  0  0  0  0  0  0  0  0  0  0  0
    2.4116    1.8311   -0.1540 H   0  0  0  0  0  0  0  0  0  0  0  0
    1.8348    1.5118    1.5745 H   0  0  0  0  0  0  0  0  0  0  0  0
   -1.1214    1.2270    0.3550 H   0  0  0  0  0  0  0  0  0  0  0  0
   -1.1683   -1.6720    0.6799 H   0  0  0  0  0  0  0  0  0  0  0  0
   -1.2645   -1.4532   -1.0589 H   0  0  0  0  0  0  0  0  0  0  0  0
   -3.4519   -0.4848   -0.9398 H   0  0  0  0  0  0  0  0  0  0  0  0
  1  2  1  0
  2  3  1  0
  2  4  1  0
  4  5  1  0
  5  6  1  0
  6  7  1  0
  7  8  2  0
  5  2  1  0
  1  9  1  0
  1 10  1  0
  1 11  1  0
  3 12  1  0
  3 13  1  0
  3 14  1  0
  5 15  1  0
  6 16  1  0
  6 17  1  0
  7 18  1  0
M  END
