
     RDKit          3D

 21 21  0  0  0  0  0  0  0  0999 V2000
   -1.3785   -0.8428   -1.2961 C   0  0  0  0  0  0  0  0  0  0  0  0
   -0.6644   -0.0445   -0.2324 C   0  0  0  0  0  0  0  0  0  0  0  0
   -1.6774    0.5390    0.7021 C   0  0  0  0  0  0  0  0  0  0  0  0
    0.3278   -0.8782    0.5436 C   0  0  0  0  0  0  0  0  0  0  0  0
    1.4544    0.0581    0.9115 C   0  0  0  0  0  0  0  0  0  0  0  0
    2.6502   -0.6607    0.9807 O   0  0  0  0  0  0  0  0  0  0  0  0
    1.4694    1.0813   -0.1759 C   0  0  0  0  0  0  0  0  0  0  0  0
    0.1760    0.9629   -0.9087 C   0  0  0  0  0  0  0  0  0  0  0  0
   -0.0566    1.6359   -1.9004 O   0  0  0  0  0  0  0  0  0  0  0  0
   -1.9907   -0.1114   -1.8783 H   0  0  0  0  0  0  0  0  0  0  0  0
   -0.6782   -1.3667   -1.9807 H   0  0  0  0  0  0  0  0  0  0  0  0
   -2.0686   -1.5253   -0.7916 H   0  0  0  0  0  0  0  0  0  0  0  0
   -1.5628    0.0887    1.7241 H   0  0  0  0  0  0  0  0  0  0  0  0
   -2.7238    0.2478    0.3946 H   0  0  0  0  0  0  0  0  0  0  0  0
   -1.6357    1.6493    0.7695 H   0  0  0  0  0  0  0  0  0  0  0  0
    0.6748   -1.7580   -0.0114 H   0  0  0  0  0  0  0  0  0  0  0  0
   -0.1617   -1.1811    1.4917 H   0  0  0  0  0  0  0  0  0  0  0  0
    1.3164    0.5304    1.9035 H   0  0  0  0  0  0  0  0  0  0  0  0
    2.6712   -1.4202    0.3788 H   0  0  0  0  0  0  0  0  0  0  0  0
    1.5187    2.1155    0.2189 H   0  0  0  0  0  0  0  0  0  0  0  0
    2.3396    0.8801   -0.8435 H   0  0  0  0  0  0  0  0  0  0  0  0
  1  2  1  0
  2  3  1  0
  2  4  1  0
  4  5  1  0
  5  6  1  0
  5  7  1  0
  7  8  1  0
  8  9  2  0
  8  2  1  0
  1 10  1  0
  1 11  1  0
  1 12  1  0
  3 13  1  0
  3 14  1  0
  3 15  1  0
  4 16  1  0
  4 17  1  0
  5 18  1  0
  6 19  1  0
  7 20  1  0
  7 21  1  0
M  END
