
     RDKit          3D

 19 20  0  0  0  0  0  0  0  0999 V2000
   -0.6472    1.2422   -0.6818 C   0  0  0  0  0  0  0  0  0  0  0  0
   -0.6202    0.0232    0.1014 C   0  0  0  0  0  0  0  0  0  0  0  0
   -2.0032   -0.2078    0.7110 C   0  0  0  0  0  0  0  0  0  0  0  0
   -0.1861   -1.2559   -0.5252 C   0  0  0  0  0  0  0  0  0  0  0  0
   -0.6180   -2.2868   -0.9869 O   0  0  0  0  0  0  0  0  0  0  0  0
    1.1694   -0.7035   -0.3401 C   0  0  0  0  0  0  0  0  0  0  0  0
    1.9015   -0.3393    0.8434 C   0  0  0  0  0  0  0  0  0  0  0  0
    2.5876    0.8962    0.9888 O   0  0  0  0  0  0  0  0  0  0  0  0
    0.4958   -0.2845    1.0298 C   0  0  0  0  0  0  0  0  0  0  0  0
    0.2785    1.8138   -0.8224 H   0  0  0  0  0  0  0  0  0  0  0  0
   -1.3343    1.9745   -0.1633 H   0  0  0  0  0  0  0  0  0  0  0  0
   -1.1608    1.0576   -1.6678 H   0  0  0  0  0  0  0  0  0  0  0  0
   -2.7382   -0.1716   -0.1420 H   0  0  0  0  0  0  0  0  0  0  0  0
   -2.1564    0.5896    1.4429 H   0  0  0  0  0  0  0  0  0  0  0  0
   -1.9888   -1.2216    1.1558 H   0  0  0  0  0  0  0  0  0  0  0  0
    1.2887    0.0865   -1.1121 H   0  0  0  0  0  0  0  0  0  0  0  0
    2.5904   -1.1590    1.2151 H   0  0  0  0  0  0  0  0  0  0  0  0
    2.9705    1.1351    0.1218 H   0  0  0  0  0  0  0  0  0  0  0  0
    0.1706   -1.1889    1.6466 H   0  0  0  0  0  0  0  0  0  0  0  0
  1  2  1  0
  2  3  1  0
  2  4  1  0
  4  5  2  0
  4  6  1  0
  6  7  1  0
  7  8  1  0
  7  9  1  0
  9  2  1  0
  9  6  1  0
  1 10  1  0
  1 11  1  0
  1 12  1  0
  3 13  1  0
  3 14  1  0
  3 15  1  0
  6 16  1  0
  7 17  1  0
  8 18  1  0
  9 19  1  0
M  END
