
     RDKit          3D

 20 21  0  0  0  0  0  0  0  0999 V2000
    2.3095   -0.7734   -0.8104 C   0  0  0  0  0  0  0  0  0  0  0  0
    1.2144   -0.1456    0.0552 C   0  0  0  0  0  0  0  0  0  0  0  0
    1.6936    1.1174    0.7524 C   0  0  0  0  0  0  0  0  0  0  0  0
    0.4742   -1.0564    0.7743 O   0  0  0  0  0  0  0  0  0  0  0  0
   -0.1337   -0.3088   -0.3869 C   0  0  0  0  0  0  0  0  0  0  0  0
   -1.3193    0.4408    0.1036 C   0  0  0  0  0  0  0  0  0  0  0  0
   -2.6765    0.1984   -0.4185 C   0  0  0  0  0  0  0  0  0  0  0  0
   -2.3281   -0.4270    0.8804 C   0  0  0  0  0  0  0  0  0  0  0  0
    2.3120   -1.8719   -0.7212 H   0  0  0  0  0  0  0  0  0  0  0  0
    3.3039   -0.3752   -0.5779 H   0  0  0  0  0  0  0  0  0  0  0  0
    2.0411   -0.5531   -1.8784 H   0  0  0  0  0  0  0  0  0  0  0  0
    1.0896    1.3830    1.6228 H   0  0  0  0  0  0  0  0  0  0  0  0
    1.7101    1.9111   -0.0403 H   0  0  0  0  0  0  0  0  0  0  0  0
    2.7532    0.9950    1.0942 H   0  0  0  0  0  0  0  0  0  0  0  0
   -0.3471   -1.0347   -1.2127 H   0  0  0  0  0  0  0  0  0  0  0  0
   -1.0582    1.4351    0.5730 H   0  0  0  0  0  0  0  0  0  0  0  0
   -2.7863   -0.4713   -1.3003 H   0  0  0  0  0  0  0  0  0  0  0  0
   -3.4189    1.0247   -0.3405 H   0  0  0  0  0  0  0  0  0  0  0  0
   -2.1204   -1.5015    0.9766 H   0  0  0  0  0  0  0  0  0  0  0  0
   -2.7131    0.0134    1.8385 H   0  0  0  0  0  0  0  0  0  0  0  0
  1  2  1  0
  2  3  1  0
  2  4  1  0
  4  5  1  0
  5  6  1  0
  6  7  1  0
  7  8  1  0
  5  2  1  0
  8  6  1  0
  1  9  1  0
  1 10  1  0
  1 11  1  0
  3 12  1  0
  3 13  1  0
  3 14  1  0
  5 15  1  0
  6 16  1  0
  7 17  1  0
  7 18  1  0
  8 19  1  0
  8 20  1  0
M  END
