
     RDKit          3D

 19 19  0  0  0  0  0  0  0  0999 V2000
   -1.5777    1.2287   -0.1120 C   0  0  0  0  0  0  0  0  0  0  0  0
   -0.7229    0.0077   -0.2545 C   0  0  0  0  0  0  0  0  0  0  0  0
   -0.4581   -0.4170   -1.5286 O   0  0  0  0  0  0  0  0  0  0  0  0
   -1.1918   -1.1892    0.5848 C   0  0  0  0  0  0  0  0  0  0  0  0
    0.1808   -1.4376    0.8247 O   0  0  0  0  0  0  0  0  0  0  0  0
    0.3710   -0.0746    0.7474 C   0  0  0  0  0  0  0  0  0  0  0  0
    1.7250    0.3963    0.3363 C   0  0  0  0  0  0  0  0  0  0  0  0
    2.2976   -0.3196   -0.8007 C   0  0  0  0  0  0  0  0  0  0  0  0
    3.3918   -0.0193   -1.2177 O   0  0  0  0  0  0  0  0  0  0  0  0
   -1.7494    1.6869   -1.1083 H   0  0  0  0  0  0  0  0  0  0  0  0
   -1.0365    1.9664    0.5282 H   0  0  0  0  0  0  0  0  0  0  0  0
   -2.5037    0.9529    0.4155 H   0  0  0  0  0  0  0  0  0  0  0  0
   -1.1665   -1.0966   -1.7718 H   0  0  0  0  0  0  0  0  0  0  0  0
   -1.7033   -0.8849    1.5291 H   0  0  0  0  0  0  0  0  0  0  0  0
   -1.7030   -1.9739    0.0104 H   0  0  0  0  0  0  0  0  0  0  0  0
    0.0627    0.4494    1.6931 H   0  0  0  0  0  0  0  0  0  0  0  0
    1.6405    1.5085    0.1528 H   0  0  0  0  0  0  0  0  0  0  0  0
    2.3842    0.3309    1.2488 H   0  0  0  0  0  0  0  0  0  0  0  0
    1.7593   -1.1151   -1.2774 H   0  0  0  0  0  0  0  0  0  0  0  0
  1  2  1  0
  2  3  1  0
  2  4  1  0
  4  5  1  0
  5  6  1  0
  6  7  1  0
  7  8  1  0
  8  9  2  0
  6  2  1  0
  1 10  1  0
  1 11  1  0
  1 12  1  0
  3 13  1  0
  4 14  1  0
  4 15  1  0
  6 16  1  0
  7 17  1  0
  7 18  1  0
  8 19  1  0
M  END
