
     RDKit          3D

 19 19  0  0  0  0  0  0  0  0999 V2000
   -0.9499   -1.1146   -1.3372 C   0  0  0  0  0  0  0  0  0  0  0  0
   -0.3072   -0.2639   -0.2232 C   0  0  0  0  0  0  0  0  0  0  0  0
    1.0695   -0.7027    0.1223 C   0  0  0  0  0  0  0  0  0  0  0  0
    1.8259   -0.5743   -1.0759 O   0  0  0  0  0  0  0  0  0  0  0  0
    1.7349    0.0031    1.2121 C   0  0  0  0  0  0  0  0  0  0  0  0
    1.3500    0.0116    2.3598 O   0  0  0  0  0  0  0  0  0  0  0  0
   -0.4026    1.2604   -0.4481 C   0  0  0  0  0  0  0  0  0  0  0  0
   -1.2131    0.5280    0.5886 C   0  0  0  0  0  0  0  0  0  0  0  0
   -1.0352    0.8707    1.9117 O   0  0  0  0  0  0  0  0  0  0  0  0
   -0.4419   -2.0880   -1.4303 H   0  0  0  0  0  0  0  0  0  0  0  0
   -1.9977   -1.3151   -1.0172 H   0  0  0  0  0  0  0  0  0  0  0  0
   -0.9908   -0.5438   -2.2777 H   0  0  0  0  0  0  0  0  0  0  0  0
    1.1305   -1.8039    0.3526 H   0  0  0  0  0  0  0  0  0  0  0  0
    2.2124    0.3472   -1.0681 H   0  0  0  0  0  0  0  0  0  0  0  0
    2.6481    0.5742    1.0119 H   0  0  0  0  0  0  0  0  0  0  0  0
    0.4098    1.8938   -0.0215 H   0  0  0  0  0  0  0  0  0  0  0  0
   -0.8536    1.5556   -1.4000 H   0  0  0  0  0  0  0  0  0  0  0  0
   -2.3090    0.4653    0.3070 H   0  0  0  0  0  0  0  0  0  0  0  0
   -1.8799    0.8965    2.4333 H   0  0  0  0  0  0  0  0  0  0  0  0
  1  2  1  0
  2  3  1  0
  3  4  1  0
  3  5  1  0
  5  6  2  0
  2  7  1  0
  7  8  1  0
  8  9  1  0
  8  2  1  0
  1 10  1  0
  1 11  1  0
  1 12  1  0
  3 13  1  0
  4 14  1  0
  5 15  1  0
  7 16  1  0
  7 17  1  0
  8 18  1  0
  9 19  1  0
M  END
