
     RDKit          3D

 21 21  0  0  0  0  0  0  0  0999 V2000
   -2.3233   -1.1984   -0.1699 C   0  0  0  0  0  0  0  0  0  0  0  0
   -1.2234   -0.1480   -0.0864 C   0  0  0  0  0  0  0  0  0  0  0  0
    0.1633   -0.7098   -0.1694 C   0  0  0  0  0  0  0  0  0  0  0  0
    1.1288    0.2902   -0.0882 O   0  0  0  0  0  0  0  0  0  0  0  0
    2.3912   -0.2873   -0.1705 C   0  0  0  0  0  0  0  0  0  0  0  0
    3.4266    0.7782   -0.0841 C   0  0  0  0  0  0  0  0  0  0  0  0
    3.0913    1.9613    0.0406 O   0  0  0  0  0  0  0  0  0  0  0  0
   -1.3707    0.8904    1.0399 C   0  0  0  0  0  0  0  0  0  0  0  0
   -1.5483    1.2356   -0.4184 C   0  0  0  0  0  0  0  0  0  0  0  0
   -1.9247   -2.1905    0.0473 H   0  0  0  0  0  0  0  0  0  0  0  0
   -2.7026   -1.1653   -1.2251 H   0  0  0  0  0  0  0  0  0  0  0  0
   -3.1552   -0.8774    0.4757 H   0  0  0  0  0  0  0  0  0  0  0  0
    0.3073   -1.3390    0.7575 H   0  0  0  0  0  0  0  0  0  0  0  0
    0.3265   -1.3800   -1.0203 H   0  0  0  0  0  0  0  0  0  0  0  0
    2.5536   -1.0415    0.6413 H   0  0  0  0  0  0  0  0  0  0  0  0
    2.5584   -0.8218   -1.1271 H   0  0  0  0  0  0  0  0  0  0  0  0
    4.4766    0.5669   -0.1256 H   0  0  0  0  0  0  0  0  0  0  0  0
   -2.2414    0.7459    1.6914 H   0  0  0  0  0  0  0  0  0  0  0  0
   -0.4686    1.3077    1.4913 H   0  0  0  0  0  0  0  0  0  0  0  0
   -2.6138    1.4459   -0.6800 H   0  0  0  0  0  0  0  0  0  0  0  0
   -0.8517    1.9368   -0.9095 H   0  0  0  0  0  0  0  0  0  0  0  0
  1  2  1  0
  2  3  1  0
  3  4  1  0
  4  5  1  0
  5  6  1  0
  6  7  2  0
  2  8  1  0
  8  9  1  0
  9  2  1  0
  1 10  1  0
  1 11  1  0
  1 12  1  0
  3 13  1  0
  3 14  1  0
  5 15  1  0
  5 16  1  0
  6 17  1  0
  8 18  1  0
  8 19  1  0
  9 20  1  0
  9 21  1  0
M  END
