
     RDKit          3D

 21 23  0  0  0  0  0  0  0  0999 V2000
    1.2958   -0.9082   -1.1282 C   0  0  0  0  0  0  0  0  0  0  0  0
    1.0526    0.0305    0.0263 C   0  0  0  0  0  0  0  0  0  0  0  0
    2.2921    0.8388    0.3827 C   0  0  0  0  0  0  0  0  0  0  0  0
    0.1768   -0.3428    1.1553 C   0  0  0  0  0  0  0  0  0  0  0  0
   -1.1940   -0.8897    0.9733 C   0  0  0  0  0  0  0  0  0  0  0  0
   -1.4750    0.0074   -0.1663 C   0  0  0  0  0  0  0  0  0  0  0  0
   -2.6286    0.5016   -0.6912 C   0  0  0  0  0  0  0  0  0  0  0  0
   -1.7881   -0.4287   -1.4186 O   0  0  0  0  0  0  0  0  0  0  0  0
   -0.2198    0.7660    0.1296 C   0  0  0  0  0  0  0  0  0  0  0  0
    0.4030   -1.2029   -1.6693 H   0  0  0  0  0  0  0  0  0  0  0  0
    1.8164   -1.8061   -0.7527 H   0  0  0  0  0  0  0  0  0  0  0  0
    1.9838   -0.4228   -1.8473 H   0  0  0  0  0  0  0  0  0  0  0  0
    1.9986    1.5166    1.1995 H   0  0  0  0  0  0  0  0  0  0  0  0
    3.1279    0.1696    0.6259 H   0  0  0  0  0  0  0  0  0  0  0  0
    2.5083    1.4962   -0.5068 H   0  0  0  0  0  0  0  0  0  0  0  0
    0.4611   -0.0129    2.1571 H   0  0  0  0  0  0  0  0  0  0  0  0
   -1.2859   -1.9797    0.8173 H   0  0  0  0  0  0  0  0  0  0  0  0
   -1.8568   -0.6187    1.8467 H   0  0  0  0  0  0  0  0  0  0  0  0
   -2.6856    1.4553   -1.2519 H   0  0  0  0  0  0  0  0  0  0  0  0
   -3.6513    0.0858   -0.4696 H   0  0  0  0  0  0  0  0  0  0  0  0
   -0.3315    1.7446    0.5879 H   0  0  0  0  0  0  0  0  0  0  0  0
  1  2  1  0
  2  3  1  0
  2  4  1  0
  4  5  1  0
  5  6  1  0
  6  7  1  0
  7  8  1  0
  6  9  1  0
  9  2  1  0
  9  4  1  0
  8  6  1  0
  1 10  1  0
  1 11  1  0
  1 12  1  0
  3 13  1  0
  3 14  1  0
  3 15  1  0
  4 16  1  0
  5 17  1  0
  5 18  1  0
  7 19  1  0
  7 20  1  0
  9 21  1  0
M  END
