
     RDKit          3D

 21 21  0  0  0  0  0  0  0  0999 V2000
   -1.0863    1.4057    0.2712 C   0  0  0  0  0  0  0  0  0  0  0  0
   -1.4367    0.1296   -0.4343 C   0  0  0  0  0  0  0  0  0  0  0  0
   -2.2771    0.2686   -1.6865 C   0  0  0  0  0  0  0  0  0  0  0  0
   -1.5092   -1.0830    0.3976 C   0  0  0  0  0  0  0  0  0  0  0  0
   -0.3855   -0.9638   -0.5362 C   0  0  0  0  0  0  0  0  0  0  0  0
    0.9110   -0.5692    0.0276 C   0  0  0  0  0  0  0  0  0  0  0  0
    1.9656   -0.2380    0.4950 C   0  0  0  0  0  0  0  0  0  0  0  0
    3.2487    0.1798    1.0493 C   0  0  0  0  0  0  0  0  0  0  0  0
    4.0400   -0.9101    1.4066 O   0  0  0  0  0  0  0  0  0  0  0  0
    0.0031    1.5805    0.1084 H   0  0  0  0  0  0  0  0  0  0  0  0
   -1.3002    1.2946    1.3410 H   0  0  0  0  0  0  0  0  0  0  0  0
   -1.6715    2.2659   -0.1666 H   0  0  0  0  0  0  0  0  0  0  0  0
   -1.7123    0.9669   -2.3669 H   0  0  0  0  0  0  0  0  0  0  0  0
   -3.2359    0.7701   -1.4818 H   0  0  0  0  0  0  0  0  0  0  0  0
   -2.3667   -0.6748   -2.2402 H   0  0  0  0  0  0  0  0  0  0  0  0
   -1.3690   -0.9945    1.5108 H   0  0  0  0  0  0  0  0  0  0  0  0
   -2.3562   -1.7808    0.1699 H   0  0  0  0  0  0  0  0  0  0  0  0
   -0.3938   -1.6311   -1.4201 H   0  0  0  0  0  0  0  0  0  0  0  0
    3.1195    0.8356    1.9132 H   0  0  0  0  0  0  0  0  0  0  0  0
    3.8014    0.7843    0.2705 H   0  0  0  0  0  0  0  0  0  0  0  0
    4.0110   -1.6362    0.7360 H   0  0  0  0  0  0  0  0  0  0  0  0
  1  2  1  0
  2  3  1  0
  2  4  1  0
  4  5  1  0
  5  6  1  0
  6  7  3  0
  7  8  1  0
  8  9  1  0
  5  2  1  0
  1 10  1  0
  1 11  1  0
  1 12  1  0
  3 13  1  0
  3 14  1  0
  3 15  1  0
  4 16  1  0
  4 17  1  0
  5 18  1  0
  8 19  1  0
  8 20  1  0
  9 21  1  0
M  END
