
     RDKit          3D

 22 22  0  0  0  0  0  0  0  0999 V2000
    1.8304   -0.0269    0.9576 C   0  0  0  0  0  0  0  0  0  0  0  0
    0.6070   -0.1269    0.0544 C   0  0  0  0  0  0  0  0  0  0  0  0
    1.0985   -0.1221   -1.3622 C   0  0  0  0  0  0  0  0  0  0  0  0
   -0.2121   -1.3382    0.3975 C   0  0  0  0  0  0  0  0  0  0  0  0
   -1.5659   -0.9786   -0.1911 C   0  0  0  0  0  0  0  0  0  0  0  0
   -1.7332    0.4476    0.3307 C   0  0  0  0  0  0  0  0  0  0  0  0
   -0.3392    1.0183    0.2489 C   0  0  0  0  0  0  0  0  0  0  0  0
   -0.3207    1.8875   -0.8478 O   0  0  0  0  0  0  0  0  0  0  0  0
    1.7466    0.8271    1.6700 H   0  0  0  0  0  0  0  0  0  0  0  0
    2.7588    0.1638    0.3753 H   0  0  0  0  0  0  0  0  0  0  0  0
    1.9574   -0.9658    1.5361 H   0  0  0  0  0  0  0  0  0  0  0  0
    1.9090    0.6534   -1.4196 H   0  0  0  0  0  0  0  0  0  0  0  0
    1.5870   -1.0755   -1.6654 H   0  0  0  0  0  0  0  0  0  0  0  0
    0.3305    0.1965   -2.0971 H   0  0  0  0  0  0  0  0  0  0  0  0
    0.1825   -2.2796   -0.0034 H   0  0  0  0  0  0  0  0  0  0  0  0
   -0.3475   -1.3501    1.5035 H   0  0  0  0  0  0  0  0  0  0  0  0
   -1.5531   -0.9482   -1.2910 H   0  0  0  0  0  0  0  0  0  0  0  0
   -2.3805   -1.5994    0.1981 H   0  0  0  0  0  0  0  0  0  0  0  0
   -2.1074    0.3821    1.3795 H   0  0  0  0  0  0  0  0  0  0  0  0
   -2.4425    0.9429   -0.3531 H   0  0  0  0  0  0  0  0  0  0  0  0
   -0.1185    1.6250    1.1498 H   0  0  0  0  0  0  0  0  0  0  0  0
   -0.8871    2.6671   -0.5707 H   0  0  0  0  0  0  0  0  0  0  0  0
  1  2  1  0
  2  3  1  0
  2  4  1  0
  4  5  1  0
  5  6  1  0
  6  7  1  0
  7  8  1  0
  7  2  1  0
  1  9  1  0
  1 10  1  0
  1 11  1  0
  3 12  1  0
  3 13  1  0
  3 14  1  0
  4 15  1  0
  4 16  1  0
  5 17  1  0
  5 18  1  0
  6 19  1  0
  6 20  1  0
  7 21  1  0
  8 22  1  0
M  END
