
     RDKit          3D

 21 22  0  0  0  0  0  0  0  0999 V2000
    1.0376    1.4539    0.1717 C   0  0  0  0  0  0  0  0  0  0  0  0
    0.5742    0.0491   -0.0162 C   0  0  0  0  0  0  0  0  0  0  0  0
    1.6818   -0.9209    0.2304 C   0  0  0  0  0  0  0  0  0  0  0  0
   -0.1544   -0.0977   -1.3364 C   0  0  0  0  0  0  0  0  0  0  0  0
   -0.8930   -1.2574   -0.6556 C   0  0  0  0  0  0  0  0  0  0  0  0
   -0.7723   -0.3077    0.5496 C   0  0  0  0  0  0  0  0  0  0  0  0
   -0.9108   -0.7918    1.7622 O   0  0  0  0  0  0  0  0  0  0  0  0
   -1.6410    0.7919    0.0173 C   0  0  0  0  0  0  0  0  0  0  0  0
   -1.0881    0.9109   -1.2831 O   0  0  0  0  0  0  0  0  0  0  0  0
    0.2791    2.2233    0.0296 H   0  0  0  0  0  0  0  0  0  0  0  0
    1.8460    1.6309   -0.5986 H   0  0  0  0  0  0  0  0  0  0  0  0
    1.5881    1.5538    1.1536 H   0  0  0  0  0  0  0  0  0  0  0  0
    2.3970   -0.8969   -0.6329 H   0  0  0  0  0  0  0  0  0  0  0  0
    1.3700   -1.9223    0.5175 H   0  0  0  0  0  0  0  0  0  0  0  0
    2.2807   -0.5115    1.0934 H   0  0  0  0  0  0  0  0  0  0  0  0
    0.3905   -0.3042   -2.2136 H   0  0  0  0  0  0  0  0  0  0  0  0
   -0.3350   -2.1784   -0.5750 H   0  0  0  0  0  0  0  0  0  0  0  0
   -1.9220   -1.3023   -1.0707 H   0  0  0  0  0  0  0  0  0  0  0  0
   -1.4313   -0.2090    2.3652 H   0  0  0  0  0  0  0  0  0  0  0  0
   -2.6758    0.3697   -0.0797 H   0  0  0  0  0  0  0  0  0  0  0  0
   -1.6213    1.7165    0.5712 H   0  0  0  0  0  0  0  0  0  0  0  0
  1  2  1  0
  2  3  1  0
  2  4  1  0
  4  5  1  0
  5  6  1  0
  6  7  1  0
  6  8  1  0
  8  9  1  0
  6  2  1  0
  9  4  1  0
  1 10  1  0
  1 11  1  0
  1 12  1  0
  3 13  1  0
  3 14  1  0
  3 15  1  0
  4 16  1  0
  5 17  1  0
  5 18  1  0
  7 19  1  0
  8 20  1  0
  8 21  1  0
M  END
