
     RDKit          3D

 21 22  0  0  0  0  0  0  0  0999 V2000
    1.4311   -1.3607    0.4649 C   0  0  0  0  0  0  0  0  0  0  0  0
    0.7805   -0.0872   -0.0344 C   0  0  0  0  0  0  0  0  0  0  0  0
    1.8280    1.0199   -0.0518 C   0  0  0  0  0  0  0  0  0  0  0  0
    0.1764   -0.2784   -1.3761 C   0  0  0  0  0  0  0  0  0  0  0  0
   -1.0466    0.2070   -1.4191 C   0  0  0  0  0  0  0  0  0  0  0  0
   -1.4593    0.7988   -0.1208 C   0  0  0  0  0  0  0  0  0  0  0  0
   -2.3750   -0.1231    0.6486 C   0  0  0  0  0  0  0  0  0  0  0  0
   -1.2124   -0.8041    1.0709 O   0  0  0  0  0  0  0  0  0  0  0  0
   -0.4009    0.2961    0.8140 C   0  0  0  0  0  0  0  0  0  0  0  0
    0.9064   -1.7621    1.3663 H   0  0  0  0  0  0  0  0  0  0  0  0
    1.3493   -2.1321   -0.3382 H   0  0  0  0  0  0  0  0  0  0  0  0
    2.5016   -1.2050    0.6887 H   0  0  0  0  0  0  0  0  0  0  0  0
    1.4977    1.8838   -0.6534 H   0  0  0  0  0  0  0  0  0  0  0  0
    2.0536    1.2616    0.9972 H   0  0  0  0  0  0  0  0  0  0  0  0
    2.7264    0.6005   -0.5579 H   0  0  0  0  0  0  0  0  0  0  0  0
    0.6659   -0.7626   -2.2472 H   0  0  0  0  0  0  0  0  0  0  0  0
   -1.6721    0.1643   -2.3331 H   0  0  0  0  0  0  0  0  0  0  0  0
   -1.6825    1.8600   -0.1001 H   0  0  0  0  0  0  0  0  0  0  0  0
   -2.9064    0.3024    1.4979 H   0  0  0  0  0  0  0  0  0  0  0  0
   -2.9666   -0.8342    0.0136 H   0  0  0  0  0  0  0  0  0  0  0  0
   -0.1951    0.9549    1.6701 H   0  0  0  0  0  0  0  0  0  0  0  0
  1  2  1  0
  2  3  1  0
  2  4  1  0
  4  5  2  0
  5  6  1  0
  6  7  1  0
  7  8  1  0
  8  9  1  0
  9  2  1  0
  9  6  1  0
  1 10  1  0
  1 11  1  0
  1 12  1  0
  3 13  1  0
  3 14  1  0
  3 15  1  0
  4 16  1  0
  5 17  1  0
  6 18  1  0
  7 19  1  0
  7 20  1  0
  9 21  1  0
M  END
