
     RDKit          3D

 27 27  0  0  0  0  0  0  0  0999 V2000
   -2.0993   -0.5273   -1.3199 C   0  0  0  0  0  0  0  0  0  0  0  0
   -1.2411    0.0087   -0.2051 C   0  0  0  0  0  0  0  0  0  0  0  0
   -1.9667    0.9873    0.6811 C   0  0  0  0  0  0  0  0  0  0  0  0
   -0.6925   -1.1749    0.5500 C   0  0  0  0  0  0  0  0  0  0  0  0
    0.6026   -0.6918    1.1208 C   0  0  0  0  0  0  0  0  0  0  0  0
    1.1770    0.1105   -0.0448 C   0  0  0  0  0  0  0  0  0  0  0  0
    2.1168    1.1264    0.5577 C   0  0  0  0  0  0  0  0  0  0  0  0
    1.9331   -0.7441   -1.0105 C   0  0  0  0  0  0  0  0  0  0  0  0
   -0.0035    0.7281   -0.7317 C   0  0  0  0  0  0  0  0  0  0  0  0
   -1.4738   -0.9056   -2.1421 H   0  0  0  0  0  0  0  0  0  0  0  0
   -2.6239   -1.4322   -0.9017 H   0  0  0  0  0  0  0  0  0  0  0  0
   -2.8604    0.1704   -1.6747 H   0  0  0  0  0  0  0  0  0  0  0  0
   -1.2378    1.4060    1.3910 H   0  0  0  0  0  0  0  0  0  0  0  0
   -2.7989    0.5333    1.2358 H   0  0  0  0  0  0  0  0  0  0  0  0
   -2.3063    1.8192    0.0395 H   0  0  0  0  0  0  0  0  0  0  0  0
   -0.4291   -1.9446   -0.2347 H   0  0  0  0  0  0  0  0  0  0  0  0
   -1.3864   -1.6085    1.2719 H   0  0  0  0  0  0  0  0  0  0  0  0
    1.3247   -1.5062    1.3502 H   0  0  0  0  0  0  0  0  0  0  0  0
    0.4641   -0.0149    1.9801 H   0  0  0  0  0  0  0  0  0  0  0  0
    2.5277    0.7263    1.5270 H   0  0  0  0  0  0  0  0  0  0  0  0
    3.0144    1.2788   -0.0843 H   0  0  0  0  0  0  0  0  0  0  0  0
    1.5642    2.0536    0.7679 H   0  0  0  0  0  0  0  0  0  0  0  0
    1.9910   -0.1919   -1.9765 H   0  0  0  0  0  0  0  0  0  0  0  0
    1.4842   -1.7258   -1.2078 H   0  0  0  0  0  0  0  0  0  0  0  0
    2.9737   -0.8877   -0.6215 H   0  0  0  0  0  0  0  0  0  0  0  0
   -0.0085    0.5899   -1.8290 H   0  0  0  0  0  0  0  0  0  0  0  0
   -0.0452    1.8166   -0.5519 H   0  0  0  0  0  0  0  0  0  0  0  0
  1  2  1  0
  2  3  1  0
  2  4  1  0
  4  5  1  0
  5  6  1  0
  6  7  1  0
  6  8  1  0
  6  9  1  0
  9  2  1  0
  1 10  1  0
  1 11  1  0
  1 12  1  0
  3 13  1  0
  3 14  1  0
  3 15  1  0
  4 16  1  0
  4 17  1  0
  5 18  1  0
  5 19  1  0
  7 20  1  0
  7 21  1  0
  7 22  1  0
  8 23  1  0
  8 24  1  0
  8 25  1  0
  9 26  1  0
  9 27  1  0
M  END
