
     RDKit          3D

 22 23  0  0  0  0  0  0  0  0999 V2000
    1.3015    1.4498   -0.4397 C   0  0  0  0  0  0  0  0  0  0  0  0
    0.6202    0.2315    0.0684 C   0  0  0  0  0  0  0  0  0  0  0  0
    1.6270   -0.7103    0.6522 C   0  0  0  0  0  0  0  0  0  0  0  0
   -0.4914    0.5671    1.0838 C   0  0  0  0  0  0  0  0  0  0  0  0
   -1.6443   -0.1224    0.4393 C   0  0  0  0  0  0  0  0  0  0  0  0
   -1.0084   -1.4370   -0.0171 C   0  0  0  0  0  0  0  0  0  0  0  0
   -0.2038   -0.5003   -0.9360 C   0  0  0  0  0  0  0  0  0  0  0  0
   -1.5090    0.2783   -1.0273 C   0  0  0  0  0  0  0  0  0  0  0  0
    1.3137    2.2075    0.3912 H   0  0  0  0  0  0  0  0  0  0  0  0
    0.8694    1.9163   -1.3158 H   0  0  0  0  0  0  0  0  0  0  0  0
    2.3837    1.2157   -0.6554 H   0  0  0  0  0  0  0  0  0  0  0  0
    2.6637   -0.4020    0.3435 H   0  0  0  0  0  0  0  0  0  0  0  0
    1.5177   -1.7490    0.2230 H   0  0  0  0  0  0  0  0  0  0  0  0
    1.5846   -0.8204    1.7351 H   0  0  0  0  0  0  0  0  0  0  0  0
   -0.2293    0.1978    2.0809 H   0  0  0  0  0  0  0  0  0  0  0  0
   -0.6806    1.6590    1.0450 H   0  0  0  0  0  0  0  0  0  0  0  0
   -2.6031   -0.1488    0.8754 H   0  0  0  0  0  0  0  0  0  0  0  0
   -0.4360   -1.8715    0.8004 H   0  0  0  0  0  0  0  0  0  0  0  0
   -1.6630   -2.0828   -0.6036 H   0  0  0  0  0  0  0  0  0  0  0  0
    0.2136   -0.9119   -1.8127 H   0  0  0  0  0  0  0  0  0  0  0  0
   -1.4275    1.3376   -1.2267 H   0  0  0  0  0  0  0  0  0  0  0  0
   -2.1987   -0.3041   -1.7040 H   0  0  0  0  0  0  0  0  0  0  0  0
  1  2  1  0
  2  3  1  0
  2  4  1  0
  4  5  1  0
  5  6  1  0
  6  7  1  0
  7  8  1  0
  7  2  1  0
  8  5  1  0
  1  9  1  0
  1 10  1  0
  1 11  1  0
  3 12  1  0
  3 13  1  0
  3 14  1  0
  4 15  1  0
  4 16  1  0
  5 17  1  0
  6 18  1  0
  6 19  1  0
  7 20  1  0
  8 21  1  0
  8 22  1  0
M  END
