
     RDKit          3D

 19 20  0  0  0  0  0  0  0  0999 V2000
    1.9242   -0.6693    0.1927 C   0  0  0  0  0  0  0  0  0  0  0  0
    0.6958    0.1875    0.2391 C   0  0  0  0  0  0  0  0  0  0  0  0
    0.5742    1.0051    1.3317 O   0  0  0  0  0  0  0  0  0  0  0  0
    0.3061    0.8598   -1.0336 C   0  0  0  0  0  0  0  0  0  0  0  0
    0.0349   -0.4128   -1.5263 O   0  0  0  0  0  0  0  0  0  0  0  0
   -0.5574   -0.4637   -0.2707 C   0  0  0  0  0  0  0  0  0  0  0  0
   -1.2043   -1.5475    0.2922 C   0  0  0  0  0  0  0  0  0  0  0  0
   -1.0972    0.8886   -0.5455 C   0  0  0  0  0  0  0  0  0  0  0  0
   -1.3700    1.6220    0.5852 O   0  0  0  0  0  0  0  0  0  0  0  0
    2.8104   -0.0384    0.3693 H   0  0  0  0  0  0  0  0  0  0  0  0
    1.9512   -1.1684   -0.7911 H   0  0  0  0  0  0  0  0  0  0  0  0
    1.8306   -1.4938    0.9528 H   0  0  0  0  0  0  0  0  0  0  0  0
    1.0008    1.8801    1.1605 H   0  0  0  0  0  0  0  0  0  0  0  0
    0.8090    1.5881   -1.5207 H   0  0  0  0  0  0  0  0  0  0  0  0
   -0.5182   -2.1601    0.9485 H   0  0  0  0  0  0  0  0  0  0  0  0
   -1.5529   -2.2940   -0.4816 H   0  0  0  0  0  0  0  0  0  0  0  0
   -2.0525   -1.2770    0.9534 H   0  0  0  0  0  0  0  0  0  0  0  0
   -1.9007    0.9667   -1.2889 H   0  0  0  0  0  0  0  0  0  0  0  0
   -1.6841    2.5270    0.4333 H   0  0  0  0  0  0  0  0  0  0  0  0
  1  2  1  0
  2  3  1  0
  2  4  1  0
  4  5  1  0
  5  6  1  0
  6  7  1  0
  6  8  1  0
  8  9  1  0
  6  2  1  0
  8  4  1  0
  1 10  1  0
  1 11  1  0
  1 12  1  0
  3 13  1  0
  4 14  1  0
  7 15  1  0
  7 16  1  0
  7 17  1  0
  8 18  1  0
  9 19  1  0
M  END
