
     RDKit          3D

 23 24  0  0  0  0  0  0  0  0999 V2000
   -1.8907    0.3407    1.1494 C   0  0  0  0  0  0  0  0  0  0  0  0
   -0.8178    0.0028    0.1627 C   0  0  0  0  0  0  0  0  0  0  0  0
   -1.3663   -0.9527   -0.8670 C   0  0  0  0  0  0  0  0  0  0  0  0
   -0.0136    1.1468   -0.3822 C   0  0  0  0  0  0  0  0  0  0  0  0
    0.9868    0.4653   -1.2792 C   0  0  0  0  0  0  0  0  0  0  0  0
    1.3772   -0.7136   -0.3686 C   0  0  0  0  0  0  0  0  0  0  0  0
    2.7290   -0.6509   -0.0319 O   0  0  0  0  0  0  0  0  0  0  0  0
    0.4863   -0.3968    0.8011 C   0  0  0  0  0  0  0  0  0  0  0  0
    0.7681    1.1072    0.9345 C   0  0  0  0  0  0  0  0  0  0  0  0
   -2.1504   -0.6216    1.6817 H   0  0  0  0  0  0  0  0  0  0  0  0
   -1.6324    1.0575    1.9163 H   0  0  0  0  0  0  0  0  0  0  0  0
   -2.8037    0.6728    0.6135 H   0  0  0  0  0  0  0  0  0  0  0  0
   -2.1691   -0.4098   -1.4318 H   0  0  0  0  0  0  0  0  0  0  0  0
   -0.6523   -1.3074   -1.6009 H   0  0  0  0  0  0  0  0  0  0  0  0
   -1.8351   -1.8086   -0.3832 H   0  0  0  0  0  0  0  0  0  0  0  0
   -0.4711    2.0512   -0.6690 H   0  0  0  0  0  0  0  0  0  0  0  0
    1.8805    1.1211   -1.3480 H   0  0  0  0  0  0  0  0  0  0  0  0
    0.6136    0.1534   -2.2416 H   0  0  0  0  0  0  0  0  0  0  0  0
    1.1924   -1.6791   -0.8244 H   0  0  0  0  0  0  0  0  0  0  0  0
    3.1228   -1.5799    0.0098 H   0  0  0  0  0  0  0  0  0  0  0  0
    0.5020   -0.9858    1.6752 H   0  0  0  0  0  0  0  0  0  0  0  0
    0.3230    1.6042    1.7764 H   0  0  0  0  0  0  0  0  0  0  0  0
    1.8205    1.3831    0.7074 H   0  0  0  0  0  0  0  0  0  0  0  0
  1  2  1  0
  2  3  1  0
  2  4  1  0
  4  5  1  0
  5  6  1  0
  6  7  1  0
  6  8  1  0
  8  9  1  0
  8  2  1  0
  9  4  1  0
  1 10  1  0
  1 11  1  0
  1 12  1  0
  3 13  1  0
  3 14  1  0
  3 15  1  0
  4 16  1  0
  5 17  1  0
  5 18  1  0
  6 19  1  0
  7 20  1  0
  8 21  1  0
  9 22  1  0
  9 23  1  0
M  END
