
     RDKit          3D

 23 24  0  0  0  0  0  0  0  0999 V2000
   -1.2183   -1.7755    0.1666 C   0  0  0  0  0  0  0  0  0  0  0  0
   -0.5456   -0.4178    0.1551 C   0  0  0  0  0  0  0  0  0  0  0  0
    0.9245   -0.5689    0.4111 C   0  0  0  0  0  0  0  0  0  0  0  0
    1.7426    0.6733    0.4342 C   0  0  0  0  0  0  0  0  0  0  0  0
    2.5846   -0.0632   -0.5804 C   0  0  0  0  0  0  0  0  0  0  0  0
    1.6619   -1.1181   -0.6329 O   0  0  0  0  0  0  0  0  0  0  0  0
   -1.1951    0.6405    0.9836 C   0  0  0  0  0  0  0  0  0  0  0  0
   -1.6258    1.3894   -0.2542 C   0  0  0  0  0  0  0  0  0  0  0  0
   -0.9242    0.3497   -1.0827 C   0  0  0  0  0  0  0  0  0  0  0  0
   -1.3011   -2.0971   -0.9048 H   0  0  0  0  0  0  0  0  0  0  0  0
   -0.5921   -2.5535    0.6570 H   0  0  0  0  0  0  0  0  0  0  0  0
   -2.2253   -1.7510    0.6158 H   0  0  0  0  0  0  0  0  0  0  0  0
    1.0802   -1.1754    1.3282 H   0  0  0  0  0  0  0  0  0  0  0  0
    1.2791    1.6059    0.1022 H   0  0  0  0  0  0  0  0  0  0  0  0
    2.3536    0.8333    1.3572 H   0  0  0  0  0  0  0  0  0  0  0  0
    3.5521   -0.4415   -0.2082 H   0  0  0  0  0  0  0  0  0  0  0  0
    2.6518    0.4923   -1.5438 H   0  0  0  0  0  0  0  0  0  0  0  0
   -2.0498    0.3623    1.5972 H   0  0  0  0  0  0  0  0  0  0  0  0
   -0.4478    1.2383    1.5502 H   0  0  0  0  0  0  0  0  0  0  0  0
   -1.2148    2.4157   -0.3302 H   0  0  0  0  0  0  0  0  0  0  0  0
   -2.7300    1.4403   -0.3876 H   0  0  0  0  0  0  0  0  0  0  0  0
   -1.6712   -0.1683   -1.7331 H   0  0  0  0  0  0  0  0  0  0  0  0
   -0.0891    0.6894   -1.7006 H   0  0  0  0  0  0  0  0  0  0  0  0
  1  2  1  0
  2  3  1  0
  3  4  1  0
  4  5  1  0
  5  6  1  0
  2  7  1  0
  7  8  1  0
  8  9  1  0
  9  2  1  0
  6  3  1  0
  1 10  1  0
  1 11  1  0
  1 12  1  0
  3 13  1  0
  4 14  1  0
  4 15  1  0
  5 16  1  0
  5 17  1  0
  7 18  1  0
  7 19  1  0
  8 20  1  0
  8 21  1  0
  9 22  1  0
  9 23  1  0
M  END
