
     RDKit          3D

 23 23  0  0  0  0  0  0  0  0999 V2000
    1.7735   -0.0689   -1.2190 C   0  0  0  0  0  0  0  0  0  0  0  0
    0.9513   -0.1627    0.0093 C   0  0  0  0  0  0  0  0  0  0  0  0
    1.4429   -1.1896    0.8451 O   0  0  0  0  0  0  0  0  0  0  0  0
    0.8626    1.1723    0.7371 C   0  0  0  0  0  0  0  0  0  0  0  0
   -0.6370    0.9390    0.8714 C   0  0  0  0  0  0  0  0  0  0  0  0
   -1.0558    0.6101    2.1494 O   0  0  0  0  0  0  0  0  0  0  0  0
   -0.5214   -0.1821   -0.1083 C   0  0  0  0  0  0  0  0  0  0  0  0
   -1.1283    0.1326   -1.4391 C   0  0  0  0  0  0  0  0  0  0  0  0
   -1.0986   -1.5194    0.3748 C   0  0  0  0  0  0  0  0  0  0  0  0
    2.1378    0.9803   -1.3797 H   0  0  0  0  0  0  0  0  0  0  0  0
    2.7164   -0.6797   -1.1502 H   0  0  0  0  0  0  0  0  0  0  0  0
    1.2853   -0.3734   -2.1498 H   0  0  0  0  0  0  0  0  0  0  0  0
    1.4309   -0.9279    1.7946 H   0  0  0  0  0  0  0  0  0  0  0  0
    1.4168    1.1247    1.6962 H   0  0  0  0  0  0  0  0  0  0  0  0
    1.1505    2.0093    0.0858 H   0  0  0  0  0  0  0  0  0  0  0  0
   -1.1769    1.8418    0.4789 H   0  0  0  0  0  0  0  0  0  0  0  0
   -1.7270    1.2803    2.4743 H   0  0  0  0  0  0  0  0  0  0  0  0
   -2.2248   -0.1340   -1.3622 H   0  0  0  0  0  0  0  0  0  0  0  0
   -1.1070    1.1995   -1.6982 H   0  0  0  0  0  0  0  0  0  0  0  0
   -0.7462   -0.5291   -2.2558 H   0  0  0  0  0  0  0  0  0  0  0  0
   -2.2127   -1.4575    0.3625 H   0  0  0  0  0  0  0  0  0  0  0  0
   -0.8489   -2.2433   -0.4514 H   0  0  0  0  0  0  0  0  0  0  0  0
   -0.6834   -1.8223    1.3343 H   0  0  0  0  0  0  0  0  0  0  0  0
  1  2  1  0
  2  3  1  0
  2  4  1  0
  4  5  1  0
  5  6  1  0
  5  7  1  0
  7  8  1  0
  7  9  1  0
  7  2  1  0
  1 10  1  0
  1 11  1  0
  1 12  1  0
  3 13  1  0
  4 14  1  0
  4 15  1  0
  5 16  1  0
  6 17  1  0
  8 18  1  0
  8 19  1  0
  8 20  1  0
  9 21  1  0
  9 22  1  0
  9 23  1  0
M  END
