
     RDKit          3D

 21 21  0  0  0  0  0  0  0  0999 V2000
   -2.4289    0.5626   -1.0497 C   0  0  0  0  0  0  0  0  0  0  0  0
   -1.3147   -0.1560   -0.3262 C   0  0  0  0  0  0  0  0  0  0  0  0
   -1.7404   -1.4156    0.0918 O   0  0  0  0  0  0  0  0  0  0  0  0
   -0.8805    0.5875    0.8727 C   0  0  0  0  0  0  0  0  0  0  0  0
    0.4149    0.3811    1.0407 C   0  0  0  0  0  0  0  0  0  0  0  0
    0.9561   -0.5176   -0.0337 C   0  0  0  0  0  0  0  0  0  0  0  0
    2.3215   -0.0564   -0.4316 C   0  0  0  0  0  0  0  0  0  0  0  0
    3.1727   -0.0941    0.6718 O   0  0  0  0  0  0  0  0  0  0  0  0
   -0.0745   -0.2937   -1.1371 C   0  0  0  0  0  0  0  0  0  0  0  0
   -2.6913    0.0172   -1.9559 H   0  0  0  0  0  0  0  0  0  0  0  0
   -3.3115    0.5453   -0.3753 H   0  0  0  0  0  0  0  0  0  0  0  0
   -2.1647    1.6206   -1.2086 H   0  0  0  0  0  0  0  0  0  0  0  0
   -1.0051   -1.9955    0.3455 H   0  0  0  0  0  0  0  0  0  0  0  0
   -1.5067    1.2175    1.5370 H   0  0  0  0  0  0  0  0  0  0  0  0
    1.0080    0.8092    1.8541 H   0  0  0  0  0  0  0  0  0  0  0  0
    0.9835   -1.5656    0.3055 H   0  0  0  0  0  0  0  0  0  0  0  0
    2.3573    0.9409   -0.8621 H   0  0  0  0  0  0  0  0  0  0  0  0
    2.7497   -0.7758   -1.1714 H   0  0  0  0  0  0  0  0  0  0  0  0
    3.1248    0.8052    1.0950 H   0  0  0  0  0  0  0  0  0  0  0  0
    0.1754    0.5860   -1.7492 H   0  0  0  0  0  0  0  0  0  0  0  0
   -0.1456   -1.2028   -1.7966 H   0  0  0  0  0  0  0  0  0  0  0  0
  1  2  1  0
  2  3  1  0
  2  4  1  0
  4  5  2  0
  5  6  1  0
  6  7  1  0
  7  8  1  0
  6  9  1  0
  9  2  1  0
  1 10  1  0
  1 11  1  0
  1 12  1  0
  3 13  1  0
  4 14  1  0
  5 15  1  0
  6 16  1  0
  7 17  1  0
  7 18  1  0
  8 19  1  0
  9 20  1  0
  9 21  1  0
M  END
