
     RDKit          3D

 21 21  0  0  0  0  0  0  0  0999 V2000
   -2.1251    1.2375   -0.5738 C   0  0  0  0  0  0  0  0  0  0  0  0
   -1.2338    0.1928    0.0064 C   0  0  0  0  0  0  0  0  0  0  0  0
   -1.7143   -1.2164   -0.2336 C   0  0  0  0  0  0  0  0  0  0  0  0
    0.1051    0.3148   -0.6805 C   0  0  0  0  0  0  0  0  0  0  0  0
    1.0681    0.1317    0.2105 C   0  0  0  0  0  0  0  0  0  0  0  0
    2.5161    0.1783   -0.0963 C   0  0  0  0  0  0  0  0  0  0  0  0
    3.1522   -1.0218    0.1989 O   0  0  0  0  0  0  0  0  0  0  0  0
    0.3912   -0.1149    1.5049 C   0  0  0  0  0  0  0  0  0  0  0  0
   -0.8856    0.4184    1.3251 O   0  0  0  0  0  0  0  0  0  0  0  0
   -1.6976    1.7304   -1.4826 H   0  0  0  0  0  0  0  0  0  0  0  0
   -3.1038    0.7713   -0.8596 H   0  0  0  0  0  0  0  0  0  0  0  0
   -2.2783    2.0357    0.1821 H   0  0  0  0  0  0  0  0  0  0  0  0
   -1.2843   -1.5869   -1.1863 H   0  0  0  0  0  0  0  0  0  0  0  0
   -1.2688   -1.8524    0.5755 H   0  0  0  0  0  0  0  0  0  0  0  0
   -2.8034   -1.2687   -0.2720 H   0  0  0  0  0  0  0  0  0  0  0  0
    0.2559    0.5177   -1.7253 H   0  0  0  0  0  0  0  0  0  0  0  0
    2.9872    0.9639    0.5624 H   0  0  0  0  0  0  0  0  0  0  0  0
    2.7219    0.4644   -1.1452 H   0  0  0  0  0  0  0  0  0  0  0  0
    3.9574   -1.1322   -0.3912 H   0  0  0  0  0  0  0  0  0  0  0  0
    0.3362   -1.1924    1.7627 H   0  0  0  0  0  0  0  0  0  0  0  0
    0.9038    0.4289    2.3177 H   0  0  0  0  0  0  0  0  0  0  0  0
  1  2  1  0
  2  3  1  0
  2  4  1  0
  4  5  2  0
  5  6  1  0
  6  7  1  0
  5  8  1  0
  8  9  1  0
  9  2  1  0
  1 10  1  0
  1 11  1  0
  1 12  1  0
  3 13  1  0
  3 14  1  0
  3 15  1  0
  4 16  1  0
  6 17  1  0
  6 18  1  0
  7 19  1  0
  8 20  1  0
  8 21  1  0
M  END
