
     RDKit          3D

 18 18  0  0  0  0  0  0  0  0999 V2000
   -1.0733   -0.8026   -0.9989 C   0  0  0  0  0  0  0  0  0  0  0  0
   -0.3940    0.0531    0.0445 C   0  0  0  0  0  0  0  0  0  0  0  0
   -1.2092    1.2566    0.3966 C   0  0  0  0  0  0  0  0  0  0  0  0
    0.9701    0.5237   -0.4062 C   0  0  0  0  0  0  0  0  0  0  0  0
    1.9002   -0.5055    0.1641 C   0  0  0  0  0  0  0  0  0  0  0  0
    1.1133   -1.4469    0.8697 O   0  0  0  0  0  0  0  0  0  0  0  0
   -0.0688   -0.8085    1.1929 C   0  0  0  0  0  0  0  0  0  0  0  0
   -0.6672   -1.0030    2.2895 O   0  0  0  0  0  0  0  0  0  0  0  0
   -1.8962   -1.3327   -0.5063 H   0  0  0  0  0  0  0  0  0  0  0  0
   -0.3445   -1.5746   -1.3279 H   0  0  0  0  0  0  0  0  0  0  0  0
   -1.4584   -0.1870   -1.8132 H   0  0  0  0  0  0  0  0  0  0  0  0
   -1.1405    1.9690   -0.4766 H   0  0  0  0  0  0  0  0  0  0  0  0
   -2.2746    1.0016    0.4957 H   0  0  0  0  0  0  0  0  0  0  0  0
   -0.7740    1.7781    1.2536 H   0  0  0  0  0  0  0  0  0  0  0  0
    1.0317    0.5986   -1.5137 H   0  0  0  0  0  0  0  0  0  0  0  0
    1.2224    1.5057    0.0817 H   0  0  0  0  0  0  0  0  0  0  0  0
    2.5999   -0.0646    0.9317 H   0  0  0  0  0  0  0  0  0  0  0  0
    2.4630   -0.9610   -0.6772 H   0  0  0  0  0  0  0  0  0  0  0  0
  1  2  1  0
  2  3  1  0
  2  4  1  0
  4  5  1  0
  5  6  1  0
  6  7  1  0
  7  8  2  0
  7  2  1  0
  1  9  1  0
  1 10  1  0
  1 11  1  0
  3 12  1  0
  3 13  1  0
  3 14  1  0
  4 15  1  0
  4 16  1  0
  5 17  1  0
  5 18  1  0
M  END
