
     RDKit          3D

 23 24  0  0  0  0  0  0  0  0999 V2000
    1.0629    1.0597   -1.1311 C   0  0  0  0  0  0  0  0  0  0  0  0
    0.6119    0.0753   -0.0446 C   0  0  0  0  0  0  0  0  0  0  0  0
    1.8431   -0.1333    0.8424 C   0  0  0  0  0  0  0  0  0  0  0  0
    0.2093   -1.2068   -0.6536 C   0  0  0  0  0  0  0  0  0  0  0  0
   -1.0244   -1.8310   -0.1002 C   0  0  0  0  0  0  0  0  0  0  0  0
   -2.0224   -0.9830    0.2426 O   0  0  0  0  0  0  0  0  0  0  0  0
   -1.7181    0.1506    0.8945 C   0  0  0  0  0  0  0  0  0  0  0  0
   -1.5481    1.3878   -0.0150 C   0  0  0  0  0  0  0  0  0  0  0  0
   -0.4215    0.7549    0.7814 C   0  0  0  0  0  0  0  0  0  0  0  0
    2.0398    0.7795   -1.5557 H   0  0  0  0  0  0  0  0  0  0  0  0
    0.2895    1.2367   -1.8790 H   0  0  0  0  0  0  0  0  0  0  0  0
    1.2259    2.0316   -0.6017 H   0  0  0  0  0  0  0  0  0  0  0  0
    2.4115    0.8107    0.9154 H   0  0  0  0  0  0  0  0  0  0  0  0
    2.5197   -0.8518    0.3109 H   0  0  0  0  0  0  0  0  0  0  0  0
    1.5258   -0.5199    1.8304 H   0  0  0  0  0  0  0  0  0  0  0  0
    0.0952   -1.0681   -1.7579 H   0  0  0  0  0  0  0  0  0  0  0  0
    1.0411   -1.9532   -0.5408 H   0  0  0  0  0  0  0  0  0  0  0  0
   -0.7433   -2.5513    0.7224 H   0  0  0  0  0  0  0  0  0  0  0  0
   -1.4236   -2.5116   -0.9120 H   0  0  0  0  0  0  0  0  0  0  0  0
   -2.3265    0.3711    1.8022 H   0  0  0  0  0  0  0  0  0  0  0  0
   -1.9853    2.3345    0.3150 H   0  0  0  0  0  0  0  0  0  0  0  0
   -1.5985    1.2273   -1.1062 H   0  0  0  0  0  0  0  0  0  0  0  0
   -0.0640    1.3901    1.6406 H   0  0  0  0  0  0  0  0  0  0  0  0
  1  2  1  0
  2  3  1  0
  2  4  1  0
  4  5  1  0
  5  6  1  0
  6  7  1  0
  7  8  1  0
  8  9  1  0
  9  2  1  0
  9  7  1  0
  1 10  1  0
  1 11  1  0
  1 12  1  0
  3 13  1  0
  3 14  1  0
  3 15  1  0
  4 16  1  0
  4 17  1  0
  5 18  1  0
  5 19  1  0
  7 20  1  0
  8 21  1  0
  8 22  1  0
  9 23  1  0
M  END
