
     RDKit          3D

 23 23  0  0  0  0  0  0  0  0999 V2000
   -0.1144   -1.5100    0.4010 C   0  0  0  0  0  0  0  0  0  0  0  0
   -0.2296   -0.1674   -0.2361 C   0  0  0  0  0  0  0  0  0  0  0  0
    1.0092    0.2157   -0.9978 C   0  0  0  0  0  0  0  0  0  0  0  0
    2.1642    0.2295    0.0081 C   0  0  0  0  0  0  0  0  0  0  0  0
    3.3631    0.5715   -0.5834 O   0  0  0  0  0  0  0  0  0  0  0  0
   -0.5331    0.8826    0.8436 C   0  0  0  0  0  0  0  0  0  0  0  0
   -1.9761    0.5857    1.0831 C   0  0  0  0  0  0  0  0  0  0  0  0
   -2.5155    0.0324    0.0083 C   0  0  0  0  0  0  0  0  0  0  0  0
   -1.4797   -0.0917   -1.0514 C   0  0  0  0  0  0  0  0  0  0  0  0
   -1.1140   -2.0091    0.4088 H   0  0  0  0  0  0  0  0  0  0  0  0
    0.2010   -1.4538    1.4678 H   0  0  0  0  0  0  0  0  0  0  0  0
    0.5983   -2.1135   -0.2104 H   0  0  0  0  0  0  0  0  0  0  0  0
    0.8820    1.1955   -1.4722 H   0  0  0  0  0  0  0  0  0  0  0  0
    1.1793   -0.5669   -1.7613 H   0  0  0  0  0  0  0  0  0  0  0  0
    2.2094   -0.8001    0.4551 H   0  0  0  0  0  0  0  0  0  0  0  0
    1.9485    0.9233    0.8441 H   0  0  0  0  0  0  0  0  0  0  0  0
    3.9009    1.0660    0.0853 H   0  0  0  0  0  0  0  0  0  0  0  0
    0.0878    0.7077    1.7347 H   0  0  0  0  0  0  0  0  0  0  0  0
   -0.3893    1.8925    0.4028 H   0  0  0  0  0  0  0  0  0  0  0  0
   -2.5060    0.7922    2.0017 H   0  0  0  0  0  0  0  0  0  0  0  0
   -3.5472   -0.2703   -0.0583 H   0  0  0  0  0  0  0  0  0  0  0  0
   -1.5017    0.8529   -1.6657 H   0  0  0  0  0  0  0  0  0  0  0  0
   -1.6371   -0.9644   -1.7079 H   0  0  0  0  0  0  0  0  0  0  0  0
  1  2  1  0
  2  3  1  0
  3  4  1  0
  4  5  1  0
  2  6  1  0
  6  7  1  0
  7  8  2  0
  8  9  1  0
  9  2  1  0
  1 10  1  0
  1 11  1  0
  1 12  1  0
  3 13  1  0
  3 14  1  0
  4 15  1  0
  4 16  1  0
  5 17  1  0
  6 18  1  0
  6 19  1  0
  7 20  1  0
  8 21  1  0
  9 22  1  0
  9 23  1  0
M  END
