
     RDKit          3D

 23 24  0  0  0  0  0  0  0  0999 V2000
   -1.5147   -0.4909   -0.9563 C   0  0  0  0  0  0  0  0  0  0  0  0
   -0.7757   -0.1421    0.3185 C   0  0  0  0  0  0  0  0  0  0  0  0
   -1.8814    0.1042    1.3564 C   0  0  0  0  0  0  0  0  0  0  0  0
   -0.0913   -1.2581    0.7290 O   0  0  0  0  0  0  0  0  0  0  0  0
    1.0476   -1.5251   -0.0076 C   0  0  0  0  0  0  0  0  0  0  0  0
    2.0339   -0.4270    0.2325 C   0  0  0  0  0  0  0  0  0  0  0  0
    1.4718    0.9436    0.0383 C   0  0  0  0  0  0  0  0  0  0  0  0
    0.6804    1.3290   -1.1355 C   0  0  0  0  0  0  0  0  0  0  0  0
    0.0376    1.0996    0.2171 C   0  0  0  0  0  0  0  0  0  0  0  0
   -2.2370   -1.3100   -0.6682 H   0  0  0  0  0  0  0  0  0  0  0  0
   -2.1188    0.3759   -1.2419 H   0  0  0  0  0  0  0  0  0  0  0  0
   -0.8816   -0.9084   -1.7361 H   0  0  0  0  0  0  0  0  0  0  0  0
   -2.7893   -0.4556    1.1331 H   0  0  0  0  0  0  0  0  0  0  0  0
   -1.4518   -0.0586    2.3506 H   0  0  0  0  0  0  0  0  0  0  0  0
   -2.1513    1.1960    1.2444 H   0  0  0  0  0  0  0  0  0  0  0  0
    1.4876   -2.4674    0.4129 H   0  0  0  0  0  0  0  0  0  0  0  0
    0.8669   -1.7205   -1.0692 H   0  0  0  0  0  0  0  0  0  0  0  0
    2.3447   -0.5007    1.3156 H   0  0  0  0  0  0  0  0  0  0  0  0
    2.9767   -0.5928   -0.3381 H   0  0  0  0  0  0  0  0  0  0  0  0
    2.1337    1.7532    0.4643 H   0  0  0  0  0  0  0  0  0  0  0  0
    0.4261    0.6411   -1.9594 H   0  0  0  0  0  0  0  0  0  0  0  0
    0.7051    2.3935   -1.4674 H   0  0  0  0  0  0  0  0  0  0  0  0
   -0.3195    2.0207    0.7669 H   0  0  0  0  0  0  0  0  0  0  0  0
  1  2  1  0
  2  3  1  0
  2  4  1  0
  4  5  1  0
  5  6  1  0
  6  7  1  0
  7  8  1  0
  8  9  1  0
  9  2  1  0
  9  7  1  0
  1 10  1  0
  1 11  1  0
  1 12  1  0
  3 13  1  0
  3 14  1  0
  3 15  1  0
  5 16  1  0
  5 17  1  0
  6 18  1  0
  6 19  1  0
  7 20  1  0
  8 21  1  0
  8 22  1  0
  9 23  1  0
M  END
