
     RDKit          3D

 19 19  0  0  0  0  0  0  0  0999 V2000
    1.8621    0.9004    0.5650 C   0  0  0  0  0  0  0  0  0  0  0  0
    0.6310    0.1066    0.0823 C   0  0  0  0  0  0  0  0  0  0  0  0
    1.2315   -1.0413   -0.7428 C   0  0  0  0  0  0  0  0  0  0  0  0
   -0.0334    0.9229   -0.7507 O   0  0  0  0  0  0  0  0  0  0  0  0
   -1.3520    0.6926   -0.9962 C   0  0  0  0  0  0  0  0  0  0  0  0
   -1.9575   -0.3345   -0.1173 C   0  0  0  0  0  0  0  0  0  0  0  0
   -2.8888   -1.0460   -0.4257 O   0  0  0  0  0  0  0  0  0  0  0  0
   -1.3176   -0.4426    1.2362 C   0  0  0  0  0  0  0  0  0  0  0  0
    0.0259   -0.3702    1.1869 O   0  0  0  0  0  0  0  0  0  0  0  0
    2.1682    0.5760    1.5706 H   0  0  0  0  0  0  0  0  0  0  0  0
    1.5525    1.9831    0.6482 H   0  0  0  0  0  0  0  0  0  0  0  0
    2.7080    0.7761   -0.1186 H   0  0  0  0  0  0  0  0  0  0  0  0
    1.9606   -0.5458   -1.4428 H   0  0  0  0  0  0  0  0  0  0  0  0
    0.4748   -1.5878   -1.3043 H   0  0  0  0  0  0  0  0  0  0  0  0
    1.8506   -1.6752   -0.0811 H   0  0  0  0  0  0  0  0  0  0  0  0
   -1.8980    1.6649   -0.8111 H   0  0  0  0  0  0  0  0  0  0  0  0
   -1.5961    0.4230   -2.0457 H   0  0  0  0  0  0  0  0  0  0  0  0
   -1.6405   -1.3952    1.7094 H   0  0  0  0  0  0  0  0  0  0  0  0
   -1.7813    0.3930    1.8378 H   0  0  0  0  0  0  0  0  0  0  0  0
  1  2  1  0
  2  3  1  0
  2  4  1  0
  4  5  1  0
  5  6  1  0
  6  7  2  0
  6  8  1  0
  8  9  1  0
  9  2  1  0
  1 10  1  0
  1 11  1  0
  1 12  1  0
  3 13  1  0
  3 14  1  0
  3 15  1  0
  5 16  1  0
  5 17  1  0
  8 18  1  0
  8 19  1  0
M  END
