
     RDKit          3D

 21 22  0  0  0  0  0  0  0  0999 V2000
   -0.5946    1.7507   -0.4515 C   0  0  0  0  0  0  0  0  0  0  0  0
   -0.0951    0.3305   -0.2717 C   0  0  0  0  0  0  0  0  0  0  0  0
    1.3972    0.3781   -0.1533 C   0  0  0  0  0  0  0  0  0  0  0  0
    2.2171   -0.8372    0.0330 C   0  0  0  0  0  0  0  0  0  0  0  0
    1.9944   -0.0103    1.2396 C   0  0  0  0  0  0  0  0  0  0  0  0
   -0.6182   -0.2408    0.8978 O   0  0  0  0  0  0  0  0  0  0  0  0
   -1.8937   -0.6620    0.5476 C   0  0  0  0  0  0  0  0  0  0  0  0
   -1.7127   -1.0620   -0.8926 C   0  0  0  0  0  0  0  0  0  0  0  0
   -0.5545   -0.4204   -1.3255 O   0  0  0  0  0  0  0  0  0  0  0  0
   -0.7571    1.9501   -1.5409 H   0  0  0  0  0  0  0  0  0  0  0  0
   -1.5548    1.8492    0.0606 H   0  0  0  0  0  0  0  0  0  0  0  0
    0.1656    2.4633   -0.0986 H   0  0  0  0  0  0  0  0  0  0  0  0
    1.9298    1.2616   -0.6147 H   0  0  0  0  0  0  0  0  0  0  0  0
    1.7003   -1.8092   -0.1071 H   0  0  0  0  0  0  0  0  0  0  0  0
    3.2592   -0.8525   -0.3567 H   0  0  0  0  0  0  0  0  0  0  0  0
    1.2269   -0.3796    1.9727 H   0  0  0  0  0  0  0  0  0  0  0  0
    2.7815    0.6299    1.6346 H   0  0  0  0  0  0  0  0  0  0  0  0
   -2.2200   -1.5368    1.1667 H   0  0  0  0  0  0  0  0  0  0  0  0
   -2.5743    0.1955    0.6829 H   0  0  0  0  0  0  0  0  0  0  0  0
   -1.5023   -2.1546   -0.9201 H   0  0  0  0  0  0  0  0  0  0  0  0
   -2.5945   -0.8436   -1.5029 H   0  0  0  0  0  0  0  0  0  0  0  0
  1  2  1  0
  2  3  1  0
  3  4  1  0
  4  5  1  0
  2  6  1  0
  6  7  1  0
  7  8  1  0
  8  9  1  0
  9  2  1  0
  5  3  1  0
  1 10  1  0
  1 11  1  0
  1 12  1  0
  3 13  1  0
  4 14  1  0
  4 15  1  0
  5 16  1  0
  5 17  1  0
  7 18  1  0
  7 19  1  0
  8 20  1  0
  8 21  1  0
M  END
