
     RDKit          3D

 23 23  0  0  0  0  0  0  0  0999 V2000
    0.4357   -1.8018   -1.0003 C   0  0  0  0  0  0  0  0  0  0  0  0
    0.3057   -0.4716   -0.2681 C   0  0  0  0  0  0  0  0  0  0  0  0
    1.6600    0.1612   -0.2185 C   0  0  0  0  0  0  0  0  0  0  0  0
    1.7071    1.4540    0.4562 C   0  0  0  0  0  0  0  0  0  0  0  0
    1.7370    1.5111    1.6678 O   0  0  0  0  0  0  0  0  0  0  0  0
   -0.6406    0.4098   -1.0418 C   0  0  0  0  0  0  0  0  0  0  0  0
   -1.6651    0.9355   -0.0895 C   0  0  0  0  0  0  0  0  0  0  0  0
   -1.3383    0.4068    1.2832 C   0  0  0  0  0  0  0  0  0  0  0  0
   -0.3433   -0.6900    1.0427 C   0  0  0  0  0  0  0  0  0  0  0  0
    1.4777   -2.0137   -1.2739 H   0  0  0  0  0  0  0  0  0  0  0  0
   -0.2100   -1.8124   -1.9062 H   0  0  0  0  0  0  0  0  0  0  0  0
    0.1003   -2.6340   -0.3378 H   0  0  0  0  0  0  0  0  0  0  0  0
    2.0287    0.2421   -1.2660 H   0  0  0  0  0  0  0  0  0  0  0  0
    2.3930   -0.5358    0.2839 H   0  0  0  0  0  0  0  0  0  0  0  0
    1.7171    2.3841   -0.0896 H   0  0  0  0  0  0  0  0  0  0  0  0
   -1.1011   -0.1513   -1.8954 H   0  0  0  0  0  0  0  0  0  0  0  0
   -0.0862    1.2666   -1.4850 H   0  0  0  0  0  0  0  0  0  0  0  0
   -2.6621    0.5706   -0.3862 H   0  0  0  0  0  0  0  0  0  0  0  0
   -1.6947    2.0471   -0.0719 H   0  0  0  0  0  0  0  0  0  0  0  0
   -0.9814    1.2182    1.9316 H   0  0  0  0  0  0  0  0  0  0  0  0
   -2.2498   -0.0096    1.8019 H   0  0  0  0  0  0  0  0  0  0  0  0
   -0.9401   -1.6442    0.9748 H   0  0  0  0  0  0  0  0  0  0  0  0
    0.3504   -0.8426    1.8882 H   0  0  0  0  0  0  0  0  0  0  0  0
  1  2  1  0
  2  3  1  0
  3  4  1  0
  4  5  2  0
  2  6  1  0
  6  7  1  0
  7  8  1  0
  8  9  1  0
  9  2  1  0
  1 10  1  0
  1 11  1  0
  1 12  1  0
  3 13  1  0
  3 14  1  0
  4 15  1  0
  6 16  1  0
  6 17  1  0
  7 18  1  0
  7 19  1  0
  8 20  1  0
  8 21  1  0
  9 22  1  0
  9 23  1  0
M  END
