
     RDKit          3D

 19 20  0  0  0  0  0  0  0  0999 V2000
    1.6020   -1.0705    0.3857 C   0  0  0  0  0  0  0  0  0  0  0  0
    0.6598    0.0794    0.2683 C   0  0  0  0  0  0  0  0  0  0  0  0
    1.1213    1.2983    0.7523 O   0  0  0  0  0  0  0  0  0  0  0  0
    0.0973    0.2967   -1.1482 C   0  0  0  0  0  0  0  0  0  0  0  0
   -0.8007    1.4518   -0.8830 C   0  0  0  0  0  0  0  0  0  0  0  0
   -1.4233    1.0857    0.2468 C   0  0  0  0  0  0  0  0  0  0  0  0
   -0.7943   -0.2172    0.5643 C   0  0  0  0  0  0  0  0  0  0  0  0
   -1.1539   -0.9260    1.6063 O   0  0  0  0  0  0  0  0  0  0  0  0
   -0.8048   -0.8704   -0.8288 C   0  0  0  0  0  0  0  0  0  0  0  0
    1.1322   -2.0475    0.5335 H   0  0  0  0  0  0  0  0  0  0  0  0
    2.2681   -1.0479   -0.5268 H   0  0  0  0  0  0  0  0  0  0  0  0
    2.3081   -0.8520    1.2343 H   0  0  0  0  0  0  0  0  0  0  0  0
    0.9630    2.0511    0.1362 H   0  0  0  0  0  0  0  0  0  0  0  0
    0.7530    0.2801   -1.9624 H   0  0  0  0  0  0  0  0  0  0  0  0
   -0.9244    2.3630   -1.4560 H   0  0  0  0  0  0  0  0  0  0  0  0
   -2.1946    1.6038    0.7991 H   0  0  0  0  0  0  0  0  0  0  0  0
   -0.6756   -0.8151    2.4415 H   0  0  0  0  0  0  0  0  0  0  0  0
   -1.7775   -0.8010   -1.3131 H   0  0  0  0  0  0  0  0  0  0  0  0
   -0.3557   -1.8624   -0.8500 H   0  0  0  0  0  0  0  0  0  0  0  0
  1  2  1  0
  2  3  1  0
  2  4  1  0
  4  5  1  0
  5  6  2  0
  6  7  1  0
  7  8  1  0
  7  9  1  0
  7  2  1  0
  9  4  1  0
  1 10  1  0
  1 11  1  0
  1 12  1  0
  3 13  1  0
  4 14  1  0
  5 15  1  0
  6 16  1  0
  8 17  1  0
  9 18  1  0
  9 19  1  0
M  END
