
     RDKit          3D

 21 22  0  0  0  0  0  0  0  0999 V2000
   -1.6465   -1.3243    0.4763 C   0  0  0  0  0  0  0  0  0  0  0  0
   -0.9773   -0.1257   -0.2090 C   0  0  0  0  0  0  0  0  0  0  0  0
   -2.0120    0.5832   -1.0977 C   0  0  0  0  0  0  0  0  0  0  0  0
   -0.0964    0.6974    0.4950 C   0  0  0  0  0  0  0  0  0  0  0  0
    0.9390    1.6672    0.2460 C   0  0  0  0  0  0  0  0  0  0  0  0
    2.0452    0.9932   -0.0474 C   0  0  0  0  0  0  0  0  0  0  0  0
    1.6785   -0.4847    0.0151 C   0  0  0  0  0  0  0  0  0  0  0  0
    2.5509   -1.2703   -0.6802 O   0  0  0  0  0  0  0  0  0  0  0  0
    0.3365   -0.2876   -0.6401 C   0  0  0  0  0  0  0  0  0  0  0  0
   -2.2945   -1.8208   -0.2420 H   0  0  0  0  0  0  0  0  0  0  0  0
   -2.1217   -1.0126    1.4154 H   0  0  0  0  0  0  0  0  0  0  0  0
   -0.8542   -2.0761    0.7663 H   0  0  0  0  0  0  0  0  0  0  0  0
   -2.9526    0.6495   -0.5186 H   0  0  0  0  0  0  0  0  0  0  0  0
   -2.1866    0.0088   -2.0265 H   0  0  0  0  0  0  0  0  0  0  0  0
   -1.6876    1.6023   -1.3432 H   0  0  0  0  0  0  0  0  0  0  0  0
    0.0715    0.3310    1.5665 H   0  0  0  0  0  0  0  0  0  0  0  0
    0.8298    2.7692    0.2916 H   0  0  0  0  0  0  0  0  0  0  0  0
    3.0281    1.3363   -0.2889 H   0  0  0  0  0  0  0  0  0  0  0  0
    1.5511   -0.8403    1.0299 H   0  0  0  0  0  0  0  0  0  0  0  0
    3.2583   -1.5754   -0.0567 H   0  0  0  0  0  0  0  0  0  0  0  0
    0.5405    0.1799   -1.6559 H   0  0  0  0  0  0  0  0  0  0  0  0
  1  2  1  0
  2  3  1  0
  2  4  1  0
  4  5  1  0
  5  6  2  0
  6  7  1  0
  7  8  1  0
  7  9  1  0
  9  2  1  0
  9  4  1  0
  1 10  1  0
  1 11  1  0
  1 12  1  0
  3 13  1  0
  3 14  1  0
  3 15  1  0
  4 16  1  0
  5 17  1  0
  6 18  1  0
  7 19  1  0
  8 20  1  0
  9 21  1  0
M  END
