
     RDKit          3D

 23 24  0  0  0  0  0  0  0  0999 V2000
   -1.6252    1.4887   -0.1407 C   0  0  0  0  0  0  0  0  0  0  0  0
   -0.9463    0.1207   -0.1745 C   0  0  0  0  0  0  0  0  0  0  0  0
   -1.9292   -0.9637   -0.5463 C   0  0  0  0  0  0  0  0  0  0  0  0
   -0.3505   -0.1027    1.2056 C   0  0  0  0  0  0  0  0  0  0  0  0
    1.0444    0.5429    1.1555 C   0  0  0  0  0  0  0  0  0  0  0  0
    1.8908   -0.4127    0.3889 C   0  0  0  0  0  0  0  0  0  0  0  0
    2.4599   -0.1373   -0.9270 C   0  0  0  0  0  0  0  0  0  0  0  0
    1.0741   -0.7635   -0.8852 C   0  0  0  0  0  0  0  0  0  0  0  0
    0.0624    0.1256   -1.0956 O   0  0  0  0  0  0  0  0  0  0  0  0
   -2.6612    1.4438   -0.5040 H   0  0  0  0  0  0  0  0  0  0  0  0
   -1.6579    1.9078    0.8834 H   0  0  0  0  0  0  0  0  0  0  0  0
   -1.0334    2.2337   -0.7448 H   0  0  0  0  0  0  0  0  0  0  0  0
   -1.6923   -1.3999   -1.5593 H   0  0  0  0  0  0  0  0  0  0  0  0
   -1.8636   -1.8148    0.1567 H   0  0  0  0  0  0  0  0  0  0  0  0
   -2.9756   -0.5895   -0.5780 H   0  0  0  0  0  0  0  0  0  0  0  0
   -0.2238   -1.2207    1.3011 H   0  0  0  0  0  0  0  0  0  0  0  0
   -0.9621    0.3010    2.0107 H   0  0  0  0  0  0  0  0  0  0  0  0
    0.9305    1.4928    0.5664 H   0  0  0  0  0  0  0  0  0  0  0  0
    1.4094    0.7958    2.1550 H   0  0  0  0  0  0  0  0  0  0  0  0
    2.2585   -1.2818    0.9851 H   0  0  0  0  0  0  0  0  0  0  0  0
    2.5621    0.8963   -1.3106 H   0  0  0  0  0  0  0  0  0  0  0  0
    3.2581   -0.8249   -1.2731 H   0  0  0  0  0  0  0  0  0  0  0  0
    0.9709   -1.8378   -1.0695 H   0  0  0  0  0  0  0  0  0  0  0  0
  1  2  1  0
  2  3  1  0
  2  4  1  0
  4  5  1  0
  5  6  1  0
  6  7  1  0
  7  8  1  0
  8  9  1  0
  9  2  1  0
  8  6  1  0
  1 10  1  0
  1 11  1  0
  1 12  1  0
  3 13  1  0
  3 14  1  0
  3 15  1  0
  4 16  1  0
  4 17  1  0
  5 18  1  0
  5 19  1  0
  6 20  1  0
  7 21  1  0
  7 22  1  0
  8 23  1  0
M  END
