
     RDKit          3D

 25 26  0  0  0  0  0  0  0  0999 V2000
   -1.2044   -0.7046   -1.3829 C   0  0  0  0  0  0  0  0  0  0  0  0
   -0.9498    0.0602   -0.1041 C   0  0  0  0  0  0  0  0  0  0  0  0
   -2.1564    0.6444    0.5639 C   0  0  0  0  0  0  0  0  0  0  0  0
    0.0766   -0.4986    0.8777 C   0  0  0  0  0  0  0  0  0  0  0  0
    0.8286   -1.6784    0.3523 C   0  0  0  0  0  0  0  0  0  0  0  0
    1.8464   -1.1301   -0.6034 C   0  0  0  0  0  0  0  0  0  0  0  0
    1.4900    0.3044   -0.8740 C   0  0  0  0  0  0  0  0  0  0  0  0
    0.3776    0.6847    0.0454 C   0  0  0  0  0  0  0  0  0  0  0  0
    0.3618    2.0787    0.6675 C   0  0  0  0  0  0  0  0  0  0  0  0
   -1.5882   -1.7302   -1.1667 H   0  0  0  0  0  0  0  0  0  0  0  0
   -0.3146   -0.8294   -2.0075 H   0  0  0  0  0  0  0  0  0  0  0  0
   -2.0365   -0.1800   -1.9014 H   0  0  0  0  0  0  0  0  0  0  0  0
   -1.8575    1.4616    1.2683 H   0  0  0  0  0  0  0  0  0  0  0  0
   -2.9594    0.9238   -0.1180 H   0  0  0  0  0  0  0  0  0  0  0  0
   -2.5708   -0.1616    1.2357 H   0  0  0  0  0  0  0  0  0  0  0  0
   -0.0503   -0.3195    1.9501 H   0  0  0  0  0  0  0  0  0  0  0  0
    0.1232   -2.3990   -0.1164 H   0  0  0  0  0  0  0  0  0  0  0  0
    1.2759   -2.2075    1.2217 H   0  0  0  0  0  0  0  0  0  0  0  0
    1.8785   -1.7063   -1.5618 H   0  0  0  0  0  0  0  0  0  0  0  0
    2.8474   -1.2370   -0.1006 H   0  0  0  0  0  0  0  0  0  0  0  0
    1.2607    0.4883   -1.9365 H   0  0  0  0  0  0  0  0  0  0  0  0
    2.3862    0.9182   -0.5781 H   0  0  0  0  0  0  0  0  0  0  0  0
   -0.4630    2.6379    0.1512 H   0  0  0  0  0  0  0  0  0  0  0  0
    0.0589    1.9963    1.7422 H   0  0  0  0  0  0  0  0  0  0  0  0
    1.3387    2.5836    0.5739 H   0  0  0  0  0  0  0  0  0  0  0  0
  1  2  1  0
  2  3  1  0
  2  4  1  0
  4  5  1  0
  5  6  1  0
  6  7  1  0
  7  8  1  0
  8  9  1  0
  8  2  1  0
  8  4  1  0
  1 10  1  0
  1 11  1  0
  1 12  1  0
  3 13  1  0
  3 14  1  0
  3 15  1  0
  4 16  1  0
  5 17  1  0
  5 18  1  0
  6 19  1  0
  6 20  1  0
  7 21  1  0
  7 22  1  0
  9 23  1  0
  9 24  1  0
  9 25  1  0
M  END
