
     RDKit          3D

 21 22  0  0  0  0  0  0  0  0999 V2000
   -2.6702   -0.5778    0.6644 C   0  0  0  0  0  0  0  0  0  0  0  0
   -1.5121    0.1141   -0.0234 C   0  0  0  0  0  0  0  0  0  0  0  0
   -1.5418    1.5048    0.1264 O   0  0  0  0  0  0  0  0  0  0  0  0
   -1.0367   -0.4635   -1.3096 C   0  0  0  0  0  0  0  0  0  0  0  0
   -0.2035   -0.5527   -0.0392 C   0  0  0  0  0  0  0  0  0  0  0  0
    1.0245    0.2758   -0.0230 C   0  0  0  0  0  0  0  0  0  0  0  0
    2.3422   -0.4605   -0.0405 C   0  0  0  0  0  0  0  0  0  0  0  0
    2.7115    0.7957    0.7371 C   0  0  0  0  0  0  0  0  0  0  0  0
    1.4029    0.7975    1.2210 O   0  0  0  0  0  0  0  0  0  0  0  0
   -2.3779   -0.7264    1.7175 H   0  0  0  0  0  0  0  0  0  0  0  0
   -2.9185   -1.5394    0.1606 H   0  0  0  0  0  0  0  0  0  0  0  0
   -3.5827    0.0757    0.6159 H   0  0  0  0  0  0  0  0  0  0  0  0
   -1.7494    1.9683   -0.7202 H   0  0  0  0  0  0  0  0  0  0  0  0
   -1.4917   -1.4005   -1.7068 H   0  0  0  0  0  0  0  0  0  0  0  0
   -0.7571    0.2524   -2.0830 H   0  0  0  0  0  0  0  0  0  0  0  0
   -0.1860   -1.5874    0.4012 H   0  0  0  0  0  0  0  0  0  0  0  0
    1.0006    1.0800   -0.7661 H   0  0  0  0  0  0  0  0  0  0  0  0
    2.3880   -1.3636    0.5787 H   0  0  0  0  0  0  0  0  0  0  0  0
    2.8302   -0.5189   -1.0319 H   0  0  0  0  0  0  0  0  0  0  0  0
    3.4967    0.6714    1.4852 H   0  0  0  0  0  0  0  0  0  0  0  0
    2.8311    1.6552    0.0357 H   0  0  0  0  0  0  0  0  0  0  0  0
  1  2  1  0
  2  3  1  0
  2  4  1  0
  4  5  1  0
  5  6  1  0
  6  7  1  0
  7  8  1  0
  8  9  1  0
  5  2  1  0
  9  6  1  0
  1 10  1  0
  1 11  1  0
  1 12  1  0
  3 13  1  0
  4 14  1  0
  4 15  1  0
  5 16  1  0
  6 17  1  0
  7 18  1  0
  7 19  1  0
  8 20  1  0
  8 21  1  0
M  END
