
     RDKit          3D

 19 20  0  0  0  0  0  0  0  0999 V2000
   -1.9730    0.1489   -0.8699 C   0  0  0  0  0  0  0  0  0  0  0  0
   -1.1941   -0.1941    0.3912 C   0  0  0  0  0  0  0  0  0  0  0  0
   -2.0341   -0.4331    1.4849 O   0  0  0  0  0  0  0  0  0  0  0  0
    0.0353    0.5621    0.7130 C   0  0  0  0  0  0  0  0  0  0  0  0
    0.9301    0.8657   -0.4789 C   0  0  0  0  0  0  0  0  0  0  0  0
    2.0140    1.6563   -0.1760 O   0  0  0  0  0  0  0  0  0  0  0  0
    1.2146   -0.6301   -0.5203 C   0  0  0  0  0  0  0  0  0  0  0  0
    2.4430   -0.8450    0.1468 O   0  0  0  0  0  0  0  0  0  0  0  0
    0.0561   -0.9499    0.3454 C   0  0  0  0  0  0  0  0  0  0  0  0
   -1.3573    0.1666   -1.7677 H   0  0  0  0  0  0  0  0  0  0  0  0
   -2.5668    1.0487   -0.6773 H   0  0  0  0  0  0  0  0  0  0  0  0
   -2.7032   -0.7030   -1.0039 H   0  0  0  0  0  0  0  0  0  0  0  0
   -1.4530   -0.7491    2.2388 H   0  0  0  0  0  0  0  0  0  0  0  0
    0.3761    0.7737    1.7234 H   0  0  0  0  0  0  0  0  0  0  0  0
    0.3281    1.2271   -1.3216 H   0  0  0  0  0  0  0  0  0  0  0  0
    1.6630    2.5634    0.0409 H   0  0  0  0  0  0  0  0  0  0  0  0
    1.2405   -1.0724   -1.5290 H   0  0  0  0  0  0  0  0  0  0  0  0
    2.7124   -1.7833    0.0807 H   0  0  0  0  0  0  0  0  0  0  0  0
    0.2685   -1.6526    1.1797 H   0  0  0  0  0  0  0  0  0  0  0  0
  1  2  1  0
  2  3  1  0
  2  4  1  0
  4  5  1  0
  5  6  1  0
  5  7  1  0
  7  8  1  0
  7  9  1  0
  9  2  1  0
  9  4  1  0
  1 10  1  0
  1 11  1  0
  1 12  1  0
  3 13  1  0
  4 14  1  0
  5 15  1  0
  6 16  1  0
  7 17  1  0
  8 18  1  0
  9 19  1  0
M  END
