
     RDKit          3D

 21 22  0  0  0  0  0  0  0  0999 V2000
    0.2146    1.6485    0.7440 C   0  0  0  0  0  0  0  0  0  0  0  0
   -0.2144    0.3124    0.1457 C   0  0  0  0  0  0  0  0  0  0  0  0
   -1.6873    0.1334    0.3030 C   0  0  0  0  0  0  0  0  0  0  0  0
   -2.2386   -1.1023   -0.2247 C   0  0  0  0  0  0  0  0  0  0  0  0
   -2.2039   -2.1331    0.4030 O   0  0  0  0  0  0  0  0  0  0  0  0
    0.3158    0.2319   -1.2654 C   0  0  0  0  0  0  0  0  0  0  0  0
    1.4590   -0.6208   -0.8352 C   0  0  0  0  0  0  0  0  0  0  0  0
    2.1397   -0.4929    0.4590 C   0  0  0  0  0  0  0  0  0  0  0  0
    0.6831   -0.8206    0.4975 C   0  0  0  0  0  0  0  0  0  0  0  0
    1.1549    2.0262    0.2521 H   0  0  0  0  0  0  0  0  0  0  0  0
    0.3430    1.5200    1.8224 H   0  0  0  0  0  0  0  0  0  0  0  0
   -0.5585    2.3926    0.4630 H   0  0  0  0  0  0  0  0  0  0  0  0
   -2.2155    1.0560   -0.0642 H   0  0  0  0  0  0  0  0  0  0  0  0
   -1.8886    0.1447    1.4219 H   0  0  0  0  0  0  0  0  0  0  0  0
   -2.6926   -1.1219   -1.2027 H   0  0  0  0  0  0  0  0  0  0  0  0
    0.5741    1.2112   -1.7369 H   0  0  0  0  0  0  0  0  0  0  0  0
   -0.4174   -0.2811   -1.9469 H   0  0  0  0  0  0  0  0  0  0  0  0
    1.6559   -1.5165   -1.4517 H   0  0  0  0  0  0  0  0  0  0  0  0
    2.3716    0.5144    0.9099 H   0  0  0  0  0  0  0  0  0  0  0  0
    2.8898   -1.2443    0.6956 H   0  0  0  0  0  0  0  0  0  0  0  0
    0.3153   -1.8577    0.6107 H   0  0  0  0  0  0  0  0  0  0  0  0
  1  2  1  0
  2  3  1  0
  3  4  1  0
  4  5  2  0
  2  6  1  0
  6  7  1  0
  7  8  1  0
  8  9  1  0
  9  2  1  0
  9  7  1  0
  1 10  1  0
  1 11  1  0
  1 12  1  0
  3 13  1  0
  3 14  1  0
  4 15  1  0
  6 16  1  0
  6 17  1  0
  7 18  1  0
  8 19  1  0
  8 20  1  0
  9 21  1  0
M  END
