
     RDKit          3D

 22 22  0  0  0  0  0  0  0  0999 V2000
    1.0769    1.6246   -0.1971 C   0  0  0  0  0  0  0  0  0  0  0  0
    0.8506    0.1484   -0.0979 C   0  0  0  0  0  0  0  0  0  0  0  0
    1.6442   -0.5380    0.9819 C   0  0  0  0  0  0  0  0  0  0  0  0
    0.4475   -0.5464   -1.3327 C   0  0  0  0  0  0  0  0  0  0  0  0
   -0.5460   -0.4165   -0.2454 C   0  0  0  0  0  0  0  0  0  0  0  0
   -0.8792   -1.7273    0.4424 C   0  0  0  0  0  0  0  0  0  0  0  0
   -1.7051    0.5385   -0.3359 C   0  0  0  0  0  0  0  0  0  0  0  0
   -1.8180    1.3523    0.7957 O   0  0  0  0  0  0  0  0  0  0  0  0
    0.8120    2.1798    0.7265 H   0  0  0  0  0  0  0  0  0  0  0  0
    0.6519    2.0827   -1.1128 H   0  0  0  0  0  0  0  0  0  0  0  0
    2.1938    1.7688   -0.3037 H   0  0  0  0  0  0  0  0  0  0  0  0
    2.4806    0.0644    1.3671 H   0  0  0  0  0  0  0  0  0  0  0  0
    0.9473   -0.6864    1.8434 H   0  0  0  0  0  0  0  0  0  0  0  0
    1.9513   -1.5692    0.6806 H   0  0  0  0  0  0  0  0  0  0  0  0
    0.2550    0.0757   -2.2354 H   0  0  0  0  0  0  0  0  0  0  0  0
    0.8714   -1.5404   -1.6025 H   0  0  0  0  0  0  0  0  0  0  0  0
   -1.3202   -1.5623    1.4474 H   0  0  0  0  0  0  0  0  0  0  0  0
   -1.6021   -2.2539   -0.2227 H   0  0  0  0  0  0  0  0  0  0  0  0
    0.0211   -2.3836    0.5163 H   0  0  0  0  0  0  0  0  0  0  0  0
   -1.6375    1.1413   -1.2629 H   0  0  0  0  0  0  0  0  0  0  0  0
   -2.6458   -0.0351   -0.4022 H   0  0  0  0  0  0  0  0  0  0  0  0
   -2.0500    2.2826    0.5499 H   0  0  0  0  0  0  0  0  0  0  0  0
  1  2  1  0
  2  3  1  0
  2  4  1  0
  4  5  1  0
  5  6  1  0
  5  7  1  0
  7  8  1  0
  5  2  1  0
  1  9  1  0
  1 10  1  0
  1 11  1  0
  3 12  1  0
  3 13  1  0
  3 14  1  0
  4 15  1  0
  4 16  1  0
  6 17  1  0
  6 18  1  0
  6 19  1  0
  7 20  1  0
  7 21  1  0
  8 22  1  0
M  END
