
     RDKit          3D

 21 23  0  0  0  0  0  0  0  0999 V2000
   -1.7042   -1.0507    0.1027 C   0  0  0  0  0  0  0  0  0  0  0  0
   -0.7356    0.0904   -0.0487 C   0  0  0  0  0  0  0  0  0  0  0  0
   -1.3450    1.3218   -0.7280 C   0  0  0  0  0  0  0  0  0  0  0  0
    0.1642    0.3935    1.0744 C   0  0  0  0  0  0  0  0  0  0  0  0
    1.2027    1.4731    0.8261 C   0  0  0  0  0  0  0  0  0  0  0  0
    1.2602    2.0979   -0.4020 O   0  0  0  0  0  0  0  0  0  0  0  0
    1.7438    0.8143   -0.2433 C   0  0  0  0  0  0  0  0  0  0  0  0
    0.6789   -0.2529   -0.2514 C   0  0  0  0  0  0  0  0  0  0  0  0
    1.0657   -1.7000   -0.1932 C   0  0  0  0  0  0  0  0  0  0  0  0
   -2.6993   -0.8318   -0.3840 H   0  0  0  0  0  0  0  0  0  0  0  0
   -1.9717   -1.2464    1.1773 H   0  0  0  0  0  0  0  0  0  0  0  0
   -1.3444   -1.9795   -0.4015 H   0  0  0  0  0  0  0  0  0  0  0  0
   -0.9575    1.3311   -1.7675 H   0  0  0  0  0  0  0  0  0  0  0  0
   -2.4461    1.2578   -0.7406 H   0  0  0  0  0  0  0  0  0  0  0  0
   -1.0804    2.2492   -0.2005 H   0  0  0  0  0  0  0  0  0  0  0  0
    0.3149   -0.2476    1.9411 H   0  0  0  0  0  0  0  0  0  0  0  0
    1.6021    2.0573    1.6573 H   0  0  0  0  0  0  0  0  0  0  0  0
    2.7618    0.5415   -0.5205 H   0  0  0  0  0  0  0  0  0  0  0  0
    2.1593   -1.8142   -0.0563 H   0  0  0  0  0  0  0  0  0  0  0  0
    0.5542   -2.2553    0.6362 H   0  0  0  0  0  0  0  0  0  0  0  0
    0.7765   -2.2497   -1.1218 H   0  0  0  0  0  0  0  0  0  0  0  0
  1  2  1  0
  2  3  1  0
  2  4  1  0
  4  5  1  0
  5  6  1  0
  6  7  1  0
  7  8  1  0
  8  9  1  0
  8  2  1  0
  8  4  1  0
  7  5  1  0
  1 10  1  0
  1 11  1  0
  1 12  1  0
  3 13  1  0
  3 14  1  0
  3 15  1  0
  4 16  1  0
  5 17  1  0
  7 18  1  0
  9 19  1  0
  9 20  1  0
  9 21  1  0
M  END
