
     RDKit          3D

 21 21  0  0  0  0  0  0  0  0999 V2000
   -0.4440   -1.8081    0.3074 C   0  0  0  0  0  0  0  0  0  0  0  0
   -0.3533   -0.3552   -0.0351 C   0  0  0  0  0  0  0  0  0  0  0  0
    0.9540    0.0306   -0.6793 C   0  0  0  0  0  0  0  0  0  0  0  0
    2.1458   -0.2432    0.1807 C   0  0  0  0  0  0  0  0  0  0  0  0
    3.2804    0.1517   -0.5176 O   0  0  0  0  0  0  0  0  0  0  0  0
   -0.5544    0.3801    1.1180 O   0  0  0  0  0  0  0  0  0  0  0  0
   -1.2977    1.4806    0.7634 C   0  0  0  0  0  0  0  0  0  0  0  0
   -2.1406    0.9453   -0.3781 C   0  0  0  0  0  0  0  0  0  0  0  0
   -1.3720   -0.0506   -0.9190 O   0  0  0  0  0  0  0  0  0  0  0  0
   -0.1223   -2.4879   -0.4941 H   0  0  0  0  0  0  0  0  0  0  0  0
   -1.5395   -2.0303    0.4746 H   0  0  0  0  0  0  0  0  0  0  0  0
    0.0411   -2.0702    1.2743 H   0  0  0  0  0  0  0  0  0  0  0  0
    1.0912   -0.4614   -1.6530 H   0  0  0  0  0  0  0  0  0  0  0  0
    0.9099    1.1368   -0.8425 H   0  0  0  0  0  0  0  0  0  0  0  0
    2.1927   -1.3362    0.4294 H   0  0  0  0  0  0  0  0  0  0  0  0
    2.1052    0.2965    1.1485 H   0  0  0  0  0  0  0  0  0  0  0  0
    3.0958    0.0173   -1.4818 H   0  0  0  0  0  0  0  0  0  0  0  0
   -1.9581    1.8591    1.5635 H   0  0  0  0  0  0  0  0  0  0  0  0
   -0.6744    2.3041    0.3627 H   0  0  0  0  0  0  0  0  0  0  0  0
   -2.2836    1.7349   -1.1340 H   0  0  0  0  0  0  0  0  0  0  0  0
   -3.0763    0.5062   -0.0067 H   0  0  0  0  0  0  0  0  0  0  0  0
  1  2  1  0
  2  3  1  0
  3  4  1  0
  4  5  1  0
  2  6  1  0
  6  7  1  0
  7  8  1  0
  8  9  1  0
  9  2  1  0
  1 10  1  0
  1 11  1  0
  1 12  1  0
  3 13  1  0
  3 14  1  0
  4 15  1  0
  4 16  1  0
  5 17  1  0
  7 18  1  0
  7 19  1  0
  8 20  1  0
  8 21  1  0
M  END
