
     RDKit          3D

 18 19  0  0  0  0  0  0  0  0999 V2000
    1.6447    0.8054    0.5363 C   0  0  0  0  0  0  0  0  0  0  0  0
    0.9833   -0.2732   -0.2455 C   0  0  0  0  0  0  0  0  0  0  0  0
    1.9265   -1.1515   -0.8290 O   0  0  0  0  0  0  0  0  0  0  0  0
   -0.2371   -0.0763   -1.0404 C   0  0  0  0  0  0  0  0  0  0  0  0
   -1.2861    0.9182   -0.6988 C   0  0  0  0  0  0  0  0  0  0  0  0
   -1.2760    1.0967    0.6677 O   0  0  0  0  0  0  0  0  0  0  0  0
   -1.2230   -0.2275    1.1271 C   0  0  0  0  0  0  0  0  0  0  0  0
   -0.2340   -0.9487    0.2557 C   0  0  0  0  0  0  0  0  0  0  0  0
    0.9954    1.5832    0.9263 H   0  0  0  0  0  0  0  0  0  0  0  0
    2.4776    1.2505   -0.0525 H   0  0  0  0  0  0  0  0  0  0  0  0
    2.1544    0.3119    1.4157 H   0  0  0  0  0  0  0  0  0  0  0  0
    1.5221   -1.9921   -1.1035 H   0  0  0  0  0  0  0  0  0  0  0  0
   -0.4122   -0.6409   -1.9728 H   0  0  0  0  0  0  0  0  0  0  0  0
   -1.1535    1.8199   -1.2903 H   0  0  0  0  0  0  0  0  0  0  0  0
   -2.2822    0.4830   -1.0010 H   0  0  0  0  0  0  0  0  0  0  0  0
   -2.2553   -0.6673    1.0312 H   0  0  0  0  0  0  0  0  0  0  0  0
   -0.9741   -0.2536    2.1892 H   0  0  0  0  0  0  0  0  0  0  0  0
   -0.3704   -2.0378    0.0845 H   0  0  0  0  0  0  0  0  0  0  0  0
  1  2  1  0
  2  3  1  0
  2  4  1  0
  4  5  1  0
  5  6  1  0
  6  7  1  0
  7  8  1  0
  8  2  1  0
  8  4  1  0
  1  9  1  0
  1 10  1  0
  1 11  1  0
  3 12  1  0
  4 13  1  0
  5 14  1  0
  5 15  1  0
  7 16  1  0
  7 17  1  0
  8 18  1  0
M  END
