
     RDKit          3D

 19 20  0  0  0  0  0  0  0  0999 V2000
   -1.8443   -0.7405   -0.8226 C   0  0  0  0  0  0  0  0  0  0  0  0
   -0.7686    0.0740   -0.1519 C   0  0  0  0  0  0  0  0  0  0  0  0
    0.4782    0.3363   -1.0040 C   0  0  0  0  0  0  0  0  0  0  0  0
    1.0682   -0.8675   -1.3617 O   0  0  0  0  0  0  0  0  0  0  0  0
    2.2549   -0.4517   -0.8098 C   0  0  0  0  0  0  0  0  0  0  0  0
    1.6410    0.7486   -0.2105 C   0  0  0  0  0  0  0  0  0  0  0  0
    1.9890    1.6061    0.5542 O   0  0  0  0  0  0  0  0  0  0  0  0
   -0.4397   -0.2514    1.3095 C   0  0  0  0  0  0  0  0  0  0  0  0
   -1.0838    1.0460    0.9190 C   0  0  0  0  0  0  0  0  0  0  0  0
   -2.8472   -0.2861   -0.7412 H   0  0  0  0  0  0  0  0  0  0  0  0
   -1.8293   -1.7824   -0.3882 H   0  0  0  0  0  0  0  0  0  0  0  0
   -1.6069   -0.8751   -1.9020 H   0  0  0  0  0  0  0  0  0  0  0  0
    0.2297    1.0073   -1.8421 H   0  0  0  0  0  0  0  0  0  0  0  0
    2.6255   -1.1350    0.0050 H   0  0  0  0  0  0  0  0  0  0  0  0
    3.0725   -0.2701   -1.5422 H   0  0  0  0  0  0  0  0  0  0  0  0
   -1.0454   -1.0562    1.7777 H   0  0  0  0  0  0  0  0  0  0  0  0
    0.6217   -0.2356    1.6189 H   0  0  0  0  0  0  0  0  0  0  0  0
   -0.4160    1.9474    1.0012 H   0  0  0  0  0  0  0  0  0  0  0  0
   -2.0996    1.1858    1.2956 H   0  0  0  0  0  0  0  0  0  0  0  0
  1  2  1  0
  2  3  1  0
  3  4  1  0
  4  5  1  0
  5  6  1  0
  6  7  2  0
  2  8  1  0
  8  9  1  0
  9  2  1  0
  6  3  1  0
  1 10  1  0
  1 11  1  0
  1 12  1  0
  3 13  1  0
  5 14  1  0
  5 15  1  0
  8 16  1  0
  8 17  1  0
  9 18  1  0
  9 19  1  0
M  END
