
     RDKit          3D

 21 21  0  0  0  0  0  0  0  0999 V2000
    1.6536    0.9491    0.1963 C   0  0  0  0  0  0  0  0  0  0  0  0
    0.6546   -0.1105    0.3428 C   0  0  0  0  0  0  0  0  0  0  0  0
    0.9193   -0.8629    1.5111 O   0  0  0  0  0  0  0  0  0  0  0  0
    0.8096   -1.1052   -0.8161 C   0  0  0  0  0  0  0  0  0  0  0  0
   -0.3467   -0.8951   -1.6008 O   0  0  0  0  0  0  0  0  0  0  0  0
   -1.3356   -0.8811   -0.5915 C   0  0  0  0  0  0  0  0  0  0  0  0
   -0.7613    0.2251    0.3088 C   0  0  0  0  0  0  0  0  0  0  0  0
   -1.1794    1.5178   -0.2826 C   0  0  0  0  0  0  0  0  0  0  0  0
   -1.3645    0.0555    1.5559 O   0  0  0  0  0  0  0  0  0  0  0  0
    2.4583    0.8535    0.9843 H   0  0  0  0  0  0  0  0  0  0  0  0
    1.3102    1.9821    0.2443 H   0  0  0  0  0  0  0  0  0  0  0  0
    2.2270    0.8571   -0.7724 H   0  0  0  0  0  0  0  0  0  0  0  0
    1.4114   -1.6924    1.3071 H   0  0  0  0  0  0  0  0  0  0  0  0
    0.7451   -2.1473   -0.4676 H   0  0  0  0  0  0  0  0  0  0  0  0
    1.7248   -0.9053   -1.3907 H   0  0  0  0  0  0  0  0  0  0  0  0
   -2.3245   -0.6155   -0.9827 H   0  0  0  0  0  0  0  0  0  0  0  0
   -1.2791   -1.8568   -0.0918 H   0  0  0  0  0  0  0  0  0  0  0  0
   -0.6786    2.4077    0.0885 H   0  0  0  0  0  0  0  0  0  0  0  0
   -1.1688    1.4261   -1.4039 H   0  0  0  0  0  0  0  0  0  0  0  0
   -2.2695    1.6610   -0.0347 H   0  0  0  0  0  0  0  0  0  0  0  0
   -1.2055   -0.8629    1.8957 H   0  0  0  0  0  0  0  0  0  0  0  0
  1  2  1  0
  2  3  1  0
  2  4  1  0
  4  5  1  0
  5  6  1  0
  6  7  1  0
  7  8  1  0
  7  9  1  0
  7  2  1  0
  1 10  1  0
  1 11  1  0
  1 12  1  0
  3 13  1  0
  4 14  1  0
  4 15  1  0
  6 16  1  0
  6 17  1  0
  8 18  1  0
  8 19  1  0
  8 20  1  0
  9 21  1  0
M  END
