
     RDKit          3D

 21 22  0  0  0  0  0  0  0  0999 V2000
   -1.6035   -1.3682   -0.3721 C   0  0  0  0  0  0  0  0  0  0  0  0
   -1.3097    0.0801   -0.2275 C   0  0  0  0  0  0  0  0  0  0  0  0
    0.0995    0.6042   -0.2371 C   0  0  0  0  0  0  0  0  0  0  0  0
    0.9992    0.0857    0.8290 C   0  0  0  0  0  0  0  0  0  0  0  0
    2.0713   -0.1213   -0.2279 C   0  0  0  0  0  0  0  0  0  0  0  0
    3.0092    0.9107   -0.2261 O   0  0  0  0  0  0  0  0  0  0  0  0
    0.9998    0.0101   -1.2932 C   0  0  0  0  0  0  0  0  0  0  0  0
   -2.2761    0.9379    0.5762 C   0  0  0  0  0  0  0  0  0  0  0  0
   -2.3063    0.9103   -0.8110 O   0  0  0  0  0  0  0  0  0  0  0  0
   -2.6695   -1.5299   -0.0459 H   0  0  0  0  0  0  0  0  0  0  0  0
   -1.0005   -2.0321    0.2547 H   0  0  0  0  0  0  0  0  0  0  0  0
   -1.6043   -1.6828   -1.4549 H   0  0  0  0  0  0  0  0  0  0  0  0
    0.1446    1.7109   -0.2982 H   0  0  0  0  0  0  0  0  0  0  0  0
    0.6433   -0.8116    1.3326 H   0  0  0  0  0  0  0  0  0  0  0  0
    1.3099    0.8456    1.5981 H   0  0  0  0  0  0  0  0  0  0  0  0
    2.4865   -1.1456   -0.2416 H   0  0  0  0  0  0  0  0  0  0  0  0
    3.9323    0.5570   -0.1750 H   0  0  0  0  0  0  0  0  0  0  0  0
    1.3276    0.7053   -2.0921 H   0  0  0  0  0  0  0  0  0  0  0  0
    0.6560   -0.9341   -1.7426 H   0  0  0  0  0  0  0  0  0  0  0  0
   -1.9150    1.9046    0.9811 H   0  0  0  0  0  0  0  0  0  0  0  0
   -2.9943    0.3635    1.1712 H   0  0  0  0  0  0  0  0  0  0  0  0
  1  2  1  0
  2  3  1  0
  3  4  1  0
  4  5  1  0
  5  6  1  0
  5  7  1  0
  2  8  1  0
  8  9  1  0
  9  2  1  0
  7  3  1  0
  1 10  1  0
  1 11  1  0
  1 12  1  0
  3 13  1  0
  4 14  1  0
  4 15  1  0
  5 16  1  0
  6 17  1  0
  7 18  1  0
  7 19  1  0
  8 20  1  0
  8 21  1  0
M  END
