
     RDKit          3D

 17 17  0  0  0  0  0  0  0  0999 V2000
   -1.9905   -0.6169    0.2513 C   0  0  0  0  0  0  0  0  0  0  0  0
   -0.7602    0.1469   -0.1452 C   0  0  0  0  0  0  0  0  0  0  0  0
   -0.8743    0.8817   -1.3177 O   0  0  0  0  0  0  0  0  0  0  0  0
   -0.1519    0.9804    0.9247 C   0  0  0  0  0  0  0  0  0  0  0  0
   -0.1967    2.2046    1.2332 O   0  0  0  0  0  0  0  0  0  0  0  0
    0.4587   -0.1823    1.3966 O   0  0  0  0  0  0  0  0  0  0  0  0
    0.5007   -0.6264    0.0390 C   0  0  0  0  0  0  0  0  0  0  0  0
    1.7228   -0.0679   -0.6468 C   0  0  0  0  0  0  0  0  0  0  0  0
    2.8451   -0.5425    0.0637 O   0  0  0  0  0  0  0  0  0  0  0  0
   -2.8776   -0.2080   -0.2482 H   0  0  0  0  0  0  0  0  0  0  0  0
   -2.1065   -0.5348    1.3444 H   0  0  0  0  0  0  0  0  0  0  0  0
   -1.8111   -1.6916   -0.0164 H   0  0  0  0  0  0  0  0  0  0  0  0
   -1.8382    1.1757   -1.3571 H   0  0  0  0  0  0  0  0  0  0  0  0
    0.4347   -1.7216    0.0182 H   0  0  0  0  0  0  0  0  0  0  0  0
    1.7436    1.0390   -0.5874 H   0  0  0  0  0  0  0  0  0  0  0  0
    1.7603   -0.3805   -1.6893 H   0  0  0  0  0  0  0  0  0  0  0  0
    3.1411    0.1441    0.7368 H   0  0  0  0  0  0  0  0  0  0  0  0
  1  2  1  0
  2  3  1  0
  2  4  1  0
  4  5  2  0
  4  6  1  0
  6  7  1  0
  7  8  1  0
  8  9  1  0
  7  2  1  0
  1 10  1  0
  1 11  1  0
  1 12  1  0
  3 13  1  0
  7 14  1  0
  8 15  1  0
  8 16  1  0
  9 17  1  0
M  END
