
     RDKit          3D

 23 24  0  0  0  0  0  0  0  0999 V2000
   -2.4820   -0.4870   -0.6281 C   0  0  0  0  0  0  0  0  0  0  0  0
   -1.1360   -0.0171   -0.0506 C   0  0  0  0  0  0  0  0  0  0  0  0
   -1.2336    1.3317    0.5775 C   0  0  0  0  0  0  0  0  0  0  0  0
   -0.4383   -1.0501    0.7282 C   0  0  0  0  0  0  0  0  0  0  0  0
    0.8957   -0.6813    1.3209 C   0  0  0  0  0  0  0  0  0  0  0  0
    1.4206   -0.5514   -0.0805 C   0  0  0  0  0  0  0  0  0  0  0  0
    2.2358    0.6730   -0.3844 C   0  0  0  0  0  0  0  0  0  0  0  0
    2.6141    0.5856   -1.7245 O   0  0  0  0  0  0  0  0  0  0  0  0
    0.0607   -0.5658   -0.6686 C   0  0  0  0  0  0  0  0  0  0  0  0
   -3.0709   -0.8154    0.2646 H   0  0  0  0  0  0  0  0  0  0  0  0
   -2.9932    0.3461   -1.1417 H   0  0  0  0  0  0  0  0  0  0  0  0
   -2.3037   -1.3639   -1.2890 H   0  0  0  0  0  0  0  0  0  0  0  0
   -2.1436    1.3151    1.2471 H   0  0  0  0  0  0  0  0  0  0  0  0
   -0.3619    1.6541    1.1593 H   0  0  0  0  0  0  0  0  0  0  0  0
   -1.4737    2.1054   -0.1912 H   0  0  0  0  0  0  0  0  0  0  0  0
   -0.7908   -2.0967    0.7848 H   0  0  0  0  0  0  0  0  0  0  0  0
    1.2835   -1.5437    1.8990 H   0  0  0  0  0  0  0  0  0  0  0  0
    0.9276    0.2669    1.8893 H   0  0  0  0  0  0  0  0  0  0  0  0
    1.9954   -1.4904   -0.3326 H   0  0  0  0  0  0  0  0  0  0  0  0
    3.1264    0.7630    0.2751 H   0  0  0  0  0  0  0  0  0  0  0  0
    1.6204    1.5730   -0.1835 H   0  0  0  0  0  0  0  0  0  0  0  0
    2.3386    1.3484   -2.2650 H   0  0  0  0  0  0  0  0  0  0  0  0
   -0.0915   -1.2995   -1.5137 H   0  0  0  0  0  0  0  0  0  0  0  0
  1  2  1  0
  2  3  1  0
  2  4  1  0
  4  5  1  0
  5  6  1  0
  6  7  1  0
  7  8  1  0
  6  9  1  0
  9  2  1  0
  9  4  1  0
  1 10  1  0
  1 11  1  0
  1 12  1  0
  3 13  1  0
  3 14  1  0
  3 15  1  0
  4 16  1  0
  5 17  1  0
  5 18  1  0
  6 19  1  0
  7 20  1  0
  7 21  1  0
  8 22  1  0
  9 23  1  0
M  END
