
     RDKit          3D

 22 22  0  0  0  0  0  0  0  0999 V2000
   -1.0921    1.3155   -0.6950 C   0  0  0  0  0  0  0  0  0  0  0  0
   -0.7626    0.0991    0.1133 C   0  0  0  0  0  0  0  0  0  0  0  0
   -2.1098   -0.5188    0.5088 C   0  0  0  0  0  0  0  0  0  0  0  0
   -0.0064   -0.9481   -0.6384 C   0  0  0  0  0  0  0  0  0  0  0  0
    1.2842   -1.2999    0.0841 C   0  0  0  0  0  0  0  0  0  0  0  0
    2.0440   -0.0120    0.2806 C   0  0  0  0  0  0  0  0  0  0  0  0
    1.1491    0.9703    1.0074 C   0  0  0  0  0  0  0  0  0  0  0  0
   -0.0856    0.4220    1.3039 O   0  0  0  0  0  0  0  0  0  0  0  0
   -0.3172    1.6477   -1.3763 H   0  0  0  0  0  0  0  0  0  0  0  0
   -2.0366    1.1663   -1.2777 H   0  0  0  0  0  0  0  0  0  0  0  0
   -1.3101    2.1585    0.0057 H   0  0  0  0  0  0  0  0  0  0  0  0
   -2.8614    0.2671    0.6979 H   0  0  0  0  0  0  0  0  0  0  0  0
   -2.4376   -1.2619   -0.2526 H   0  0  0  0  0  0  0  0  0  0  0  0
   -1.9284   -1.0529    1.4579 H   0  0  0  0  0  0  0  0  0  0  0  0
    0.2738   -0.6324   -1.6665 H   0  0  0  0  0  0  0  0  0  0  0  0
   -0.5665   -1.9146   -0.7355 H   0  0  0  0  0  0  0  0  0  0  0  0
    1.8539   -2.0503   -0.4752 H   0  0  0  0  0  0  0  0  0  0  0  0
    0.9889   -1.7330    1.0664 H   0  0  0  0  0  0  0  0  0  0  0  0
    2.3624    0.3636   -0.7139 H   0  0  0  0  0  0  0  0  0  0  0  0
    2.9981   -0.1851    0.8466 H   0  0  0  0  0  0  0  0  0  0  0  0
    1.6109    1.3122    1.9664 H   0  0  0  0  0  0  0  0  0  0  0  0
    0.9488    1.8865    0.3927 H   0  0  0  0  0  0  0  0  0  0  0  0
  1  2  1  0
  2  3  1  0
  2  4  1  0
  4  5  1  0
  5  6  1  0
  6  7  1  0
  7  8  1  0
  8  2  1  0
  1  9  1  0
  1 10  1  0
  1 11  1  0
  3 12  1  0
  3 13  1  0
  3 14  1  0
  4 15  1  0
  4 16  1  0
  5 17  1  0
  5 18  1  0
  6 19  1  0
  6 20  1  0
  7 21  1  0
  7 22  1  0
M  END
