
     RDKit          3D

 23 24  0  0  0  0  0  0  0  0999 V2000
    1.5477    0.2083   -1.2731 C   0  0  0  0  0  0  0  0  0  0  0  0
    0.5405   -0.0908   -0.1958 C   0  0  0  0  0  0  0  0  0  0  0  0
    1.3463   -0.3538    1.0809 C   0  0  0  0  0  0  0  0  0  0  0  0
    2.0855    0.7816    1.3764 O   0  0  0  0  0  0  0  0  0  0  0  0
   -0.3467   -1.2256   -0.5519 C   0  0  0  0  0  0  0  0  0  0  0  0
   -1.6031   -1.0553    0.2682 C   0  0  0  0  0  0  0  0  0  0  0  0
   -1.6363    0.4214    0.5810 C   0  0  0  0  0  0  0  0  0  0  0  0
   -1.6225    1.3038   -0.6299 C   0  0  0  0  0  0  0  0  0  0  0  0
   -0.3889    1.0375    0.0953 C   0  0  0  0  0  0  0  0  0  0  0  0
    2.1535   -0.7201   -1.4122 H   0  0  0  0  0  0  0  0  0  0  0  0
    1.0208    0.3675   -2.2345 H   0  0  0  0  0  0  0  0  0  0  0  0
    2.2028    1.0418   -0.9784 H   0  0  0  0  0  0  0  0  0  0  0  0
    2.0802   -1.1761    0.9136 H   0  0  0  0  0  0  0  0  0  0  0  0
    0.6474   -0.6237    1.8971 H   0  0  0  0  0  0  0  0  0  0  0  0
    2.5099    0.6010    2.2752 H   0  0  0  0  0  0  0  0  0  0  0  0
    0.0664   -2.2278   -0.3536 H   0  0  0  0  0  0  0  0  0  0  0  0
   -0.6118   -1.1309   -1.6359 H   0  0  0  0  0  0  0  0  0  0  0  0
   -1.6442   -1.6828    1.1576 H   0  0  0  0  0  0  0  0  0  0  0  0
   -2.4992   -1.2769   -0.3801 H   0  0  0  0  0  0  0  0  0  0  0  0
   -2.0436    0.7574    1.5375 H   0  0  0  0  0  0  0  0  0  0  0  0
   -1.8359    0.8422   -1.6375 H   0  0  0  0  0  0  0  0  0  0  0  0
   -2.0365    2.3313   -0.5715 H   0  0  0  0  0  0  0  0  0  0  0  0
    0.0675    1.8700    0.6717 H   0  0  0  0  0  0  0  0  0  0  0  0
  1  2  1  0
  2  3  1  0
  3  4  1  0
  2  5  1  0
  5  6  1  0
  6  7  1  0
  7  8  1  0
  8  9  1  0
  9  2  1  0
  9  7  1  0
  1 10  1  0
  1 11  1  0
  1 12  1  0
  3 13  1  0
  3 14  1  0
  4 15  1  0
  5 16  1  0
  5 17  1  0
  6 18  1  0
  6 19  1  0
  7 20  1  0
  8 21  1  0
  8 22  1  0
  9 23  1  0
M  END
