
     RDKit          3D

 23 24  0  0  0  0  0  0  0  0999 V2000
    0.9388   -0.3194    1.8719 C   0  0  0  0  0  0  0  0  0  0  0  0
    0.7146   -0.2492    0.3581 C   0  0  0  0  0  0  0  0  0  0  0  0
    1.9746   -0.6337   -0.3706 C   0  0  0  0  0  0  0  0  0  0  0  0
    1.8317   -0.5831   -1.7283 O   0  0  0  0  0  0  0  0  0  0  0  0
    0.1910    1.0785   -0.0596 C   0  0  0  0  0  0  0  0  0  0  0  0
   -1.0725    0.4579   -0.6110 C   0  0  0  0  0  0  0  0  0  0  0  0
   -2.3974    0.9250   -0.0944 C   0  0  0  0  0  0  0  0  0  0  0  0
   -1.0011   -0.7357   -1.4714 C   0  0  0  0  0  0  0  0  0  0  0  0
   -0.5486   -0.8954   -0.0891 C   0  0  0  0  0  0  0  0  0  0  0  0
    0.2809    0.3749    2.4167 H   0  0  0  0  0  0  0  0  0  0  0  0
    1.9807    0.0212    2.0373 H   0  0  0  0  0  0  0  0  0  0  0  0
    0.7973   -1.3436    2.2460 H   0  0  0  0  0  0  0  0  0  0  0  0
    2.3676   -1.6030    0.0050 H   0  0  0  0  0  0  0  0  0  0  0  0
    2.7741    0.1154   -0.0983 H   0  0  0  0  0  0  0  0  0  0  0  0
    2.1237    0.2505   -2.1556 H   0  0  0  0  0  0  0  0  0  0  0  0
   -0.0681    1.7445    0.8126 H   0  0  0  0  0  0  0  0  0  0  0  0
    0.7831    1.6652   -0.7722 H   0  0  0  0  0  0  0  0  0  0  0  0
   -2.6056    1.9113   -0.5103 H   0  0  0  0  0  0  0  0  0  0  0  0
   -3.1776    0.1807   -0.3717 H   0  0  0  0  0  0  0  0  0  0  0  0
   -2.3064    1.0478    1.0099 H   0  0  0  0  0  0  0  0  0  0  0  0
   -0.3530   -0.8394   -2.3378 H   0  0  0  0  0  0  0  0  0  0  0  0
   -2.0128   -1.2088   -1.6657 H   0  0  0  0  0  0  0  0  0  0  0  0
   -1.2153   -1.3617    0.6839 H   0  0  0  0  0  0  0  0  0  0  0  0
  1  2  1  0
  2  3  1  0
  3  4  1  0
  2  5  1  0
  5  6  1  0
  6  7  1  0
  6  8  1  0
  8  9  1  0
  9  2  1  0
  9  6  1  0
  1 10  1  0
  1 11  1  0
  1 12  1  0
  3 13  1  0
  3 14  1  0
  4 15  1  0
  5 16  1  0
  5 17  1  0
  7 18  1  0
  7 19  1  0
  7 20  1  0
  8 21  1  0
  8 22  1  0
  9 23  1  0
M  END
