
     RDKit          3D

 23 24  0  0  0  0  0  0  0  0999 V2000
   -1.5502   -1.3699   -0.0346 C   0  0  0  0  0  0  0  0  0  0  0  0
   -1.3916    0.1206    0.1514 C   0  0  0  0  0  0  0  0  0  0  0  0
   -2.3252    0.7198    1.0169 O   0  0  0  0  0  0  0  0  0  0  0  0
   -0.8160    0.8867   -0.9649 C   0  0  0  0  0  0  0  0  0  0  0  0
    0.0394    0.6598    0.2127 C   0  0  0  0  0  0  0  0  0  0  0  0
    0.2430    1.8015    1.2153 C   0  0  0  0  0  0  0  0  0  0  0  0
    1.1512   -0.3425    0.2151 C   0  0  0  0  0  0  0  0  0  0  0  0
    1.2941   -1.2658   -0.9312 C   0  0  0  0  0  0  0  0  0  0  0  0
    2.3434   -0.2092   -0.6467 C   0  0  0  0  0  0  0  0  0  0  0  0
   -1.5389   -1.6392   -1.1110 H   0  0  0  0  0  0  0  0  0  0  0  0
   -2.4675   -1.7191    0.4800 H   0  0  0  0  0  0  0  0  0  0  0  0
   -0.6700   -1.8700    0.4253 H   0  0  0  0  0  0  0  0  0  0  0  0
   -2.7439    0.0341    1.5922 H   0  0  0  0  0  0  0  0  0  0  0  0
   -1.1151    1.9581   -1.1273 H   0  0  0  0  0  0  0  0  0  0  0  0
   -0.5895    0.3869   -1.9281 H   0  0  0  0  0  0  0  0  0  0  0  0
   -0.6305    2.4594    1.2076 H   0  0  0  0  0  0  0  0  0  0  0  0
    1.1953    2.3063    0.9498 H   0  0  0  0  0  0  0  0  0  0  0  0
    0.3416    1.3698    2.2395 H   0  0  0  0  0  0  0  0  0  0  0  0
    1.3427   -0.7621    1.2471 H   0  0  0  0  0  0  0  0  0  0  0  0
    1.5397   -2.3274   -0.6720 H   0  0  0  0  0  0  0  0  0  0  0  0
    0.6972   -1.1914   -1.8496 H   0  0  0  0  0  0  0  0  0  0  0  0
    3.2952   -0.6106   -0.2820 H   0  0  0  0  0  0  0  0  0  0  0  0
    2.3557    0.6041   -1.4054 H   0  0  0  0  0  0  0  0  0  0  0  0
  1  2  1  0
  2  3  1  0
  2  4  1  0
  4  5  1  0
  5  6  1  0
  5  7  1  0
  7  8  1  0
  8  9  1  0
  5  2  1  0
  9  7  1  0
  1 10  1  0
  1 11  1  0
  1 12  1  0
  3 13  1  0
  4 14  1  0
  4 15  1  0
  6 16  1  0
  6 17  1  0
  6 18  1  0
  7 19  1  0
  8 20  1  0
  8 21  1  0
  9 22  1  0
  9 23  1  0
M  END
