
     RDKit          3D

 17 17  0  0  0  0  0  0  0  0999 V2000
    0.7562    0.7400   -0.6542 C   0  0  0  0  0  0  0  0  0  0  0  0
    0.2744    0.2273    0.6782 C   0  0  0  0  0  0  0  0  0  0  0  0
    1.2677   -0.2572    1.5491 O   0  0  0  0  0  0  0  0  0  0  0  0
    2.1157   -1.3015    1.2724 C   0  0  0  0  0  0  0  0  0  0  0  0
    1.9965   -1.8659    0.1608 O   0  0  0  0  0  0  0  0  0  0  0  0
   -0.8260    0.9986    1.3927 C   0  0  0  0  0  0  0  0  0  0  0  0
   -1.0888   -0.3463    0.7504 C   0  0  0  0  0  0  0  0  0  0  0  0
   -2.0089   -0.2917   -0.3947 C   0  0  0  0  0  0  0  0  0  0  0  0
   -2.8446   -1.1600   -0.5519 O   0  0  0  0  0  0  0  0  0  0  0  0
    0.0065    0.5803   -1.4544 H   0  0  0  0  0  0  0  0  0  0  0  0
    1.0621    1.8229   -0.5970 H   0  0  0  0  0  0  0  0  0  0  0  0
    1.6657    0.1772   -0.9275 H   0  0  0  0  0  0  0  0  0  0  0  0
    2.8450   -1.5914    2.0183 H   0  0  0  0  0  0  0  0  0  0  0  0
   -1.1652    1.9218    0.8600 H   0  0  0  0  0  0  0  0  0  0  0  0
   -0.8331    1.0563    2.4808 H   0  0  0  0  0  0  0  0  0  0  0  0
   -1.2150   -1.2018    1.4238 H   0  0  0  0  0  0  0  0  0  0  0  0
   -2.0082    0.4915   -1.1476 H   0  0  0  0  0  0  0  0  0  0  0  0
  1  2  1  0
  2  3  1  0
  3  4  1  0
  4  5  2  0
  2  6  1  0
  6  7  1  0
  7  8  1  0
  8  9  2  0
  7  2  1  0
  1 10  1  0
  1 11  1  0
  1 12  1  0
  4 13  1  0
  6 14  1  0
  6 15  1  0
  7 16  1  0
  8 17  1  0
M  END
