
     RDKit          3D

 21 22  0  0  0  0  0  0  0  0999 V2000
   -1.8877   -0.7901   -0.6303 C   0  0  0  0  0  0  0  0  0  0  0  0
   -0.7805    0.1075   -0.1749 C   0  0  0  0  0  0  0  0  0  0  0  0
   -1.2323    1.4322    0.3808 C   0  0  0  0  0  0  0  0  0  0  0  0
    0.3536   -0.5146    0.5457 C   0  0  0  0  0  0  0  0  0  0  0  0
    0.2773   -1.8193    0.9320 O   0  0  0  0  0  0  0  0  0  0  0  0
    1.5486    0.2801    0.9590 C   0  0  0  0  0  0  0  0  0  0  0  0
    1.7189    0.7713   -0.4718 C   0  0  0  0  0  0  0  0  0  0  0  0
    0.5202   -0.0636   -0.8408 C   0  0  0  0  0  0  0  0  0  0  0  0
    0.6617   -1.0747   -1.7954 O   0  0  0  0  0  0  0  0  0  0  0  0
   -1.9116   -1.7629   -0.0978 H   0  0  0  0  0  0  0  0  0  0  0  0
   -2.8916   -0.2959   -0.5745 H   0  0  0  0  0  0  0  0  0  0  0  0
   -1.7656   -1.0371   -1.7257 H   0  0  0  0  0  0  0  0  0  0  0  0
   -0.4644    1.8964    1.0568 H   0  0  0  0  0  0  0  0  0  0  0  0
   -1.4722    2.1773   -0.3764 H   0  0  0  0  0  0  0  0  0  0  0  0
   -2.0983    1.2016    1.0665 H   0  0  0  0  0  0  0  0  0  0  0  0
    0.1340   -1.8260    1.9320 H   0  0  0  0  0  0  0  0  0  0  0  0
    2.4239   -0.3682    1.2177 H   0  0  0  0  0  0  0  0  0  0  0  0
    1.3815    1.1413    1.6220 H   0  0  0  0  0  0  0  0  0  0  0  0
    1.5015    1.8422   -0.6163 H   0  0  0  0  0  0  0  0  0  0  0  0
    2.6149    0.3930   -0.9925 H   0  0  0  0  0  0  0  0  0  0  0  0
    1.3679   -1.6904   -1.4161 H   0  0  0  0  0  0  0  0  0  0  0  0
  1  2  1  0
  2  3  1  0
  2  4  1  0
  4  5  1  0
  4  6  1  0
  6  7  1  0
  7  8  1  0
  8  9  1  0
  8  2  1  0
  8  4  1  0
  1 10  1  0
  1 11  1  0
  1 12  1  0
  3 13  1  0
  3 14  1  0
  3 15  1  0
  5 16  1  0
  6 17  1  0
  6 18  1  0
  7 19  1  0
  7 20  1  0
  9 21  1  0
M  END
