
     RDKit          3D

 17 17  0  0  0  0  0  0  0  0999 V2000
    1.5994    0.1399   -0.3723 C   0  0  0  0  0  0  0  0  0  0  0  0
    0.3120   -0.5311   -0.0186 C   0  0  0  0  0  0  0  0  0  0  0  0
    0.3561   -1.8779   -0.2941 O   0  0  0  0  0  0  0  0  0  0  0  0
   -0.0157   -0.2259    1.3959 C   0  0  0  0  0  0  0  0  0  0  0  0
    0.3525   -0.8499    2.4258 O   0  0  0  0  0  0  0  0  0  0  0  0
   -0.8291    0.9075    1.4059 O   0  0  0  0  0  0  0  0  0  0  0  0
   -1.0009    1.4097    0.0989 C   0  0  0  0  0  0  0  0  0  0  0  0
   -0.8318    0.1482   -0.7478 C   0  0  0  0  0  0  0  0  0  0  0  0
   -2.0065   -0.5639   -0.6953 O   0  0  0  0  0  0  0  0  0  0  0  0
    2.2127   -0.5326   -1.0005 H   0  0  0  0  0  0  0  0  0  0  0  0
    1.4512    1.1015   -0.9112 H   0  0  0  0  0  0  0  0  0  0  0  0
    2.2324    0.3875    0.5140 H   0  0  0  0  0  0  0  0  0  0  0  0
    0.7987   -2.3949    0.4357 H   0  0  0  0  0  0  0  0  0  0  0  0
   -0.1836    2.1369   -0.1141 H   0  0  0  0  0  0  0  0  0  0  0  0
   -2.0074    1.8571   -0.0297 H   0  0  0  0  0  0  0  0  0  0  0  0
   -0.5176    0.3614   -1.7681 H   0  0  0  0  0  0  0  0  0  0  0  0
   -1.9223   -1.4738   -0.3244 H   0  0  0  0  0  0  0  0  0  0  0  0
  1  2  1  0
  2  3  1  0
  2  4  1  0
  4  5  2  0
  4  6  1  0
  6  7  1  0
  7  8  1  0
  8  9  1  0
  8  2  1  0
  1 10  1  0
  1 11  1  0
  1 12  1  0
  3 13  1  0
  7 14  1  0
  7 15  1  0
  8 16  1  0
  9 17  1  0
M  END
