
     RDKit          3D

 23 23  0  0  0  0  0  0  0  0999 V2000
   -1.9487   -0.7764   -1.1038 C   0  0  0  0  0  0  0  0  0  0  0  0
   -1.2910   -0.2940    0.1665 C   0  0  0  0  0  0  0  0  0  0  0  0
   -1.6611    1.1213    0.4514 C   0  0  0  0  0  0  0  0  0  0  0  0
   -1.3985   -1.1490    1.2560 O   0  0  0  0  0  0  0  0  0  0  0  0
   -0.0269   -1.0029    1.5509 C   0  0  0  0  0  0  0  0  0  0  0  0
    0.1944   -0.5989    0.1352 C   0  0  0  0  0  0  0  0  0  0  0  0
    0.9763    0.6411   -0.1209 C   0  0  0  0  0  0  0  0  0  0  0  0
    2.4611    0.4288   -0.1680 C   0  0  0  0  0  0  0  0  0  0  0  0
    2.8083   -0.4580   -1.1690 O   0  0  0  0  0  0  0  0  0  0  0  0
   -2.9217   -0.2770   -1.2870 H   0  0  0  0  0  0  0  0  0  0  0  0
   -2.0815   -1.8780   -1.1236 H   0  0  0  0  0  0  0  0  0  0  0  0
   -1.2633   -0.5274   -1.9569 H   0  0  0  0  0  0  0  0  0  0  0  0
   -1.0459    1.8736   -0.0772 H   0  0  0  0  0  0  0  0  0  0  0  0
   -1.5909    1.3617    1.5370 H   0  0  0  0  0  0  0  0  0  0  0  0
   -2.7095    1.2797    0.0668 H   0  0  0  0  0  0  0  0  0  0  0  0
    0.1675   -0.2526    2.3211 H   0  0  0  0  0  0  0  0  0  0  0  0
    0.4303   -1.9999    1.8123 H   0  0  0  0  0  0  0  0  0  0  0  0
    0.4357   -1.4789   -0.4911 H   0  0  0  0  0  0  0  0  0  0  0  0
    0.6713    1.0396   -1.1147 H   0  0  0  0  0  0  0  0  0  0  0  0
    0.7725    1.3570    0.7068 H   0  0  0  0  0  0  0  0  0  0  0  0
    2.9173    1.4440   -0.3617 H   0  0  0  0  0  0  0  0  0  0  0  0
    2.7942    0.1207    0.8377 H   0  0  0  0  0  0  0  0  0  0  0  0
    3.3101    0.0258   -1.8679 H   0  0  0  0  0  0  0  0  0  0  0  0
  1  2  1  0
  2  3  1  0
  2  4  1  0
  4  5  1  0
  5  6  1  0
  6  7  1  0
  7  8  1  0
  8  9  1  0
  6  2  1  0
  1 10  1  0
  1 11  1  0
  1 12  1  0
  3 13  1  0
  3 14  1  0
  3 15  1  0
  5 16  1  0
  5 17  1  0
  6 18  1  0
  7 19  1  0
  7 20  1  0
  8 21  1  0
  8 22  1  0
  9 23  1  0
M  END
