
     RDKit          3D

 23 23  0  0  0  0  0  0  0  0999 V2000
   -2.7619   -0.7843   -0.0608 C   0  0  0  0  0  0  0  0  0  0  0  0
   -1.4717    0.0143    0.1604 C   0  0  0  0  0  0  0  0  0  0  0  0
   -0.2524   -0.6923   -0.3555 C   0  0  0  0  0  0  0  0  0  0  0  0
    0.8936    0.0726   -0.1315 O   0  0  0  0  0  0  0  0  0  0  0  0
    1.9966   -0.6461   -0.6377 C   0  0  0  0  0  0  0  0  0  0  0  0
    3.2299    0.2284   -0.3711 C   0  0  0  0  0  0  0  0  0  0  0  0
    3.3218    0.4224    1.0044 O   0  0  0  0  0  0  0  0  0  0  0  0
   -1.5371    1.5011    0.1246 C   0  0  0  0  0  0  0  0  0  0  0  0
   -1.4465    0.7833    1.4202 C   0  0  0  0  0  0  0  0  0  0  0  0
   -2.6466   -1.6949    0.5914 H   0  0  0  0  0  0  0  0  0  0  0  0
   -3.6252   -0.2357    0.3208 H   0  0  0  0  0  0  0  0  0  0  0  0
   -2.8110   -1.0442   -1.1194 H   0  0  0  0  0  0  0  0  0  0  0  0
   -0.1430   -1.7023    0.0736 H   0  0  0  0  0  0  0  0  0  0  0  0
   -0.2989   -0.8385   -1.4676 H   0  0  0  0  0  0  0  0  0  0  0  0
    1.8527   -0.7978   -1.7182 H   0  0  0  0  0  0  0  0  0  0  0  0
    2.0497   -1.5864   -0.0833 H   0  0  0  0  0  0  0  0  0  0  0  0
    4.1417   -0.2408   -0.7937 H   0  0  0  0  0  0  0  0  0  0  0  0
    3.0929    1.2282   -0.8271 H   0  0  0  0  0  0  0  0  0  0  0  0
    2.4451    0.3681    1.4549 H   0  0  0  0  0  0  0  0  0  0  0  0
   -0.6518    2.0359   -0.2566 H   0  0  0  0  0  0  0  0  0  0  0  0
   -2.4952    1.9289   -0.2305 H   0  0  0  0  0  0  0  0  0  0  0  0
   -0.5167    0.8402    2.0171 H   0  0  0  0  0  0  0  0  0  0  0  0
   -2.3658    0.8399    2.0558 H   0  0  0  0  0  0  0  0  0  0  0  0
  1  2  1  0
  2  3  1  0
  3  4  1  0
  4  5  1  0
  5  6  1  0
  6  7  1  0
  2  8  1  0
  8  9  1  0
  9  2  1  0
  1 10  1  0
  1 11  1  0
  1 12  1  0
  3 13  1  0
  3 14  1  0
  5 15  1  0
  5 16  1  0
  6 17  1  0
  6 18  1  0
  7 19  1  0
  8 20  1  0
  8 21  1  0
  9 22  1  0
  9 23  1  0
M  END
