
     RDKit          3D

 21 22  0  0  0  0  0  0  0  0999 V2000
    1.8402   -0.4298   -0.7315 C   0  0  0  0  0  0  0  0  0  0  0  0
    0.6993   -0.4660    0.2939 C   0  0  0  0  0  0  0  0  0  0  0  0
    0.6930   -1.6563    0.9977 O   0  0  0  0  0  0  0  0  0  0  0  0
    0.9002    0.7225    1.1584 C   0  0  0  0  0  0  0  0  0  0  0  0
    0.2759    1.7498    0.5978 C   0  0  0  0  0  0  0  0  0  0  0  0
   -0.3878    1.3065   -0.6874 C   0  0  0  0  0  0  0  0  0  0  0  0
   -0.5936   -0.1367   -0.3514 C   0  0  0  0  0  0  0  0  0  0  0  0
   -1.8279   -0.4368    0.4675 C   0  0  0  0  0  0  0  0  0  0  0  0
   -1.5454   -1.0329   -0.9152 C   0  0  0  0  0  0  0  0  0  0  0  0
    2.1649    0.6216   -0.8884 H   0  0  0  0  0  0  0  0  0  0  0  0
    1.5710   -0.9564   -1.6531 H   0  0  0  0  0  0  0  0  0  0  0  0
    2.7062   -0.9210   -0.2001 H   0  0  0  0  0  0  0  0  0  0  0  0
    0.6176   -1.5498    1.9651 H   0  0  0  0  0  0  0  0  0  0  0  0
    1.4713    0.7169    2.0920 H   0  0  0  0  0  0  0  0  0  0  0  0
    0.2510    2.7549    1.0082 H   0  0  0  0  0  0  0  0  0  0  0  0
   -1.2995    1.8636   -0.8949 H   0  0  0  0  0  0  0  0  0  0  0  0
    0.3663    1.3668   -1.5000 H   0  0  0  0  0  0  0  0  0  0  0  0
   -2.6230    0.3319    0.5336 H   0  0  0  0  0  0  0  0  0  0  0  0
   -1.7237   -1.0635    1.3527 H   0  0  0  0  0  0  0  0  0  0  0  0
   -2.2330   -0.6650   -1.7111 H   0  0  0  0  0  0  0  0  0  0  0  0
   -1.3230   -2.1202   -0.9339 H   0  0  0  0  0  0  0  0  0  0  0  0
  1  2  1  0
  2  3  1  0
  2  4  1  0
  4  5  2  0
  5  6  1  0
  6  7  1  0
  7  8  1  0
  8  9  1  0
  7  2  1  0
  9  7  1  0
  1 10  1  0
  1 11  1  0
  1 12  1  0
  3 13  1  0
  4 14  1  0
  5 15  1  0
  6 16  1  0
  6 17  1  0
  8 18  1  0
  8 19  1  0
  9 20  1  0
  9 21  1  0
M  END
