
     RDKit          3D

 20 20  0  0  0  0  0  0  0  0999 V2000
   -1.4058    1.0069   -0.7214 C   0  0  0  0  0  0  0  0  0  0  0  0
   -0.6164   -0.1143   -0.0844 C   0  0  0  0  0  0  0  0  0  0  0  0
   -1.5151   -0.7939    0.8961 C   0  0  0  0  0  0  0  0  0  0  0  0
   -0.0078   -1.0268   -1.0759 C   0  0  0  0  0  0  0  0  0  0  0  0
    1.3120   -1.0287   -0.9574 C   0  0  0  0  0  0  0  0  0  0  0  0
    1.7524   -0.1300    0.1140 C   0  0  0  0  0  0  0  0  0  0  0  0
    2.5534    0.9306   -0.3612 O   0  0  0  0  0  0  0  0  0  0  0  0
    0.5128    0.5072    0.6934 C   0  0  0  0  0  0  0  0  0  0  0  0
   -2.4380    0.6748   -1.0116 H   0  0  0  0  0  0  0  0  0  0  0  0
   -1.5846    1.7576    0.1058 H   0  0  0  0  0  0  0  0  0  0  0  0
   -0.9038    1.4778   -1.5665 H   0  0  0  0  0  0  0  0  0  0  0  0
   -1.7511   -0.0335    1.6895 H   0  0  0  0  0  0  0  0  0  0  0  0
   -2.4829   -1.1043    0.4819 H   0  0  0  0  0  0  0  0  0  0  0  0
   -0.9488   -1.6050    1.3901 H   0  0  0  0  0  0  0  0  0  0  0  0
   -0.5802   -1.5979   -1.7836 H   0  0  0  0  0  0  0  0  0  0  0  0
    1.9752   -1.6146   -1.5691 H   0  0  0  0  0  0  0  0  0  0  0  0
    2.3565   -0.6279    0.8940 H   0  0  0  0  0  0  0  0  0  0  0  0
    2.7727    1.4631    0.4460 H   0  0  0  0  0  0  0  0  0  0  0  0
    0.4796    0.2518    1.7813 H   0  0  0  0  0  0  0  0  0  0  0  0
    0.5198    1.6069    0.6387 H   0  0  0  0  0  0  0  0  0  0  0  0
  1  2  1  0
  2  3  1  0
  2  4  1  0
  4  5  2  0
  5  6  1  0
  6  7  1  0
  6  8  1  0
  8  2  1  0
  1  9  1  0
  1 10  1  0
  1 11  1  0
  3 12  1  0
  3 13  1  0
  3 14  1  0
  4 15  1  0
  5 16  1  0
  6 17  1  0
  7 18  1  0
  8 19  1  0
  8 20  1  0
M  END
