
     RDKit          3D

 17 19  0  0  0  0  0  0  0  0999 V2000
    0.8882    1.5606   -0.0640 C   0  0  0  0  0  0  0  0  0  0  0  0
    0.7464    0.0580   -0.0871 C   0  0  0  0  0  0  0  0  0  0  0  0
    2.0476   -0.6885   -0.1988 C   0  0  0  0  0  0  0  0  0  0  0  0
    2.0043   -1.9200   -0.2229 O   0  0  0  0  0  0  0  0  0  0  0  0
   -0.3932   -0.5950   -0.7695 C   0  0  0  0  0  0  0  0  0  0  0  0
   -1.8028   -0.1378   -0.5990 C   0  0  0  0  0  0  0  0  0  0  0  0
   -2.0726    1.0190    0.0988 O   0  0  0  0  0  0  0  0  0  0  0  0
   -1.6317    0.0150    0.9159 C   0  0  0  0  0  0  0  0  0  0  0  0
   -0.2645   -0.5841    0.7637 C   0  0  0  0  0  0  0  0  0  0  0  0
    0.3301    2.0525   -0.9021 H   0  0  0  0  0  0  0  0  0  0  0  0
    0.5044    1.9246    0.9257 H   0  0  0  0  0  0  0  0  0  0  0  0
    1.9560    1.8658   -0.2159 H   0  0  0  0  0  0  0  0  0  0  0  0
    2.9966   -0.2098   -0.2576 H   0  0  0  0  0  0  0  0  0  0  0  0
   -0.2523   -1.5435   -1.2983 H   0  0  0  0  0  0  0  0  0  0  0  0
   -2.5994   -0.8127   -0.9225 H   0  0  0  0  0  0  0  0  0  0  0  0
   -2.3654   -0.4642    1.5565 H   0  0  0  0  0  0  0  0  0  0  0  0
   -0.0916   -1.5397    1.2770 H   0  0  0  0  0  0  0  0  0  0  0  0
  1  2  1  0
  2  3  1  0
  3  4  2  0
  2  5  1  0
  5  6  1  0
  6  7  1  0
  7  8  1  0
  8  9  1  0
  9  2  1  0
  9  5  1  0
  8  6  1  0
  1 10  1  0
  1 11  1  0
  1 12  1  0
  3 13  1  0
  5 14  1  0
  6 15  1  0
  8 16  1  0
  9 17  1  0
M  END
