
     RDKit          3D

 21 22  0  0  0  0  0  0  0  0999 V2000
   -2.3166    0.2537    0.4607 C   0  0  0  0  0  0  0  0  0  0  0  0
   -1.0054   -0.4061    0.1606 C   0  0  0  0  0  0  0  0  0  0  0  0
   -1.1378   -1.7506   -0.0707 O   0  0  0  0  0  0  0  0  0  0  0  0
   -0.0804    0.3543   -0.7610 C   0  0  0  0  0  0  0  0  0  0  0  0
    0.0269    1.3432    0.3561 C   0  0  0  0  0  0  0  0  0  0  0  0
    0.1498    0.0178    1.0430 C   0  0  0  0  0  0  0  0  0  0  0  0
    1.0201   -0.4153   -0.0883 C   0  0  0  0  0  0  0  0  0  0  0  0
    2.3885    0.1218   -0.1815 C   0  0  0  0  0  0  0  0  0  0  0  0
    1.0106   -1.7904   -0.3556 O   0  0  0  0  0  0  0  0  0  0  0  0
   -2.3345    0.7177    1.4893 H   0  0  0  0  0  0  0  0  0  0  0  0
   -3.1456   -0.5104    0.5023 H   0  0  0  0  0  0  0  0  0  0  0  0
   -2.6215    0.9991   -0.3058 H   0  0  0  0  0  0  0  0  0  0  0  0
   -1.7376   -1.8905   -0.8250 H   0  0  0  0  0  0  0  0  0  0  0  0
   -0.2084    0.5217   -1.7353 H   0  0  0  0  0  0  0  0  0  0  0  0
   -0.9177    1.8852    0.4913 H   0  0  0  0  0  0  0  0  0  0  0  0
    0.8736    2.0166    0.3748 H   0  0  0  0  0  0  0  0  0  0  0  0
    0.2475   -0.1673    2.0196 H   0  0  0  0  0  0  0  0  0  0  0  0
    3.1120   -0.6862    0.0968 H   0  0  0  0  0  0  0  0  0  0  0  0
    2.6294    0.9824    0.4390 H   0  0  0  0  0  0  0  0  0  0  0  0
    2.6444    0.3585   -1.2558 H   0  0  0  0  0  0  0  0  0  0  0  0
    1.4028   -1.9551   -1.2487 H   0  0  0  0  0  0  0  0  0  0  0  0
  1  2  1  0
  2  3  1  0
  2  4  1  0
  4  5  1  0
  5  6  1  0
  6  7  1  0
  7  8  1  0
  7  9  1  0
  6  2  1  0
  7  4  1  0
  1 10  1  0
  1 11  1  0
  1 12  1  0
  3 13  1  0
  4 14  1  0
  5 15  1  0
  5 16  1  0
  6 17  1  0
  8 18  1  0
  8 19  1  0
  8 20  1  0
  9 21  1  0
M  END
