
     RDKit          3D

 19 19  0  0  0  0  0  0  0  0999 V2000
    1.9803   -0.4020   -0.2117 C   0  0  0  0  0  0  0  0  0  0  0  0
    0.5396   -0.1327    0.1299 C   0  0  0  0  0  0  0  0  0  0  0  0
    0.3721   -0.2034    1.5178 O   0  0  0  0  0  0  0  0  0  0  0  0
   -0.4139   -1.0421   -0.5891 C   0  0  0  0  0  0  0  0  0  0  0  0
   -1.7921   -0.8576    0.0339 C   0  0  0  0  0  0  0  0  0  0  0  0
   -2.1425    0.5119    0.0409 O   0  0  0  0  0  0  0  0  0  0  0  0
   -1.2031    1.4921    0.3424 C   0  0  0  0  0  0  0  0  0  0  0  0
   -1.4502    2.4814    1.0796 O   0  0  0  0  0  0  0  0  0  0  0  0
    0.1392    1.2865   -0.2784 C   0  0  0  0  0  0  0  0  0  0  0  0
    2.1679   -1.4809   -0.1686 H   0  0  0  0  0  0  0  0  0  0  0  0
    2.1426   -0.0269   -1.2606 H   0  0  0  0  0  0  0  0  0  0  0  0
    2.6072    0.1881    0.4890 H   0  0  0  0  0  0  0  0  0  0  0  0
    1.0727    0.3602    1.9333 H   0  0  0  0  0  0  0  0  0  0  0  0
   -0.5018   -0.6578   -1.6409 H   0  0  0  0  0  0  0  0  0  0  0  0
   -0.1314   -2.0858   -0.6075 H   0  0  0  0  0  0  0  0  0  0  0  0
   -2.4925   -1.4552   -0.5737 H   0  0  0  0  0  0  0  0  0  0  0  0
   -1.8062   -1.2078    1.0823 H   0  0  0  0  0  0  0  0  0  0  0  0
    0.8909    1.9877    0.0648 H   0  0  0  0  0  0  0  0  0  0  0  0
    0.0211    1.2444   -1.3833 H   0  0  0  0  0  0  0  0  0  0  0  0
  1  2  1  0
  2  3  1  0
  2  4  1  0
  4  5  1  0
  5  6  1  0
  6  7  1  0
  7  8  2  0
  7  9  1  0
  9  2  1  0
  1 10  1  0
  1 11  1  0
  1 12  1  0
  3 13  1  0
  4 14  1  0
  4 15  1  0
  5 16  1  0
  5 17  1  0
  9 18  1  0
  9 19  1  0
M  END
