
     RDKit          3D

 20 21  0  0  0  0  0  0  0  0999 V2000
    0.1583    1.7934   -0.0254 C   0  0  0  0  0  0  0  0  0  0  0  0
   -0.1070    0.3151    0.0866 C   0  0  0  0  0  0  0  0  0  0  0  0
    1.0826   -0.5443    0.3965 C   0  0  0  0  0  0  0  0  0  0  0  0
    2.2416   -0.5828   -0.4997 C   0  0  0  0  0  0  0  0  0  0  0  0
    2.2961    0.2752    0.6040 O   0  0  0  0  0  0  0  0  0  0  0  0
   -1.2405   -0.0315    1.0614 C   0  0  0  0  0  0  0  0  0  0  0  0
   -1.5737   -1.1680    0.1011 C   0  0  0  0  0  0  0  0  0  0  0  0
   -0.9970   -0.2598   -0.9957 C   0  0  0  0  0  0  0  0  0  0  0  0
   -0.4707    2.2832   -0.7848 H   0  0  0  0  0  0  0  0  0  0  0  0
    1.2124    1.9340   -0.3515 H   0  0  0  0  0  0  0  0  0  0  0  0
   -0.0032    2.2561    0.9721 H   0  0  0  0  0  0  0  0  0  0  0  0
    1.0370   -1.2713    1.2463 H   0  0  0  0  0  0  0  0  0  0  0  0
    2.1344   -0.1383   -1.5153 H   0  0  0  0  0  0  0  0  0  0  0  0
    2.9117   -1.4439   -0.4177 H   0  0  0  0  0  0  0  0  0  0  0  0
   -0.8582   -0.3232    2.0326 H   0  0  0  0  0  0  0  0  0  0  0  0
   -2.0148    0.7503    1.0147 H   0  0  0  0  0  0  0  0  0  0  0  0
   -2.6484   -1.3710   -0.0135 H   0  0  0  0  0  0  0  0  0  0  0  0
   -0.9487   -2.0709    0.2225 H   0  0  0  0  0  0  0  0  0  0  0  0
   -1.7626    0.4333   -1.3644 H   0  0  0  0  0  0  0  0  0  0  0  0
   -0.4495   -0.8356   -1.7697 H   0  0  0  0  0  0  0  0  0  0  0  0
  1  2  1  0
  2  3  1  0
  3  4  1  0
  4  5  1  0
  2  6  1  0
  6  7  1  0
  7  8  1  0
  8  2  1  0
  5  3  1  0
  1  9  1  0
  1 10  1  0
  1 11  1  0
  3 12  1  0
  4 13  1  0
  4 14  1  0
  6 15  1  0
  6 16  1  0
  7 17  1  0
  7 18  1  0
  8 19  1  0
  8 20  1  0
M  END
