
     RDKit          3D

 19 19  0  0  0  0  0  0  0  0999 V2000
   -1.0126   -0.5214    1.2601 C   0  0  0  0  0  0  0  0  0  0  0  0
   -1.0819   -0.2171   -0.2335 C   0  0  0  0  0  0  0  0  0  0  0  0
   -2.3886   -0.4040   -0.6733 O   0  0  0  0  0  0  0  0  0  0  0  0
   -0.6376    1.1825   -0.3828 C   0  0  0  0  0  0  0  0  0  0  0  0
    0.5641    1.6856   -0.1624 C   0  0  0  0  0  0  0  0  0  0  0  0
    1.7708    0.9580    0.2902 C   0  0  0  0  0  0  0  0  0  0  0  0
    2.0249   -0.3283   -0.0156 C   0  0  0  0  0  0  0  0  0  0  0  0
    1.1661   -1.2058   -0.8318 C   0  0  0  0  0  0  0  0  0  0  0  0
   -0.1527   -1.1415   -0.9116 C   0  0  0  0  0  0  0  0  0  0  0  0
   -0.3040   -1.3644    1.4750 H   0  0  0  0  0  0  0  0  0  0  0  0
   -1.9943   -0.8558    1.5950 H   0  0  0  0  0  0  0  0  0  0  0  0
   -0.7221    0.3438    1.8651 H   0  0  0  0  0  0  0  0  0  0  0  0
   -2.9808    0.3404   -0.4838 H   0  0  0  0  0  0  0  0  0  0  0  0
   -1.4043    1.9090   -0.7224 H   0  0  0  0  0  0  0  0  0  0  0  0
    0.6906    2.7633   -0.3218 H   0  0  0  0  0  0  0  0  0  0  0  0
    2.4796    1.4880    0.8895 H   0  0  0  0  0  0  0  0  0  0  0  0
    2.9382   -0.7606    0.3632 H   0  0  0  0  0  0  0  0  0  0  0  0
    1.6698   -1.9783   -1.4116 H   0  0  0  0  0  0  0  0  0  0  0  0
   -0.6251   -1.8933   -1.5875 H   0  0  0  0  0  0  0  0  0  0  0  0
  1  2  1  0
  2  3  1  0
  2  4  1  0
  4  5  2  0
  5  6  1  0
  6  7  2  0
  7  8  1  0
  8  9  2  0
  9  2  1  0
  1 10  1  0
  1 11  1  0
  1 12  1  0
  3 13  1  0
  4 14  1  0
  5 15  1  0
  6 16  1  0
  7 17  1  0
  8 18  1  0
  9 19  1  0
M  END
