
     RDKit          3D

 21 22  0  0  0  0  0  0  0  0999 V2000
   -0.8988   -1.0001   -1.7130 C   0  0  0  0  0  0  0  0  0  0  0  0
   -0.3769   -0.1174   -0.5264 C   0  0  0  0  0  0  0  0  0  0  0  0
    1.0876   -0.0773   -0.4529 C   0  0  0  0  0  0  0  0  0  0  0  0
    1.9453    0.7266    0.4455 C   0  0  0  0  0  0  0  0  0  0  0  0
    1.8745   -0.7777    0.5865 C   0  0  0  0  0  0  0  0  0  0  0  0
   -1.0587    1.2348   -0.4372 C   0  0  0  0  0  0  0  0  0  0  0  0
   -1.4029    0.1131    0.4694 C   0  0  0  0  0  0  0  0  0  0  0  0
   -1.3007    0.1337    1.9178 C   0  0  0  0  0  0  0  0  0  0  0  0
   -0.3834    0.5283    2.5762 O   0  0  0  0  0  0  0  0  0  0  0  0
   -1.1390   -1.9731   -1.2409 H   0  0  0  0  0  0  0  0  0  0  0  0
   -0.1223   -1.1113   -2.4673 H   0  0  0  0  0  0  0  0  0  0  0  0
   -1.8439   -0.5662   -2.0906 H   0  0  0  0  0  0  0  0  0  0  0  0
    1.5660   -0.1613   -1.4934 H   0  0  0  0  0  0  0  0  0  0  0  0
    2.9639    1.0825    0.0486 H   0  0  0  0  0  0  0  0  0  0  0  0
    1.6086    1.4061    1.2139 H   0  0  0  0  0  0  0  0  0  0  0  0
    1.4939   -1.1393    1.5327 H   0  0  0  0  0  0  0  0  0  0  0  0
    2.7732   -1.3768    0.2557 H   0  0  0  0  0  0  0  0  0  0  0  0
   -0.4654    2.0991   -0.0494 H   0  0  0  0  0  0  0  0  0  0  0  0
   -1.7269    1.5424   -1.2660 H   0  0  0  0  0  0  0  0  0  0  0  0
   -2.4466   -0.3153    0.1705 H   0  0  0  0  0  0  0  0  0  0  0  0
   -2.1476   -0.2511    2.5205 H   0  0  0  0  0  0  0  0  0  0  0  0
  1  2  1  0
  2  3  1  0
  3  4  1  0
  4  5  1  0
  2  6  1  0
  6  7  1  0
  7  8  1  0
  8  9  2  0
  7  2  1  0
  5  3  1  0
  1 10  1  0
  1 11  1  0
  1 12  1  0
  3 13  1  0
  4 14  1  0
  4 15  1  0
  5 16  1  0
  5 17  1  0
  6 18  1  0
  6 19  1  0
  7 20  1  0
  8 21  1  0
M  END
