
     RDKit          3D

 19 19  0  0  0  0  0  0  0  0999 V2000
   -1.1272    0.5485    1.1383 C   0  0  0  0  0  0  0  0  0  0  0  0
   -0.5501   -0.1984   -0.0268 C   0  0  0  0  0  0  0  0  0  0  0  0
   -1.6032   -0.5217   -1.0092 C   0  0  0  0  0  0  0  0  0  0  0  0
   -2.3284   -1.4835   -0.9372 O   0  0  0  0  0  0  0  0  0  0  0  0
    0.3018   -1.3420    0.4410 C   0  0  0  0  0  0  0  0  0  0  0  0
    1.5038   -0.7828   -0.2809 C   0  0  0  0  0  0  0  0  0  0  0  0
    0.6467    0.4010   -0.6905 C   0  0  0  0  0  0  0  0  0  0  0  0
    1.0948    1.7036   -0.1722 C   0  0  0  0  0  0  0  0  0  0  0  0
    1.5479    2.5793   -0.8799 O   0  0  0  0  0  0  0  0  0  0  0  0
   -1.1757    1.6312    1.0061 H   0  0  0  0  0  0  0  0  0  0  0  0
   -0.6157    0.2792    2.0775 H   0  0  0  0  0  0  0  0  0  0  0  0
   -2.1948    0.2031    1.2716 H   0  0  0  0  0  0  0  0  0  0  0  0
   -1.7216    0.1523   -1.8393 H   0  0  0  0  0  0  0  0  0  0  0  0
   -0.0966   -2.2984    0.0307 H   0  0  0  0  0  0  0  0  0  0  0  0
    0.4913   -1.3579    1.5335 H   0  0  0  0  0  0  0  0  0  0  0  0
    1.8944   -1.3961   -1.1062 H   0  0  0  0  0  0  0  0  0  0  0  0
    2.3296   -0.4263    0.3756 H   0  0  0  0  0  0  0  0  0  0  0  0
    0.5835    0.4129   -1.8187 H   0  0  0  0  0  0  0  0  0  0  0  0
    1.0196    1.8959    0.8866 H   0  0  0  0  0  0  0  0  0  0  0  0
  1  2  1  0
  2  3  1  0
  3  4  2  0
  2  5  1  0
  5  6  1  0
  6  7  1  0
  7  8  1  0
  8  9  2  0
  7  2  1  0
  1 10  1  0
  1 11  1  0
  1 12  1  0
  3 13  1  0
  5 14  1  0
  5 15  1  0
  6 16  1  0
  6 17  1  0
  7 18  1  0
  8 19  1  0
M  END
