
     RDKit          3D

 23 23  0  0  0  0  0  0  0  0999 V2000
    1.9460   -0.6579    0.5671 C   0  0  0  0  0  0  0  0  0  0  0  0
    0.7464   -0.0183   -0.1125 C   0  0  0  0  0  0  0  0  0  0  0  0
    1.2087    1.0466   -1.0339 C   0  0  0  0  0  0  0  0  0  0  0  0
   -0.0786   -1.1289   -0.7710 C   0  0  0  0  0  0  0  0  0  0  0  0
   -0.7963   -1.2394    0.5787 C   0  0  0  0  0  0  0  0  0  0  0  0
   -2.1532   -1.4167    0.4446 O   0  0  0  0  0  0  0  0  0  0  0  0
   -0.3531    0.2039    0.8224 C   0  0  0  0  0  0  0  0  0  0  0  0
   -1.4875    1.1047    0.4855 C   0  0  0  0  0  0  0  0  0  0  0  0
   -1.1481    2.4108    0.2283 O   0  0  0  0  0  0  0  0  0  0  0  0
    1.6517   -1.3272    1.3850 H   0  0  0  0  0  0  0  0  0  0  0  0
    2.5523    0.1620    1.0206 H   0  0  0  0  0  0  0  0  0  0  0  0
    2.5559   -1.1897   -0.2104 H   0  0  0  0  0  0  0  0  0  0  0  0
    0.4324    1.6785   -1.4673 H   0  0  0  0  0  0  0  0  0  0  0  0
    1.7108    0.5360   -1.9094 H   0  0  0  0  0  0  0  0  0  0  0  0
    2.0245    1.6136   -0.5373 H   0  0  0  0  0  0  0  0  0  0  0  0
   -0.7336   -0.7262   -1.5619 H   0  0  0  0  0  0  0  0  0  0  0  0
    0.5093   -2.0034   -1.0552 H   0  0  0  0  0  0  0  0  0  0  0  0
   -0.3531   -1.9669    1.2672 H   0  0  0  0  0  0  0  0  0  0  0  0
   -2.3626   -1.9575   -0.3609 H   0  0  0  0  0  0  0  0  0  0  0  0
   -0.0225    0.3009    1.8790 H   0  0  0  0  0  0  0  0  0  0  0  0
   -2.1866    1.1099    1.3509 H   0  0  0  0  0  0  0  0  0  0  0  0
   -2.1055    0.7284   -0.3733 H   0  0  0  0  0  0  0  0  0  0  0  0
   -1.5572    2.7370   -0.6364 H   0  0  0  0  0  0  0  0  0  0  0  0
  1  2  1  0
  2  3  1  0
  2  4  1  0
  4  5  1  0
  5  6  1  0
  5  7  1  0
  7  8  1  0
  8  9  1  0
  7  2  1  0
  1 10  1  0
  1 11  1  0
  1 12  1  0
  3 13  1  0
  3 14  1  0
  3 15  1  0
  4 16  1  0
  4 17  1  0
  5 18  1  0
  6 19  1  0
  7 20  1  0
  8 21  1  0
  8 22  1  0
  9 23  1  0
M  END
