
     RDKit          3D

 19 20  0  0  0  0  0  0  0  0999 V2000
    1.5854   -0.7414   -0.7288 C   0  0  0  0  0  0  0  0  0  0  0  0
    1.0583    0.2592    0.2602 C   0  0  0  0  0  0  0  0  0  0  0  0
    2.0429    1.0832    0.8036 O   0  0  0  0  0  0  0  0  0  0  0  0
   -0.1164    0.0163    1.0960 C   0  0  0  0  0  0  0  0  0  0  0  0
   -1.1364   -1.0392    0.8007 C   0  0  0  0  0  0  0  0  0  0  0  0
   -1.5679   -0.8617   -0.5976 C   0  0  0  0  0  0  0  0  0  0  0  0
   -1.0502    0.2508   -1.1000 C   0  0  0  0  0  0  0  0  0  0  0  0
   -0.2157    0.9289   -0.0758 C   0  0  0  0  0  0  0  0  0  0  0  0
   -0.4227    2.2720    0.1467 O   0  0  0  0  0  0  0  0  0  0  0  0
    2.0456   -0.1418   -1.5689 H   0  0  0  0  0  0  0  0  0  0  0  0
    0.8121   -1.3689   -1.1746 H   0  0  0  0  0  0  0  0  0  0  0  0
    2.4468   -1.3179   -0.3057 H   0  0  0  0  0  0  0  0  0  0  0  0
    1.8563    1.3080    1.7450 H   0  0  0  0  0  0  0  0  0  0  0  0
   -0.1801    0.4924    2.0896 H   0  0  0  0  0  0  0  0  0  0  0  0
   -0.8167   -2.0606    1.0500 H   0  0  0  0  0  0  0  0  0  0  0  0
   -2.0426   -0.8371    1.4444 H   0  0  0  0  0  0  0  0  0  0  0  0
   -2.2071   -1.5257   -1.1442 H   0  0  0  0  0  0  0  0  0  0  0  0
   -1.1923    0.6380   -2.1016 H   0  0  0  0  0  0  0  0  0  0  0  0
   -0.8994    2.6455   -0.6392 H   0  0  0  0  0  0  0  0  0  0  0  0
  1  2  1  0
  2  3  1  0
  2  4  1  0
  4  5  1  0
  5  6  1  0
  6  7  2  0
  7  8  1  0
  8  9  1  0
  8  2  1  0
  8  4  1  0
  1 10  1  0
  1 11  1  0
  1 12  1  0
  3 13  1  0
  4 14  1  0
  5 15  1  0
  5 16  1  0
  6 17  1  0
  7 18  1  0
  9 19  1  0
M  END
