
     RDKit          3D

 23 24  0  0  0  0  0  0  0  0999 V2000
   -1.2883    1.1462    0.5586 C   0  0  0  0  0  0  0  0  0  0  0  0
   -0.7966   -0.1991    0.1132 C   0  0  0  0  0  0  0  0  0  0  0  0
   -1.9852   -0.9053   -0.5473 C   0  0  0  0  0  0  0  0  0  0  0  0
   -0.3482   -1.0214    1.2355 C   0  0  0  0  0  0  0  0  0  0  0  0
    0.9540   -1.2901    1.1449 C   0  0  0  0  0  0  0  0  0  0  0  0
    1.5359   -0.6687   -0.0676 C   0  0  0  0  0  0  0  0  0  0  0  0
    1.9624    0.7656    0.0782 C   0  0  0  0  0  0  0  0  0  0  0  0
    1.0473    1.1076   -1.0703 C   0  0  0  0  0  0  0  0  0  0  0  0
    0.3190   -0.1794   -0.8456 C   0  0  0  0  0  0  0  0  0  0  0  0
   -2.2536    0.9603    1.1160 H   0  0  0  0  0  0  0  0  0  0  0  0
   -1.5670    1.7568   -0.3102 H   0  0  0  0  0  0  0  0  0  0  0  0
   -0.6356    1.6670    1.2574 H   0  0  0  0  0  0  0  0  0  0  0  0
   -2.7971   -0.8856    0.2135 H   0  0  0  0  0  0  0  0  0  0  0  0
   -2.3070   -0.2635   -1.3942 H   0  0  0  0  0  0  0  0  0  0  0  0
   -1.7319   -1.9311   -0.8558 H   0  0  0  0  0  0  0  0  0  0  0  0
   -0.9552   -1.3967    2.0689 H   0  0  0  0  0  0  0  0  0  0  0  0
    1.5333   -1.8774    1.8440 H   0  0  0  0  0  0  0  0  0  0  0  0
    2.2161   -1.3109   -0.6568 H   0  0  0  0  0  0  0  0  0  0  0  0
    1.7199    1.2504    1.0459 H   0  0  0  0  0  0  0  0  0  0  0  0
    3.0525    0.9529   -0.1261 H   0  0  0  0  0  0  0  0  0  0  0  0
    0.4952    2.0337   -1.0160 H   0  0  0  0  0  0  0  0  0  0  0  0
    1.6329    1.0627   -2.0249 H   0  0  0  0  0  0  0  0  0  0  0  0
    0.1973   -0.7741   -1.7615 H   0  0  0  0  0  0  0  0  0  0  0  0
  1  2  1  0
  2  3  1  0
  2  4  1  0
  4  5  2  0
  5  6  1  0
  6  7  1  0
  7  8  1  0
  8  9  1  0
  9  2  1  0
  9  6  1  0
  1 10  1  0
  1 11  1  0
  1 12  1  0
  3 13  1  0
  3 14  1  0
  3 15  1  0
  4 16  1  0
  5 17  1  0
  6 18  1  0
  7 19  1  0
  7 20  1  0
  8 21  1  0
  8 22  1  0
  9 23  1  0
M  END
