
     RDKit          3D

 21 21  0  0  0  0  0  0  0  0999 V2000
    1.8760    0.8043   -0.6391 C   0  0  0  0  0  0  0  0  0  0  0  0
    0.9286   -0.0979    0.1356 C   0  0  0  0  0  0  0  0  0  0  0  0
   -0.4445   -0.1907   -0.5179 C   0  0  0  0  0  0  0  0  0  0  0  0
   -1.0219    1.2033   -0.5675 C   0  0  0  0  0  0  0  0  0  0  0  0
   -1.1587    1.7624    0.6980 O   0  0  0  0  0  0  0  0  0  0  0  0
   -1.2790   -1.1153    0.3300 C   0  0  0  0  0  0  0  0  0  0  0  0
   -2.5678   -1.2693   -0.1871 O   0  0  0  0  0  0  0  0  0  0  0  0
    1.5155   -1.1952    0.8625 C   0  0  0  0  0  0  0  0  0  0  0  0
    0.9979    0.0106    1.5059 O   0  0  0  0  0  0  0  0  0  0  0  0
    1.6338    0.7850   -1.7311 H   0  0  0  0  0  0  0  0  0  0  0  0
    2.9185    0.4898   -0.5429 H   0  0  0  0  0  0  0  0  0  0  0  0
    1.7319    1.8456   -0.3024 H   0  0  0  0  0  0  0  0  0  0  0  0
   -0.3831   -0.5698   -1.5440 H   0  0  0  0  0  0  0  0  0  0  0  0
   -0.3126    1.8488   -1.1243 H   0  0  0  0  0  0  0  0  0  0  0  0
   -1.9831    1.2429   -1.1108 H   0  0  0  0  0  0  0  0  0  0  0  0
   -1.0961    2.7543    0.6518 H   0  0  0  0  0  0  0  0  0  0  0  0
   -0.7750   -2.1204    0.2818 H   0  0  0  0  0  0  0  0  0  0  0  0
   -1.2629   -0.7724    1.3643 H   0  0  0  0  0  0  0  0  0  0  0  0
   -2.9428   -2.0778    0.2649 H   0  0  0  0  0  0  0  0  0  0  0  0
    1.0038   -2.0648    1.2773 H   0  0  0  0  0  0  0  0  0  0  0  0
    2.6214   -1.2733    0.8953 H   0  0  0  0  0  0  0  0  0  0  0  0
  1  2  1  0
  2  3  1  0
  3  4  1  0
  4  5  1  0
  3  6  1  0
  6  7  1  0
  2  8  1  0
  8  9  1  0
  9  2  1  0
  1 10  1  0
  1 11  1  0
  1 12  1  0
  3 13  1  0
  4 14  1  0
  4 15  1  0
  5 16  1  0
  6 17  1  0
  6 18  1  0
  7 19  1  0
  8 20  1  0
  8 21  1  0
M  END
