
     RDKit          3D

 18 18  0  0  0  0  0  0  0  0999 V2000
   -0.2711    1.5951   -0.5814 C   0  0  0  0  0  0  0  0  0  0  0  0
   -0.2241    0.2866    0.1569 C   0  0  0  0  0  0  0  0  0  0  0  0
    1.1880   -0.1522    0.4345 C   0  0  0  0  0  0  0  0  0  0  0  0
    1.9896   -0.3421   -0.7795 C   0  0  0  0  0  0  0  0  0  0  0  0
    3.1473   -0.6977   -0.6501 O   0  0  0  0  0  0  0  0  0  0  0  0
   -1.1642   -0.7422   -0.3491 C   0  0  0  0  0  0  0  0  0  0  0  0
   -1.4341   -0.9171    1.1081 C   0  0  0  0  0  0  0  0  0  0  0  0
   -0.9528    0.3622    1.3432 O   0  0  0  0  0  0  0  0  0  0  0  0
   -1.2490    1.7453   -1.0979 H   0  0  0  0  0  0  0  0  0  0  0  0
   -0.0989    2.3985    0.1907 H   0  0  0  0  0  0  0  0  0  0  0  0
    0.5869    1.6514   -1.2857 H   0  0  0  0  0  0  0  0  0  0  0  0
    1.6677    0.6836    1.0165 H   0  0  0  0  0  0  0  0  0  0  0  0
    1.2358   -1.0332    1.1055 H   0  0  0  0  0  0  0  0  0  0  0  0
    1.6157   -0.1864   -1.7680 H   0  0  0  0  0  0  0  0  0  0  0  0
   -0.7367   -1.6159   -0.8693 H   0  0  0  0  0  0  0  0  0  0  0  0
   -2.0179   -0.2711   -0.8907 H   0  0  0  0  0  0  0  0  0  0  0  0
   -0.7748   -1.7071    1.5410 H   0  0  0  0  0  0  0  0  0  0  0  0
   -2.5073   -1.0578    1.3753 H   0  0  0  0  0  0  0  0  0  0  0  0
  1  2  1  0
  2  3  1  0
  3  4  1  0
  4  5  2  0
  2  6  1  0
  6  7  1  0
  7  8  1  0
  8  2  1  0
  1  9  1  0
  1 10  1  0
  1 11  1  0
  3 12  1  0
  3 13  1  0
  4 14  1  0
  6 15  1  0
  6 16  1  0
  7 17  1  0
  7 18  1  0
M  END
