
     RDKit          3D

 23 25  0  0  0  0  0  0  0  0999 V2000
   -2.0033    1.0705    0.8995 C   0  0  0  0  0  0  0  0  0  0  0  0
   -1.2255   -0.0302    0.1664 C   0  0  0  0  0  0  0  0  0  0  0  0
    0.2299   -0.1819    0.4445 C   0  0  0  0  0  0  0  0  0  0  0  0
    1.1690    0.9312    0.1813 C   0  0  0  0  0  0  0  0  0  0  0  0
    2.6405    0.7466    0.1948 C   0  0  0  0  0  0  0  0  0  0  0  0
    2.5603   -0.6342   -0.4253 C   0  0  0  0  0  0  0  0  0  0  0  0
    1.1041   -0.3316   -0.7415 C   0  0  0  0  0  0  0  0  0  0  0  0
   -1.7690   -0.4977   -1.1491 C   0  0  0  0  0  0  0  0  0  0  0  0
   -1.9858   -1.3713    0.0338 C   0  0  0  0  0  0  0  0  0  0  0  0
   -2.9424    1.2961    0.3378 H   0  0  0  0  0  0  0  0  0  0  0  0
   -1.3613    1.9730    0.8648 H   0  0  0  0  0  0  0  0  0  0  0  0
   -2.2901    0.7605    1.9106 H   0  0  0  0  0  0  0  0  0  0  0  0
    0.4566   -0.8564    1.3090 H   0  0  0  0  0  0  0  0  0  0  0  0
    0.7461    1.8533   -0.2179 H   0  0  0  0  0  0  0  0  0  0  0  0
    3.1579    0.8072    1.1565 H   0  0  0  0  0  0  0  0  0  0  0  0
    3.1308    1.4320   -0.5409 H   0  0  0  0  0  0  0  0  0  0  0  0
    3.1430   -0.7916   -1.3346 H   0  0  0  0  0  0  0  0  0  0  0  0
    2.5806   -1.4659    0.3270 H   0  0  0  0  0  0  0  0  0  0  0  0
    0.7957   -0.0992   -1.7570 H   0  0  0  0  0  0  0  0  0  0  0  0
   -2.6865   -0.0154   -1.5468 H   0  0  0  0  0  0  0  0  0  0  0  0
   -1.0821   -0.8832   -1.9275 H   0  0  0  0  0  0  0  0  0  0  0  0
   -1.3941   -2.2979    0.0961 H   0  0  0  0  0  0  0  0  0  0  0  0
   -2.9743   -1.4138    0.5454 H   0  0  0  0  0  0  0  0  0  0  0  0
  1  2  1  0
  2  3  1  0
  3  4  1  0
  4  5  1  0
  5  6  1  0
  6  7  1  0
  2  8  1  0
  8  9  1  0
  9  2  1  0
  7  3  1  0
  7  4  1  0
  1 10  1  0
  1 11  1  0
  1 12  1  0
  3 13  1  0
  4 14  1  0
  5 15  1  0
  5 16  1  0
  6 17  1  0
  6 18  1  0
  7 19  1  0
  8 20  1  0
  8 21  1  0
  9 22  1  0
  9 23  1  0
M  END
