
     RDKit          3D

 19 19  0  0  0  0  0  0  0  0999 V2000
   -1.1330   -1.2334   -0.1986 C   0  0  0  0  0  0  0  0  0  0  0  0
   -0.2482   -0.0480    0.1258 C   0  0  0  0  0  0  0  0  0  0  0  0
   -0.9286    1.0028    0.7085 O   0  0  0  0  0  0  0  0  0  0  0  0
   -1.9766    1.7067    0.1638 C   0  0  0  0  0  0  0  0  0  0  0  0
   -2.3544    1.3663   -0.9692 O   0  0  0  0  0  0  0  0  0  0  0  0
    0.8800   -0.4575    1.0875 C   0  0  0  0  0  0  0  0  0  0  0  0
    2.0911    0.1029    0.3708 C   0  0  0  0  0  0  0  0  0  0  0  0
    1.6064    1.0123   -0.5722 O   0  0  0  0  0  0  0  0  0  0  0  0
    0.5475    0.2802   -1.0945 C   0  0  0  0  0  0  0  0  0  0  0  0
   -0.6166   -2.2004   -0.0633 H   0  0  0  0  0  0  0  0  0  0  0  0
   -2.0992   -1.1756    0.3395 H   0  0  0  0  0  0  0  0  0  0  0  0
   -1.4023   -1.1943   -1.2930 H   0  0  0  0  0  0  0  0  0  0  0  0
   -2.4186    2.5056    0.7258 H   0  0  0  0  0  0  0  0  0  0  0  0
    0.8991   -1.5729    1.0947 H   0  0  0  0  0  0  0  0  0  0  0  0
    0.7514   -0.0126    2.0787 H   0  0  0  0  0  0  0  0  0  0  0  0
    2.8097    0.5726    1.0687 H   0  0  0  0  0  0  0  0  0  0  0  0
    2.5845   -0.7161   -0.2106 H   0  0  0  0  0  0  0  0  0  0  0  0
    0.0166    0.7444   -1.9037 H   0  0  0  0  0  0  0  0  0  0  0  0
    0.9911   -0.6830   -1.4585 H   0  0  0  0  0  0  0  0  0  0  0  0
  1  2  1  0
  2  3  1  0
  3  4  1  0
  4  5  2  0
  2  6  1  0
  6  7  1  0
  7  8  1  0
  8  9  1  0
  9  2  1  0
  1 10  1  0
  1 11  1  0
  1 12  1  0
  4 13  1  0
  6 14  1  0
  6 15  1  0
  7 16  1  0
  7 17  1  0
  9 18  1  0
  9 19  1  0
M  END
