
     RDKit          3D

 25 26  0  0  0  0  0  0  0  0999 V2000
   -1.9046   -0.6506    1.1045 C   0  0  0  0  0  0  0  0  0  0  0  0
   -1.3017    0.2719    0.0956 C   0  0  0  0  0  0  0  0  0  0  0  0
   -2.3439    1.1233   -0.6376 C   0  0  0  0  0  0  0  0  0  0  0  0
   -0.0213    0.9470    0.3283 C   0  0  0  0  0  0  0  0  0  0  0  0
    1.0102    0.4784    1.2923 C   0  0  0  0  0  0  0  0  0  0  0  0
    2.2883    0.2719    0.4662 C   0  0  0  0  0  0  0  0  0  0  0  0
    2.1372   -0.8854   -0.4627 C   0  0  0  0  0  0  0  0  0  0  0  0
    0.6857   -1.3237   -0.4572 C   0  0  0  0  0  0  0  0  0  0  0  0
   -0.1523   -0.1107   -0.7486 C   0  0  0  0  0  0  0  0  0  0  0  0
   -2.6941   -1.2532    0.5761 H   0  0  0  0  0  0  0  0  0  0  0  0
   -2.4872   -0.0501    1.8630 H   0  0  0  0  0  0  0  0  0  0  0  0
   -1.2201   -1.3530    1.5692 H   0  0  0  0  0  0  0  0  0  0  0  0
   -2.1542    2.2116   -0.4053 H   0  0  0  0  0  0  0  0  0  0  0  0
   -2.2195    1.0473   -1.7397 H   0  0  0  0  0  0  0  0  0  0  0  0
   -3.3655    0.8446   -0.3860 H   0  0  0  0  0  0  0  0  0  0  0  0
    0.1207    2.0123   -0.0126 H   0  0  0  0  0  0  0  0  0  0  0  0
    0.7480   -0.4137    1.8611 H   0  0  0  0  0  0  0  0  0  0  0  0
    1.2218    1.3038    2.0202 H   0  0  0  0  0  0  0  0  0  0  0  0
    3.1847    0.2665    1.0813 H   0  0  0  0  0  0  0  0  0  0  0  0
    2.3524    1.1996   -0.1746 H   0  0  0  0  0  0  0  0  0  0  0  0
    2.3615   -0.6032   -1.5295 H   0  0  0  0  0  0  0  0  0  0  0  0
    2.8305   -1.7168   -0.2256 H   0  0  0  0  0  0  0  0  0  0  0  0
    0.4056   -1.8643    0.4479 H   0  0  0  0  0  0  0  0  0  0  0  0
    0.5657   -2.0193   -1.3100 H   0  0  0  0  0  0  0  0  0  0  0  0
   -0.0480    0.2659   -1.7830 H   0  0  0  0  0  0  0  0  0  0  0  0
  1  2  1  0
  2  3  1  0
  2  4  1  0
  4  5  1  0
  5  6  1  0
  6  7  1  0
  7  8  1  0
  8  9  1  0
  9  2  1  0
  9  4  1  0
  1 10  1  0
  1 11  1  0
  1 12  1  0
  3 13  1  0
  3 14  1  0
  3 15  1  0
  4 16  1  0
  5 17  1  0
  5 18  1  0
  6 19  1  0
  6 20  1  0
  7 21  1  0
  7 22  1  0
  8 23  1  0
  8 24  1  0
  9 25  1  0
M  END
