
     RDKit          3D

 18 19  0  0  0  0  0  0  0  0999 V2000
   -1.2053   -1.1358    0.5051 C   0  0  0  0  0  0  0  0  0  0  0  0
   -0.7883    0.1635   -0.0739 C   0  0  0  0  0  0  0  0  0  0  0  0
    0.6350    0.5165   -0.3239 C   0  0  0  0  0  0  0  0  0  0  0  0
    1.4180   -0.3464   -1.2531 C   0  0  0  0  0  0  0  0  0  0  0  0
    2.5506   -0.0360   -0.4593 O   0  0  0  0  0  0  0  0  0  0  0  0
    1.6517   -0.0570    0.6340 C   0  0  0  0  0  0  0  0  0  0  0  0
   -1.6629    1.3541    0.3097 C   0  0  0  0  0  0  0  0  0  0  0  0
   -1.6942    0.7679   -0.9443 O   0  0  0  0  0  0  0  0  0  0  0  0
   -1.9448   -1.6084   -0.2063 H   0  0  0  0  0  0  0  0  0  0  0  0
   -1.7546   -0.9748    1.4674 H   0  0  0  0  0  0  0  0  0  0  0  0
   -0.4079   -1.8827    0.6286 H   0  0  0  0  0  0  0  0  0  0  0  0
    0.8018    1.5759   -0.5265 H   0  0  0  0  0  0  0  0  0  0  0  0
    1.4881    0.0199   -2.2912 H   0  0  0  0  0  0  0  0  0  0  0  0
    1.2537   -1.4384   -1.1794 H   0  0  0  0  0  0  0  0  0  0  0  0
    1.4496   -1.0922    0.9097 H   0  0  0  0  0  0  0  0  0  0  0  0
    1.9190    0.6445    1.4474 H   0  0  0  0  0  0  0  0  0  0  0  0
   -2.4934    1.1744    1.0218 H   0  0  0  0  0  0  0  0  0  0  0  0
   -1.2162    2.3551    0.3341 H   0  0  0  0  0  0  0  0  0  0  0  0
  1  2  1  0
  2  3  1  0
  3  4  1  0
  4  5  1  0
  5  6  1  0
  2  7  1  0
  7  8  1  0
  8  2  1  0
  6  3  1  0
  1  9  1  0
  1 10  1  0
  1 11  1  0
  3 12  1  0
  4 13  1  0
  4 14  1  0
  6 15  1  0
  6 16  1  0
  7 17  1  0
  7 18  1  0
M  END
