
     RDKit          3D

 21 21  0  0  0  0  0  0  0  0999 V2000
   -2.1911   -0.1462    0.4930 C   0  0  0  0  0  0  0  0  0  0  0  0
   -0.9057    0.1001   -0.3128 C   0  0  0  0  0  0  0  0  0  0  0  0
   -1.3786    0.3716   -1.6221 O   0  0  0  0  0  0  0  0  0  0  0  0
   -0.0900   -1.1306   -0.4116 C   0  0  0  0  0  0  0  0  0  0  0  0
    0.8786   -1.2966    0.5363 O   0  0  0  0  0  0  0  0  0  0  0  0
    2.0906   -0.8056   -0.0044 C   0  0  0  0  0  0  0  0  0  0  0  0
    1.9822    0.7017   -0.0477 C   0  0  0  0  0  0  0  0  0  0  0  0
    0.9738    1.1305    0.8105 O   0  0  0  0  0  0  0  0  0  0  0  0
   -0.2247    1.3161    0.1752 C   0  0  0  0  0  0  0  0  0  0  0  0
   -2.7192   -1.0199    0.1032 H   0  0  0  0  0  0  0  0  0  0  0  0
   -2.8442    0.7435    0.2550 H   0  0  0  0  0  0  0  0  0  0  0  0
   -2.0122   -0.1339    1.5677 H   0  0  0  0  0  0  0  0  0  0  0  0
   -1.9766   -0.3893   -1.8341 H   0  0  0  0  0  0  0  0  0  0  0  0
   -0.7925   -2.0120   -0.3233 H   0  0  0  0  0  0  0  0  0  0  0  0
    0.3763   -1.2683   -1.4286 H   0  0  0  0  0  0  0  0  0  0  0  0
    2.2017   -1.1749   -1.0641 H   0  0  0  0  0  0  0  0  0  0  0  0
    2.9632   -1.1596    0.5786 H   0  0  0  0  0  0  0  0  0  0  0  0
    2.9280    1.2000    0.2675 H   0  0  0  0  0  0  0  0  0  0  0  0
    1.6755    1.0546   -1.0736 H   0  0  0  0  0  0  0  0  0  0  0  0
   -0.8984    1.8578    0.9040 H   0  0  0  0  0  0  0  0  0  0  0  0
   -0.0367    2.0609   -0.6535 H   0  0  0  0  0  0  0  0  0  0  0  0
  1  2  1  0
  2  3  1  0
  2  4  1  0
  4  5  1  0
  5  6  1  0
  6  7  1  0
  7  8  1  0
  8  9  1  0
  9  2  1  0
  1 10  1  0
  1 11  1  0
  1 12  1  0
  3 13  1  0
  4 14  1  0
  4 15  1  0
  6 16  1  0
  6 17  1  0
  7 18  1  0
  7 19  1  0
  9 20  1  0
  9 21  1  0
M  END
