
     RDKit          3D

 21 21  0  0  0  0  0  0  0  0999 V2000
   -1.2852   -1.6026    0.2738 C   0  0  0  0  0  0  0  0  0  0  0  0
   -0.3257   -0.4341    0.1929 C   0  0  0  0  0  0  0  0  0  0  0  0
   -0.7962    0.7627    0.9507 C   0  0  0  0  0  0  0  0  0  0  0  0
   -2.0965    1.2509    0.4353 C   0  0  0  0  0  0  0  0  0  0  0  0
   -3.1876    0.8121    0.7492 O   0  0  0  0  0  0  0  0  0  0  0  0
    0.1391   -0.1767   -1.2428 C   0  0  0  0  0  0  0  0  0  0  0  0
    1.0674   -0.7117   -0.1375 C   0  0  0  0  0  0  0  0  0  0  0  0
    2.2273    0.1529    0.1414 C   0  0  0  0  0  0  0  0  0  0  0  0
    2.1816    1.4071   -0.4426 O   0  0  0  0  0  0  0  0  0  0  0  0
   -1.0423   -2.2063    1.1848 H   0  0  0  0  0  0  0  0  0  0  0  0
   -2.3502   -1.3070    0.3248 H   0  0  0  0  0  0  0  0  0  0  0  0
   -1.1774   -2.2889   -0.5899 H   0  0  0  0  0  0  0  0  0  0  0  0
   -0.9643    0.4894    2.0266 H   0  0  0  0  0  0  0  0  0  0  0  0
   -0.0838    1.6038    0.9730 H   0  0  0  0  0  0  0  0  0  0  0  0
   -2.1074    2.0741   -0.2897 H   0  0  0  0  0  0  0  0  0  0  0  0
    0.2601    0.8741   -1.5455 H   0  0  0  0  0  0  0  0  0  0  0  0
   -0.1438   -0.8582   -2.0401 H   0  0  0  0  0  0  0  0  0  0  0  0
    1.3307   -1.7983   -0.2476 H   0  0  0  0  0  0  0  0  0  0  0  0
    3.1506   -0.3313   -0.2371 H   0  0  0  0  0  0  0  0  0  0  0  0
    2.3951    0.2507    1.2519 H   0  0  0  0  0  0  0  0  0  0  0  0
    2.8085    2.0375   -0.0560 H   0  0  0  0  0  0  0  0  0  0  0  0
  1  2  1  0
  2  3  1  0
  3  4  1  0
  4  5  2  0
  2  6  1  0
  6  7  1  0
  7  8  1  0
  8  9  1  0
  7  2  1  0
  1 10  1  0
  1 11  1  0
  1 12  1  0
  3 13  1  0
  3 14  1  0
  4 15  1  0
  6 16  1  0
  6 17  1  0
  7 18  1  0
  8 19  1  0
  8 20  1  0
  9 21  1  0
M  END
