
     RDKit          3D

 23 24  0  0  0  0  0  0  0  0999 V2000
   -1.5783    0.9638    0.8923 C   0  0  0  0  0  0  0  0  0  0  0  0
   -1.2162   -0.1142   -0.0779 C   0  0  0  0  0  0  0  0  0  0  0  0
   -2.4092   -1.0268   -0.4073 C   0  0  0  0  0  0  0  0  0  0  0  0
   -0.4334    0.2464   -1.3227 C   0  0  0  0  0  0  0  0  0  0  0  0
    0.1056   -0.6680   -0.2576 C   0  0  0  0  0  0  0  0  0  0  0  0
    1.3547   -0.1855    0.3994 C   0  0  0  0  0  0  0  0  0  0  0  0
    2.6398   -0.9512    0.0453 C   0  0  0  0  0  0  0  0  0  0  0  0
    1.6255    1.3001    0.5227 C   0  0  0  0  0  0  0  0  0  0  0  0
    1.3645    0.3846    1.6404 O   0  0  0  0  0  0  0  0  0  0  0  0
   -0.9122    1.0227    1.7723 H   0  0  0  0  0  0  0  0  0  0  0  0
   -2.6087    0.8602    1.3060 H   0  0  0  0  0  0  0  0  0  0  0  0
   -1.5701    1.9708    0.4026 H   0  0  0  0  0  0  0  0  0  0  0  0
   -3.2063   -0.3271   -0.7734 H   0  0  0  0  0  0  0  0  0  0  0  0
   -2.7354   -1.5502    0.5121 H   0  0  0  0  0  0  0  0  0  0  0  0
   -2.0821   -1.7201   -1.2034 H   0  0  0  0  0  0  0  0  0  0  0  0
   -0.7050   -0.1580   -2.2956 H   0  0  0  0  0  0  0  0  0  0  0  0
   -0.1232    1.3098   -1.3472 H   0  0  0  0  0  0  0  0  0  0  0  0
    0.1648   -1.7457   -0.5904 H   0  0  0  0  0  0  0  0  0  0  0  0
    2.5593   -2.0132    0.3215 H   0  0  0  0  0  0  0  0  0  0  0  0
    2.7804   -0.8711   -1.0608 H   0  0  0  0  0  0  0  0  0  0  0  0
    3.5118   -0.4418    0.5021 H   0  0  0  0  0  0  0  0  0  0  0  0
    0.8253    2.0298    0.4652 H   0  0  0  0  0  0  0  0  0  0  0  0
    2.6485    1.6847    0.5545 H   0  0  0  0  0  0  0  0  0  0  0  0
  1  2  1  0
  2  3  1  0
  2  4  1  0
  4  5  1  0
  5  6  1  0
  6  7  1  0
  6  8  1  0
  8  9  1  0
  5  2  1  0
  9  6  1  0
  1 10  1  0
  1 11  1  0
  1 12  1  0
  3 13  1  0
  3 14  1  0
  3 15  1  0
  4 16  1  0
  4 17  1  0
  5 18  1  0
  7 19  1  0
  7 20  1  0
  7 21  1  0
  8 22  1  0
  8 23  1  0
M  END
