
     RDKit          3D

 19 19  0  0  0  0  0  0  0  0999 V2000
   -1.8270    0.5525   -0.2684 C   0  0  0  0  0  0  0  0  0  0  0  0
   -0.6168   -0.4049   -0.1464 C   0  0  0  0  0  0  0  0  0  0  0  0
   -0.9122   -1.8119   -0.5077 C   0  0  0  0  0  0  0  0  0  0  0  0
   -0.0809   -2.6701   -0.6997 O   0  0  0  0  0  0  0  0  0  0  0  0
    0.0617   -0.3995    1.2168 C   0  0  0  0  0  0  0  0  0  0  0  0
    0.7230    0.1432   -0.0191 C   0  0  0  0  0  0  0  0  0  0  0  0
    1.0446    1.6423    0.2025 C   0  0  0  0  0  0  0  0  0  0  0  0
    1.9072   -0.5661   -0.6200 C   0  0  0  0  0  0  0  0  0  0  0  0
    1.6628   -1.2712   -1.5913 O   0  0  0  0  0  0  0  0  0  0  0  0
   -2.7318   -0.0491   -0.4283 H   0  0  0  0  0  0  0  0  0  0  0  0
   -1.9473    1.2097    0.5822 H   0  0  0  0  0  0  0  0  0  0  0  0
   -1.6728    1.1070   -1.2282 H   0  0  0  0  0  0  0  0  0  0  0  0
   -1.9495   -2.0743   -0.5999 H   0  0  0  0  0  0  0  0  0  0  0  0
    0.4606   -1.3287    1.6528 H   0  0  0  0  0  0  0  0  0  0  0  0
   -0.3099    0.2839    1.9823 H   0  0  0  0  0  0  0  0  0  0  0  0
    2.0769    1.8998   -0.0974 H   0  0  0  0  0  0  0  0  0  0  0  0
    0.3586    2.2595   -0.4419 H   0  0  0  0  0  0  0  0  0  0  0  0
    0.8802    1.9574    1.2532 H   0  0  0  0  0  0  0  0  0  0  0  0
    2.8726   -0.4795   -0.2415 H   0  0  0  0  0  0  0  0  0  0  0  0
  1  2  1  0
  2  3  1  0
  3  4  2  0
  2  5  1  0
  5  6  1  0
  6  7  1  0
  6  8  1  0
  8  9  2  0
  6  2  1  0
  1 10  1  0
  1 11  1  0
  1 12  1  0
  3 13  1  0
  5 14  1  0
  5 15  1  0
  7 16  1  0
  7 17  1  0
  7 18  1  0
  8 19  1  0
M  END
