
     RDKit          3D

 17 17  0  0  0  0  0  0  0  0999 V2000
    0.6763   -1.1131   -0.5102 C   0  0  0  0  0  0  0  0  0  0  0  0
   -0.2090   -0.0958    0.1087 C   0  0  0  0  0  0  0  0  0  0  0  0
    0.4398    1.1536    0.6196 C   0  0  0  0  0  0  0  0  0  0  0  0
    1.4212    0.7515    1.6613 C   0  0  0  0  0  0  0  0  0  0  0  0
    2.5513    0.3933    1.3779 O   0  0  0  0  0  0  0  0  0  0  0  0
   -1.4321    0.1472   -0.7500 C   0  0  0  0  0  0  0  0  0  0  0  0
   -1.9351   -1.0427   -0.1599 O   0  0  0  0  0  0  0  0  0  0  0  0
   -1.2549   -0.6686    1.0090 C   0  0  0  0  0  0  0  0  0  0  0  0
   -1.4950   -0.7992    2.2149 O   0  0  0  0  0  0  0  0  0  0  0  0
    1.6841   -1.2132   -0.0640 H   0  0  0  0  0  0  0  0  0  0  0  0
    0.1595   -2.1165   -0.5235 H   0  0  0  0  0  0  0  0  0  0  0  0
    0.8396   -0.8196   -1.5755 H   0  0  0  0  0  0  0  0  0  0  0  0
    0.9439    1.6369   -0.2572 H   0  0  0  0  0  0  0  0  0  0  0  0
   -0.2869    1.8595    1.0664 H   0  0  0  0  0  0  0  0  0  0  0  0
    1.0794    0.7928    2.6917 H   0  0  0  0  0  0  0  0  0  0  0  0
   -1.1900    0.0822   -1.8166 H   0  0  0  0  0  0  0  0  0  0  0  0
   -1.9921    1.0519   -0.4212 H   0  0  0  0  0  0  0  0  0  0  0  0
  1  2  1  0
  2  3  1  0
  3  4  1  0
  4  5  2  0
  2  6  1  0
  6  7  1  0
  7  8  1  0
  8  9  2  0
  8  2  1  0
  1 10  1  0
  1 11  1  0
  1 12  1  0
  3 13  1  0
  3 14  1  0
  4 15  1  0
  6 16  1  0
  6 17  1  0
M  END
