
     RDKit          3D

 23 23  0  0  0  0  0  0  0  0999 V2000
   -1.0964    1.2194    0.7973 C   0  0  0  0  0  0  0  0  0  0  0  0
   -1.0110   -0.0442   -0.0086 C   0  0  0  0  0  0  0  0  0  0  0  0
    0.1520   -0.9401   -0.0599 C   0  0  0  0  0  0  0  0  0  0  0  0
    1.4621   -0.4870   -0.5605 C   0  0  0  0  0  0  0  0  0  0  0  0
    2.2911   -1.6761   -0.4449 O   0  0  0  0  0  0  0  0  0  0  0  0
    2.2150    0.5263    0.2310 C   0  0  0  0  0  0  0  0  0  0  0  0
    1.6389    1.7827    0.1862 O   0  0  0  0  0  0  0  0  0  0  0  0
   -1.9116   -0.0086   -1.2341 C   0  0  0  0  0  0  0  0  0  0  0  0
   -2.3623   -0.8006   -0.0510 C   0  0  0  0  0  0  0  0  0  0  0  0
   -0.9999    2.0845    0.1278 H   0  0  0  0  0  0  0  0  0  0  0  0
   -0.4773    1.2578    1.6925 H   0  0  0  0  0  0  0  0  0  0  0  0
   -2.1583    1.3487    1.2137 H   0  0  0  0  0  0  0  0  0  0  0  0
   -0.1466   -1.8058   -0.7451 H   0  0  0  0  0  0  0  0  0  0  0  0
    0.3410   -1.4800    0.9128 H   0  0  0  0  0  0  0  0  0  0  0  0
    1.5108   -0.2514   -1.6333 H   0  0  0  0  0  0  0  0  0  0  0  0
    3.0123   -1.6254   -1.1091 H   0  0  0  0  0  0  0  0  0  0  0  0
    2.4032    0.1926    1.2762 H   0  0  0  0  0  0  0  0  0  0  0  0
    3.2535    0.6738   -0.1875 H   0  0  0  0  0  0  0  0  0  0  0  0
    1.4549    2.0672   -0.7374 H   0  0  0  0  0  0  0  0  0  0  0  0
   -1.5238   -0.5906   -2.1030 H   0  0  0  0  0  0  0  0  0  0  0  0
   -2.5189    0.8898   -1.4329 H   0  0  0  0  0  0  0  0  0  0  0  0
   -2.3430   -1.8973   -0.1411 H   0  0  0  0  0  0  0  0  0  0  0  0
   -3.1857   -0.4358    0.5775 H   0  0  0  0  0  0  0  0  0  0  0  0
  1  2  1  0
  2  3  1  0
  3  4  1  0
  4  5  1  0
  4  6  1  0
  6  7  1  0
  2  8  1  0
  8  9  1  0
  9  2  1  0
  1 10  1  0
  1 11  1  0
  1 12  1  0
  3 13  1  0
  3 14  1  0
  4 15  1  0
  5 16  1  0
  6 17  1  0
  6 18  1  0
  7 19  1  0
  8 20  1  0
  8 21  1  0
  9 22  1  0
  9 23  1  0
M  END
