
     RDKit          3D

 21 21  0  0  0  0  0  0  0  0999 V2000
   -0.6774    1.6837    0.3955 C   0  0  0  0  0  0  0  0  0  0  0  0
   -0.5345    0.2175    0.2147 C   0  0  0  0  0  0  0  0  0  0  0  0
   -1.7988   -0.5279    0.5430 C   0  0  0  0  0  0  0  0  0  0  0  0
   -1.5381   -1.8888    0.3349 O   0  0  0  0  0  0  0  0  0  0  0  0
    0.1118   -0.2499   -1.0492 C   0  0  0  0  0  0  0  0  0  0  0  0
    0.6782   -1.2962   -0.3315 O   0  0  0  0  0  0  0  0  0  0  0  0
    0.6480   -0.4679    0.7931 C   0  0  0  0  0  0  0  0  0  0  0  0
    1.9333    0.3119    0.8589 C   0  0  0  0  0  0  0  0  0  0  0  0
    3.0490   -0.5185    0.9527 O   0  0  0  0  0  0  0  0  0  0  0  0
   -0.5474    2.1640   -0.6178 H   0  0  0  0  0  0  0  0  0  0  0  0
    0.0676    2.1544    1.0505 H   0  0  0  0  0  0  0  0  0  0  0  0
   -1.6745    2.0132    0.7509 H   0  0  0  0  0  0  0  0  0  0  0  0
   -2.1452   -0.3348    1.5763 H   0  0  0  0  0  0  0  0  0  0  0  0
   -2.5875   -0.1705   -0.1492 H   0  0  0  0  0  0  0  0  0  0  0  0
   -2.4288   -2.3169    0.2093 H   0  0  0  0  0  0  0  0  0  0  0  0
    0.8782    0.3932   -1.4801 H   0  0  0  0  0  0  0  0  0  0  0  0
   -0.6104   -0.5609   -1.8353 H   0  0  0  0  0  0  0  0  0  0  0  0
    0.4238   -1.0707    1.6826 H   0  0  0  0  0  0  0  0  0  0  0  0
    2.0587    1.0313    0.0564 H   0  0  0  0  0  0  0  0  0  0  0  0
    1.9013    0.8846    1.8315 H   0  0  0  0  0  0  0  0  0  0  0  0
    2.7928   -1.4510    0.7404 H   0  0  0  0  0  0  0  0  0  0  0  0
  1  2  1  0
  2  3  1  0
  3  4  1  0
  2  5  1  0
  5  6  1  0
  6  7  1  0
  7  8  1  0
  8  9  1  0
  7  2  1  0
  1 10  1  0
  1 11  1  0
  1 12  1  0
  3 13  1  0
  3 14  1  0
  4 15  1  0
  5 16  1  0
  5 17  1  0
  7 18  1  0
  8 19  1  0
  8 20  1  0
  9 21  1  0
M  END
