
     RDKit          3D

 23 23  0  0  0  0  0  0  0  0999 V2000
   -1.8930    0.9040    1.1364 C   0  0  0  0  0  0  0  0  0  0  0  0
   -1.0444    0.1118    0.1800 C   0  0  0  0  0  0  0  0  0  0  0  0
   -1.8738   -0.2949   -1.0259 C   0  0  0  0  0  0  0  0  0  0  0  0
   -0.4800   -1.0659    0.9155 C   0  0  0  0  0  0  0  0  0  0  0  0
    1.0172   -0.9351    0.6322 C   0  0  0  0  0  0  0  0  0  0  0  0
    0.9489   -0.1448   -0.6683 C   0  0  0  0  0  0  0  0  0  0  0  0
    2.2917    0.4153   -1.0481 C   0  0  0  0  0  0  0  0  0  0  0  0
    2.8928    1.1196   -0.0357 O   0  0  0  0  0  0  0  0  0  0  0  0
    0.0413    0.8501   -0.3058 O   0  0  0  0  0  0  0  0  0  0  0  0
   -1.6717    1.9768    1.0007 H   0  0  0  0  0  0  0  0  0  0  0  0
   -1.7676    0.5576    2.1866 H   0  0  0  0  0  0  0  0  0  0  0  0
   -2.9862    0.7644    0.9170 H   0  0  0  0  0  0  0  0  0  0  0  0
   -1.3358   -0.1156   -1.9686 H   0  0  0  0  0  0  0  0  0  0  0  0
   -2.7944    0.3398   -1.0375 H   0  0  0  0  0  0  0  0  0  0  0  0
   -2.1610   -1.3763   -0.9081 H   0  0  0  0  0  0  0  0  0  0  0  0
   -0.8461   -2.0377    0.4713 H   0  0  0  0  0  0  0  0  0  0  0  0
   -0.6293   -1.0259    2.0059 H   0  0  0  0  0  0  0  0  0  0  0  0
    1.4633   -0.3158    1.4396 H   0  0  0  0  0  0  0  0  0  0  0  0
    1.4644   -1.9197    0.5162 H   0  0  0  0  0  0  0  0  0  0  0  0
    0.5450   -0.8438   -1.4256 H   0  0  0  0  0  0  0  0  0  0  0  0
    2.1721    1.0508   -1.9452 H   0  0  0  0  0  0  0  0  0  0  0  0
    2.9286   -0.4407   -1.3520 H   0  0  0  0  0  0  0  0  0  0  0  0
    3.7181    0.6826    0.3194 H   0  0  0  0  0  0  0  0  0  0  0  0
  1  2  1  0
  2  3  1  0
  2  4  1  0
  4  5  1  0
  5  6  1  0
  6  7  1  0
  7  8  1  0
  6  9  1  0
  9  2  1  0
  1 10  1  0
  1 11  1  0
  1 12  1  0
  3 13  1  0
  3 14  1  0
  3 15  1  0
  4 16  1  0
  4 17  1  0
  5 18  1  0
  5 19  1  0
  6 20  1  0
  7 21  1  0
  7 22  1  0
  8 23  1  0
M  END
