
     RDKit          3D

 23 24  0  0  0  0  0  0  0  0999 V2000
   -2.4976   -1.2390   -0.1256 C   0  0  0  0  0  0  0  0  0  0  0  0
   -1.3955   -0.2158    0.1098 C   0  0  0  0  0  0  0  0  0  0  0  0
   -0.0205   -0.7810    0.0129 C   0  0  0  0  0  0  0  0  0  0  0  0
    1.0607    0.2491    0.2494 C   0  0  0  0  0  0  0  0  0  0  0  0
    2.4278   -0.3918    0.1361 C   0  0  0  0  0  0  0  0  0  0  0  0
    3.5774    0.5447    0.3540 C   0  0  0  0  0  0  0  0  0  0  0  0
    3.2126   -0.4842    1.2818 O   0  0  0  0  0  0  0  0  0  0  0  0
   -1.7084    1.1780   -0.2662 C   0  0  0  0  0  0  0  0  0  0  0  0
   -1.7321    0.7750    1.1957 C   0  0  0  0  0  0  0  0  0  0  0  0
   -3.4875   -0.8720    0.1562 H   0  0  0  0  0  0  0  0  0  0  0  0
   -2.2727   -2.1267    0.5067 H   0  0  0  0  0  0  0  0  0  0  0  0
   -2.5530   -1.5295   -1.1997 H   0  0  0  0  0  0  0  0  0  0  0  0
    0.1206   -1.6083    0.7365 H   0  0  0  0  0  0  0  0  0  0  0  0
    0.1525   -1.1995   -1.0035 H   0  0  0  0  0  0  0  0  0  0  0  0
    0.9150    0.6311    1.2953 H   0  0  0  0  0  0  0  0  0  0  0  0
    1.0247    1.0609   -0.4950 H   0  0  0  0  0  0  0  0  0  0  0  0
    2.5454   -1.1343   -0.6653 H   0  0  0  0  0  0  0  0  0  0  0  0
    4.5596    0.3441   -0.1251 H   0  0  0  0  0  0  0  0  0  0  0  0
    3.3884    1.5849    0.6942 H   0  0  0  0  0  0  0  0  0  0  0  0
   -2.6553    1.3615   -0.7891 H   0  0  0  0  0  0  0  0  0  0  0  0
   -0.9279    1.9272   -0.4941 H   0  0  0  0  0  0  0  0  0  0  0  0
   -2.7646    0.7804    1.6295 H   0  0  0  0  0  0  0  0  0  0  0  0
   -0.9692    1.1450    1.8832 H   0  0  0  0  0  0  0  0  0  0  0  0
  1  2  1  0
  2  3  1  0
  3  4  1  0
  4  5  1  0
  5  6  1  0
  6  7  1  0
  2  8  1  0
  8  9  1  0
  9  2  1  0
  7  5  1  0
  1 10  1  0
  1 11  1  0
  1 12  1  0
  3 13  1  0
  3 14  1  0
  4 15  1  0
  4 16  1  0
  5 17  1  0
  6 18  1  0
  6 19  1  0
  8 20  1  0
  8 21  1  0
  9 22  1  0
  9 23  1  0
M  END
