
     RDKit          3D

 19 21  0  0  0  0  0  0  0  0999 V2000
    1.9340   -0.2940    0.7798 C   0  0  0  0  0  0  0  0  0  0  0  0
    0.8104   -0.3700   -0.2691 C   0  0  0  0  0  0  0  0  0  0  0  0
    1.3082   -0.1102   -1.5566 O   0  0  0  0  0  0  0  0  0  0  0  0
   -0.2624   -1.1620   -0.0128 C   0  0  0  0  0  0  0  0  0  0  0  0
   -1.6832   -1.1285   -0.5956 C   0  0  0  0  0  0  0  0  0  0  0  0
   -2.7725   -0.8019    0.1180 O   0  0  0  0  0  0  0  0  0  0  0  0
   -1.7011   -0.2894    0.7160 C   0  0  0  0  0  0  0  0  0  0  0  0
   -0.4627    0.2443    0.0652 C   0  0  0  0  0  0  0  0  0  0  0  0
   -0.5806    1.5539   -0.3525 C   0  0  0  0  0  0  0  0  0  0  0  0
    1.5593   -0.5863    1.7803 H   0  0  0  0  0  0  0  0  0  0  0  0
    2.6780   -1.0567    0.4880 H   0  0  0  0  0  0  0  0  0  0  0  0
    2.3806    0.7146    0.8152 H   0  0  0  0  0  0  0  0  0  0  0  0
    2.1294    0.4462   -1.5235 H   0  0  0  0  0  0  0  0  0  0  0  0
   -0.2859   -1.8464    0.8933 H   0  0  0  0  0  0  0  0  0  0  0  0
   -1.6221   -0.5072   -1.5437 H   0  0  0  0  0  0  0  0  0  0  0  0
   -1.4253   -0.8612    1.6555 H   0  0  0  0  0  0  0  0  0  0  0  0
   -0.8085    2.2725    0.4935 H   0  0  0  0  0  0  0  0  0  0  0  0
   -1.4597    1.7103   -1.0519 H   0  0  0  0  0  0  0  0  0  0  0  0
    0.2644    2.0720   -0.8988 H   0  0  0  0  0  0  0  0  0  0  0  0
  1  2  1  0
  2  3  1  0
  2  4  1  0
  4  5  1  0
  5  6  1  0
  6  7  1  0
  7  8  1  0
  8  9  1  0
  8  2  1  0
  8  4  1  0
  7  5  1  0
  1 10  1  0
  1 11  1  0
  1 12  1  0
  3 13  1  0
  4 14  1  0
  5 15  1  0
  7 16  1  0
  9 17  1  0
  9 18  1  0
  9 19  1  0
M  END
