
     RDKit          3D

 19 20  0  0  0  0  0  0  0  0999 V2000
   -1.6183   -0.1552   -0.4649 C   0  0  0  0  0  0  0  0  0  0  0  0
   -0.5661    0.2871    0.4943 C   0  0  0  0  0  0  0  0  0  0  0  0
   -1.0924    1.0922    1.4675 O   0  0  0  0  0  0  0  0  0  0  0  0
    0.2683   -0.8553    1.0292 C   0  0  0  0  0  0  0  0  0  0  0  0
    1.0083   -1.3851   -0.1528 C   0  0  0  0  0  0  0  0  0  0  0  0
    1.6393   -0.0338   -0.0156 C   0  0  0  0  0  0  0  0  0  0  0  0
    1.4720   -0.1975    1.3803 O   0  0  0  0  0  0  0  0  0  0  0  0
    0.5622    0.9881   -0.2893 C   0  0  0  0  0  0  0  0  0  0  0  0
    0.2572    1.1331   -1.6134 O   0  0  0  0  0  0  0  0  0  0  0  0
   -1.5735   -1.2353   -0.7207 H   0  0  0  0  0  0  0  0  0  0  0  0
   -2.6392   -0.0027   -0.0196 H   0  0  0  0  0  0  0  0  0  0  0  0
   -1.5375    0.4524   -1.4043 H   0  0  0  0  0  0  0  0  0  0  0  0
   -2.1014    1.0442    1.4910 H   0  0  0  0  0  0  0  0  0  0  0  0
   -0.1559   -1.5158    1.7479 H   0  0  0  0  0  0  0  0  0  0  0  0
    1.7217   -2.1726    0.1353 H   0  0  0  0  0  0  0  0  0  0  0  0
    0.4244   -1.5681   -1.0690 H   0  0  0  0  0  0  0  0  0  0  0  0
    2.6270    0.1381   -0.3738 H   0  0  0  0  0  0  0  0  0  0  0  0
    0.8107    1.9049    0.2484 H   0  0  0  0  0  0  0  0  0  0  0  0
    0.4930    2.0814   -1.8707 H   0  0  0  0  0  0  0  0  0  0  0  0
  1  2  1  0
  2  3  1  0
  2  4  1  0
  4  5  1  0
  5  6  1  0
  6  7  1  0
  6  8  1  0
  8  9  1  0
  8  2  1  0
  7  4  1  0
  1 10  1  0
  1 11  1  0
  1 12  1  0
  3 13  1  0
  4 14  1  0
  5 15  1  0
  5 16  1  0
  6 17  1  0
  8 18  1  0
  9 19  1  0
M  END
