
     RDKit          3D

 17 17  0  0  0  0  0  0  0  0999 V2000
    1.6457   -0.6512   -0.7316 C   0  0  0  0  0  0  0  0  0  0  0  0
    0.5962    0.2204   -0.0847 C   0  0  0  0  0  0  0  0  0  0  0  0
    0.7330    0.3512    1.3822 C   0  0  0  0  0  0  0  0  0  0  0  0
    0.9112   -0.5874    2.1390 O   0  0  0  0  0  0  0  0  0  0  0  0
    0.4011    1.4578   -0.6919 O   0  0  0  0  0  0  0  0  0  0  0  0
   -0.9335    1.3608   -0.2903 C   0  0  0  0  0  0  0  0  0  0  0  0
   -0.7984   -0.1305   -0.5681 C   0  0  0  0  0  0  0  0  0  0  0  0
   -1.5762   -1.0178    0.2798 C   0  0  0  0  0  0  0  0  0  0  0  0
   -2.2106   -1.9225   -0.2318 O   0  0  0  0  0  0  0  0  0  0  0  0
    2.2919   -0.0014   -1.3483 H   0  0  0  0  0  0  0  0  0  0  0  0
    1.1915   -1.4731   -1.3325 H   0  0  0  0  0  0  0  0  0  0  0  0
    2.1998   -1.1504    0.0902 H   0  0  0  0  0  0  0  0  0  0  0  0
    0.6748    1.3308    1.8354 H   0  0  0  0  0  0  0  0  0  0  0  0
   -1.0638    1.5561    0.7926 H   0  0  0  0  0  0  0  0  0  0  0  0
   -1.6516    1.8779   -0.9542 H   0  0  0  0  0  0  0  0  0  0  0  0
   -0.7867   -0.3016   -1.6408 H   0  0  0  0  0  0  0  0  0  0  0  0
   -1.6244   -0.9192    1.3548 H   0  0  0  0  0  0  0  0  0  0  0  0
  1  2  1  0
  2  3  1  0
  3  4  2  0
  2  5  1  0
  5  6  1  0
  6  7  1  0
  7  8  1  0
  8  9  2  0
  7  2  1  0
  1 10  1  0
  1 11  1  0
  1 12  1  0
  3 13  1  0
  6 14  1  0
  6 15  1  0
  7 16  1  0
  8 17  1  0
M  END
