
     RDKit          3D

 22 23  0  0  0  0  0  0  0  0999 V2000
    1.9489   -0.7174   -0.8115 C   0  0  0  0  0  0  0  0  0  0  0  0
    0.8535   -0.0010    0.0046 C   0  0  0  0  0  0  0  0  0  0  0  0
    1.4187    0.3241    1.4001 C   0  0  0  0  0  0  0  0  0  0  0  0
   -0.0238    0.9844   -0.5130 C   0  0  0  0  0  0  0  0  0  0  0  0
   -1.5054    1.1632   -0.4368 C   0  0  0  0  0  0  0  0  0  0  0  0
   -1.4613   -0.1296   -1.2807 C   0  0  0  0  0  0  0  0  0  0  0  0
   -0.4646   -0.5019   -0.2111 C   0  0  0  0  0  0  0  0  0  0  0  0
   -1.1677   -0.7597    1.0942 C   0  0  0  0  0  0  0  0  0  0  0  0
    2.5646   -1.3541   -0.1711 H   0  0  0  0  0  0  0  0  0  0  0  0
    2.5205    0.1151   -1.2979 H   0  0  0  0  0  0  0  0  0  0  0  0
    1.5171   -1.3333   -1.6126 H   0  0  0  0  0  0  0  0  0  0  0  0
    2.3742    0.8825    1.1809 H   0  0  0  0  0  0  0  0  0  0  0  0
    0.7759    1.0441    1.9279 H   0  0  0  0  0  0  0  0  0  0  0  0
    1.6142   -0.6067    1.9660 H   0  0  0  0  0  0  0  0  0  0  0  0
    0.2448    1.1686   -1.6063 H   0  0  0  0  0  0  0  0  0  0  0  0
   -2.0046    1.0681    0.5129 H   0  0  0  0  0  0  0  0  0  0  0  0
   -1.8889    2.0394   -0.9864 H   0  0  0  0  0  0  0  0  0  0  0  0
   -1.0342    0.0968   -2.2573 H   0  0  0  0  0  0  0  0  0  0  0  0
   -2.3696   -0.7297   -1.2272 H   0  0  0  0  0  0  0  0  0  0  0  0
   -0.7109   -1.7216    1.4848 H   0  0  0  0  0  0  0  0  0  0  0  0
   -2.2384   -1.0106    0.9641 H   0  0  0  0  0  0  0  0  0  0  0  0
   -0.9630   -0.0208    1.8764 H   0  0  0  0  0  0  0  0  0  0  0  0
  1  2  1  0
  2  3  1  0
  2  4  1  0
  4  5  1  0
  5  6  1  0
  6  7  1  0
  7  8  1  0
  7  2  1  0
  7  4  1  0
  1  9  1  0
  1 10  1  0
  1 11  1  0
  3 12  1  0
  3 13  1  0
  3 14  1  0
  4 15  1  0
  5 16  1  0
  5 17  1  0
  6 18  1  0
  6 19  1  0
  8 20  1  0
  8 21  1  0
  8 22  1  0
M  END
