
     RDKit          3D

 19 20  0  0  0  0  0  0  0  0999 V2000
    1.1700    1.0592   -1.0049 C   0  0  0  0  0  0  0  0  0  0  0  0
    0.4994    0.0336   -0.1318 C   0  0  0  0  0  0  0  0  0  0  0  0
    1.3917   -0.3793    0.9935 C   0  0  0  0  0  0  0  0  0  0  0  0
    0.0069   -1.1771   -0.8606 C   0  0  0  0  0  0  0  0  0  0  0  0
    0.6456   -1.9405   -1.5988 O   0  0  0  0  0  0  0  0  0  0  0  0
   -1.3592   -1.0333   -0.3560 C   0  0  0  0  0  0  0  0  0  0  0  0
   -1.6686   -0.6050    1.0236 C   0  0  0  0  0  0  0  0  0  0  0  0
   -0.9231    0.3517    0.2076 C   0  0  0  0  0  0  0  0  0  0  0  0
   -1.4903    1.4085   -0.4590 O   0  0  0  0  0  0  0  0  0  0  0  0
    1.6503    1.7985   -0.3208 H   0  0  0  0  0  0  0  0  0  0  0  0
    0.4438    1.6140   -1.6079 H   0  0  0  0  0  0  0  0  0  0  0  0
    1.9839    0.5887   -1.6038 H   0  0  0  0  0  0  0  0  0  0  0  0
    2.0342   -1.2238    0.6033 H   0  0  0  0  0  0  0  0  0  0  0  0
    0.8761   -0.7750    1.8685 H   0  0  0  0  0  0  0  0  0  0  0  0
    2.1152    0.4462    1.2456 H   0  0  0  0  0  0  0  0  0  0  0  0
   -2.1491   -1.0489   -1.1004 H   0  0  0  0  0  0  0  0  0  0  0  0
   -2.7353   -0.3656    1.2176 H   0  0  0  0  0  0  0  0  0  0  0  0
   -1.1501   -1.0134    1.9095 H   0  0  0  0  0  0  0  0  0  0  0  0
   -1.3416    2.2616   -0.0251 H   0  0  0  0  0  0  0  0  0  0  0  0
  1  2  1  0
  2  3  1  0
  2  4  1  0
  4  5  2  0
  4  6  1  0
  6  7  1  0
  7  8  1  0
  8  9  1  0
  8  2  1  0
  8  6  1  0
  1 10  1  0
  1 11  1  0
  1 12  1  0
  3 13  1  0
  3 14  1  0
  3 15  1  0
  6 16  1  0
  7 17  1  0
  7 18  1  0
  9 19  1  0
M  END
