
     RDKit          3D

 21 22  0  0  0  0  0  0  0  0999 V2000
   -1.6619   -1.5195   -0.2364 C   0  0  0  0  0  0  0  0  0  0  0  0
   -0.7591   -0.3308    0.0903 C   0  0  0  0  0  0  0  0  0  0  0  0
    0.6985   -0.6824   -0.0206 C   0  0  0  0  0  0  0  0  0  0  0  0
    1.6313    0.4462    0.3020 C   0  0  0  0  0  0  0  0  0  0  0  0
    3.0889    0.0849    0.1916 C   0  0  0  0  0  0  0  0  0  0  0  0
    2.4824    0.3190    1.4016 O   0  0  0  0  0  0  0  0  0  0  0  0
   -1.1234    0.6090    1.1873 C   0  0  0  0  0  0  0  0  0  0  0  0
   -1.1872    1.0252   -0.2752 C   0  0  0  0  0  0  0  0  0  0  0  0
   -2.4960    1.2740   -0.7082 O   0  0  0  0  0  0  0  0  0  0  0  0
   -2.7051   -1.3125    0.0308 H   0  0  0  0  0  0  0  0  0  0  0  0
   -1.5072   -1.7788   -1.3027 H   0  0  0  0  0  0  0  0  0  0  0  0
   -1.2840   -2.3660    0.3821 H   0  0  0  0  0  0  0  0  0  0  0  0
    0.9662   -1.0082   -1.0657 H   0  0  0  0  0  0  0  0  0  0  0  0
    0.9739   -1.5544    0.6111 H   0  0  0  0  0  0  0  0  0  0  0  0
    1.3680    1.4538   -0.0546 H   0  0  0  0  0  0  0  0  0  0  0  0
    3.7686    0.8458   -0.2423 H   0  0  0  0  0  0  0  0  0  0  0  0
    3.3635   -0.9641   -0.0013 H   0  0  0  0  0  0  0  0  0  0  0  0
   -2.0850    0.4312    1.7352 H   0  0  0  0  0  0  0  0  0  0  0  0
   -0.3268    1.1021    1.7901 H   0  0  0  0  0  0  0  0  0  0  0  0
   -0.4777    1.7535   -0.6842 H   0  0  0  0  0  0  0  0  0  0  0  0
   -2.7280    2.1719   -0.3552 H   0  0  0  0  0  0  0  0  0  0  0  0
  1  2  1  0
  2  3  1  0
  3  4  1  0
  4  5  1  0
  5  6  1  0
  2  7  1  0
  7  8  1  0
  8  9  1  0
  8  2  1  0
  6  4  1  0
  1 10  1  0
  1 11  1  0
  1 12  1  0
  3 13  1  0
  3 14  1  0
  4 15  1  0
  5 16  1  0
  5 17  1  0
  7 18  1  0
  7 19  1  0
  8 20  1  0
  9 21  1  0
M  END
