
     RDKit          3D

 23 23  0  0  0  0  0  0  0  0999 V2000
   -1.3944   -0.0290    1.4119 C   0  0  0  0  0  0  0  0  0  0  0  0
   -0.9187   -0.0086   -0.0092 C   0  0  0  0  0  0  0  0  0  0  0  0
   -2.1551   -0.2205   -0.8923 C   0  0  0  0  0  0  0  0  0  0  0  0
   -0.3280    1.2985   -0.3976 C   0  0  0  0  0  0  0  0  0  0  0  0
    0.9666    1.4627   -0.5475 C   0  0  0  0  0  0  0  0  0  0  0  0
    1.9873    0.4054   -0.3576 C   0  0  0  0  0  0  0  0  0  0  0  0
    2.9619    0.8708    0.5356 O   0  0  0  0  0  0  0  0  0  0  0  0
    1.4252   -0.8718    0.1779 C   0  0  0  0  0  0  0  0  0  0  0  0
    0.0294   -1.1321   -0.3224 C   0  0  0  0  0  0  0  0  0  0  0  0
   -2.3914    0.4981    1.4246 H   0  0  0  0  0  0  0  0  0  0  0  0
   -1.4421   -1.0487    1.7927 H   0  0  0  0  0  0  0  0  0  0  0  0
   -0.7472    0.6022    2.0819 H   0  0  0  0  0  0  0  0  0  0  0  0
   -2.8825    0.5405   -0.6069 H   0  0  0  0  0  0  0  0  0  0  0  0
   -2.5433   -1.2287   -0.5985 H   0  0  0  0  0  0  0  0  0  0  0  0
   -1.8218   -0.1885   -1.9366 H   0  0  0  0  0  0  0  0  0  0  0  0
   -1.0262    2.1328   -0.5564 H   0  0  0  0  0  0  0  0  0  0  0  0
    1.3246    2.4461   -0.8324 H   0  0  0  0  0  0  0  0  0  0  0  0
    2.5013    0.2454   -1.3280 H   0  0  0  0  0  0  0  0  0  0  0  0
    3.1728    0.2075    1.2414 H   0  0  0  0  0  0  0  0  0  0  0  0
    2.0628   -1.7085   -0.2206 H   0  0  0  0  0  0  0  0  0  0  0  0
    1.4876   -0.9576    1.2856 H   0  0  0  0  0  0  0  0  0  0  0  0
    0.0908   -1.2497   -1.4375 H   0  0  0  0  0  0  0  0  0  0  0  0
   -0.3598   -2.0662    0.0917 H   0  0  0  0  0  0  0  0  0  0  0  0
  1  2  1  0
  2  3  1  0
  2  4  1  0
  4  5  2  0
  5  6  1  0
  6  7  1  0
  6  8  1  0
  8  9  1  0
  9  2  1  0
  1 10  1  0
  1 11  1  0
  1 12  1  0
  3 13  1  0
  3 14  1  0
  3 15  1  0
  4 16  1  0
  5 17  1  0
  6 18  1  0
  7 19  1  0
  8 20  1  0
  8 21  1  0
  9 22  1  0
  9 23  1  0
M  END
