
     RDKit          3D

 21 22  0  0  0  0  0  0  0  0999 V2000
   -1.8078   -1.1458    0.4221 C   0  0  0  0  0  0  0  0  0  0  0  0
   -1.0314    0.0791   -0.0016 C   0  0  0  0  0  0  0  0  0  0  0  0
   -1.9777    1.0645   -0.3079 O   0  0  0  0  0  0  0  0  0  0  0  0
   -0.1488   -0.2490   -1.1643 C   0  0  0  0  0  0  0  0  0  0  0  0
    1.2369    0.1956   -0.8533 C   0  0  0  0  0  0  0  0  0  0  0  0
    2.0103   -0.5819    0.1503 C   0  0  0  0  0  0  0  0  0  0  0  0
    2.2424    0.6267    0.8434 O   0  0  0  0  0  0  0  0  0  0  0  0
    1.0645    1.1187    0.3198 C   0  0  0  0  0  0  0  0  0  0  0  0
   -0.1249    0.6005    1.0689 C   0  0  0  0  0  0  0  0  0  0  0  0
   -2.5706   -1.3332   -0.3729 H   0  0  0  0  0  0  0  0  0  0  0  0
   -2.3913   -0.9170    1.3436 H   0  0  0  0  0  0  0  0  0  0  0  0
   -1.1250   -1.9871    0.5761 H   0  0  0  0  0  0  0  0  0  0  0  0
   -1.5795    1.8358   -0.7714 H   0  0  0  0  0  0  0  0  0  0  0  0
   -0.5115    0.3542   -2.0337 H   0  0  0  0  0  0  0  0  0  0  0  0
   -0.2353   -1.3084   -1.4755 H   0  0  0  0  0  0  0  0  0  0  0  0
    1.8680    0.5464   -1.6734 H   0  0  0  0  0  0  0  0  0  0  0  0
    3.0013   -0.9492   -0.2289 H   0  0  0  0  0  0  0  0  0  0  0  0
    1.4845   -1.3453    0.7314 H   0  0  0  0  0  0  0  0  0  0  0  0
    1.0475    2.1615    0.0023 H   0  0  0  0  0  0  0  0  0  0  0  0
    0.1501   -0.2008    1.7822 H   0  0  0  0  0  0  0  0  0  0  0  0
   -0.6016    1.4344    1.6429 H   0  0  0  0  0  0  0  0  0  0  0  0
  1  2  1  0
  2  3  1  0
  2  4  1  0
  4  5  1  0
  5  6  1  0
  6  7  1  0
  7  8  1  0
  8  9  1  0
  9  2  1  0
  8  5  1  0
  1 10  1  0
  1 11  1  0
  1 12  1  0
  3 13  1  0
  4 14  1  0
  4 15  1  0
  5 16  1  0
  6 17  1  0
  6 18  1  0
  8 19  1  0
  9 20  1  0
  9 21  1  0
M  END
