
     RDKit          3D

 19 19  0  0  0  0  0  0  0  0999 V2000
   -0.8747    1.1363    0.8899 C   0  0  0  0  0  0  0  0  0  0  0  0
   -0.3753    0.0504   -0.0109 C   0  0  0  0  0  0  0  0  0  0  0  0
   -1.4359   -0.9979   -0.3272 C   0  0  0  0  0  0  0  0  0  0  0  0
    0.3142    0.6302   -1.2155 C   0  0  0  0  0  0  0  0  0  0  0  0
    1.6399    0.0668   -0.7231 C   0  0  0  0  0  0  0  0  0  0  0  0
    0.8999   -0.6245    0.3865 C   0  0  0  0  0  0  0  0  0  0  0  0
    1.2918   -0.3060    1.6749 O   0  0  0  0  0  0  0  0  0  0  0  0
   -0.5942    2.1620    0.5078 H   0  0  0  0  0  0  0  0  0  0  0  0
   -0.5520    1.0359    1.9401 H   0  0  0  0  0  0  0  0  0  0  0  0
   -1.9971    1.1243    0.8271 H   0  0  0  0  0  0  0  0  0  0  0  0
   -2.0350   -0.6133   -1.1505 H   0  0  0  0  0  0  0  0  0  0  0  0
   -0.9486   -1.9606   -0.5996 H   0  0  0  0  0  0  0  0  0  0  0  0
   -2.0182   -1.1208    0.6304 H   0  0  0  0  0  0  0  0  0  0  0  0
   -0.0394    0.2240   -2.1753 H   0  0  0  0  0  0  0  0  0  0  0  0
    0.3962    1.7521   -1.2183 H   0  0  0  0  0  0  0  0  0  0  0  0
    2.3738    0.8017   -0.3872 H   0  0  0  0  0  0  0  0  0  0  0  0
    2.0679   -0.5739   -1.5081 H   0  0  0  0  0  0  0  0  0  0  0  0
    0.9242   -1.7375    0.1955 H   0  0  0  0  0  0  0  0  0  0  0  0
    0.9626   -1.0490    2.2634 H   0  0  0  0  0  0  0  0  0  0  0  0
  1  2  1  0
  2  3  1  0
  2  4  1  0
  4  5  1  0
  5  6  1  0
  6  7  1  0
  6  2  1  0
  1  8  1  0
  1  9  1  0
  1 10  1  0
  3 11  1  0
  3 12  1  0
  3 13  1  0
  4 14  1  0
  4 15  1  0
  5 16  1  0
  5 17  1  0
  6 18  1  0
  7 19  1  0
M  END
