
     RDKit          3D

 21 22  0  0  0  0  0  0  0  0999 V2000
   -2.4064   -0.1376   -0.8050 C   0  0  0  0  0  0  0  0  0  0  0  0
   -1.1850   -0.1373    0.0655 C   0  0  0  0  0  0  0  0  0  0  0  0
   -1.3872    0.7442    1.2658 C   0  0  0  0  0  0  0  0  0  0  0  0
   -0.7028   -1.4178    0.3335 O   0  0  0  0  0  0  0  0  0  0  0  0
    0.4943   -1.2434   -0.3436 C   0  0  0  0  0  0  0  0  0  0  0  0
    0.1189    0.1572   -0.6273 C   0  0  0  0  0  0  0  0  0  0  0  0
    1.3572   -0.1425    0.1458 C   0  0  0  0  0  0  0  0  0  0  0  0
    2.6833    0.1334   -0.5265 C   0  0  0  0  0  0  0  0  0  0  0  0
    1.3836    0.0260    1.5234 O   0  0  0  0  0  0  0  0  0  0  0  0
   -3.2958   -0.0966   -0.1197 H   0  0  0  0  0  0  0  0  0  0  0  0
   -2.4922    0.7563   -1.4535 H   0  0  0  0  0  0  0  0  0  0  0  0
   -2.4980   -1.0879   -1.3870 H   0  0  0  0  0  0  0  0  0  0  0  0
   -1.6157    0.1058    2.1529 H   0  0  0  0  0  0  0  0  0  0  0  0
   -0.5043    1.4021    1.4414 H   0  0  0  0  0  0  0  0  0  0  0  0
   -2.2723    1.4201    1.1483 H   0  0  0  0  0  0  0  0  0  0  0  0
    0.8115   -1.9542   -1.1152 H   0  0  0  0  0  0  0  0  0  0  0  0
    0.1445    0.5396   -1.6503 H   0  0  0  0  0  0  0  0  0  0  0  0
    2.5991    0.2661   -1.6133 H   0  0  0  0  0  0  0  0  0  0  0  0
    3.1381    1.0374   -0.0416 H   0  0  0  0  0  0  0  0  0  0  0  0
    3.3563   -0.7117   -0.2498 H   0  0  0  0  0  0  0  0  0  0  0  0
    2.2730    0.3407    1.8564 H   0  0  0  0  0  0  0  0  0  0  0  0
  1  2  1  0
  2  3  1  0
  2  4  1  0
  4  5  1  0
  5  6  1  0
  6  7  1  0
  7  8  1  0
  7  9  1  0
  6  2  1  0
  7  5  1  0
  1 10  1  0
  1 11  1  0
  1 12  1  0
  3 13  1  0
  3 14  1  0
  3 15  1  0
  5 16  1  0
  6 17  1  0
  8 18  1  0
  8 19  1  0
  8 20  1  0
  9 21  1  0
M  END
