
     RDKit          3D

 17 17  0  0  0  0  0  0  0  0999 V2000
    1.6386   -0.9034    0.1610 C   0  0  0  0  0  0  0  0  0  0  0  0
    0.3897   -0.1896   -0.2638 C   0  0  0  0  0  0  0  0  0  0  0  0
    0.6376    1.3178   -0.2593 C   0  0  0  0  0  0  0  0  0  0  0  0
   -0.2527   -0.6719   -1.3806 O   0  0  0  0  0  0  0  0  0  0  0  0
   -1.4812   -0.2888   -0.8180 C   0  0  0  0  0  0  0  0  0  0  0  0
   -0.8494   -0.4931    0.5389 C   0  0  0  0  0  0  0  0  0  0  0  0
   -1.1426    0.4685    1.4836 O   0  0  0  0  0  0  0  0  0  0  0  0
    1.4945   -1.3985    1.1529 H   0  0  0  0  0  0  0  0  0  0  0  0
    2.5050   -0.2066    0.3165 H   0  0  0  0  0  0  0  0  0  0  0  0
    1.9457   -1.6467   -0.6090 H   0  0  0  0  0  0  0  0  0  0  0  0
    1.2963    1.5821   -1.0973 H   0  0  0  0  0  0  0  0  0  0  0  0
   -0.2878    1.8924   -0.1928 H   0  0  0  0  0  0  0  0  0  0  0  0
    1.1942    1.5124    0.7018 H   0  0  0  0  0  0  0  0  0  0  0  0
   -1.7438    0.7462   -1.0799 H   0  0  0  0  0  0  0  0  0  0  0  0
   -2.3142   -0.9777   -0.9864 H   0  0  0  0  0  0  0  0  0  0  0  0
   -0.9568   -1.5309    0.8877 H   0  0  0  0  0  0  0  0  0  0  0  0
   -2.0733    0.7879    1.4447 H   0  0  0  0  0  0  0  0  0  0  0  0
  1  2  1  0
  2  3  1  0
  2  4  1  0
  4  5  1  0
  5  6  1  0
  6  7  1  0
  6  2  1  0
  1  8  1  0
  1  9  1  0
  1 10  1  0
  3 11  1  0
  3 12  1  0
  3 13  1  0
  5 14  1  0
  5 15  1  0
  6 16  1  0
  7 17  1  0
M  END
