
     RDKit          3D

 21 22  0  0  0  0  0  0  0  0999 V2000
   -1.2691   -0.5123   -1.3133 C   0  0  0  0  0  0  0  0  0  0  0  0
   -0.6067   -0.4840    0.0379 C   0  0  0  0  0  0  0  0  0  0  0  0
   -0.5460   -1.7315    0.6347 O   0  0  0  0  0  0  0  0  0  0  0  0
   -1.3394    0.4470    0.9816 C   0  0  0  0  0  0  0  0  0  0  0  0
   -0.7509    1.7849    0.6190 C   0  0  0  0  0  0  0  0  0  0  0  0
    0.4355    1.6025    0.0540 C   0  0  0  0  0  0  0  0  0  0  0  0
    0.7494    0.1723   -0.0158 C   0  0  0  0  0  0  0  0  0  0  0  0
    1.7980   -0.4454    0.8275 C   0  0  0  0  0  0  0  0  0  0  0  0
    1.8961   -0.3887   -0.6949 C   0  0  0  0  0  0  0  0  0  0  0  0
   -2.0441   -1.2860   -1.3376 H   0  0  0  0  0  0  0  0  0  0  0  0
   -0.5637   -0.6892   -2.1384 H   0  0  0  0  0  0  0  0  0  0  0  0
   -1.7986    0.4668   -1.5005 H   0  0  0  0  0  0  0  0  0  0  0  0
   -0.9820   -2.4043    0.0472 H   0  0  0  0  0  0  0  0  0  0  0  0
   -2.4197    0.4285    0.8607 H   0  0  0  0  0  0  0  0  0  0  0  0
   -0.9971    0.2029    2.0113 H   0  0  0  0  0  0  0  0  0  0  0  0
   -1.2910    2.7037    0.8281 H   0  0  0  0  0  0  0  0  0  0  0  0
    1.0761    2.3941   -0.3024 H   0  0  0  0  0  0  0  0  0  0  0  0
    1.5910   -1.4666    1.2527 H   0  0  0  0  0  0  0  0  0  0  0  0
    2.4526    0.1869    1.4332 H   0  0  0  0  0  0  0  0  0  0  0  0
    1.9286   -1.3267   -1.2433 H   0  0  0  0  0  0  0  0  0  0  0  0
    2.6812    0.3450   -1.0419 H   0  0  0  0  0  0  0  0  0  0  0  0
  1  2  1  0
  2  3  1  0
  2  4  1  0
  4  5  1  0
  5  6  2  0
  6  7  1  0
  7  8  1  0
  8  9  1  0
  7  2  1  0
  9  7  1  0
  1 10  1  0
  1 11  1  0
  1 12  1  0
  3 13  1  0
  4 14  1  0
  4 15  1  0
  5 16  1  0
  6 17  1  0
  8 18  1  0
  8 19  1  0
  9 20  1  0
  9 21  1  0
M  END
