
     RDKit          3D

 21 22  0  0  0  0  0  0  0  0999 V2000
    2.0232    0.6464    0.3167 C   0  0  0  0  0  0  0  0  0  0  0  0
    0.9924    0.0533   -0.6205 C   0  0  0  0  0  0  0  0  0  0  0  0
    1.4961   -0.1776   -1.8730 O   0  0  0  0  0  0  0  0  0  0  0  0
    0.2540   -1.0614    0.0423 C   0  0  0  0  0  0  0  0  0  0  0  0
    0.9166   -1.6100    1.1357 O   0  0  0  0  0  0  0  0  0  0  0  0
   -0.9141   -0.2002    0.3236 C   0  0  0  0  0  0  0  0  0  0  0  0
   -2.2567   -0.7864   -0.0523 C   0  0  0  0  0  0  0  0  0  0  0  0
   -0.8605    1.2271    0.6207 C   0  0  0  0  0  0  0  0  0  0  0  0
   -0.3054    0.8227   -0.6889 C   0  0  0  0  0  0  0  0  0  0  0  0
    1.6454    0.6702    1.3545 H   0  0  0  0  0  0  0  0  0  0  0  0
    2.4487    1.5889   -0.0381 H   0  0  0  0  0  0  0  0  0  0  0  0
    2.8735   -0.0976    0.3336 H   0  0  0  0  0  0  0  0  0  0  0  0
    1.7871    0.7090   -2.2441 H   0  0  0  0  0  0  0  0  0  0  0  0
    0.0585   -1.8956   -0.6942 H   0  0  0  0  0  0  0  0  0  0  0  0
    0.4816   -1.4333    1.9842 H   0  0  0  0  0  0  0  0  0  0  0  0
   -2.8882   -0.0931   -0.6279 H   0  0  0  0  0  0  0  0  0  0  0  0
   -2.7985   -0.9563    0.9201 H   0  0  0  0  0  0  0  0  0  0  0  0
   -2.1709   -1.7928   -0.5108 H   0  0  0  0  0  0  0  0  0  0  0  0
   -0.1344    1.6702    1.3583 H   0  0  0  0  0  0  0  0  0  0  0  0
   -1.8101    1.7856    0.5901 H   0  0  0  0  0  0  0  0  0  0  0  0
   -0.8382    0.9309   -1.6302 H   0  0  0  0  0  0  0  0  0  0  0  0
  1  2  1  0
  2  3  1  0
  2  4  1  0
  4  5  1  0
  4  6  1  0
  6  7  1  0
  6  8  1  0
  8  9  1  0
  9  2  1  0
  9  6  1  0
  1 10  1  0
  1 11  1  0
  1 12  1  0
  3 13  1  0
  4 14  1  0
  5 15  1  0
  7 16  1  0
  7 17  1  0
  7 18  1  0
  8 19  1  0
  8 20  1  0
  9 21  1  0
M  END
