
     RDKit          3D

 21 21  0  0  0  0  0  0  0  0999 V2000
    0.8703   -0.1038    1.6771 C   0  0  0  0  0  0  0  0  0  0  0  0
    0.3376    0.2177    0.2768 C   0  0  0  0  0  0  0  0  0  0  0  0
    1.5209    0.7052   -0.5704 C   0  0  0  0  0  0  0  0  0  0  0  0
    2.4552   -0.3209   -0.6055 O   0  0  0  0  0  0  0  0  0  0  0  0
   -0.1276   -1.0660   -0.3217 C   0  0  0  0  0  0  0  0  0  0  0  0
   -1.2083   -0.8130   -1.3127 C   0  0  0  0  0  0  0  0  0  0  0  0
   -2.1095    0.1240   -1.0136 C   0  0  0  0  0  0  0  0  0  0  0  0
   -1.9084    0.8076    0.3034 C   0  0  0  0  0  0  0  0  0  0  0  0
   -0.5779    1.2331    0.3066 O   0  0  0  0  0  0  0  0  0  0  0  0
    1.8143   -0.6711    1.5549 H   0  0  0  0  0  0  0  0  0  0  0  0
    0.1591   -0.7994    2.1920 H   0  0  0  0  0  0  0  0  0  0  0  0
    1.0321    0.8333    2.2277 H   0  0  0  0  0  0  0  0  0  0  0  0
    1.9076    1.6350   -0.1375 H   0  0  0  0  0  0  0  0  0  0  0  0
    1.1344    0.8300   -1.6053 H   0  0  0  0  0  0  0  0  0  0  0  0
    3.2823    0.0217   -0.1394 H   0  0  0  0  0  0  0  0  0  0  0  0
    0.7112   -1.6307   -0.8241 H   0  0  0  0  0  0  0  0  0  0  0  0
   -0.5138   -1.7871    0.4560 H   0  0  0  0  0  0  0  0  0  0  0  0
   -1.2970   -1.3481   -2.2560 H   0  0  0  0  0  0  0  0  0  0  0  0
   -2.8973    0.3341   -1.6963 H   0  0  0  0  0  0  0  0  0  0  0  0
   -2.5610    1.6782    0.3313 H   0  0  0  0  0  0  0  0  0  0  0  0
   -2.0240    0.1203    1.1567 H   0  0  0  0  0  0  0  0  0  0  0  0
  1  2  1  0
  2  3  1  0
  3  4  1  0
  2  5  1  0
  5  6  1  0
  6  7  2  0
  7  8  1  0
  8  9  1  0
  9  2  1  0
  1 10  1  0
  1 11  1  0
  1 12  1  0
  3 13  1  0
  3 14  1  0
  4 15  1  0
  5 16  1  0
  5 17  1  0
  6 18  1  0
  7 19  1  0
  8 20  1  0
  8 21  1  0
M  END
