
     RDKit          3D

 15 15  0  0  0  0  0  0  0  0999 V2000
   -1.1286    1.0506    0.1486 C   0  0  0  0  0  0  0  0  0  0  0  0
   -0.5557   -0.3087   -0.2388 C   0  0  0  0  0  0  0  0  0  0  0  0
   -1.3763   -1.0413   -1.0760 O   0  0  0  0  0  0  0  0  0  0  0  0
    0.2042   -1.0856    0.7746 C   0  0  0  0  0  0  0  0  0  0  0  0
    0.8993   -0.4663   -0.4534 C   0  0  0  0  0  0  0  0  0  0  0  0
    1.8711    0.5656   -0.1063 C   0  0  0  0  0  0  0  0  0  0  0  0
    2.9546    0.5951   -0.6371 O   0  0  0  0  0  0  0  0  0  0  0  0
   -0.8424    1.3365    1.1805 H   0  0  0  0  0  0  0  0  0  0  0  0
   -2.2397    0.9603    0.1551 H   0  0  0  0  0  0  0  0  0  0  0  0
   -0.8569    1.7752   -0.6150 H   0  0  0  0  0  0  0  0  0  0  0  0
   -2.3127   -0.7419   -1.0915 H   0  0  0  0  0  0  0  0  0  0  0  0
    0.3263   -0.5720    1.7520 H   0  0  0  0  0  0  0  0  0  0  0  0
    0.1928   -2.1744    0.8090 H   0  0  0  0  0  0  0  0  0  0  0  0
    1.2292   -1.2063   -1.2281 H   0  0  0  0  0  0  0  0  0  0  0  0
    1.6349    1.3131    0.6266 H   0  0  0  0  0  0  0  0  0  0  0  0
  1  2  1  0
  2  3  1  0
  2  4  1  0
  4  5  1  0
  5  6  1  0
  6  7  2  0
  5  2  1  0
  1  8  1  0
  1  9  1  0
  1 10  1  0
  3 11  1  0
  4 12  1  0
  4 13  1  0
  5 14  1  0
  6 15  1  0
M  END
