
     RDKit          3D

 21 22  0  0  0  0  0  0  0  0999 V2000
    1.9594   -0.3935    1.2648 C   0  0  0  0  0  0  0  0  0  0  0  0
    1.0566    0.1636    0.1703 C   0  0  0  0  0  0  0  0  0  0  0  0
    1.9045    0.5085   -1.0355 C   0  0  0  0  0  0  0  0  0  0  0  0
    0.3416    1.2388    0.6296 O   0  0  0  0  0  0  0  0  0  0  0  0
   -0.9937    1.0134    0.4127 C   0  0  0  0  0  0  0  0  0  0  0  0
   -1.4762    0.8276   -0.9974 C   0  0  0  0  0  0  0  0  0  0  0  0
   -1.0974   -0.3590   -0.0926 C   0  0  0  0  0  0  0  0  0  0  0  0
   -2.2394   -1.2686    0.2419 C   0  0  0  0  0  0  0  0  0  0  0  0
    0.1866   -0.8354   -0.1934 O   0  0  0  0  0  0  0  0  0  0  0  0
    1.5464   -1.3408    1.6906 H   0  0  0  0  0  0  0  0  0  0  0  0
    2.0023    0.3165    2.1226 H   0  0  0  0  0  0  0  0  0  0  0  0
    2.9881   -0.5521    0.8535 H   0  0  0  0  0  0  0  0  0  0  0  0
    1.4682    0.1423   -1.9857 H   0  0  0  0  0  0  0  0  0  0  0  0
    2.8915   -0.0130   -0.9394 H   0  0  0  0  0  0  0  0  0  0  0  0
    2.1381    1.5861   -1.1047 H   0  0  0  0  0  0  0  0  0  0  0  0
   -1.7389    1.4771    1.0831 H   0  0  0  0  0  0  0  0  0  0  0  0
   -2.5503    0.9785   -1.2186 H   0  0  0  0  0  0  0  0  0  0  0  0
   -0.7641    1.0082   -1.8163 H   0  0  0  0  0  0  0  0  0  0  0  0
   -3.1736   -0.6885    0.2250 H   0  0  0  0  0  0  0  0  0  0  0  0
   -2.1547   -1.7495    1.2358 H   0  0  0  0  0  0  0  0  0  0  0  0
   -2.2949   -2.0604   -0.5462 H   0  0  0  0  0  0  0  0  0  0  0  0
  1  2  1  0
  2  3  1  0
  2  4  1  0
  4  5  1  0
  5  6  1  0
  6  7  1  0
  7  8  1  0
  7  9  1  0
  9  2  1  0
  7  5  1  0
  1 10  1  0
  1 11  1  0
  1 12  1  0
  3 13  1  0
  3 14  1  0
  3 15  1  0
  5 16  1  0
  6 17  1  0
  6 18  1  0
  8 19  1  0
  8 20  1  0
  8 21  1  0
M  END
