
     RDKit          3D

 19 20  0  0  0  0  0  0  0  0999 V2000
   -2.0735   -0.3336   -0.7105 C   0  0  0  0  0  0  0  0  0  0  0  0
   -1.0132   -0.1824    0.3829 C   0  0  0  0  0  0  0  0  0  0  0  0
   -1.4407   -0.4131    1.6802 O   0  0  0  0  0  0  0  0  0  0  0  0
   -0.2193    1.1163    0.2408 C   0  0  0  0  0  0  0  0  0  0  0  0
   -0.3888    1.8838   -0.8915 O   0  0  0  0  0  0  0  0  0  0  0  0
    0.3608   -0.2191    0.0045 C   0  0  0  0  0  0  0  0  0  0  0  0
    1.5202   -0.7689    0.7016 C   0  0  0  0  0  0  0  0  0  0  0  0
    2.1636   -0.3737   -0.6366 C   0  0  0  0  0  0  0  0  0  0  0  0
    0.8849   -0.5842   -1.2048 O   0  0  0  0  0  0  0  0  0  0  0  0
   -1.5594   -0.6345   -1.6487 H   0  0  0  0  0  0  0  0  0  0  0  0
   -2.8705   -1.0217   -0.4312 H   0  0  0  0  0  0  0  0  0  0  0  0
   -2.5348    0.6710   -0.9129 H   0  0  0  0  0  0  0  0  0  0  0  0
   -1.0932   -1.2147    2.0950 H   0  0  0  0  0  0  0  0  0  0  0  0
    0.0564    1.6744    1.1457 H   0  0  0  0  0  0  0  0  0  0  0  0
   -0.6958    2.7868   -0.6561 H   0  0  0  0  0  0  0  0  0  0  0  0
    1.5770   -1.8476    0.8907 H   0  0  0  0  0  0  0  0  0  0  0  0
    1.9677   -0.1905    1.5322 H   0  0  0  0  0  0  0  0  0  0  0  0
    2.9434   -1.0468   -0.9886 H   0  0  0  0  0  0  0  0  0  0  0  0
    2.4153    0.6984   -0.5927 H   0  0  0  0  0  0  0  0  0  0  0  0
  1  2  1  0
  2  3  1  0
  2  4  1  0
  4  5  1  0
  4  6  1  0
  6  7  1  0
  7  8  1  0
  8  9  1  0
  6  2  1  0
  9  6  1  0
  1 10  1  0
  1 11  1  0
  1 12  1  0
  3 13  1  0
  4 14  1  0
  5 15  1  0
  7 16  1  0
  7 17  1  0
  8 18  1  0
  8 19  1  0
M  END
