
     RDKit          3D

 23 24  0  0  0  0  0  0  0  0999 V2000
   -1.3740   -1.1252    0.7274 C   0  0  0  0  0  0  0  0  0  0  0  0
   -0.6822   -0.0280   -0.0159 C   0  0  0  0  0  0  0  0  0  0  0  0
   -1.6239    0.9133   -0.7206 C   0  0  0  0  0  0  0  0  0  0  0  0
   -2.5000    1.5580    0.1071 O   0  0  0  0  0  0  0  0  0  0  0  0
    0.2626    0.6672    0.9107 C   0  0  0  0  0  0  0  0  0  0  0  0
    1.5580   -0.0884    0.8376 C   0  0  0  0  0  0  0  0  0  0  0  0
    2.5156    0.2275   -0.2691 C   0  0  0  0  0  0  0  0  0  0  0  0
    1.5494   -0.8675   -0.4559 C   0  0  0  0  0  0  0  0  0  0  0  0
    0.2202   -0.6159   -1.1013 C   0  0  0  0  0  0  0  0  0  0  0  0
   -1.2987   -1.0474    1.8272 H   0  0  0  0  0  0  0  0  0  0  0  0
   -2.4660   -1.1023    0.4858 H   0  0  0  0  0  0  0  0  0  0  0  0
   -1.0071   -2.1265    0.3903 H   0  0  0  0  0  0  0  0  0  0  0  0
   -2.2390    0.2709   -1.4154 H   0  0  0  0  0  0  0  0  0  0  0  0
   -1.0284    1.5711   -1.3773 H   0  0  0  0  0  0  0  0  0  0  0  0
   -2.0388    2.2264    0.6721 H   0  0  0  0  0  0  0  0  0  0  0  0
   -0.1303    0.7426    1.9618 H   0  0  0  0  0  0  0  0  0  0  0  0
    0.4424    1.6978    0.5561 H   0  0  0  0  0  0  0  0  0  0  0  0
    1.9171   -0.6710    1.7148 H   0  0  0  0  0  0  0  0  0  0  0  0
    2.3746    1.1846   -0.8140 H   0  0  0  0  0  0  0  0  0  0  0  0
    3.5760   -0.0890   -0.1174 H   0  0  0  0  0  0  0  0  0  0  0  0
    1.8651   -1.9258   -0.4682 H   0  0  0  0  0  0  0  0  0  0  0  0
   -0.2548   -1.5124   -1.5252 H   0  0  0  0  0  0  0  0  0  0  0  0
    0.3624    0.1403   -1.9105 H   0  0  0  0  0  0  0  0  0  0  0  0
  1  2  1  0
  2  3  1  0
  3  4  1  0
  2  5  1  0
  5  6  1  0
  6  7  1  0
  7  8  1  0
  8  9  1  0
  9  2  1  0
  8  6  1  0
  1 10  1  0
  1 11  1  0
  1 12  1  0
  3 13  1  0
  3 14  1  0
  4 15  1  0
  5 16  1  0
  5 17  1  0
  6 18  1  0
  7 19  1  0
  7 20  1  0
  8 21  1  0
  9 22  1  0
  9 23  1  0
M  END
