
     RDKit          3D

 21 22  0  0  0  0  0  0  0  0999 V2000
   -1.2023   -1.4477   -1.2262 C   0  0  0  0  0  0  0  0  0  0  0  0
   -0.6065   -0.5150   -0.1700 C   0  0  0  0  0  0  0  0  0  0  0  0
    0.8897   -0.5803   -0.1454 C   0  0  0  0  0  0  0  0  0  0  0  0
    1.6306    0.2514    0.8109 C   0  0  0  0  0  0  0  0  0  0  0  0
    2.1617    0.9379   -0.4411 C   0  0  0  0  0  0  0  0  0  0  0  0
    1.4016    0.1191   -1.2628 O   0  0  0  0  0  0  0  0  0  0  0  0
   -1.2558    0.8717   -0.1928 C   0  0  0  0  0  0  0  0  0  0  0  0
   -1.4639   -0.1630    0.9286 C   0  0  0  0  0  0  0  0  0  0  0  0
   -1.0574    0.3236    2.1591 O   0  0  0  0  0  0  0  0  0  0  0  0
   -2.1639   -1.0888   -1.5993 H   0  0  0  0  0  0  0  0  0  0  0  0
   -0.5130   -1.5741   -2.0837 H   0  0  0  0  0  0  0  0  0  0  0  0
   -1.3898   -2.4457   -0.7565 H   0  0  0  0  0  0  0  0  0  0  0  0
    1.3141   -1.6060   -0.1829 H   0  0  0  0  0  0  0  0  0  0  0  0
    1.1078    0.9725    1.4354 H   0  0  0  0  0  0  0  0  0  0  0  0
    2.4103   -0.2695    1.4119 H   0  0  0  0  0  0  0  0  0  0  0  0
    3.2526    0.8010   -0.4981 H   0  0  0  0  0  0  0  0  0  0  0  0
    1.8067    1.9944   -0.5573 H   0  0  0  0  0  0  0  0  0  0  0  0
   -0.5444    1.6905   -0.0199 H   0  0  0  0  0  0  0  0  0  0  0  0
   -2.1375    1.0391   -0.8185 H   0  0  0  0  0  0  0  0  0  0  0  0
   -2.4819   -0.6302    0.9918 H   0  0  0  0  0  0  0  0  0  0  0  0
   -1.1589    1.3192    2.2169 H   0  0  0  0  0  0  0  0  0  0  0  0
  1  2  1  0
  2  3  1  0
  3  4  1  0
  4  5  1  0
  5  6  1  0
  2  7  1  0
  7  8  1  0
  8  9  1  0
  8  2  1  0
  6  3  1  0
  1 10  1  0
  1 11  1  0
  1 12  1  0
  3 13  1  0
  4 14  1  0
  4 15  1  0
  5 16  1  0
  5 17  1  0
  7 18  1  0
  7 19  1  0
  8 20  1  0
  9 21  1  0
M  END
