
     RDKit          3D

 21 22  0  0  0  0  0  0  0  0999 V2000
   -1.9060    0.0949   -0.9125 C   0  0  0  0  0  0  0  0  0  0  0  0
   -0.6814   -0.0689    0.0032 C   0  0  0  0  0  0  0  0  0  0  0  0
   -1.1283    0.1102    1.4656 C   0  0  0  0  0  0  0  0  0  0  0  0
    0.3301   -1.0659   -0.1732 C   0  0  0  0  0  0  0  0  0  0  0  0
    0.0197   -1.8616   -1.3185 O   0  0  0  0  0  0  0  0  0  0  0  0
    1.8288   -0.8750   -0.1974 C   0  0  0  0  0  0  0  0  0  0  0  0
    1.4907   -0.1145   -1.3464 O   0  0  0  0  0  0  0  0  0  0  0  0
    0.5499    0.4593   -0.5054 C   0  0  0  0  0  0  0  0  0  0  0  0
    1.2282    1.3381    0.5147 C   0  0  0  0  0  0  0  0  0  0  0  0
   -2.5590   -0.7711   -0.6793 H   0  0  0  0  0  0  0  0  0  0  0  0
   -2.4296    1.0275   -0.6852 H   0  0  0  0  0  0  0  0  0  0  0  0
   -1.6075   -0.0078   -1.9705 H   0  0  0  0  0  0  0  0  0  0  0  0
   -0.3845   -0.2893    2.1672 H   0  0  0  0  0  0  0  0  0  0  0  0
   -2.0303   -0.5554    1.5680 H   0  0  0  0  0  0  0  0  0  0  0  0
   -1.4698    1.1240    1.6626 H   0  0  0  0  0  0  0  0  0  0  0  0
    0.0820   -1.2927   -2.1249 H   0  0  0  0  0  0  0  0  0  0  0  0
    2.3068   -0.3608    0.6172 H   0  0  0  0  0  0  0  0  0  0  0  0
    2.3759   -1.8085   -0.4169 H   0  0  0  0  0  0  0  0  0  0  0  0
    2.2490    1.6395    0.2636 H   0  0  0  0  0  0  0  0  0  0  0  0
    0.6355    2.3056    0.5059 H   0  0  0  0  0  0  0  0  0  0  0  0
    1.0997    0.9725    1.5622 H   0  0  0  0  0  0  0  0  0  0  0  0
  1  2  1  0
  2  3  1  0
  2  4  1  0
  4  5  1  0
  4  6  1  0
  6  7  1  0
  7  8  1  0
  8  9  1  0
  8  2  1  0
  8  4  1  0
  1 10  1  0
  1 11  1  0
  1 12  1  0
  3 13  1  0
  3 14  1  0
  3 15  1  0
  5 16  1  0
  6 17  1  0
  6 18  1  0
  9 19  1  0
  9 20  1  0
  9 21  1  0
M  END
