
     RDKit          3D

 23 23  0  0  0  0  0  0  0  0999 V2000
    2.3218   -0.0946   -0.6874 C   0  0  0  0  0  0  0  0  0  0  0  0
    1.1729    0.3774    0.1518 C   0  0  0  0  0  0  0  0  0  0  0  0
    1.6859    1.3554    1.0309 O   0  0  0  0  0  0  0  0  0  0  0  0
    0.6539   -0.7406    1.0018 C   0  0  0  0  0  0  0  0  0  0  0  0
   -0.5753   -1.2400    0.2977 C   0  0  0  0  0  0  0  0  0  0  0  0
   -1.0966   -0.1186   -0.5443 C   0  0  0  0  0  0  0  0  0  0  0  0
   -2.3716    0.4651    0.0415 C   0  0  0  0  0  0  0  0  0  0  0  0
   -1.4470   -0.5913   -1.8245 O   0  0  0  0  0  0  0  0  0  0  0  0
    0.0094    0.8843   -0.6377 C   0  0  0  0  0  0  0  0  0  0  0  0
    2.5946    0.6168   -1.4890 H   0  0  0  0  0  0  0  0  0  0  0  0
    3.2143   -0.1569   -0.0034 H   0  0  0  0  0  0  0  0  0  0  0  0
    2.1812   -1.1047   -1.1047 H   0  0  0  0  0  0  0  0  0  0  0  0
    1.9523    2.1749    0.5523 H   0  0  0  0  0  0  0  0  0  0  0  0
    0.3289   -0.3672    1.9992 H   0  0  0  0  0  0  0  0  0  0  0  0
    1.4189   -1.5080    1.1723 H   0  0  0  0  0  0  0  0  0  0  0  0
   -0.3082   -2.0765   -0.3656 H   0  0  0  0  0  0  0  0  0  0  0  0
   -1.3740   -1.5038    1.0352 H   0  0  0  0  0  0  0  0  0  0  0  0
   -3.0772   -0.3738    0.2032 H   0  0  0  0  0  0  0  0  0  0  0  0
   -2.7874    1.1483   -0.7141 H   0  0  0  0  0  0  0  0  0  0  0  0
   -2.1414    0.9761    0.9854 H   0  0  0  0  0  0  0  0  0  0  0  0
   -2.2630   -1.1284   -1.7673 H   0  0  0  0  0  0  0  0  0  0  0  0
    0.2535    1.1820   -1.6714 H   0  0  0  0  0  0  0  0  0  0  0  0
   -0.3457    1.8241   -0.1260 H   0  0  0  0  0  0  0  0  0  0  0  0
  1  2  1  0
  2  3  1  0
  2  4  1  0
  4  5  1  0
  5  6  1  0
  6  7  1  0
  6  8  1  0
  6  9  1  0
  9  2  1  0
  1 10  1  0
  1 11  1  0
  1 12  1  0
  3 13  1  0
  4 14  1  0
  4 15  1  0
  5 16  1  0
  5 17  1  0
  7 18  1  0
  7 19  1  0
  7 20  1  0
  8 21  1  0
  9 22  1  0
  9 23  1  0
M  END
