
     RDKit          3D

 23 24  0  0  0  0  0  0  0  0999 V2000
    1.4782    1.3266   -0.2160 C   0  0  0  0  0  0  0  0  0  0  0  0
    0.7013    0.0724    0.0176 C   0  0  0  0  0  0  0  0  0  0  0  0
    1.5574   -1.1120    0.1869 C   0  0  0  0  0  0  0  0  0  0  0  0
   -0.3520    0.2396    1.1077 C   0  0  0  0  0  0  0  0  0  0  0  0
   -1.0971    1.3962    0.5016 C   0  0  0  0  0  0  0  0  0  0  0  0
   -1.1185    1.1804   -0.8252 C   0  0  0  0  0  0  0  0  0  0  0  0
   -0.3290   -0.0743   -1.1116 C   0  0  0  0  0  0  0  0  0  0  0  0
   -1.1434   -1.2171   -0.6132 C   0  0  0  0  0  0  0  0  0  0  0  0
   -1.1962   -0.9764    0.9048 C   0  0  0  0  0  0  0  0  0  0  0  0
    2.4223    1.3206    0.4040 H   0  0  0  0  0  0  0  0  0  0  0  0
    1.7244    1.4857   -1.2970 H   0  0  0  0  0  0  0  0  0  0  0  0
    0.9370    2.2483    0.0951 H   0  0  0  0  0  0  0  0  0  0  0  0
    2.4768   -0.9849   -0.4183 H   0  0  0  0  0  0  0  0  0  0  0  0
    1.1157   -2.0804   -0.0962 H   0  0  0  0  0  0  0  0  0  0  0  0
    1.8913   -1.1743    1.2431 H   0  0  0  0  0  0  0  0  0  0  0  0
    0.0330    0.4158    2.0845 H   0  0  0  0  0  0  0  0  0  0  0  0
   -1.5406    2.2487    1.0035 H   0  0  0  0  0  0  0  0  0  0  0  0
   -1.5957    1.7614   -1.6007 H   0  0  0  0  0  0  0  0  0  0  0  0
    0.0848   -0.1310   -2.0875 H   0  0  0  0  0  0  0  0  0  0  0  0
   -0.7706   -2.2103   -0.8608 H   0  0  0  0  0  0  0  0  0  0  0  0
   -2.1687   -1.1287   -1.0558 H   0  0  0  0  0  0  0  0  0  0  0  0
   -2.2546   -0.7439    1.1793 H   0  0  0  0  0  0  0  0  0  0  0  0
   -0.8557   -1.8623    1.4539 H   0  0  0  0  0  0  0  0  0  0  0  0
  1  2  1  0
  2  3  1  0
  2  4  1  0
  4  5  1  0
  5  6  2  0
  6  7  1  0
  7  8  1  0
  8  9  1  0
  7  2  1  0
  9  4  1  0
  1 10  1  0
  1 11  1  0
  1 12  1  0
  3 13  1  0
  3 14  1  0
  3 15  1  0
  4 16  1  0
  5 17  1  0
  6 18  1  0
  7 19  1  0
  8 20  1  0
  8 21  1  0
  9 22  1  0
  9 23  1  0
M  END
