
     RDKit          3D

 21 22  0  0  0  0  0  0  0  0999 V2000
   -1.1921    0.6245    1.5365 C   0  0  0  0  0  0  0  0  0  0  0  0
   -0.7009    0.1569    0.2003 C   0  0  0  0  0  0  0  0  0  0  0  0
   -1.2750   -1.1632   -0.2662 C   0  0  0  0  0  0  0  0  0  0  0  0
    0.7895    0.2558    0.0215 C   0  0  0  0  0  0  0  0  0  0  0  0
    1.5087   -1.0666   -0.0970 C   0  0  0  0  0  0  0  0  0  0  0  0
    2.8658   -0.8161   -0.2560 O   0  0  0  0  0  0  0  0  0  0  0  0
    0.5703    1.0000   -1.2452 C   0  0  0  0  0  0  0  0  0  0  0  0
   -0.4226    0.6657   -2.1385 O   0  0  0  0  0  0  0  0  0  0  0  0
   -0.8070    1.1731   -0.9216 C   0  0  0  0  0  0  0  0  0  0  0  0
   -1.3462   -0.2977    2.1669 H   0  0  0  0  0  0  0  0  0  0  0  0
   -0.3917    1.1957    2.0440 H   0  0  0  0  0  0  0  0  0  0  0  0
   -2.1064    1.2440    1.4807 H   0  0  0  0  0  0  0  0  0  0  0  0
   -0.9413   -1.9991    0.4005 H   0  0  0  0  0  0  0  0  0  0  0  0
   -0.9950   -1.3470   -1.3062 H   0  0  0  0  0  0  0  0  0  0  0  0
   -2.3896   -1.0410   -0.2318 H   0  0  0  0  0  0  0  0  0  0  0  0
    1.2389    0.9167    0.7983 H   0  0  0  0  0  0  0  0  0  0  0  0
    1.1286   -1.5539   -1.0206 H   0  0  0  0  0  0  0  0  0  0  0  0
    1.3565   -1.6895    0.8033 H   0  0  0  0  0  0  0  0  0  0  0  0
    3.1830   -0.1026    0.3826 H   0  0  0  0  0  0  0  0  0  0  0  0
    1.2971    1.7597   -1.5463 H   0  0  0  0  0  0  0  0  0  0  0  0
   -1.3704    2.0845   -0.8050 H   0  0  0  0  0  0  0  0  0  0  0  0
  1  2  1  0
  2  3  1  0
  2  4  1  0
  4  5  1  0
  5  6  1  0
  4  7  1  0
  7  8  1  0
  8  9  1  0
  9  2  1  0
  9  7  1  0
  1 10  1  0
  1 11  1  0
  1 12  1  0
  3 13  1  0
  3 14  1  0
  3 15  1  0
  4 16  1  0
  5 17  1  0
  5 18  1  0
  6 19  1  0
  7 20  1  0
  9 21  1  0
M  END
