
     RDKit          3D

 19 20  0  0  0  0  0  0  0  0999 V2000
    2.3054   -0.2981   -0.3998 C   0  0  0  0  0  0  0  0  0  0  0  0
    0.9460    0.0166    0.1659 C   0  0  0  0  0  0  0  0  0  0  0  0
    0.8806   -0.0957    1.5539 O   0  0  0  0  0  0  0  0  0  0  0  0
   -0.0026    0.8676   -0.5550 C   0  0  0  0  0  0  0  0  0  0  0  0
   -1.2006    1.3998    0.1531 C   0  0  0  0  0  0  0  0  0  0  0  0
   -2.1326    0.2777    0.3337 C   0  0  0  0  0  0  0  0  0  0  0  0
   -3.3278    0.3048    0.5729 O   0  0  0  0  0  0  0  0  0  0  0  0
   -1.3735   -0.9947    0.1754 C   0  0  0  0  0  0  0  0  0  0  0  0
   -0.1925   -0.5883   -0.6573 C   0  0  0  0  0  0  0  0  0  0  0  0
    2.3673   -1.4245   -0.4485 H   0  0  0  0  0  0  0  0  0  0  0  0
    3.1402    0.0185    0.2322 H   0  0  0  0  0  0  0  0  0  0  0  0
    2.3846    0.0579   -1.4422 H   0  0  0  0  0  0  0  0  0  0  0  0
    1.4238   -0.9005    1.7925 H   0  0  0  0  0  0  0  0  0  0  0  0
    0.4087    1.4615   -1.3968 H   0  0  0  0  0  0  0  0  0  0  0  0
   -0.9650    1.9293    1.1079 H   0  0  0  0  0  0  0  0  0  0  0  0
   -1.6925    2.1387   -0.5182 H   0  0  0  0  0  0  0  0  0  0  0  0
   -1.9691   -1.8093   -0.2437 H   0  0  0  0  0  0  0  0  0  0  0  0
   -1.0218   -1.3059    1.1889 H   0  0  0  0  0  0  0  0  0  0  0  0
    0.0213   -1.0554   -1.6150 H   0  0  0  0  0  0  0  0  0  0  0  0
  1  2  1  0
  2  3  1  0
  2  4  1  0
  4  5  1  0
  5  6  1  0
  6  7  2  0
  6  8  1  0
  8  9  1  0
  9  2  1  0
  9  4  1  0
  1 10  1  0
  1 11  1  0
  1 12  1  0
  3 13  1  0
  4 14  1  0
  5 15  1  0
  5 16  1  0
  8 17  1  0
  8 18  1  0
  9 19  1  0
M  END
