
     RDKit          3D

 21 21  0  0  0  0  0  0  0  0999 V2000
    1.7368    1.2643    0.2237 C   0  0  0  0  0  0  0  0  0  0  0  0
    0.8857    0.0748   -0.1157 C   0  0  0  0  0  0  0  0  0  0  0  0
    1.7536   -1.0998   -0.5009 C   0  0  0  0  0  0  0  0  0  0  0  0
   -0.1077   -0.3478    0.9329 C   0  0  0  0  0  0  0  0  0  0  0  0
   -1.0944    0.1157   -0.0912 C   0  0  0  0  0  0  0  0  0  0  0  0
   -1.9886   -0.9496   -0.6771 C   0  0  0  0  0  0  0  0  0  0  0  0
   -1.8380    1.3078    0.4188 C   0  0  0  0  0  0  0  0  0  0  0  0
   -1.5546    2.4419    0.0316 O   0  0  0  0  0  0  0  0  0  0  0  0
   -0.0905    0.4290   -1.0131 O   0  0  0  0  0  0  0  0  0  0  0  0
    2.5369    1.3263   -0.5552 H   0  0  0  0  0  0  0  0  0  0  0  0
    2.2435    1.1811    1.1979 H   0  0  0  0  0  0  0  0  0  0  0  0
    1.1876    2.2263    0.1626 H   0  0  0  0  0  0  0  0  0  0  0  0
    2.3298   -1.3833    0.4227 H   0  0  0  0  0  0  0  0  0  0  0  0
    2.4634   -0.8604   -1.3013 H   0  0  0  0  0  0  0  0  0  0  0  0
    1.1226   -1.9915   -0.7269 H   0  0  0  0  0  0  0  0  0  0  0  0
   -0.1813   -1.4421    1.1124 H   0  0  0  0  0  0  0  0  0  0  0  0
   -0.0186    0.2313    1.8528 H   0  0  0  0  0  0  0  0  0  0  0  0
   -1.7722   -1.9607   -0.3096 H   0  0  0  0  0  0  0  0  0  0  0  0
   -1.9396   -0.9552   -1.8014 H   0  0  0  0  0  0  0  0  0  0  0  0
   -3.0495   -0.7150   -0.3989 H   0  0  0  0  0  0  0  0  0  0  0  0
   -2.6249    1.1069    1.1359 H   0  0  0  0  0  0  0  0  0  0  0  0
  1  2  1  0
  2  3  1  0
  2  4  1  0
  4  5  1  0
  5  6  1  0
  5  7  1  0
  7  8  2  0
  5  9  1  0
  9  2  1  0
  1 10  1  0
  1 11  1  0
  1 12  1  0
  3 13  1  0
  3 14  1  0
  3 15  1  0
  4 16  1  0
  4 17  1  0
  6 18  1  0
  6 19  1  0
  6 20  1  0
  7 21  1  0
M  END
