
     RDKit          3D

 19 20  0  0  0  0  0  0  0  0999 V2000
    0.8676   -1.5481    0.2762 C   0  0  0  0  0  0  0  0  0  0  0  0
    0.2557   -0.2890   -0.3023 C   0  0  0  0  0  0  0  0  0  0  0  0
    1.0590    0.3954   -1.2168 O   0  0  0  0  0  0  0  0  0  0  0  0
    2.2955    0.8794   -0.8202 C   0  0  0  0  0  0  0  0  0  0  0  0
    2.7190    0.7179    0.3542 O   0  0  0  0  0  0  0  0  0  0  0  0
   -1.1395   -0.6266   -0.8239 C   0  0  0  0  0  0  0  0  0  0  0  0
   -1.6835    0.0718    0.3953 C   0  0  0  0  0  0  0  0  0  0  0  0
   -1.4504    1.5307    0.4487 C   0  0  0  0  0  0  0  0  0  0  0  0
   -0.3326    0.6188    0.7446 C   0  0  0  0  0  0  0  0  0  0  0  0
    1.8735   -1.4317    0.6659 H   0  0  0  0  0  0  0  0  0  0  0  0
    0.7619   -2.3708   -0.4697 H   0  0  0  0  0  0  0  0  0  0  0  0
    0.1815   -1.8509    1.1215 H   0  0  0  0  0  0  0  0  0  0  0  0
    2.9579    1.4193   -1.4985 H   0  0  0  0  0  0  0  0  0  0  0  0
   -1.4026   -1.6772   -0.8326 H   0  0  0  0  0  0  0  0  0  0  0  0
   -1.4257   -0.0354   -1.7336 H   0  0  0  0  0  0  0  0  0  0  0  0
   -2.2383   -0.4806    1.1556 H   0  0  0  0  0  0  0  0  0  0  0  0
   -1.8875    2.0593    1.3040 H   0  0  0  0  0  0  0  0  0  0  0  0
   -1.4904    2.0624   -0.5191 H   0  0  0  0  0  0  0  0  0  0  0  0
    0.0788    0.5553    1.7507 H   0  0  0  0  0  0  0  0  0  0  0  0
  1  2  1  0
  2  3  1  0
  3  4  1  0
  4  5  2  0
  2  6  1  0
  6  7  1  0
  7  8  1  0
  8  9  1  0
  9  2  1  0
  9  7  1  0
  1 10  1  0
  1 11  1  0
  1 12  1  0
  4 13  1  0
  6 14  1  0
  6 15  1  0
  7 16  1  0
  8 17  1  0
  8 18  1  0
  9 19  1  0
M  END
