
     RDKit          3D

 19 19  0  0  0  0  0  0  0  0999 V2000
    0.6942    1.6059   -0.1000 C   0  0  0  0  0  0  0  0  0  0  0  0
   -0.0591    0.2969    0.0233 C   0  0  0  0  0  0  0  0  0  0  0  0
    0.8966   -0.7871    0.4864 C   0  0  0  0  0  0  0  0  0  0  0  0
    2.0134   -1.0006   -0.4478 C   0  0  0  0  0  0  0  0  0  0  0  0
    1.7454   -1.1932   -1.6248 O   0  0  0  0  0  0  0  0  0  0  0  0
   -1.2680    0.3169    0.9230 C   0  0  0  0  0  0  0  0  0  0  0  0
   -1.8905   -0.6430   -0.0919 C   0  0  0  0  0  0  0  0  0  0  0  0
   -0.9458   -0.0567   -1.0819 C   0  0  0  0  0  0  0  0  0  0  0  0
   -0.9403    0.0638   -2.2839 O   0  0  0  0  0  0  0  0  0  0  0  0
    0.0598    2.4539    0.1680 H   0  0  0  0  0  0  0  0  0  0  0  0
    0.9702    1.7272   -1.1673 H   0  0  0  0  0  0  0  0  0  0  0  0
    1.6339    1.5488    0.5193 H   0  0  0  0  0  0  0  0  0  0  0  0
    1.2078   -0.5222    1.5035 H   0  0  0  0  0  0  0  0  0  0  0  0
    0.3723   -1.7742    0.5791 H   0  0  0  0  0  0  0  0  0  0  0  0
    3.0300   -0.9824   -0.0965 H   0  0  0  0  0  0  0  0  0  0  0  0
   -1.7553    1.3099    0.9345 H   0  0  0  0  0  0  0  0  0  0  0  0
   -1.1374   -0.1801    1.8945 H   0  0  0  0  0  0  0  0  0  0  0  0
   -2.9507   -0.4824   -0.2775 H   0  0  0  0  0  0  0  0  0  0  0  0
   -1.6766   -1.7017    0.1400 H   0  0  0  0  0  0  0  0  0  0  0  0
  1  2  1  0
  2  3  1  0
  3  4  1  0
  4  5  2  0
  2  6  1  0
  6  7  1  0
  7  8  1  0
  8  9  2  0
  8  2  1  0
  1 10  1  0
  1 11  1  0
  1 12  1  0
  3 13  1  0
  3 14  1  0
  4 15  1  0
  6 16  1  0
  6 17  1  0
  7 18  1  0
  7 19  1  0
M  END
