
     RDKit          3D

 23 24  0  0  0  0  0  0  0  0999 V2000
    1.8144    1.0190   -0.5292 C   0  0  0  0  0  0  0  0  0  0  0  0
    0.7287    0.1313    0.0028 C   0  0  0  0  0  0  0  0  0  0  0  0
    1.2681   -0.8480    0.9938 C   0  0  0  0  0  0  0  0  0  0  0  0
   -0.4768    0.9304    0.4547 C   0  0  0  0  0  0  0  0  0  0  0  0
   -1.4822    0.1021    1.1924 C   0  0  0  0  0  0  0  0  0  0  0  0
   -1.7693   -1.0950    0.6376 O   0  0  0  0  0  0  0  0  0  0  0  0
   -1.1236   -1.4445   -0.5012 C   0  0  0  0  0  0  0  0  0  0  0  0
   -0.1881   -0.4257   -1.0571 C   0  0  0  0  0  0  0  0  0  0  0  0
   -0.9151    0.9231   -1.0180 C   0  0  0  0  0  0  0  0  0  0  0  0
    2.1040    1.7538    0.2626 H   0  0  0  0  0  0  0  0  0  0  0  0
    1.5844    1.4770   -1.4925 H   0  0  0  0  0  0  0  0  0  0  0  0
    2.7175    0.3671   -0.6795 H   0  0  0  0  0  0  0  0  0  0  0  0
    0.8142   -1.8428    0.9548 H   0  0  0  0  0  0  0  0  0  0  0  0
    2.3718   -1.0098    0.8152 H   0  0  0  0  0  0  0  0  0  0  0  0
    1.1674   -0.4836    2.0352 H   0  0  0  0  0  0  0  0  0  0  0  0
   -0.2932    1.9036    0.8827 H   0  0  0  0  0  0  0  0  0  0  0  0
   -1.1686    0.0437    2.2671 H   0  0  0  0  0  0  0  0  0  0  0  0
   -2.4348    0.7100    1.2221 H   0  0  0  0  0  0  0  0  0  0  0  0
   -1.8916   -1.6400   -1.3077 H   0  0  0  0  0  0  0  0  0  0  0  0
   -0.6262   -2.4402   -0.3604 H   0  0  0  0  0  0  0  0  0  0  0  0
    0.2421   -0.6853   -2.0112 H   0  0  0  0  0  0  0  0  0  0  0  0
   -1.9926    0.8723   -1.1225 H   0  0  0  0  0  0  0  0  0  0  0  0
   -0.4508    1.6812   -1.6417 H   0  0  0  0  0  0  0  0  0  0  0  0
  1  2  1  0
  2  3  1  0
  2  4  1  0
  4  5  1  0
  5  6  1  0
  6  7  1  0
  7  8  1  0
  8  9  1  0
  8  2  1  0
  9  4  1  0
  1 10  1  0
  1 11  1  0
  1 12  1  0
  3 13  1  0
  3 14  1  0
  3 15  1  0
  4 16  1  0
  5 17  1  0
  5 18  1  0
  7 19  1  0
  7 20  1  0
  8 21  1  0
  9 22  1  0
  9 23  1  0
M  END
