
     RDKit          3D

 19 20  0  0  0  0  0  0  0  0999 V2000
   -1.7960    1.1666    0.0285 C   0  0  0  0  0  0  0  0  0  0  0  0
   -0.9844   -0.0871    0.1081 C   0  0  0  0  0  0  0  0  0  0  0  0
    0.4326    0.0436    0.6816 C   0  0  0  0  0  0  0  0  0  0  0  0
    0.4932    0.6947    1.9010 O   0  0  0  0  0  0  0  0  0  0  0  0
    1.3739   -1.0472    0.4129 C   0  0  0  0  0  0  0  0  0  0  0  0
    1.5007    0.2853   -0.3231 C   0  0  0  0  0  0  0  0  0  0  0  0
    2.6435    0.9928   -0.0169 O   0  0  0  0  0  0  0  0  0  0  0  0
   -1.5778   -1.4011   -0.0417 C   0  0  0  0  0  0  0  0  0  0  0  0
   -0.9936   -0.7896   -1.1944 O   0  0  0  0  0  0  0  0  0  0  0  0
   -2.8641    0.8809    0.0349 H   0  0  0  0  0  0  0  0  0  0  0  0
   -1.5278    1.8304    0.8746 H   0  0  0  0  0  0  0  0  0  0  0  0
   -1.5240    1.7541   -0.8953 H   0  0  0  0  0  0  0  0  0  0  0  0
    0.6984    1.6603    1.7797 H   0  0  0  0  0  0  0  0  0  0  0  0
    1.1384   -1.8947   -0.2740 H   0  0  0  0  0  0  0  0  0  0  0  0
    2.1296   -1.2663    1.2156 H   0  0  0  0  0  0  0  0  0  0  0  0
    1.2117    0.3274   -1.3874 H   0  0  0  0  0  0  0  0  0  0  0  0
    3.3913    0.5959   -0.5255 H   0  0  0  0  0  0  0  0  0  0  0  0
   -2.6852   -1.4477   -0.1630 H   0  0  0  0  0  0  0  0  0  0  0  0
   -1.0604   -2.2984    0.3604 H   0  0  0  0  0  0  0  0  0  0  0  0
  1  2  1  0
  2  3  1  0
  3  4  1  0
  3  5  1  0
  5  6  1  0
  6  7  1  0
  2  8  1  0
  8  9  1  0
  9  2  1  0
  6  3  1  0
  1 10  1  0
  1 11  1  0
  1 12  1  0
  4 13  1  0
  5 14  1  0
  5 15  1  0
  6 16  1  0
  7 17  1  0
  8 18  1  0
  8 19  1  0
M  END
