
     RDKit          3D

 20 21  0  0  0  0  0  0  0  0999 V2000
   -1.3741    0.0770   -1.0575 C   0  0  0  0  0  0  0  0  0  0  0  0
   -0.6027   -0.0432    0.2589 C   0  0  0  0  0  0  0  0  0  0  0  0
   -0.7495   -1.3366    0.9672 C   0  0  0  0  0  0  0  0  0  0  0  0
   -0.7410    1.2120    1.0520 C   0  0  0  0  0  0  0  0  0  0  0  0
    0.4977    1.7112    0.5906 O   0  0  0  0  0  0  0  0  0  0  0  0
    0.7641    0.4935    0.0785 C   0  0  0  0  0  0  0  0  0  0  0  0
    1.9982   -0.2335    0.1014 C   0  0  0  0  0  0  0  0  0  0  0  0
    1.4212    0.2356   -1.2135 C   0  0  0  0  0  0  0  0  0  0  0  0
   -1.0857    1.0906   -1.4599 H   0  0  0  0  0  0  0  0  0  0  0  0
   -1.0045   -0.7099   -1.7292 H   0  0  0  0  0  0  0  0  0  0  0  0
   -2.4555    0.0908   -0.9108 H   0  0  0  0  0  0  0  0  0  0  0  0
   -0.9984   -2.1431    0.2385 H   0  0  0  0  0  0  0  0  0  0  0  0
    0.2348   -1.6279    1.4138 H   0  0  0  0  0  0  0  0  0  0  0  0
   -1.5078   -1.2494    1.7584 H   0  0  0  0  0  0  0  0  0  0  0  0
   -1.5341    1.9085    0.6747 H   0  0  0  0  0  0  0  0  0  0  0  0
   -0.7703    1.0415    2.1516 H   0  0  0  0  0  0  0  0  0  0  0  0
    2.9331    0.3378    0.3750 H   0  0  0  0  0  0  0  0  0  0  0  0
    2.0565   -1.3087    0.3315 H   0  0  0  0  0  0  0  0  0  0  0  0
    1.8888    1.0572   -1.7690 H   0  0  0  0  0  0  0  0  0  0  0  0
    1.0290   -0.6032   -1.8523 H   0  0  0  0  0  0  0  0  0  0  0  0
  1  2  1  0
  2  3  1  0
  2  4  1  0
  4  5  1  0
  5  6  1  0
  6  7  1  0
  7  8  1  0
  6  2  1  0
  8  6  1  0
  1  9  1  0
  1 10  1  0
  1 11  1  0
  3 12  1  0
  3 13  1  0
  3 14  1  0
  4 15  1  0
  4 16  1  0
  7 17  1  0
  7 18  1  0
  8 19  1  0
  8 20  1  0
M  END
