
     RDKit          3D

 23 24  0  0  0  0  0  0  0  0999 V2000
   -1.6458   -0.9718   -1.3978 C   0  0  0  0  0  0  0  0  0  0  0  0
   -1.5719   -0.1495   -0.1441 C   0  0  0  0  0  0  0  0  0  0  0  0
   -0.2432   -0.2134    0.5634 C   0  0  0  0  0  0  0  0  0  0  0  0
    0.8092    0.2375   -0.2319 O   0  0  0  0  0  0  0  0  0  0  0  0
    1.9700    0.1377    0.5045 C   0  0  0  0  0  0  0  0  0  0  0  0
    3.1417   -0.4534   -0.3057 C   0  0  0  0  0  0  0  0  0  0  0  0
    3.1620    0.9568    0.2245 C   0  0  0  0  0  0  0  0  0  0  0  0
   -2.7646   -0.0364    0.7533 C   0  0  0  0  0  0  0  0  0  0  0  0
   -2.2981    1.1567   -0.0436 C   0  0  0  0  0  0  0  0  0  0  0  0
   -2.6600   -1.1505   -1.7583 H   0  0  0  0  0  0  0  0  0  0  0  0
   -0.9893   -0.5405   -2.1973 H   0  0  0  0  0  0  0  0  0  0  0  0
   -1.1839   -1.9700   -1.1504 H   0  0  0  0  0  0  0  0  0  0  0  0
   -0.2784    0.4862    1.4482 H   0  0  0  0  0  0  0  0  0  0  0  0
   -0.0148   -1.2241    0.9663 H   0  0  0  0  0  0  0  0  0  0  0  0
    1.9035   -0.2622    1.5589 H   0  0  0  0  0  0  0  0  0  0  0  0
    3.7315   -1.2444    0.1814 H   0  0  0  0  0  0  0  0  0  0  0  0
    3.0216   -0.5760   -1.3833 H   0  0  0  0  0  0  0  0  0  0  0  0
    3.8910    1.1341    1.0256 H   0  0  0  0  0  0  0  0  0  0  0  0
    3.1623    1.7676   -0.5423 H   0  0  0  0  0  0  0  0  0  0  0  0
   -2.6064   -0.0625    1.8530 H   0  0  0  0  0  0  0  0  0  0  0  0
   -3.7171   -0.5102    0.4118 H   0  0  0  0  0  0  0  0  0  0  0  0
   -2.9217    1.5100   -0.8968 H   0  0  0  0  0  0  0  0  0  0  0  0
   -1.8976    1.9782    0.5607 H   0  0  0  0  0  0  0  0  0  0  0  0
  1  2  1  0
  2  3  1  0
  3  4  1  0
  4  5  1  0
  5  6  1  0
  6  7  1  0
  2  8  1  0
  8  9  1  0
  9  2  1  0
  7  5  1  0
  1 10  1  0
  1 11  1  0
  1 12  1  0
  3 13  1  0
  3 14  1  0
  5 15  1  0
  6 16  1  0
  6 17  1  0
  7 18  1  0
  7 19  1  0
  8 20  1  0
  8 21  1  0
  9 22  1  0
  9 23  1  0
M  END
