
     RDKit          3D

 19 20  0  0  0  0  0  0  0  0999 V2000
   -1.3334   -0.0196   -1.2021 C   0  0  0  0  0  0  0  0  0  0  0  0
   -0.7781   -0.3394    0.1662 C   0  0  0  0  0  0  0  0  0  0  0  0
   -1.7567   -0.7190    1.2112 C   0  0  0  0  0  0  0  0  0  0  0  0
   -1.3594   -0.9842    2.3234 O   0  0  0  0  0  0  0  0  0  0  0  0
    0.5775   -0.8932    0.3299 C   0  0  0  0  0  0  0  0  0  0  0  0
    1.6577   -0.5550   -0.6772 C   0  0  0  0  0  0  0  0  0  0  0  0
    1.3834    0.8967   -0.4483 C   0  0  0  0  0  0  0  0  0  0  0  0
    0.3628    0.5483    0.5764 C   0  0  0  0  0  0  0  0  0  0  0  0
    0.3573    1.1037    1.8243 O   0  0  0  0  0  0  0  0  0  0  0  0
   -2.1798   -0.6844   -1.4519 H   0  0  0  0  0  0  0  0  0  0  0  0
   -0.5189   -0.0462   -1.9525 H   0  0  0  0  0  0  0  0  0  0  0  0
   -1.7146    1.0098   -1.1756 H   0  0  0  0  0  0  0  0  0  0  0  0
   -2.8216   -0.7674    1.0124 H   0  0  0  0  0  0  0  0  0  0  0  0
    0.8349   -1.6087    1.1235 H   0  0  0  0  0  0  0  0  0  0  0  0
    2.6470   -0.9291   -0.3416 H   0  0  0  0  0  0  0  0  0  0  0  0
    1.3532   -0.9552   -1.6705 H   0  0  0  0  0  0  0  0  0  0  0  0
    0.9266    1.4413   -1.3084 H   0  0  0  0  0  0  0  0  0  0  0  0
    2.2631    1.4314   -0.0573 H   0  0  0  0  0  0  0  0  0  0  0  0
    0.0990    2.0702    1.7182 H   0  0  0  0  0  0  0  0  0  0  0  0
  1  2  1  0
  2  3  1  0
  3  4  2  0
  2  5  1  0
  5  6  1  0
  6  7  1  0
  7  8  1  0
  8  9  1  0
  8  2  1  0
  8  5  1  0
  1 10  1  0
  1 11  1  0
  1 12  1  0
  3 13  1  0
  5 14  1  0
  6 15  1  0
  6 16  1  0
  7 17  1  0
  7 18  1  0
  9 19  1  0
M  END
