
     RDKit          3D

 21 21  0  0  0  0  0  0  0  0999 V2000
   -1.5887   -1.0949   -0.3677 C   0  0  0  0  0  0  0  0  0  0  0  0
   -0.6232   -0.2708    0.4336 C   0  0  0  0  0  0  0  0  0  0  0  0
   -1.0764   -0.2401    1.7561 O   0  0  0  0  0  0  0  0  0  0  0  0
   -0.5089    1.1096   -0.1630 C   0  0  0  0  0  0  0  0  0  0  0  0
   -0.6475    2.0256    0.8789 O   0  0  0  0  0  0  0  0  0  0  0  0
    0.8702    1.2291   -0.7490 C   0  0  0  0  0  0  0  0  0  0  0  0
    1.4433   -0.1819   -0.7694 C   0  0  0  0  0  0  0  0  0  0  0  0
    0.7685   -0.7981    0.4327 C   0  0  0  0  0  0  0  0  0  0  0  0
    0.8552   -2.1640    0.4776 O   0  0  0  0  0  0  0  0  0  0  0  0
   -1.4074   -1.0468   -1.4563 H   0  0  0  0  0  0  0  0  0  0  0  0
   -1.5875   -2.1473   -0.0018 H   0  0  0  0  0  0  0  0  0  0  0  0
   -2.6041   -0.6720   -0.1918 H   0  0  0  0  0  0  0  0  0  0  0  0
   -0.5042    0.3642    2.3015 H   0  0  0  0  0  0  0  0  0  0  0  0
   -1.2675    1.2859   -0.9424 H   0  0  0  0  0  0  0  0  0  0  0  0
   -1.2145    2.7899    0.6562 H   0  0  0  0  0  0  0  0  0  0  0  0
    0.8250    1.5762   -1.7901 H   0  0  0  0  0  0  0  0  0  0  0  0
    1.5201    1.9311   -0.1841 H   0  0  0  0  0  0  0  0  0  0  0  0
    1.1121   -0.7351   -1.6534 H   0  0  0  0  0  0  0  0  0  0  0  0
    2.5295   -0.1763   -0.6046 H   0  0  0  0  0  0  0  0  0  0  0  0
    1.2957   -0.3784    1.3334 H   0  0  0  0  0  0  0  0  0  0  0  0
    1.8105   -2.4057    0.6036 H   0  0  0  0  0  0  0  0  0  0  0  0
  1  2  1  0
  2  3  1  0
  2  4  1  0
  4  5  1  0
  4  6  1  0
  6  7  1  0
  7  8  1  0
  8  9  1  0
  8  2  1  0
  1 10  1  0
  1 11  1  0
  1 12  1  0
  3 13  1  0
  4 14  1  0
  5 15  1  0
  6 16  1  0
  6 17  1  0
  7 18  1  0
  7 19  1  0
  8 20  1  0
  9 21  1  0
M  END
