
     RDKit          3D

 21 22  0  0  0  0  0  0  0  0999 V2000
   -0.8531    1.2191   -0.4039 C   0  0  0  0  0  0  0  0  0  0  0  0
   -0.6663   -0.2027   -0.1434 C   0  0  0  0  0  0  0  0  0  0  0  0
   -2.0132   -0.8952   -0.4348 C   0  0  0  0  0  0  0  0  0  0  0  0
   -0.3422   -0.5973    1.2802 C   0  0  0  0  0  0  0  0  0  0  0  0
    0.9654   -0.6706    1.3212 C   0  0  0  0  0  0  0  0  0  0  0  0
    1.5304   -0.3539    0.0623 C   0  0  0  0  0  0  0  0  0  0  0  0
    1.9505    1.0948   -0.0234 C   0  0  0  0  0  0  0  0  0  0  0  0
    1.6548   -0.8650   -1.1512 O   0  0  0  0  0  0  0  0  0  0  0  0
    0.4193   -0.9495   -0.8044 C   0  0  0  0  0  0  0  0  0  0  0  0
   -0.6322    1.3910   -1.5019 H   0  0  0  0  0  0  0  0  0  0  0  0
   -1.9533    1.5260   -0.3692 H   0  0  0  0  0  0  0  0  0  0  0  0
   -0.3911    1.9508    0.2592 H   0  0  0  0  0  0  0  0  0  0  0  0
   -2.0353   -1.9125   -0.0277 H   0  0  0  0  0  0  0  0  0  0  0  0
   -2.0653   -0.9834   -1.5455 H   0  0  0  0  0  0  0  0  0  0  0  0
   -2.8548   -0.2639   -0.0757 H   0  0  0  0  0  0  0  0  0  0  0  0
   -1.0660   -0.7720    2.0681 H   0  0  0  0  0  0  0  0  0  0  0  0
    1.5269   -0.9451    2.2290 H   0  0  0  0  0  0  0  0  0  0  0  0
    1.6546    1.6235   -0.9303 H   0  0  0  0  0  0  0  0  0  0  0  0
    1.8665    1.6591    0.9208 H   0  0  0  0  0  0  0  0  0  0  0  0
    3.0835    1.0155   -0.1444 H   0  0  0  0  0  0  0  0  0  0  0  0
    0.2211   -2.0687   -0.5851 H   0  0  0  0  0  0  0  0  0  0  0  0
  1  2  1  0
  2  3  1  0
  2  4  1  0
  4  5  2  0
  5  6  1  0
  6  7  1  0
  6  8  1  0
  8  9  1  0
  9  2  1  0
  9  6  1  0
  1 10  1  0
  1 11  1  0
  1 12  1  0
  3 13  1  0
  3 14  1  0
  3 15  1  0
  4 16  1  0
  5 17  1  0
  7 18  1  0
  7 19  1  0
  7 20  1  0
  9 21  1  0
M  END
