
     RDKit          3D

 19 20  0  0  0  0  0  0  0  0999 V2000
   -1.4397   -0.6482    1.1429 C   0  0  0  0  0  0  0  0  0  0  0  0
   -0.8211   -0.1296   -0.1100 C   0  0  0  0  0  0  0  0  0  0  0  0
   -1.3314   -0.7650   -1.2464 O   0  0  0  0  0  0  0  0  0  0  0  0
   -0.9901    1.3439   -0.2666 C   0  0  0  0  0  0  0  0  0  0  0  0
   -1.8305    2.2069   -0.0837 O   0  0  0  0  0  0  0  0  0  0  0  0
    0.4093    1.3833   -0.7907 C   0  0  0  0  0  0  0  0  0  0  0  0
    0.6327    0.0481   -0.1707 C   0  0  0  0  0  0  0  0  0  0  0  0
    1.6358   -0.9062   -0.5560 C   0  0  0  0  0  0  0  0  0  0  0  0
    1.6017   -0.2589    0.8474 C   0  0  0  0  0  0  0  0  0  0  0  0
   -1.0643   -1.6816    1.3320 H   0  0  0  0  0  0  0  0  0  0  0  0
   -1.3550    0.0118    2.0113 H   0  0  0  0  0  0  0  0  0  0  0  0
   -2.5439   -0.7643    0.9404 H   0  0  0  0  0  0  0  0  0  0  0  0
   -2.1181   -0.2525   -1.5878 H   0  0  0  0  0  0  0  0  0  0  0  0
    1.0319    2.2034   -0.4495 H   0  0  0  0  0  0  0  0  0  0  0  0
    0.4240    1.2913   -1.9079 H   0  0  0  0  0  0  0  0  0  0  0  0
    2.4464   -0.5435   -1.2417 H   0  0  0  0  0  0  0  0  0  0  0  0
    1.5024   -1.9979   -0.6162 H   0  0  0  0  0  0  0  0  0  0  0  0
    1.3556   -0.9504    1.6979 H   0  0  0  0  0  0  0  0  0  0  0  0
    2.4543    0.4094    1.0553 H   0  0  0  0  0  0  0  0  0  0  0  0
  1  2  1  0
  2  3  1  0
  2  4  1  0
  4  5  2  0
  4  6  1  0
  6  7  1  0
  7  8  1  0
  8  9  1  0
  7  2  1  0
  9  7  1  0
  1 10  1  0
  1 11  1  0
  1 12  1  0
  3 13  1  0
  6 14  1  0
  6 15  1  0
  8 16  1  0
  8 17  1  0
  9 18  1  0
  9 19  1  0
M  END
