
     RDKit          3D

 22 22  0  0  0  0  0  0  0  0999 V2000
   -1.7314   -0.8726   -0.8573 C   0  0  0  0  0  0  0  0  0  0  0  0
   -0.9690    0.1389   -0.0498 C   0  0  0  0  0  0  0  0  0  0  0  0
   -1.9455    1.1292    0.5462 C   0  0  0  0  0  0  0  0  0  0  0  0
   -0.0048   -0.5003    0.8701 C   0  0  0  0  0  0  0  0  0  0  0  0
    1.0529    0.0615   -0.0142 C   0  0  0  0  0  0  0  0  0  0  0  0
    2.0611    0.8923    0.7153 C   0  0  0  0  0  0  0  0  0  0  0  0
    1.6768   -0.8830   -1.0133 C   0  0  0  0  0  0  0  0  0  0  0  0
    0.0512    0.8013   -0.6857 O   0  0  0  0  0  0  0  0  0  0  0  0
   -2.6579   -1.1119   -0.2571 H   0  0  0  0  0  0  0  0  0  0  0  0
   -1.2003   -1.8170   -0.9924 H   0  0  0  0  0  0  0  0  0  0  0  0
   -2.0794   -0.3950   -1.7789 H   0  0  0  0  0  0  0  0  0  0  0  0
   -1.4739    2.0638    0.8747 H   0  0  0  0  0  0  0  0  0  0  0  0
   -2.5832    0.6415    1.2796 H   0  0  0  0  0  0  0  0  0  0  0  0
   -2.6221    1.4203   -0.3117 H   0  0  0  0  0  0  0  0  0  0  0  0
   -0.0745   -1.6140    0.9109 H   0  0  0  0  0  0  0  0  0  0  0  0
    0.0048   -0.0056    1.8729 H   0  0  0  0  0  0  0  0  0  0  0  0
    3.0914    0.7448    0.2962 H   0  0  0  0  0  0  0  0  0  0  0  0
    2.1457    0.5528    1.7868 H   0  0  0  0  0  0  0  0  0  0  0  0
    1.7863    1.9687    0.7675 H   0  0  0  0  0  0  0  0  0  0  0  0
    0.9471   -1.1344   -1.8314 H   0  0  0  0  0  0  0  0  0  0  0  0
    2.4711   -0.2752   -1.5405 H   0  0  0  0  0  0  0  0  0  0  0  0
    2.0534   -1.8060   -0.5877 H   0  0  0  0  0  0  0  0  0  0  0  0
  1  2  1  0
  2  3  1  0
  2  4  1  0
  4  5  1  0
  5  6  1  0
  5  7  1  0
  5  8  1  0
  8  2  1  0
  1  9  1  0
  1 10  1  0
  1 11  1  0
  3 12  1  0
  3 13  1  0
  3 14  1  0
  4 15  1  0
  4 16  1  0
  6 17  1  0
  6 18  1  0
  6 19  1  0
  7 20  1  0
  7 21  1  0
  7 22  1  0
M  END
