
     RDKit          3D

 23 25  0  0  0  0  0  0  0  0999 V2000
   -1.4345    0.8219   -1.3921 C   0  0  0  0  0  0  0  0  0  0  0  0
   -0.8766    0.0863   -0.2105 C   0  0  0  0  0  0  0  0  0  0  0  0
   -1.9157   -0.0024    0.8545 C   0  0  0  0  0  0  0  0  0  0  0  0
   -0.3628   -1.3042   -0.6188 C   0  0  0  0  0  0  0  0  0  0  0  0
    1.1037   -1.0959   -0.3567 C   0  0  0  0  0  0  0  0  0  0  0  0
    1.4057    0.3028   -0.8145 C   0  0  0  0  0  0  0  0  0  0  0  0
    2.4167    0.3493    0.2926 C   0  0  0  0  0  0  0  0  0  0  0  0
    1.2324   -0.3226    0.9217 C   0  0  0  0  0  0  0  0  0  0  0  0
    0.4067    0.7208    0.2235 C   0  0  0  0  0  0  0  0  0  0  0  0
   -2.1676    0.1890   -1.9462 H   0  0  0  0  0  0  0  0  0  0  0  0
   -0.5961    1.1367   -2.0482 H   0  0  0  0  0  0  0  0  0  0  0  0
   -1.9111    1.7427   -1.0193 H   0  0  0  0  0  0  0  0  0  0  0  0
   -2.1069    1.0056    1.2417 H   0  0  0  0  0  0  0  0  0  0  0  0
   -1.6590   -0.6930    1.6845 H   0  0  0  0  0  0  0  0  0  0  0  0
   -2.8543   -0.3584    0.3925 H   0  0  0  0  0  0  0  0  0  0  0  0
   -0.8205   -2.0658    0.0180 H   0  0  0  0  0  0  0  0  0  0  0  0
   -0.5529   -1.4817   -1.6858 H   0  0  0  0  0  0  0  0  0  0  0  0
    1.7954   -1.8817   -0.5737 H   0  0  0  0  0  0  0  0  0  0  0  0
    1.4982    0.6358   -1.7514 H   0  0  0  0  0  0  0  0  0  0  0  0
    2.5270    1.3831    0.6808 H   0  0  0  0  0  0  0  0  0  0  0  0
    3.3248   -0.2379    0.1695 H   0  0  0  0  0  0  0  0  0  0  0  0
    1.1351   -0.6555    1.8577 H   0  0  0  0  0  0  0  0  0  0  0  0
    0.4124    1.7253    0.5877 H   0  0  0  0  0  0  0  0  0  0  0  0
  1  2  1  0
  2  3  1  0
  2  4  1  0
  4  5  1  0
  5  6  1  0
  6  7  1  0
  7  8  1  0
  8  9  1  0
  9  2  1  0
  8  5  1  0
  9  6  1  0
  1 10  1  0
  1 11  1  0
  1 12  1  0
  3 13  1  0
  3 14  1  0
  3 15  1  0
  4 16  1  0
  4 17  1  0
  5 18  1  0
  6 19  1  0
  7 20  1  0
  7 21  1  0
  8 22  1  0
  9 23  1  0
M  END
