
     RDKit          3D

 21 21  0  0  0  0  0  0  0  0999 V2000
   -1.5450   -0.6503   -0.9761 C   0  0  0  0  0  0  0  0  0  0  0  0
   -0.5770    0.0501   -0.0358 C   0  0  0  0  0  0  0  0  0  0  0  0
   -1.4494    0.7542    1.0009 C   0  0  0  0  0  0  0  0  0  0  0  0
    0.3547   -0.9262    0.6259 C   0  0  0  0  0  0  0  0  0  0  0  0
    1.7872   -0.4755    0.6339 C   0  0  0  0  0  0  0  0  0  0  0  0
    2.2366   -0.1075   -0.7365 C   0  0  0  0  0  0  0  0  0  0  0  0
    3.3700   -0.3992   -1.1851 O   0  0  0  0  0  0  0  0  0  0  0  0
    1.2860    0.5990   -1.4989 O   0  0  0  0  0  0  0  0  0  0  0  0
    0.1961    1.1330   -0.7508 C   0  0  0  0  0  0  0  0  0  0  0  0
   -1.0345   -1.1810   -1.7938 H   0  0  0  0  0  0  0  0  0  0  0  0
   -2.2482    0.1298   -1.3316 H   0  0  0  0  0  0  0  0  0  0  0  0
   -2.1462   -1.3418   -0.3214 H   0  0  0  0  0  0  0  0  0  0  0  0
   -1.9484    1.5885    0.4397 H   0  0  0  0  0  0  0  0  0  0  0  0
   -0.8085    1.1016    1.8091 H   0  0  0  0  0  0  0  0  0  0  0  0
   -2.2696    0.0714    1.3270 H   0  0  0  0  0  0  0  0  0  0  0  0
    0.3116   -1.9464    0.1459 H   0  0  0  0  0  0  0  0  0  0  0  0
    0.0393   -1.0221    1.6972 H   0  0  0  0  0  0  0  0  0  0  0  0
    2.4036   -1.3141    0.9920 H   0  0  0  0  0  0  0  0  0  0  0  0
    1.9339    0.3756    1.3266 H   0  0  0  0  0  0  0  0  0  0  0  0
   -0.4622    1.7252   -1.4042 H   0  0  0  0  0  0  0  0  0  0  0  0
    0.5701    1.8358    0.0361 H   0  0  0  0  0  0  0  0  0  0  0  0
  1  2  1  0
  2  3  1  0
  2  4  1  0
  4  5  1  0
  5  6  1  0
  6  7  2  0
  6  8  1  0
  8  9  1  0
  9  2  1  0
  1 10  1  0
  1 11  1  0
  1 12  1  0
  3 13  1  0
  3 14  1  0
  3 15  1  0
  4 16  1  0
  4 17  1  0
  5 18  1  0
  5 19  1  0
  9 20  1  0
  9 21  1  0
M  END
