
     RDKit          3D

 19 20  0  0  0  0  0  0  0  0999 V2000
   -1.2560    0.7970   -0.8945 C   0  0  0  0  0  0  0  0  0  0  0  0
   -0.4591   -0.0577    0.0351 C   0  0  0  0  0  0  0  0  0  0  0  0
   -1.2639   -0.8499    0.9789 C   0  0  0  0  0  0  0  0  0  0  0  0
    0.6198   -0.8993   -0.6529 C   0  0  0  0  0  0  0  0  0  0  0  0
    1.4303   -0.6534    0.6102 C   0  0  0  0  0  0  0  0  0  0  0  0
    0.7400    0.6848    0.5628 C   0  0  0  0  0  0  0  0  0  0  0  0
    1.3158    1.1936   -0.7228 C   0  0  0  0  0  0  0  0  0  0  0  0
    1.7838    2.3173   -1.0187 O   0  0  0  0  0  0  0  0  0  0  0  0
    1.1885    0.0405   -1.5363 O   0  0  0  0  0  0  0  0  0  0  0  0
   -0.5841    1.1576   -1.6928 H   0  0  0  0  0  0  0  0  0  0  0  0
   -1.5937    1.7099   -0.3423 H   0  0  0  0  0  0  0  0  0  0  0  0
   -2.1216    0.2158   -1.2713 H   0  0  0  0  0  0  0  0  0  0  0  0
   -2.1745   -0.2803    1.3019 H   0  0  0  0  0  0  0  0  0  0  0  0
   -1.6707   -1.7470    0.4255 H   0  0  0  0  0  0  0  0  0  0  0  0
   -0.7694   -1.2319    1.8635 H   0  0  0  0  0  0  0  0  0  0  0  0
    0.3938   -1.8758   -0.9521 H   0  0  0  0  0  0  0  0  0  0  0  0
    2.5124   -0.5277    0.4548 H   0  0  0  0  0  0  0  0  0  0  0  0
    1.2274   -1.2980    1.4517 H   0  0  0  0  0  0  0  0  0  0  0  0
    0.6815    1.3046    1.3993 H   0  0  0  0  0  0  0  0  0  0  0  0
  1  2  1  0
  2  3  1  0
  2  4  1  0
  4  5  1  0
  5  6  1  0
  6  7  1  0
  7  8  2  0
  7  9  1  0
  6  2  1  0
  9  4  1  0
  1 10  1  0
  1 11  1  0
  1 12  1  0
  3 13  1  0
  3 14  1  0
  3 15  1  0
  4 16  1  0
  5 17  1  0
  5 18  1  0
  6 19  1  0
M  END
