
     RDKit          3D

 19 20  0  0  0  0  0  0  0  0999 V2000
   -1.2547    1.3050    0.0126 C   0  0  0  0  0  0  0  0  0  0  0  0
   -0.6280   -0.0706    0.1659 C   0  0  0  0  0  0  0  0  0  0  0  0
   -1.6010   -1.1139    0.6533 C   0  0  0  0  0  0  0  0  0  0  0  0
    0.2472   -0.5076   -0.9366 C   0  0  0  0  0  0  0  0  0  0  0  0
    1.1173    0.5836   -1.4825 C   0  0  0  0  0  0  0  0  0  0  0  0
    1.1091    1.1839   -2.5169 O   0  0  0  0  0  0  0  0  0  0  0  0
    1.8841    0.5100   -0.2009 C   0  0  0  0  0  0  0  0  0  0  0  0
    0.8023   -0.2166    0.4912 C   0  0  0  0  0  0  0  0  0  0  0  0
    1.1589   -1.2947    1.2615 O   0  0  0  0  0  0  0  0  0  0  0  0
   -2.3193    1.1784   -0.2764 H   0  0  0  0  0  0  0  0  0  0  0  0
   -1.2432    1.8688    0.9670 H   0  0  0  0  0  0  0  0  0  0  0  0
   -0.7681    1.8502   -0.8098 H   0  0  0  0  0  0  0  0  0  0  0  0
   -1.2526   -2.1453    0.4238 H   0  0  0  0  0  0  0  0  0  0  0  0
   -2.5359   -0.9821    0.0342 H   0  0  0  0  0  0  0  0  0  0  0  0
   -1.9056   -0.9846    1.6925 H   0  0  0  0  0  0  0  0  0  0  0  0
    0.3990   -1.5376   -1.2380 H   0  0  0  0  0  0  0  0  0  0  0  0
    2.7885   -0.1385   -0.3978 H   0  0  0  0  0  0  0  0  0  0  0  0
    2.2141    1.4779    0.1978 H   0  0  0  0  0  0  0  0  0  0  0  0
    1.7880   -0.9662    1.9590 H   0  0  0  0  0  0  0  0  0  0  0  0
  1  2  1  0
  2  3  1  0
  2  4  1  0
  4  5  1  0
  5  6  2  0
  5  7  1  0
  7  8  1  0
  8  9  1  0
  8  2  1  0
  8  4  1  0
  1 10  1  0
  1 11  1  0
  1 12  1  0
  3 13  1  0
  3 14  1  0
  3 15  1  0
  4 16  1  0
  7 17  1  0
  7 18  1  0
  9 19  1  0
M  END
