
     RDKit          3D

 19 19  0  0  0  0  0  0  0  0999 V2000
    1.9449    0.6758   -0.3639 C   0  0  0  0  0  0  0  0  0  0  0  0
    0.8470   -0.0831    0.3041 C   0  0  0  0  0  0  0  0  0  0  0  0
    0.8486   -0.1089    1.7106 O   0  0  0  0  0  0  0  0  0  0  0  0
    0.3388   -1.3104   -0.4206 C   0  0  0  0  0  0  0  0  0  0  0  0
   -0.5394   -0.0706   -0.2907 C   0  0  0  0  0  0  0  0  0  0  0  0
   -0.7023    0.8250   -1.4657 C   0  0  0  0  0  0  0  0  0  0  0  0
   -0.5918    0.2277   -2.6152 O   0  0  0  0  0  0  0  0  0  0  0  0
   -1.6155   -0.0282    0.6980 C   0  0  0  0  0  0  0  0  0  0  0  0
   -2.8688   -0.0746    0.0142 O   0  0  0  0  0  0  0  0  0  0  0  0
    2.4512    1.4432    0.2847 H   0  0  0  0  0  0  0  0  0  0  0  0
    2.7490   -0.0980   -0.5954 H   0  0  0  0  0  0  0  0  0  0  0  0
    1.5981    1.0502   -1.3288 H   0  0  0  0  0  0  0  0  0  0  0  0
    1.6155    0.3461    2.0532 H   0  0  0  0  0  0  0  0  0  0  0  0
    0.1175   -2.1568    0.2157 H   0  0  0  0  0  0  0  0  0  0  0  0
    0.8063   -1.5404   -1.4287 H   0  0  0  0  0  0  0  0  0  0  0  0
   -0.8841    1.8640   -1.5269 H   0  0  0  0  0  0  0  0  0  0  0  0
   -1.5763    0.8746    1.3381 H   0  0  0  0  0  0  0  0  0  0  0  0
   -1.5634   -0.9611    1.3296 H   0  0  0  0  0  0  0  0  0  0  0  0
   -2.9752   -0.8744   -0.5607 H   0  0  0  0  0  0  0  0  0  0  0  0
  1  2  1  0
  2  3  1  0
  2  4  1  0
  4  5  1  0
  5  6  1  0
  6  7  2  0
  5  8  1  0
  8  9  1  0
  5  2  1  0
  1 10  1  0
  1 11  1  0
  1 12  1  0
  3 13  1  0
  4 14  1  0
  4 15  1  0
  6 16  1  0
  8 17  1  0
  8 18  1  0
  9 19  1  0
M  END
