
     RDKit          3D

 21 22  0  0  0  0  0  0  0  0999 V2000
   -1.6230    1.1346    0.0198 C   0  0  0  0  0  0  0  0  0  0  0  0
   -0.7401   -0.0623    0.0269 C   0  0  0  0  0  0  0  0  0  0  0  0
   -1.5246   -1.3017    0.2128 C   0  0  0  0  0  0  0  0  0  0  0  0
   -2.4221   -1.3000    1.0325 O   0  0  0  0  0  0  0  0  0  0  0  0
    0.0663   -0.1201   -1.2838 C   0  0  0  0  0  0  0  0  0  0  0  0
    1.4404    0.0378   -0.7137 C   0  0  0  0  0  0  0  0  0  0  0  0
    1.3956   -1.0123    0.4061 C   0  0  0  0  0  0  0  0  0  0  0  0
    0.3791   -0.0252    1.0041 C   0  0  0  0  0  0  0  0  0  0  0  0
    1.3235    1.0172    0.4429 C   0  0  0  0  0  0  0  0  0  0  0  0
   -2.5330    0.9830    0.6450 H   0  0  0  0  0  0  0  0  0  0  0  0
   -1.9782    1.2889   -1.0361 H   0  0  0  0  0  0  0  0  0  0  0  0
   -1.1298    2.0800    0.3046 H   0  0  0  0  0  0  0  0  0  0  0  0
   -1.3520   -2.2158   -0.3355 H   0  0  0  0  0  0  0  0  0  0  0  0
   -0.0226   -1.1282   -1.7231 H   0  0  0  0  0  0  0  0  0  0  0  0
   -0.2395    0.6529   -1.9834 H   0  0  0  0  0  0  0  0  0  0  0  0
    2.2958    0.0657   -1.3309 H   0  0  0  0  0  0  0  0  0  0  0  0
    0.9598   -1.9338    0.0232 H   0  0  0  0  0  0  0  0  0  0  0  0
    2.3131   -1.0671    0.9890 H   0  0  0  0  0  0  0  0  0  0  0  0
    0.2142   -0.0686    2.0504 H   0  0  0  0  0  0  0  0  0  0  0  0
    2.2708    0.9885    1.0347 H   0  0  0  0  0  0  0  0  0  0  0  0
    0.9062    1.9864    0.2144 H   0  0  0  0  0  0  0  0  0  0  0  0
  1  2  1  0
  2  3  1  0
  3  4  2  0
  2  5  1  0
  5  6  1  0
  6  7  1  0
  7  8  1  0
  8  9  1  0
  8  2  1  0
  9  6  1  0
  1 10  1  0
  1 11  1  0
  1 12  1  0
  3 13  1  0
  5 14  1  0
  5 15  1  0
  6 16  1  0
  7 17  1  0
  7 18  1  0
  8 19  1  0
  9 20  1  0
  9 21  1  0
M  END
