
     RDKit          3D

 18 19  0  0  0  0  0  0  0  0999 V2000
   -1.1456    1.2127   -0.4110 C   0  0  0  0  0  0  0  0  0  0  0  0
   -0.3840   -0.0399   -0.0315 C   0  0  0  0  0  0  0  0  0  0  0  0
   -1.3762   -1.0074    0.5739 C   0  0  0  0  0  0  0  0  0  0  0  0
    0.3612   -0.6122   -1.1594 C   0  0  0  0  0  0  0  0  0  0  0  0
    1.6509   -0.4211   -0.9729 C   0  0  0  0  0  0  0  0  0  0  0  0
    1.8879    0.2977    0.2999 C   0  0  0  0  0  0  0  0  0  0  0  0
    1.4950   -0.6298    1.4206 O   0  0  0  0  0  0  0  0  0  0  0  0
    0.6736    0.3829    0.9460 C   0  0  0  0  0  0  0  0  0  0  0  0
   -1.7284    1.1019   -1.3329 H   0  0  0  0  0  0  0  0  0  0  0  0
   -1.7853    1.4700    0.4529 H   0  0  0  0  0  0  0  0  0  0  0  0
   -0.3949    2.0317   -0.5084 H   0  0  0  0  0  0  0  0  0  0  0  0
   -2.4328   -0.6856    0.3731 H   0  0  0  0  0  0  0  0  0  0  0  0
   -1.2858   -2.0225    0.1353 H   0  0  0  0  0  0  0  0  0  0  0  0
   -1.2385   -1.1029    1.6585 H   0  0  0  0  0  0  0  0  0  0  0  0
   -0.0870   -1.1324   -2.0453 H   0  0  0  0  0  0  0  0  0  0  0  0
    2.4868   -0.7251   -1.6269 H   0  0  0  0  0  0  0  0  0  0  0  0
    2.8716    0.7320    0.5161 H   0  0  0  0  0  0  0  0  0  0  0  0
    0.4314    1.1501    1.7120 H   0  0  0  0  0  0  0  0  0  0  0  0
  1  2  1  0
  2  3  1  0
  2  4  1  0
  4  5  2  0
  5  6  1  0
  6  7  1  0
  7  8  1  0
  8  2  1  0
  8  6  1  0
  1  9  1  0
  1 10  1  0
  1 11  1  0
  3 12  1  0
  3 13  1  0
  3 14  1  0
  4 15  1  0
  5 16  1  0
  6 17  1  0
  8 18  1  0
M  END
