
     RDKit          3D

 21 22  0  0  0  0  0  0  0  0999 V2000
   -1.0079   -0.7411   -1.1809 C   0  0  0  0  0  0  0  0  0  0  0  0
   -0.9500    0.1500    0.0098 C   0  0  0  0  0  0  0  0  0  0  0  0
   -2.3277    0.6234    0.5024 C   0  0  0  0  0  0  0  0  0  0  0  0
   -2.8055    1.4799   -0.5049 O   0  0  0  0  0  0  0  0  0  0  0  0
   -0.0222    1.2550   -0.1938 O   0  0  0  0  0  0  0  0  0  0  0  0
    0.1777    0.3734    0.8637 C   0  0  0  0  0  0  0  0  0  0  0  0
    1.3870   -0.4915    0.9071 C   0  0  0  0  0  0  0  0  0  0  0  0
    2.2914   -0.7394   -0.2018 C   0  0  0  0  0  0  0  0  0  0  0  0
    2.7113    0.2647    0.8291 C   0  0  0  0  0  0  0  0  0  0  0  0
   -1.5285   -1.6978   -0.9512 H   0  0  0  0  0  0  0  0  0  0  0  0
   -1.6750   -0.2344   -1.9393 H   0  0  0  0  0  0  0  0  0  0  0  0
   -0.0346   -0.9755   -1.6133 H   0  0  0  0  0  0  0  0  0  0  0  0
   -2.2462    1.1354    1.4728 H   0  0  0  0  0  0  0  0  0  0  0  0
   -2.9329   -0.2862    0.5967 H   0  0  0  0  0  0  0  0  0  0  0  0
   -3.5971    1.0381   -0.9159 H   0  0  0  0  0  0  0  0  0  0  0  0
   -0.0322    0.8617    1.8624 H   0  0  0  0  0  0  0  0  0  0  0  0
    1.3259   -1.2936    1.7051 H   0  0  0  0  0  0  0  0  0  0  0  0
    2.8869   -1.6993   -0.1752 H   0  0  0  0  0  0  0  0  0  0  0  0
    2.2233   -0.3442   -1.2148 H   0  0  0  0  0  0  0  0  0  0  0  0
    3.4528   -0.0077    1.6028 H   0  0  0  0  0  0  0  0  0  0  0  0
    2.7035    1.3292    0.5653 H   0  0  0  0  0  0  0  0  0  0  0  0
  1  2  1  0
  2  3  1  0
  3  4  1  0
  2  5  1  0
  5  6  1  0
  6  7  1  0
  7  8  1  0
  8  9  1  0
  6  2  1  0
  9  7  1  0
  1 10  1  0
  1 11  1  0
  1 12  1  0
  3 13  1  0
  3 14  1  0
  4 15  1  0
  6 16  1  0
  7 17  1  0
  8 18  1  0
  8 19  1  0
  9 20  1  0
  9 21  1  0
M  END
