
     RDKit          3D

 18 19  0  0  0  0  0  0  0  0999 V2000
   -1.7706   -0.6577   -0.3851 C   0  0  0  0  0  0  0  0  0  0  0  0
   -0.4936    0.0891   -0.4717 C   0  0  0  0  0  0  0  0  0  0  0  0
   -0.3806    0.8180   -1.6281 O   0  0  0  0  0  0  0  0  0  0  0  0
    0.7730   -0.6705   -0.1822 C   0  0  0  0  0  0  0  0  0  0  0  0
    1.7858    0.4577   -0.2928 C   0  0  0  0  0  0  0  0  0  0  0  0
    1.0716    1.4623    0.4126 O   0  0  0  0  0  0  0  0  0  0  0  0
   -0.0757    0.8310    0.8047 C   0  0  0  0  0  0  0  0  0  0  0  0
    0.4121   -0.5434    1.2821 C   0  0  0  0  0  0  0  0  0  0  0  0
   -1.6885   -1.5713   -1.0096 H   0  0  0  0  0  0  0  0  0  0  0  0
   -2.1027   -0.9037    0.6368 H   0  0  0  0  0  0  0  0  0  0  0  0
   -2.5693   -0.0411   -0.8501 H   0  0  0  0  0  0  0  0  0  0  0  0
   -0.7286    1.7429   -1.5733 H   0  0  0  0  0  0  0  0  0  0  0  0
    0.9657   -1.6049   -0.6109 H   0  0  0  0  0  0  0  0  0  0  0  0
    2.6875    0.2417    0.2938 H   0  0  0  0  0  0  0  0  0  0  0  0
    1.9587    0.7289   -1.3331 H   0  0  0  0  0  0  0  0  0  0  0  0
   -0.8259    1.3131    1.3659 H   0  0  0  0  0  0  0  0  0  0  0  0
    1.3400   -0.4892    1.8852 H   0  0  0  0  0  0  0  0  0  0  0  0
   -0.3588   -1.2030    1.6558 H   0  0  0  0  0  0  0  0  0  0  0  0
  1  2  1  0
  2  3  1  0
  2  4  1  0
  4  5  1  0
  5  6  1  0
  6  7  1  0
  7  8  1  0
  7  2  1  0
  8  4  1  0
  1  9  1  0
  1 10  1  0
  1 11  1  0
  3 12  1  0
  4 13  1  0
  5 14  1  0
  5 15  1  0
  7 16  1  0
  8 17  1  0
  8 18  1  0
M  END
