
     RDKit          3D

 19 19  0  0  0  0  0  0  0  0999 V2000
   -1.7299   -1.2077    0.0544 C   0  0  0  0  0  0  0  0  0  0  0  0
   -1.0454    0.0658   -0.3041 C   0  0  0  0  0  0  0  0  0  0  0  0
    0.3965    0.1095   -0.6825 C   0  0  0  0  0  0  0  0  0  0  0  0
    1.3198   -0.3897    0.3910 C   0  0  0  0  0  0  0  0  0  0  0  0
    1.2192    0.3508    1.5674 O   0  0  0  0  0  0  0  0  0  0  0  0
    2.7272   -0.2589   -0.0790 C   0  0  0  0  0  0  0  0  0  0  0  0
    3.5793    0.3822    0.4930 O   0  0  0  0  0  0  0  0  0  0  0  0
   -1.7803    1.3218   -0.0003 C   0  0  0  0  0  0  0  0  0  0  0  0
   -1.8035    0.8382   -1.3201 O   0  0  0  0  0  0  0  0  0  0  0  0
   -1.0574   -2.0242    0.3419 H   0  0  0  0  0  0  0  0  0  0  0  0
   -2.4630   -1.5354   -0.7346 H   0  0  0  0  0  0  0  0  0  0  0  0
   -2.3698   -0.9951    0.9486 H   0  0  0  0  0  0  0  0  0  0  0  0
    0.6343   -0.3907   -1.6404 H   0  0  0  0  0  0  0  0  0  0  0  0
    0.6512    1.1997   -0.8394 H   0  0  0  0  0  0  0  0  0  0  0  0
    1.1330   -1.4431    0.6422 H   0  0  0  0  0  0  0  0  0  0  0  0
    1.4384    1.2920    1.4550 H   0  0  0  0  0  0  0  0  0  0  0  0
    3.0195   -0.7714   -0.9994 H   0  0  0  0  0  0  0  0  0  0  0  0
   -1.1456    2.2162    0.1538 H   0  0  0  0  0  0  0  0  0  0  0  0
   -2.7236    1.2398    0.5525 H   0  0  0  0  0  0  0  0  0  0  0  0
  1  2  1  0
  2  3  1  0
  3  4  1  0
  4  5  1  0
  4  6  1  0
  6  7  2  0
  2  8  1  0
  8  9  1  0
  9  2  1  0
  1 10  1  0
  1 11  1  0
  1 12  1  0
  3 13  1  0
  3 14  1  0
  4 15  1  0
  5 16  1  0
  6 17  1  0
  8 18  1  0
  8 19  1  0
M  END
