
     RDKit          3D

 17 18  0  0  0  0  0  0  0  0999 V2000
   -0.8874    1.3038    0.4848 C   0  0  0  0  0  0  0  0  0  0  0  0
   -0.3205   -0.0778    0.2205 C   0  0  0  0  0  0  0  0  0  0  0  0
    1.1538   -0.2866    0.2948 C   0  0  0  0  0  0  0  0  0  0  0  0
    2.1328    0.3662   -0.4993 C   0  0  0  0  0  0  0  0  0  0  0  0
    1.8427    0.9054    0.8582 O   0  0  0  0  0  0  0  0  0  0  0  0
   -1.0307   -0.7898   -0.9502 C   0  0  0  0  0  0  0  0  0  0  0  0
   -1.1892   -1.2732    0.4288 C   0  0  0  0  0  0  0  0  0  0  0  0
   -0.3583    2.0023   -0.2078 H   0  0  0  0  0  0  0  0  0  0  0  0
   -1.9595    1.3214    0.2008 H   0  0  0  0  0  0  0  0  0  0  0  0
   -0.8013    1.6012    1.5372 H   0  0  0  0  0  0  0  0  0  0  0  0
    1.4513   -1.2139    0.8507 H   0  0  0  0  0  0  0  0  0  0  0  0
    1.9085    1.1062   -1.2933 H   0  0  0  0  0  0  0  0  0  0  0  0
    3.1688    0.0304   -0.4918 H   0  0  0  0  0  0  0  0  0  0  0  0
   -1.9080   -0.3048   -1.4050 H   0  0  0  0  0  0  0  0  0  0  0  0
   -0.3859   -1.3387   -1.6656 H   0  0  0  0  0  0  0  0  0  0  0  0
   -2.1318   -1.1123    0.9760 H   0  0  0  0  0  0  0  0  0  0  0  0
   -0.6853   -2.2399    0.6611 H   0  0  0  0  0  0  0  0  0  0  0  0
  1  2  1  0
  2  3  1  0
  3  4  1  0
  4  5  1  0
  2  6  1  0
  6  7  1  0
  7  2  1  0
  5  3  1  0
  1  8  1  0
  1  9  1  0
  1 10  1  0
  3 11  1  0
  4 12  1  0
  4 13  1  0
  6 14  1  0
  6 15  1  0
  7 16  1  0
  7 17  1  0
M  END
