
     RDKit          3D

 20 20  0  0  0  0  0  0  0  0999 V2000
   -2.1438   -0.1458   -0.2996 C   0  0  0  0  0  0  0  0  0  0  0  0
   -0.7687   -0.1109    0.2860 C   0  0  0  0  0  0  0  0  0  0  0  0
   -0.7270   -0.2561    1.6524 O   0  0  0  0  0  0  0  0  0  0  0  0
   -0.1903    1.2808   -0.0138 C   0  0  0  0  0  0  0  0  0  0  0  0
    1.2877    0.9675    0.2589 C   0  0  0  0  0  0  0  0  0  0  0  0
    1.4660   -0.2461   -0.6438 C   0  0  0  0  0  0  0  0  0  0  0  0
    2.6088   -0.9444   -0.4010 O   0  0  0  0  0  0  0  0  0  0  0  0
    0.1956   -1.0546   -0.3707 C   0  0  0  0  0  0  0  0  0  0  0  0
   -2.0660    0.1538   -1.3690 H   0  0  0  0  0  0  0  0  0  0  0  0
   -2.6660   -1.1019   -0.1511 H   0  0  0  0  0  0  0  0  0  0  0  0
   -2.7241    0.6758    0.1911 H   0  0  0  0  0  0  0  0  0  0  0  0
   -1.1406   -1.0581    2.0038 H   0  0  0  0  0  0  0  0  0  0  0  0
   -0.3597    1.5770   -1.0565 H   0  0  0  0  0  0  0  0  0  0  0  0
   -0.5962    1.9951    0.7208 H   0  0  0  0  0  0  0  0  0  0  0  0
    1.3287    0.6356    1.3186 H   0  0  0  0  0  0  0  0  0  0  0  0
    1.9431    1.7942    0.0107 H   0  0  0  0  0  0  0  0  0  0  0  0
    1.3993    0.1026   -1.6855 H   0  0  0  0  0  0  0  0  0  0  0  0
    2.9309   -0.8606    0.5309 H   0  0  0  0  0  0  0  0  0  0  0  0
    0.4168   -1.9078    0.3316 H   0  0  0  0  0  0  0  0  0  0  0  0
   -0.1945   -1.4963   -1.3139 H   0  0  0  0  0  0  0  0  0  0  0  0
  1  2  1  0
  2  3  1  0
  2  4  1  0
  4  5  1  0
  5  6  1  0
  6  7  1  0
  6  8  1  0
  8  2  1  0
  1  9  1  0
  1 10  1  0
  1 11  1  0
  3 12  1  0
  4 13  1  0
  4 14  1  0
  5 15  1  0
  5 16  1  0
  6 17  1  0
  7 18  1  0
  8 19  1  0
  8 20  1  0
M  END
