
     RDKit          3D

 20 21  0  0  0  0  0  0  0  0999 V2000
   -1.2471    1.2943    0.0841 C   0  0  0  0  0  0  0  0  0  0  0  0
   -0.5024   -0.0014    0.2424 C   0  0  0  0  0  0  0  0  0  0  0  0
   -1.4956   -1.1427    0.3841 C   0  0  0  0  0  0  0  0  0  0  0  0
    0.5711   -0.0401    1.2715 C   0  0  0  0  0  0  0  0  0  0  0  0
    1.5941   -0.1223    0.1651 C   0  0  0  0  0  0  0  0  0  0  0  0
    1.5492    0.8782   -0.9594 C   0  0  0  0  0  0  0  0  0  0  0  0
    0.5265   -0.1719   -0.8262 C   0  0  0  0  0  0  0  0  0  0  0  0
    0.3839   -1.1389   -1.7810 O   0  0  0  0  0  0  0  0  0  0  0  0
   -0.5843    2.1506   -0.0933 H   0  0  0  0  0  0  0  0  0  0  0  0
   -1.9358    1.4394    0.9530 H   0  0  0  0  0  0  0  0  0  0  0  0
   -1.9310    1.1603   -0.7991 H   0  0  0  0  0  0  0  0  0  0  0  0
   -1.0303   -2.0804    0.7057 H   0  0  0  0  0  0  0  0  0  0  0  0
   -2.2665   -0.7766    1.1177 H   0  0  0  0  0  0  0  0  0  0  0  0
   -2.0115   -1.2220   -0.6001 H   0  0  0  0  0  0  0  0  0  0  0  0
    0.6088   -0.9960    1.8607 H   0  0  0  0  0  0  0  0  0  0  0  0
    0.6945    0.8282    1.9256 H   0  0  0  0  0  0  0  0  0  0  0  0
    2.4358   -0.8182    0.2283 H   0  0  0  0  0  0  0  0  0  0  0  0
    2.3918    0.8028   -1.6614 H   0  0  0  0  0  0  0  0  0  0  0  0
    1.3792    1.9260   -0.6099 H   0  0  0  0  0  0  0  0  0  0  0  0
    0.8696   -1.9693   -1.6077 H   0  0  0  0  0  0  0  0  0  0  0  0
  1  2  1  0
  2  3  1  0
  2  4  1  0
  4  5  1  0
  5  6  1  0
  6  7  1  0
  7  8  1  0
  7  2  1  0
  7  5  1  0
  1  9  1  0
  1 10  1  0
  1 11  1  0
  3 12  1  0
  3 13  1  0
  3 14  1  0
  4 15  1  0
  4 16  1  0
  5 17  1  0
  6 18  1  0
  6 19  1  0
  8 20  1  0
M  END
