
     RDKit          3D

 17 17  0  0  0  0  0  0  0  0999 V2000
   -0.2602    1.5699   -0.0696 C   0  0  0  0  0  0  0  0  0  0  0  0
   -0.2778    0.0960    0.1187 C   0  0  0  0  0  0  0  0  0  0  0  0
   -1.6557   -0.4325    0.3417 C   0  0  0  0  0  0  0  0  0  0  0  0
    0.3163   -0.6757   -1.0389 C   0  0  0  0  0  0  0  0  0  0  0  0
    1.6704   -0.5477   -0.8099 O   0  0  0  0  0  0  0  0  0  0  0  0
    1.8129   -0.5650    0.5652 C   0  0  0  0  0  0  0  0  0  0  0  0
    0.6158   -0.2279    1.1375 O   0  0  0  0  0  0  0  0  0  0  0  0
   -1.0039    2.0076    0.6590 H   0  0  0  0  0  0  0  0  0  0  0  0
   -0.5203    1.9077   -1.0937 H   0  0  0  0  0  0  0  0  0  0  0  0
    0.7186    2.0415    0.2339 H   0  0  0  0  0  0  0  0  0  0  0  0
   -1.8768   -1.3484   -0.2676 H   0  0  0  0  0  0  0  0  0  0  0  0
   -2.3708    0.3410   -0.0621 H   0  0  0  0  0  0  0  0  0  0  0  0
   -1.9016   -0.6786    1.3762 H   0  0  0  0  0  0  0  0  0  0  0  0
   -0.0275   -0.3570   -2.0145 H   0  0  0  0  0  0  0  0  0  0  0  0
    0.0591   -1.7523   -0.8374 H   0  0  0  0  0  0  0  0  0  0  0  0
    2.1156   -1.5830    0.9383 H   0  0  0  0  0  0  0  0  0  0  0  0
    2.5858    0.2044    0.8232 H   0  0  0  0  0  0  0  0  0  0  0  0
  1  2  1  0
  2  3  1  0
  2  4  1  0
  4  5  1  0
  5  6  1  0
  6  7  1  0
  7  2  1  0
  1  8  1  0
  1  9  1  0
  1 10  1  0
  3 11  1  0
  3 12  1  0
  3 13  1  0
  4 14  1  0
  4 15  1  0
  6 16  1  0
  6 17  1  0
M  END
