
     RDKit          3D

 20 21  0  0  0  0  0  0  0  0999 V2000
   -1.5121   -1.0235    0.7121 C   0  0  0  0  0  0  0  0  0  0  0  0
   -0.7118    0.0162   -0.0232 C   0  0  0  0  0  0  0  0  0  0  0  0
   -1.5779    0.8480   -0.9046 C   0  0  0  0  0  0  0  0  0  0  0  0
    0.3873   -0.6374   -0.8759 C   0  0  0  0  0  0  0  0  0  0  0  0
    1.4667   -0.5416    0.1412 C   0  0  0  0  0  0  0  0  0  0  0  0
    2.4390    0.4050    0.4651 C   0  0  0  0  0  0  0  0  0  0  0  0
    1.1658    0.9971    0.3737 C   0  0  0  0  0  0  0  0  0  0  0  0
   -0.0398    0.7819    0.9531 O   0  0  0  0  0  0  0  0  0  0  0  0
   -0.8993   -1.5458    1.4697 H   0  0  0  0  0  0  0  0  0  0  0  0
   -1.9598   -1.7426   -0.0007 H   0  0  0  0  0  0  0  0  0  0  0  0
   -2.3366   -0.5037    1.2204 H   0  0  0  0  0  0  0  0  0  0  0  0
   -0.9697    1.4290   -1.6270 H   0  0  0  0  0  0  0  0  0  0  0  0
   -2.1996    0.1559   -1.5082 H   0  0  0  0  0  0  0  0  0  0  0  0
   -2.2502    1.5086   -0.3634 H   0  0  0  0  0  0  0  0  0  0  0  0
    0.5655    0.0640   -1.7062 H   0  0  0  0  0  0  0  0  0  0  0  0
    0.1273   -1.6453   -1.1786 H   0  0  0  0  0  0  0  0  0  0  0  0
    1.1456   -1.2189    0.9995 H   0  0  0  0  0  0  0  0  0  0  0  0
    2.9290    0.3777    1.4841 H   0  0  0  0  0  0  0  0  0  0  0  0
    3.2320    0.6637   -0.2851 H   0  0  0  0  0  0  0  0  0  0  0  0
    0.9984    1.6118   -0.5652 H   0  0  0  0  0  0  0  0  0  0  0  0
  1  2  1  0
  2  3  1  0
  2  4  1  0
  4  5  1  0
  5  6  1  0
  6  7  1  0
  7  8  1  0
  8  2  1  0
  7  5  1  0
  1  9  1  0
  1 10  1  0
  1 11  1  0
  3 12  1  0
  3 13  1  0
  3 14  1  0
  4 15  1  0
  4 16  1  0
  5 17  1  0
  6 18  1  0
  6 19  1  0
  7 20  1  0
M  END
