
     RDKit          3D

 21 22  0  0  0  0  0  0  0  0999 V2000
   -1.3366    1.0477   -0.6886 C   0  0  0  0  0  0  0  0  0  0  0  0
   -0.6517   -0.0533    0.0831 C   0  0  0  0  0  0  0  0  0  0  0  0
   -1.7029   -1.0808    0.4467 C   0  0  0  0  0  0  0  0  0  0  0  0
   -0.0291    0.5661    1.2820 C   0  0  0  0  0  0  0  0  0  0  0  0
    1.2930    0.6601    1.2874 C   0  0  0  0  0  0  0  0  0  0  0  0
    2.0012   -0.2413    0.3056 C   0  0  0  0  0  0  0  0  0  0  0  0
    1.5633    0.1234   -1.0747 C   0  0  0  0  0  0  0  0  0  0  0  0
    0.4001   -0.7613   -0.7350 C   0  0  0  0  0  0  0  0  0  0  0  0
    1.2418   -1.4261    0.1741 O   0  0  0  0  0  0  0  0  0  0  0  0
   -1.6053    0.7662   -1.7121 H   0  0  0  0  0  0  0  0  0  0  0  0
   -2.3051    1.2461   -0.1497 H   0  0  0  0  0  0  0  0  0  0  0  0
   -0.7737    2.0090   -0.6392 H   0  0  0  0  0  0  0  0  0  0  0  0
   -1.3018   -2.1213    0.3335 H   0  0  0  0  0  0  0  0  0  0  0  0
   -2.0351   -0.9584    1.4996 H   0  0  0  0  0  0  0  0  0  0  0  0
   -2.5568   -1.0130   -0.2632 H   0  0  0  0  0  0  0  0  0  0  0  0
   -0.6606    0.8993    2.0661 H   0  0  0  0  0  0  0  0  0  0  0  0
    1.8515    1.3179    1.9291 H   0  0  0  0  0  0  0  0  0  0  0  0
    3.0627   -0.3845    0.4916 H   0  0  0  0  0  0  0  0  0  0  0  0
    1.3356    1.1715   -1.2787 H   0  0  0  0  0  0  0  0  0  0  0  0
    2.2137   -0.3898   -1.8233 H   0  0  0  0  0  0  0  0  0  0  0  0
   -0.0041   -1.3775   -1.5342 H   0  0  0  0  0  0  0  0  0  0  0  0
  1  2  1  0
  2  3  1  0
  2  4  1  0
  4  5  2  0
  5  6  1  0
  6  7  1  0
  7  8  1  0
  8  9  1  0
  8  2  1  0
  9  6  1  0
  1 10  1  0
  1 11  1  0
  1 12  1  0
  3 13  1  0
  3 14  1  0
  3 15  1  0
  4 16  1  0
  5 17  1  0
  6 18  1  0
  7 19  1  0
  7 20  1  0
  8 21  1  0
M  END
