
     RDKit          3D

 21 22  0  0  0  0  0  0  0  0999 V2000
    2.1481   -0.3341    0.6897 C   0  0  0  0  0  0  0  0  0  0  0  0
    1.2211    0.3729   -0.2468 C   0  0  0  0  0  0  0  0  0  0  0  0
    1.8474    1.0580   -1.2792 O   0  0  0  0  0  0  0  0  0  0  0  0
    0.2251    1.2114    0.5525 C   0  0  0  0  0  0  0  0  0  0  0  0
   -0.8662    0.2934    0.1448 C   0  0  0  0  0  0  0  0  0  0  0  0
   -2.2096    0.7771   -0.2604 C   0  0  0  0  0  0  0  0  0  0  0  0
   -0.7011   -1.1942    0.2431 C   0  0  0  0  0  0  0  0  0  0  0  0
   -1.7365   -1.9739   -0.2294 O   0  0  0  0  0  0  0  0  0  0  0  0
    0.0519   -0.4211   -0.7591 C   0  0  0  0  0  0  0  0  0  0  0  0
    1.7393   -1.2267    1.1641 H   0  0  0  0  0  0  0  0  0  0  0  0
    2.4291    0.3674    1.5149 H   0  0  0  0  0  0  0  0  0  0  0  0
    3.0941   -0.6272    0.1721 H   0  0  0  0  0  0  0  0  0  0  0  0
    1.9763    0.4185   -2.0183 H   0  0  0  0  0  0  0  0  0  0  0  0
    0.3869    1.2114    1.6379 H   0  0  0  0  0  0  0  0  0  0  0  0
    0.1485    2.2236    0.0759 H   0  0  0  0  0  0  0  0  0  0  0  0
   -2.9494    0.3870    0.4980 H   0  0  0  0  0  0  0  0  0  0  0  0
   -2.5038    0.5365   -1.2872 H   0  0  0  0  0  0  0  0  0  0  0  0
   -2.2245    1.8954   -0.1053 H   0  0  0  0  0  0  0  0  0  0  0  0
   -0.2774   -1.5330    1.1977 H   0  0  0  0  0  0  0  0  0  0  0  0
   -1.6527   -2.9113    0.1184 H   0  0  0  0  0  0  0  0  0  0  0  0
   -0.1469   -0.5311   -1.8236 H   0  0  0  0  0  0  0  0  0  0  0  0
  1  2  1  0
  2  3  1  0
  2  4  1  0
  4  5  1  0
  5  6  1  0
  5  7  1  0
  7  8  1  0
  7  9  1  0
  9  2  1  0
  9  5  1  0
  1 10  1  0
  1 11  1  0
  1 12  1  0
  3 13  1  0
  4 14  1  0
  4 15  1  0
  6 16  1  0
  6 17  1  0
  6 18  1  0
  7 19  1  0
  8 20  1  0
  9 21  1  0
M  END
