
     RDKit          3D

 23 24  0  0  0  0  0  0  0  0999 V2000
    1.0919    1.4174    0.1333 C   0  0  0  0  0  0  0  0  0  0  0  0
    0.9188   -0.0431   -0.0191 C   0  0  0  0  0  0  0  0  0  0  0  0
    2.2287   -0.8124   -0.1813 C   0  0  0  0  0  0  0  0  0  0  0  0
   -0.0789   -0.5121   -1.0437 C   0  0  0  0  0  0  0  0  0  0  0  0
   -1.2782    0.3916   -1.1273 C   0  0  0  0  0  0  0  0  0  0  0  0
   -2.1887    0.0112    0.0469 C   0  0  0  0  0  0  0  0  0  0  0  0
   -1.2493   -0.0631    1.2539 C   0  0  0  0  0  0  0  0  0  0  0  0
    0.0032   -0.7669    0.8837 C   0  0  0  0  0  0  0  0  0  0  0  0
   -0.3185   -1.6204   -0.1976 O   0  0  0  0  0  0  0  0  0  0  0  0
    2.1720    1.6131    0.4019 H   0  0  0  0  0  0  0  0  0  0  0  0
    0.4786    1.8708    0.9127 H   0  0  0  0  0  0  0  0  0  0  0  0
    0.9704    1.9451   -0.8574 H   0  0  0  0  0  0  0  0  0  0  0  0
    2.1182   -1.6629   -0.8853 H   0  0  0  0  0  0  0  0  0  0  0  0
    2.5376   -1.2793    0.7935 H   0  0  0  0  0  0  0  0  0  0  0  0
    3.0585   -0.1516   -0.4713 H   0  0  0  0  0  0  0  0  0  0  0  0
    0.3171   -0.8827   -1.9916 H   0  0  0  0  0  0  0  0  0  0  0  0
   -1.8002    0.3641   -2.0839 H   0  0  0  0  0  0  0  0  0  0  0  0
   -1.0124    1.4702   -0.9370 H   0  0  0  0  0  0  0  0  0  0  0  0
   -2.9315    0.8037    0.1415 H   0  0  0  0  0  0  0  0  0  0  0  0
   -2.6148   -0.9668   -0.2062 H   0  0  0  0  0  0  0  0  0  0  0  0
   -1.7915   -0.7057    1.9966 H   0  0  0  0  0  0  0  0  0  0  0  0
   -1.1325    0.9154    1.7204 H   0  0  0  0  0  0  0  0  0  0  0  0
    0.5018   -1.3355    1.7172 H   0  0  0  0  0  0  0  0  0  0  0  0
  1  2  1  0
  2  3  1  0
  2  4  1  0
  4  5  1  0
  5  6  1  0
  6  7  1  0
  7  8  1  0
  8  9  1  0
  8  2  1  0
  9  4  1  0
  1 10  1  0
  1 11  1  0
  1 12  1  0
  3 13  1  0
  3 14  1  0
  3 15  1  0
  4 16  1  0
  5 17  1  0
  5 18  1  0
  6 19  1  0
  6 20  1  0
  7 21  1  0
  7 22  1  0
  8 23  1  0
M  END
