
     RDKit          3D

 21 22  0  0  0  0  0  0  0  0999 V2000
    2.2185   -0.1013   -0.3965 C   0  0  0  0  0  0  0  0  0  0  0  0
    0.8018   -0.2605    0.0425 C   0  0  0  0  0  0  0  0  0  0  0  0
    0.6204   -1.4818    0.7170 O   0  0  0  0  0  0  0  0  0  0  0  0
    0.2074    0.8912    0.8116 C   0  0  0  0  0  0  0  0  0  0  0  0
   -0.9509    0.3321    1.5568 C   0  0  0  0  0  0  0  0  0  0  0  0
   -1.7582   -0.4544    0.8584 C   0  0  0  0  0  0  0  0  0  0  0  0
   -1.4938   -0.7516   -0.5990 C   0  0  0  0  0  0  0  0  0  0  0  0
   -0.2517    0.0155   -1.0113 C   0  0  0  0  0  0  0  0  0  0  0  0
   -0.3909    1.4158   -0.5001 C   0  0  0  0  0  0  0  0  0  0  0  0
    2.6157    0.8839   -0.1227 H   0  0  0  0  0  0  0  0  0  0  0  0
    2.2317   -0.1717   -1.5148 H   0  0  0  0  0  0  0  0  0  0  0  0
    2.8801   -0.8931    0.0529 H   0  0  0  0  0  0  0  0  0  0  0  0
    0.9760   -2.2098    0.1693 H   0  0  0  0  0  0  0  0  0  0  0  0
    0.8726    1.5580    1.3315 H   0  0  0  0  0  0  0  0  0  0  0  0
   -1.0699    0.5872    2.5926 H   0  0  0  0  0  0  0  0  0  0  0  0
   -2.6282   -0.9103    1.2963 H   0  0  0  0  0  0  0  0  0  0  0  0
   -1.2654   -1.8256   -0.6733 H   0  0  0  0  0  0  0  0  0  0  0  0
   -2.3899   -0.4449   -1.1821 H   0  0  0  0  0  0  0  0  0  0  0  0
    0.0644   -0.1133   -2.0445 H   0  0  0  0  0  0  0  0  0  0  0  0
   -1.4635    1.7335   -0.3956 H   0  0  0  0  0  0  0  0  0  0  0  0
    0.1738    2.2011   -0.9890 H   0  0  0  0  0  0  0  0  0  0  0  0
  1  2  1  0
  2  3  1  0
  2  4  1  0
  4  5  1  0
  5  6  2  0
  6  7  1  0
  7  8  1  0
  8  9  1  0
  8  2  1  0
  9  4  1  0
  1 10  1  0
  1 11  1  0
  1 12  1  0
  3 13  1  0
  4 14  1  0
  5 15  1  0
  6 16  1  0
  7 17  1  0
  7 18  1  0
  8 19  1  0
  9 20  1  0
  9 21  1  0
M  END
