
     RDKit          3D

 21 22  0  0  0  0  0  0  0  0999 V2000
   -1.3267   -0.3698    1.3395 C   0  0  0  0  0  0  0  0  0  0  0  0
   -1.1354   -0.0452   -0.1307 C   0  0  0  0  0  0  0  0  0  0  0  0
    0.2723    0.1134   -0.5424 C   0  0  0  0  0  0  0  0  0  0  0  0
    0.5260    0.3751   -1.7047 O   0  0  0  0  0  0  0  0  0  0  0  0
    1.3852   -0.0358    0.4147 C   0  0  0  0  0  0  0  0  0  0  0  0
    2.6947   -0.5872   -0.0203 C   0  0  0  0  0  0  0  0  0  0  0  0
    2.5889    0.8641    0.2759 C   0  0  0  0  0  0  0  0  0  0  0  0
   -2.0679   -0.6130   -1.1388 C   0  0  0  0  0  0  0  0  0  0  0  0
   -2.2086    0.7924   -0.7197 C   0  0  0  0  0  0  0  0  0  0  0  0
   -0.7567   -1.3044    1.5281 H   0  0  0  0  0  0  0  0  0  0  0  0
   -2.3814   -0.5137    1.5951 H   0  0  0  0  0  0  0  0  0  0  0  0
   -0.8940    0.4914    1.9091 H   0  0  0  0  0  0  0  0  0  0  0  0
    1.1226   -0.2767    1.4791 H   0  0  0  0  0  0  0  0  0  0  0  0
    2.8505   -0.9412   -1.0676 H   0  0  0  0  0  0  0  0  0  0  0  0
    3.3054   -1.1799    0.7008 H   0  0  0  0  0  0  0  0  0  0  0  0
    3.0533    1.2886    1.1907 H   0  0  0  0  0  0  0  0  0  0  0  0
    2.5708    1.5518   -0.5924 H   0  0  0  0  0  0  0  0  0  0  0  0
   -2.8593   -1.3368   -0.7847 H   0  0  0  0  0  0  0  0  0  0  0  0
   -1.6381   -0.8757   -2.1323 H   0  0  0  0  0  0  0  0  0  0  0  0
   -2.0032    1.5540   -1.4956 H   0  0  0  0  0  0  0  0  0  0  0  0
   -3.0985    1.0488   -0.1038 H   0  0  0  0  0  0  0  0  0  0  0  0
  1  2  1  0
  2  3  1  0
  3  4  2  0
  3  5  1  0
  5  6  1  0
  6  7  1  0
  2  8  1  0
  8  9  1  0
  9  2  1  0
  7  5  1  0
  1 10  1  0
  1 11  1  0
  1 12  1  0
  5 13  1  0
  6 14  1  0
  6 15  1  0
  7 16  1  0
  7 17  1  0
  8 18  1  0
  8 19  1  0
  9 20  1  0
  9 21  1  0
M  END
