
     RDKit          3D

 21 22  0  0  0  0  0  0  0  0999 V2000
   -1.5273    1.1182    0.0559 C   0  0  0  0  0  0  0  0  0  0  0  0
   -0.6252   -0.1066   -0.0818 C   0  0  0  0  0  0  0  0  0  0  0  0
   -1.5342   -1.2819   -0.4498 C   0  0  0  0  0  0  0  0  0  0  0  0
   -0.0796   -0.3916    1.2576 C   0  0  0  0  0  0  0  0  0  0  0  0
    1.1648   -0.1854    1.5894 C   0  0  0  0  0  0  0  0  0  0  0  0
    2.1185    0.3562    0.6236 C   0  0  0  0  0  0  0  0  0  0  0  0
    2.6311   -0.5873   -0.2887 O   0  0  0  0  0  0  0  0  0  0  0  0
    1.7463    0.4613   -0.7151 C   0  0  0  0  0  0  0  0  0  0  0  0
    0.3844    0.0524   -1.1589 C   0  0  0  0  0  0  0  0  0  0  0  0
   -2.4561    1.0104   -0.5464 H   0  0  0  0  0  0  0  0  0  0  0  0
   -1.0004    2.0065   -0.3051 H   0  0  0  0  0  0  0  0  0  0  0  0
   -1.8464    1.2438    1.1129 H   0  0  0  0  0  0  0  0  0  0  0  0
   -2.5696   -1.1173   -0.0964 H   0  0  0  0  0  0  0  0  0  0  0  0
   -1.1614   -2.2145   -0.0251 H   0  0  0  0  0  0  0  0  0  0  0  0
   -1.5651   -1.3576   -1.5712 H   0  0  0  0  0  0  0  0  0  0  0  0
   -0.7648   -0.7962    2.0009 H   0  0  0  0  0  0  0  0  0  0  0  0
    1.5040   -0.4154    2.5902 H   0  0  0  0  0  0  0  0  0  0  0  0
    2.8553    1.0787    1.0756 H   0  0  0  0  0  0  0  0  0  0  0  0
    2.3010    1.1491   -1.3978 H   0  0  0  0  0  0  0  0  0  0  0  0
   -0.0010    0.8481   -1.8614 H   0  0  0  0  0  0  0  0  0  0  0  0
    0.4257   -0.8708   -1.8084 H   0  0  0  0  0  0  0  0  0  0  0  0
  1  2  1  0
  2  3  1  0
  2  4  1  0
  4  5  2  0
  5  6  1  0
  6  7  1  0
  7  8  1  0
  8  9  1  0
  9  2  1  0
  8  6  1  0
  1 10  1  0
  1 11  1  0
  1 12  1  0
  3 13  1  0
  3 14  1  0
  3 15  1  0
  4 16  1  0
  5 17  1  0
  6 18  1  0
  8 19  1  0
  9 20  1  0
  9 21  1  0
M  END
