
     RDKit          3D

 17 17  0  0  0  0  0  0  0  0999 V2000
    1.7330   -0.6928    0.3365 C   0  0  0  0  0  0  0  0  0  0  0  0
    0.6348    0.1217   -0.3220 C   0  0  0  0  0  0  0  0  0  0  0  0
    1.2165    0.9907   -1.2257 O   0  0  0  0  0  0  0  0  0  0  0  0
   -0.2030    0.7838    0.7162 C   0  0  0  0  0  0  0  0  0  0  0  0
   -1.6233    0.3161    0.5438 C   0  0  0  0  0  0  0  0  0  0  0  0
   -1.6190   -0.6222   -0.6011 C   0  0  0  0  0  0  0  0  0  0  0  0
   -2.6313   -1.1737   -1.0656 O   0  0  0  0  0  0  0  0  0  0  0  0
   -0.2552   -0.7874   -1.0829 C   0  0  0  0  0  0  0  0  0  0  0  0
    0.1472   -1.5567   -1.9869 O   0  0  0  0  0  0  0  0  0  0  0  0
    2.6705   -0.6728   -0.2379 H   0  0  0  0  0  0  0  0  0  0  0  0
    1.3236   -1.6893    0.5254 H   0  0  0  0  0  0  0  0  0  0  0  0
    1.9587   -0.1864    1.3101 H   0  0  0  0  0  0  0  0  0  0  0  0
    0.9642    1.9361   -1.0946 H   0  0  0  0  0  0  0  0  0  0  0  0
    0.1227    0.4472    1.7387 H   0  0  0  0  0  0  0  0  0  0  0  0
   -0.1098    1.8941    0.7022 H   0  0  0  0  0  0  0  0  0  0  0  0
   -2.3237    1.1279    0.3171 H   0  0  0  0  0  0  0  0  0  0  0  0
   -2.0059   -0.2363    1.4266 H   0  0  0  0  0  0  0  0  0  0  0  0
  1  2  1  0
  2  3  1  0
  2  4  1  0
  4  5  1  0
  5  6  1  0
  6  7  2  0
  6  8  1  0
  8  9  2  0
  8  2  1  0
  1 10  1  0
  1 11  1  0
  1 12  1  0
  3 13  1  0
  4 14  1  0
  4 15  1  0
  5 16  1  0
  5 17  1  0
M  END
