
     RDKit          3D

 17 17  0  0  0  0  0  0  0  0999 V2000
   -1.5487    0.1722    0.7336 C   0  0  0  0  0  0  0  0  0  0  0  0
   -0.3707   -0.1063   -0.1592 C   0  0  0  0  0  0  0  0  0  0  0  0
   -0.0723    1.0550   -1.0638 C   0  0  0  0  0  0  0  0  0  0  0  0
   -0.3927   -1.4256   -0.8132 C   0  0  0  0  0  0  0  0  0  0  0  0
   -1.2433   -2.1170   -1.4188 O   0  0  0  0  0  0  0  0  0  0  0  0
    0.9391   -1.6321   -0.4971 O   0  0  0  0  0  0  0  0  0  0  0  0
    0.8145   -0.7106    0.5396 C   0  0  0  0  0  0  0  0  0  0  0  0
    1.9848    0.1457    0.7089 C   0  0  0  0  0  0  0  0  0  0  0  0
    2.9377   -0.0071   -0.0387 O   0  0  0  0  0  0  0  0  0  0  0  0
   -1.3652    1.1519    1.2331 H   0  0  0  0  0  0  0  0  0  0  0  0
   -2.4797    0.2372    0.1556 H   0  0  0  0  0  0  0  0  0  0  0  0
   -1.6350   -0.6147    1.5379 H   0  0  0  0  0  0  0  0  0  0  0  0
    0.2112    1.9263   -0.4498 H   0  0  0  0  0  0  0  0  0  0  0  0
   -1.0253    1.3056   -1.5954 H   0  0  0  0  0  0  0  0  0  0  0  0
    0.6597    0.8206   -1.8546 H   0  0  0  0  0  0  0  0  0  0  0  0
    0.4930   -1.1265    1.5273 H   0  0  0  0  0  0  0  0  0  0  0  0
    2.0927    0.9255    1.4546 H   0  0  0  0  0  0  0  0  0  0  0  0
  1  2  1  0
  2  3  1  0
  2  4  1  0
  4  5  2  0
  4  6  1  0
  6  7  1  0
  7  8  1  0
  8  9  2  0
  7  2  1  0
  1 10  1  0
  1 11  1  0
  1 12  1  0
  3 13  1  0
  3 14  1  0
  3 15  1  0
  7 16  1  0
  8 17  1  0
M  END
