
     RDKit          3D

 19 19  0  0  0  0  0  0  0  0999 V2000
   -0.7474    1.3322    0.7414 C   0  0  0  0  0  0  0  0  0  0  0  0
   -0.5018   -0.0550    0.1821 C   0  0  0  0  0  0  0  0  0  0  0  0
    0.5104   -0.7672    0.6856 O   0  0  0  0  0  0  0  0  0  0  0  0
    1.7859   -0.3338    0.6644 C   0  0  0  0  0  0  0  0  0  0  0  0
    2.3794   -0.1264   -0.6581 C   0  0  0  0  0  0  0  0  0  0  0  0
    1.7745   -0.3689   -1.6613 O   0  0  0  0  0  0  0  0  0  0  0  0
   -1.8078   -0.9008    0.2609 C   0  0  0  0  0  0  0  0  0  0  0  0
   -2.2747   -0.0927   -0.7724 O   0  0  0  0  0  0  0  0  0  0  0  0
   -0.9308   -0.1531   -1.2418 C   0  0  0  0  0  0  0  0  0  0  0  0
   -0.1415    2.0915    0.1882 H   0  0  0  0  0  0  0  0  0  0  0  0
   -0.6429    1.3911    1.8277 H   0  0  0  0  0  0  0  0  0  0  0  0
   -1.8077    1.5648    0.5038 H   0  0  0  0  0  0  0  0  0  0  0  0
    1.9902    0.5261    1.3540 H   0  0  0  0  0  0  0  0  0  0  0  0
    2.4086   -1.1630    1.1396 H   0  0  0  0  0  0  0  0  0  0  0  0
    3.4039    0.2611   -0.7183 H   0  0  0  0  0  0  0  0  0  0  0  0
   -1.5638   -1.8960   -0.1250 H   0  0  0  0  0  0  0  0  0  0  0  0
   -2.3145   -0.8183    1.2196 H   0  0  0  0  0  0  0  0  0  0  0  0
   -0.6926    0.6886   -1.9225 H   0  0  0  0  0  0  0  0  0  0  0  0
   -0.8275   -1.1800   -1.6681 H   0  0  0  0  0  0  0  0  0  0  0  0
  1  2  1  0
  2  3  1  0
  3  4  1  0
  4  5  1  0
  5  6  2  0
  2  7  1  0
  7  8  1  0
  8  9  1  0
  9  2  1  0
  1 10  1  0
  1 11  1  0
  1 12  1  0
  4 13  1  0
  4 14  1  0
  5 15  1  0
  7 16  1  0
  7 17  1  0
  9 18  1  0
  9 19  1  0
M  END
