
     RDKit          3D

 19 20  0  0  0  0  0  0  0  0999 V2000
   -0.9870    1.4253   -0.4852 C   0  0  0  0  0  0  0  0  0  0  0  0
   -0.7025   -0.0084   -0.1513 C   0  0  0  0  0  0  0  0  0  0  0  0
   -1.5689   -0.6337    0.8952 C   0  0  0  0  0  0  0  0  0  0  0  0
   -0.2379   -0.9374   -1.2950 C   0  0  0  0  0  0  0  0  0  0  0  0
    0.6690   -0.4948   -0.2781 C   0  0  0  0  0  0  0  0  0  0  0  0
    1.3038   -1.2747    0.6557 O   0  0  0  0  0  0  0  0  0  0  0  0
    2.0560   -0.1186    0.9780 C   0  0  0  0  0  0  0  0  0  0  0  0
    1.8446    0.3248   -0.4128 C   0  0  0  0  0  0  0  0  0  0  0  0
    2.3921    1.0165   -1.2179 O   0  0  0  0  0  0  0  0  0  0  0  0
   -0.4230    1.8063   -1.3398 H   0  0  0  0  0  0  0  0  0  0  0  0
   -2.0833    1.5875   -0.6581 H   0  0  0  0  0  0  0  0  0  0  0  0
   -0.6918    2.0317    0.4135 H   0  0  0  0  0  0  0  0  0  0  0  0
   -1.9617   -1.5980    0.4959 H   0  0  0  0  0  0  0  0  0  0  0  0
   -2.4133    0.0143    1.1324 H   0  0  0  0  0  0  0  0  0  0  0  0
   -0.9241   -0.8006    1.7980 H   0  0  0  0  0  0  0  0  0  0  0  0
   -0.6273   -1.9894   -1.2515 H   0  0  0  0  0  0  0  0  0  0  0  0
   -0.1816   -0.4810   -2.3075 H   0  0  0  0  0  0  0  0  0  0  0  0
    1.4480    0.4455    1.7453 H   0  0  0  0  0  0  0  0  0  0  0  0
    3.0888   -0.3154    1.2835 H   0  0  0  0  0  0  0  0  0  0  0  0
  1  2  1  0
  2  3  1  0
  2  4  1  0
  4  5  1  0
  5  6  1  0
  6  7  1  0
  7  8  1  0
  8  9  2  0
  5  2  1  0
  8  5  1  0
  1 10  1  0
  1 11  1  0
  1 12  1  0
  3 13  1  0
  3 14  1  0
  3 15  1  0
  4 16  1  0
  4 17  1  0
  7 18  1  0
  7 19  1  0
M  END
