
     RDKit          3D

 15 15  0  0  0  0  0  0  0  0999 V2000
   -1.3452   -0.4801   -0.5135 C   0  0  0  0  0  0  0  0  0  0  0  0
   -0.0574    0.2585   -0.2238 C   0  0  0  0  0  0  0  0  0  0  0  0
   -0.1390    1.6949   -0.5096 C   0  0  0  0  0  0  0  0  0  0  0  0
    0.6263    2.1814   -1.3144 O   0  0  0  0  0  0  0  0  0  0  0  0
    0.3143    0.0692    1.2290 C   0  0  0  0  0  0  0  0  0  0  0  0
    1.5957   -0.5242    1.1188 O   0  0  0  0  0  0  0  0  0  0  0  0
    1.6766   -1.1891   -0.1205 C   0  0  0  0  0  0  0  0  0  0  0  0
    2.2534   -2.2798   -0.3765 O   0  0  0  0  0  0  0  0  0  0  0  0
    0.9675   -0.3506   -0.9866 O   0  0  0  0  0  0  0  0  0  0  0  0
   -2.0872    0.1889   -0.9990 H   0  0  0  0  0  0  0  0  0  0  0  0
   -1.7624   -0.8899    0.4359 H   0  0  0  0  0  0  0  0  0  0  0  0
   -1.1735   -1.3582   -1.1703 H   0  0  0  0  0  0  0  0  0  0  0  0
   -0.8612    2.3272   -0.0228 H   0  0  0  0  0  0  0  0  0  0  0  0
    0.3411    1.0307    1.7713 H   0  0  0  0  0  0  0  0  0  0  0  0
   -0.3491   -0.6789    1.6819 H   0  0  0  0  0  0  0  0  0  0  0  0
  1  2  1  0
  2  3  1  0
  3  4  2  0
  2  5  1  0
  5  6  1  0
  6  7  1  0
  7  8  2  0
  7  9  1  0
  9  2  1  0
  1 10  1  0
  1 11  1  0
  1 12  1  0
  3 13  1  0
  5 14  1  0
  5 15  1  0
M  END
