
     RDKit          3D

 16 16  0  0  0  0  0  0  0  0999 V2000
   -1.5396   -0.8786    0.1230 C   0  0  0  0  0  0  0  0  0  0  0  0
   -0.4653    0.1173   -0.1799 C   0  0  0  0  0  0  0  0  0  0  0  0
   -1.0472    1.1578   -0.9089 O   0  0  0  0  0  0  0  0  0  0  0  0
    0.2587    0.6246    1.0291 C   0  0  0  0  0  0  0  0  0  0  0  0
    1.5040    0.0183    1.0471 O   0  0  0  0  0  0  0  0  0  0  0  0
    1.8939   -0.0499   -0.2929 C   0  0  0  0  0  0  0  0  0  0  0  0
    0.6587   -0.5181   -0.9573 C   0  0  0  0  0  0  0  0  0  0  0  0
    0.4692   -1.2379   -1.9030 O   0  0  0  0  0  0  0  0  0  0  0  0
   -1.3649   -1.4507    1.0551 H   0  0  0  0  0  0  0  0  0  0  0  0
   -2.5520   -0.4305    0.1238 H   0  0  0  0  0  0  0  0  0  0  0  0
   -1.5451   -1.6278   -0.7166 H   0  0  0  0  0  0  0  0  0  0  0  0
   -1.2810    1.8542   -0.2555 H   0  0  0  0  0  0  0  0  0  0  0  0
    0.4055    1.7238    0.9098 H   0  0  0  0  0  0  0  0  0  0  0  0
   -0.2882    0.4732    1.9722 H   0  0  0  0  0  0  0  0  0  0  0  0
    2.1528    0.9716   -0.6179 H   0  0  0  0  0  0  0  0  0  0  0  0
    2.7404   -0.7473   -0.4280 H   0  0  0  0  0  0  0  0  0  0  0  0
  1  2  1  0
  2  3  1  0
  2  4  1  0
  4  5  1  0
  5  6  1  0
  6  7  1  0
  7  8  2  0
  7  2  1  0
  1  9  1  0
  1 10  1  0
  1 11  1  0
  3 12  1  0
  4 13  1  0
  4 14  1  0
  6 15  1  0
  6 16  1  0
M  END
