
     RDKit          3D

 21 21  0  0  0  0  0  0  0  0999 V2000
   -1.2701    1.2787    0.5659 C   0  0  0  0  0  0  0  0  0  0  0  0
   -0.8786   -0.0970    0.0440 C   0  0  0  0  0  0  0  0  0  0  0  0
   -2.0742   -1.0146   -0.0972 C   0  0  0  0  0  0  0  0  0  0  0  0
    0.3100   -0.7173    0.7337 C   0  0  0  0  0  0  0  0  0  0  0  0
    1.1866   -0.3217   -0.4241 C   0  0  0  0  0  0  0  0  0  0  0  0
    2.0626    0.8363   -0.0597 C   0  0  0  0  0  0  0  0  0  0  0  0
    1.8204   -1.3765   -1.0769 O   0  0  0  0  0  0  0  0  0  0  0  0
   -0.0571    0.0506   -1.1775 C   0  0  0  0  0  0  0  0  0  0  0  0
   -0.3234    0.3541   -2.3166 O   0  0  0  0  0  0  0  0  0  0  0  0
   -2.1840    1.1680    1.1489 H   0  0  0  0  0  0  0  0  0  0  0  0
   -0.4087    1.6351    1.1682 H   0  0  0  0  0  0  0  0  0  0  0  0
   -1.3877    2.0029   -0.2655 H   0  0  0  0  0  0  0  0  0  0  0  0
   -2.0564   -1.6152   -1.0145 H   0  0  0  0  0  0  0  0  0  0  0  0
   -2.9902   -0.3679   -0.1205 H   0  0  0  0  0  0  0  0  0  0  0  0
   -2.1709   -1.6777    0.7725 H   0  0  0  0  0  0  0  0  0  0  0  0
    0.2289   -1.7911    0.9397 H   0  0  0  0  0  0  0  0  0  0  0  0
    0.5258   -0.1792    1.6843 H   0  0  0  0  0  0  0  0  0  0  0  0
    2.3318    0.7306    1.0308 H   0  0  0  0  0  0  0  0  0  0  0  0
    3.0278    0.8416   -0.6199 H   0  0  0  0  0  0  0  0  0  0  0  0
    1.5837    1.8186   -0.1641 H   0  0  0  0  0  0  0  0  0  0  0  0
    2.7238   -1.5583   -0.7513 H   0  0  0  0  0  0  0  0  0  0  0  0
  1  2  1  0
  2  3  1  0
  2  4  1  0
  4  5  1  0
  5  6  1  0
  5  7  1  0
  5  8  1  0
  8  9  2  0
  8  2  1  0
  1 10  1  0
  1 11  1  0
  1 12  1  0
  3 13  1  0
  3 14  1  0
  3 15  1  0
  4 16  1  0
  4 17  1  0
  6 18  1  0
  6 19  1  0
  6 20  1  0
  7 21  1  0
M  END
