
     RDKit          3D

 19 20  0  0  0  0  0  0  0  0999 V2000
   -1.5674   -1.4767   -0.0159 C   0  0  0  0  0  0  0  0  0  0  0  0
   -0.8099   -0.1358    0.0452 C   0  0  0  0  0  0  0  0  0  0  0  0
   -1.8350    1.0115    0.0147 C   0  0  0  0  0  0  0  0  0  0  0  0
    0.2952   -0.0782    0.9278 C   0  0  0  0  0  0  0  0  0  0  0  0
    1.7091   -0.5044    0.6980 C   0  0  0  0  0  0  0  0  0  0  0  0
    2.3919   -1.4019    1.0546 O   0  0  0  0  0  0  0  0  0  0  0  0
    1.6999    0.7364   -0.1374 C   0  0  0  0  0  0  0  0  0  0  0  0
    2.7216    0.7329   -1.0443 O   0  0  0  0  0  0  0  0  0  0  0  0
    0.4114    0.0684   -0.6501 C   0  0  0  0  0  0  0  0  0  0  0  0
   -2.3308   -1.4674   -0.7973 H   0  0  0  0  0  0  0  0  0  0  0  0
   -1.9928   -1.6029    1.0092 H   0  0  0  0  0  0  0  0  0  0  0  0
   -0.7670   -2.2345   -0.2243 H   0  0  0  0  0  0  0  0  0  0  0  0
   -1.3607    1.9382   -0.4160 H   0  0  0  0  0  0  0  0  0  0  0  0
   -2.1064    1.1722    1.0861 H   0  0  0  0  0  0  0  0  0  0  0  0
   -2.7274    0.7503   -0.5513 H   0  0  0  0  0  0  0  0  0  0  0  0
    0.3857    0.9147    1.4796 H   0  0  0  0  0  0  0  0  0  0  0  0
    1.5239    1.6672    0.4244 H   0  0  0  0  0  0  0  0  0  0  0  0
    3.5855    0.7901   -0.5531 H   0  0  0  0  0  0  0  0  0  0  0  0
    0.7732   -0.8803   -1.1674 H   0  0  0  0  0  0  0  0  0  0  0  0
  1  2  1  0
  2  3  1  0
  2  4  1  0
  4  5  1  0
  5  6  2  0
  5  7  1  0
  7  8  1  0
  7  9  1  0
  9  2  1  0
  9  4  1  0
  1 10  1  0
  1 11  1  0
  1 12  1  0
  3 13  1  0
  3 14  1  0
  3 15  1  0
  4 16  1  0
  7 17  1  0
  8 18  1  0
  9 19  1  0
M  END
