
     RDKit          3D

 23 23  0  0  0  0  0  0  0  0999 V2000
   -1.2903   -0.8279    1.1797 C   0  0  0  0  0  0  0  0  0  0  0  0
   -0.7433   -0.2749   -0.1039 C   0  0  0  0  0  0  0  0  0  0  0  0
   -1.8544    0.0543   -1.1048 C   0  0  0  0  0  0  0  0  0  0  0  0
    0.1582   -1.2410   -0.7853 C   0  0  0  0  0  0  0  0  0  0  0  0
    1.4569   -1.2534   -0.5778 C   0  0  0  0  0  0  0  0  0  0  0  0
    2.0798   -0.3087    0.3414 C   0  0  0  0  0  0  0  0  0  0  0  0
    1.3374    0.9283    0.6454 C   0  0  0  0  0  0  0  0  0  0  0  0
   -0.0506    1.0404    0.1711 C   0  0  0  0  0  0  0  0  0  0  0  0
   -0.0950    1.8408   -0.9948 O   0  0  0  0  0  0  0  0  0  0  0  0
   -1.2431   -1.9292    1.2476 H   0  0  0  0  0  0  0  0  0  0  0  0
   -0.6804   -0.4397    2.0259 H   0  0  0  0  0  0  0  0  0  0  0  0
   -2.3550   -0.5191    1.3029 H   0  0  0  0  0  0  0  0  0  0  0  0
   -2.5397   -0.7762   -1.2553 H   0  0  0  0  0  0  0  0  0  0  0  0
   -1.3074    0.2723   -2.0683 H   0  0  0  0  0  0  0  0  0  0  0  0
   -2.3326    1.0056   -0.8224 H   0  0  0  0  0  0  0  0  0  0  0  0
   -0.2622   -1.9622   -1.4778 H   0  0  0  0  0  0  0  0  0  0  0  0
    2.0776   -1.9683   -1.0893 H   0  0  0  0  0  0  0  0  0  0  0  0
    2.3210   -0.8884    1.2830 H   0  0  0  0  0  0  0  0  0  0  0  0
    3.0815   -0.0288   -0.1050 H   0  0  0  0  0  0  0  0  0  0  0  0
    1.8957    1.8425    0.2814 H   0  0  0  0  0  0  0  0  0  0  0  0
    1.3335    1.0723    1.7674 H   0  0  0  0  0  0  0  0  0  0  0  0
   -0.6891    1.5802    0.9088 H   0  0  0  0  0  0  0  0  0  0  0  0
   -0.2983    2.7813   -0.7700 H   0  0  0  0  0  0  0  0  0  0  0  0
  1  2  1  0
  2  3  1  0
  2  4  1  0
  4  5  2  0
  5  6  1  0
  6  7  1  0
  7  8  1  0
  8  9  1  0
  8  2  1  0
  1 10  1  0
  1 11  1  0
  1 12  1  0
  3 13  1  0
  3 14  1  0
  3 15  1  0
  4 16  1  0
  5 17  1  0
  6 18  1  0
  6 19  1  0
  7 20  1  0
  7 21  1  0
  8 22  1  0
  9 23  1  0
M  END
