
     RDKit          3D

 19 19  0  0  0  0  0  0  0  0999 V2000
   -1.6382   -1.0863   -0.6021 C   0  0  0  0  0  0  0  0  0  0  0  0
   -0.4388   -0.2184   -0.2637 C   0  0  0  0  0  0  0  0  0  0  0  0
   -0.9371    1.0294    0.4246 C   0  0  0  0  0  0  0  0  0  0  0  0
   -1.6953    1.8225   -0.4052 O   0  0  0  0  0  0  0  0  0  0  0  0
    0.3491    0.0462   -1.3541 O   0  0  0  0  0  0  0  0  0  0  0  0
    1.6363    0.2461   -0.9476 C   0  0  0  0  0  0  0  0  0  0  0  0
    1.7930   -0.3855    0.4271 C   0  0  0  0  0  0  0  0  0  0  0  0
    0.4607   -1.0158    0.6037 C   0  0  0  0  0  0  0  0  0  0  0  0
    0.2403   -1.9692    1.3179 O   0  0  0  0  0  0  0  0  0  0  0  0
   -1.9761   -1.5268    0.3759 H   0  0  0  0  0  0  0  0  0  0  0  0
   -2.4882   -0.4952   -0.9885 H   0  0  0  0  0  0  0  0  0  0  0  0
   -1.2898   -1.8705   -1.2729 H   0  0  0  0  0  0  0  0  0  0  0  0
   -0.0338    1.5559    0.8245 H   0  0  0  0  0  0  0  0  0  0  0  0
   -1.5455    0.7471    1.3054 H   0  0  0  0  0  0  0  0  0  0  0  0
   -1.2161    2.6633   -0.6751 H   0  0  0  0  0  0  0  0  0  0  0  0
    1.8913    1.3219   -0.8611 H   0  0  0  0  0  0  0  0  0  0  0  0
    2.3992   -0.1950   -1.6282 H   0  0  0  0  0  0  0  0  0  0  0  0
    2.6295   -1.0865    0.4789 H   0  0  0  0  0  0  0  0  0  0  0  0
    1.8595    0.4170    1.2171 H   0  0  0  0  0  0  0  0  0  0  0  0
  1  2  1  0
  2  3  1  0
  3  4  1  0
  2  5  1  0
  5  6  1  0
  6  7  1  0
  7  8  1  0
  8  9  2  0
  8  2  1  0
  1 10  1  0
  1 11  1  0
  1 12  1  0
  3 13  1  0
  3 14  1  0
  4 15  1  0
  6 16  1  0
  6 17  1  0
  7 18  1  0
  7 19  1  0
M  END
