
     RDKit          3D

 19 19  0  0  0  0  0  0  0  0999 V2000
    1.4195    1.3602   -0.4189 C   0  0  0  0  0  0  0  0  0  0  0  0
    0.6881    0.0746   -0.2563 C   0  0  0  0  0  0  0  0  0  0  0  0
    1.5252   -1.0737    0.3162 C   0  0  0  0  0  0  0  0  0  0  0  0
   -0.0751   -0.2649   -1.4209 O   0  0  0  0  0  0  0  0  0  0  0  0
   -0.7315   -0.0939   -0.2084 C   0  0  0  0  0  0  0  0  0  0  0  0
   -1.2978   -1.3819    0.3515 C   0  0  0  0  0  0  0  0  0  0  0  0
   -1.6139    1.1086   -0.0051 C   0  0  0  0  0  0  0  0  0  0  0  0
    0.9628    2.2301    0.0567 H   0  0  0  0  0  0  0  0  0  0  0  0
    1.5811    1.6267   -1.4969 H   0  0  0  0  0  0  0  0  0  0  0  0
    2.4657    1.2937    0.0018 H   0  0  0  0  0  0  0  0  0  0  0  0
    1.5367   -1.9473   -0.3394 H   0  0  0  0  0  0  0  0  0  0  0  0
    1.0478   -1.2938    1.3094 H   0  0  0  0  0  0  0  0  0  0  0  0
    2.5560   -0.7189    0.5702 H   0  0  0  0  0  0  0  0  0  0  0  0
   -2.4108   -1.3416    0.1759 H   0  0  0  0  0  0  0  0  0  0  0  0
   -1.1075   -1.5204    1.4166 H   0  0  0  0  0  0  0  0  0  0  0  0
   -0.9524   -2.2725   -0.2067 H   0  0  0  0  0  0  0  0  0  0  0  0
   -1.0577    2.0285    0.2489 H   0  0  0  0  0  0  0  0  0  0  0  0
   -2.2237    1.2620   -0.9318 H   0  0  0  0  0  0  0  0  0  0  0  0
   -2.3123    0.9244    0.8370 H   0  0  0  0  0  0  0  0  0  0  0  0
  1  2  1  0
  2  3  1  0
  2  4  1  0
  4  5  1  0
  5  6  1  0
  5  7  1  0
  5  2  1  0
  1  8  1  0
  1  9  1  0
  1 10  1  0
  3 11  1  0
  3 12  1  0
  3 13  1  0
  6 14  1  0
  6 15  1  0
  6 16  1  0
  7 17  1  0
  7 18  1  0
  7 19  1  0
M  END
