
     RDKit          3D

 21 22  0  0  0  0  0  0  0  0999 V2000
   -1.8675   -1.0774   -0.3509 C   0  0  0  0  0  0  0  0  0  0  0  0
   -0.6970   -0.6561    0.4727 C   0  0  0  0  0  0  0  0  0  0  0  0
   -0.8620   -0.9073    1.8512 O   0  0  0  0  0  0  0  0  0  0  0  0
    0.0391    0.5684    0.1423 C   0  0  0  0  0  0  0  0  0  0  0  0
   -0.2887    1.4563   -1.0016 C   0  0  0  0  0  0  0  0  0  0  0  0
    1.1777    0.9236    1.0864 C   0  0  0  0  0  0  0  0  0  0  0  0
    1.8886   -0.3183    0.5424 C   0  0  0  0  0  0  0  0  0  0  0  0
    0.6344   -0.7969   -0.1226 C   0  0  0  0  0  0  0  0  0  0  0  0
    0.7077   -1.2869   -1.4061 O   0  0  0  0  0  0  0  0  0  0  0  0
   -1.7232   -0.9528   -1.4301 H   0  0  0  0  0  0  0  0  0  0  0  0
   -2.0188   -2.1791   -0.1646 H   0  0  0  0  0  0  0  0  0  0  0  0
   -2.8130   -0.5493   -0.0609 H   0  0  0  0  0  0  0  0  0  0  0  0
   -1.6244   -0.3471    2.1593 H   0  0  0  0  0  0  0  0  0  0  0  0
   -0.0369    2.5146   -0.7414 H   0  0  0  0  0  0  0  0  0  0  0  0
    0.2734    1.2355   -1.9289 H   0  0  0  0  0  0  0  0  0  0  0  0
   -1.3969    1.4014   -1.1690 H   0  0  0  0  0  0  0  0  0  0  0  0
    0.9120    0.7125    2.1567 H   0  0  0  0  0  0  0  0  0  0  0  0
    1.6758    1.8711    0.8905 H   0  0  0  0  0  0  0  0  0  0  0  0
    2.6639    0.0293   -0.1780 H   0  0  0  0  0  0  0  0  0  0  0  0
    2.2877   -0.9924    1.3200 H   0  0  0  0  0  0  0  0  0  0  0  0
    1.0682   -0.6491   -2.0672 H   0  0  0  0  0  0  0  0  0  0  0  0
  1  2  1  0
  2  3  1  0
  2  4  1  0
  4  5  1  0
  4  6  1  0
  6  7  1  0
  7  8  1  0
  8  9  1  0
  8  2  1  0
  8  4  1  0
  1 10  1  0
  1 11  1  0
  1 12  1  0
  3 13  1  0
  5 14  1  0
  5 15  1  0
  5 16  1  0
  6 17  1  0
  6 18  1  0
  7 19  1  0
  7 20  1  0
  9 21  1  0
M  END
