
     RDKit          3D

 19 20  0  0  0  0  0  0  0  0999 V2000
   -1.4890    1.2709   -0.7813 C   0  0  0  0  0  0  0  0  0  0  0  0
   -1.2384   -0.1489   -0.3458 C   0  0  0  0  0  0  0  0  0  0  0  0
   -2.4349   -0.8711   -0.2661 O   0  0  0  0  0  0  0  0  0  0  0  0
   -0.1078   -0.9134   -0.9209 C   0  0  0  0  0  0  0  0  0  0  0  0
    1.0382   -0.2819   -1.3746 O   0  0  0  0  0  0  0  0  0  0  0  0
    1.9272   -0.5211   -0.3274 C   0  0  0  0  0  0  0  0  0  0  0  0
    1.1033    0.1150    0.8024 C   0  0  0  0  0  0  0  0  0  0  0  0
    1.1305    1.4686    0.6217 O   0  0  0  0  0  0  0  0  0  0  0  0
   -0.2023   -0.5459    0.5857 C   0  0  0  0  0  0  0  0  0  0  0  0
   -0.5993    1.8775   -0.8964 H   0  0  0  0  0  0  0  0  0  0  0  0
   -2.0707    1.2496   -1.7491 H   0  0  0  0  0  0  0  0  0  0  0  0
   -2.1685    1.7601   -0.0317 H   0  0  0  0  0  0  0  0  0  0  0  0
   -2.6609   -1.0915    0.6825 H   0  0  0  0  0  0  0  0  0  0  0  0
   -0.1769   -1.9741   -1.1640 H   0  0  0  0  0  0  0  0  0  0  0  0
    2.8929   -0.0225   -0.4500 H   0  0  0  0  0  0  0  0  0  0  0  0
    2.0000   -1.6123   -0.1409 H   0  0  0  0  0  0  0  0  0  0  0  0
    1.5465   -0.1200    1.7821 H   0  0  0  0  0  0  0  0  0  0  0  0
    1.8978    1.7727    0.0545 H   0  0  0  0  0  0  0  0  0  0  0  0
   -0.3877   -1.4117    1.2816 H   0  0  0  0  0  0  0  0  0  0  0  0
  1  2  1  0
  2  3  1  0
  2  4  1  0
  4  5  1  0
  5  6  1  0
  6  7  1  0
  7  8  1  0
  7  9  1  0
  9  2  1  0
  9  4  1  0
  1 10  1  0
  1 11  1  0
  1 12  1  0
  3 13  1  0
  4 14  1  0
  6 15  1  0
  6 16  1  0
  7 17  1  0
  8 18  1  0
  9 19  1  0
M  END
