
     RDKit          3D

 15 15  0  0  0  0  0  0  0  0999 V2000
   -0.6847    1.6140    0.2392 C   0  0  0  0  0  0  0  0  0  0  0  0
   -0.2616    0.1974    0.0015 C   0  0  0  0  0  0  0  0  0  0  0  0
   -1.4080   -0.7504   -0.2049 C   0  0  0  0  0  0  0  0  0  0  0  0
    0.6063    0.1078   -1.1031 O   0  0  0  0  0  0  0  0  0  0  0  0
    1.7439   -0.6088   -0.7520 C   0  0  0  0  0  0  0  0  0  0  0  0
    2.6785   -1.0042   -1.5304 O   0  0  0  0  0  0  0  0  0  0  0  0
    1.6432   -0.8109    0.6816 C   0  0  0  0  0  0  0  0  0  0  0  0
    2.4693   -1.4137    1.3915 O   0  0  0  0  0  0  0  0  0  0  0  0
    0.4840   -0.2289    1.1420 O   0  0  0  0  0  0  0  0  0  0  0  0
    0.2208    2.2585    0.0518 H   0  0  0  0  0  0  0  0  0  0  0  0
   -0.9500    1.8070    1.3047 H   0  0  0  0  0  0  0  0  0  0  0  0
   -1.4596    1.9678   -0.4678 H   0  0  0  0  0  0  0  0  0  0  0  0
   -2.3788   -0.2609   -0.3240 H   0  0  0  0  0  0  0  0  0  0  0  0
   -1.4915   -1.4534    0.6561 H   0  0  0  0  0  0  0  0  0  0  0  0
   -1.2117   -1.4214   -1.0864 H   0  0  0  0  0  0  0  0  0  0  0  0
  1  2  1  0
  2  3  1  0
  2  4  1  0
  4  5  1  0
  5  6  2  0
  5  7  1  0
  7  8  2  0
  7  9  1  0
  9  2  1  0
  1 10  1  0
  1 11  1  0
  1 12  1  0
  3 13  1  0
  3 14  1  0
  3 15  1  0
M  END
