
     RDKit          3D

 19 19  0  0  0  0  0  0  0  0999 V2000
   -1.0238   -0.4575    1.3759 C   0  0  0  0  0  0  0  0  0  0  0  0
   -0.3655   -0.1496    0.0600 C   0  0  0  0  0  0  0  0  0  0  0  0
   -1.1989   -0.4999   -1.1317 C   0  0  0  0  0  0  0  0  0  0  0  0
    1.0493   -0.7032   -0.0837 C   0  0  0  0  0  0  0  0  0  0  0  0
    1.7621   -0.7270    1.1217 O   0  0  0  0  0  0  0  0  0  0  0  0
    1.3391    0.5277   -0.8746 C   0  0  0  0  0  0  0  0  0  0  0  0
    2.0899    0.7489   -1.7890 O   0  0  0  0  0  0  0  0  0  0  0  0
    0.3273    1.1969   -0.0120 C   0  0  0  0  0  0  0  0  0  0  0  0
   -0.4282    2.1701   -0.5883 O   0  0  0  0  0  0  0  0  0  0  0  0
   -1.9630    0.1161    1.4209 H   0  0  0  0  0  0  0  0  0  0  0  0
   -1.2861   -1.5257    1.3803 H   0  0  0  0  0  0  0  0  0  0  0  0
   -0.3529   -0.2364    2.2147 H   0  0  0  0  0  0  0  0  0  0  0  0
   -2.2531   -0.7244   -0.8546 H   0  0  0  0  0  0  0  0  0  0  0  0
   -0.8003   -1.3780   -1.6972 H   0  0  0  0  0  0  0  0  0  0  0  0
   -1.1869    0.3602   -1.8317 H   0  0  0  0  0  0  0  0  0  0  0  0
    1.1180   -1.5984   -0.6977 H   0  0  0  0  0  0  0  0  0  0  0  0
    2.7228   -0.8252    0.9042 H   0  0  0  0  0  0  0  0  0  0  0  0
    0.7946    1.4484    0.9618 H   0  0  0  0  0  0  0  0  0  0  0  0
   -0.3443    2.2570   -1.5614 H   0  0  0  0  0  0  0  0  0  0  0  0
  1  2  1  0
  2  3  1  0
  2  4  1  0
  4  5  1  0
  4  6  1  0
  6  7  2  0
  6  8  1  0
  8  9  1  0
  8  2  1  0
  1 10  1  0
  1 11  1  0
  1 12  1  0
  3 13  1  0
  3 14  1  0
  3 15  1  0
  4 16  1  0
  5 17  1  0
  8 18  1  0
  9 19  1  0
M  END
