
     RDKit          3D

 21 22  0  0  0  0  0  0  0  0999 V2000
    1.8090   -0.1733    0.8048 C   0  0  0  0  0  0  0  0  0  0  0  0
    0.7893    0.1547   -0.2163 C   0  0  0  0  0  0  0  0  0  0  0  0
    1.2034    1.2508   -0.9485 O   0  0  0  0  0  0  0  0  0  0  0  0
    0.4781   -1.0360   -1.1445 C   0  0  0  0  0  0  0  0  0  0  0  0
   -0.9435   -1.0796   -1.1988 O   0  0  0  0  0  0  0  0  0  0  0  0
   -1.2218    0.2578   -1.1619 C   0  0  0  0  0  0  0  0  0  0  0  0
   -1.6644    1.1551   -0.1799 C   0  0  0  0  0  0  0  0  0  0  0  0
   -0.5817    0.3940    0.2847 C   0  0  0  0  0  0  0  0  0  0  0  0
   -0.9605   -0.7407    1.2623 C   0  0  0  0  0  0  0  0  0  0  0  0
    1.7099    0.5450    1.6466 H   0  0  0  0  0  0  0  0  0  0  0  0
    1.8131   -1.2229    1.1516 H   0  0  0  0  0  0  0  0  0  0  0  0
    2.8269    0.0342    0.3618 H   0  0  0  0  0  0  0  0  0  0  0  0
    1.0968    2.0475   -0.3388 H   0  0  0  0  0  0  0  0  0  0  0  0
    0.9079   -0.7912   -2.1174 H   0  0  0  0  0  0  0  0  0  0  0  0
    0.8728   -1.9714   -0.7550 H   0  0  0  0  0  0  0  0  0  0  0  0
   -0.6312    0.7374   -2.0054 H   0  0  0  0  0  0  0  0  0  0  0  0
   -2.6873    1.0081    0.2593 H   0  0  0  0  0  0  0  0  0  0  0  0
   -1.5073    2.2657   -0.3100 H   0  0  0  0  0  0  0  0  0  0  0  0
   -0.1060   -1.0761    1.8487 H   0  0  0  0  0  0  0  0  0  0  0  0
   -1.6670   -0.2361    1.9853 H   0  0  0  0  0  0  0  0  0  0  0  0
   -1.5365   -1.5228    0.7712 H   0  0  0  0  0  0  0  0  0  0  0  0
  1  2  1  0
  2  3  1  0
  2  4  1  0
  4  5  1  0
  5  6  1  0
  6  7  1  0
  7  8  1  0
  8  9  1  0
  8  2  1  0
  8  6  1  0
  1 10  1  0
  1 11  1  0
  1 12  1  0
  3 13  1  0
  4 14  1  0
  4 15  1  0
  6 16  1  0
  7 17  1  0
  7 18  1  0
  9 19  1  0
  9 20  1  0
  9 21  1  0
M  END
