
     RDKit          3D

 23 23  0  0  0  0  0  0  0  0999 V2000
    1.6653   -1.2432   -0.5369 C   0  0  0  0  0  0  0  0  0  0  0  0
    0.9840   -0.0194    0.0545 C   0  0  0  0  0  0  0  0  0  0  0  0
    1.5373    1.3184   -0.3476 C   0  0  0  0  0  0  0  0  0  0  0  0
    0.4749   -0.2338    1.4545 C   0  0  0  0  0  0  0  0  0  0  0  0
   -0.4754   -0.1102    0.3508 C   0  0  0  0  0  0  0  0  0  0  0  0
   -1.1757   -1.2892   -0.2634 C   0  0  0  0  0  0  0  0  0  0  0  0
   -2.5502   -1.3024    0.0639 O   0  0  0  0  0  0  0  0  0  0  0  0
   -1.3260    1.1565    0.3405 C   0  0  0  0  0  0  0  0  0  0  0  0
   -1.3185    1.7920   -0.8740 O   0  0  0  0  0  0  0  0  0  0  0  0
    0.9769   -1.7981   -1.2217 H   0  0  0  0  0  0  0  0  0  0  0  0
    2.0234   -1.9125    0.2814 H   0  0  0  0  0  0  0  0  0  0  0  0
    2.5510   -0.9854   -1.1336 H   0  0  0  0  0  0  0  0  0  0  0  0
    1.3876    1.5054   -1.4408 H   0  0  0  0  0  0  0  0  0  0  0  0
    1.0370    2.1220    0.2149 H   0  0  0  0  0  0  0  0  0  0  0  0
    2.6360    1.3716   -0.1126 H   0  0  0  0  0  0  0  0  0  0  0  0
    0.6279    0.6453    2.1160 H   0  0  0  0  0  0  0  0  0  0  0  0
    0.6905   -1.1895    1.9684 H   0  0  0  0  0  0  0  0  0  0  0  0
   -1.1649   -1.1105   -1.3803 H   0  0  0  0  0  0  0  0  0  0  0  0
   -0.7406   -2.2584   -0.0126 H   0  0  0  0  0  0  0  0  0  0  0  0
   -2.9918   -1.9187   -0.5514 H   0  0  0  0  0  0  0  0  0  0  0  0
   -0.9947    1.8696    1.1099 H   0  0  0  0  0  0  0  0  0  0  0  0
   -2.3542    0.8163    0.6451 H   0  0  0  0  0  0  0  0  0  0  0  0
   -1.4997    2.7741   -0.7248 H   0  0  0  0  0  0  0  0  0  0  0  0
  1  2  1  0
  2  3  1  0
  2  4  1  0
  4  5  1  0
  5  6  1  0
  6  7  1  0
  5  8  1  0
  8  9  1  0
  5  2  1  0
  1 10  1  0
  1 11  1  0
  1 12  1  0
  3 13  1  0
  3 14  1  0
  3 15  1  0
  4 16  1  0
  4 17  1  0
  6 18  1  0
  6 19  1  0
  7 20  1  0
  8 21  1  0
  8 22  1  0
  9 23  1  0
M  END
