
     RDKit          3D

 21 22  0  0  0  0  0  0  0  0999 V2000
   -0.7760   -0.5667    1.4190 C   0  0  0  0  0  0  0  0  0  0  0  0
   -0.3781   -0.3511   -0.0344 C   0  0  0  0  0  0  0  0  0  0  0  0
   -0.4372   -1.6480   -0.7912 C   0  0  0  0  0  0  0  0  0  0  0  0
   -1.2636    0.6981   -0.6769 C   0  0  0  0  0  0  0  0  0  0  0  0
   -0.6684    1.9447   -0.1202 C   0  0  0  0  0  0  0  0  0  0  0  0
    0.5911    1.7286    0.2320 C   0  0  0  0  0  0  0  0  0  0  0  0
    0.9467    0.3173   -0.0591 C   0  0  0  0  0  0  0  0  0  0  0  0
    2.2045   -0.1870    0.0779 C   0  0  0  0  0  0  0  0  0  0  0  0
    1.7103    0.2145   -1.2675 O   0  0  0  0  0  0  0  0  0  0  0  0
   -0.1005   -0.0249    2.1184 H   0  0  0  0  0  0  0  0  0  0  0  0
   -0.6938   -1.6366    1.6393 H   0  0  0  0  0  0  0  0  0  0  0  0
   -1.8068   -0.1651    1.5572 H   0  0  0  0  0  0  0  0  0  0  0  0
   -0.8049   -1.5433   -1.8274 H   0  0  0  0  0  0  0  0  0  0  0  0
   -1.1819   -2.3023   -0.2560 H   0  0  0  0  0  0  0  0  0  0  0  0
    0.5092   -2.2084   -0.7836 H   0  0  0  0  0  0  0  0  0  0  0  0
   -2.3254    0.5784   -0.4264 H   0  0  0  0  0  0  0  0  0  0  0  0
   -1.0670    0.6431   -1.7706 H   0  0  0  0  0  0  0  0  0  0  0  0
   -1.1972    2.8795   -0.0238 H   0  0  0  0  0  0  0  0  0  0  0  0
    1.2152    2.4991    0.6604 H   0  0  0  0  0  0  0  0  0  0  0  0
    3.0852    0.4129    0.3366 H   0  0  0  0  0  0  0  0  0  0  0  0
    2.4387   -1.2827   -0.0038 H   0  0  0  0  0  0  0  0  0  0  0  0
  1  2  1  0
  2  3  1  0
  2  4  1  0
  4  5  1  0
  5  6  2  0
  6  7  1  0
  7  8  1  0
  8  9  1  0
  7  2  1  0
  9  7  1  0
  1 10  1  0
  1 11  1  0
  1 12  1  0
  3 13  1  0
  3 14  1  0
  3 15  1  0
  4 16  1  0
  4 17  1  0
  5 18  1  0
  6 19  1  0
  8 20  1  0
  8 21  1  0
M  END
