
     RDKit          3D

 21 22  0  0  0  0  0  0  0  0999 V2000
   -1.5798   -0.5383   -1.1253 C   0  0  0  0  0  0  0  0  0  0  0  0
   -0.7556    0.0170    0.0196 C   0  0  0  0  0  0  0  0  0  0  0  0
   -0.9502   -0.6202    1.3443 C   0  0  0  0  0  0  0  0  0  0  0  0
   -0.6381    1.4938   -0.0452 C   0  0  0  0  0  0  0  0  0  0  0  0
    0.6740    1.3728    0.6647 C   0  0  0  0  0  0  0  0  0  0  0  0
    0.6560    0.3373   -0.3886 C   0  0  0  0  0  0  0  0  0  0  0  0
    1.6304   -0.5734   -0.7266 C   0  0  0  0  0  0  0  0  0  0  0  0
    1.9873   -1.4016    0.3413 O   0  0  0  0  0  0  0  0  0  0  0  0
    0.0920    1.2982   -1.2335 O   0  0  0  0  0  0  0  0  0  0  0  0
   -1.5924    0.1796   -1.9651 H   0  0  0  0  0  0  0  0  0  0  0  0
   -2.6354   -0.6505   -0.7975 H   0  0  0  0  0  0  0  0  0  0  0  0
   -1.1585   -1.4814   -1.5205 H   0  0  0  0  0  0  0  0  0  0  0  0
   -0.0931   -1.3317    1.5160 H   0  0  0  0  0  0  0  0  0  0  0  0
   -1.0549    0.0553    2.1935 H   0  0  0  0  0  0  0  0  0  0  0  0
   -1.8534   -1.2940    1.2954 H   0  0  0  0  0  0  0  0  0  0  0  0
   -1.3472    2.1968    0.0862 H   0  0  0  0  0  0  0  0  0  0  0  0
    0.6559    1.0640    1.7150 H   0  0  0  0  0  0  0  0  0  0  0  0
    1.3726    2.2254    0.4332 H   0  0  0  0  0  0  0  0  0  0  0  0
    2.5766   -0.1316   -1.1001 H   0  0  0  0  0  0  0  0  0  0  0  0
    1.3168   -1.2879   -1.5443 H   0  0  0  0  0  0  0  0  0  0  0  0
    2.6972   -0.9297    0.8374 H   0  0  0  0  0  0  0  0  0  0  0  0
  1  2  1  0
  2  3  1  0
  2  4  1  0
  4  5  1  0
  5  6  1  0
  6  7  1  0
  7  8  1  0
  6  9  1  0
  6  2  1  0
  9  4  1  0
  1 10  1  0
  1 11  1  0
  1 12  1  0
  3 13  1  0
  3 14  1  0
  3 15  1  0
  4 16  1  0
  5 17  1  0
  5 18  1  0
  7 19  1  0
  7 20  1  0
  8 21  1  0
M  END
