
     RDKit          3D

 23 24  0  0  0  0  0  0  0  0999 V2000
   -1.0251    1.7025    0.3561 C   0  0  0  0  0  0  0  0  0  0  0  0
   -0.8436    0.2024    0.0900 C   0  0  0  0  0  0  0  0  0  0  0  0
   -2.2724   -0.3456   -0.0408 C   0  0  0  0  0  0  0  0  0  0  0  0
   -0.2613   -0.4304    1.2828 C   0  0  0  0  0  0  0  0  0  0  0  0
    0.9103   -1.0345    1.3153 C   0  0  0  0  0  0  0  0  0  0  0  0
    1.7374   -1.1189    0.1282 C   0  0  0  0  0  0  0  0  0  0  0  0
    2.3275    0.2341   -0.3186 C   0  0  0  0  0  0  0  0  0  0  0  0
    1.2845   -0.4731   -1.0886 C   0  0  0  0  0  0  0  0  0  0  0  0
   -0.1155   -0.0180   -1.1722 C   0  0  0  0  0  0  0  0  0  0  0  0
   -1.6344    1.8025    1.2801 H   0  0  0  0  0  0  0  0  0  0  0  0
   -0.0273    2.1551    0.4516 H   0  0  0  0  0  0  0  0  0  0  0  0
   -1.5590    2.0950   -0.5403 H   0  0  0  0  0  0  0  0  0  0  0  0
   -2.1525   -1.3115   -0.6041 H   0  0  0  0  0  0  0  0  0  0  0  0
   -2.7008   -0.5791    0.9554 H   0  0  0  0  0  0  0  0  0  0  0  0
   -2.8663    0.3879   -0.6050 H   0  0  0  0  0  0  0  0  0  0  0  0
   -0.8559   -0.3883    2.2020 H   0  0  0  0  0  0  0  0  0  0  0  0
    1.2443   -1.4659    2.2416 H   0  0  0  0  0  0  0  0  0  0  0  0
    2.4560   -1.9882    0.0781 H   0  0  0  0  0  0  0  0  0  0  0  0
    3.3877    0.1918   -0.6694 H   0  0  0  0  0  0  0  0  0  0  0  0
    2.1299    1.1173    0.3021 H   0  0  0  0  0  0  0  0  0  0  0  0
    1.6618   -0.9344   -2.0522 H   0  0  0  0  0  0  0  0  0  0  0  0
   -0.1384    0.9413   -1.7697 H   0  0  0  0  0  0  0  0  0  0  0  0
   -0.6869   -0.7420   -1.8228 H   0  0  0  0  0  0  0  0  0  0  0  0
  1  2  1  0
  2  3  1  0
  2  4  1  0
  4  5  2  0
  5  6  1  0
  6  7  1  0
  7  8  1  0
  8  9  1  0
  9  2  1  0
  8  6  1  0
  1 10  1  0
  1 11  1  0
  1 12  1  0
  3 13  1  0
  3 14  1  0
  3 15  1  0
  4 16  1  0
  5 17  1  0
  6 18  1  0
  7 19  1  0
  7 20  1  0
  8 21  1  0
  9 22  1  0
  9 23  1  0
M  END
