
     RDKit          3D

 17 18  0  0  0  0  0  0  0  0999 V2000
   -1.4955   -0.1878   -1.2207 C   0  0  0  0  0  0  0  0  0  0  0  0
   -0.7664   -0.1919    0.1202 C   0  0  0  0  0  0  0  0  0  0  0  0
   -1.6835   -0.5368    1.2288 C   0  0  0  0  0  0  0  0  0  0  0  0
   -2.6566    0.1816    1.4072 O   0  0  0  0  0  0  0  0  0  0  0  0
    0.2530   -1.0961    0.0727 O   0  0  0  0  0  0  0  0  0  0  0  0
    1.4242   -0.4667    0.4646 C   0  0  0  0  0  0  0  0  0  0  0  0
    2.0356    0.4418   -0.5663 C   0  0  0  0  0  0  0  0  0  0  0  0
    1.1175    0.9643    0.4672 C   0  0  0  0  0  0  0  0  0  0  0  0
   -0.2299    1.0757    0.2805 O   0  0  0  0  0  0  0  0  0  0  0  0
   -2.0556    0.7450   -1.2887 H   0  0  0  0  0  0  0  0  0  0  0  0
   -2.1155   -1.1011   -1.2680 H   0  0  0  0  0  0  0  0  0  0  0  0
   -0.7291   -0.1946   -2.0149 H   0  0  0  0  0  0  0  0  0  0  0  0
   -1.4832   -1.3838    1.8354 H   0  0  0  0  0  0  0  0  0  0  0  0
    2.0147   -0.8697    1.2920 H   0  0  0  0  0  0  0  0  0  0  0  0
    3.1084    0.6705   -0.4285 H   0  0  0  0  0  0  0  0  0  0  0  0
    1.7265    0.2851   -1.6144 H   0  0  0  0  0  0  0  0  0  0  0  0
    1.5354    1.6644    1.2330 H   0  0  0  0  0  0  0  0  0  0  0  0
  1  2  1  0
  2  3  1  0
  3  4  2  0
  2  5  1  0
  5  6  1  0
  6  7  1  0
  7  8  1  0
  8  9  1  0
  9  2  1  0
  8  6  1  0
  1 10  1  0
  1 11  1  0
  1 12  1  0
  3 13  1  0
  6 14  1  0
  7 15  1  0
  7 16  1  0
  8 17  1  0
M  END
