
     RDKit          3D

 23 24  0  0  0  0  0  0  0  0999 V2000
   -1.9304    0.5385    1.4304 C   0  0  0  0  0  0  0  0  0  0  0  0
   -0.9508    0.0920    0.3470 C   0  0  0  0  0  0  0  0  0  0  0  0
   -1.6802   -0.9358   -0.4921 C   0  0  0  0  0  0  0  0  0  0  0  0
   -0.5389    1.2693   -0.4997 C   0  0  0  0  0  0  0  0  0  0  0  0
    0.9768    1.2323   -0.3819 C   0  0  0  0  0  0  0  0  0  0  0  0
    1.2341   -0.1596    0.0692 C   0  0  0  0  0  0  0  0  0  0  0  0
    1.7078   -1.2357   -0.7921 C   0  0  0  0  0  0  0  0  0  0  0  0
    2.5625   -0.7021    0.3510 C   0  0  0  0  0  0  0  0  0  0  0  0
    0.1900   -0.4248    0.9281 O   0  0  0  0  0  0  0  0  0  0  0  0
   -2.7376    1.0814    0.8983 H   0  0  0  0  0  0  0  0  0  0  0  0
   -1.3950    1.1480    2.1696 H   0  0  0  0  0  0  0  0  0  0  0  0
   -2.3203   -0.4052    1.8805 H   0  0  0  0  0  0  0  0  0  0  0  0
   -1.0118   -1.5478   -1.1083 H   0  0  0  0  0  0  0  0  0  0  0  0
   -2.4237   -0.3952   -1.1228 H   0  0  0  0  0  0  0  0  0  0  0  0
   -2.2476   -1.5769    0.2316 H   0  0  0  0  0  0  0  0  0  0  0  0
   -0.7762    1.1319   -1.5788 H   0  0  0  0  0  0  0  0  0  0  0  0
   -0.9627    2.2284   -0.1512 H   0  0  0  0  0  0  0  0  0  0  0  0
    1.4482    1.5205   -1.3253 H   0  0  0  0  0  0  0  0  0  0  0  0
    1.2521    1.9833    0.3808 H   0  0  0  0  0  0  0  0  0  0  0  0
    1.9927   -0.9727   -1.8340 H   0  0  0  0  0  0  0  0  0  0  0  0
    1.4028   -2.2883   -0.6515 H   0  0  0  0  0  0  0  0  0  0  0  0
    3.5029   -0.2435    0.0019 H   0  0  0  0  0  0  0  0  0  0  0  0
    2.7054   -1.3385    1.2493 H   0  0  0  0  0  0  0  0  0  0  0  0
  1  2  1  0
  2  3  1  0
  2  4  1  0
  4  5  1  0
  5  6  1  0
  6  7  1  0
  7  8  1  0
  6  9  1  0
  9  2  1  0
  8  6  1  0
  1 10  1  0
  1 11  1  0
  1 12  1  0
  3 13  1  0
  3 14  1  0
  3 15  1  0
  4 16  1  0
  4 17  1  0
  5 18  1  0
  5 19  1  0
  7 20  1  0
  7 21  1  0
  8 22  1  0
  8 23  1  0
M  END
