
     RDKit          3D

 19 20  0  0  0  0  0  0  0  0999 V2000
   -1.3157    1.3663   -0.3261 C   0  0  0  0  0  0  0  0  0  0  0  0
   -0.8994   -0.0455   -0.2412 C   0  0  0  0  0  0  0  0  0  0  0  0
   -1.9282   -0.9194   -0.5216 O   0  0  0  0  0  0  0  0  0  0  0  0
    0.3368   -0.3742   -1.0823 C   0  0  0  0  0  0  0  0  0  0  0  0
    0.6008   -1.4462   -0.0152 C   0  0  0  0  0  0  0  0  0  0  0  0
   -0.0605   -0.4514    0.9509 C   0  0  0  0  0  0  0  0  0  0  0  0
    0.8546    0.5259    1.2702 O   0  0  0  0  0  0  0  0  0  0  0  0
    1.8019    0.7274    0.2784 C   0  0  0  0  0  0  0  0  0  0  0  0
    1.3054    0.5929   -0.9910 O   0  0  0  0  0  0  0  0  0  0  0  0
   -2.3332    1.4679    0.1389 H   0  0  0  0  0  0  0  0  0  0  0  0
   -1.4910    1.6149   -1.4133 H   0  0  0  0  0  0  0  0  0  0  0  0
   -0.6486    2.1078    0.1018 H   0  0  0  0  0  0  0  0  0  0  0  0
   -2.1976   -1.3415    0.3336 H   0  0  0  0  0  0  0  0  0  0  0  0
    0.0704   -0.7500   -2.0627 H   0  0  0  0  0  0  0  0  0  0  0  0
    1.6401   -1.6649    0.1801 H   0  0  0  0  0  0  0  0  0  0  0  0
   -0.0498   -2.3125   -0.1687 H   0  0  0  0  0  0  0  0  0  0  0  0
   -0.5804   -0.9273    1.7782 H   0  0  0  0  0  0  0  0  0  0  0  0
    2.2125    1.7688    0.4358 H   0  0  0  0  0  0  0  0  0  0  0  0
    2.6821    0.0610    0.4903 H   0  0  0  0  0  0  0  0  0  0  0  0
  1  2  1  0
  2  3  1  0
  2  4  1  0
  4  5  1  0
  5  6  1  0
  6  7  1  0
  7  8  1  0
  8  9  1  0
  6  2  1  0
  9  4  1  0
  1 10  1  0
  1 11  1  0
  1 12  1  0
  3 13  1  0
  4 14  1  0
  5 15  1  0
  5 16  1  0
  6 17  1  0
  8 18  1  0
  8 19  1  0
M  END
