
     RDKit          3D

 18 19  0  0  0  0  0  0  0  0999 V2000
    0.5656    1.5658   -0.2078 C   0  0  0  0  0  0  0  0  0  0  0  0
    0.2546    0.1565    0.3053 C   0  0  0  0  0  0  0  0  0  0  0  0
   -1.1189    0.1678    0.9179 C   0  0  0  0  0  0  0  0  0  0  0  0
   -2.2285   -0.3268    0.1301 C   0  0  0  0  0  0  0  0  0  0  0  0
   -1.7304   -0.9983    1.3105 O   0  0  0  0  0  0  0  0  0  0  0  0
    0.5070   -0.8861   -0.7383 C   0  0  0  0  0  0  0  0  0  0  0  0
    1.8560   -0.8575   -0.0704 C   0  0  0  0  0  0  0  0  0  0  0  0
    1.2625   -0.3685    1.0970 O   0  0  0  0  0  0  0  0  0  0  0  0
    0.1041    2.2836    0.5080 H   0  0  0  0  0  0  0  0  0  0  0  0
    1.6482    1.7134   -0.2577 H   0  0  0  0  0  0  0  0  0  0  0  0
    0.1299    1.6425   -1.2272 H   0  0  0  0  0  0  0  0  0  0  0  0
   -1.2991    1.0260    1.5900 H   0  0  0  0  0  0  0  0  0  0  0  0
   -2.1178   -0.9875   -0.7413 H   0  0  0  0  0  0  0  0  0  0  0  0
   -3.2038    0.1699    0.2310 H   0  0  0  0  0  0  0  0  0  0  0  0
    0.5453   -0.5105   -1.7906 H   0  0  0  0  0  0  0  0  0  0  0  0
   -0.0526   -1.8325   -0.6161 H   0  0  0  0  0  0  0  0  0  0  0  0
    2.5419   -0.1058   -0.4926 H   0  0  0  0  0  0  0  0  0  0  0  0
    2.3362   -1.8519    0.0522 H   0  0  0  0  0  0  0  0  0  0  0  0
  1  2  1  0
  2  3  1  0
  3  4  1  0
  4  5  1  0
  2  6  1  0
  6  7  1  0
  7  8  1  0
  8  2  1  0
  5  3  1  0
  1  9  1  0
  1 10  1  0
  1 11  1  0
  3 12  1  0
  4 13  1  0
  4 14  1  0
  6 15  1  0
  6 16  1  0
  7 17  1  0
  7 18  1  0
M  END
