
     RDKit          3D

 19 20  0  0  0  0  0  0  0  0999 V2000
   -1.6728    0.2069   -0.8283 C   0  0  0  0  0  0  0  0  0  0  0  0
   -0.7949   -0.0624    0.3394 C   0  0  0  0  0  0  0  0  0  0  0  0
   -1.4735   -0.2951    1.5207 O   0  0  0  0  0  0  0  0  0  0  0  0
    0.2180    1.0662    0.5866 C   0  0  0  0  0  0  0  0  0  0  0  0
    1.4767    0.2883    0.7858 C   0  0  0  0  0  0  0  0  0  0  0  0
    1.9782   -0.0820   -0.5822 C   0  0  0  0  0  0  0  0  0  0  0  0
    1.0754   -0.9862   -1.0094 C   0  0  0  0  0  0  0  0  0  0  0  0
    0.1582   -1.2240    0.1297 C   0  0  0  0  0  0  0  0  0  0  0  0
    1.0413   -0.9890    1.2163 O   0  0  0  0  0  0  0  0  0  0  0  0
   -1.2862    1.0303   -1.4708 H   0  0  0  0  0  0  0  0  0  0  0  0
   -2.6572    0.5977   -0.4350 H   0  0  0  0  0  0  0  0  0  0  0  0
   -1.9402   -0.6967   -1.4103 H   0  0  0  0  0  0  0  0  0  0  0  0
   -2.1596    0.3906    1.6419 H   0  0  0  0  0  0  0  0  0  0  0  0
    0.2556    1.6200   -0.3975 H   0  0  0  0  0  0  0  0  0  0  0  0
   -0.0751    1.7101    1.4090 H   0  0  0  0  0  0  0  0  0  0  0  0
    2.2200    0.7261    1.4210 H   0  0  0  0  0  0  0  0  0  0  0  0
    2.8496    0.3018   -1.0690 H   0  0  0  0  0  0  0  0  0  0  0  0
    1.0891   -1.4073   -2.0080 H   0  0  0  0  0  0  0  0  0  0  0  0
   -0.3023   -2.1953    0.1603 H   0  0  0  0  0  0  0  0  0  0  0  0
  1  2  1  0
  2  3  1  0
  2  4  1  0
  4  5  1  0
  5  6  1  0
  6  7  2  0
  7  8  1  0
  8  9  1  0
  8  2  1  0
  9  5  1  0
  1 10  1  0
  1 11  1  0
  1 12  1  0
  3 13  1  0
  4 14  1  0
  4 15  1  0
  5 16  1  0
  6 17  1  0
  7 18  1  0
  8 19  1  0
M  END
