
     RDKit          3D

 21 23  0  0  0  0  0  0  0  0999 V2000
    1.1842    1.3576   -0.1558 C   0  0  0  0  0  0  0  0  0  0  0  0
    0.6359   -0.0337   -0.0344 C   0  0  0  0  0  0  0  0  0  0  0  0
    1.7211   -1.0438   -0.1063 C   0  0  0  0  0  0  0  0  0  0  0  0
   -0.3720   -0.1575    1.0672 C   0  0  0  0  0  0  0  0  0  0  0  0
   -0.9942   -1.2917    0.2348 C   0  0  0  0  0  0  0  0  0  0  0  0
   -0.5276   -0.3869   -0.9163 C   0  0  0  0  0  0  0  0  0  0  0  0
   -1.5197    0.7314   -0.7401 C   0  0  0  0  0  0  0  0  0  0  0  0
   -1.2114    1.8999   -0.1308 O   0  0  0  0  0  0  0  0  0  0  0  0
   -1.3781    0.9168    0.7896 C   0  0  0  0  0  0  0  0  0  0  0  0
    0.9110    1.8648   -1.0941 H   0  0  0  0  0  0  0  0  0  0  0  0
    0.9418    1.9746    0.7593 H   0  0  0  0  0  0  0  0  0  0  0  0
    2.3169    1.3548   -0.1568 H   0  0  0  0  0  0  0  0  0  0  0  0
    2.5314   -0.8687    0.6387 H   0  0  0  0  0  0  0  0  0  0  0  0
    1.4499   -2.0867   -0.0538 H   0  0  0  0  0  0  0  0  0  0  0  0
    2.2319   -0.8990   -1.1057 H   0  0  0  0  0  0  0  0  0  0  0  0
   -0.0725   -0.3856    2.0569 H   0  0  0  0  0  0  0  0  0  0  0  0
   -0.5386   -2.2576    0.3150 H   0  0  0  0  0  0  0  0  0  0  0  0
   -2.0881   -1.3076    0.2527 H   0  0  0  0  0  0  0  0  0  0  0  0
   -0.3766   -0.8317   -1.8628 H   0  0  0  0  0  0  0  0  0  0  0  0
   -2.5273    0.4981   -1.1280 H   0  0  0  0  0  0  0  0  0  0  0  0
   -2.3180    0.9524    1.3706 H   0  0  0  0  0  0  0  0  0  0  0  0
  1  2  1  0
  2  3  1  0
  2  4  1  0
  4  5  1  0
  5  6  1  0
  6  7  1  0
  7  8  1  0
  8  9  1  0
  6  2  1  0
  9  7  1  0
  9  4  1  0
  1 10  1  0
  1 11  1  0
  1 12  1  0
  3 13  1  0
  3 14  1  0
  3 15  1  0
  4 16  1  0
  5 17  1  0
  5 18  1  0
  6 19  1  0
  7 20  1  0
  9 21  1  0
M  END
