
     RDKit          3D

 21 22  0  0  0  0  0  0  0  0999 V2000
   -1.4854   -1.3721    0.1832 C   0  0  0  0  0  0  0  0  0  0  0  0
   -0.7611   -0.1010   -0.1288 C   0  0  0  0  0  0  0  0  0  0  0  0
   -1.7143    1.0132   -0.3424 C   0  0  0  0  0  0  0  0  0  0  0  0
    0.1370    0.2536    1.0748 C   0  0  0  0  0  0  0  0  0  0  0  0
    1.4332   -0.1382    0.4744 C   0  0  0  0  0  0  0  0  0  0  0  0
    1.4633   -1.5594    0.3649 O   0  0  0  0  0  0  0  0  0  0  0  0
    2.3898    0.5288   -0.3015 C   0  0  0  0  0  0  0  0  0  0  0  0
    1.1159    0.6123   -0.8870 C   0  0  0  0  0  0  0  0  0  0  0  0
    0.1350   -0.2744   -1.2132 O   0  0  0  0  0  0  0  0  0  0  0  0
   -2.2328   -1.1452    0.9678 H   0  0  0  0  0  0  0  0  0  0  0  0
   -1.9516   -1.7518   -0.7509 H   0  0  0  0  0  0  0  0  0  0  0  0
   -0.7910   -2.1764    0.5307 H   0  0  0  0  0  0  0  0  0  0  0  0
   -2.1635    0.9903   -1.3543 H   0  0  0  0  0  0  0  0  0  0  0  0
   -1.2939    2.0212   -0.1646 H   0  0  0  0  0  0  0  0  0  0  0  0
   -2.5433    0.8919    0.3863 H   0  0  0  0  0  0  0  0  0  0  0  0
    0.1141    1.3414    1.2440 H   0  0  0  0  0  0  0  0  0  0  0  0
   -0.1429   -0.3399    1.9534 H   0  0  0  0  0  0  0  0  0  0  0  0
    1.6092   -1.8266   -0.5611 H   0  0  0  0  0  0  0  0  0  0  0  0
    3.1859   -0.0448   -0.8367 H   0  0  0  0  0  0  0  0  0  0  0  0
    2.8747    1.4486    0.1431 H   0  0  0  0  0  0  0  0  0  0  0  0
    0.6217    1.6286   -0.7822 H   0  0  0  0  0  0  0  0  0  0  0  0
  1  2  1  0
  2  3  1  0
  2  4  1  0
  4  5  1  0
  5  6  1  0
  5  7  1  0
  7  8  1  0
  8  9  1  0
  9  2  1  0
  8  5  1  0
  1 10  1  0
  1 11  1  0
  1 12  1  0
  3 13  1  0
  3 14  1  0
  3 15  1  0
  4 16  1  0
  4 17  1  0
  6 18  1  0
  7 19  1  0
  7 20  1  0
  8 21  1  0
M  END
