
     RDKit          3D

 23 24  0  0  0  0  0  0  0  0999 V2000
   -1.9076    1.2313   -0.0667 C   0  0  0  0  0  0  0  0  0  0  0  0
   -1.0259   -0.0130    0.0955 C   0  0  0  0  0  0  0  0  0  0  0  0
    0.3213    0.1132   -0.5289 C   0  0  0  0  0  0  0  0  0  0  0  0
    1.1498    1.2479    0.0383 C   0  0  0  0  0  0  0  0  0  0  0  0
    2.5590    0.8082   -0.2482 C   0  0  0  0  0  0  0  0  0  0  0  0
    2.5872   -0.4947   -0.4589 C   0  0  0  0  0  0  0  0  0  0  0  0
    1.2245   -1.0627   -0.3391 C   0  0  0  0  0  0  0  0  0  0  0  0
   -1.2821   -0.7719    1.3341 C   0  0  0  0  0  0  0  0  0  0  0  0
   -1.7649   -1.3035    0.0020 C   0  0  0  0  0  0  0  0  0  0  0  0
   -1.9362    1.5049   -1.1339 H   0  0  0  0  0  0  0  0  0  0  0  0
   -1.4524    2.0163    0.5554 H   0  0  0  0  0  0  0  0  0  0  0  0
   -2.9078    1.0228    0.3338 H   0  0  0  0  0  0  0  0  0  0  0  0
    0.1773    0.3478   -1.6188 H   0  0  0  0  0  0  0  0  0  0  0  0
    0.9981    2.1677   -0.5632 H   0  0  0  0  0  0  0  0  0  0  0  0
    0.9605    1.3845    1.1054 H   0  0  0  0  0  0  0  0  0  0  0  0
    3.4328    1.4423   -0.2822 H   0  0  0  0  0  0  0  0  0  0  0  0
    3.4657   -1.0704   -0.6853 H   0  0  0  0  0  0  0  0  0  0  0  0
    1.1283   -1.4630    0.6824 H   0  0  0  0  0  0  0  0  0  0  0  0
    1.0078   -1.8162   -1.1230 H   0  0  0  0  0  0  0  0  0  0  0  0
   -0.5122   -1.3352    1.8749 H   0  0  0  0  0  0  0  0  0  0  0  0
   -2.1218   -0.4645    2.0018 H   0  0  0  0  0  0  0  0  0  0  0  0
   -2.8565   -1.3025   -0.2207 H   0  0  0  0  0  0  0  0  0  0  0  0
   -1.2448   -2.1890   -0.4162 H   0  0  0  0  0  0  0  0  0  0  0  0
  1  2  1  0
  2  3  1  0
  3  4  1  0
  4  5  1  0
  5  6  2  0
  6  7  1  0
  2  8  1  0
  8  9  1  0
  9  2  1  0
  7  3  1  0
  1 10  1  0
  1 11  1  0
  1 12  1  0
  3 13  1  0
  4 14  1  0
  4 15  1  0
  5 16  1  0
  6 17  1  0
  7 18  1  0
  7 19  1  0
  8 20  1  0
  8 21  1  0
  9 22  1  0
  9 23  1  0
M  END
