
     RDKit          3D

 21 22  0  0  0  0  0  0  0  0999 V2000
   -1.5355    0.1846   -1.2756 C   0  0  0  0  0  0  0  0  0  0  0  0
   -0.6444   -0.3761   -0.1592 C   0  0  0  0  0  0  0  0  0  0  0  0
    0.8022   -0.4244   -0.5312 C   0  0  0  0  0  0  0  0  0  0  0  0
    1.5266    0.8267   -0.8893 C   0  0  0  0  0  0  0  0  0  0  0  0
    1.8646    0.0869    0.3824 C   0  0  0  0  0  0  0  0  0  0  0  0
    3.1323   -0.5359    0.3493 O   0  0  0  0  0  0  0  0  0  0  0  0
   -1.1464   -1.4046    0.7501 C   0  0  0  0  0  0  0  0  0  0  0  0
   -1.0946    0.0096    1.2029 C   0  0  0  0  0  0  0  0  0  0  0  0
   -2.3418    0.6148    1.3639 O   0  0  0  0  0  0  0  0  0  0  0  0
   -1.4374    1.2924   -1.1884 H   0  0  0  0  0  0  0  0  0  0  0  0
   -1.1310   -0.1182   -2.2491 H   0  0  0  0  0  0  0  0  0  0  0  0
   -2.5839   -0.0585   -1.1111 H   0  0  0  0  0  0  0  0  0  0  0  0
    1.0952   -1.3669   -1.0806 H   0  0  0  0  0  0  0  0  0  0  0  0
    2.2155    0.7511   -1.7469 H   0  0  0  0  0  0  0  0  0  0  0  0
    0.9617    1.7854   -0.8214 H   0  0  0  0  0  0  0  0  0  0  0  0
    1.6378    0.5245    1.3591 H   0  0  0  0  0  0  0  0  0  0  0  0
    3.7878    0.2236    0.4544 H   0  0  0  0  0  0  0  0  0  0  0  0
   -2.1193   -1.8925    0.5740 H   0  0  0  0  0  0  0  0  0  0  0  0
   -0.3937   -2.0925    1.2075 H   0  0  0  0  0  0  0  0  0  0  0  0
   -0.3277    0.3825    1.8942 H   0  0  0  0  0  0  0  0  0  0  0  0
   -2.2682    1.5873    1.5150 H   0  0  0  0  0  0  0  0  0  0  0  0
  1  2  1  0
  2  3  1  0
  3  4  1  0
  4  5  1  0
  5  6  1  0
  2  7  1  0
  7  8  1  0
  8  9  1  0
  8  2  1  0
  5  3  1  0
  1 10  1  0
  1 11  1  0
  1 12  1  0
  3 13  1  0
  4 14  1  0
  4 15  1  0
  5 16  1  0
  6 17  1  0
  7 18  1  0
  7 19  1  0
  8 20  1  0
  9 21  1  0
M  END
