
     RDKit          3D

 19 20  0  0  0  0  0  0  0  0999 V2000
    0.3704   -0.8667   -1.2850 C   0  0  0  0  0  0  0  0  0  0  0  0
    0.5517   -0.0277   -0.0410 C   0  0  0  0  0  0  0  0  0  0  0  0
   -0.5965   -0.0864    0.9332 C   0  0  0  0  0  0  0  0  0  0  0  0
   -1.8597    0.4124    0.2303 C   0  0  0  0  0  0  0  0  0  0  0  0
   -2.4168   -0.8291    0.5777 O   0  0  0  0  0  0  0  0  0  0  0  0
   -1.2464   -1.3814    1.0973 C   0  0  0  0  0  0  0  0  0  0  0  0
   -1.0224   -2.5605    1.5001 O   0  0  0  0  0  0  0  0  0  0  0  0
    1.9008    0.3866    0.3555 C   0  0  0  0  0  0  0  0  0  0  0  0
    1.0447    1.4032   -0.3078 C   0  0  0  0  0  0  0  0  0  0  0  0
    0.6021   -0.3103   -2.2167 H   0  0  0  0  0  0  0  0  0  0  0  0
    1.1108   -1.7156   -1.2620 H   0  0  0  0  0  0  0  0  0  0  0  0
   -0.6529   -1.2554   -1.3681 H   0  0  0  0  0  0  0  0  0  0  0  0
   -0.4349    0.5124    1.8588 H   0  0  0  0  0  0  0  0  0  0  0  0
   -2.3423    1.2795    0.7274 H   0  0  0  0  0  0  0  0  0  0  0  0
   -1.7712    0.5368   -0.8529 H   0  0  0  0  0  0  0  0  0  0  0  0
    2.7543   -0.0024   -0.2574 H   0  0  0  0  0  0  0  0  0  0  0  0
    2.1613    0.6009    1.4157 H   0  0  0  0  0  0  0  0  0  0  0  0
    1.2430    1.6780   -1.3733 H   0  0  0  0  0  0  0  0  0  0  0  0
    0.6038    2.2257    0.2680 H   0  0  0  0  0  0  0  0  0  0  0  0
  1  2  1  0
  2  3  1  0
  3  4  1  0
  4  5  1  0
  5  6  1  0
  6  7  2  0
  2  8  1  0
  8  9  1  0
  9  2  1  0
  6  3  1  0
  1 10  1  0
  1 11  1  0
  1 12  1  0
  3 13  1  0
  4 14  1  0
  4 15  1  0
  8 16  1  0
  8 17  1  0
  9 18  1  0
  9 19  1  0
M  END
