
     RDKit          3D

 16 17  0  0  0  0  0  0  0  0999 V2000
   -1.4986   -0.2292    0.8689 C   0  0  0  0  0  0  0  0  0  0  0  0
   -0.5121   -0.2264   -0.2976 C   0  0  0  0  0  0  0  0  0  0  0  0
   -1.2024   -0.5801   -1.4571 O   0  0  0  0  0  0  0  0  0  0  0  0
    0.0333    1.1359   -0.3560 C   0  0  0  0  0  0  0  0  0  0  0  0
    1.3123    1.1231   -0.0731 C   0  0  0  0  0  0  0  0  0  0  0  0
    1.7801   -0.2437    0.2084 C   0  0  0  0  0  0  0  0  0  0  0  0
    1.2037   -1.0398    1.1751 O   0  0  0  0  0  0  0  0  0  0  0  0
    0.6339   -1.1270   -0.0882 C   0  0  0  0  0  0  0  0  0  0  0  0
   -1.9761   -1.2030    1.0107 H   0  0  0  0  0  0  0  0  0  0  0  0
   -2.2440    0.5631    0.6490 H   0  0  0  0  0  0  0  0  0  0  0  0
   -0.9407    0.1256    1.7772 H   0  0  0  0  0  0  0  0  0  0  0  0
   -1.6568    0.1855   -1.8590 H   0  0  0  0  0  0  0  0  0  0  0  0
   -0.5256    2.0702   -0.6015 H   0  0  0  0  0  0  0  0  0  0  0  0
    1.9600    1.9974   -0.0449 H   0  0  0  0  0  0  0  0  0  0  0  0
    2.7896   -0.5539   -0.1774 H   0  0  0  0  0  0  0  0  0  0  0  0
    0.8433   -1.9977   -0.7343 H   0  0  0  0  0  0  0  0  0  0  0  0
  1  2  1  0
  2  3  1  0
  2  4  1  0
  4  5  2  0
  5  6  1  0
  6  7  1  0
  7  8  1  0
  8  2  1  0
  8  6  1  0
  1  9  1  0
  1 10  1  0
  1 11  1  0
  3 12  1  0
  4 13  1  0
  5 14  1  0
  6 15  1  0
  8 16  1  0
M  END
