
     RDKit          3D

 21 21  0  0  0  0  0  0  0  0999 V2000
   -1.2760    0.5328   -1.4137 C   0  0  0  0  0  0  0  0  0  0  0  0
   -1.2408   -0.4027   -0.2222 C   0  0  0  0  0  0  0  0  0  0  0  0
   -0.0860   -1.3548   -0.1656 C   0  0  0  0  0  0  0  0  0  0  0  0
    1.1400   -0.5405   -0.1265 C   0  0  0  0  0  0  0  0  0  0  0  0
    2.1532    0.1329   -0.1154 C   0  0  0  0  0  0  0  0  0  0  0  0
    3.3904    0.9293   -0.0970 C   0  0  0  0  0  0  0  0  0  0  0  0
    3.1330    2.1375    0.5017 O   0  0  0  0  0  0  0  0  0  0  0  0
   -1.9314    0.0043    1.0223 C   0  0  0  0  0  0  0  0  0  0  0  0
   -2.6021   -1.0191    0.1117 C   0  0  0  0  0  0  0  0  0  0  0  0
   -2.0777    1.2884   -1.3223 H   0  0  0  0  0  0  0  0  0  0  0  0
   -1.4349   -0.1027   -2.3097 H   0  0  0  0  0  0  0  0  0  0  0  0
   -0.2738    1.0065   -1.5500 H   0  0  0  0  0  0  0  0  0  0  0  0
   -0.1174   -1.9857   -1.0761 H   0  0  0  0  0  0  0  0  0  0  0  0
   -0.1449   -2.0289    0.6955 H   0  0  0  0  0  0  0  0  0  0  0  0
    3.7638    1.0892   -1.1468 H   0  0  0  0  0  0  0  0  0  0  0  0
    4.1774    0.3449    0.4598 H   0  0  0  0  0  0  0  0  0  0  0  0
    3.5152    2.0921    1.4314 H   0  0  0  0  0  0  0  0  0  0  0  0
   -2.4052    1.0153    1.0538 H   0  0  0  0  0  0  0  0  0  0  0  0
   -1.5782   -0.3780    2.0118 H   0  0  0  0  0  0  0  0  0  0  0  0
   -2.6235   -2.0732    0.4348 H   0  0  0  0  0  0  0  0  0  0  0  0
   -3.4811   -0.6878   -0.4750 H   0  0  0  0  0  0  0  0  0  0  0  0
  1  2  1  0
  2  3  1  0
  3  4  1  0
  4  5  3  0
  5  6  1  0
  6  7  1  0
  2  8  1  0
  8  9  1  0
  9  2  1  0
  1 10  1  0
  1 11  1  0
  1 12  1  0
  3 13  1  0
  3 14  1  0
  6 15  1  0
  6 16  1  0
  7 17  1  0
  8 18  1  0
  8 19  1  0
  9 20  1  0
  9 21  1  0
M  END
