
     RDKit          3D

 21 22  0  0  0  0  0  0  0  0999 V2000
    1.0078   -1.3414    0.8125 C   0  0  0  0  0  0  0  0  0  0  0  0
    0.5778   -0.0947    0.0796 C   0  0  0  0  0  0  0  0  0  0  0  0
   -0.8331    0.2486    0.4241 C   0  0  0  0  0  0  0  0  0  0  0  0
   -1.0494    0.4934    1.7963 O   0  0  0  0  0  0  0  0  0  0  0  0
   -1.7957    0.8035   -0.5155 C   0  0  0  0  0  0  0  0  0  0  0  0
   -1.8689   -0.6520   -0.2783 C   0  0  0  0  0  0  0  0  0  0  0  0
    1.5764    1.0274    0.1222 C   0  0  0  0  0  0  0  0  0  0  0  0
    1.2245    1.3380   -1.1858 O   0  0  0  0  0  0  0  0  0  0  0  0
    0.9386   -0.0226   -1.3680 C   0  0  0  0  0  0  0  0  0  0  0  0
    0.0992   -1.9393    1.1180 H   0  0  0  0  0  0  0  0  0  0  0  0
    1.7155   -1.9548    0.2441 H   0  0  0  0  0  0  0  0  0  0  0  0
    1.4648   -1.0177    1.7733 H   0  0  0  0  0  0  0  0  0  0  0  0
   -0.6697    1.4090    1.9652 H   0  0  0  0  0  0  0  0  0  0  0  0
   -1.5173    1.1604   -1.5282 H   0  0  0  0  0  0  0  0  0  0  0  0
   -2.6499    1.3912   -0.0937 H   0  0  0  0  0  0  0  0  0  0  0  0
   -1.5175   -1.2923   -1.1045 H   0  0  0  0  0  0  0  0  0  0  0  0
   -2.5846   -1.1138    0.4026 H   0  0  0  0  0  0  0  0  0  0  0  0
    2.6184    0.6173    0.1199 H   0  0  0  0  0  0  0  0  0  0  0  0
    1.3425    1.7622    0.8889 H   0  0  0  0  0  0  0  0  0  0  0  0
    1.8137   -0.6496   -1.5896 H   0  0  0  0  0  0  0  0  0  0  0  0
    0.1069   -0.1726   -2.0830 H   0  0  0  0  0  0  0  0  0  0  0  0
  1  2  1  0
  2  3  1  0
  3  4  1  0
  3  5  1  0
  5  6  1  0
  2  7  1  0
  7  8  1  0
  8  9  1  0
  9  2  1  0
  6  3  1  0
  1 10  1  0
  1 11  1  0
  1 12  1  0
  4 13  1  0
  5 14  1  0
  5 15  1  0
  6 16  1  0
  6 17  1  0
  7 18  1  0
  7 19  1  0
  9 20  1  0
  9 21  1  0
M  END
