
     RDKit          3D

 21 22  0  0  0  0  0  0  0  0999 V2000
    1.9808   -1.1394    0.4438 C   0  0  0  0  0  0  0  0  0  0  0  0
    1.1540   -0.0492   -0.2396 C   0  0  0  0  0  0  0  0  0  0  0  0
    1.9622    0.9784   -0.9647 C   0  0  0  0  0  0  0  0  0  0  0  0
    0.1447   -0.7432   -1.0830 O   0  0  0  0  0  0  0  0  0  0  0  0
   -0.1663    0.1361    0.0910 C   0  0  0  0  0  0  0  0  0  0  0  0
   -1.0143    1.2395   -0.3789 C   0  0  0  0  0  0  0  0  0  0  0  0
   -2.2781    0.8881   -0.2310 C   0  0  0  0  0  0  0  0  0  0  0  0
   -2.3848   -0.4879    0.3554 C   0  0  0  0  0  0  0  0  0  0  0  0
   -1.0203   -0.6119    1.0536 C   0  0  0  0  0  0  0  0  0  0  0  0
    1.3451   -1.8205    1.0346 H   0  0  0  0  0  0  0  0  0  0  0  0
    2.4531   -1.7173   -0.4040 H   0  0  0  0  0  0  0  0  0  0  0  0
    2.7570   -0.7274    1.0828 H   0  0  0  0  0  0  0  0  0  0  0  0
    1.9386    0.8734   -2.0594 H   0  0  0  0  0  0  0  0  0  0  0  0
    2.9914    1.0194   -0.5578 H   0  0  0  0  0  0  0  0  0  0  0  0
    1.4944    1.9758   -0.7454 H   0  0  0  0  0  0  0  0  0  0  0  0
   -0.6727    2.2174   -0.7941 H   0  0  0  0  0  0  0  0  0  0  0  0
   -3.1393    1.4818   -0.4854 H   0  0  0  0  0  0  0  0  0  0  0  0
   -2.5213   -1.2525   -0.4142 H   0  0  0  0  0  0  0  0  0  0  0  0
   -3.2138   -0.5579    1.0815 H   0  0  0  0  0  0  0  0  0  0  0  0
   -0.7423   -1.6556    1.2186 H   0  0  0  0  0  0  0  0  0  0  0  0
   -1.0679   -0.0471    1.9960 H   0  0  0  0  0  0  0  0  0  0  0  0
  1  2  1  0
  2  3  1  0
  2  4  1  0
  4  5  1  0
  5  6  1  0
  6  7  2  0
  7  8  1  0
  8  9  1  0
  5  2  1  0
  9  5  1  0
  1 10  1  0
  1 11  1  0
  1 12  1  0
  3 13  1  0
  3 14  1  0
  3 15  1  0
  6 16  1  0
  7 17  1  0
  8 18  1  0
  8 19  1  0
  9 20  1  0
  9 21  1  0
M  END
