
     RDKit          3D

 19 19  0  0  0  0  0  0  0  0999 V2000
   -1.7651    0.5825   -0.8518 C   0  0  0  0  0  0  0  0  0  0  0  0
   -0.6265    0.0484   -0.0003 C   0  0  0  0  0  0  0  0  0  0  0  0
   -1.1756   -0.5517    1.3035 C   0  0  0  0  0  0  0  0  0  0  0  0
    0.2080    1.0727    0.3759 O   0  0  0  0  0  0  0  0  0  0  0  0
    1.4606    1.0057   -0.2054 C   0  0  0  0  0  0  0  0  0  0  0  0
    2.1812   -0.2704    0.2539 C   0  0  0  0  0  0  0  0  0  0  0  0
    1.3830   -1.3286   -0.2694 O   0  0  0  0  0  0  0  0  0  0  0  0
    0.1082   -1.0313   -0.6748 C   0  0  0  0  0  0  0  0  0  0  0  0
   -0.4176   -1.6696   -1.6025 O   0  0  0  0  0  0  0  0  0  0  0  0
   -1.9668   -0.1014   -1.7168 H   0  0  0  0  0  0  0  0  0  0  0  0
   -2.6811    0.5917   -0.2165 H   0  0  0  0  0  0  0  0  0  0  0  0
   -1.5237    1.6063   -1.2045 H   0  0  0  0  0  0  0  0  0  0  0  0
   -1.1183    0.1878    2.1276 H   0  0  0  0  0  0  0  0  0  0  0  0
   -2.2328   -0.9056    1.1512 H   0  0  0  0  0  0  0  0  0  0  0  0
   -0.5896   -1.4633    1.5888 H   0  0  0  0  0  0  0  0  0  0  0  0
    2.0286    1.8899    0.1318 H   0  0  0  0  0  0  0  0  0  0  0  0
    1.3284    0.9600   -1.2951 H   0  0  0  0  0  0  0  0  0  0  0  0
    3.1606   -0.3344   -0.2504 H   0  0  0  0  0  0  0  0  0  0  0  0
    2.2384   -0.2887    1.3549 H   0  0  0  0  0  0  0  0  0  0  0  0
  1  2  1  0
  2  3  1  0
  2  4  1  0
  4  5  1  0
  5  6  1  0
  6  7  1  0
  7  8  1  0
  8  9  2  0
  8  2  1  0
  1 10  1  0
  1 11  1  0
  1 12  1  0
  3 13  1  0
  3 14  1  0
  3 15  1  0
  5 16  1  0
  5 17  1  0
  6 18  1  0
  6 19  1  0
M  END
