
     RDKit          3D

 23 23  0  0  0  0  0  0  0  0999 V2000
   -1.8408    1.1002   -0.1434 C   0  0  0  0  0  0  0  0  0  0  0  0
   -0.8309   -0.0647   -0.1414 C   0  0  0  0  0  0  0  0  0  0  0  0
   -1.6512   -1.2787   -0.6265 C   0  0  0  0  0  0  0  0  0  0  0  0
    0.1300    0.2282   -1.1767 C   0  0  0  0  0  0  0  0  0  0  0  0
    1.3874    0.5589   -1.1964 C   0  0  0  0  0  0  0  0  0  0  0  0
    2.3018    0.7545   -0.0689 C   0  0  0  0  0  0  0  0  0  0  0  0
    2.0852   -0.3687    0.8884 C   0  0  0  0  0  0  0  0  0  0  0  0
    0.9632   -0.7797    1.4329 C   0  0  0  0  0  0  0  0  0  0  0  0
   -0.3796   -0.2482    1.2492 C   0  0  0  0  0  0  0  0  0  0  0  0
   -1.2872    2.0671   -0.3092 H   0  0  0  0  0  0  0  0  0  0  0  0
   -2.3464    1.1961    0.8222 H   0  0  0  0  0  0  0  0  0  0  0  0
   -2.5947    0.9483   -0.9458 H   0  0  0  0  0  0  0  0  0  0  0  0
   -0.9481   -2.1496   -0.5842 H   0  0  0  0  0  0  0  0  0  0  0  0
   -2.5517   -1.4222   -0.0203 H   0  0  0  0  0  0  0  0  0  0  0  0
   -1.8693   -1.0576   -1.6951 H   0  0  0  0  0  0  0  0  0  0  0  0
   -0.3022    0.1542   -2.1920 H   0  0  0  0  0  0  0  0  0  0  0  0
    1.8582    0.7212   -2.1805 H   0  0  0  0  0  0  0  0  0  0  0  0
    3.3616    0.7398   -0.3995 H   0  0  0  0  0  0  0  0  0  0  0  0
    2.1654    1.7515    0.4379 H   0  0  0  0  0  0  0  0  0  0  0  0
    2.9598   -0.9304    1.1841 H   0  0  0  0  0  0  0  0  0  0  0  0
    1.0617   -1.6162    2.0987 H   0  0  0  0  0  0  0  0  0  0  0  0
   -0.5739    0.6836    1.8488 H   0  0  0  0  0  0  0  0  0  0  0  0
   -1.0984   -0.9875    1.7175 H   0  0  0  0  0  0  0  0  0  0  0  0
  1  2  1  0
  2  3  1  0
  2  4  1  0
  4  5  2  0
  5  6  1  0
  6  7  1  0
  7  8  2  0
  8  9  1  0
  9  2  1  0
  1 10  1  0
  1 11  1  0
  1 12  1  0
  3 13  1  0
  3 14  1  0
  3 15  1  0
  4 16  1  0
  5 17  1  0
  6 18  1  0
  6 19  1  0
  7 20  1  0
  8 21  1  0
  9 22  1  0
  9 23  1  0
M  END
