
     RDKit          3D

 19 20  0  0  0  0  0  0  0  0999 V2000
    1.5356   -0.8481   -0.1386 C   0  0  0  0  0  0  0  0  0  0  0  0
    0.4274    0.1367   -0.0448 C   0  0  0  0  0  0  0  0  0  0  0  0
    0.8901    1.5407    0.0226 C   0  0  0  0  0  0  0  0  0  0  0  0
   -0.7691   -0.0601   -0.8962 C   0  0  0  0  0  0  0  0  0  0  0  0
   -1.5631    0.6091    0.2141 C   0  0  0  0  0  0  0  0  0  0  0  0
   -0.6198   -0.3020    0.9352 C   0  0  0  0  0  0  0  0  0  0  0  0
   -1.0026   -1.3257   -0.1089 C   0  0  0  0  0  0  0  0  0  0  0  0
    1.5892   -1.4193    0.8351 H   0  0  0  0  0  0  0  0  0  0  0  0
    1.5153   -1.5133   -1.0006 H   0  0  0  0  0  0  0  0  0  0  0  0
    2.5289   -0.3112   -0.1786 H   0  0  0  0  0  0  0  0  0  0  0  0
    0.3131    2.1793   -0.6706 H   0  0  0  0  0  0  0  0  0  0  0  0
    0.9186    1.8792    1.0539 H   0  0  0  0  0  0  0  0  0  0  0  0
    1.9520    1.5840   -0.3573 H   0  0  0  0  0  0  0  0  0  0  0  0
   -0.8997    0.0760   -1.8749 H   0  0  0  0  0  0  0  0  0  0  0  0
   -1.3430    1.6582    0.3998 H   0  0  0  0  0  0  0  0  0  0  0  0
   -2.6261    0.3043    0.2681 H   0  0  0  0  0  0  0  0  0  0  0  0
   -0.5257   -0.4532    1.9168 H   0  0  0  0  0  0  0  0  0  0  0  0
   -0.2691   -2.1213   -0.2209 H   0  0  0  0  0  0  0  0  0  0  0  0
   -2.0519   -1.6131   -0.1542 H   0  0  0  0  0  0  0  0  0  0  0  0
  1  2  1  0
  2  3  1  0
  2  4  1  0
  4  5  1  0
  5  6  1  0
  6  7  1  0
  6  2  1  0
  7  4  1  0
  1  8  1  0
  1  9  1  0
  1 10  1  0
  3 11  1  0
  3 12  1  0
  3 13  1  0
  4 14  1  0
  5 15  1  0
  5 16  1  0
  6 17  1  0
  7 18  1  0
  7 19  1  0
M  END
