
     RDKit          3D

 21 22  0  0  0  0  0  0  0  0999 V2000
   -2.3481    1.1151   -0.0601 C   0  0  0  0  0  0  0  0  0  0  0  0
   -1.3486   -0.0087    0.0689 C   0  0  0  0  0  0  0  0  0  0  0  0
   -0.3033    0.1253    1.1280 C   0  0  0  0  0  0  0  0  0  0  0  0
    0.9231    0.5584    0.7251 O   0  0  0  0  0  0  0  0  0  0  0  0
    1.5974   -0.2351   -0.1741 C   0  0  0  0  0  0  0  0  0  0  0  0
    2.2904    0.4630   -1.3378 C   0  0  0  0  0  0  0  0  0  0  0  0
    3.0989   -0.1417   -0.2399 C   0  0  0  0  0  0  0  0  0  0  0  0
   -2.0052   -1.3891   -0.0620 C   0  0  0  0  0  0  0  0  0  0  0  0
   -1.1108   -0.8673   -0.9576 O   0  0  0  0  0  0  0  0  0  0  0  0
   -2.6832    1.3801    0.9736 H   0  0  0  0  0  0  0  0  0  0  0  0
   -1.9208    1.9990   -0.5823 H   0  0  0  0  0  0  0  0  0  0  0  0
   -3.2439    0.7876   -0.6262 H   0  0  0  0  0  0  0  0  0  0  0  0
   -0.7250    0.8269    1.9082 H   0  0  0  0  0  0  0  0  0  0  0  0
   -0.2190   -0.8444    1.6990 H   0  0  0  0  0  0  0  0  0  0  0  0
    1.1006   -1.1749   -0.4896 H   0  0  0  0  0  0  0  0  0  0  0  0
    2.1541    1.5646   -1.3620 H   0  0  0  0  0  0  0  0  0  0  0  0
    2.2894   -0.0228   -2.3334 H   0  0  0  0  0  0  0  0  0  0  0  0
    3.6465   -1.0837   -0.4092 H   0  0  0  0  0  0  0  0  0  0  0  0
    3.5699    0.5163    0.5274 H   0  0  0  0  0  0  0  0  0  0  0  0
   -1.7071   -2.1207    0.7000 H   0  0  0  0  0  0  0  0  0  0  0  0
   -3.0556   -1.4478   -0.4131 H   0  0  0  0  0  0  0  0  0  0  0  0
  1  2  1  0
  2  3  1  0
  3  4  1  0
  4  5  1  0
  5  6  1  0
  6  7  1  0
  2  8  1  0
  8  9  1  0
  9  2  1  0
  7  5  1  0
  1 10  1  0
  1 11  1  0
  1 12  1  0
  3 13  1  0
  3 14  1  0
  5 15  1  0
  6 16  1  0
  6 17  1  0
  7 18  1  0
  7 19  1  0
  8 20  1  0
  8 21  1  0
M  END
