
     RDKit          3D

 20 21  0  0  0  0  0  0  0  0999 V2000
    1.4858   -1.4223    0.4128 C   0  0  0  0  0  0  0  0  0  0  0  0
    0.9790   -0.2262   -0.4119 C   0  0  0  0  0  0  0  0  0  0  0  0
    1.8007   -0.0872   -1.5624 O   0  0  0  0  0  0  0  0  0  0  0  0
    0.5130    0.8698    0.3562 C   0  0  0  0  0  0  0  0  0  0  0  0
   -0.8549    1.1725    0.9177 C   0  0  0  0  0  0  0  0  0  0  0  0
   -1.1348    1.3729   -0.5858 C   0  0  0  0  0  0  0  0  0  0  0  0
   -0.4067    0.0457   -0.6378 C   0  0  0  0  0  0  0  0  0  0  0  0
   -1.2770   -1.0388   -0.0321 C   0  0  0  0  0  0  0  0  0  0  0  0
    1.3322   -2.3720   -0.1040 H   0  0  0  0  0  0  0  0  0  0  0  0
    1.1014   -1.3872    1.4494 H   0  0  0  0  0  0  0  0  0  0  0  0
    2.5935   -1.2221    0.5159 H   0  0  0  0  0  0  0  0  0  0  0  0
    2.4699    0.6100   -1.4453 H   0  0  0  0  0  0  0  0  0  0  0  0
    0.8826    1.8551   -0.0862 H   0  0  0  0  0  0  0  0  0  0  0  0
   -1.4054    0.3842    1.4050 H   0  0  0  0  0  0  0  0  0  0  0  0
   -0.8879    2.0911    1.5106 H   0  0  0  0  0  0  0  0  0  0  0  0
   -2.1760    1.2725   -0.8687 H   0  0  0  0  0  0  0  0  0  0  0  0
   -0.5732    2.2395   -0.9480 H   0  0  0  0  0  0  0  0  0  0  0  0
   -2.3472   -0.7860    0.0353 H   0  0  0  0  0  0  0  0  0  0  0  0
   -0.8497   -1.4938    0.8750 H   0  0  0  0  0  0  0  0  0  0  0  0
   -1.2456   -1.8777   -0.7959 H   0  0  0  0  0  0  0  0  0  0  0  0
  1  2  1  0
  2  3  1  0
  2  4  1  0
  4  5  1  0
  5  6  1  0
  6  7  1  0
  7  8  1  0
  7  2  1  0
  7  4  1  0
  1  9  1  0
  1 10  1  0
  1 11  1  0
  3 12  1  0
  4 13  1  0
  5 14  1  0
  5 15  1  0
  6 16  1  0
  6 17  1  0
  8 18  1  0
  8 19  1  0
  8 20  1  0
M  END
