
     RDKit          3D

 21 21  0  0  0  0  0  0  0  0999 V2000
    0.6125   -1.4271    1.0280 C   0  0  0  0  0  0  0  0  0  0  0  0
    0.1316   -0.1702    0.3840 C   0  0  0  0  0  0  0  0  0  0  0  0
   -0.4279    0.7782    1.3854 C   0  0  0  0  0  0  0  0  0  0  0  0
    1.1650    0.5322   -0.4408 C   0  0  0  0  0  0  0  0  0  0  0  0
    1.7303   -0.3418   -1.3886 O   0  0  0  0  0  0  0  0  0  0  0  0
    0.3052    1.4774   -1.2075 C   0  0  0  0  0  0  0  0  0  0  0  0
   -0.8923    0.9242   -1.3443 C   0  0  0  0  0  0  0  0  0  0  0  0
   -0.9203   -0.4149   -0.6865 C   0  0  0  0  0  0  0  0  0  0  0  0
   -2.1095   -0.6834   -0.0579 O   0  0  0  0  0  0  0  0  0  0  0  0
   -0.2607   -1.9066    1.5234 H   0  0  0  0  0  0  0  0  0  0  0  0
    1.3070   -1.1421    1.8352 H   0  0  0  0  0  0  0  0  0  0  0  0
    1.0328   -2.1502    0.3280 H   0  0  0  0  0  0  0  0  0  0  0  0
    0.3773    1.5060    1.6683 H   0  0  0  0  0  0  0  0  0  0  0  0
   -0.8618    0.2709    2.2524 H   0  0  0  0  0  0  0  0  0  0  0  0
   -1.2292    1.4104    0.9182 H   0  0  0  0  0  0  0  0  0  0  0  0
    1.9392    1.0449    0.1510 H   0  0  0  0  0  0  0  0  0  0  0  0
    2.4083   -0.9309   -1.0025 H   0  0  0  0  0  0  0  0  0  0  0  0
    0.6497    2.4372   -1.5668 H   0  0  0  0  0  0  0  0  0  0  0  0
   -1.7245    1.3670   -1.8517 H   0  0  0  0  0  0  0  0  0  0  0  0
   -0.6030   -1.1912   -1.4138 H   0  0  0  0  0  0  0  0  0  0  0  0
   -2.6296   -1.3900   -0.5132 H   0  0  0  0  0  0  0  0  0  0  0  0
  1  2  1  0
  2  3  1  0
  2  4  1  0
  4  5  1  0
  4  6  1  0
  6  7  2  0
  7  8  1  0
  8  9  1  0
  8  2  1  0
  1 10  1  0
  1 11  1  0
  1 12  1  0
  3 13  1  0
  3 14  1  0
  3 15  1  0
  4 16  1  0
  5 17  1  0
  6 18  1  0
  7 19  1  0
  8 20  1  0
  9 21  1  0
M  END
