
     RDKit          3D

 18 19  0  0  0  0  0  0  0  0999 V2000
   -1.3238   -0.7619   -1.0152 C   0  0  0  0  0  0  0  0  0  0  0  0
   -0.4522   -0.3752    0.1534 C   0  0  0  0  0  0  0  0  0  0  0  0
   -1.2586    0.3577    1.2008 C   0  0  0  0  0  0  0  0  0  0  0  0
    0.2601   -1.4568    0.7214 O   0  0  0  0  0  0  0  0  0  0  0  0
    1.5334   -0.9149    0.4307 C   0  0  0  0  0  0  0  0  0  0  0  0
    0.8595    0.2263   -0.2108 C   0  0  0  0  0  0  0  0  0  0  0  0
    1.2330    1.5173   -0.4316 C   0  0  0  0  0  0  0  0  0  0  0  0
    1.2001    0.5285   -1.5014 O   0  0  0  0  0  0  0  0  0  0  0  0
   -0.6988   -0.7020   -1.9307 H   0  0  0  0  0  0  0  0  0  0  0  0
   -1.7302   -1.7672   -0.8210 H   0  0  0  0  0  0  0  0  0  0  0  0
   -2.1864   -0.0677   -1.0939 H   0  0  0  0  0  0  0  0  0  0  0  0
   -0.6435    0.7155    2.0413 H   0  0  0  0  0  0  0  0  0  0  0  0
   -1.8043    1.1818    0.7065 H   0  0  0  0  0  0  0  0  0  0  0  0
   -1.9902   -0.3743    1.6416 H   0  0  0  0  0  0  0  0  0  0  0  0
    2.1786   -0.7552    1.2907 H   0  0  0  0  0  0  0  0  0  0  0  0
    2.0660   -1.5870   -0.3044 H   0  0  0  0  0  0  0  0  0  0  0  0
    2.2464    1.9145   -0.2107 H   0  0  0  0  0  0  0  0  0  0  0  0
    0.5108    2.3206   -0.6667 H   0  0  0  0  0  0  0  0  0  0  0  0
  1  2  1  0
  2  3  1  0
  2  4  1  0
  4  5  1  0
  5  6  1  0
  6  7  1  0
  7  8  1  0
  6  2  1  0
  8  6  1  0
  1  9  1  0
  1 10  1  0
  1 11  1  0
  3 12  1  0
  3 13  1  0
  3 14  1  0
  5 15  1  0
  5 16  1  0
  7 17  1  0
  7 18  1  0
M  END
