
     RDKit          3D

 25 26  0  0  0  0  0  0  0  0999 V2000
   -0.6558    1.6545    0.1134 C   0  0  0  0  0  0  0  0  0  0  0  0
   -0.6060    0.1875    0.0077 C   0  0  0  0  0  0  0  0  0  0  0  0
    0.7082   -0.4991   -0.1343 C   0  0  0  0  0  0  0  0  0  0  0  0
    1.6949   -0.2937    0.9806 C   0  0  0  0  0  0  0  0  0  0  0  0
    2.8055   -0.0766   -0.0430 C   0  0  0  0  0  0  0  0  0  0  0  0
    1.6989    0.0427   -1.0935 C   0  0  0  0  0  0  0  0  0  0  0  0
   -1.6166   -0.3063   -1.0108 C   0  0  0  0  0  0  0  0  0  0  0  0
   -2.5713   -0.7384    0.0814 C   0  0  0  0  0  0  0  0  0  0  0  0
   -1.4473   -0.5092    1.0736 C   0  0  0  0  0  0  0  0  0  0  0  0
   -0.6389    2.0905   -0.9241 H   0  0  0  0  0  0  0  0  0  0  0  0
    0.1513    2.1326    0.6854 H   0  0  0  0  0  0  0  0  0  0  0  0
   -1.6110    1.9762    0.5667 H   0  0  0  0  0  0  0  0  0  0  0  0
    0.5600   -1.5890   -0.3001 H   0  0  0  0  0  0  0  0  0  0  0  0
    1.8880   -1.1688    1.6276 H   0  0  0  0  0  0  0  0  0  0  0  0
    1.5499    0.6132    1.5946 H   0  0  0  0  0  0  0  0  0  0  0  0
    3.3705    0.8536    0.1339 H   0  0  0  0  0  0  0  0  0  0  0  0
    3.4289   -0.9716   -0.1530 H   0  0  0  0  0  0  0  0  0  0  0  0
    1.9723   -0.5965   -1.9635 H   0  0  0  0  0  0  0  0  0  0  0  0
    1.6176    1.0852   -1.4076 H   0  0  0  0  0  0  0  0  0  0  0  0
   -1.2182   -1.1456   -1.6345 H   0  0  0  0  0  0  0  0  0  0  0  0
   -2.0329    0.4651   -1.6745 H   0  0  0  0  0  0  0  0  0  0  0  0
   -3.4400   -0.0891    0.2398 H   0  0  0  0  0  0  0  0  0  0  0  0
   -2.8403   -1.8152   -0.0656 H   0  0  0  0  0  0  0  0  0  0  0  0
   -1.0404   -1.4844    1.4040 H   0  0  0  0  0  0  0  0  0  0  0  0
   -1.7275    0.1824    1.8958 H   0  0  0  0  0  0  0  0  0  0  0  0
  1  2  1  0
  2  3  1  0
  3  4  1  0
  4  5  1  0
  5  6  1  0
  2  7  1  0
  7  8  1  0
  8  9  1  0
  9  2  1  0
  6  3  1  0
  1 10  1  0
  1 11  1  0
  1 12  1  0
  3 13  1  0
  4 14  1  0
  4 15  1  0
  5 16  1  0
  5 17  1  0
  6 18  1  0
  6 19  1  0
  7 20  1  0
  7 21  1  0
  8 22  1  0
  8 23  1  0
  9 24  1  0
  9 25  1  0
M  END
