
     RDKit          3D

 19 20  0  0  0  0  0  0  0  0999 V2000
   -1.6154   -1.2843    0.1770 C   0  0  0  0  0  0  0  0  0  0  0  0
   -0.7865   -0.0264    0.2188 C   0  0  0  0  0  0  0  0  0  0  0  0
   -1.6683    1.1808    0.3044 C   0  0  0  0  0  0  0  0  0  0  0  0
   -1.5395    2.0103    1.2144 O   0  0  0  0  0  0  0  0  0  0  0  0
    0.0341    0.0003   -1.0633 C   0  0  0  0  0  0  0  0  0  0  0  0
    1.3920    0.4178   -0.6226 C   0  0  0  0  0  0  0  0  0  0  0  0
    2.2538   -0.3961    0.2352 C   0  0  0  0  0  0  0  0  0  0  0  0
    1.2790    0.5486    0.8476 C   0  0  0  0  0  0  0  0  0  0  0  0
    0.0918    0.0089    1.2680 O   0  0  0  0  0  0  0  0  0  0  0  0
   -1.5749   -1.7512    1.1567 H   0  0  0  0  0  0  0  0  0  0  0  0
   -1.2141   -2.0172   -0.5788 H   0  0  0  0  0  0  0  0  0  0  0  0
   -2.6303   -1.0063   -0.1699 H   0  0  0  0  0  0  0  0  0  0  0  0
   -2.4391    1.3383   -0.4443 H   0  0  0  0  0  0  0  0  0  0  0  0
   -0.4190    0.7641   -1.7129 H   0  0  0  0  0  0  0  0  0  0  0  0
   -0.0038   -0.9588   -1.6060 H   0  0  0  0  0  0  0  0  0  0  0  0
    1.8573    1.2425   -1.2081 H   0  0  0  0  0  0  0  0  0  0  0  0
    2.0705   -1.4857    0.4085 H   0  0  0  0  0  0  0  0  0  0  0  0
    3.3082   -0.1058    0.3111 H   0  0  0  0  0  0  0  0  0  0  0  0
    1.6043    1.5203    1.2643 H   0  0  0  0  0  0  0  0  0  0  0  0
  1  2  1  0
  2  3  1  0
  3  4  2  0
  2  5  1  0
  5  6  1  0
  6  7  1  0
  7  8  1  0
  8  9  1  0
  9  2  1  0
  8  6  1  0
  1 10  1  0
  1 11  1  0
  1 12  1  0
  3 13  1  0
  5 14  1  0
  5 15  1  0
  6 16  1  0
  7 17  1  0
  7 18  1  0
  8 19  1  0
M  END
