
     RDKit          3D

 18 18  0  0  0  0  0  0  0  0999 V2000
   -1.1700    0.4539    1.0355 C   0  0  0  0  0  0  0  0  0  0  0  0
   -0.3191   -0.2699    0.0417 C   0  0  0  0  0  0  0  0  0  0  0  0
   -0.9542   -1.4665   -0.5715 C   0  0  0  0  0  0  0  0  0  0  0  0
    1.0050   -0.6804    0.6326 C   0  0  0  0  0  0  0  0  0  0  0  0
    1.9138    0.2510    0.3978 C   0  0  0  0  0  0  0  0  0  0  0  0
    1.3005    1.3405   -0.3501 C   0  0  0  0  0  0  0  0  0  0  0  0
    1.7340    2.5289   -0.4133 O   0  0  0  0  0  0  0  0  0  0  0  0
    0.0935    0.7774   -1.0039 C   0  0  0  0  0  0  0  0  0  0  0  0
   -1.9625    0.9976    0.4464 H   0  0  0  0  0  0  0  0  0  0  0  0
   -0.5482    1.2638    1.4797 H   0  0  0  0  0  0  0  0  0  0  0  0
   -1.6405   -0.1951    1.7926 H   0  0  0  0  0  0  0  0  0  0  0  0
   -0.6051   -2.4324   -0.1083 H   0  0  0  0  0  0  0  0  0  0  0  0
   -0.6008   -1.5261   -1.6401 H   0  0  0  0  0  0  0  0  0  0  0  0
   -2.0438   -1.4798   -0.5708 H   0  0  0  0  0  0  0  0  0  0  0  0
    1.1854   -1.5976    1.1677 H   0  0  0  0  0  0  0  0  0  0  0  0
    2.9744    0.2259    0.7105 H   0  0  0  0  0  0  0  0  0  0  0  0
   -0.6921    1.5548   -1.1123 H   0  0  0  0  0  0  0  0  0  0  0  0
    0.3298    0.2539   -1.9341 H   0  0  0  0  0  0  0  0  0  0  0  0
  1  2  1  0
  2  3  1  0
  2  4  1  0
  4  5  2  0
  5  6  1  0
  6  7  2  0
  6  8  1  0
  8  2  1  0
  1  9  1  0
  1 10  1  0
  1 11  1  0
  3 12  1  0
  3 13  1  0
  3 14  1  0
  4 15  1  0
  5 16  1  0
  8 17  1  0
  8 18  1  0
M  END
