
     RDKit          3D

 19 20  0  0  0  0  0  0  0  0999 V2000
   -2.0386   -0.6742    0.1896 C   0  0  0  0  0  0  0  0  0  0  0  0
   -0.9762    0.4231    0.2292 C   0  0  0  0  0  0  0  0  0  0  0  0
   -1.4729    1.5431    0.8601 O   0  0  0  0  0  0  0  0  0  0  0  0
   -0.5906    0.7970   -1.1575 C   0  0  0  0  0  0  0  0  0  0  0  0
    0.6161    0.3603   -1.4589 C   0  0  0  0  0  0  0  0  0  0  0  0
    1.1713   -0.3554   -0.3036 C   0  0  0  0  0  0  0  0  0  0  0  0
    2.6260   -0.3843   -0.0409 C   0  0  0  0  0  0  0  0  0  0  0  0
    1.9089   -1.5008   -0.4464 O   0  0  0  0  0  0  0  0  0  0  0  0
    0.2637   -0.1290    0.8561 C   0  0  0  0  0  0  0  0  0  0  0  0
   -1.6454   -1.5430   -0.3439 H   0  0  0  0  0  0  0  0  0  0  0  0
   -2.3095   -0.9185    1.2169 H   0  0  0  0  0  0  0  0  0  0  0  0
   -2.8954   -0.2830   -0.4206 H   0  0  0  0  0  0  0  0  0  0  0  0
   -1.5267    1.4635    1.8434 H   0  0  0  0  0  0  0  0  0  0  0  0
   -1.2648    1.3696   -1.8153 H   0  0  0  0  0  0  0  0  0  0  0  0
    1.0947    0.5153   -2.4036 H   0  0  0  0  0  0  0  0  0  0  0  0
    3.2879    0.1395   -0.7738 H   0  0  0  0  0  0  0  0  0  0  0  0
    2.9814   -0.4385    1.0082 H   0  0  0  0  0  0  0  0  0  0  0  0
    0.0748   -1.0576    1.4449 H   0  0  0  0  0  0  0  0  0  0  0  0
    0.6955    0.6730    1.5160 H   0  0  0  0  0  0  0  0  0  0  0  0
  1  2  1  0
  2  3  1  0
  2  4  1  0
  4  5  2  0
  5  6  1  0
  6  7  1  0
  7  8  1  0
  6  9  1  0
  9  2  1  0
  8  6  1  0
  1 10  1  0
  1 11  1  0
  1 12  1  0
  3 13  1  0
  4 14  1  0
  5 15  1  0
  7 16  1  0
  7 17  1  0
  9 18  1  0
  9 19  1  0
M  END
