
     RDKit          3D

 21 22  0  0  0  0  0  0  0  0999 V2000
   -0.2717   -1.5878    0.3907 C   0  0  0  0  0  0  0  0  0  0  0  0
   -0.1595   -0.0874    0.1573 C   0  0  0  0  0  0  0  0  0  0  0  0
   -1.4571    0.6341    0.1280 C   0  0  0  0  0  0  0  0  0  0  0  0
   -2.5330    0.4067   -0.7737 C   0  0  0  0  0  0  0  0  0  0  0  0
   -1.5939    1.5208   -1.0581 O   0  0  0  0  0  0  0  0  0  0  0  0
    0.7785    0.1864   -0.9941 C   0  0  0  0  0  0  0  0  0  0  0  0
    1.9014    0.4196   -0.0079 C   0  0  0  0  0  0  0  0  0  0  0  0
    2.7320   -0.6799    0.1712 O   0  0  0  0  0  0  0  0  0  0  0  0
    0.8541    0.5965    1.0649 C   0  0  0  0  0  0  0  0  0  0  0  0
   -1.3424   -1.8616    0.3152 H   0  0  0  0  0  0  0  0  0  0  0  0
    0.2679   -2.1615   -0.3923 H   0  0  0  0  0  0  0  0  0  0  0  0
    0.1331   -1.8230    1.4142 H   0  0  0  0  0  0  0  0  0  0  0  0
   -1.6651    1.2347    1.0504 H   0  0  0  0  0  0  0  0  0  0  0  0
   -2.5389   -0.2542   -1.6406 H   0  0  0  0  0  0  0  0  0  0  0  0
   -3.5204    0.8661   -0.5617 H   0  0  0  0  0  0  0  0  0  0  0  0
    1.0074   -0.7279   -1.6110 H   0  0  0  0  0  0  0  0  0  0  0  0
    0.5366    1.0765   -1.5926 H   0  0  0  0  0  0  0  0  0  0  0  0
    2.4918    1.3464   -0.2149 H   0  0  0  0  0  0  0  0  0  0  0  0
    2.7291   -0.9032    1.1515 H   0  0  0  0  0  0  0  0  0  0  0  0
    1.0426    0.1071    2.0169 H   0  0  0  0  0  0  0  0  0  0  0  0
    0.6076    1.6915    1.1518 H   0  0  0  0  0  0  0  0  0  0  0  0
  1  2  1  0
  2  3  1  0
  3  4  1  0
  4  5  1  0
  2  6  1  0
  6  7  1  0
  7  8  1  0
  7  9  1  0
  9  2  1  0
  5  3  1  0
  1 10  1  0
  1 11  1  0
  1 12  1  0
  3 13  1  0
  4 14  1  0
  4 15  1  0
  6 16  1  0
  6 17  1  0
  7 18  1  0
  8 19  1  0
  9 20  1  0
  9 21  1  0
M  END
