
     RDKit          3D

 21 21  0  0  0  0  0  0  0  0999 V2000
   -2.5959    0.5866    0.4121 C   0  0  0  0  0  0  0  0  0  0  0  0
   -1.4015   -0.1810   -0.1518 C   0  0  0  0  0  0  0  0  0  0  0  0
   -1.6522   -1.4940   -0.4788 O   0  0  0  0  0  0  0  0  0  0  0  0
   -0.5366    0.6756   -1.0507 C   0  0  0  0  0  0  0  0  0  0  0  0
   -0.0603    0.2234    0.3298 C   0  0  0  0  0  0  0  0  0  0  0  0
    1.1163   -0.7101    0.2762 C   0  0  0  0  0  0  0  0  0  0  0  0
    1.4065   -1.1179   -1.0434 O   0  0  0  0  0  0  0  0  0  0  0  0
    2.3315    0.0739    0.7896 C   0  0  0  0  0  0  0  0  0  0  0  0
    2.5350    1.1764   -0.0377 O   0  0  0  0  0  0  0  0  0  0  0  0
   -3.0489    0.0669    1.2746 H   0  0  0  0  0  0  0  0  0  0  0  0
   -2.3038    1.6275    0.6183 H   0  0  0  0  0  0  0  0  0  0  0  0
   -3.3557    0.6034   -0.4106 H   0  0  0  0  0  0  0  0  0  0  0  0
   -2.4476   -1.8037    0.0079 H   0  0  0  0  0  0  0  0  0  0  0  0
   -0.1617    0.1151   -1.9406 H   0  0  0  0  0  0  0  0  0  0  0  0
   -0.7672    1.7409   -1.1909 H   0  0  0  0  0  0  0  0  0  0  0  0
   -0.0044    1.0280    1.1050 H   0  0  0  0  0  0  0  0  0  0  0  0
    0.9732   -1.6354    0.8618 H   0  0  0  0  0  0  0  0  0  0  0  0
    2.1038   -1.7948   -0.9989 H   0  0  0  0  0  0  0  0  0  0  0  0
    3.2231   -0.5836    0.8294 H   0  0  0  0  0  0  0  0  0  0  0  0
    2.0947    0.4741    1.7994 H   0  0  0  0  0  0  0  0  0  0  0  0
    2.5518    0.9287   -1.0006 H   0  0  0  0  0  0  0  0  0  0  0  0
  1  2  1  0
  2  3  1  0
  2  4  1  0
  4  5  1  0
  5  6  1  0
  6  7  1  0
  6  8  1  0
  8  9  1  0
  5  2  1  0
  1 10  1  0
  1 11  1  0
  1 12  1  0
  3 13  1  0
  4 14  1  0
  4 15  1  0
  5 16  1  0
  6 17  1  0
  7 18  1  0
  8 19  1  0
  8 20  1  0
  9 21  1  0
M  END
