
     RDKit          3D

 17 18  0  0  0  0  0  0  0  0999 V2000
   -0.4406    1.6608    0.2496 C   0  0  0  0  0  0  0  0  0  0  0  0
   -0.1441    0.1979    0.2073 C   0  0  0  0  0  0  0  0  0  0  0  0
    0.9765   -0.2430    0.9072 O   0  0  0  0  0  0  0  0  0  0  0  0
    2.2347    0.2466    0.5793 C   0  0  0  0  0  0  0  0  0  0  0  0
    2.3797    1.0881   -0.3465 O   0  0  0  0  0  0  0  0  0  0  0  0
   -0.3059   -0.4999   -1.0943 C   0  0  0  0  0  0  0  0  0  0  0  0
   -0.5684   -1.7553   -0.3145 C   0  0  0  0  0  0  0  0  0  0  0  0
   -1.3726   -0.6559    0.2909 C   0  0  0  0  0  0  0  0  0  0  0  0
   -1.6638   -0.2398   -0.9994 O   0  0  0  0  0  0  0  0  0  0  0  0
   -0.6376    1.9416    1.3248 H   0  0  0  0  0  0  0  0  0  0  0  0
    0.3671    2.2656   -0.1694 H   0  0  0  0  0  0  0  0  0  0  0  0
   -1.3846    1.8244   -0.3332 H   0  0  0  0  0  0  0  0  0  0  0  0
    3.1435   -0.0749    1.1060 H   0  0  0  0  0  0  0  0  0  0  0  0
    0.2670   -0.4177   -1.9210 H   0  0  0  0  0  0  0  0  0  0  0  0
   -1.1646   -2.5303   -0.8009 H   0  0  0  0  0  0  0  0  0  0  0  0
    0.3286   -2.0917    0.2493 H   0  0  0  0  0  0  0  0  0  0  0  0
   -2.0147   -0.7163    1.0647 H   0  0  0  0  0  0  0  0  0  0  0  0
  1  2  1  0
  2  3  1  0
  3  4  1  0
  4  5  2  0
  2  6  1  0
  6  7  1  0
  7  8  1  0
  8  9  1  0
  8  2  1  0
  9  6  1  0
  1 10  1  0
  1 11  1  0
  1 12  1  0
  4 13  1  0
  6 14  1  0
  7 15  1  0
  7 16  1  0
  8 17  1  0
M  END
