
     RDKit          3D

 21 22  0  0  0  0  0  0  0  0999 V2000
   -1.2507    1.1574   -0.9230 C   0  0  0  0  0  0  0  0  0  0  0  0
   -0.5422    0.1043   -0.0746 C   0  0  0  0  0  0  0  0  0  0  0  0
   -1.2848   -1.1681   -0.1864 C   0  0  0  0  0  0  0  0  0  0  0  0
   -0.4322    0.5996    1.3824 C   0  0  0  0  0  0  0  0  0  0  0  0
    0.9532    0.5024    1.6922 O   0  0  0  0  0  0  0  0  0  0  0  0
    1.2705   -0.6204    0.9897 C   0  0  0  0  0  0  0  0  0  0  0  0
    1.9202   -0.8841   -0.2269 C   0  0  0  0  0  0  0  0  0  0  0  0
    0.9004    0.0611   -0.3954 C   0  0  0  0  0  0  0  0  0  0  0  0
    1.3438    1.4091   -0.5281 O   0  0  0  0  0  0  0  0  0  0  0  0
   -2.3434    1.1390   -0.6822 H   0  0  0  0  0  0  0  0  0  0  0  0
   -0.7981    2.1523   -0.7981 H   0  0  0  0  0  0  0  0  0  0  0  0
   -1.1242    0.8082   -1.9800 H   0  0  0  0  0  0  0  0  0  0  0  0
   -2.3518   -0.9535   -0.4884 H   0  0  0  0  0  0  0  0  0  0  0  0
   -0.8858   -1.7972   -1.0212 H   0  0  0  0  0  0  0  0  0  0  0  0
   -1.3705   -1.7505    0.7556 H   0  0  0  0  0  0  0  0  0  0  0  0
   -1.0271   -0.0189    2.0553 H   0  0  0  0  0  0  0  0  0  0  0  0
   -0.6652    1.6639    1.3709 H   0  0  0  0  0  0  0  0  0  0  0  0
    0.5622   -1.4397    1.3301 H   0  0  0  0  0  0  0  0  0  0  0  0
    1.8164   -1.8822   -0.7245 H   0  0  0  0  0  0  0  0  0  0  0  0
    3.0010   -0.5665   -0.3150 H   0  0  0  0  0  0  0  0  0  0  0  0
    2.3082    1.4838   -0.5522 H   0  0  0  0  0  0  0  0  0  0  0  0
  1  2  1  0
  2  3  1  0
  2  4  1  0
  4  5  1  0
  5  6  1  0
  6  7  1  0
  7  8  1  0
  8  9  1  0
  8  2  1  0
  8  6  1  0
  1 10  1  0
  1 11  1  0
  1 12  1  0
  3 13  1  0
  3 14  1  0
  3 15  1  0
  4 16  1  0
  4 17  1  0
  6 18  1  0
  7 19  1  0
  7 20  1  0
  9 21  1  0
M  END
