
     RDKit          3D

 19 19  0  0  0  0  0  0  0  0999 V2000
   -1.1821   -1.0970   -0.6976 C   0  0  0  0  0  0  0  0  0  0  0  0
   -0.5558   -0.0014    0.1154 C   0  0  0  0  0  0  0  0  0  0  0  0
   -1.5034    1.1510    0.4718 C   0  0  0  0  0  0  0  0  0  0  0  0
    0.3450   -0.3735    1.2817 C   0  0  0  0  0  0  0  0  0  0  0  0
    0.8715    0.3276    0.0405 C   0  0  0  0  0  0  0  0  0  0  0  0
    1.8522   -0.5042   -0.7406 C   0  0  0  0  0  0  0  0  0  0  0  0
    1.2348    1.6761    0.1518 O   0  0  0  0  0  0  0  0  0  0  0  0
   -0.8190   -1.1229   -1.7314 H   0  0  0  0  0  0  0  0  0  0  0  0
   -1.0036   -2.1153   -0.2661 H   0  0  0  0  0  0  0  0  0  0  0  0
   -2.2837   -0.9783   -0.7337 H   0  0  0  0  0  0  0  0  0  0  0  0
   -0.9482    2.0840    0.6517 H   0  0  0  0  0  0  0  0  0  0  0  0
   -2.3122    1.2543   -0.2807 H   0  0  0  0  0  0  0  0  0  0  0  0
   -1.9726    0.8350    1.4458 H   0  0  0  0  0  0  0  0  0  0  0  0
    0.3687    0.2478    2.1781 H   0  0  0  0  0  0  0  0  0  0  0  0
    0.5569   -1.4480    1.4192 H   0  0  0  0  0  0  0  0  0  0  0  0
    2.1931   -0.0007   -1.6680 H   0  0  0  0  0  0  0  0  0  0  0  0
    2.7602   -0.6172   -0.0904 H   0  0  0  0  0  0  0  0  0  0  0  0
    1.4665   -1.5292   -0.9178 H   0  0  0  0  0  0  0  0  0  0  0  0
    0.9318    2.2117   -0.6297 H   0  0  0  0  0  0  0  0  0  0  0  0
  1  2  1  0
  2  3  1  0
  2  4  1  0
  4  5  1  0
  5  6  1  0
  5  7  1  0
  5  2  1  0
  1  8  1  0
  1  9  1  0
  1 10  1  0
  3 11  1  0
  3 12  1  0
  3 13  1  0
  4 14  1  0
  4 15  1  0
  6 16  1  0
  6 17  1  0
  6 18  1  0
  7 19  1  0
M  END
