
     RDKit          3D

 17 18  0  0  0  0  0  0  0  0999 V2000
   -1.3290   -1.3438   -0.4093 C   0  0  0  0  0  0  0  0  0  0  0  0
   -0.5972   -0.0778    0.0478 C   0  0  0  0  0  0  0  0  0  0  0  0
   -1.4055    1.1758   -0.2297 C   0  0  0  0  0  0  0  0  0  0  0  0
   -0.1274   -0.1505    1.3913 O   0  0  0  0  0  0  0  0  0  0  0  0
    0.7408   -0.0529    0.2007 C   0  0  0  0  0  0  0  0  0  0  0  0
    1.7740    0.9900    0.2614 C   0  0  0  0  0  0  0  0  0  0  0  0
    2.6627   -0.0236    0.7291 O   0  0  0  0  0  0  0  0  0  0  0  0
    1.8026   -1.0211    0.2383 C   0  0  0  0  0  0  0  0  0  0  0  0
    2.0826   -2.2411   -0.0011 O   0  0  0  0  0  0  0  0  0  0  0  0
   -2.0724   -1.1093   -1.1920 H   0  0  0  0  0  0  0  0  0  0  0  0
   -0.6280   -2.0718   -0.8271 H   0  0  0  0  0  0  0  0  0  0  0  0
   -1.8204   -1.7721    0.5050 H   0  0  0  0  0  0  0  0  0  0  0  0
   -1.5130    1.3484   -1.3043 H   0  0  0  0  0  0  0  0  0  0  0  0
   -2.4245    1.1224    0.2031 H   0  0  0  0  0  0  0  0  0  0  0  0
   -0.8209    2.0284    0.1979 H   0  0  0  0  0  0  0  0  0  0  0  0
    1.6267    1.8365    0.9470 H   0  0  0  0  0  0  0  0  0  0  0  0
    2.0491    1.3624   -0.7579 H   0  0  0  0  0  0  0  0  0  0  0  0
  1  2  1  0
  2  3  1  0
  2  4  1  0
  4  5  1  0
  5  6  1  0
  6  7  1  0
  7  8  1  0
  8  9  2  0
  5  2  1  0
  8  5  1  0
  1 10  1  0
  1 11  1  0
  1 12  1  0
  3 13  1  0
  3 14  1  0
  3 15  1  0
  6 16  1  0
  6 17  1  0
M  END
