
     RDKit          3D

 21 23  0  0  0  0  0  0  0  0999 V2000
    0.5098    1.6361    0.0832 C   0  0  0  0  0  0  0  0  0  0  0  0
    0.3593    0.1793   -0.1064 C   0  0  0  0  0  0  0  0  0  0  0  0
   -1.0004   -0.1883   -0.5926 C   0  0  0  0  0  0  0  0  0  0  0  0
   -2.1154    0.2378    0.3801 C   0  0  0  0  0  0  0  0  0  0  0  0
   -1.8596   -1.1834    0.0447 C   0  0  0  0  0  0  0  0  0  0  0  0
    1.5146   -0.5346   -0.8312 C   0  0  0  0  0  0  0  0  0  0  0  0
    2.2134   -0.2447    0.4761 C   0  0  0  0  0  0  0  0  0  0  0  0
    1.9528   -0.7125    1.6815 O   0  0  0  0  0  0  0  0  0  0  0  0
    0.8252   -0.7302    0.9990 C   0  0  0  0  0  0  0  0  0  0  0  0
   -0.4558    2.1886   -0.1233 H   0  0  0  0  0  0  0  0  0  0  0  0
    0.7096    1.8378    1.1599 H   0  0  0  0  0  0  0  0  0  0  0  0
    1.2488    2.1291   -0.5907 H   0  0  0  0  0  0  0  0  0  0  0  0
   -1.1788    0.0747   -1.6728 H   0  0  0  0  0  0  0  0  0  0  0  0
   -2.9508    0.8021   -0.0665 H   0  0  0  0  0  0  0  0  0  0  0  0
   -1.8453    0.5548    1.3854 H   0  0  0  0  0  0  0  0  0  0  0  0
   -2.6434   -1.6503   -0.6202 H   0  0  0  0  0  0  0  0  0  0  0  0
   -1.4946   -1.8837    0.8002 H   0  0  0  0  0  0  0  0  0  0  0  0
    1.2787   -1.5993   -0.9563 H   0  0  0  0  0  0  0  0  0  0  0  0
    1.9484    0.0077   -1.6639 H   0  0  0  0  0  0  0  0  0  0  0  0
    2.3929    0.8761    0.5358 H   0  0  0  0  0  0  0  0  0  0  0  0
    0.5904   -1.7971    0.6715 H   0  0  0  0  0  0  0  0  0  0  0  0
  1  2  1  0
  2  3  1  0
  3  4  1  0
  4  5  1  0
  2  6  1  0
  6  7  1  0
  7  8  1  0
  8  9  1  0
  9  2  1  0
  5  3  1  0
  9  7  1  0
  1 10  1  0
  1 11  1  0
  1 12  1  0
  3 13  1  0
  4 14  1  0
  4 15  1  0
  5 16  1  0
  5 17  1  0
  6 18  1  0
  6 19  1  0
  7 20  1  0
  9 21  1  0
M  END
