
     RDKit          3D

 15 15  0  0  0  0  0  0  0  0999 V2000
   -1.3559   -0.9673   -0.0662 C   0  0  0  0  0  0  0  0  0  0  0  0
   -0.2856    0.0671    0.2582 C   0  0  0  0  0  0  0  0  0  0  0  0
   -0.8803    1.4035    0.4873 C   0  0  0  0  0  0  0  0  0  0  0  0
   -0.5600    2.0654    1.4472 O   0  0  0  0  0  0  0  0  0  0  0  0
    0.8166    0.1464   -0.7738 C   0  0  0  0  0  0  0  0  0  0  0  0
    1.7235   -0.3216    0.3448 C   0  0  0  0  0  0  0  0  0  0  0  0
    0.6287   -0.3478    1.1919 O   0  0  0  0  0  0  0  0  0  0  0  0
   -2.1602   -0.4345   -0.6046 H   0  0  0  0  0  0  0  0  0  0  0  0
   -1.7994   -1.3955    0.8521 H   0  0  0  0  0  0  0  0  0  0  0  0
   -0.9080   -1.7594   -0.7071 H   0  0  0  0  0  0  0  0  0  0  0  0
   -1.6047    1.7949   -0.2034 H   0  0  0  0  0  0  0  0  0  0  0  0
    0.6897   -0.5868   -1.5780 H   0  0  0  0  0  0  0  0  0  0  0  0
    1.0801    1.1797   -1.0838 H   0  0  0  0  0  0  0  0  0  0  0  0
    2.1752   -1.3025    0.1018 H   0  0  0  0  0  0  0  0  0  0  0  0
    2.4403    0.4584    0.7026 H   0  0  0  0  0  0  0  0  0  0  0  0
  1  2  1  0
  2  3  1  0
  3  4  2  0
  2  5  1  0
  5  6  1  0
  6  7  1  0
  7  2  1  0
  1  8  1  0
  1  9  1  0
  1 10  1  0
  3 11  1  0
  5 12  1  0
  5 13  1  0
  6 14  1  0
  6 15  1  0
M  END
