
     RDKit          3D

 23 24  0  0  0  0  0  0  0  0999 V2000
   -1.7645   -0.9044    0.5670 C   0  0  0  0  0  0  0  0  0  0  0  0
   -0.7829    0.1953    0.2018 C   0  0  0  0  0  0  0  0  0  0  0  0
    0.6183   -0.2672   -0.0299 C   0  0  0  0  0  0  0  0  0  0  0  0
    1.6710    0.7857   -0.4031 C   0  0  0  0  0  0  0  0  0  0  0  0
    1.7576    1.7186    0.6207 O   0  0  0  0  0  0  0  0  0  0  0  0
    1.1486   -1.4610    0.6832 C   0  0  0  0  0  0  0  0  0  0  0  0
    0.7374   -1.6053   -0.7215 C   0  0  0  0  0  0  0  0  0  0  0  0
   -1.1728    1.5878    0.4399 C   0  0  0  0  0  0  0  0  0  0  0  0
   -1.3169    1.0634   -0.9502 C   0  0  0  0  0  0  0  0  0  0  0  0
   -2.7609   -0.4156    0.7894 H   0  0  0  0  0  0  0  0  0  0  0  0
   -1.9595   -1.4898   -0.3575 H   0  0  0  0  0  0  0  0  0  0  0  0
   -1.4409   -1.5303    1.4050 H   0  0  0  0  0  0  0  0  0  0  0  0
    1.3957    1.2913   -1.3655 H   0  0  0  0  0  0  0  0  0  0  0  0
    2.6495    0.2527   -0.5036 H   0  0  0  0  0  0  0  0  0  0  0  0
    2.5756    1.6061    1.1788 H   0  0  0  0  0  0  0  0  0  0  0  0
    0.5550   -1.8722    1.5226 H   0  0  0  0  0  0  0  0  0  0  0  0
    2.2456   -1.5467    0.8759 H   0  0  0  0  0  0  0  0  0  0  0  0
   -0.1579   -2.1846   -0.9943 H   0  0  0  0  0  0  0  0  0  0  0  0
    1.5307   -1.6801   -1.5122 H   0  0  0  0  0  0  0  0  0  0  0  0
   -2.1256    1.7188    1.0334 H   0  0  0  0  0  0  0  0  0  0  0  0
   -0.4618    2.4073    0.5565 H   0  0  0  0  0  0  0  0  0  0  0  0
   -0.6093    1.4105   -1.7245 H   0  0  0  0  0  0  0  0  0  0  0  0
   -2.3323    0.9197   -1.3120 H   0  0  0  0  0  0  0  0  0  0  0  0
  1  2  1  0
  2  3  1  0
  3  4  1  0
  4  5  1  0
  3  6  1  0
  6  7  1  0
  2  8  1  0
  8  9  1  0
  9  2  1  0
  7  3  1  0
  1 10  1  0
  1 11  1  0
  1 12  1  0
  4 13  1  0
  4 14  1  0
  5 15  1  0
  6 16  1  0
  6 17  1  0
  7 18  1  0
  7 19  1  0
  8 20  1  0
  8 21  1  0
  9 22  1  0
  9 23  1  0
M  END
