
     RDKit          3D

 16 17  0  0  0  0  0  0  0  0999 V2000
   -1.7273    0.3440    0.2349 C   0  0  0  0  0  0  0  0  0  0  0  0
   -0.5126   -0.5290   -0.1128 C   0  0  0  0  0  0  0  0  0  0  0  0
   -0.8499   -1.7379   -0.6973 O   0  0  0  0  0  0  0  0  0  0  0  0
    0.2873   -0.7023    1.1234 C   0  0  0  0  0  0  0  0  0  0  0  0
    0.3402   -1.4352    2.0871 O   0  0  0  0  0  0  0  0  0  0  0  0
    1.0655    0.4999    0.6504 C   0  0  0  0  0  0  0  0  0  0  0  0
    1.9661    0.2168   -0.4760 C   0  0  0  0  0  0  0  0  0  0  0  0
    0.5432    0.2652   -0.7841 C   0  0  0  0  0  0  0  0  0  0  0  0
   -2.1211    0.0524    1.2503 H   0  0  0  0  0  0  0  0  0  0  0  0
   -2.4921    0.3132   -0.5453 H   0  0  0  0  0  0  0  0  0  0  0  0
   -1.3453    1.3827    0.3710 H   0  0  0  0  0  0  0  0  0  0  0  0
   -1.2865   -1.5883   -1.5717 H   0  0  0  0  0  0  0  0  0  0  0  0
    0.8318    1.4822    1.0376 H   0  0  0  0  0  0  0  0  0  0  0  0
    2.6049    1.0412   -0.8173 H   0  0  0  0  0  0  0  0  0  0  0  0
    2.5182   -0.7591   -0.4100 H   0  0  0  0  0  0  0  0  0  0  0  0
    0.1776    1.1541   -1.3399 H   0  0  0  0  0  0  0  0  0  0  0  0
  1  2  1  0
  2  3  1  0
  2  4  1  0
  4  5  2  0
  4  6  1  0
  6  7  1  0
  7  8  1  0
  8  2  1  0
  8  6  1  0
  1  9  1  0
  1 10  1  0
  1 11  1  0
  3 12  1  0
  6 13  1  0
  7 14  1  0
  7 15  1  0
  8 16  1  0
M  END
