
     RDKit          3D

 23 24  0  0  0  0  0  0  0  0999 V2000
   -0.0573    1.6376   -0.1538 C   0  0  0  0  0  0  0  0  0  0  0  0
    0.1610    0.1558   -0.1765 C   0  0  0  0  0  0  0  0  0  0  0  0
   -1.0414   -0.6953   -0.3101 C   0  0  0  0  0  0  0  0  0  0  0  0
   -2.0506   -0.5035    0.8297 C   0  0  0  0  0  0  0  0  0  0  0  0
   -2.3918   -0.1788   -0.5935 C   0  0  0  0  0  0  0  0  0  0  0  0
    0.9555   -0.2514    1.0748 C   0  0  0  0  0  0  0  0  0  0  0  0
    2.1837    0.1316    0.2706 C   0  0  0  0  0  0  0  0  0  0  0  0
    1.3791   -0.2155   -0.9706 C   0  0  0  0  0  0  0  0  0  0  0  0
    1.4855   -1.5187   -1.3709 O   0  0  0  0  0  0  0  0  0  0  0  0
   -0.2741    2.0201    0.8661 H   0  0  0  0  0  0  0  0  0  0  0  0
    0.8763    2.1874   -0.4731 H   0  0  0  0  0  0  0  0  0  0  0  0
   -0.8456    1.9896   -0.8412 H   0  0  0  0  0  0  0  0  0  0  0  0
   -0.8183   -1.7732   -0.5424 H   0  0  0  0  0  0  0  0  0  0  0  0
   -2.4575   -1.4004    1.3014 H   0  0  0  0  0  0  0  0  0  0  0  0
   -1.9412    0.3692    1.4885 H   0  0  0  0  0  0  0  0  0  0  0  0
   -2.5320    0.8461   -0.9345 H   0  0  0  0  0  0  0  0  0  0  0  0
   -3.1241   -0.8947   -1.0490 H   0  0  0  0  0  0  0  0  0  0  0  0
    0.7402    0.3571    1.9504 H   0  0  0  0  0  0  0  0  0  0  0  0
    0.9181   -1.3558    1.2434 H   0  0  0  0  0  0  0  0  0  0  0  0
    3.0669   -0.5152    0.4401 H   0  0  0  0  0  0  0  0  0  0  0  0
    2.4469    1.2006    0.3757 H   0  0  0  0  0  0  0  0  0  0  0  0
    1.5910    0.5256   -1.7766 H   0  0  0  0  0  0  0  0  0  0  0  0
    1.7297   -2.1181   -0.6486 H   0  0  0  0  0  0  0  0  0  0  0  0
  1  2  1  0
  2  3  1  0
  3  4  1  0
  4  5  1  0
  2  6  1  0
  6  7  1  0
  7  8  1  0
  8  9  1  0
  8  2  1  0
  5  3  1  0
  1 10  1  0
  1 11  1  0
  1 12  1  0
  3 13  1  0
  4 14  1  0
  4 15  1  0
  5 16  1  0
  5 17  1  0
  6 18  1  0
  6 19  1  0
  7 20  1  0
  7 21  1  0
  8 22  1  0
  9 23  1  0
M  END
