
     RDKit          3D

 16 16  0  0  0  0  0  0  0  0999 V2000
    1.8480   -0.0653    0.2819 C   0  0  0  0  0  0  0  0  0  0  0  0
    0.4500   -0.2604   -0.2632 C   0  0  0  0  0  0  0  0  0  0  0  0
    0.4778   -1.3517   -1.1066 O   0  0  0  0  0  0  0  0  0  0  0  0
   -0.1101    0.9489   -0.8707 C   0  0  0  0  0  0  0  0  0  0  0  0
   -1.3788    1.1367   -0.5147 C   0  0  0  0  0  0  0  0  0  0  0  0
   -1.7434    0.0389    0.3694 C   0  0  0  0  0  0  0  0  0  0  0  0
   -2.8783   -0.3829    0.6151 O   0  0  0  0  0  0  0  0  0  0  0  0
   -0.4752   -0.4907    0.9324 C   0  0  0  0  0  0  0  0  0  0  0  0
    1.9719   -0.8613    1.0742 H   0  0  0  0  0  0  0  0  0  0  0  0
    1.9478    0.9230    0.7678 H   0  0  0  0  0  0  0  0  0  0  0  0
    2.6071   -0.2799   -0.4752 H   0  0  0  0  0  0  0  0  0  0  0  0
   -0.4307   -1.6463   -1.4005 H   0  0  0  0  0  0  0  0  0  0  0  0
    0.3859    1.6565   -1.5400 H   0  0  0  0  0  0  0  0  0  0  0  0
   -2.0320    1.9606   -0.8251 H   0  0  0  0  0  0  0  0  0  0  0  0
   -0.5207   -1.5313    1.2341 H   0  0  0  0  0  0  0  0  0  0  0  0
   -0.1192    0.2052    1.7211 H   0  0  0  0  0  0  0  0  0  0  0  0
  1  2  1  0
  2  3  1  0
  2  4  1  0
  4  5  2  0
  5  6  1  0
  6  7  2  0
  6  8  1  0
  8  2  1  0
  1  9  1  0
  1 10  1  0
  1 11  1  0
  3 12  1  0
  4 13  1  0
  5 14  1  0
  8 15  1  0
  8 16  1  0
M  END
