
     RDKit          3D

 19 19  0  0  0  0  0  0  0  0999 V2000
   -1.1575   -1.2797   -0.8682 C   0  0  0  0  0  0  0  0  0  0  0  0
   -0.4439   -0.2576    0.0175 C   0  0  0  0  0  0  0  0  0  0  0  0
   -0.9113    1.0955   -0.3989 C   0  0  0  0  0  0  0  0  0  0  0  0
   -0.7740   -0.4938    1.3677 O   0  0  0  0  0  0  0  0  0  0  0  0
    0.3132    0.1074    2.0214 C   0  0  0  0  0  0  0  0  0  0  0  0
    1.4214   -0.3694    1.3285 O   0  0  0  0  0  0  0  0  0  0  0  0
    1.0372   -0.4298    0.0141 C   0  0  0  0  0  0  0  0  0  0  0  0
    1.7661    0.5280   -0.8253 C   0  0  0  0  0  0  0  0  0  0  0  0
    1.6169    0.6756   -2.0114 O   0  0  0  0  0  0  0  0  0  0  0  0
   -1.5374   -2.1133   -0.2789 H   0  0  0  0  0  0  0  0  0  0  0  0
   -2.0148   -0.8154   -1.3996 H   0  0  0  0  0  0  0  0  0  0  0  0
   -0.4144   -1.5751   -1.6391 H   0  0  0  0  0  0  0  0  0  0  0  0
   -0.3817    1.9352    0.0501 H   0  0  0  0  0  0  0  0  0  0  0  0
   -2.0147    1.1452   -0.1735 H   0  0  0  0  0  0  0  0  0  0  0  0
   -0.8695    1.1253   -1.5271 H   0  0  0  0  0  0  0  0  0  0  0  0
    0.3114   -0.1879    3.0861 H   0  0  0  0  0  0  0  0  0  0  0  0
    0.2863    1.2136    1.9294 H   0  0  0  0  0  0  0  0  0  0  0  0
    1.2584   -1.4691   -0.3483 H   0  0  0  0  0  0  0  0  0  0  0  0
    2.5082    1.1653   -0.3446 H   0  0  0  0  0  0  0  0  0  0  0  0
  1  2  1  0
  2  3  1  0
  2  4  1  0
  4  5  1  0
  5  6  1  0
  6  7  1  0
  7  8  1  0
  8  9  2  0
  7  2  1  0
  1 10  1  0
  1 11  1  0
  1 12  1  0
  3 13  1  0
  3 14  1  0
  3 15  1  0
  5 16  1  0
  5 17  1  0
  7 18  1  0
  8 19  1  0
M  END
