
     RDKit          3D

 20 21  0  0  0  0  0  0  0  0999 V2000
   -1.3666    1.3504   -0.3826 C   0  0  0  0  0  0  0  0  0  0  0  0
   -0.8038    0.1843    0.3496 C   0  0  0  0  0  0  0  0  0  0  0  0
   -1.1041    0.1315    1.7216 O   0  0  0  0  0  0  0  0  0  0  0  0
   -1.1812   -1.1457   -0.3233 C   0  0  0  0  0  0  0  0  0  0  0  0
    0.2222   -1.6234    0.0821 C   0  0  0  0  0  0  0  0  0  0  0  0
    0.6023   -0.1950    0.1025 C   0  0  0  0  0  0  0  0  0  0  0  0
    1.7833    0.4143    0.6043 C   0  0  0  0  0  0  0  0  0  0  0  0
    1.4894    0.3352   -0.8910 C   0  0  0  0  0  0  0  0  0  0  0  0
   -0.8125    2.2570   -0.0730 H   0  0  0  0  0  0  0  0  0  0  0  0
   -1.2882    1.1418   -1.4729 H   0  0  0  0  0  0  0  0  0  0  0  0
   -2.4521    1.4272   -0.1110 H   0  0  0  0  0  0  0  0  0  0  0  0
   -0.3655    0.5832    2.2273 H   0  0  0  0  0  0  0  0  0  0  0  0
   -2.0031   -1.6800    0.1401 H   0  0  0  0  0  0  0  0  0  0  0  0
   -1.2723   -0.9593   -1.4193 H   0  0  0  0  0  0  0  0  0  0  0  0
    0.6828   -2.2265   -0.7283 H   0  0  0  0  0  0  0  0  0  0  0  0
    0.1205   -2.1471    1.0588 H   0  0  0  0  0  0  0  0  0  0  0  0
    1.7470    1.4636    0.9757 H   0  0  0  0  0  0  0  0  0  0  0  0
    2.6109   -0.1620    1.0232 H   0  0  0  0  0  0  0  0  0  0  0  0
    1.2335    1.2327   -1.4463 H   0  0  0  0  0  0  0  0  0  0  0  0
    2.1576   -0.3822   -1.4374 H   0  0  0  0  0  0  0  0  0  0  0  0
  1  2  1  0
  2  3  1  0
  2  4  1  0
  4  5  1  0
  5  6  1  0
  6  7  1  0
  7  8  1  0
  6  2  1  0
  8  6  1  0
  1  9  1  0
  1 10  1  0
  1 11  1  0
  3 12  1  0
  4 13  1  0
  4 14  1  0
  5 15  1  0
  5 16  1  0
  7 17  1  0
  7 18  1  0
  8 19  1  0
  8 20  1  0
M  END
