
     RDKit          3D

 25 26  0  0  0  0  0  0  0  0999 V2000
   -1.5503    0.8835    1.1418 C   0  0  0  0  0  0  0  0  0  0  0  0
   -1.0102   -0.0397    0.0793 C   0  0  0  0  0  0  0  0  0  0  0  0
   -1.3334    0.3258   -1.3319 C   0  0  0  0  0  0  0  0  0  0  0  0
   -1.4488   -1.4701    0.3452 C   0  0  0  0  0  0  0  0  0  0  0  0
   -0.0885   -1.8812   -0.1899 C   0  0  0  0  0  0  0  0  0  0  0  0
    0.3943   -0.5362    0.3295 C   0  0  0  0  0  0  0  0  0  0  0  0
    1.4918    0.0989   -0.4087 C   0  0  0  0  0  0  0  0  0  0  0  0
    1.8566    1.5069   -0.3622 C   0  0  0  0  0  0  0  0  0  0  0  0
    2.6681    0.5537    0.4519 C   0  0  0  0  0  0  0  0  0  0  0  0
   -0.9751    1.8214    1.2262 H   0  0  0  0  0  0  0  0  0  0  0  0
   -1.6409    0.3457    2.1025 H   0  0  0  0  0  0  0  0  0  0  0  0
   -2.5784    1.1650    0.8338 H   0  0  0  0  0  0  0  0  0  0  0  0
   -1.5452    1.4246   -1.3550 H   0  0  0  0  0  0  0  0  0  0  0  0
   -0.5695    0.0266   -2.0667 H   0  0  0  0  0  0  0  0  0  0  0  0
   -2.2905   -0.1524   -1.6743 H   0  0  0  0  0  0  0  0  0  0  0  0
   -2.3055   -1.7872   -0.2784 H   0  0  0  0  0  0  0  0  0  0  0  0
   -1.6027   -1.6475    1.4192 H   0  0  0  0  0  0  0  0  0  0  0  0
    0.3493   -2.7518    0.3092 H   0  0  0  0  0  0  0  0  0  0  0  0
   -0.1019   -1.9189   -1.3003 H   0  0  0  0  0  0  0  0  0  0  0  0
    0.5667   -0.6156    1.4065 H   0  0  0  0  0  0  0  0  0  0  0  0
    1.8355   -0.4776   -1.3180 H   0  0  0  0  0  0  0  0  0  0  0  0
    1.2702    2.2778    0.1733 H   0  0  0  0  0  0  0  0  0  0  0  0
    2.4110    1.9385   -1.2312 H   0  0  0  0  0  0  0  0  0  0  0  0
    2.5059    0.6187    1.5529 H   0  0  0  0  0  0  0  0  0  0  0  0
    3.6915    0.2910    0.1453 H   0  0  0  0  0  0  0  0  0  0  0  0
  1  2  1  0
  2  3  1  0
  2  4  1  0
  4  5  1  0
  5  6  1  0
  6  7  1  0
  7  8  1  0
  8  9  1  0
  6  2  1  0
  9  7  1  0
  1 10  1  0
  1 11  1  0
  1 12  1  0
  3 13  1  0
  3 14  1  0
  3 15  1  0
  4 16  1  0
  4 17  1  0
  5 18  1  0
  5 19  1  0
  6 20  1  0
  7 21  1  0
  8 22  1  0
  8 23  1  0
  9 24  1  0
  9 25  1  0
M  END
