
     RDKit          3D

 19 19  0  0  0  0  0  0  0  0999 V2000
   -1.4260   -0.1257   -1.0297 C   0  0  0  0  0  0  0  0  0  0  0  0
   -0.8375   -0.1000    0.3686 C   0  0  0  0  0  0  0  0  0  0  0  0
   -1.7238   -0.6965    1.2797 O   0  0  0  0  0  0  0  0  0  0  0  0
   -0.5978    1.3193    0.7052 C   0  0  0  0  0  0  0  0  0  0  0  0
    0.6631    1.6061    0.4352 C   0  0  0  0  0  0  0  0  0  0  0  0
    1.3795    0.4181   -0.1007 C   0  0  0  0  0  0  0  0  0  0  0  0
    1.5218    0.4311   -1.4654 O   0  0  0  0  0  0  0  0  0  0  0  0
    0.5133   -0.7288    0.3977 C   0  0  0  0  0  0  0  0  0  0  0  0
    0.6195   -1.8428   -0.4288 O   0  0  0  0  0  0  0  0  0  0  0  0
   -2.5397   -0.1356   -0.9113 H   0  0  0  0  0  0  0  0  0  0  0  0
   -1.1645   -1.0345   -1.5900 H   0  0  0  0  0  0  0  0  0  0  0  0
   -1.1919    0.8007   -1.5941 H   0  0  0  0  0  0  0  0  0  0  0  0
   -1.1514   -1.1913    1.9264 H   0  0  0  0  0  0  0  0  0  0  0  0
   -1.3611    2.0243    1.1185 H   0  0  0  0  0  0  0  0  0  0  0  0
    1.1073    2.5990    0.5926 H   0  0  0  0  0  0  0  0  0  0  0  0
    2.3714    0.3765    0.3911 H   0  0  0  0  0  0  0  0  0  0  0  0
    2.3583   -0.0937   -1.6727 H   0  0  0  0  0  0  0  0  0  0  0  0
    0.8112   -0.9753    1.4346 H   0  0  0  0  0  0  0  0  0  0  0  0
    0.6485   -2.6510    0.1431 H   0  0  0  0  0  0  0  0  0  0  0  0
  1  2  1  0
  2  3  1  0
  2  4  1  0
  4  5  2  0
  5  6  1  0
  6  7  1  0
  6  8  1  0
  8  9  1  0
  8  2  1  0
  1 10  1  0
  1 11  1  0
  1 12  1  0
  3 13  1  0
  4 14  1  0
  5 15  1  0
  6 16  1  0
  7 17  1  0
  8 18  1  0
  9 19  1  0
M  END
