
     RDKit          3D

 19 21  0  0  0  0  0  0  0  0999 V2000
    0.3613    1.9062   -0.4689 C   0  0  0  0  0  0  0  0  0  0  0  0
    0.1207    0.4674   -0.0583 C   0  0  0  0  0  0  0  0  0  0  0  0
    1.1727   -0.4182   -0.6731 C   0  0  0  0  0  0  0  0  0  0  0  0
    2.1062   -1.1186    0.1360 C   0  0  0  0  0  0  0  0  0  0  0  0
    0.9954   -1.8206   -0.5744 O   0  0  0  0  0  0  0  0  0  0  0  0
   -0.0065    0.2483    1.2977 O   0  0  0  0  0  0  0  0  0  0  0  0
   -1.0109   -0.6719    1.0139 C   0  0  0  0  0  0  0  0  0  0  0  0
   -2.3179   -0.0876    0.6873 C   0  0  0  0  0  0  0  0  0  0  0  0
   -1.2745    0.0110   -0.3474 C   0  0  0  0  0  0  0  0  0  0  0  0
   -0.6124    2.4331   -0.4056 H   0  0  0  0  0  0  0  0  0  0  0  0
    0.7443    1.9036   -1.4983 H   0  0  0  0  0  0  0  0  0  0  0  0
    1.1464    2.3757    0.1634 H   0  0  0  0  0  0  0  0  0  0  0  0
    1.4596   -0.1265   -1.7124 H   0  0  0  0  0  0  0  0  0  0  0  0
    1.9698   -1.3181    1.1996 H   0  0  0  0  0  0  0  0  0  0  0  0
    3.0960   -1.3978   -0.2571 H   0  0  0  0  0  0  0  0  0  0  0  0
   -0.7871   -1.7466    0.9677 H   0  0  0  0  0  0  0  0  0  0  0  0
   -2.6438    0.8220    1.2392 H   0  0  0  0  0  0  0  0  0  0  0  0
   -3.1513   -0.8012    0.5174 H   0  0  0  0  0  0  0  0  0  0  0  0
   -1.3680   -0.6604   -1.2268 H   0  0  0  0  0  0  0  0  0  0  0  0
  1  2  1  0
  2  3  1  0
  3  4  1  0
  4  5  1  0
  2  6  1  0
  6  7  1  0
  7  8  1  0
  8  9  1  0
  9  2  1  0
  5  3  1  0
  9  7  1  0
  1 10  1  0
  1 11  1  0
  1 12  1  0
  3 13  1  0
  4 14  1  0
  4 15  1  0
  7 16  1  0
  8 17  1  0
  8 18  1  0
  9 19  1  0
M  END
