
     RDKit          3D

 19 19  0  0  0  0  0  0  0  0999 V2000
   -0.3596   -0.9921    1.3172 C   0  0  0  0  0  0  0  0  0  0  0  0
    0.1179   -0.0845    0.1754 C   0  0  0  0  0  0  0  0  0  0  0  0
    1.3808   -0.6804   -0.4079 C   0  0  0  0  0  0  0  0  0  0  0  0
    1.9005    0.0539   -1.4445 O   0  0  0  0  0  0  0  0  0  0  0  0
    0.1647    1.3643    0.5104 C   0  0  0  0  0  0  0  0  0  0  0  0
   -1.0846    1.5726   -0.2968 C   0  0  0  0  0  0  0  0  0  0  0  0
   -1.8193    2.5244   -0.4187 O   0  0  0  0  0  0  0  0  0  0  0  0
   -0.9813    0.1886   -0.8112 C   0  0  0  0  0  0  0  0  0  0  0  0
   -2.1527   -0.5043   -0.5096 O   0  0  0  0  0  0  0  0  0  0  0  0
   -1.0490   -0.3980    1.9380 H   0  0  0  0  0  0  0  0  0  0  0  0
    0.5201   -1.2645    1.9194 H   0  0  0  0  0  0  0  0  0  0  0  0
   -0.8369   -1.8835    0.8535 H   0  0  0  0  0  0  0  0  0  0  0  0
    2.0964   -0.8051    0.4276 H   0  0  0  0  0  0  0  0  0  0  0  0
    1.1270   -1.7019   -0.7841 H   0  0  0  0  0  0  0  0  0  0  0  0
    2.8416    0.3411   -1.2609 H   0  0  0  0  0  0  0  0  0  0  0  0
   -0.0054    1.6308    1.5758 H   0  0  0  0  0  0  0  0  0  0  0  0
    0.9984    1.9265    0.0577 H   0  0  0  0  0  0  0  0  0  0  0  0
   -0.7014    0.0923   -1.8796 H   0  0  0  0  0  0  0  0  0  0  0  0
   -2.1572   -1.3802   -0.9615 H   0  0  0  0  0  0  0  0  0  0  0  0
  1  2  1  0
  2  3  1  0
  3  4  1  0
  2  5  1  0
  5  6  1  0
  6  7  2  0
  6  8  1  0
  8  9  1  0
  8  2  1  0
  1 10  1  0
  1 11  1  0
  1 12  1  0
  3 13  1  0
  3 14  1  0
  4 15  1  0
  5 16  1  0
  5 17  1  0
  8 18  1  0
  9 19  1  0
M  END
