
     RDKit          3D

 16 17  0  0  0  0  0  0  0  0999 V2000
   -1.9348    0.0822   -0.3043 C   0  0  0  0  0  0  0  0  0  0  0  0
   -0.5668    0.0704    0.2827 C   0  0  0  0  0  0  0  0  0  0  0  0
   -0.4716    0.2910    1.6518 O   0  0  0  0  0  0  0  0  0  0  0  0
    0.3760   -0.9898   -0.1774 C   0  0  0  0  0  0  0  0  0  0  0  0
    0.3580   -0.3635   -1.4122 O   0  0  0  0  0  0  0  0  0  0  0  0
    0.4951    0.7245   -0.5581 C   0  0  0  0  0  0  0  0  0  0  0  0
    1.5012   -0.0680    0.1835 C   0  0  0  0  0  0  0  0  0  0  0  0
    2.6918   -0.2629   -0.4762 O   0  0  0  0  0  0  0  0  0  0  0  0
   -2.6617    0.2168    0.5370 H   0  0  0  0  0  0  0  0  0  0  0  0
   -2.0343    0.9920   -0.9411 H   0  0  0  0  0  0  0  0  0  0  0  0
   -2.2207   -0.8258   -0.8378 H   0  0  0  0  0  0  0  0  0  0  0  0
   -1.1782   -0.2814    2.0692 H   0  0  0  0  0  0  0  0  0  0  0  0
    0.3243   -1.9804    0.0016 H   0  0  0  0  0  0  0  0  0  0  0  0
    0.5265    1.6953   -0.8277 H   0  0  0  0  0  0  0  0  0  0  0  0
    1.5404    0.1565    1.2545 H   0  0  0  0  0  0  0  0  0  0  0  0
    3.2547    0.5430   -0.4455 H   0  0  0  0  0  0  0  0  0  0  0  0
  1  2  1  0
  2  3  1  0
  2  4  1  0
  4  5  1  0
  5  6  1  0
  6  7  1  0
  7  8  1  0
  6  2  1  0
  7  4  1  0
  1  9  1  0
  1 10  1  0
  1 11  1  0
  3 12  1  0
  4 13  1  0
  6 14  1  0
  7 15  1  0
  8 16  1  0
M  END
