
     RDKit          3D

 21 21  0  0  0  0  0  0  0  0999 V2000
   -0.4647   -1.7756   -0.2918 C   0  0  0  0  0  0  0  0  0  0  0  0
   -0.4004   -0.3383    0.0832 C   0  0  0  0  0  0  0  0  0  0  0  0
    0.9549    0.1083    0.5361 C   0  0  0  0  0  0  0  0  0  0  0  0
    1.9526   -0.0599   -0.4419 O   0  0  0  0  0  0  0  0  0  0  0  0
    3.2438    0.3218   -0.1259 C   0  0  0  0  0  0  0  0  0  0  0  0
    3.4461    0.7968    1.0194 O   0  0  0  0  0  0  0  0  0  0  0  0
   -1.1502    0.6212   -0.8083 C   0  0  0  0  0  0  0  0  0  0  0  0
   -1.6113    1.3364    0.4631 C   0  0  0  0  0  0  0  0  0  0  0  0
   -1.4238   -0.0087    1.1777 C   0  0  0  0  0  0  0  0  0  0  0  0
    0.0793   -1.9024   -1.2589 H   0  0  0  0  0  0  0  0  0  0  0  0
   -1.5254   -2.0773   -0.4224 H   0  0  0  0  0  0  0  0  0  0  0  0
    0.0603   -2.3674    0.4620 H   0  0  0  0  0  0  0  0  0  0  0  0
    0.9536    1.1406    0.9276 H   0  0  0  0  0  0  0  0  0  0  0  0
    1.2481   -0.5542    1.3969 H   0  0  0  0  0  0  0  0  0  0  0  0
    4.0714    0.2164   -0.8469 H   0  0  0  0  0  0  0  0  0  0  0  0
   -0.5641    1.2198   -1.4985 H   0  0  0  0  0  0  0  0  0  0  0  0
   -2.0214    0.1058   -1.2646 H   0  0  0  0  0  0  0  0  0  0  0  0
   -0.8781    2.0915    0.8270 H   0  0  0  0  0  0  0  0  0  0  0  0
   -2.6655    1.6380    0.4665 H   0  0  0  0  0  0  0  0  0  0  0  0
   -2.3099   -0.6628    1.1149 H   0  0  0  0  0  0  0  0  0  0  0  0
   -0.9954    0.1501    2.1723 H   0  0  0  0  0  0  0  0  0  0  0  0
  1  2  1  0
  2  3  1  0
  3  4  1  0
  4  5  1  0
  5  6  2  0
  2  7  1  0
  7  8  1  0
  8  9  1  0
  9  2  1  0
  1 10  1  0
  1 11  1  0
  1 12  1  0
  3 13  1  0
  3 14  1  0
  5 15  1  0
  7 16  1  0
  7 17  1  0
  8 18  1  0
  8 19  1  0
  9 20  1  0
  9 21  1  0
M  END
