
     RDKit          3D

 18 19  0  0  0  0  0  0  0  0999 V2000
    1.5867   -1.1170   -0.0324 C   0  0  0  0  0  0  0  0  0  0  0  0
    0.6682    0.0709   -0.3026 C   0  0  0  0  0  0  0  0  0  0  0  0
   -0.5881    0.0585    0.4952 C   0  0  0  0  0  0  0  0  0  0  0  0
   -0.4480   -0.5008    1.7826 O   0  0  0  0  0  0  0  0  0  0  0  0
   -1.8016   -0.4753   -0.3054 C   0  0  0  0  0  0  0  0  0  0  0  0
   -1.7240    0.9481    0.2448 C   0  0  0  0  0  0  0  0  0  0  0  0
    1.3792    1.3337   -0.6347 C   0  0  0  0  0  0  0  0  0  0  0  0
    0.6490    0.5983   -1.5853 O   0  0  0  0  0  0  0  0  0  0  0  0
    2.1829   -0.8758    0.8794 H   0  0  0  0  0  0  0  0  0  0  0  0
    0.9838   -2.0419    0.1839 H   0  0  0  0  0  0  0  0  0  0  0  0
    2.2671   -1.3120   -0.8939 H   0  0  0  0  0  0  0  0  0  0  0  0
   -0.2968   -1.4708    1.7507 H   0  0  0  0  0  0  0  0  0  0  0  0
   -2.4258   -1.2154    0.2074 H   0  0  0  0  0  0  0  0  0  0  0  0
   -1.7184   -0.5091   -1.3961 H   0  0  0  0  0  0  0  0  0  0  0  0
   -2.4202    1.1202    1.1138 H   0  0  0  0  0  0  0  0  0  0  0  0
   -1.6993    1.7920   -0.4429 H   0  0  0  0  0  0  0  0  0  0  0  0
    0.9342    2.2798   -0.2512 H   0  0  0  0  0  0  0  0  0  0  0  0
    2.4710    1.3167   -0.8134 H   0  0  0  0  0  0  0  0  0  0  0  0
  1  2  1  0
  2  3  1  0
  3  4  1  0
  3  5  1  0
  5  6  1  0
  2  7  1  0
  7  8  1  0
  8  2  1  0
  6  3  1  0
  1  9  1  0
  1 10  1  0
  1 11  1  0
  4 12  1  0
  5 13  1  0
  5 14  1  0
  6 15  1  0
  6 16  1  0
  7 17  1  0
  7 18  1  0
M  END
