
     RDKit          3D

 23 24  0  0  0  0  0  0  0  0999 V2000
   -1.8149   -1.1201   -0.1428 C   0  0  0  0  0  0  0  0  0  0  0  0
   -0.9990    0.1227   -0.2454 C   0  0  0  0  0  0  0  0  0  0  0  0
   -1.8519    1.2446   -0.8323 C   0  0  0  0  0  0  0  0  0  0  0  0
   -0.5791    0.5065    1.1539 C   0  0  0  0  0  0  0  0  0  0  0  0
    0.8589   -0.0206    1.1700 C   0  0  0  0  0  0  0  0  0  0  0  0
    1.8192    0.9513    0.5850 C   0  0  0  0  0  0  0  0  0  0  0  0
    1.2114   -0.2175   -0.2141 C   0  0  0  0  0  0  0  0  0  0  0  0
    2.2417   -1.1522   -0.7391 C   0  0  0  0  0  0  0  0  0  0  0  0
    0.1299    0.0212   -1.0096 O   0  0  0  0  0  0  0  0  0  0  0  0
   -2.8675   -0.9356   -0.5084 H   0  0  0  0  0  0  0  0  0  0  0  0
   -1.9650   -1.4644    0.9219 H   0  0  0  0  0  0  0  0  0  0  0  0
   -1.4256   -1.9806   -0.6852 H   0  0  0  0  0  0  0  0  0  0  0  0
   -1.8652    1.1098   -1.9448 H   0  0  0  0  0  0  0  0  0  0  0  0
   -1.3693    2.1970   -0.5599 H   0  0  0  0  0  0  0  0  0  0  0  0
   -2.8866    1.1465   -0.4468 H   0  0  0  0  0  0  0  0  0  0  0  0
   -1.1697    0.0422    1.9401 H   0  0  0  0  0  0  0  0  0  0  0  0
   -0.6004    1.6146    1.2526 H   0  0  0  0  0  0  0  0  0  0  0  0
    1.1330   -0.7159    1.9561 H   0  0  0  0  0  0  0  0  0  0  0  0
    2.8535    0.8676    0.9265 H   0  0  0  0  0  0  0  0  0  0  0  0
    1.4999    1.9192    0.2001 H   0  0  0  0  0  0  0  0  0  0  0  0
    3.2862   -0.9079   -0.4065 H   0  0  0  0  0  0  0  0  0  0  0  0
    2.0859   -2.2073   -0.5139 H   0  0  0  0  0  0  0  0  0  0  0  0
    2.2746   -1.0209   -1.8572 H   0  0  0  0  0  0  0  0  0  0  0  0
  1  2  1  0
  2  3  1  0
  2  4  1  0
  4  5  1  0
  5  6  1  0
  6  7  1  0
  7  8  1  0
  7  9  1  0
  9  2  1  0
  7  5  1  0
  1 10  1  0
  1 11  1  0
  1 12  1  0
  3 13  1  0
  3 14  1  0
  3 15  1  0
  4 16  1  0
  4 17  1  0
  5 18  1  0
  6 19  1  0
  6 20  1  0
  8 21  1  0
  8 22  1  0
  8 23  1  0
M  END
