
     RDKit          3D

 19 21  0  0  0  0  0  0  0  0999 V2000
    2.1388   -0.9898   -0.2035 C   0  0  0  0  0  0  0  0  0  0  0  0
    0.9884   -0.1664    0.3341 C   0  0  0  0  0  0  0  0  0  0  0  0
   -0.3983   -0.6319    0.0683 C   0  0  0  0  0  0  0  0  0  0  0  0
   -1.5342   -0.3214    0.9781 C   0  0  0  0  0  0  0  0  0  0  0  0
   -2.1813    0.4078   -0.1993 C   0  0  0  0  0  0  0  0  0  0  0  0
   -1.1626   -0.1752   -1.1088 C   0  0  0  0  0  0  0  0  0  0  0  0
   -0.7026   -1.4591   -0.9827 O   0  0  0  0  0  0  0  0  0  0  0  0
    1.2012    1.3211    0.2051 C   0  0  0  0  0  0  0  0  0  0  0  0
    1.1723    0.6607    1.4171 O   0  0  0  0  0  0  0  0  0  0  0  0
    1.8911   -2.0567   -0.2903 H   0  0  0  0  0  0  0  0  0  0  0  0
    3.0060   -0.7964    0.4759 H   0  0  0  0  0  0  0  0  0  0  0  0
    2.4043   -0.5267   -1.1970 H   0  0  0  0  0  0  0  0  0  0  0  0
   -1.3443    0.2969    1.8573 H   0  0  0  0  0  0  0  0  0  0  0  0
   -2.0846   -1.2765    1.2255 H   0  0  0  0  0  0  0  0  0  0  0  0
   -2.0412    1.4968   -0.0582 H   0  0  0  0  0  0  0  0  0  0  0  0
   -3.2353    0.1545   -0.3683 H   0  0  0  0  0  0  0  0  0  0  0  0
   -0.7126    0.4021   -1.9336 H   0  0  0  0  0  0  0  0  0  0  0  0
    2.2100    1.6980   -0.0955 H   0  0  0  0  0  0  0  0  0  0  0  0
    0.3847    1.9621   -0.1241 H   0  0  0  0  0  0  0  0  0  0  0  0
  1  2  1  0
  2  3  1  0
  3  4  1  0
  4  5  1  0
  5  6  1  0
  6  7  1  0
  2  8  1  0
  8  9  1  0
  9  2  1  0
  6  3  1  0
  7  3  1  0
  1 10  1  0
  1 11  1  0
  1 12  1  0
  4 13  1  0
  4 14  1  0
  5 15  1  0
  5 16  1  0
  6 17  1  0
  8 18  1  0
  8 19  1  0
M  END
