
     RDKit          3D

 17 18  0  0  0  0  0  0  0  0999 V2000
    0.9441   -0.8004   -1.1328 C   0  0  0  0  0  0  0  0  0  0  0  0
    0.6377    0.3581   -0.2427 C   0  0  0  0  0  0  0  0  0  0  0  0
   -0.7604    0.5624    0.2705 C   0  0  0  0  0  0  0  0  0  0  0  0
   -1.3231   -0.5539    1.0993 C   0  0  0  0  0  0  0  0  0  0  0  0
   -2.5754   -0.1971    0.4966 O   0  0  0  0  0  0  0  0  0  0  0  0
   -1.8446    0.1248   -0.6302 C   0  0  0  0  0  0  0  0  0  0  0  0
   -2.0711    0.0495   -1.8508 O   0  0  0  0  0  0  0  0  0  0  0  0
    1.7185    0.8423    0.6999 C   0  0  0  0  0  0  0  0  0  0  0  0
    1.4077    1.5405   -0.4683 O   0  0  0  0  0  0  0  0  0  0  0  0
    0.1495   -0.8362   -1.9187 H   0  0  0  0  0  0  0  0  0  0  0  0
    1.8940   -0.6222   -1.6760 H   0  0  0  0  0  0  0  0  0  0  0  0
    1.0126   -1.7422   -0.5638 H   0  0  0  0  0  0  0  0  0  0  0  0
   -0.9660    1.5581    0.6791 H   0  0  0  0  0  0  0  0  0  0  0  0
   -1.0386   -1.5542    0.7030 H   0  0  0  0  0  0  0  0  0  0  0  0
   -1.2918   -0.4328    2.1875 H   0  0  0  0  0  0  0  0  0  0  0  0
    2.6910    0.3038    0.7310 H   0  0  0  0  0  0  0  0  0  0  0  0
    1.4158    1.3993    1.6165 H   0  0  0  0  0  0  0  0  0  0  0  0
  1  2  1  0
  2  3  1  0
  3  4  1  0
  4  5  1  0
  5  6  1  0
  6  7  2  0
  2  8  1  0
  8  9  1  0
  9  2  1  0
  6  3  1  0
  1 10  1  0
  1 11  1  0
  1 12  1  0
  3 13  1  0
  4 14  1  0
  4 15  1  0
  8 16  1  0
  8 17  1  0
M  END
