
     RDKit          3D

 21 23  0  0  0  0  0  0  0  0999 V2000
   -2.0617   -0.8192    0.2165 C   0  0  0  0  0  0  0  0  0  0  0  0
   -0.9991    0.2317   -0.0915 C   0  0  0  0  0  0  0  0  0  0  0  0
   -1.6169    1.5421   -0.5562 C   0  0  0  0  0  0  0  0  0  0  0  0
    0.2486   -0.1214   -0.7523 C   0  0  0  0  0  0  0  0  0  0  0  0
    0.8032   -1.4970   -0.4870 C   0  0  0  0  0  0  0  0  0  0  0  0
    1.5810   -1.9385    0.5661 O   0  0  0  0  0  0  0  0  0  0  0  0
    1.4030   -0.6698    0.6451 C   0  0  0  0  0  0  0  0  0  0  0  0
    2.6356    0.1140    0.1316 C   0  0  0  0  0  0  0  0  0  0  0  0
    0.1967    0.1723    0.7556 C   0  0  0  0  0  0  0  0  0  0  0  0
   -2.9917   -0.3224    0.5587 H   0  0  0  0  0  0  0  0  0  0  0  0
   -1.7493   -1.4904    1.0432 H   0  0  0  0  0  0  0  0  0  0  0  0
   -2.3132   -1.3681   -0.7098 H   0  0  0  0  0  0  0  0  0  0  0  0
   -1.1411    2.3495    0.0381 H   0  0  0  0  0  0  0  0  0  0  0  0
   -2.6981    1.5886   -0.4033 H   0  0  0  0  0  0  0  0  0  0  0  0
   -1.3403    1.7532   -1.6196 H   0  0  0  0  0  0  0  0  0  0  0  0
    0.7878    0.5761   -1.3939 H   0  0  0  0  0  0  0  0  0  0  0  0
   -0.0497   -2.1978   -0.3996 H   0  0  0  0  0  0  0  0  0  0  0  0
    2.3934    1.1421   -0.1313 H   0  0  0  0  0  0  0  0  0  0  0  0
    3.1600   -0.4249   -0.6501 H   0  0  0  0  0  0  0  0  0  0  0  0
    3.3108    0.1649    1.0295 H   0  0  0  0  0  0  0  0  0  0  0  0
    0.4410    1.2149    1.1249 H   0  0  0  0  0  0  0  0  0  0  0  0
  1  2  1  0
  2  3  1  0
  2  4  1  0
  4  5  1  0
  5  6  1  0
  6  7  1  0
  7  8  1  0
  7  9  1  0
  9  2  1  0
  9  4  1  0
  7  5  1  0
  1 10  1  0
  1 11  1  0
  1 12  1  0
  3 13  1  0
  3 14  1  0
  3 15  1  0
  4 16  1  0
  5 17  1  0
  8 18  1  0
  8 19  1  0
  8 20  1  0
  9 21  1  0
M  END
