
     RDKit          3D

 17 17  0  0  0  0  0  0  0  0999 V2000
   -0.4776   -0.2385    1.6153 C   0  0  0  0  0  0  0  0  0  0  0  0
   -0.1008    0.0028    0.1671 C   0  0  0  0  0  0  0  0  0  0  0  0
   -1.3531    0.0971   -0.6927 C   0  0  0  0  0  0  0  0  0  0  0  0
   -2.1148    1.1593   -0.1959 O   0  0  0  0  0  0  0  0  0  0  0  0
    0.7873   -1.0637   -0.3562 C   0  0  0  0  0  0  0  0  0  0  0  0
    1.9525   -0.5575   -0.7158 C   0  0  0  0  0  0  0  0  0  0  0  0
    1.8624    0.8681   -0.4366 C   0  0  0  0  0  0  0  0  0  0  0  0
    2.8184    1.6862   -0.6624 O   0  0  0  0  0  0  0  0  0  0  0  0
    0.6306    1.2062    0.0934 O   0  0  0  0  0  0  0  0  0  0  0  0
   -1.4755    0.1749    1.8690 H   0  0  0  0  0  0  0  0  0  0  0  0
   -0.4518   -1.3222    1.8549 H   0  0  0  0  0  0  0  0  0  0  0  0
    0.2747    0.2415    2.2797 H   0  0  0  0  0  0  0  0  0  0  0  0
   -1.9544   -0.8217   -0.5746 H   0  0  0  0  0  0  0  0  0  0  0  0
   -1.0464    0.2932   -1.7323 H   0  0  0  0  0  0  0  0  0  0  0  0
   -2.6988    1.4492   -0.9415 H   0  0  0  0  0  0  0  0  0  0  0  0
    0.5261   -2.1069   -0.4352 H   0  0  0  0  0  0  0  0  0  0  0  0
    2.8213   -1.0681   -1.1363 H   0  0  0  0  0  0  0  0  0  0  0  0
  1  2  1  0
  2  3  1  0
  3  4  1  0
  2  5  1  0
  5  6  2  0
  6  7  1  0
  7  8  2  0
  7  9  1  0
  9  2  1  0
  1 10  1  0
  1 11  1  0
  1 12  1  0
  3 13  1  0
  3 14  1  0
  4 15  1  0
  5 16  1  0
  6 17  1  0
M  END
