
     RDKit          3D

 21 21  0  0  0  0  0  0  0  0999 V2000
   -0.5343   -1.7205    0.1871 C   0  0  0  0  0  0  0  0  0  0  0  0
   -0.1564   -0.3023   -0.1028 C   0  0  0  0  0  0  0  0  0  0  0  0
    1.3382   -0.0907   -0.0805 C   0  0  0  0  0  0  0  0  0  0  0  0
    1.5635    1.2552   -0.3616 O   0  0  0  0  0  0  0  0  0  0  0  0
    1.9230   -0.5025    1.2060 C   0  0  0  0  0  0  0  0  0  0  0  0
    1.8031   -1.6466    1.5770 O   0  0  0  0  0  0  0  0  0  0  0  0
   -0.9365    0.6416    0.7855 C   0  0  0  0  0  0  0  0  0  0  0  0
   -1.2961    1.4671   -0.4098 C   0  0  0  0  0  0  0  0  0  0  0  0
   -0.8151    0.3362   -1.2928 C   0  0  0  0  0  0  0  0  0  0  0  0
   -1.5988   -1.9305   -0.1090 H   0  0  0  0  0  0  0  0  0  0  0  0
   -0.5057   -1.8674    1.2866 H   0  0  0  0  0  0  0  0  0  0  0  0
    0.1592   -2.4647   -0.2520 H   0  0  0  0  0  0  0  0  0  0  0  0
    1.7905   -0.6666   -0.9170 H   0  0  0  0  0  0  0  0  0  0  0  0
    1.6870    1.4255   -1.3306 H   0  0  0  0  0  0  0  0  0  0  0  0
    2.4548    0.1964    1.8216 H   0  0  0  0  0  0  0  0  0  0  0  0
   -0.2817    1.1127    1.5402 H   0  0  0  0  0  0  0  0  0  0  0  0
   -1.8325    0.2045    1.2522 H   0  0  0  0  0  0  0  0  0  0  0  0
   -0.6815    2.3847   -0.4489 H   0  0  0  0  0  0  0  0  0  0  0  0
   -2.3789    1.6745   -0.5516 H   0  0  0  0  0  0  0  0  0  0  0  0
   -0.1088    0.7652   -2.0480 H   0  0  0  0  0  0  0  0  0  0  0  0
   -1.5930   -0.2718   -1.7514 H   0  0  0  0  0  0  0  0  0  0  0  0
  1  2  1  0
  2  3  1  0
  3  4  1  0
  3  5  1  0
  5  6  2  0
  2  7  1  0
  7  8  1  0
  8  9  1  0
  9  2  1  0
  1 10  1  0
  1 11  1  0
  1 12  1  0
  3 13  1  0
  4 14  1  0
  5 15  1  0
  7 16  1  0
  7 17  1  0
  8 18  1  0
  8 19  1  0
  9 20  1  0
  9 21  1  0
M  END
