
     RDKit          3D

 21 23  0  0  0  0  0  0  0  0999 V2000
   -1.1588   -1.6244   -0.4262 C   0  0  0  0  0  0  0  0  0  0  0  0
   -0.9681   -0.2416    0.2153 C   0  0  0  0  0  0  0  0  0  0  0  0
    0.4239   -0.0345    0.7213 C   0  0  0  0  0  0  0  0  0  0  0  0
    1.4760   -0.1425   -0.3910 C   0  0  0  0  0  0  0  0  0  0  0  0
    2.9203    0.0469   -0.0036 C   0  0  0  0  0  0  0  0  0  0  0  0
    2.5431    1.2009    0.6743 O   0  0  0  0  0  0  0  0  0  0  0  0
    1.2073    1.1696    0.3688 C   0  0  0  0  0  0  0  0  0  0  0  0
   -1.6347    0.9084   -0.4414 C   0  0  0  0  0  0  0  0  0  0  0  0
   -2.1454    0.3564    0.8725 C   0  0  0  0  0  0  0  0  0  0  0  0
   -0.2491   -1.8758   -1.0324 H   0  0  0  0  0  0  0  0  0  0  0  0
   -1.1623   -2.3432    0.4281 H   0  0  0  0  0  0  0  0  0  0  0  0
   -2.0822   -1.6869   -1.0016 H   0  0  0  0  0  0  0  0  0  0  0  0
    0.6663   -0.5876    1.6411 H   0  0  0  0  0  0  0  0  0  0  0  0
    1.1650   -0.1041   -1.4285 H   0  0  0  0  0  0  0  0  0  0  0  0
    3.5370    0.1979   -0.9077 H   0  0  0  0  0  0  0  0  0  0  0  0
    3.3440   -0.7115    0.6642 H   0  0  0  0  0  0  0  0  0  0  0  0
    0.7929    2.0158   -0.1805 H   0  0  0  0  0  0  0  0  0  0  0  0
   -2.2588    0.7638   -1.3493 H   0  0  0  0  0  0  0  0  0  0  0  0
   -1.2376    1.9318   -0.3572 H   0  0  0  0  0  0  0  0  0  0  0  0
   -3.0974   -0.2062    0.7817 H   0  0  0  0  0  0  0  0  0  0  0  0
   -2.0815    0.9669    1.7803 H   0  0  0  0  0  0  0  0  0  0  0  0
  1  2  1  0
  2  3  1  0
  3  4  1  0
  4  5  1  0
  5  6  1  0
  6  7  1  0
  2  8  1  0
  8  9  1  0
  9  2  1  0
  7  3  1  0
  7  4  1  0
  1 10  1  0
  1 11  1  0
  1 12  1  0
  3 13  1  0
  4 14  1  0
  5 15  1  0
  5 16  1  0
  7 17  1  0
  8 18  1  0
  8 19  1  0
  9 20  1  0
  9 21  1  0
M  END
