
     RDKit          3D

 19 21  0  0  0  0  0  0  0  0999 V2000
    1.4856   -1.0249    0.9512 C   0  0  0  0  0  0  0  0  0  0  0  0
    1.1550   -0.0999   -0.1799 C   0  0  0  0  0  0  0  0  0  0  0  0
    2.3439    0.3035   -0.8277 O   0  0  0  0  0  0  0  0  0  0  0  0
    0.2314    1.0024    0.1279 C   0  0  0  0  0  0  0  0  0  0  0  0
   -1.0036    0.6746    0.8847 C   0  0  0  0  0  0  0  0  0  0  0  0
   -1.7834   -0.5345    0.8442 C   0  0  0  0  0  0  0  0  0  0  0  0
   -1.4630    0.0693   -0.4592 C   0  0  0  0  0  0  0  0  0  0  0  0
   -0.0601   -0.0699   -0.9378 C   0  0  0  0  0  0  0  0  0  0  0  0
    0.0466    0.3445   -2.2899 O   0  0  0  0  0  0  0  0  0  0  0  0
    1.5862   -2.0506    0.5357 H   0  0  0  0  0  0  0  0  0  0  0  0
    2.4681   -0.7835    1.4088 H   0  0  0  0  0  0  0  0  0  0  0  0
    0.7593   -1.0183    1.7751 H   0  0  0  0  0  0  0  0  0  0  0  0
    2.3357    1.2496   -1.0620 H   0  0  0  0  0  0  0  0  0  0  0  0
    0.4077    2.0177   -0.2864 H   0  0  0  0  0  0  0  0  0  0  0  0
   -1.5367    1.6175    1.2140 H   0  0  0  0  0  0  0  0  0  0  0  0
   -1.4265   -1.5664    0.9665 H   0  0  0  0  0  0  0  0  0  0  0  0
   -2.8765   -0.4599    1.1249 H   0  0  0  0  0  0  0  0  0  0  0  0
   -2.2065    0.6879   -0.9933 H   0  0  0  0  0  0  0  0  0  0  0  0
   -0.4632   -0.3591   -2.7968 H   0  0  0  0  0  0  0  0  0  0  0  0
  1  2  1  0
  2  3  1  0
  2  4  1  0
  4  5  1  0
  5  6  1  0
  6  7  1  0
  7  8  1  0
  8  9  1  0
  8  2  1  0
  8  4  1  0
  7  5  1  0
  1 10  1  0
  1 11  1  0
  1 12  1  0
  3 13  1  0
  4 14  1  0
  5 15  1  0
  6 16  1  0
  6 17  1  0
  7 18  1  0
  9 19  1  0
M  END
