
     RDKit          3D

 23 24  0  0  0  0  0  0  0  0999 V2000
   -2.2237   -0.6842    0.7882 C   0  0  0  0  0  0  0  0  0  0  0  0
   -0.9060   -0.3098    0.2189 C   0  0  0  0  0  0  0  0  0  0  0  0
   -0.9944   -0.0923   -1.1665 O   0  0  0  0  0  0  0  0  0  0  0  0
    0.0962   -1.4621    0.3840 C   0  0  0  0  0  0  0  0  0  0  0  0
    1.4886   -1.1386    0.0327 C   0  0  0  0  0  0  0  0  0  0  0  0
    1.9465    0.2872    0.3833 C   0  0  0  0  0  0  0  0  0  0  0  0
    0.8935    1.1674   -0.1312 C   0  0  0  0  0  0  0  0  0  0  0  0
    0.0583    2.1512    0.4355 C   0  0  0  0  0  0  0  0  0  0  0  0
   -0.2719    0.8451    0.8639 C   0  0  0  0  0  0  0  0  0  0  0  0
   -2.6006    0.1108    1.4862 H   0  0  0  0  0  0  0  0  0  0  0  0
   -2.1589   -1.6342    1.3172 H   0  0  0  0  0  0  0  0  0  0  0  0
   -2.9873   -0.7250   -0.0373 H   0  0  0  0  0  0  0  0  0  0  0  0
   -1.3448    0.8429   -1.2722 H   0  0  0  0  0  0  0  0  0  0  0  0
    0.0497   -1.8129    1.4545 H   0  0  0  0  0  0  0  0  0  0  0  0
   -0.2703   -2.2610   -0.2877 H   0  0  0  0  0  0  0  0  0  0  0  0
    1.6036   -1.1907   -1.0905 H   0  0  0  0  0  0  0  0  0  0  0  0
    2.1567   -1.8797    0.4783 H   0  0  0  0  0  0  0  0  0  0  0  0
    2.9404    0.4060   -0.0632 H   0  0  0  0  0  0  0  0  0  0  0  0
    2.0326    0.2960    1.4892 H   0  0  0  0  0  0  0  0  0  0  0  0
    0.7053    0.9278   -1.2238 H   0  0  0  0  0  0  0  0  0  0  0  0
   -0.6846    2.6840   -0.2265 H   0  0  0  0  0  0  0  0  0  0  0  0
    0.4504    2.8859    1.1811 H   0  0  0  0  0  0  0  0  0  0  0  0
    0.0205    0.5863    1.9247 H   0  0  0  0  0  0  0  0  0  0  0  0
  1  2  1  0
  2  3  1  0
  2  4  1  0
  4  5  1  0
  5  6  1  0
  6  7  1  0
  7  8  1  0
  8  9  1  0
  9  2  1  0
  9  7  1  0
  1 10  1  0
  1 11  1  0
  1 12  1  0
  3 13  1  0
  4 14  1  0
  4 15  1  0
  5 16  1  0
  5 17  1  0
  6 18  1  0
  6 19  1  0
  7 20  1  0
  8 21  1  0
  8 22  1  0
  9 23  1  0
M  END
