
     RDKit          3D

 21 22  0  0  0  0  0  0  0  0999 V2000
    1.9959    0.8312    0.6687 C   0  0  0  0  0  0  0  0  0  0  0  0
    0.9345    0.0770   -0.1420 C   0  0  0  0  0  0  0  0  0  0  0  0
    1.6194   -0.9076   -1.1017 C   0  0  0  0  0  0  0  0  0  0  0  0
   -0.2152   -0.3773    0.5397 C   0  0  0  0  0  0  0  0  0  0  0  0
   -1.3587   -1.2296    0.1471 C   0  0  0  0  0  0  0  0  0  0  0  0
   -2.3525   -0.2981   -0.2610 O   0  0  0  0  0  0  0  0  0  0  0  0
   -2.2039    0.9173    0.4185 C   0  0  0  0  0  0  0  0  0  0  0  0
   -1.0738    1.6443   -0.0372 O   0  0  0  0  0  0  0  0  0  0  0  0
   -0.2445    0.7195   -0.5799 C   0  0  0  0  0  0  0  0  0  0  0  0
    2.5398    0.1208    1.3471 H   0  0  0  0  0  0  0  0  0  0  0  0
    1.5443    1.6030    1.3135 H   0  0  0  0  0  0  0  0  0  0  0  0
    2.7655    1.2269   -0.0190 H   0  0  0  0  0  0  0  0  0  0  0  0
    2.0523   -1.7414   -0.5559 H   0  0  0  0  0  0  0  0  0  0  0  0
    2.3009   -0.3438   -1.7448 H   0  0  0  0  0  0  0  0  0  0  0  0
    0.8104   -1.3016   -1.7607 H   0  0  0  0  0  0  0  0  0  0  0  0
   -0.3524   -0.0149    1.6010 H   0  0  0  0  0  0  0  0  0  0  0  0
   -1.7453   -1.8915    0.9246 H   0  0  0  0  0  0  0  0  0  0  0  0
   -1.0776   -1.7762   -0.7979 H   0  0  0  0  0  0  0  0  0  0  0  0
   -2.2153    0.8094    1.4994 H   0  0  0  0  0  0  0  0  0  0  0  0
   -3.0797    1.5306    0.1298 H   0  0  0  0  0  0  0  0  0  0  0  0
   -0.6439    0.4021   -1.5893 H   0  0  0  0  0  0  0  0  0  0  0  0
  1  2  1  0
  2  3  1  0
  2  4  1  0
  4  5  1  0
  5  6  1  0
  6  7  1  0
  7  8  1  0
  8  9  1  0
  9  2  1  0
  9  4  1  0
  1 10  1  0
  1 11  1  0
  1 12  1  0
  3 13  1  0
  3 14  1  0
  3 15  1  0
  4 16  1  0
  5 17  1  0
  5 18  1  0
  7 19  1  0
  7 20  1  0
  9 21  1  0
M  END
