
     RDKit          3D

 21 22  0  0  0  0  0  0  0  0999 V2000
   -2.0809   -0.7792   -0.7846 C   0  0  0  0  0  0  0  0  0  0  0  0
   -0.8766   -0.0516   -0.2896 C   0  0  0  0  0  0  0  0  0  0  0  0
   -1.2007    1.1818    0.5168 C   0  0  0  0  0  0  0  0  0  0  0  0
    0.1231    0.2353   -1.3547 C   0  0  0  0  0  0  0  0  0  0  0  0
    1.3557    0.1972   -0.8652 C   0  0  0  0  0  0  0  0  0  0  0  0
    2.8010    0.1813   -0.4247 C   0  0  0  0  0  0  0  0  0  0  0  0
    2.4520   -0.7013    0.6365 O   0  0  0  0  0  0  0  0  0  0  0  0
    1.2315   -0.0943    0.6193 C   0  0  0  0  0  0  0  0  0  0  0  0
   -0.0043   -0.9606    0.6007 C   0  0  0  0  0  0  0  0  0  0  0  0
   -2.1182   -0.9248   -1.8638 H   0  0  0  0  0  0  0  0  0  0  0  0
   -2.1699   -1.7910   -0.2970 H   0  0  0  0  0  0  0  0  0  0  0  0
   -2.9816   -0.2065   -0.4807 H   0  0  0  0  0  0  0  0  0  0  0  0
   -2.2932    1.3715    0.4361 H   0  0  0  0  0  0  0  0  0  0  0  0
   -0.6878    2.0708    0.0732 H   0  0  0  0  0  0  0  0  0  0  0  0
   -0.8989    1.0926    1.5825 H   0  0  0  0  0  0  0  0  0  0  0  0
   -0.0899    0.4483   -2.3889 H   0  0  0  0  0  0  0  0  0  0  0  0
    3.4800   -0.3334   -1.1072 H   0  0  0  0  0  0  0  0  0  0  0  0
    3.0761    1.1921   -0.0863 H   0  0  0  0  0  0  0  0  0  0  0  0
    1.1204    0.8454    1.1897 H   0  0  0  0  0  0  0  0  0  0  0  0
    0.2191   -1.8780    0.0586 H   0  0  0  0  0  0  0  0  0  0  0  0
   -0.4570   -1.0955    1.5949 H   0  0  0  0  0  0  0  0  0  0  0  0
  1  2  1  0
  2  3  1  0
  2  4  1  0
  4  5  2  0
  5  6  1  0
  6  7  1  0
  7  8  1  0
  8  9  1  0
  9  2  1  0
  8  5  1  0
  1 10  1  0
  1 11  1  0
  1 12  1  0
  3 13  1  0
  3 14  1  0
  3 15  1  0
  4 16  1  0
  6 17  1  0
  6 18  1  0
  8 19  1  0
  9 20  1  0
  9 21  1  0
M  END
