
     RDKit          3D

 19 20  0  0  0  0  0  0  0  0999 V2000
    1.7197    1.1438    0.1927 C   0  0  0  0  0  0  0  0  0  0  0  0
    0.9527    0.1149   -0.6081 C   0  0  0  0  0  0  0  0  0  0  0  0
    1.3704    0.1985   -1.9643 O   0  0  0  0  0  0  0  0  0  0  0  0
    0.7386   -1.1368    0.0626 C   0  0  0  0  0  0  0  0  0  0  0  0
   -0.3165   -1.5717    0.8479 O   0  0  0  0  0  0  0  0  0  0  0  0
   -0.9785   -1.6606   -0.4094 C   0  0  0  0  0  0  0  0  0  0  0  0
   -0.4338   -0.2172   -0.4533 C   0  0  0  0  0  0  0  0  0  0  0  0
   -1.1483    0.5915    0.6058 C   0  0  0  0  0  0  0  0  0  0  0  0
   -2.4927    0.2448    0.7312 O   0  0  0  0  0  0  0  0  0  0  0  0
    1.2869    1.3415    1.1809 H   0  0  0  0  0  0  0  0  0  0  0  0
    2.7213    0.6840    0.3876 H   0  0  0  0  0  0  0  0  0  0  0  0
    1.9300    2.0656   -0.3920 H   0  0  0  0  0  0  0  0  0  0  0  0
    1.1201    1.0556   -2.3661 H   0  0  0  0  0  0  0  0  0  0  0  0
    1.0040   -2.0086   -0.6122 H   0  0  0  0  0  0  0  0  0  0  0  0
   -2.0559   -1.7035   -0.2325 H   0  0  0  0  0  0  0  0  0  0  0  0
   -0.5455   -2.3437   -1.1289 H   0  0  0  0  0  0  0  0  0  0  0  0
   -1.1221    1.6508    0.2755 H   0  0  0  0  0  0  0  0  0  0  0  0
   -0.7015    0.5295    1.5901 H   0  0  0  0  0  0  0  0  0  0  0  0
   -3.0488    1.0216    1.0165 H   0  0  0  0  0  0  0  0  0  0  0  0
  1  2  1  0
  2  3  1  0
  2  4  1  0
  4  5  1  0
  5  6  1  0
  6  7  1  0
  7  8  1  0
  8  9  1  0
  7  2  1  0
  7  4  1  0
  1 10  1  0
  1 11  1  0
  1 12  1  0
  3 13  1  0
  4 14  1  0
  6 15  1  0
  6 16  1  0
  8 17  1  0
  8 18  1  0
  9 19  1  0
M  END
