
     RDKit          3D

 23 24  0  0  0  0  0  0  0  0999 V2000
   -1.1903    1.1876   -0.9612 C   0  0  0  0  0  0  0  0  0  0  0  0
   -0.7271   -0.0231   -0.1350 C   0  0  0  0  0  0  0  0  0  0  0  0
   -2.0285   -0.7906    0.1465 C   0  0  0  0  0  0  0  0  0  0  0  0
    0.2429   -0.8652   -0.8984 C   0  0  0  0  0  0  0  0  0  0  0  0
    1.6198   -0.9054   -0.3000 C   0  0  0  0  0  0  0  0  0  0  0  0
    2.1230    0.4714    0.0289 C   0  0  0  0  0  0  0  0  0  0  0  0
    1.3445    0.1807    1.2728 C   0  0  0  0  0  0  0  0  0  0  0  0
   -0.1229    0.4241    1.1544 C   0  0  0  0  0  0  0  0  0  0  0  0
    1.5863   -1.1664    1.0786 O   0  0  0  0  0  0  0  0  0  0  0  0
   -1.3973    0.9176   -2.0003 H   0  0  0  0  0  0  0  0  0  0  0  0
   -2.1119    1.5582   -0.4480 H   0  0  0  0  0  0  0  0  0  0  0  0
   -0.4690    1.9998   -0.9471 H   0  0  0  0  0  0  0  0  0  0  0  0
   -2.6247   -0.1800    0.8706 H   0  0  0  0  0  0  0  0  0  0  0  0
   -1.8375   -1.8008    0.5165 H   0  0  0  0  0  0  0  0  0  0  0  0
   -2.6430   -0.8450   -0.7719 H   0  0  0  0  0  0  0  0  0  0  0  0
    0.3445   -0.5338   -1.9459 H   0  0  0  0  0  0  0  0  0  0  0  0
   -0.1591   -1.9103   -0.9063 H   0  0  0  0  0  0  0  0  0  0  0  0
    2.2859   -1.5444   -0.8822 H   0  0  0  0  0  0  0  0  0  0  0  0
    3.2010    0.5157    0.2414 H   0  0  0  0  0  0  0  0  0  0  0  0
    1.7979    1.2929   -0.5984 H   0  0  0  0  0  0  0  0  0  0  0  0
    1.7808    0.6567    2.1454 H   0  0  0  0  0  0  0  0  0  0  0  0
   -0.3981    1.4953    1.3401 H   0  0  0  0  0  0  0  0  0  0  0  0
   -0.6171   -0.1349    1.9994 H   0  0  0  0  0  0  0  0  0  0  0  0
  1  2  1  0
  2  3  1  0
  2  4  1  0
  4  5  1  0
  5  6  1  0
  6  7  1  0
  7  8  1  0
  7  9  1  0
  8  2  1  0
  9  5  1  0
  1 10  1  0
  1 11  1  0
  1 12  1  0
  3 13  1  0
  3 14  1  0
  3 15  1  0
  4 16  1  0
  4 17  1  0
  5 18  1  0
  6 19  1  0
  6 20  1  0
  7 21  1  0
  8 22  1  0
  8 23  1  0
M  END
