
     RDKit          3D

 21 23  0  0  0  0  0  0  0  0999 V2000
   -1.7319    1.1875   -0.0154 C   0  0  0  0  0  0  0  0  0  0  0  0
   -0.8400   -0.0062    0.0064 C   0  0  0  0  0  0  0  0  0  0  0  0
   -1.5854   -1.2991   -0.0761 C   0  0  0  0  0  0  0  0  0  0  0  0
    0.3201    0.0418    0.9554 C   0  0  0  0  0  0  0  0  0  0  0  0
    0.9723   -0.9717    0.0678 C   0  0  0  0  0  0  0  0  0  0  0  0
    2.3959   -0.5990    0.0808 C   0  0  0  0  0  0  0  0  0  0  0  0
    2.3695    0.7316   -0.0046 C   0  0  0  0  0  0  0  0  0  0  0  0
    0.9246    1.0396    0.0166 C   0  0  0  0  0  0  0  0  0  0  0  0
    0.3482    0.0030   -0.8952 C   0  0  0  0  0  0  0  0  0  0  0  0
   -1.3577    2.0350    0.6255 H   0  0  0  0  0  0  0  0  0  0  0  0
   -1.9305    1.5900   -1.0282 H   0  0  0  0  0  0  0  0  0  0  0  0
   -2.6966    0.8839    0.4901 H   0  0  0  0  0  0  0  0  0  0  0  0
   -2.6293   -1.0854   -0.4406 H   0  0  0  0  0  0  0  0  0  0  0  0
   -1.1643   -1.9901   -0.8597 H   0  0  0  0  0  0  0  0  0  0  0  0
   -1.7026   -1.8259    0.8780 H   0  0  0  0  0  0  0  0  0  0  0  0
    0.2987    0.0673    1.9542 H   0  0  0  0  0  0  0  0  0  0  0  0
    0.6665   -1.9828    0.0768 H   0  0  0  0  0  0  0  0  0  0  0  0
    3.2209   -1.2967    0.1465 H   0  0  0  0  0  0  0  0  0  0  0  0
    3.1602    1.4662   -0.0747 H   0  0  0  0  0  0  0  0  0  0  0  0
    0.5817    2.0411   -0.0090 H   0  0  0  0  0  0  0  0  0  0  0  0
    0.3800   -0.0302   -1.8945 H   0  0  0  0  0  0  0  0  0  0  0  0
  1  2  1  0
  2  3  1  0
  2  4  1  0
  4  5  1  0
  5  6  1  0
  6  7  2  0
  7  8  1  0
  8  9  1  0
  9  2  1  0
  8  4  1  0
  9  5  1  0
  1 10  1  0
  1 11  1  0
  1 12  1  0
  3 13  1  0
  3 14  1  0
  3 15  1  0
  4 16  1  0
  5 17  1  0
  6 18  1  0
  7 19  1  0
  8 20  1  0
  9 21  1  0
M  END
