
     RDKit          3D

 21 21  0  0  0  0  0  0  0  0999 V2000
   -2.3334   -0.1372    0.2912 C   0  0  0  0  0  0  0  0  0  0  0  0
   -0.9045   -0.4828   -0.0678 C   0  0  0  0  0  0  0  0  0  0  0  0
   -0.7079   -1.8046   -0.4556 O   0  0  0  0  0  0  0  0  0  0  0  0
    0.0246    0.0103    1.0145 C   0  0  0  0  0  0  0  0  0  0  0  0
    0.8462    0.6807   -0.0818 C   0  0  0  0  0  0  0  0  0  0  0  0
    2.1227   -0.0940   -0.2858 C   0  0  0  0  0  0  0  0  0  0  0  0
    2.7989   -0.0640    0.9544 O   0  0  0  0  0  0  0  0  0  0  0  0
   -0.2497    0.4459   -1.0504 C   0  0  0  0  0  0  0  0  0  0  0  0
   -1.0390    1.5940   -1.2609 O   0  0  0  0  0  0  0  0  0  0  0  0
   -2.9987   -0.1018   -0.5849 H   0  0  0  0  0  0  0  0  0  0  0  0
   -2.6582   -0.8886    1.0448 H   0  0  0  0  0  0  0  0  0  0  0  0
   -2.3027    0.8785    0.7479 H   0  0  0  0  0  0  0  0  0  0  0  0
   -0.9986   -2.3648    0.3070 H   0  0  0  0  0  0  0  0  0  0  0  0
    0.5320   -0.8127    1.5395 H   0  0  0  0  0  0  0  0  0  0  0  0
   -0.3699    0.7832    1.6838 H   0  0  0  0  0  0  0  0  0  0  0  0
    1.0470    1.7509    0.0760 H   0  0  0  0  0  0  0  0  0  0  0  0
    1.8489   -1.1392   -0.5066 H   0  0  0  0  0  0  0  0  0  0  0  0
    2.7874    0.3599   -1.0318 H   0  0  0  0  0  0  0  0  0  0  0  0
    3.0601   -0.9415    1.2658 H   0  0  0  0  0  0  0  0  0  0  0  0
   -0.0082   -0.0229   -2.0118 H   0  0  0  0  0  0  0  0  0  0  0  0
   -0.4969    2.3507   -1.5877 H   0  0  0  0  0  0  0  0  0  0  0  0
  1  2  1  0
  2  3  1  0
  2  4  1  0
  4  5  1  0
  5  6  1  0
  6  7  1  0
  5  8  1  0
  8  9  1  0
  8  2  1  0
  1 10  1  0
  1 11  1  0
  1 12  1  0
  3 13  1  0
  4 14  1  0
  4 15  1  0
  5 16  1  0
  6 17  1  0
  6 18  1  0
  7 19  1  0
  8 20  1  0
  9 21  1  0
M  END
