
     RDKit          3D

 23 24  0  0  0  0  0  0  0  0999 V2000
   -0.8422    1.6639   -0.4145 C   0  0  0  0  0  0  0  0  0  0  0  0
   -0.3538    0.2671   -0.0921 C   0  0  0  0  0  0  0  0  0  0  0  0
    1.0590   -0.0055   -0.5265 C   0  0  0  0  0  0  0  0  0  0  0  0
    1.2310    0.1418   -1.9237 O   0  0  0  0  0  0  0  0  0  0  0  0
    1.8065   -1.1481    0.0477 C   0  0  0  0  0  0  0  0  0  0  0  0
    2.2129    0.2294    0.3418 C   0  0  0  0  0  0  0  0  0  0  0  0
   -0.7301   -0.1150    1.2917 C   0  0  0  0  0  0  0  0  0  0  0  0
   -1.9758   -0.7954    0.7225 C   0  0  0  0  0  0  0  0  0  0  0  0
   -1.2715   -0.8195   -0.6179 C   0  0  0  0  0  0  0  0  0  0  0  0
   -1.7188    1.6219   -1.1205 H   0  0  0  0  0  0  0  0  0  0  0  0
   -1.2302    2.1882    0.4882 H   0  0  0  0  0  0  0  0  0  0  0  0
   -0.0261    2.2670   -0.8136 H   0  0  0  0  0  0  0  0  0  0  0  0
    1.6535    1.0136   -2.1341 H   0  0  0  0  0  0  0  0  0  0  0  0
    1.2833   -1.7959    0.7536 H   0  0  0  0  0  0  0  0  0  0  0  0
    2.5143   -1.7325   -0.6118 H   0  0  0  0  0  0  0  0  0  0  0  0
    2.0667    0.5965    1.3907 H   0  0  0  0  0  0  0  0  0  0  0  0
    3.1346    0.6324   -0.1628 H   0  0  0  0  0  0  0  0  0  0  0  0
   -1.0877    0.7271    1.9471 H   0  0  0  0  0  0  0  0  0  0  0  0
   -0.0725   -0.7584    1.8668 H   0  0  0  0  0  0  0  0  0  0  0  0
   -2.8578   -0.1266    0.6559 H   0  0  0  0  0  0  0  0  0  0  0  0
   -2.1914   -1.7852    1.1169 H   0  0  0  0  0  0  0  0  0  0  0  0
   -0.7503   -1.7924   -0.7336 H   0  0  0  0  0  0  0  0  0  0  0  0
   -1.8537   -0.4745   -1.4718 H   0  0  0  0  0  0  0  0  0  0  0  0
  1  2  1  0
  2  3  1  0
  3  4  1  0
  3  5  1  0
  5  6  1  0
  2  7  1  0
  7  8  1  0
  8  9  1  0
  9  2  1  0
  6  3  1  0
  1 10  1  0
  1 11  1  0
  1 12  1  0
  4 13  1  0
  5 14  1  0
  5 15  1  0
  6 16  1  0
  6 17  1  0
  7 18  1  0
  7 19  1  0
  8 20  1  0
  8 21  1  0
  9 22  1  0
  9 23  1  0
M  END
