
     RDKit          3D

 21 22  0  0  0  0  0  0  0  0999 V2000
   -1.2533   -1.0115    1.0800 C   0  0  0  0  0  0  0  0  0  0  0  0
   -0.6195   -0.0157    0.1454 C   0  0  0  0  0  0  0  0  0  0  0  0
   -1.7320    0.4832   -0.7788 C   0  0  0  0  0  0  0  0  0  0  0  0
    0.4214   -0.6517   -0.7295 C   0  0  0  0  0  0  0  0  0  0  0  0
    1.7097   -0.2021   -0.1253 C   0  0  0  0  0  0  0  0  0  0  0  0
    2.6879   -0.1775   -1.0943 O   0  0  0  0  0  0  0  0  0  0  0  0
    1.3966    1.1429    0.4501 C   0  0  0  0  0  0  0  0  0  0  0  0
    0.9426    1.0506    1.7913 O   0  0  0  0  0  0  0  0  0  0  0  0
   -0.0140    1.1562    0.8208 C   0  0  0  0  0  0  0  0  0  0  0  0
   -1.7421   -1.7849    0.4210 H   0  0  0  0  0  0  0  0  0  0  0  0
   -0.5193   -1.5179    1.7386 H   0  0  0  0  0  0  0  0  0  0  0  0
   -2.0724   -0.5181    1.6243 H   0  0  0  0  0  0  0  0  0  0  0  0
   -1.7394    1.6082   -0.8153 H   0  0  0  0  0  0  0  0  0  0  0  0
   -2.7240    0.1704   -0.4448 H   0  0  0  0  0  0  0  0  0  0  0  0
   -1.5931    0.1499   -1.8116 H   0  0  0  0  0  0  0  0  0  0  0  0
    0.3702   -0.2015   -1.7625 H   0  0  0  0  0  0  0  0  0  0  0  0
    0.3817   -1.7459   -0.7601 H   0  0  0  0  0  0  0  0  0  0  0  0
    2.0359   -0.9399    0.6592 H   0  0  0  0  0  0  0  0  0  0  0  0
    2.8130   -1.1157   -1.4043 H   0  0  0  0  0  0  0  0  0  0  0  0
    1.8870    2.0529    0.1163 H   0  0  0  0  0  0  0  0  0  0  0  0
   -0.6367    2.0680    0.8797 H   0  0  0  0  0  0  0  0  0  0  0  0
  1  2  1  0
  2  3  1  0
  2  4  1  0
  4  5  1  0
  5  6  1  0
  5  7  1  0
  7  8  1  0
  8  9  1  0
  9  2  1  0
  9  7  1  0
  1 10  1  0
  1 11  1  0
  1 12  1  0
  3 13  1  0
  3 14  1  0
  3 15  1  0
  4 16  1  0
  4 17  1  0
  5 18  1  0
  6 19  1  0
  7 20  1  0
  9 21  1  0
M  END
