
     RDKit          3D

 17 17  0  0  0  0  0  0  0  0999 V2000
   -0.8392   -0.8303    0.9578 C   0  0  0  0  0  0  0  0  0  0  0  0
   -0.3853    0.0986   -0.1615 C   0  0  0  0  0  0  0  0  0  0  0  0
   -1.6182    0.6587   -0.7974 C   0  0  0  0  0  0  0  0  0  0  0  0
    0.5789    1.1058    0.2880 C   0  0  0  0  0  0  0  0  0  0  0  0
    1.7738    0.6138    0.0571 C   0  0  0  0  0  0  0  0  0  0  0  0
    1.6222   -0.7262   -0.5483 C   0  0  0  0  0  0  0  0  0  0  0  0
    0.3452   -0.7045   -1.0535 O   0  0  0  0  0  0  0  0  0  0  0  0
   -0.9201   -0.3286    1.9193 H   0  0  0  0  0  0  0  0  0  0  0  0
   -0.1299   -1.6758    1.0697 H   0  0  0  0  0  0  0  0  0  0  0  0
   -1.8248   -1.2779    0.6493 H   0  0  0  0  0  0  0  0  0  0  0  0
   -2.0193    1.4486   -0.1248 H   0  0  0  0  0  0  0  0  0  0  0  0
   -1.4676    1.0541   -1.8149 H   0  0  0  0  0  0  0  0  0  0  0  0
   -2.3991   -0.1329   -0.8278 H   0  0  0  0  0  0  0  0  0  0  0  0
    0.3649    2.0654    0.7241 H   0  0  0  0  0  0  0  0  0  0  0  0
    2.7552    1.0532    0.2491 H   0  0  0  0  0  0  0  0  0  0  0  0
    2.3980   -0.9253   -1.3258 H   0  0  0  0  0  0  0  0  0  0  0  0
    1.7655   -1.4968    0.2446 H   0  0  0  0  0  0  0  0  0  0  0  0
  1  2  1  0
  2  3  1  0
  2  4  1  0
  4  5  2  0
  5  6  1  0
  6  7  1  0
  7  2  1  0
  1  8  1  0
  1  9  1  0
  1 10  1  0
  3 11  1  0
  3 12  1  0
  3 13  1  0
  4 14  1  0
  5 15  1  0
  6 16  1  0
  6 17  1  0
M  END
