
     RDKit          3D

 20 21  0  0  0  0  0  0  0  0999 V2000
   -0.6001    0.7506    1.4180 C   0  0  0  0  0  0  0  0  0  0  0  0
   -0.5325    0.0868    0.0594 C   0  0  0  0  0  0  0  0  0  0  0  0
   -1.5598    0.5510   -0.9359 C   0  0  0  0  0  0  0  0  0  0  0  0
   -0.5105   -1.4394    0.1144 C   0  0  0  0  0  0  0  0  0  0  0  0
    0.9648   -1.4549   -0.3073 C   0  0  0  0  0  0  0  0  0  0  0  0
    0.8818    0.0257   -0.4211 C   0  0  0  0  0  0  0  0  0  0  0  0
    1.9015    0.9757   -0.1839 C   0  0  0  0  0  0  0  0  0  0  0  0
    1.3282    0.7230   -1.4950 O   0  0  0  0  0  0  0  0  0  0  0  0
    0.3857    1.1633    1.7238 H   0  0  0  0  0  0  0  0  0  0  0  0
   -0.8983   -0.0402    2.1443 H   0  0  0  0  0  0  0  0  0  0  0  0
   -1.3441    1.5622    1.3408 H   0  0  0  0  0  0  0  0  0  0  0  0
   -1.3150    1.5215   -1.3825 H   0  0  0  0  0  0  0  0  0  0  0  0
   -1.7149   -0.2206   -1.7102 H   0  0  0  0  0  0  0  0  0  0  0  0
   -2.5195    0.6563   -0.3941 H   0  0  0  0  0  0  0  0  0  0  0  0
   -0.6635   -1.7795    1.1400 H   0  0  0  0  0  0  0  0  0  0  0  0
   -1.1862   -1.9233   -0.5989 H   0  0  0  0  0  0  0  0  0  0  0  0
    1.0867   -2.0415   -1.2207 H   0  0  0  0  0  0  0  0  0  0  0  0
    1.6355   -1.7465    0.5381 H   0  0  0  0  0  0  0  0  0  0  0  0
    2.9548    0.6548   -0.0631 H   0  0  0  0  0  0  0  0  0  0  0  0
    1.7054    1.9751    0.2341 H   0  0  0  0  0  0  0  0  0  0  0  0
  1  2  1  0
  2  3  1  0
  2  4  1  0
  4  5  1  0
  5  6  1  0
  6  7  1  0
  7  8  1  0
  6  2  1  0
  8  6  1  0
  1  9  1  0
  1 10  1  0
  1 11  1  0
  3 12  1  0
  3 13  1  0
  3 14  1  0
  4 15  1  0
  4 16  1  0
  5 17  1  0
  5 18  1  0
  7 19  1  0
  7 20  1  0
M  END
