
     RDKit          3D

 19 19  0  0  0  0  0  0  0  0999 V2000
    0.1609    1.3470   -0.7894 C   0  0  0  0  0  0  0  0  0  0  0  0
    0.0772   -0.0464   -0.2729 C   0  0  0  0  0  0  0  0  0  0  0  0
    1.3620   -0.8088   -0.3221 C   0  0  0  0  0  0  0  0  0  0  0  0
    2.4559   -0.2163    0.4496 C   0  0  0  0  0  0  0  0  0  0  0  0
    2.5471   -0.3081    1.6697 O   0  0  0  0  0  0  0  0  0  0  0  0
   -0.4850   -0.0218    1.1054 C   0  0  0  0  0  0  0  0  0  0  0  0
   -1.7646   -0.3000    1.0584 C   0  0  0  0  0  0  0  0  0  0  0  0
   -2.0962   -0.5217   -0.3748 C   0  0  0  0  0  0  0  0  0  0  0  0
   -0.8746   -0.7590   -1.0122 O   0  0  0  0  0  0  0  0  0  0  0  0
    0.2950    2.1166    0.0256 H   0  0  0  0  0  0  0  0  0  0  0  0
    0.8735    1.5136   -1.5944 H   0  0  0  0  0  0  0  0  0  0  0  0
   -0.8567    1.5993   -1.2169 H   0  0  0  0  0  0  0  0  0  0  0  0
    1.1381   -1.8435    0.0627 H   0  0  0  0  0  0  0  0  0  0  0  0
    1.6913   -0.9507   -1.3712 H   0  0  0  0  0  0  0  0  0  0  0  0
    3.2388    0.3368   -0.0589 H   0  0  0  0  0  0  0  0  0  0  0  0
    0.0457    0.1887    2.0381 H   0  0  0  0  0  0  0  0  0  0  0  0
   -2.4895   -0.3696    1.8647 H   0  0  0  0  0  0  0  0  0  0  0  0
   -2.7873   -1.3584   -0.4297 H   0  0  0  0  0  0  0  0  0  0  0  0
   -2.5316    0.4023   -0.8320 H   0  0  0  0  0  0  0  0  0  0  0  0
  1  2  1  0
  2  3  1  0
  3  4  1  0
  4  5  2  0
  2  6  1  0
  6  7  2  0
  7  8  1  0
  8  9  1  0
  9  2  1  0
  1 10  1  0
  1 11  1  0
  1 12  1  0
  3 13  1  0
  3 14  1  0
  4 15  1  0
  6 16  1  0
  7 17  1  0
  8 18  1  0
  8 19  1  0
M  END
