
     RDKit          3D

 21 22  0  0  0  0  0  0  0  0999 V2000
    1.6975    0.8394   -0.8783 C   0  0  0  0  0  0  0  0  0  0  0  0
    0.9722   -0.1237    0.0032 C   0  0  0  0  0  0  0  0  0  0  0  0
   -0.5387   -0.2014   -0.0565 C   0  0  0  0  0  0  0  0  0  0  0  0
   -1.2473    1.0685    0.2788 C   0  0  0  0  0  0  0  0  0  0  0  0
   -0.9342    2.1269   -0.5533 O   0  0  0  0  0  0  0  0  0  0  0  0
   -1.1924   -1.4514    0.5036 C   0  0  0  0  0  0  0  0  0  0  0  0
   -1.1179   -1.2129   -0.9650 C   0  0  0  0  0  0  0  0  0  0  0  0
    1.5899   -0.5621    1.2553 C   0  0  0  0  0  0  0  0  0  0  0  0
    1.5826   -1.4354    0.0577 O   0  0  0  0  0  0  0  0  0  0  0  0
    2.2821    1.5356   -0.2242 H   0  0  0  0  0  0  0  0  0  0  0  0
    1.0715    1.4378   -1.5362 H   0  0  0  0  0  0  0  0  0  0  0  0
    2.4596    0.3366   -1.5166 H   0  0  0  0  0  0  0  0  0  0  0  0
   -0.9679    1.3515    1.3342 H   0  0  0  0  0  0  0  0  0  0  0  0
   -2.3500    0.9669    0.2938 H   0  0  0  0  0  0  0  0  0  0  0  0
   -1.6563    2.7969   -0.4628 H   0  0  0  0  0  0  0  0  0  0  0  0
   -2.2125   -1.3768    0.9335 H   0  0  0  0  0  0  0  0  0  0  0  0
   -0.5189   -2.1274    1.0229 H   0  0  0  0  0  0  0  0  0  0  0  0
   -0.4175   -1.8570   -1.5174 H   0  0  0  0  0  0  0  0  0  0  0  0
   -2.0601   -1.0170   -1.5298 H   0  0  0  0  0  0  0  0  0  0  0  0
    0.9667   -0.9287    2.0722 H   0  0  0  0  0  0  0  0  0  0  0  0
    2.5915   -0.1662    1.4848 H   0  0  0  0  0  0  0  0  0  0  0  0
  1  2  1  0
  2  3  1  0
  3  4  1  0
  4  5  1  0
  3  6  1  0
  6  7  1  0
  2  8  1  0
  8  9  1  0
  9  2  1  0
  7  3  1  0
  1 10  1  0
  1 11  1  0
  1 12  1  0
  4 13  1  0
  4 14  1  0
  5 15  1  0
  6 16  1  0
  6 17  1  0
  7 18  1  0
  7 19  1  0
  8 20  1  0
  8 21  1  0
M  END
