
     RDKit          3D

 23 24  0  0  0  0  0  0  0  0999 V2000
   -1.4713   -1.0039   -0.4166 C   0  0  0  0  0  0  0  0  0  0  0  0
   -0.7151    0.3135   -0.2263 C   0  0  0  0  0  0  0  0  0  0  0  0
   -0.9423    1.1646   -1.4126 C   0  0  0  0  0  0  0  0  0  0  0  0
   -1.1692    0.8793    0.9546 O   0  0  0  0  0  0  0  0  0  0  0  0
   -0.6177    0.1934    2.0050 C   0  0  0  0  0  0  0  0  0  0  0  0
    0.6461   -0.4762    1.5126 C   0  0  0  0  0  0  0  0  0  0  0  0
    0.7025   -0.0124    0.0789 C   0  0  0  0  0  0  0  0  0  0  0  0
    1.8646    0.7202   -0.3658 C   0  0  0  0  0  0  0  0  0  0  0  0
    1.5351   -0.6334   -0.9344 C   0  0  0  0  0  0  0  0  0  0  0  0
   -0.7796   -1.8683   -0.3846 H   0  0  0  0  0  0  0  0  0  0  0  0
   -2.0019   -1.0215   -1.3981 H   0  0  0  0  0  0  0  0  0  0  0  0
   -2.2324   -1.1530    0.3782 H   0  0  0  0  0  0  0  0  0  0  0  0
   -1.0905    2.2331   -1.1759 H   0  0  0  0  0  0  0  0  0  0  0  0
   -0.1274    0.9867   -2.1495 H   0  0  0  0  0  0  0  0  0  0  0  0
   -1.8807    0.8296   -1.9442 H   0  0  0  0  0  0  0  0  0  0  0  0
   -0.3793    0.9398    2.8028 H   0  0  0  0  0  0  0  0  0  0  0  0
   -1.3337   -0.5199    2.4334 H   0  0  0  0  0  0  0  0  0  0  0  0
    1.5224   -0.1581    2.0908 H   0  0  0  0  0  0  0  0  0  0  0  0
    0.5183   -1.5943    1.5096 H   0  0  0  0  0  0  0  0  0  0  0  0
    2.7717    0.6832    0.3090 H   0  0  0  0  0  0  0  0  0  0  0  0
    1.8640    1.6157   -0.9941 H   0  0  0  0  0  0  0  0  0  0  0  0
    1.2062   -0.5981   -1.9940 H   0  0  0  0  0  0  0  0  0  0  0  0
    2.1103   -1.5195   -0.6787 H   0  0  0  0  0  0  0  0  0  0  0  0
  1  2  1  0
  2  3  1  0
  2  4  1  0
  4  5  1  0
  5  6  1  0
  6  7  1  0
  7  8  1  0
  8  9  1  0
  7  2  1  0
  9  7  1  0
  1 10  1  0
  1 11  1  0
  1 12  1  0
  3 13  1  0
  3 14  1  0
  3 15  1  0
  5 16  1  0
  5 17  1  0
  6 18  1  0
  6 19  1  0
  8 20  1  0
  8 21  1  0
  9 22  1  0
  9 23  1  0
M  END
