
     RDKit          3D

 21 21  0  0  0  0  0  0  0  0999 V2000
   -1.9565    1.1016   -1.0508 C   0  0  0  0  0  0  0  0  0  0  0  0
   -1.0878    0.3511   -0.0502 C   0  0  0  0  0  0  0  0  0  0  0  0
    0.3102    0.0869   -0.4670 C   0  0  0  0  0  0  0  0  0  0  0  0
    0.7656    0.7635   -1.3916 O   0  0  0  0  0  0  0  0  0  0  0  0
    1.1640   -0.9461    0.1815 C   0  0  0  0  0  0  0  0  0  0  0  0
    2.5386   -0.9368   -0.4946 C   0  0  0  0  0  0  0  0  0  0  0  0
    3.1191    0.3221   -0.3495 O   0  0  0  0  0  0  0  0  0  0  0  0
   -1.1936    0.7728    1.4165 C   0  0  0  0  0  0  0  0  0  0  0  0
   -1.7963   -0.4918    0.9171 C   0  0  0  0  0  0  0  0  0  0  0  0
   -1.9404    0.5143   -1.9824 H   0  0  0  0  0  0  0  0  0  0  0  0
   -2.9873    1.1812   -0.7056 H   0  0  0  0  0  0  0  0  0  0  0  0
   -1.4580    2.0838   -1.2105 H   0  0  0  0  0  0  0  0  0  0  0  0
    0.6535   -1.9238   -0.0159 H   0  0  0  0  0  0  0  0  0  0  0  0
    1.3217   -0.7639    1.2575 H   0  0  0  0  0  0  0  0  0  0  0  0
    3.1737   -1.7415   -0.0919 H   0  0  0  0  0  0  0  0  0  0  0  0
    2.4233   -1.1591   -1.5905 H   0  0  0  0  0  0  0  0  0  0  0  0
    3.2661    0.4447    0.6354 H   0  0  0  0  0  0  0  0  0  0  0  0
   -0.3025    0.6591    2.0689 H   0  0  0  0  0  0  0  0  0  0  0  0
   -1.7612    1.6938    1.5614 H   0  0  0  0  0  0  0  0  0  0  0  0
   -2.9114   -0.5739    0.8250 H   0  0  0  0  0  0  0  0  0  0  0  0
   -1.3409   -1.4379    1.2225 H   0  0  0  0  0  0  0  0  0  0  0  0
  1  2  1  0
  2  3  1  0
  3  4  2  0
  3  5  1  0
  5  6  1  0
  6  7  1  0
  2  8  1  0
  8  9  1  0
  9  2  1  0
  1 10  1  0
  1 11  1  0
  1 12  1  0
  5 13  1  0
  5 14  1  0
  6 15  1  0
  6 16  1  0
  7 17  1  0
  8 18  1  0
  8 19  1  0
  9 20  1  0
  9 21  1  0
M  END
