
     RDKit          3D

 21 22  0  0  0  0  0  0  0  0999 V2000
   -1.8874   -1.0706    0.6045 C   0  0  0  0  0  0  0  0  0  0  0  0
   -0.9115   -0.0058    0.1851 C   0  0  0  0  0  0  0  0  0  0  0  0
   -0.9772    1.1465    0.9135 O   0  0  0  0  0  0  0  0  0  0  0  0
   -1.1946    0.4326   -1.2766 C   0  0  0  0  0  0  0  0  0  0  0  0
    0.0742    1.2362   -1.4665 C   0  0  0  0  0  0  0  0  0  0  0  0
    1.0429    0.7202   -0.7402 C   0  0  0  0  0  0  0  0  0  0  0  0
    2.3104    0.3568   -0.0292 C   0  0  0  0  0  0  0  0  0  0  0  0
    1.5002   -0.4131    1.0227 C   0  0  0  0  0  0  0  0  0  0  0  0
    0.4754   -0.5240   -0.0553 C   0  0  0  0  0  0  0  0  0  0  0  0
   -2.9137   -0.6713    0.4784 H   0  0  0  0  0  0  0  0  0  0  0  0
   -1.6933   -1.9719    0.0127 H   0  0  0  0  0  0  0  0  0  0  0  0
   -1.7042   -1.3007    1.6539 H   0  0  0  0  0  0  0  0  0  0  0  0
   -0.5101    1.1569    1.7592 H   0  0  0  0  0  0  0  0  0  0  0  0
   -1.1451   -0.4413   -1.9179 H   0  0  0  0  0  0  0  0  0  0  0  0
   -2.0887    1.0474   -1.3417 H   0  0  0  0  0  0  0  0  0  0  0  0
    0.1241    2.0985   -2.1149 H   0  0  0  0  0  0  0  0  0  0  0  0
    2.9697   -0.3241   -0.5839 H   0  0  0  0  0  0  0  0  0  0  0  0
    2.8711    1.2078    0.3772 H   0  0  0  0  0  0  0  0  0  0  0  0
    1.2526    0.1397    1.9249 H   0  0  0  0  0  0  0  0  0  0  0  0
    1.9221   -1.4072    1.2692 H   0  0  0  0  0  0  0  0  0  0  0  0
    0.4831   -1.4124   -0.6751 H   0  0  0  0  0  0  0  0  0  0  0  0
  1  2  1  0
  2  3  1  0
  2  4  1  0
  4  5  1  0
  5  6  2  0
  6  7  1  0
  7  8  1  0
  8  9  1  0
  9  2  1  0
  9  6  1  0
  1 10  1  0
  1 11  1  0
  1 12  1  0
  3 13  1  0
  4 14  1  0
  4 15  1  0
  5 16  1  0
  7 17  1  0
  7 18  1  0
  8 19  1  0
  8 20  1  0
  9 21  1  0
M  END
