
     RDKit          3D

 19 19  0  0  0  0  0  0  0  0999 V2000
   -2.0896    0.1425    0.3857 C   0  0  0  0  0  0  0  0  0  0  0  0
   -0.7062    0.1028   -0.1576 C   0  0  0  0  0  0  0  0  0  0  0  0
   -0.4610    0.8771   -1.2853 O   0  0  0  0  0  0  0  0  0  0  0  0
   -0.1308   -1.3064   -0.3664 C   0  0  0  0  0  0  0  0  0  0  0  0
    1.2188   -0.6235   -0.1092 C   0  0  0  0  0  0  0  0  0  0  0  0
    2.1655   -1.4014    0.4846 O   0  0  0  0  0  0  0  0  0  0  0  0
    0.4121    0.2654    0.8512 C   0  0  0  0  0  0  0  0  0  0  0  0
    0.9939    1.6156    0.9468 C   0  0  0  0  0  0  0  0  0  0  0  0
    0.3440    2.6196    1.1379 O   0  0  0  0  0  0  0  0  0  0  0  0
   -2.7938    0.1801   -0.4624 H   0  0  0  0  0  0  0  0  0  0  0  0
   -2.3133   -0.8013    0.9379 H   0  0  0  0  0  0  0  0  0  0  0  0
   -2.2819    1.0398    1.0003 H   0  0  0  0  0  0  0  0  0  0  0  0
   -0.3475    0.2926   -2.0736 H   0  0  0  0  0  0  0  0  0  0  0  0
   -0.2618   -1.7142   -1.3615 H   0  0  0  0  0  0  0  0  0  0  0  0
   -0.3979   -1.9582    0.4968 H   0  0  0  0  0  0  0  0  0  0  0  0
    1.4883   -0.0282   -0.9830 H   0  0  0  0  0  0  0  0  0  0  0  0
    2.8576   -0.8142    0.8747 H   0  0  0  0  0  0  0  0  0  0  0  0
    0.2349   -0.2012    1.8368 H   0  0  0  0  0  0  0  0  0  0  0  0
    2.0687    1.7130    0.8393 H   0  0  0  0  0  0  0  0  0  0  0  0
  1  2  1  0
  2  3  1  0
  2  4  1  0
  4  5  1  0
  5  6  1  0
  5  7  1  0
  7  8  1  0
  8  9  2  0
  7  2  1  0
  1 10  1  0
  1 11  1  0
  1 12  1  0
  3 13  1  0
  4 14  1  0
  4 15  1  0
  5 16  1  0
  6 17  1  0
  7 18  1  0
  8 19  1  0
M  END
