
     RDKit          3D

 19 20  0  0  0  0  0  0  0  0999 V2000
    1.7526    0.6733    0.5016 C   0  0  0  0  0  0  0  0  0  0  0  0
    0.8986   -0.2095   -0.3889 C   0  0  0  0  0  0  0  0  0  0  0  0
    1.6101   -1.1836   -1.0545 O   0  0  0  0  0  0  0  0  0  0  0  0
   -0.3181    0.2891   -1.0370 C   0  0  0  0  0  0  0  0  0  0  0  0
   -1.2479    1.2668   -0.3922 C   0  0  0  0  0  0  0  0  0  0  0  0
   -1.1492    0.5037    0.9167 C   0  0  0  0  0  0  0  0  0  0  0  0
   -0.4168   -0.5724    0.1817 C   0  0  0  0  0  0  0  0  0  0  0  0
   -0.9358   -1.9432    0.1144 C   0  0  0  0  0  0  0  0  0  0  0  0
   -0.2535   -2.7977   -0.4145 O   0  0  0  0  0  0  0  0  0  0  0  0
    1.8811    0.0932    1.4604 H   0  0  0  0  0  0  0  0  0  0  0  0
    1.2446    1.6044    0.7867 H   0  0  0  0  0  0  0  0  0  0  0  0
    2.7592    0.7970    0.0913 H   0  0  0  0  0  0  0  0  0  0  0  0
    2.5755   -0.9539   -1.1005 H   0  0  0  0  0  0  0  0  0  0  0  0
   -0.6389   -0.1941   -1.9826 H   0  0  0  0  0  0  0  0  0  0  0  0
   -0.9381    2.3153   -0.3555 H   0  0  0  0  0  0  0  0  0  0  0  0
   -2.2854    1.2245   -0.8377 H   0  0  0  0  0  0  0  0  0  0  0  0
   -0.5520    1.0881    1.6349 H   0  0  0  0  0  0  0  0  0  0  0  0
   -2.1001    0.2039    1.3621 H   0  0  0  0  0  0  0  0  0  0  0  0
   -1.8858   -2.2048    0.5136 H   0  0  0  0  0  0  0  0  0  0  0  0
  1  2  1  0
  2  3  1  0
  2  4  1  0
  4  5  1  0
  5  6  1  0
  6  7  1  0
  7  8  1  0
  8  9  2  0
  7  2  1  0
  7  4  1  0
  1 10  1  0
  1 11  1  0
  1 12  1  0
  3 13  1  0
  4 14  1  0
  5 15  1  0
  5 16  1  0
  6 17  1  0
  6 18  1  0
  8 19  1  0
M  END
