
     RDKit          3D

 21 22  0  0  0  0  0  0  0  0999 V2000
   -0.8756   -1.5330   -0.6612 C   0  0  0  0  0  0  0  0  0  0  0  0
   -0.6933   -0.1340   -0.1787 C   0  0  0  0  0  0  0  0  0  0  0  0
   -1.3745    0.2359    1.1040 C   0  0  0  0  0  0  0  0  0  0  0  0
   -0.8689    0.9563   -1.2041 C   0  0  0  0  0  0  0  0  0  0  0  0
    0.5856    1.3457   -0.8975 C   0  0  0  0  0  0  0  0  0  0  0  0
    1.4890    0.3887   -1.2958 O   0  0  0  0  0  0  0  0  0  0  0  0
    0.7712    0.2303   -0.1317 C   0  0  0  0  0  0  0  0  0  0  0  0
    1.5769   -0.0126    1.0961 C   0  0  0  0  0  0  0  0  0  0  0  0
    2.3187   -1.1798    0.9211 O   0  0  0  0  0  0  0  0  0  0  0  0
   -0.5029   -2.2154    0.1439 H   0  0  0  0  0  0  0  0  0  0  0  0
   -0.2098   -1.6847   -1.5348 H   0  0  0  0  0  0  0  0  0  0  0  0
   -1.9227   -1.8147   -0.8722 H   0  0  0  0  0  0  0  0  0  0  0  0
   -0.9189    1.2140    1.4357 H   0  0  0  0  0  0  0  0  0  0  0  0
   -1.2236   -0.4940    1.9022 H   0  0  0  0  0  0  0  0  0  0  0  0
   -2.4493    0.4541    0.8944 H   0  0  0  0  0  0  0  0  0  0  0  0
   -1.5296    1.7864   -0.9346 H   0  0  0  0  0  0  0  0  0  0  0  0
   -0.9040    0.6150   -2.2593 H   0  0  0  0  0  0  0  0  0  0  0  0
    0.8415    2.3987   -0.8049 H   0  0  0  0  0  0  0  0  0  0  0  0
    0.8685   -0.2361    1.9465 H   0  0  0  0  0  0  0  0  0  0  0  0
    2.2107    0.8562    1.2893 H   0  0  0  0  0  0  0  0  0  0  0  0
    2.8109   -1.1771    0.0416 H   0  0  0  0  0  0  0  0  0  0  0  0
  1  2  1  0
  2  3  1  0
  2  4  1  0
  4  5  1  0
  5  6  1  0
  6  7  1  0
  7  8  1  0
  8  9  1  0
  7  2  1  0
  7  5  1  0
  1 10  1  0
  1 11  1  0
  1 12  1  0
  3 13  1  0
  3 14  1  0
  3 15  1  0
  4 16  1  0
  4 17  1  0
  5 18  1  0
  8 19  1  0
  8 20  1  0
  9 21  1  0
M  END
