
     RDKit          3D

 19 19  0  0  0  0  0  0  0  0999 V2000
   -2.1549    0.1583   -0.4873 C   0  0  0  0  0  0  0  0  0  0  0  0
   -0.8426    0.3375    0.2460 C   0  0  0  0  0  0  0  0  0  0  0  0
   -0.9702    1.1109    1.3773 O   0  0  0  0  0  0  0  0  0  0  0  0
   -0.3166   -1.0326    0.5477 C   0  0  0  0  0  0  0  0  0  0  0  0
    0.9688   -1.3463    0.6047 C   0  0  0  0  0  0  0  0  0  0  0  0
    1.9575   -0.2672    0.3532 C   0  0  0  0  0  0  0  0  0  0  0  0
    1.4953    0.4752   -0.8826 C   0  0  0  0  0  0  0  0  0  0  0  0
    0.1365    1.0336   -0.6573 C   0  0  0  0  0  0  0  0  0  0  0  0
   -0.1728    2.0613   -1.2134 O   0  0  0  0  0  0  0  0  0  0  0  0
   -3.0298    0.4178    0.1562 H   0  0  0  0  0  0  0  0  0  0  0  0
   -2.1469    0.7687   -1.4265 H   0  0  0  0  0  0  0  0  0  0  0  0
   -2.3063   -0.9041   -0.8055 H   0  0  0  0  0  0  0  0  0  0  0  0
   -1.4299    0.6328    2.1252 H   0  0  0  0  0  0  0  0  0  0  0  0
   -1.0512   -1.8061    0.7302 H   0  0  0  0  0  0  0  0  0  0  0  0
    1.2950   -2.3804    0.8326 H   0  0  0  0  0  0  0  0  0  0  0  0
    2.9769   -0.6645    0.1745 H   0  0  0  0  0  0  0  0  0  0  0  0
    1.9270    0.4617    1.1877 H   0  0  0  0  0  0  0  0  0  0  0  0
    1.4379   -0.2903   -1.6987 H   0  0  0  0  0  0  0  0  0  0  0  0
    2.2262    1.2340   -1.1642 H   0  0  0  0  0  0  0  0  0  0  0  0
  1  2  1  0
  2  3  1  0
  2  4  1  0
  4  5  2  0
  5  6  1  0
  6  7  1  0
  7  8  1  0
  8  9  2  0
  8  2  1  0
  1 10  1  0
  1 11  1  0
  1 12  1  0
  3 13  1  0
  4 14  1  0
  5 15  1  0
  6 16  1  0
  6 17  1  0
  7 18  1  0
  7 19  1  0
M  END
