
     RDKit          3D

 25 26  0  0  0  0  0  0  0  0999 V2000
   -1.9340    0.1737   -1.3487 C   0  0  0  0  0  0  0  0  0  0  0  0
   -1.4223   -0.1949    0.0305 C   0  0  0  0  0  0  0  0  0  0  0  0
   -0.0479   -0.8064    0.0653 C   0  0  0  0  0  0  0  0  0  0  0  0
    1.0185    0.0917   -0.4951 C   0  0  0  0  0  0  0  0  0  0  0  0
    2.3648   -0.6018   -0.4206 C   0  0  0  0  0  0  0  0  0  0  0  0
    2.9566    0.7162    0.0259 C   0  0  0  0  0  0  0  0  0  0  0  0
    1.5550    1.1425    0.4146 C   0  0  0  0  0  0  0  0  0  0  0  0
   -2.0387    0.4554    1.1814 C   0  0  0  0  0  0  0  0  0  0  0  0
   -2.4416   -0.9602    0.8750 C   0  0  0  0  0  0  0  0  0  0  0  0
   -1.6668   -0.6721   -2.0187 H   0  0  0  0  0  0  0  0  0  0  0  0
   -1.4364    1.0751   -1.7565 H   0  0  0  0  0  0  0  0  0  0  0  0
   -3.0509    0.3078   -1.3496 H   0  0  0  0  0  0  0  0  0  0  0  0
    0.2578   -1.0837    1.0931 H   0  0  0  0  0  0  0  0  0  0  0  0
   -0.0442   -1.7441   -0.5274 H   0  0  0  0  0  0  0  0  0  0  0  0
    0.8162    0.4676   -1.5172 H   0  0  0  0  0  0  0  0  0  0  0  0
    2.4048   -1.3659    0.3943 H   0  0  0  0  0  0  0  0  0  0  0  0
    2.7493   -0.9721   -1.3897 H   0  0  0  0  0  0  0  0  0  0  0  0
    3.3694    1.2547   -0.8713 H   0  0  0  0  0  0  0  0  0  0  0  0
    3.6667    0.6524    0.8779 H   0  0  0  0  0  0  0  0  0  0  0  0
    1.4106    2.2006    0.0849 H   0  0  0  0  0  0  0  0  0  0  0  0
    1.3935    0.9594    1.4936 H   0  0  0  0  0  0  0  0  0  0  0  0
   -1.5395    0.6163    2.1494 H   0  0  0  0  0  0  0  0  0  0  0  0
   -2.8402    1.1989    0.9808 H   0  0  0  0  0  0  0  0  0  0  0  0
   -3.4283   -1.1690    0.4609 H   0  0  0  0  0  0  0  0  0  0  0  0
   -2.0721   -1.7419    1.5672 H   0  0  0  0  0  0  0  0  0  0  0  0
  1  2  1  0
  2  3  1  0
  3  4  1  0
  4  5  1  0
  5  6  1  0
  6  7  1  0
  2  8  1  0
  8  9  1  0
  9  2  1  0
  7  4  1  0
  1 10  1  0
  1 11  1  0
  1 12  1  0
  3 13  1  0
  3 14  1  0
  4 15  1  0
  5 16  1  0
  5 17  1  0
  6 18  1  0
  6 19  1  0
  7 20  1  0
  7 21  1  0
  8 22  1  0
  8 23  1  0
  9 24  1  0
  9 25  1  0
M  END
