
     RDKit          3D

 19 19  0  0  0  0  0  0  0  0999 V2000
   -2.0192    0.0465   -0.5450 C   0  0  0  0  0  0  0  0  0  0  0  0
   -0.6282   -0.0067    0.0503 C   0  0  0  0  0  0  0  0  0  0  0  0
   -0.4450   -1.0493    1.1258 C   0  0  0  0  0  0  0  0  0  0  0  0
    0.2374    1.1743   -0.0552 C   0  0  0  0  0  0  0  0  0  0  0  0
    1.3241    1.4867    0.8655 C   0  0  0  0  0  0  0  0  0  0  0  0
    1.6072    2.6709    1.0714 O   0  0  0  0  0  0  0  0  0  0  0  0
    0.4994    0.0236   -1.0050 C   0  0  0  0  0  0  0  0  0  0  0  0
    1.6157   -0.8980   -0.8061 C   0  0  0  0  0  0  0  0  0  0  0  0
    2.0941   -1.2424    0.2409 O   0  0  0  0  0  0  0  0  0  0  0  0
   -2.0191    0.7127   -1.4499 H   0  0  0  0  0  0  0  0  0  0  0  0
   -2.2637   -0.9832   -0.8710 H   0  0  0  0  0  0  0  0  0  0  0  0
   -2.7606    0.4521    0.1491 H   0  0  0  0  0  0  0  0  0  0  0  0
   -1.3900   -1.2948    1.6424 H   0  0  0  0  0  0  0  0  0  0  0  0
    0.3091   -0.8017    1.8678 H   0  0  0  0  0  0  0  0  0  0  0  0
   -0.0951   -1.9812    0.5908 H   0  0  0  0  0  0  0  0  0  0  0  0
   -0.2692    2.0789   -0.5032 H   0  0  0  0  0  0  0  0  0  0  0  0
    1.9212    0.7466    1.3999 H   0  0  0  0  0  0  0  0  0  0  0  0
    0.1906    0.2077   -2.0678 H   0  0  0  0  0  0  0  0  0  0  0  0
    2.0914   -1.3425   -1.7007 H   0  0  0  0  0  0  0  0  0  0  0  0
  1  2  1  0
  2  3  1  0
  2  4  1  0
  4  5  1  0
  5  6  2  0
  4  7  1  0
  7  8  1  0
  8  9  2  0
  7  2  1  0
  1 10  1  0
  1 11  1  0
  1 12  1  0
  3 13  1  0
  3 14  1  0
  3 15  1  0
  4 16  1  0
  5 17  1  0
  7 18  1  0
  8 19  1  0
M  END
