
     RDKit          3D

 25 25  0  0  0  0  0  0  0  0999 V2000
   -1.6155   -0.5155    1.3069 C   0  0  0  0  0  0  0  0  0  0  0  0
   -0.7092    0.0535    0.2058 C   0  0  0  0  0  0  0  0  0  0  0  0
   -1.6584    0.7957   -0.7383 C   0  0  0  0  0  0  0  0  0  0  0  0
   -0.9747    1.3712   -1.7982 O   0  0  0  0  0  0  0  0  0  0  0  0
    0.2610    0.9619    0.8430 C   0  0  0  0  0  0  0  0  0  0  0  0
    1.6606    0.9314    0.3695 C   0  0  0  0  0  0  0  0  0  0  0  0
    2.0907   -0.2772   -0.3723 C   0  0  0  0  0  0  0  0  0  0  0  0
    1.2346   -1.4903   -0.1424 C   0  0  0  0  0  0  0  0  0  0  0  0
   -0.1607   -1.1009   -0.5528 C   0  0  0  0  0  0  0  0  0  0  0  0
   -2.6475   -0.6372    0.9603 H   0  0  0  0  0  0  0  0  0  0  0  0
   -1.2517   -1.4975    1.6546 H   0  0  0  0  0  0  0  0  0  0  0  0
   -1.6428    0.1686    2.1876 H   0  0  0  0  0  0  0  0  0  0  0  0
   -2.3919    0.0577   -1.1250 H   0  0  0  0  0  0  0  0  0  0  0  0
   -2.2563    1.5495   -0.1633 H   0  0  0  0  0  0  0  0  0  0  0  0
   -1.6243    1.4827   -2.5548 H   0  0  0  0  0  0  0  0  0  0  0  0
   -0.1287    2.0173    0.7159 H   0  0  0  0  0  0  0  0  0  0  0  0
    0.2728    0.8451    1.9692 H   0  0  0  0  0  0  0  0  0  0  0  0
    1.8785    1.8232   -0.2922 H   0  0  0  0  0  0  0  0  0  0  0  0
    2.3899    1.0709    1.2240 H   0  0  0  0  0  0  0  0  0  0  0  0
    2.1306   -0.0760   -1.4830 H   0  0  0  0  0  0  0  0  0  0  0  0
    3.1417   -0.5793   -0.1162 H   0  0  0  0  0  0  0  0  0  0  0  0
    1.3223   -1.8482    0.8824 H   0  0  0  0  0  0  0  0  0  0  0  0
    1.5740   -2.2796   -0.8488 H   0  0  0  0  0  0  0  0  0  0  0  0
   -0.1062   -0.8280   -1.6377 H   0  0  0  0  0  0  0  0  0  0  0  0
   -0.7889   -1.9989   -0.4940 H   0  0  0  0  0  0  0  0  0  0  0  0
  1  2  1  0
  2  3  1  0
  3  4  1  0
  2  5  1  0
  5  6  1  0
  6  7  1  0
  7  8  1  0
  8  9  1  0
  9  2  1  0
  1 10  1  0
  1 11  1  0
  1 12  1  0
  3 13  1  0
  3 14  1  0
  4 15  1  0
  5 16  1  0
  5 17  1  0
  6 18  1  0
  6 19  1  0
  7 20  1  0
  7 21  1  0
  8 22  1  0
  8 23  1  0
  9 24  1  0
  9 25  1  0
M  END
