
     RDKit          3D

 23 24  0  0  0  0  0  0  0  0999 V2000
    1.6377   -0.6417    0.9352 C   0  0  0  0  0  0  0  0  0  0  0  0
    0.7288   -0.0990   -0.1231 C   0  0  0  0  0  0  0  0  0  0  0  0
    1.3566    1.0123   -0.8891 C   0  0  0  0  0  0  0  0  0  0  0  0
    0.3556   -1.2361   -1.0758 C   0  0  0  0  0  0  0  0  0  0  0  0
   -0.1151   -2.3460   -0.4464 O   0  0  0  0  0  0  0  0  0  0  0  0
   -1.0047   -1.3093   -0.4693 C   0  0  0  0  0  0  0  0  0  0  0  0
   -0.7170    0.0060    0.1980 C   0  0  0  0  0  0  0  0  0  0  0  0
   -1.0918    0.1004    1.6518 C   0  0  0  0  0  0  0  0  0  0  0  0
   -1.4514    1.1176   -0.5558 C   0  0  0  0  0  0  0  0  0  0  0  0
    2.3197   -1.3850    0.4266 H   0  0  0  0  0  0  0  0  0  0  0  0
    2.3130    0.1365    1.3398 H   0  0  0  0  0  0  0  0  0  0  0  0
    1.1518   -1.1764    1.7424 H   0  0  0  0  0  0  0  0  0  0  0  0
    2.4742    0.8760   -0.8354 H   0  0  0  0  0  0  0  0  0  0  0  0
    1.1247    0.9533   -1.9819 H   0  0  0  0  0  0  0  0  0  0  0  0
    1.1472    2.0242   -0.4931 H   0  0  0  0  0  0  0  0  0  0  0  0
    0.5264   -1.1437   -2.1337 H   0  0  0  0  0  0  0  0  0  0  0  0
   -1.8710   -1.4084   -1.1406 H   0  0  0  0  0  0  0  0  0  0  0  0
   -0.7918    1.0992    2.0112 H   0  0  0  0  0  0  0  0  0  0  0  0
   -0.7703   -0.7355    2.2636 H   0  0  0  0  0  0  0  0  0  0  0  0
   -2.2214    0.1053    1.6814 H   0  0  0  0  0  0  0  0  0  0  0  0
   -2.5449    0.8572   -0.4408 H   0  0  0  0  0  0  0  0  0  0  0  0
   -1.2312    1.1119   -1.6204 H   0  0  0  0  0  0  0  0  0  0  0  0
   -1.3252    2.0812   -0.0447 H   0  0  0  0  0  0  0  0  0  0  0  0
  1  2  1  0
  2  3  1  0
  2  4  1  0
  4  5  1  0
  5  6  1  0
  6  7  1  0
  7  8  1  0
  7  9  1  0
  7  2  1  0
  6  4  1  0
  1 10  1  0
  1 11  1  0
  1 12  1  0
  3 13  1  0
  3 14  1  0
  3 15  1  0
  4 16  1  0
  6 17  1  0
  8 18  1  0
  8 19  1  0
  8 20  1  0
  9 21  1  0
  9 22  1  0
  9 23  1  0
M  END
