
     RDKit          3D

 21 21  0  0  0  0  0  0  0  0999 V2000
   -1.0017    1.1167    0.9514 C   0  0  0  0  0  0  0  0  0  0  0  0
    0.0357    0.2999    0.1747 C   0  0  0  0  0  0  0  0  0  0  0  0
    1.4000    0.7775    0.5342 C   0  0  0  0  0  0  0  0  0  0  0  0
    2.5230    0.1227   -0.1125 C   0  0  0  0  0  0  0  0  0  0  0  0
    2.8055    0.4330   -1.2489 O   0  0  0  0  0  0  0  0  0  0  0  0
   -0.2375   -1.1775    0.3287 C   0  0  0  0  0  0  0  0  0  0  0  0
   -1.0629   -1.0920   -0.9373 C   0  0  0  0  0  0  0  0  0  0  0  0
   -2.4148   -0.9645   -0.6407 O   0  0  0  0  0  0  0  0  0  0  0  0
   -0.3394    0.1961   -1.2578 C   0  0  0  0  0  0  0  0  0  0  0  0
   -1.9992    1.0273    0.5115 H   0  0  0  0  0  0  0  0  0  0  0  0
   -0.6730    2.1850    0.8914 H   0  0  0  0  0  0  0  0  0  0  0  0
   -0.9682    0.8538    2.0257 H   0  0  0  0  0  0  0  0  0  0  0  0
    1.4725    0.6872    1.6540 H   0  0  0  0  0  0  0  0  0  0  0  0
    1.4352    1.8654    0.3438 H   0  0  0  0  0  0  0  0  0  0  0  0
    3.1129   -0.6194    0.3737 H   0  0  0  0  0  0  0  0  0  0  0  0
    0.7228   -1.7596    0.2209 H   0  0  0  0  0  0  0  0  0  0  0  0
   -0.8196   -1.4492    1.2499 H   0  0  0  0  0  0  0  0  0  0  0  0
   -0.8549   -1.9424   -1.5810 H   0  0  0  0  0  0  0  0  0  0  0  0
   -2.6047   -1.5643    0.1375 H   0  0  0  0  0  0  0  0  0  0  0  0
    0.4549   -0.0061   -1.9843 H   0  0  0  0  0  0  0  0  0  0  0  0
   -0.9866    1.0106   -1.6349 H   0  0  0  0  0  0  0  0  0  0  0  0
  1  2  1  0
  2  3  1  0
  3  4  1  0
  4  5  2  0
  2  6  1  0
  6  7  1  0
  7  8  1  0
  7  9  1  0
  9  2  1  0
  1 10  1  0
  1 11  1  0
  1 12  1  0
  3 13  1  0
  3 14  1  0
  4 15  1  0
  6 16  1  0
  6 17  1  0
  7 18  1  0
  8 19  1  0
  9 20  1  0
  9 21  1  0
M  END
