
     RDKit          3D

 21 22  0  0  0  0  0  0  0  0999 V2000
    2.4289    0.0991   -0.0389 C   0  0  0  0  0  0  0  0  0  0  0  0
    0.9589   -0.0755   -0.2470 C   0  0  0  0  0  0  0  0  0  0  0  0
    0.6638   -1.3370   -0.7709 O   0  0  0  0  0  0  0  0  0  0  0  0
    0.2869    1.0795   -0.9436 C   0  0  0  0  0  0  0  0  0  0  0  0
   -0.8393    0.9978    0.0547 C   0  0  0  0  0  0  0  0  0  0  0  0
   -1.9442    0.0420   -0.2738 C   0  0  0  0  0  0  0  0  0  0  0  0
   -1.6998   -1.1260    0.6193 C   0  0  0  0  0  0  0  0  0  0  0  0
   -0.6405   -0.8569    1.4389 O   0  0  0  0  0  0  0  0  0  0  0  0
    0.0782    0.1918    0.9455 C   0  0  0  0  0  0  0  0  0  0  0  0
    2.7627    0.9334   -0.7100 H   0  0  0  0  0  0  0  0  0  0  0  0
    2.7115    0.3443    1.0066 H   0  0  0  0  0  0  0  0  0  0  0  0
    3.0298   -0.7935   -0.3600 H   0  0  0  0  0  0  0  0  0  0  0  0
    0.9366   -1.9898   -0.0655 H   0  0  0  0  0  0  0  0  0  0  0  0
    0.8859    2.0044   -0.7748 H   0  0  0  0  0  0  0  0  0  0  0  0
   -0.0757    0.9080   -1.9554 H   0  0  0  0  0  0  0  0  0  0  0  0
   -1.1464    1.9829    0.4466 H   0  0  0  0  0  0  0  0  0  0  0  0
   -2.9575    0.4754   -0.0614 H   0  0  0  0  0  0  0  0  0  0  0  0
   -1.9457   -0.2752   -1.3497 H   0  0  0  0  0  0  0  0  0  0  0  0
   -2.5849   -1.3448    1.2808 H   0  0  0  0  0  0  0  0  0  0  0  0
   -1.4739   -2.0620    0.0456 H   0  0  0  0  0  0  0  0  0  0  0  0
    0.5646    0.8023    1.7131 H   0  0  0  0  0  0  0  0  0  0  0  0
  1  2  1  0
  2  3  1  0
  2  4  1  0
  4  5  1  0
  5  6  1  0
  6  7  1  0
  7  8  1  0
  8  9  1  0
  9  2  1  0
  9  5  1  0
  1 10  1  0
  1 11  1  0
  1 12  1  0
  3 13  1  0
  4 14  1  0
  4 15  1  0
  5 16  1  0
  6 17  1  0
  6 18  1  0
  7 19  1  0
  7 20  1  0
  9 21  1  0
M  END
