
     RDKit          3D

 21 22  0  0  0  0  0  0  0  0999 V2000
   -1.8715    0.2953   -0.7316 C   0  0  0  0  0  0  0  0  0  0  0  0
   -0.9797    0.1052    0.4508 C   0  0  0  0  0  0  0  0  0  0  0  0
   -1.6202    0.6358    1.5651 O   0  0  0  0  0  0  0  0  0  0  0  0
   -0.7082   -1.3459    0.7092 C   0  0  0  0  0  0  0  0  0  0  0  0
    0.5997   -1.5073    1.0402 O   0  0  0  0  0  0  0  0  0  0  0  0
    1.2573   -0.3173    1.0017 C   0  0  0  0  0  0  0  0  0  0  0  0
    2.2059   -0.2509   -0.1761 C   0  0  0  0  0  0  0  0  0  0  0  0
    1.1280    0.4923   -0.9305 C   0  0  0  0  0  0  0  0  0  0  0  0
    0.3677    0.7038    0.3323 C   0  0  0  0  0  0  0  0  0  0  0  0
   -2.0253    1.3497   -0.9718 H   0  0  0  0  0  0  0  0  0  0  0  0
   -1.5670   -0.2852   -1.6266 H   0  0  0  0  0  0  0  0  0  0  0  0
   -2.8817   -0.1103   -0.4479 H   0  0  0  0  0  0  0  0  0  0  0  0
   -1.4138    1.6051    1.6892 H   0  0  0  0  0  0  0  0  0  0  0  0
   -1.3345   -1.7182    1.5520 H   0  0  0  0  0  0  0  0  0  0  0  0
   -1.0178   -1.9171   -0.1813 H   0  0  0  0  0  0  0  0  0  0  0  0
    1.6969    0.0682    1.9321 H   0  0  0  0  0  0  0  0  0  0  0  0
    3.1162    0.3410    0.0546 H   0  0  0  0  0  0  0  0  0  0  0  0
    2.4915   -1.2283   -0.5748 H   0  0  0  0  0  0  0  0  0  0  0  0
    0.5623   -0.0849   -1.6580 H   0  0  0  0  0  0  0  0  0  0  0  0
    1.5808    1.4423   -1.3385 H   0  0  0  0  0  0  0  0  0  0  0  0
    0.4134    1.7267    0.7559 H   0  0  0  0  0  0  0  0  0  0  0  0
  1  2  1  0
  2  3  1  0
  2  4  1  0
  4  5  1  0
  5  6  1  0
  6  7  1  0
  7  8  1  0
  8  9  1  0
  9  2  1  0
  9  6  1  0
  1 10  1  0
  1 11  1  0
  1 12  1  0
  3 13  1  0
  4 14  1  0
  4 15  1  0
  6 16  1  0
  7 17  1  0
  7 18  1  0
  8 19  1  0
  8 20  1  0
  9 21  1  0
M  END
