
     RDKit          3D

 19 19  0  0  0  0  0  0  0  0999 V2000
   -1.6331    1.0915    0.3577 C   0  0  0  0  0  0  0  0  0  0  0  0
   -1.3407   -0.3241   -0.1095 C   0  0  0  0  0  0  0  0  0  0  0  0
    0.0815   -0.6936   -0.3495 C   0  0  0  0  0  0  0  0  0  0  0  0
    0.3687   -1.8223   -0.6983 O   0  0  0  0  0  0  0  0  0  0  0  0
    1.1977    0.2783   -0.1759 C   0  0  0  0  0  0  0  0  0  0  0  0
    2.1969   -0.2792    0.8243 C   0  0  0  0  0  0  0  0  0  0  0  0
    3.2536    0.5937    1.0136 O   0  0  0  0  0  0  0  0  0  0  0  0
   -2.3618   -0.8350   -1.1112 C   0  0  0  0  0  0  0  0  0  0  0  0
   -2.1911   -1.3452    0.2354 O   0  0  0  0  0  0  0  0  0  0  0  0
   -0.8548    1.4016    1.0930 H   0  0  0  0  0  0  0  0  0  0  0  0
   -2.6222    1.0482    0.8965 H   0  0  0  0  0  0  0  0  0  0  0  0
   -1.6839    1.7597   -0.4978 H   0  0  0  0  0  0  0  0  0  0  0  0
    0.8913    1.2736    0.1230 H   0  0  0  0  0  0  0  0  0  0  0  0
    1.7675    0.3066   -1.1571 H   0  0  0  0  0  0  0  0  0  0  0  0
    1.7055   -0.4384    1.8193 H   0  0  0  0  0  0  0  0  0  0  0  0
    2.5859   -1.2420    0.4630 H   0  0  0  0  0  0  0  0  0  0  0  0
    3.9938    0.4475    0.3726 H   0  0  0  0  0  0  0  0  0  0  0  0
   -3.3332   -0.3177   -1.1735 H   0  0  0  0  0  0  0  0  0  0  0  0
   -2.0217   -1.4842   -1.9258 H   0  0  0  0  0  0  0  0  0  0  0  0
  1  2  1  0
  2  3  1  0
  3  4  2  0
  3  5  1  0
  5  6  1  0
  6  7  1  0
  2  8  1  0
  8  9  1  0
  9  2  1  0
  1 10  1  0
  1 11  1  0
  1 12  1  0
  5 13  1  0
  5 14  1  0
  6 15  1  0
  6 16  1  0
  7 17  1  0
  8 18  1  0
  8 19  1  0
M  END
