
     RDKit          3D

 21 22  0  0  0  0  0  0  0  0999 V2000
   -1.3702   -0.7920    1.1691 C   0  0  0  0  0  0  0  0  0  0  0  0
   -1.0956    0.1257    0.0287 C   0  0  0  0  0  0  0  0  0  0  0  0
    0.1898    0.7077    0.0607 O   0  0  0  0  0  0  0  0  0  0  0  0
    1.1801   -0.2403    0.0266 C   0  0  0  0  0  0  0  0  0  0  0  0
    2.2525    0.1432   -0.9888 C   0  0  0  0  0  0  0  0  0  0  0  0
    3.2597   -0.2355   -0.1031 O   0  0  0  0  0  0  0  0  0  0  0  0
    2.3574    0.0004    0.9368 C   0  0  0  0  0  0  0  0  0  0  0  0
   -2.2487    1.0321   -0.3636 C   0  0  0  0  0  0  0  0  0  0  0  0
   -1.7587    0.0075   -1.2818 C   0  0  0  0  0  0  0  0  0  0  0  0
   -1.6745   -0.1439    2.0431 H   0  0  0  0  0  0  0  0  0  0  0  0
   -0.4540   -1.3225    1.5127 H   0  0  0  0  0  0  0  0  0  0  0  0
   -2.2251   -1.4793    0.9952 H   0  0  0  0  0  0  0  0  0  0  0  0
    0.8928   -1.2924   -0.0193 H   0  0  0  0  0  0  0  0  0  0  0  0
    2.2785    1.2387   -1.1687 H   0  0  0  0  0  0  0  0  0  0  0  0
    2.2603   -0.4683   -1.9025 H   0  0  0  0  0  0  0  0  0  0  0  0
    2.4846    1.0222    1.3144 H   0  0  0  0  0  0  0  0  0  0  0  0
    2.5033   -0.7609    1.7223 H   0  0  0  0  0  0  0  0  0  0  0  0
   -1.9825    2.0993   -0.4179 H   0  0  0  0  0  0  0  0  0  0  0  0
   -3.2459    0.8414    0.1260 H   0  0  0  0  0  0  0  0  0  0  0  0
   -1.1648    0.3461   -2.1572 H   0  0  0  0  0  0  0  0  0  0  0  0
   -2.4391   -0.8294   -1.5329 H   0  0  0  0  0  0  0  0  0  0  0  0
  1  2  1  0
  2  3  1  0
  3  4  1  0
  4  5  1  0
  5  6  1  0
  6  7  1  0
  2  8  1  0
  8  9  1  0
  9  2  1  0
  7  4  1  0
  1 10  1  0
  1 11  1  0
  1 12  1  0
  4 13  1  0
  5 14  1  0
  5 15  1  0
  7 16  1  0
  7 17  1  0
  8 18  1  0
  8 19  1  0
  9 20  1  0
  9 21  1  0
M  END
