
     RDKit          3D

 21 22  0  0  0  0  0  0  0  0999 V2000
   -1.7912    1.4212   -0.5917 C   0  0  0  0  0  0  0  0  0  0  0  0
   -0.9314    0.2347   -0.2449 C   0  0  0  0  0  0  0  0  0  0  0  0
   -1.6629   -1.0689   -0.1024 C   0  0  0  0  0  0  0  0  0  0  0  0
    0.0152    0.5700    0.8986 C   0  0  0  0  0  0  0  0  0  0  0  0
    0.9689   -0.0424   -0.0415 C   0  0  0  0  0  0  0  0  0  0  0  0
    2.3555    0.4598   -0.1200 C   0  0  0  0  0  0  0  0  0  0  0  0
    2.7734   -0.6910    0.5853 O   0  0  0  0  0  0  0  0  0  0  0  0
    1.5653   -1.3628    0.2944 C   0  0  0  0  0  0  0  0  0  0  0  0
    0.1574    0.0541   -1.1271 O   0  0  0  0  0  0  0  0  0  0  0  0
   -2.8253    1.2343   -0.2388 H   0  0  0  0  0  0  0  0  0  0  0  0
   -1.8581    1.6067   -1.6862 H   0  0  0  0  0  0  0  0  0  0  0  0
   -1.4238    2.3651   -0.1283 H   0  0  0  0  0  0  0  0  0  0  0  0
   -2.0340   -1.3410   -1.1252 H   0  0  0  0  0  0  0  0  0  0  0  0
   -2.5037   -1.0449    0.5959 H   0  0  0  0  0  0  0  0  0  0  0  0
   -0.9464   -1.8483    0.1870 H   0  0  0  0  0  0  0  0  0  0  0  0
    0.0968    1.6451    1.1202 H   0  0  0  0  0  0  0  0  0  0  0  0
   -0.1740   -0.0783    1.7870 H   0  0  0  0  0  0  0  0  0  0  0  0
    2.7834    0.3660   -1.1605 H   0  0  0  0  0  0  0  0  0  0  0  0
    2.6044    1.4119    0.3631 H   0  0  0  0  0  0  0  0  0  0  0  0
    1.6316   -2.0906   -0.5270 H   0  0  0  0  0  0  0  0  0  0  0  0
    1.1989   -1.8006    1.2619 H   0  0  0  0  0  0  0  0  0  0  0  0
  1  2  1  0
  2  3  1  0
  2  4  1  0
  4  5  1  0
  5  6  1  0
  6  7  1  0
  7  8  1  0
  5  9  1  0
  9  2  1  0
  8  5  1  0
  1 10  1  0
  1 11  1  0
  1 12  1  0
  3 13  1  0
  3 14  1  0
  3 15  1  0
  4 16  1  0
  4 17  1  0
  6 18  1  0
  6 19  1  0
  8 20  1  0
  8 21  1  0
M  END
