
     RDKit          3D

 15 15  0  0  0  0  0  0  0  0999 V2000
   -1.4451   -0.1664    0.7589 C   0  0  0  0  0  0  0  0  0  0  0  0
   -0.4595    0.0805   -0.3558 C   0  0  0  0  0  0  0  0  0  0  0  0
   -1.2262    0.3706   -1.5033 O   0  0  0  0  0  0  0  0  0  0  0  0
    0.5232    1.1196   -0.0613 C   0  0  0  0  0  0  0  0  0  0  0  0
    0.3542    2.3654   -0.1200 O   0  0  0  0  0  0  0  0  0  0  0  0
    1.7591    0.4526    0.3201 C   0  0  0  0  0  0  0  0  0  0  0  0
    1.6835   -0.8381    0.0105 C   0  0  0  0  0  0  0  0  0  0  0  0
    0.3887   -1.1147   -0.5988 C   0  0  0  0  0  0  0  0  0  0  0  0
    0.0909   -2.1815   -1.2069 O   0  0  0  0  0  0  0  0  0  0  0  0
   -1.5351   -1.2737    0.8626 H   0  0  0  0  0  0  0  0  0  0  0  0
   -2.4670    0.1981    0.5239 H   0  0  0  0  0  0  0  0  0  0  0  0
   -1.1540    0.3037    1.7146 H   0  0  0  0  0  0  0  0  0  0  0  0
   -1.6278    1.2797   -1.3401 H   0  0  0  0  0  0  0  0  0  0  0  0
    2.6176    0.9346    0.7882 H   0  0  0  0  0  0  0  0  0  0  0  0
    2.4976   -1.5305    0.2074 H   0  0  0  0  0  0  0  0  0  0  0  0
  1  2  1  0
  2  3  1  0
  2  4  1  0
  4  5  2  0
  4  6  1  0
  6  7  2  0
  7  8  1  0
  8  9  2  0
  8  2  1  0
  1 10  1  0
  1 11  1  0
  1 12  1  0
  3 13  1  0
  6 14  1  0
  7 15  1  0
M  END
