
     RDKit          3D

 21 23  0  0  0  0  0  0  0  0999 V2000
   -1.1442    0.1636    1.5048 C   0  0  0  0  0  0  0  0  0  0  0  0
   -0.6289    0.0339    0.1309 C   0  0  0  0  0  0  0  0  0  0  0  0
   -1.7310    0.2218   -0.9193 C   0  0  0  0  0  0  0  0  0  0  0  0
    0.5556    0.8833   -0.2595 C   0  0  0  0  0  0  0  0  0  0  0  0
    1.6909    0.7558    0.7343 C   0  0  0  0  0  0  0  0  0  0  0  0
    2.4669   -0.3320    0.3496 O   0  0  0  0  0  0  0  0  0  0  0  0
    1.6287   -1.1632   -0.4146 C   0  0  0  0  0  0  0  0  0  0  0  0
    0.8921   -0.2340   -1.2234 C   0  0  0  0  0  0  0  0  0  0  0  0
    0.1812   -1.1718   -0.2096 C   0  0  0  0  0  0  0  0  0  0  0  0
   -0.6718    0.9022    2.1466 H   0  0  0  0  0  0  0  0  0  0  0  0
   -1.1021   -0.8548    1.9910 H   0  0  0  0  0  0  0  0  0  0  0  0
   -2.2456    0.4055    1.4972 H   0  0  0  0  0  0  0  0  0  0  0  0
   -2.0989   -0.8085   -1.1375 H   0  0  0  0  0  0  0  0  0  0  0  0
   -1.3472    0.6907   -1.8347 H   0  0  0  0  0  0  0  0  0  0  0  0
   -2.5795    0.7813   -0.5134 H   0  0  0  0  0  0  0  0  0  0  0  0
    0.3623    1.8626   -0.6775 H   0  0  0  0  0  0  0  0  0  0  0  0
    2.2866    1.6915    0.7685 H   0  0  0  0  0  0  0  0  0  0  0  0
    1.2920    0.5400    1.7304 H   0  0  0  0  0  0  0  0  0  0  0  0
    2.0976   -2.0344   -0.8530 H   0  0  0  0  0  0  0  0  0  0  0  0
    0.4781   -0.3157   -2.2018 H   0  0  0  0  0  0  0  0  0  0  0  0
   -0.3829   -2.0179   -0.6087 H   0  0  0  0  0  0  0  0  0  0  0  0
  1  2  1  0
  2  3  1  0
  2  4  1  0
  4  5  1  0
  5  6  1  0
  6  7  1  0
  7  8  1  0
  8  9  1  0
  9  2  1  0
  8  4  1  0
  9  7  1  0
  1 10  1  0
  1 11  1  0
  1 12  1  0
  3 13  1  0
  3 14  1  0
  3 15  1  0
  4 16  1  0
  5 17  1  0
  5 18  1  0
  7 19  1  0
  8 20  1  0
  9 21  1  0
M  END
