
     RDKit          3D

 23 24  0  0  0  0  0  0  0  0999 V2000
   -0.4362   -1.6350    0.7801 C   0  0  0  0  0  0  0  0  0  0  0  0
   -0.3018   -0.3107    0.0768 C   0  0  0  0  0  0  0  0  0  0  0  0
    0.9677   -0.1491   -0.6658 C   0  0  0  0  0  0  0  0  0  0  0  0
    2.2117   -0.2748    0.1901 C   0  0  0  0  0  0  0  0  0  0  0  0
    2.8564    0.6622   -0.6556 O   0  0  0  0  0  0  0  0  0  0  0  0
    1.5542    1.2141   -0.8250 C   0  0  0  0  0  0  0  0  0  0  0  0
   -1.5555   -0.1067   -0.7819 C   0  0  0  0  0  0  0  0  0  0  0  0
   -2.1671    0.5138    0.4714 C   0  0  0  0  0  0  0  0  0  0  0  0
   -0.7227    0.8842    0.8459 C   0  0  0  0  0  0  0  0  0  0  0  0
   -1.4920   -1.9473    0.8471 H   0  0  0  0  0  0  0  0  0  0  0  0
    0.0731   -1.6506    1.7676 H   0  0  0  0  0  0  0  0  0  0  0  0
    0.0517   -2.3958    0.1017 H   0  0  0  0  0  0  0  0  0  0  0  0
    1.0794   -0.7446   -1.5943 H   0  0  0  0  0  0  0  0  0  0  0  0
    2.7357   -1.2487    0.0754 H   0  0  0  0  0  0  0  0  0  0  0  0
    2.1477    0.1372    1.2007 H   0  0  0  0  0  0  0  0  0  0  0  0
    1.4354    1.6728   -1.8357 H   0  0  0  0  0  0  0  0  0  0  0  0
    1.4355    1.9381   -0.0034 H   0  0  0  0  0  0  0  0  0  0  0  0
   -2.0656   -1.0324   -1.0747 H   0  0  0  0  0  0  0  0  0  0  0  0
   -1.3824    0.6112   -1.6064 H   0  0  0  0  0  0  0  0  0  0  0  0
   -2.7969    1.3656    0.2128 H   0  0  0  0  0  0  0  0  0  0  0  0
   -2.5824   -0.2541    1.1215 H   0  0  0  0  0  0  0  0  0  0  0  0
   -0.5299    0.8972    1.9315 H   0  0  0  0  0  0  0  0  0  0  0  0
   -0.5161    1.8534    0.3640 H   0  0  0  0  0  0  0  0  0  0  0  0
  1  2  1  0
  2  3  1  0
  3  4  1  0
  4  5  1  0
  5  6  1  0
  2  7  1  0
  7  8  1  0
  8  9  1  0
  9  2  1  0
  6  3  1  0
  1 10  1  0
  1 11  1  0
  1 12  1  0
  3 13  1  0
  4 14  1  0
  4 15  1  0
  6 16  1  0
  6 17  1  0
  7 18  1  0
  7 19  1  0
  8 20  1  0
  8 21  1  0
  9 22  1  0
  9 23  1  0
M  END
