
     RDKit          3D

 21 22  0  0  0  0  0  0  0  0999 V2000
    0.3941    1.4550   -1.0141 C   0  0  0  0  0  0  0  0  0  0  0  0
    0.5201    0.2523   -0.1266 C   0  0  0  0  0  0  0  0  0  0  0  0
   -0.7896   -0.3224    0.3542 C   0  0  0  0  0  0  0  0  0  0  0  0
   -0.6505   -1.4399    1.1777 O   0  0  0  0  0  0  0  0  0  0  0  0
   -1.9369   -0.3020   -0.6411 C   0  0  0  0  0  0  0  0  0  0  0  0
   -1.9740    0.5509    0.5575 C   0  0  0  0  0  0  0  0  0  0  0  0
    1.6598    0.3227    0.8561 C   0  0  0  0  0  0  0  0  0  0  0  0
    1.6503   -0.6891   -0.2296 C   0  0  0  0  0  0  0  0  0  0  0  0
    1.4302   -2.0090    0.1654 O   0  0  0  0  0  0  0  0  0  0  0  0
    1.4173    1.9009   -1.1835 H   0  0  0  0  0  0  0  0  0  0  0  0
   -0.0622    1.2359   -2.0011 H   0  0  0  0  0  0  0  0  0  0  0  0
   -0.1722    2.2362   -0.4590 H   0  0  0  0  0  0  0  0  0  0  0  0
   -1.1206   -2.2339    0.8107 H   0  0  0  0  0  0  0  0  0  0  0  0
   -2.5158   -1.2583   -0.6927 H   0  0  0  0  0  0  0  0  0  0  0  0
   -1.7673    0.1889   -1.6090 H   0  0  0  0  0  0  0  0  0  0  0  0
   -2.6441    0.2761    1.4233 H   0  0  0  0  0  0  0  0  0  0  0  0
   -1.9090    1.6499    0.4339 H   0  0  0  0  0  0  0  0  0  0  0  0
    1.4032    0.0542    1.9008 H   0  0  0  0  0  0  0  0  0  0  0  0
    2.4324    1.1174    0.7473 H   0  0  0  0  0  0  0  0  0  0  0  0
    2.3993   -0.6091   -1.0529 H   0  0  0  0  0  0  0  0  0  0  0  0
    2.2356   -2.3767    0.5829 H   0  0  0  0  0  0  0  0  0  0  0  0
  1  2  1  0
  2  3  1  0
  3  4  1  0
  3  5  1  0
  5  6  1  0
  2  7  1  0
  7  8  1  0
  8  9  1  0
  8  2  1  0
  6  3  1  0
  1 10  1  0
  1 11  1  0
  1 12  1  0
  4 13  1  0
  5 14  1  0
  5 15  1  0
  6 16  1  0
  6 17  1  0
  7 18  1  0
  7 19  1  0
  8 20  1  0
  9 21  1  0
M  END
