
     RDKit          3D

 23 25  0  0  0  0  0  0  0  0999 V2000
   -1.6680   -1.3061   -0.2281 C   0  0  0  0  0  0  0  0  0  0  0  0
   -0.9031   -0.0196    0.1300 C   0  0  0  0  0  0  0  0  0  0  0  0
    0.4562   -0.0393   -0.0047 C   0  0  0  0  0  0  0  0  0  0  0  0
    1.2282   -0.3013   -1.2921 C   0  0  0  0  0  0  0  0  0  0  0  0
    2.2970   -0.0943   -0.2347 C   0  0  0  0  0  0  0  0  0  0  0  0
    1.4383   -0.9886    0.6137 C   0  0  0  0  0  0  0  0  0  0  0  0
    1.4565    1.0373    0.2624 C   0  0  0  0  0  0  0  0  0  0  0  0
   -1.6658    1.2536   -0.2617 C   0  0  0  0  0  0  0  0  0  0  0  0
   -1.5791    0.8612    1.1536 C   0  0  0  0  0  0  0  0  0  0  0  0
   -1.0418   -1.9105   -0.9239 H   0  0  0  0  0  0  0  0  0  0  0  0
   -1.8205   -1.9224    0.6675 H   0  0  0  0  0  0  0  0  0  0  0  0
   -2.6003   -1.0809   -0.7744 H   0  0  0  0  0  0  0  0  0  0  0  0
    1.1256   -1.3479   -1.5709 H   0  0  0  0  0  0  0  0  0  0  0  0
    1.1574    0.4662   -2.0561 H   0  0  0  0  0  0  0  0  0  0  0  0
    3.2844   -0.1352   -0.3730 H   0  0  0  0  0  0  0  0  0  0  0  0
    1.5764   -0.9395    1.6901 H   0  0  0  0  0  0  0  0  0  0  0  0
    1.3792   -2.0128    0.1599 H   0  0  0  0  0  0  0  0  0  0  0  0
    1.3686    1.9243   -0.3668 H   0  0  0  0  0  0  0  0  0  0  0  0
    1.6013    1.3151    1.3277 H   0  0  0  0  0  0  0  0  0  0  0  0
   -1.0714    2.1066   -0.6470 H   0  0  0  0  0  0  0  0  0  0  0  0
   -2.6371    1.1439   -0.7641 H   0  0  0  0  0  0  0  0  0  0  0  0
   -0.9058    1.4740    1.8148 H   0  0  0  0  0  0  0  0  0  0  0  0
   -2.4761    0.5161    1.6778 H   0  0  0  0  0  0  0  0  0  0  0  0
  1  2  1  0
  2  3  1  0
  3  4  1  0
  4  5  1  0
  5  6  1  0
  5  7  1  0
  2  8  1  0
  8  9  1  0
  9  2  1  0
  6  3  1  0
  7  3  1  0
  1 10  1  0
  1 11  1  0
  1 12  1  0
  4 13  1  0
  4 14  1  0
  5 15  1  0
  6 16  1  0
  6 17  1  0
  7 18  1  0
  7 19  1  0
  8 20  1  0
  8 21  1  0
  9 22  1  0
  9 23  1  0
M  END
