
     RDKit          3D

 21 23  0  0  0  0  0  0  0  0999 V2000
    0.4837    1.5864   -0.5166 C   0  0  0  0  0  0  0  0  0  0  0  0
    0.2889    0.2218    0.0658 C   0  0  0  0  0  0  0  0  0  0  0  0
    1.5777   -0.3433    0.6835 C   0  0  0  0  0  0  0  0  0  0  0  0
    2.7030   -0.5014   -0.1969 C   0  0  0  0  0  0  0  0  0  0  0  0
    1.9604   -1.6113    0.2582 O   0  0  0  0  0  0  0  0  0  0  0  0
   -0.5060   -0.7328   -0.7184 C   0  0  0  0  0  0  0  0  0  0  0  0
   -1.8172   -0.2544   -1.2988 C   0  0  0  0  0  0  0  0  0  0  0  0
   -2.3044   -0.0377    0.1164 C   0  0  0  0  0  0  0  0  0  0  0  0
   -0.9464   -0.2245    0.6944 C   0  0  0  0  0  0  0  0  0  0  0  0
   -0.2594    1.8894   -1.2509 H   0  0  0  0  0  0  0  0  0  0  0  0
    0.5542    2.3896    0.2553 H   0  0  0  0  0  0  0  0  0  0  0  0
    1.4807    1.5899   -1.0392 H   0  0  0  0  0  0  0  0  0  0  0  0
    1.6885   -0.1985    1.7860 H   0  0  0  0  0  0  0  0  0  0  0  0
    2.5791   -0.2789   -1.2733 H   0  0  0  0  0  0  0  0  0  0  0  0
    3.7618   -0.4431    0.1356 H   0  0  0  0  0  0  0  0  0  0  0  0
   -0.3176   -1.8030   -0.7757 H   0  0  0  0  0  0  0  0  0  0  0  0
   -2.3812   -1.0167   -1.8761 H   0  0  0  0  0  0  0  0  0  0  0  0
   -1.8008    0.6897   -1.8400 H   0  0  0  0  0  0  0  0  0  0  0  0
   -2.8109    0.9286    0.3046 H   0  0  0  0  0  0  0  0  0  0  0  0
   -3.0353   -0.8584    0.3708 H   0  0  0  0  0  0  0  0  0  0  0  0
   -0.8991   -0.9913    1.5066 H   0  0  0  0  0  0  0  0  0  0  0  0
  1  2  1  0
  2  3  1  0
  3  4  1  0
  4  5  1  0
  2  6  1  0
  6  7  1  0
  7  8  1  0
  8  9  1  0
  9  2  1  0
  5  3  1  0
  9  6  1  0
  1 10  1  0
  1 11  1  0
  1 12  1  0
  3 13  1  0
  4 14  1  0
  4 15  1  0
  6 16  1  0
  7 17  1  0
  7 18  1  0
  8 19  1  0
  8 20  1  0
  9 21  1  0
M  END
