
     RDKit          3D

 21 22  0  0  0  0  0  0  0  0999 V2000
   -2.1146   -0.7030    0.2214 C   0  0  0  0  0  0  0  0  0  0  0  0
   -0.7839   -0.0255   -0.0325 C   0  0  0  0  0  0  0  0  0  0  0  0
   -0.8037    0.9210   -1.1599 C   0  0  0  0  0  0  0  0  0  0  0  0
   -0.2145    0.4256    1.2929 C   0  0  0  0  0  0  0  0  0  0  0  0
   -0.0150   -0.9625    1.5328 O   0  0  0  0  0  0  0  0  0  0  0  0
    0.3304   -0.9774    0.1490 C   0  0  0  0  0  0  0  0  0  0  0  0
    1.7431   -0.5381    0.0457 C   0  0  0  0  0  0  0  0  0  0  0  0
    2.2655    0.6290   -0.6001 C   0  0  0  0  0  0  0  0  0  0  0  0
    2.1812   -0.5220   -1.3780 O   0  0  0  0  0  0  0  0  0  0  0  0
   -2.2275   -1.5433   -0.4935 H   0  0  0  0  0  0  0  0  0  0  0  0
   -2.1347   -1.1498    1.2370 H   0  0  0  0  0  0  0  0  0  0  0  0
   -2.9682   -0.0250    0.1299 H   0  0  0  0  0  0  0  0  0  0  0  0
   -0.2050    0.5230   -2.0014 H   0  0  0  0  0  0  0  0  0  0  0  0
   -1.8579    0.9594   -1.5729 H   0  0  0  0  0  0  0  0  0  0  0  0
   -0.5896    1.9684   -0.8910 H   0  0  0  0  0  0  0  0  0  0  0  0
    0.6933    1.0186    1.2610 H   0  0  0  0  0  0  0  0  0  0  0  0
   -0.9613    0.7919    2.0255 H   0  0  0  0  0  0  0  0  0  0  0  0
    0.0795   -1.9752   -0.2590 H   0  0  0  0  0  0  0  0  0  0  0  0
    2.5150   -1.2041    0.5508 H   0  0  0  0  0  0  0  0  0  0  0  0
    3.3381    0.9085   -0.3591 H   0  0  0  0  0  0  0  0  0  0  0  0
    1.7299    1.4805   -1.0119 H   0  0  0  0  0  0  0  0  0  0  0  0
  1  2  1  0
  2  3  1  0
  2  4  1  0
  4  5  1  0
  5  6  1  0
  6  7  1  0
  7  8  1  0
  8  9  1  0
  6  2  1  0
  9  7  1  0
  1 10  1  0
  1 11  1  0
  1 12  1  0
  3 13  1  0
  3 14  1  0
  3 15  1  0
  4 16  1  0
  4 17  1  0
  6 18  1  0
  7 19  1  0
  8 20  1  0
  8 21  1  0
M  END
