
     RDKit          3D

 21 22  0  0  0  0  0  0  0  0999 V2000
    1.0125    1.1117   -1.2446 C   0  0  0  0  0  0  0  0  0  0  0  0
    0.4838    0.0998   -0.2929 C   0  0  0  0  0  0  0  0  0  0  0  0
    1.5476   -0.6020    0.4765 C   0  0  0  0  0  0  0  0  0  0  0  0
   -0.4985   -0.8620   -0.9206 C   0  0  0  0  0  0  0  0  0  0  0  0
   -1.3133   -1.3872    0.2143 C   0  0  0  0  0  0  0  0  0  0  0  0
   -1.7617    0.0412    0.1857 C   0  0  0  0  0  0  0  0  0  0  0  0
   -1.5765    0.0161   -1.1943 O   0  0  0  0  0  0  0  0  0  0  0  0
   -0.5255    0.8043    0.6343 C   0  0  0  0  0  0  0  0  0  0  0  0
   -0.2193    0.5622    1.9601 O   0  0  0  0  0  0  0  0  0  0  0  0
    2.0462    1.4224   -0.9325 H   0  0  0  0  0  0  0  0  0  0  0  0
    0.9919    0.7982   -2.3112 H   0  0  0  0  0  0  0  0  0  0  0  0
    0.4139    2.0686   -1.2183 H   0  0  0  0  0  0  0  0  0  0  0  0
    1.9548   -0.0153    1.3183 H   0  0  0  0  0  0  0  0  0  0  0  0
    1.2398   -1.5960    0.8494 H   0  0  0  0  0  0  0  0  0  0  0  0
    2.4009   -0.7831   -0.2201 H   0  0  0  0  0  0  0  0  0  0  0  0
   -0.1758   -1.5019   -1.7053 H   0  0  0  0  0  0  0  0  0  0  0  0
   -0.7822   -1.6063    1.1515 H   0  0  0  0  0  0  0  0  0  0  0  0
   -2.0495   -2.1360   -0.0999 H   0  0  0  0  0  0  0  0  0  0  0  0
   -2.7070    0.3194    0.5840 H   0  0  0  0  0  0  0  0  0  0  0  0
   -0.6346    1.8618    0.3871 H   0  0  0  0  0  0  0  0  0  0  0  0
    0.1524    1.3842    2.3785 H   0  0  0  0  0  0  0  0  0  0  0  0
  1  2  1  0
  2  3  1  0
  2  4  1  0
  4  5  1  0
  5  6  1  0
  6  7  1  0
  6  8  1  0
  8  9  1  0
  8  2  1  0
  7  4  1  0
  1 10  1  0
  1 11  1  0
  1 12  1  0
  3 13  1  0
  3 14  1  0
  3 15  1  0
  4 16  1  0
  5 17  1  0
  5 18  1  0
  6 19  1  0
  8 20  1  0
  9 21  1  0
M  END
