
     RDKit          3D

 19 20  0  0  0  0  0  0  0  0999 V2000
    2.1735   -0.8960    0.6613 C   0  0  0  0  0  0  0  0  0  0  0  0
    1.3083   -0.1221   -0.3439 C   0  0  0  0  0  0  0  0  0  0  0  0
    2.1262    0.4326   -1.3504 O   0  0  0  0  0  0  0  0  0  0  0  0
    0.2741    0.6711    0.1964 C   0  0  0  0  0  0  0  0  0  0  0  0
   -0.6069    0.5100    1.2099 O   0  0  0  0  0  0  0  0  0  0  0  0
   -1.8821    0.6689    0.6153 C   0  0  0  0  0  0  0  0  0  0  0  0
   -2.1037   -0.0733   -0.6335 C   0  0  0  0  0  0  0  0  0  0  0  0
   -0.9737   -0.2315   -1.4712 O   0  0  0  0  0  0  0  0  0  0  0  0
    0.0282   -0.6269   -0.6475 C   0  0  0  0  0  0  0  0  0  0  0  0
    2.9568   -1.4549    0.1399 H   0  0  0  0  0  0  0  0  0  0  0  0
    2.6375   -0.0933    1.2995 H   0  0  0  0  0  0  0  0  0  0  0  0
    1.5494   -1.5034    1.3386 H   0  0  0  0  0  0  0  0  0  0  0  0
    2.6442    1.1580   -0.8777 H   0  0  0  0  0  0  0  0  0  0  0  0
    0.0704    1.6534   -0.3308 H   0  0  0  0  0  0  0  0  0  0  0  0
   -2.6043    0.3496    1.3757 H   0  0  0  0  0  0  0  0  0  0  0  0
   -1.9932    1.7795    0.4884 H   0  0  0  0  0  0  0  0  0  0  0  0
   -2.8904    0.4458   -1.2229 H   0  0  0  0  0  0  0  0  0  0  0  0
   -2.4109   -1.1242   -0.3769 H   0  0  0  0  0  0  0  0  0  0  0  0
   -0.3032   -1.5434   -0.0703 H   0  0  0  0  0  0  0  0  0  0  0  0
  1  2  1  0
  2  3  1  0
  2  4  1  0
  4  5  1  0
  5  6  1  0
  6  7  1  0
  7  8  1  0
  8  9  1  0
  9  2  1  0
  9  4  1  0
  1 10  1  0
  1 11  1  0
  1 12  1  0
  3 13  1  0
  4 14  1  0
  6 15  1  0
  6 16  1  0
  7 17  1  0
  7 18  1  0
  9 19  1  0
M  END
