
     RDKit          3D

 25 25  0  0  0  0  0  0  0  0999 V2000
    1.2357   -1.0323    1.2152 C   0  0  0  0  0  0  0  0  0  0  0  0
    0.7192   -0.1795    0.1163 C   0  0  0  0  0  0  0  0  0  0  0  0
    1.5604   -0.3336   -1.1521 C   0  0  0  0  0  0  0  0  0  0  0  0
    0.7514    1.2733    0.5860 C   0  0  0  0  0  0  0  0  0  0  0  0
   -0.1937    1.9059   -0.4143 C   0  0  0  0  0  0  0  0  0  0  0  0
   -1.3712    0.9553   -0.3617 C   0  0  0  0  0  0  0  0  0  0  0  0
   -0.7002   -0.4084   -0.2593 C   0  0  0  0  0  0  0  0  0  0  0  0
   -1.4865   -1.2213    0.7188 C   0  0  0  0  0  0  0  0  0  0  0  0
   -0.8307   -1.0128   -1.5158 O   0  0  0  0  0  0  0  0  0  0  0  0
    1.8879   -0.4618    1.9298 H   0  0  0  0  0  0  0  0  0  0  0  0
    0.4449   -1.4874    1.8525 H   0  0  0  0  0  0  0  0  0  0  0  0
    1.9102   -1.8029    0.7652 H   0  0  0  0  0  0  0  0  0  0  0  0
    1.4980   -1.4263   -1.4093 H   0  0  0  0  0  0  0  0  0  0  0  0
    1.1046    0.2006   -1.9923 H   0  0  0  0  0  0  0  0  0  0  0  0
    2.6095   -0.0863   -0.9953 H   0  0  0  0  0  0  0  0  0  0  0  0
    0.3257    1.3179    1.5998 H   0  0  0  0  0  0  0  0  0  0  0  0
    1.7673    1.7000    0.5483 H   0  0  0  0  0  0  0  0  0  0  0  0
    0.2710    1.9678   -1.4055 H   0  0  0  0  0  0  0  0  0  0  0  0
   -0.5315    2.9032   -0.1320 H   0  0  0  0  0  0  0  0  0  0  0  0
   -1.9978    1.0349   -1.2798 H   0  0  0  0  0  0  0  0  0  0  0  0
   -1.9324    1.1803    0.5653 H   0  0  0  0  0  0  0  0  0  0  0  0
   -2.5598   -1.1756    0.3675 H   0  0  0  0  0  0  0  0  0  0  0  0
   -1.5049   -0.7586    1.7353 H   0  0  0  0  0  0  0  0  0  0  0  0
   -1.2286   -2.2860    0.7466 H   0  0  0  0  0  0  0  0  0  0  0  0
   -1.7486   -0.7664   -1.8292 H   0  0  0  0  0  0  0  0  0  0  0  0
  1  2  1  0
  2  3  1  0
  2  4  1  0
  4  5  1  0
  5  6  1  0
  6  7  1  0
  7  8  1  0
  7  9  1  0
  7  2  1  0
  1 10  1  0
  1 11  1  0
  1 12  1  0
  3 13  1  0
  3 14  1  0
  3 15  1  0
  4 16  1  0
  4 17  1  0
  5 18  1  0
  5 19  1  0
  6 20  1  0
  6 21  1  0
  8 22  1  0
  8 23  1  0
  8 24  1  0
  9 25  1  0
M  END
