
     RDKit          3D

 21 22  0  0  0  0  0  0  0  0999 V2000
   -1.5866   -0.9060   -0.9375 C   0  0  0  0  0  0  0  0  0  0  0  0
   -0.7019   -0.0662   -0.0043 C   0  0  0  0  0  0  0  0  0  0  0  0
    0.6709    0.1587   -0.5397 C   0  0  0  0  0  0  0  0  0  0  0  0
    0.6909    0.8342   -1.7757 O   0  0  0  0  0  0  0  0  0  0  0  0
    1.5401   -1.1191   -0.5386 C   0  0  0  0  0  0  0  0  0  0  0  0
    1.8897    0.0978    0.2406 C   0  0  0  0  0  0  0  0  0  0  0  0
    1.9296    0.0190    1.6237 O   0  0  0  0  0  0  0  0  0  0  0  0
   -1.4281    1.1514    0.5215 C   0  0  0  0  0  0  0  0  0  0  0  0
   -1.0566    0.0187    1.4094 C   0  0  0  0  0  0  0  0  0  0  0  0
   -2.4786   -1.2841   -0.4222 H   0  0  0  0  0  0  0  0  0  0  0  0
   -0.9829   -1.7137   -1.4028 H   0  0  0  0  0  0  0  0  0  0  0  0
   -1.8578   -0.2106   -1.7710 H   0  0  0  0  0  0  0  0  0  0  0  0
    0.8529    1.7910   -1.5875 H   0  0  0  0  0  0  0  0  0  0  0  0
    2.0721   -1.3751   -1.4667 H   0  0  0  0  0  0  0  0  0  0  0  0
    1.1807   -1.9854    0.0251 H   0  0  0  0  0  0  0  0  0  0  0  0
    2.7753    0.6640   -0.1732 H   0  0  0  0  0  0  0  0  0  0  0  0
    2.0519    0.9412    1.9639 H   0  0  0  0  0  0  0  0  0  0  0  0
   -0.8165    2.0804    0.6227 H   0  0  0  0  0  0  0  0  0  0  0  0
   -2.4786    1.3284    0.2628 H   0  0  0  0  0  0  0  0  0  0  0  0
   -1.9383   -0.6027    1.7413 H   0  0  0  0  0  0  0  0  0  0  0  0
   -0.3281    0.1783    2.2082 H   0  0  0  0  0  0  0  0  0  0  0  0
  1  2  1  0
  2  3  1  0
  3  4  1  0
  3  5  1  0
  5  6  1  0
  6  7  1  0
  2  8  1  0
  8  9  1  0
  9  2  1  0
  6  3  1  0
  1 10  1  0
  1 11  1  0
  1 12  1  0
  4 13  1  0
  5 14  1  0
  5 15  1  0
  6 16  1  0
  7 17  1  0
  8 18  1  0
  8 19  1  0
  9 20  1  0
  9 21  1  0
M  END
