
     RDKit          3D

 21 23  0  0  0  0  0  0  0  0999 V2000
    2.3197   -0.1555   -0.3212 C   0  0  0  0  0  0  0  0  0  0  0  0
    0.8821   -0.4062   -0.6125 C   0  0  0  0  0  0  0  0  0  0  0  0
    0.6832   -0.9467   -1.9080 O   0  0  0  0  0  0  0  0  0  0  0  0
    0.0509   -0.9404    0.4263 C   0  0  0  0  0  0  0  0  0  0  0  0
   -1.3716   -1.2850   -0.0356 C   0  0  0  0  0  0  0  0  0  0  0  0
   -2.6233   -0.6085    0.2947 C   0  0  0  0  0  0  0  0  0  0  0  0
   -1.4690    0.1270    0.5860 C   0  0  0  0  0  0  0  0  0  0  0  0
   -0.2409    0.4553   -0.1689 C   0  0  0  0  0  0  0  0  0  0  0  0
    0.3754    1.7237    0.4465 C   0  0  0  0  0  0  0  0  0  0  0  0
    2.8733   -1.1053   -0.4614 H   0  0  0  0  0  0  0  0  0  0  0  0
    2.4117    0.1443    0.7439 H   0  0  0  0  0  0  0  0  0  0  0  0
    2.7581    0.6775   -0.9148 H   0  0  0  0  0  0  0  0  0  0  0  0
    0.9013   -0.2008   -2.5221 H   0  0  0  0  0  0  0  0  0  0  0  0
    0.2517   -0.9286    1.5078 H   0  0  0  0  0  0  0  0  0  0  0  0
   -1.3927   -1.4945   -1.1082 H   0  0  0  0  0  0  0  0  0  0  0  0
   -3.3303   -0.1565   -0.4660 H   0  0  0  0  0  0  0  0  0  0  0  0
   -3.2400   -1.1447    1.0574 H   0  0  0  0  0  0  0  0  0  0  0  0
   -1.2108    0.0542    1.7058 H   0  0  0  0  0  0  0  0  0  0  0  0
    1.2434    2.0814   -0.0893 H   0  0  0  0  0  0  0  0  0  0  0  0
    0.5570    1.6097    1.5170 H   0  0  0  0  0  0  0  0  0  0  0  0
   -0.4293    2.4996    0.3227 H   0  0  0  0  0  0  0  0  0  0  0  0
  1  2  1  0
  2  3  1  0
  2  4  1  0
  4  5  1  0
  5  6  1  0
  6  7  1  0
  7  8  1  0
  8  9  1  0
  8  2  1  0
  8  4  1  0
  7  5  1  0
  1 10  1  0
  1 11  1  0
  1 12  1  0
  3 13  1  0
  4 14  1  0
  5 15  1  0
  6 16  1  0
  6 17  1  0
  7 18  1  0
  9 19  1  0
  9 20  1  0
  9 21  1  0
M  END
