
     RDKit          3D

 21 22  0  0  0  0  0  0  0  0999 V2000
   -1.8217   -0.3671    0.7965 C   0  0  0  0  0  0  0  0  0  0  0  0
   -0.6121    0.3232    0.1574 C   0  0  0  0  0  0  0  0  0  0  0  0
   -1.1044    1.6012   -0.4406 C   0  0  0  0  0  0  0  0  0  0  0  0
    0.3671    0.5096    1.1258 O   0  0  0  0  0  0  0  0  0  0  0  0
    1.4762   -0.2317    0.7327 C   0  0  0  0  0  0  0  0  0  0  0  0
    1.9613    0.3465   -0.5684 C   0  0  0  0  0  0  0  0  0  0  0  0
    1.0228   -0.0189   -1.5357 O   0  0  0  0  0  0  0  0  0  0  0  0
   -0.0308   -0.6334   -0.8369 C   0  0  0  0  0  0  0  0  0  0  0  0
    0.7916   -1.4834    0.1533 C   0  0  0  0  0  0  0  0  0  0  0  0
   -2.7732    0.1016    0.4682 H   0  0  0  0  0  0  0  0  0  0  0  0
   -1.7476   -0.2230    1.8911 H   0  0  0  0  0  0  0  0  0  0  0  0
   -1.8818   -1.4305    0.5091 H   0  0  0  0  0  0  0  0  0  0  0  0
   -0.5588    1.9348   -1.3220 H   0  0  0  0  0  0  0  0  0  0  0  0
   -1.1394    2.3836    0.3635 H   0  0  0  0  0  0  0  0  0  0  0  0
   -2.1821    1.4898   -0.7579 H   0  0  0  0  0  0  0  0  0  0  0  0
    2.2017   -0.4360    1.4794 H   0  0  0  0  0  0  0  0  0  0  0  0
    2.9783   -0.0528   -0.8430 H   0  0  0  0  0  0  0  0  0  0  0  0
    2.0862    1.4432   -0.5075 H   0  0  0  0  0  0  0  0  0  0  0  0
   -0.7034   -1.1984   -1.4354 H   0  0  0  0  0  0  0  0  0  0  0  0
    1.4959   -2.1317   -0.3544 H   0  0  0  0  0  0  0  0  0  0  0  0
    0.1739   -1.9268    0.9250 H   0  0  0  0  0  0  0  0  0  0  0  0
  1  2  1  0
  2  3  1  0
  2  4  1  0
  4  5  1  0
  5  6  1  0
  6  7  1  0
  7  8  1  0
  8  9  1  0
  8  2  1  0
  9  5  1  0
  1 10  1  0
  1 11  1  0
  1 12  1  0
  3 13  1  0
  3 14  1  0
  3 15  1  0
  5 16  1  0
  6 17  1  0
  6 18  1  0
  8 19  1  0
  9 20  1  0
  9 21  1  0
M  END
