
     RDKit          3D

 19 20  0  0  0  0  0  0  0  0999 V2000
   -1.4112    0.5240   -1.1028 C   0  0  0  0  0  0  0  0  0  0  0  0
   -0.7265    0.4404    0.1797 C   0  0  0  0  0  0  0  0  0  0  0  0
   -1.2715    1.2556    1.1452 O   0  0  0  0  0  0  0  0  0  0  0  0
   -0.5366   -1.0034    0.6882 C   0  0  0  0  0  0  0  0  0  0  0  0
    0.4723   -0.3274    1.5536 C   0  0  0  0  0  0  0  0  0  0  0  0
    1.5655    0.3391    1.2657 O   0  0  0  0  0  0  0  0  0  0  0  0
    0.7682    0.4126    0.2138 C   0  0  0  0  0  0  0  0  0  0  0  0
    1.4229   -0.4034   -0.8962 C   0  0  0  0  0  0  0  0  0  0  0  0
    2.6759    0.2317   -1.1114 O   0  0  0  0  0  0  0  0  0  0  0  0
   -1.2771    1.5437   -1.5384 H   0  0  0  0  0  0  0  0  0  0  0  0
   -1.1260   -0.1975   -1.8803 H   0  0  0  0  0  0  0  0  0  0  0  0
   -2.5054    0.4092   -0.9505 H   0  0  0  0  0  0  0  0  0  0  0  0
   -2.0098    0.8206    1.6150 H   0  0  0  0  0  0  0  0  0  0  0  0
   -1.4210   -1.3670    1.2259 H   0  0  0  0  0  0  0  0  0  0  0  0
   -0.2258   -1.7155   -0.0627 H   0  0  0  0  0  0  0  0  0  0  0  0
   -0.0955    0.2955    2.3209 H   0  0  0  0  0  0  0  0  0  0  0  0
    0.9080   -0.3445   -1.8481 H   0  0  0  0  0  0  0  0  0  0  0  0
    1.7112   -1.4232   -0.5655 H   0  0  0  0  0  0  0  0  0  0  0  0
    3.0824    0.5097   -0.2520 H   0  0  0  0  0  0  0  0  0  0  0  0
  1  2  1  0
  2  3  1  0
  2  4  1  0
  4  5  1  0
  5  6  1  0
  6  7  1  0
  7  8  1  0
  8  9  1  0
  7  2  1  0
  7  5  1  0
  1 10  1  0
  1 11  1  0
  1 12  1  0
  3 13  1  0
  4 14  1  0
  4 15  1  0
  5 16  1  0
  8 17  1  0
  8 18  1  0
  9 19  1  0
M  END
