
     RDKit          3D

 21 21  0  0  0  0  0  0  0  0999 V2000
   -0.1085   -1.5101    0.9531 C   0  0  0  0  0  0  0  0  0  0  0  0
   -0.3627   -0.2073    0.2062 C   0  0  0  0  0  0  0  0  0  0  0  0
    0.7683    0.7470    0.0854 C   0  0  0  0  0  0  0  0  0  0  0  0
    1.9732    0.2244   -0.6214 C   0  0  0  0  0  0  0  0  0  0  0  0
    2.5540   -0.8718   -0.0489 O   0  0  0  0  0  0  0  0  0  0  0  0
   -1.5225   -0.1892   -0.7192 C   0  0  0  0  0  0  0  0  0  0  0  0
   -1.5509    0.6779   -1.8020 O   0  0  0  0  0  0  0  0  0  0  0  0
   -1.6834    0.4738    0.6222 C   0  0  0  0  0  0  0  0  0  0  0  0
   -1.7299    1.8449    0.6660 O   0  0  0  0  0  0  0  0  0  0  0  0
   -1.1003   -1.9833    1.1117 H   0  0  0  0  0  0  0  0  0  0  0  0
    0.4037   -1.2974    1.9196 H   0  0  0  0  0  0  0  0  0  0  0  0
    0.4914   -2.2228    0.3648 H   0  0  0  0  0  0  0  0  0  0  0  0
    0.4120    1.6461   -0.4580 H   0  0  0  0  0  0  0  0  0  0  0  0
    1.0552    1.0817    1.1101 H   0  0  0  0  0  0  0  0  0  0  0  0
    1.7041   -0.0494   -1.6753 H   0  0  0  0  0  0  0  0  0  0  0  0
    2.7404    1.0200   -0.7094 H   0  0  0  0  0  0  0  0  0  0  0  0
    3.5553   -0.8903   -0.1291 H   0  0  0  0  0  0  0  0  0  0  0  0
   -2.0750   -1.1426   -0.8554 H   0  0  0  0  0  0  0  0  0  0  0  0
   -2.3162    0.4401   -2.3883 H   0  0  0  0  0  0  0  0  0  0  0  0
   -2.3187   -0.0349    1.3573 H   0  0  0  0  0  0  0  0  0  0  0  0
   -0.8895    2.2431    1.0105 H   0  0  0  0  0  0  0  0  0  0  0  0
  1  2  1  0
  2  3  1  0
  3  4  1  0
  4  5  1  0
  2  6  1  0
  6  7  1  0
  6  8  1  0
  8  9  1  0
  8  2  1  0
  1 10  1  0
  1 11  1  0
  1 12  1  0
  3 13  1  0
  3 14  1  0
  4 15  1  0
  4 16  1  0
  5 17  1  0
  6 18  1  0
  7 19  1  0
  8 20  1  0
  9 21  1  0
M  END
