
     RDKit          3D

 21 21  0  0  0  0  0  0  0  0999 V2000
    0.3949    1.3219   -0.7577 C   0  0  0  0  0  0  0  0  0  0  0  0
    0.3130    0.0840    0.0867 C   0  0  0  0  0  0  0  0  0  0  0  0
    1.6528   -0.4650    0.4648 C   0  0  0  0  0  0  0  0  0  0  0  0
    2.4284   -0.8155   -0.6127 O   0  0  0  0  0  0  0  0  0  0  0  0
   -0.4351    0.4658    1.3414 C   0  0  0  0  0  0  0  0  0  0  0  0
   -1.8485    0.3184    0.9388 C   0  0  0  0  0  0  0  0  0  0  0  0
   -1.9189   -0.4834   -0.1067 C   0  0  0  0  0  0  0  0  0  0  0  0
   -0.5799   -0.9716   -0.5373 C   0  0  0  0  0  0  0  0  0  0  0  0
   -0.5414   -0.9255   -1.9217 O   0  0  0  0  0  0  0  0  0  0  0  0
   -0.6495    1.6573   -0.9466 H   0  0  0  0  0  0  0  0  0  0  0  0
    0.8555    2.1276   -0.1366 H   0  0  0  0  0  0  0  0  0  0  0  0
    0.9616    1.1852   -1.6902 H   0  0  0  0  0  0  0  0  0  0  0  0
    2.1592    0.2745    1.1271 H   0  0  0  0  0  0  0  0  0  0  0  0
    1.4737   -1.3690    1.0932 H   0  0  0  0  0  0  0  0  0  0  0  0
    3.2694   -0.2670   -0.5830 H   0  0  0  0  0  0  0  0  0  0  0  0
   -0.2266    1.5452    1.5975 H   0  0  0  0  0  0  0  0  0  0  0  0
   -0.1452   -0.2037    2.1719 H   0  0  0  0  0  0  0  0  0  0  0  0
   -2.7034    0.8121    1.4477 H   0  0  0  0  0  0  0  0  0  0  0  0
   -2.8909   -0.7310   -0.5712 H   0  0  0  0  0  0  0  0  0  0  0  0
   -0.3503   -1.9820   -0.1615 H   0  0  0  0  0  0  0  0  0  0  0  0
   -1.2188   -1.5785   -2.2440 H   0  0  0  0  0  0  0  0  0  0  0  0
  1  2  1  0
  2  3  1  0
  3  4  1  0
  2  5  1  0
  5  6  1  0
  6  7  2  0
  7  8  1  0
  8  9  1  0
  8  2  1  0
  1 10  1  0
  1 11  1  0
  1 12  1  0
  3 13  1  0
  3 14  1  0
  4 15  1  0
  5 16  1  0
  5 17  1  0
  6 18  1  0
  7 19  1  0
  8 20  1  0
  9 21  1  0
M  END
