
     RDKit          3D

 19 19  0  0  0  0  0  0  0  0999 V2000
   -1.4916   -1.0448    0.8490 C   0  0  0  0  0  0  0  0  0  0  0  0
   -0.6287   -0.1326   -0.0312 C   0  0  0  0  0  0  0  0  0  0  0  0
   -1.3385    0.1544   -1.2974 C   0  0  0  0  0  0  0  0  0  0  0  0
   -1.6947    1.2596   -1.5560 O   0  0  0  0  0  0  0  0  0  0  0  0
    0.7051   -0.7690   -0.3261 C   0  0  0  0  0  0  0  0  0  0  0  0
    1.8508   -0.1525    0.3803 C   0  0  0  0  0  0  0  0  0  0  0  0
    1.7195    1.1708    0.6958 O   0  0  0  0  0  0  0  0  0  0  0  0
    0.5849    1.7749    0.1805 C   0  0  0  0  0  0  0  0  0  0  0  0
   -0.5081    1.0614    0.6711 O   0  0  0  0  0  0  0  0  0  0  0  0
   -2.5600   -0.8318    0.5561 H   0  0  0  0  0  0  0  0  0  0  0  0
   -1.4220   -0.7404    1.9135 H   0  0  0  0  0  0  0  0  0  0  0  0
   -1.2512   -2.0997    0.7146 H   0  0  0  0  0  0  0  0  0  0  0  0
   -1.5326   -0.6509   -1.9901 H   0  0  0  0  0  0  0  0  0  0  0  0
    0.8994   -0.7295   -1.4185 H   0  0  0  0  0  0  0  0  0  0  0  0
    0.6463   -1.8681   -0.0800 H   0  0  0  0  0  0  0  0  0  0  0  0
    2.0621   -0.7633    1.2979 H   0  0  0  0  0  0  0  0  0  0  0  0
    2.7946   -0.2528   -0.2326 H   0  0  0  0  0  0  0  0  0  0  0  0
    0.5404    2.7991    0.5891 H   0  0  0  0  0  0  0  0  0  0  0  0
    0.6242    1.8151   -0.9159 H   0  0  0  0  0  0  0  0  0  0  0  0
  1  2  1  0
  2  3  1  0
  3  4  2  0
  2  5  1  0
  5  6  1  0
  6  7  1  0
  7  8  1  0
  8  9  1  0
  9  2  1  0
  1 10  1  0
  1 11  1  0
  1 12  1  0
  3 13  1  0
  5 14  1  0
  5 15  1  0
  6 16  1  0
  6 17  1  0
  8 18  1  0
  8 19  1  0
M  END
