
     RDKit          3D

 18 18  0  0  0  0  0  0  0  0999 V2000
   -1.2214   -0.8924   -0.7769 C   0  0  0  0  0  0  0  0  0  0  0  0
   -0.3003    0.1267   -0.1584 C   0  0  0  0  0  0  0  0  0  0  0  0
   -1.1490    1.2001    0.5306 C   0  0  0  0  0  0  0  0  0  0  0  0
    0.7085    0.6480   -1.0949 C   0  0  0  0  0  0  0  0  0  0  0  0
    0.6738    1.2782   -2.1467 O   0  0  0  0  0  0  0  0  0  0  0  0
    1.8190    0.1092   -0.2650 C   0  0  0  0  0  0  0  0  0  0  0  0
    0.7869   -0.3861    0.7141 C   0  0  0  0  0  0  0  0  0  0  0  0
    0.8053   -1.7362    0.9884 O   0  0  0  0  0  0  0  0  0  0  0  0
   -1.8904   -1.2724   -0.0006 H   0  0  0  0  0  0  0  0  0  0  0  0
   -0.7092   -1.6633   -1.3589 H   0  0  0  0  0  0  0  0  0  0  0  0
   -1.8837   -0.3164   -1.4898 H   0  0  0  0  0  0  0  0  0  0  0  0
   -0.5942    1.5738    1.4010 H   0  0  0  0  0  0  0  0  0  0  0  0
   -2.0956    0.7512    0.8750 H   0  0  0  0  0  0  0  0  0  0  0  0
   -1.3855    1.9549   -0.2294 H   0  0  0  0  0  0  0  0  0  0  0  0
    2.4481    0.9611    0.0962 H   0  0  0  0  0  0  0  0  0  0  0  0
    2.4508   -0.6511   -0.7259 H   0  0  0  0  0  0  0  0  0  0  0  0
    0.8772    0.2119    1.6682 H   0  0  0  0  0  0  0  0  0  0  0  0
    0.6596   -1.8974    1.9731 H   0  0  0  0  0  0  0  0  0  0  0  0
  1  2  1  0
  2  3  1  0
  2  4  1  0
  4  5  2  0
  4  6  1  0
  6  7  1  0
  7  8  1  0
  7  2  1  0
  1  9  1  0
  1 10  1  0
  1 11  1  0
  3 12  1  0
  3 13  1  0
  3 14  1  0
  6 15  1  0
  6 16  1  0
  7 17  1  0
  8 18  1  0
M  END
