
     RDKit          3D

 23 24  0  0  0  0  0  0  0  0999 V2000
   -1.8216   -1.0034   -0.3018 C   0  0  0  0  0  0  0  0  0  0  0  0
   -0.8314    0.0582    0.0321 C   0  0  0  0  0  0  0  0  0  0  0  0
   -1.4593    1.3963    0.0855 C   0  0  0  0  0  0  0  0  0  0  0  0
   -0.1453   -0.3235    1.3485 C   0  0  0  0  0  0  0  0  0  0  0  0
    1.0393   -1.0852    0.8433 C   0  0  0  0  0  0  0  0  0  0  0  0
    2.1762   -0.0735    0.6762 C   0  0  0  0  0  0  0  0  0  0  0  0
    1.5243    0.8076   -0.4007 C   0  0  0  0  0  0  0  0  0  0  0  0
    0.3634   -0.0343   -0.8865 C   0  0  0  0  0  0  0  0  0  0  0  0
    0.8009   -1.3347   -0.5292 O   0  0  0  0  0  0  0  0  0  0  0  0
   -1.5041   -1.6256   -1.1800 H   0  0  0  0  0  0  0  0  0  0  0  0
   -2.8190   -0.6100   -0.5346 H   0  0  0  0  0  0  0  0  0  0  0  0
   -1.9220   -1.7524    0.5376 H   0  0  0  0  0  0  0  0  0  0  0  0
   -0.7801    2.2447    0.1356 H   0  0  0  0  0  0  0  0  0  0  0  0
   -2.2003    1.4697   -0.7464 H   0  0  0  0  0  0  0  0  0  0  0  0
   -2.0878    1.4418    1.0217 H   0  0  0  0  0  0  0  0  0  0  0  0
    0.1532    0.6702    1.7924 H   0  0  0  0  0  0  0  0  0  0  0  0
   -0.7982   -0.8643    2.0233 H   0  0  0  0  0  0  0  0  0  0  0  0
    1.3149   -1.9588    1.3990 H   0  0  0  0  0  0  0  0  0  0  0  0
    2.3940    0.4731    1.5868 H   0  0  0  0  0  0  0  0  0  0  0  0
    3.0228   -0.6466    0.2526 H   0  0  0  0  0  0  0  0  0  0  0  0
    1.1913    1.7217    0.1004 H   0  0  0  0  0  0  0  0  0  0  0  0
    2.2467    0.9645   -1.2048 H   0  0  0  0  0  0  0  0  0  0  0  0
    0.1420    0.0647   -1.9356 H   0  0  0  0  0  0  0  0  0  0  0  0
  1  2  1  0
  2  3  1  0
  2  4  1  0
  4  5  1  0
  5  6  1  0
  6  7  1  0
  7  8  1  0
  8  9  1  0
  8  2  1  0
  9  5  1  0
  1 10  1  0
  1 11  1  0
  1 12  1  0
  3 13  1  0
  3 14  1  0
  3 15  1  0
  4 16  1  0
  4 17  1  0
  5 18  1  0
  6 19  1  0
  6 20  1  0
  7 21  1  0
  7 22  1  0
  8 23  1  0
M  END
