
     RDKit          3D

 19 19  0  0  0  0  0  0  0  0999 V2000
    0.0359    1.7349    0.4724 C   0  0  0  0  0  0  0  0  0  0  0  0
    0.0374    0.2251    0.3967 C   0  0  0  0  0  0  0  0  0  0  0  0
    0.7451   -0.4025    1.5226 C   0  0  0  0  0  0  0  0  0  0  0  0
    0.7065   -0.0100    2.6785 O   0  0  0  0  0  0  0  0  0  0  0  0
   -1.3899   -0.2475    0.2566 C   0  0  0  0  0  0  0  0  0  0  0  0
   -1.3464   -1.2399   -0.8527 C   0  0  0  0  0  0  0  0  0  0  0  0
   -0.1969   -1.1982   -1.5026 C   0  0  0  0  0  0  0  0  0  0  0  0
    0.6704   -0.1719   -0.9072 C   0  0  0  0  0  0  0  0  0  0  0  0
    1.9565   -0.6869   -0.6397 O   0  0  0  0  0  0  0  0  0  0  0  0
   -0.7282    2.1292    1.1516 H   0  0  0  0  0  0  0  0  0  0  0  0
   -0.1887    2.1152   -0.5509 H   0  0  0  0  0  0  0  0  0  0  0  0
    1.0522    2.1021    0.7225 H   0  0  0  0  0  0  0  0  0  0  0  0
    1.3503   -1.2810    1.3248 H   0  0  0  0  0  0  0  0  0  0  0  0
   -1.7863   -0.7107    1.1708 H   0  0  0  0  0  0  0  0  0  0  0  0
   -2.0607    0.5834   -0.0654 H   0  0  0  0  0  0  0  0  0  0  0  0
   -2.2022   -1.9020   -1.0576 H   0  0  0  0  0  0  0  0  0  0  0  0
    0.0601   -1.8227   -2.3396 H   0  0  0  0  0  0  0  0  0  0  0  0
    0.8399    0.7058   -1.5721 H   0  0  0  0  0  0  0  0  0  0  0  0
    2.4450    0.0776   -0.2085 H   0  0  0  0  0  0  0  0  0  0  0  0
  1  2  1  0
  2  3  1  0
  3  4  2  0
  2  5  1  0
  5  6  1  0
  6  7  2  0
  7  8  1  0
  8  9  1  0
  8  2  1  0
  1 10  1  0
  1 11  1  0
  1 12  1  0
  3 13  1  0
  5 14  1  0
  5 15  1  0
  6 16  1  0
  7 17  1  0
  8 18  1  0
  9 19  1  0
M  END
