
     RDKit          3D

 21 22  0  0  0  0  0  0  0  0999 V2000
   -1.7347   -1.3631    0.4101 C   0  0  0  0  0  0  0  0  0  0  0  0
   -0.8258   -0.2376   -0.0959 C   0  0  0  0  0  0  0  0  0  0  0  0
    0.5062   -0.2386    0.6137 C   0  0  0  0  0  0  0  0  0  0  0  0
    0.3115   -0.0594    1.9970 O   0  0  0  0  0  0  0  0  0  0  0  0
    1.4453    0.8416    0.1792 C   0  0  0  0  0  0  0  0  0  0  0  0
    2.8244    0.4111   -0.1479 C   0  0  0  0  0  0  0  0  0  0  0  0
    1.8563    0.9457   -1.1495 O   0  0  0  0  0  0  0  0  0  0  0  0
   -1.5290    1.0360   -0.3896 C   0  0  0  0  0  0  0  0  0  0  0  0
   -0.9807    0.1418   -1.5066 C   0  0  0  0  0  0  0  0  0  0  0  0
   -2.5293   -1.5255   -0.3170 H   0  0  0  0  0  0  0  0  0  0  0  0
   -1.1091   -2.2742    0.5868 H   0  0  0  0  0  0  0  0  0  0  0  0
   -2.1703   -1.0993    1.3979 H   0  0  0  0  0  0  0  0  0  0  0  0
    0.9692   -1.2191    0.4103 H   0  0  0  0  0  0  0  0  0  0  0  0
    0.4309   -0.9162    2.4779 H   0  0  0  0  0  0  0  0  0  0  0  0
    1.3274    1.8060    0.7166 H   0  0  0  0  0  0  0  0  0  0  0  0
    3.0651   -0.6221   -0.3938 H   0  0  0  0  0  0  0  0  0  0  0  0
    3.6939    1.0771   -0.0256 H   0  0  0  0  0  0  0  0  0  0  0  0
   -2.6204    1.1212   -0.4014 H   0  0  0  0  0  0  0  0  0  0  0  0
   -0.9851    1.9603   -0.1382 H   0  0  0  0  0  0  0  0  0  0  0  0
   -1.7104   -0.4371   -2.1091 H   0  0  0  0  0  0  0  0  0  0  0  0
   -0.2355    0.6515   -2.1146 H   0  0  0  0  0  0  0  0  0  0  0  0
  1  2  1  0
  2  3  1  0
  3  4  1  0
  3  5  1  0
  5  6  1  0
  6  7  1  0
  2  8  1  0
  8  9  1  0
  9  2  1  0
  7  5  1  0
  1 10  1  0
  1 11  1  0
  1 12  1  0
  3 13  1  0
  4 14  1  0
  5 15  1  0
  6 16  1  0
  6 17  1  0
  8 18  1  0
  8 19  1  0
  9 20  1  0
  9 21  1  0
M  END
