
     RDKit          3D

 17 18  0  0  0  0  0  0  0  0999 V2000
    1.8314   -0.6900   -0.0462 C   0  0  0  0  0  0  0  0  0  0  0  0
    0.7393    0.3646   -0.2654 C   0  0  0  0  0  0  0  0  0  0  0  0
    1.0064    1.2910   -1.2506 O   0  0  0  0  0  0  0  0  0  0  0  0
    0.1072    0.9666    0.9931 C   0  0  0  0  0  0  0  0  0  0  0  0
   -0.5781   -0.0079    0.1872 C   0  0  0  0  0  0  0  0  0  0  0  0
   -1.8474    0.1936   -0.5574 C   0  0  0  0  0  0  0  0  0  0  0  0
   -2.2143   -1.0930   -0.0836 O   0  0  0  0  0  0  0  0  0  0  0  0
   -1.0258   -1.3178    0.5985 C   0  0  0  0  0  0  0  0  0  0  0  0
   -0.6345   -2.3070    1.2616 O   0  0  0  0  0  0  0  0  0  0  0  0
    1.7751   -1.3556   -0.9290 H   0  0  0  0  0  0  0  0  0  0  0  0
    1.5562   -1.2860    0.8333 H   0  0  0  0  0  0  0  0  0  0  0  0
    2.8038   -0.2155    0.1063 H   0  0  0  0  0  0  0  0  0  0  0  0
    0.2351    1.5499   -1.7868 H   0  0  0  0  0  0  0  0  0  0  0  0
    0.6292    0.6944    1.9220 H   0  0  0  0  0  0  0  0  0  0  0  0
   -0.2103    2.0257    0.9549 H   0  0  0  0  0  0  0  0  0  0  0  0
   -1.6771    0.1671   -1.6668 H   0  0  0  0  0  0  0  0  0  0  0  0
   -2.4964    1.0198   -0.2712 H   0  0  0  0  0  0  0  0  0  0  0  0
  1  2  1  0
  2  3  1  0
  2  4  1  0
  4  5  1  0
  5  6  1  0
  6  7  1  0
  7  8  1  0
  8  9  2  0
  5  2  1  0
  8  5  1  0
  1 10  1  0
  1 11  1  0
  1 12  1  0
  3 13  1  0
  4 14  1  0
  4 15  1  0
  6 16  1  0
  6 17  1  0
M  END
