
     RDKit          3D

 19 21  0  0  0  0  0  0  0  0999 V2000
    0.7750    1.7241   -0.2257 C   0  0  0  0  0  0  0  0  0  0  0  0
    0.0559    0.3812   -0.2573 C   0  0  0  0  0  0  0  0  0  0  0  0
    0.9638   -0.7966   -0.3352 C   0  0  0  0  0  0  0  0  0  0  0  0
    1.9733   -1.1169    0.6595 C   0  0  0  0  0  0  0  0  0  0  0  0
    2.3154   -0.5428   -0.6484 O   0  0  0  0  0  0  0  0  0  0  0  0
   -1.2269    0.3478    0.4774 C   0  0  0  0  0  0  0  0  0  0  0  0
   -2.0520   -0.8921    0.4640 C   0  0  0  0  0  0  0  0  0  0  0  0
   -1.8326   -0.9814   -0.9313 O   0  0  0  0  0  0  0  0  0  0  0  0
   -1.2393    0.2658   -0.9774 C   0  0  0  0  0  0  0  0  0  0  0  0
    1.6006    1.6257    0.5231 H   0  0  0  0  0  0  0  0  0  0  0  0
    1.2176    1.9236   -1.2253 H   0  0  0  0  0  0  0  0  0  0  0  0
    0.1306    2.5356    0.1168 H   0  0  0  0  0  0  0  0  0  0  0  0
    0.5425   -1.6704   -0.8973 H   0  0  0  0  0  0  0  0  0  0  0  0
    2.2383   -0.4640    1.5066 H   0  0  0  0  0  0  0  0  0  0  0  0
    2.3697   -2.1302    0.7051 H   0  0  0  0  0  0  0  0  0  0  0  0
   -1.5497    1.2516    1.0243 H   0  0  0  0  0  0  0  0  0  0  0  0
   -3.1277   -0.7968    0.6356 H   0  0  0  0  0  0  0  0  0  0  0  0
   -1.5369   -1.7123    1.0310 H   0  0  0  0  0  0  0  0  0  0  0  0
   -1.6177    1.0482   -1.6454 H   0  0  0  0  0  0  0  0  0  0  0  0
  1  2  1  0
  2  3  1  0
  3  4  1  0
  4  5  1  0
  2  6  1  0
  6  7  1  0
  7  8  1  0
  8  9  1  0
  9  2  1  0
  5  3  1  0
  9  6  1  0
  1 10  1  0
  1 11  1  0
  1 12  1  0
  3 13  1  0
  4 14  1  0
  4 15  1  0
  6 16  1  0
  7 17  1  0
  7 18  1  0
  9 19  1  0
M  END
