
     RDKit          3D

 23 24  0  0  0  0  0  0  0  0999 V2000
    1.2754   -1.5942   -0.4136 C   0  0  0  0  0  0  0  0  0  0  0  0
    0.8151   -0.3086    0.2014 C   0  0  0  0  0  0  0  0  0  0  0  0
    2.0053    0.4956    0.6616 C   0  0  0  0  0  0  0  0  0  0  0  0
   -0.0130   -0.5069    1.2775 O   0  0  0  0  0  0  0  0  0  0  0  0
   -1.1460    0.2624    1.1397 C   0  0  0  0  0  0  0  0  0  0  0  0
   -2.0163   -0.3903    0.0826 C   0  0  0  0  0  0  0  0  0  0  0  0
   -1.2377   -0.1370   -1.2188 C   0  0  0  0  0  0  0  0  0  0  0  0
    0.0154    0.5540   -0.7490 C   0  0  0  0  0  0  0  0  0  0  0  0
   -0.6262    1.4605    0.3228 C   0  0  0  0  0  0  0  0  0  0  0  0
    2.0592   -2.0187    0.2584 H   0  0  0  0  0  0  0  0  0  0  0  0
    0.4850   -2.3616   -0.4950 H   0  0  0  0  0  0  0  0  0  0  0  0
    1.7738   -1.4102   -1.3842 H   0  0  0  0  0  0  0  0  0  0  0  0
    2.2436    1.2655   -0.1018 H   0  0  0  0  0  0  0  0  0  0  0  0
    2.9094   -0.1258    0.7840 H   0  0  0  0  0  0  0  0  0  0  0  0
    1.7780    0.9940    1.6450 H   0  0  0  0  0  0  0  0  0  0  0  0
   -1.6520    0.5468    2.0364 H   0  0  0  0  0  0  0  0  0  0  0  0
   -3.0233    0.0542    0.0439 H   0  0  0  0  0  0  0  0  0  0  0  0
   -2.0238   -1.4837    0.2287 H   0  0  0  0  0  0  0  0  0  0  0  0
   -1.8291    0.6224   -1.7818 H   0  0  0  0  0  0  0  0  0  0  0  0
   -1.0631   -1.0583   -1.7663 H   0  0  0  0  0  0  0  0  0  0  0  0
    0.5751    1.0915   -1.4864 H   0  0  0  0  0  0  0  0  0  0  0  0
    0.1217    2.0319    0.8653 H   0  0  0  0  0  0  0  0  0  0  0  0
   -1.4265    2.0164   -0.1503 H   0  0  0  0  0  0  0  0  0  0  0  0
  1  2  1  0
  2  3  1  0
  2  4  1  0
  4  5  1  0
  5  6  1  0
  6  7  1  0
  7  8  1  0
  8  9  1  0
  8  2  1  0
  9  5  1  0
  1 10  1  0
  1 11  1  0
  1 12  1  0
  3 13  1  0
  3 14  1  0
  3 15  1  0
  5 16  1  0
  6 17  1  0
  6 18  1  0
  7 19  1  0
  7 20  1  0
  8 21  1  0
  9 22  1  0
  9 23  1  0
M  END
