
     RDKit          3D

 17 17  0  0  0  0  0  0  0  0999 V2000
    1.2752   -1.1195   -0.0551 C   0  0  0  0  0  0  0  0  0  0  0  0
    0.5598    0.1658    0.2676 C   0  0  0  0  0  0  0  0  0  0  0  0
    1.4949    1.2523    0.6536 C   0  0  0  0  0  0  0  0  0  0  0  0
    1.3458    1.7559    1.7494 O   0  0  0  0  0  0  0  0  0  0  0  0
   -0.3696   -0.0916    1.2903 O   0  0  0  0  0  0  0  0  0  0  0  0
   -1.4525   -0.6406    0.6046 C   0  0  0  0  0  0  0  0  0  0  0  0
   -1.6595    0.4378   -0.4703 C   0  0  0  0  0  0  0  0  0  0  0  0
   -0.2485    0.6646   -0.8775 C   0  0  0  0  0  0  0  0  0  0  0  0
    0.1019    1.1532   -1.9261 O   0  0  0  0  0  0  0  0  0  0  0  0
    0.9609   -1.5283   -1.0423 H   0  0  0  0  0  0  0  0  0  0  0  0
    1.1014   -1.8773    0.7357 H   0  0  0  0  0  0  0  0  0  0  0  0
    2.3699   -0.8850   -0.0453 H   0  0  0  0  0  0  0  0  0  0  0  0
    2.2814    1.5916   -0.0039 H   0  0  0  0  0  0  0  0  0  0  0  0
   -1.1174   -1.5786    0.1015 H   0  0  0  0  0  0  0  0  0  0  0  0
   -2.3383   -0.7689    1.2193 H   0  0  0  0  0  0  0  0  0  0  0  0
   -1.9949    1.3612    0.0537 H   0  0  0  0  0  0  0  0  0  0  0  0
   -2.3106    0.1074   -1.2715 H   0  0  0  0  0  0  0  0  0  0  0  0
  1  2  1  0
  2  3  1  0
  3  4  2  0
  2  5  1  0
  5  6  1  0
  6  7  1  0
  7  8  1  0
  8  9  2  0
  8  2  1  0
  1 10  1  0
  1 11  1  0
  1 12  1  0
  3 13  1  0
  6 14  1  0
  6 15  1  0
  7 16  1  0
  7 17  1  0
M  END
