
     RDKit          3D

 19 21  0  0  0  0  0  0  0  0999 V2000
   -2.3700    0.4835    0.7534 C   0  0  0  0  0  0  0  0  0  0  0  0
   -1.3335   -0.0603   -0.2423 C   0  0  0  0  0  0  0  0  0  0  0  0
   -1.9580   -0.3710   -1.4765 O   0  0  0  0  0  0  0  0  0  0  0  0
   -0.0167    0.5055   -0.3469 C   0  0  0  0  0  0  0  0  0  0  0  0
    1.2960   -0.2077   -0.5321 C   0  0  0  0  0  0  0  0  0  0  0  0
    2.3068   -0.4841    0.4448 C   0  0  0  0  0  0  0  0  0  0  0  0
    3.2217    0.5653    0.7054 O   0  0  0  0  0  0  0  0  0  0  0  0
    0.9736   -0.4856    0.9920 C   0  0  0  0  0  0  0  0  0  0  0  0
   -0.3097   -0.8958    0.3270 C   0  0  0  0  0  0  0  0  0  0  0  0
   -2.7800   -0.3691    1.3474 H   0  0  0  0  0  0  0  0  0  0  0  0
   -3.2256    0.9452    0.2350 H   0  0  0  0  0  0  0  0  0  0  0  0
   -1.9231    1.2716    1.3989 H   0  0  0  0  0  0  0  0  0  0  0  0
   -1.6596    0.2782   -2.1655 H   0  0  0  0  0  0  0  0  0  0  0  0
    0.1394    1.3548    0.3821 H   0  0  0  0  0  0  0  0  0  0  0  0
    1.1086   -1.0839   -1.2238 H   0  0  0  0  0  0  0  0  0  0  0  0
    2.8527   -1.4718    0.4856 H   0  0  0  0  0  0  0  0  0  0  0  0
    2.9916    1.3744    0.1825 H   0  0  0  0  0  0  0  0  0  0  0  0
    0.7718    0.4428    1.6068 H   0  0  0  0  0  0  0  0  0  0  0  0
   -0.0860   -1.7920   -0.3262 H   0  0  0  0  0  0  0  0  0  0  0  0
  1  2  1  0
  2  3  1  0
  2  4  1  0
  4  5  1  0
  5  6  1  0
  6  7  1  0
  6  8  1  0
  8  9  1  0
  9  2  1  0
  9  4  1  0
  8  5  1  0
  1 10  1  0
  1 11  1  0
  1 12  1  0
  3 13  1  0
  4 14  1  0
  5 15  1  0
  6 16  1  0
  7 17  1  0
  8 18  1  0
  9 19  1  0
M  END
