
     RDKit          3D

 21 22  0  0  0  0  0  0  0  0999 V2000
   -1.1621   -0.9791    1.0549 C   0  0  0  0  0  0  0  0  0  0  0  0
   -0.5948    0.0093    0.0877 C   0  0  0  0  0  0  0  0  0  0  0  0
   -1.2958    1.3266    0.1681 C   0  0  0  0  0  0  0  0  0  0  0  0
   -0.2564   -0.4991   -1.2730 C   0  0  0  0  0  0  0  0  0  0  0  0
    0.8608   -1.2801   -0.6198 C   0  0  0  0  0  0  0  0  0  0  0  0
    0.9061    0.0430    0.0679 C   0  0  0  0  0  0  0  0  0  0  0  0
    1.7190    0.4849    1.0441 C   0  0  0  0  0  0  0  0  0  0  0  0
    2.8591    0.9251    0.8425 O   0  0  0  0  0  0  0  0  0  0  0  0
    0.7689    0.6055   -1.3299 C   0  0  0  0  0  0  0  0  0  0  0  0
   -0.4043   -1.5324    1.6329 H   0  0  0  0  0  0  0  0  0  0  0  0
   -1.7950   -0.4520    1.8286 H   0  0  0  0  0  0  0  0  0  0  0  0
   -1.8709   -1.6475    0.5220 H   0  0  0  0  0  0  0  0  0  0  0  0
   -2.3038    1.1836    0.6590 H   0  0  0  0  0  0  0  0  0  0  0  0
   -0.7776    2.0760    0.7985 H   0  0  0  0  0  0  0  0  0  0  0  0
   -1.5499    1.7425   -0.8439 H   0  0  0  0  0  0  0  0  0  0  0  0
   -0.8583   -0.8071   -2.0061 H   0  0  0  0  0  0  0  0  0  0  0  0
    0.5753   -2.1556   -0.0544 H   0  0  0  0  0  0  0  0  0  0  0  0
    1.7183   -1.4586   -1.3001 H   0  0  0  0  0  0  0  0  0  0  0  0
    1.4533    0.4998    2.1196 H   0  0  0  0  0  0  0  0  0  0  0  0
    1.6024    0.2928   -1.9866 H   0  0  0  0  0  0  0  0  0  0  0  0
    0.4057    1.6225   -1.4120 H   0  0  0  0  0  0  0  0  0  0  0  0
  1  2  1  0
  2  3  1  0
  2  4  1  0
  4  5  1  0
  5  6  1  0
  6  7  1  0
  7  8  2  0
  6  9  1  0
  6  2  1  0
  9  4  1  0
  1 10  1  0
  1 11  1  0
  1 12  1  0
  3 13  1  0
  3 14  1  0
  3 15  1  0
  4 16  1  0
  5 17  1  0
  5 18  1  0
  7 19  1  0
  9 20  1  0
  9 21  1  0
M  END
