
     RDKit          3D

 19 20  0  0  0  0  0  0  0  0999 V2000
   -1.5733   -0.8624    1.3794 C   0  0  0  0  0  0  0  0  0  0  0  0
   -0.8956   -0.3391    0.1270 C   0  0  0  0  0  0  0  0  0  0  0  0
   -1.9456   -0.0167   -0.9070 C   0  0  0  0  0  0  0  0  0  0  0  0
   -1.8763   -0.6542   -1.9553 O   0  0  0  0  0  0  0  0  0  0  0  0
    0.4105   -0.6997   -0.2182 C   0  0  0  0  0  0  0  0  0  0  0  0
    1.7410   -0.7474    0.3139 C   0  0  0  0  0  0  0  0  0  0  0  0
    2.2496    0.4989    0.1797 C   0  0  0  0  0  0  0  0  0  0  0  0
    1.1444    1.3215   -0.4528 C   0  0  0  0  0  0  0  0  0  0  0  0
    0.0447    0.7186    0.3117 C   0  0  0  0  0  0  0  0  0  0  0  0
   -2.2513   -1.7029    1.0655 H   0  0  0  0  0  0  0  0  0  0  0  0
   -0.8281   -1.2629    2.1104 H   0  0  0  0  0  0  0  0  0  0  0  0
   -2.1868   -0.0724    1.8217 H   0  0  0  0  0  0  0  0  0  0  0  0
   -2.7300    0.7403   -0.7673 H   0  0  0  0  0  0  0  0  0  0  0  0
    0.5397   -0.7687   -1.3679 H   0  0  0  0  0  0  0  0  0  0  0  0
    2.3235   -1.5497    0.7678 H   0  0  0  0  0  0  0  0  0  0  0  0
    3.2029    0.8975    0.4491 H   0  0  0  0  0  0  0  0  0  0  0  0
    1.3026    2.3923   -0.1282 H   0  0  0  0  0  0  0  0  0  0  0  0
    1.0708    1.1910   -1.5250 H   0  0  0  0  0  0  0  0  0  0  0  0
    0.2572    0.9160    1.3855 H   0  0  0  0  0  0  0  0  0  0  0  0
  1  2  1  0
  2  3  1  0
  3  4  2  0
  2  5  1  0
  5  6  1  0
  6  7  2  0
  7  8  1  0
  8  9  1  0
  9  2  1  0
  9  5  1  0
  1 10  1  0
  1 11  1  0
  1 12  1  0
  3 13  1  0
  5 14  1  0
  6 15  1  0
  7 16  1  0
  8 17  1  0
  8 18  1  0
  9 19  1  0
M  END
