
     RDKit          3D

 18 19  0  0  0  0  0  0  0  0999 V2000
    1.4430   -0.5309   -0.6867 C   0  0  0  0  0  0  0  0  0  0  0  0
    0.7316   -0.0533    0.5292 C   0  0  0  0  0  0  0  0  0  0  0  0
    1.5750    0.0803    1.6067 O   0  0  0  0  0  0  0  0  0  0  0  0
   -0.1851    1.1067    0.3975 C   0  0  0  0  0  0  0  0  0  0  0  0
   -1.1367    0.8069   -0.7434 C   0  0  0  0  0  0  0  0  0  0  0  0
   -1.4408   -0.6518   -0.3477 C   0  0  0  0  0  0  0  0  0  0  0  0
   -0.5659   -0.7016    0.8795 C   0  0  0  0  0  0  0  0  0  0  0  0
   -0.9004    0.5366    1.4812 O   0  0  0  0  0  0  0  0  0  0  0  0
    0.8057   -0.9974   -1.4531 H   0  0  0  0  0  0  0  0  0  0  0  0
    2.1568   -1.3377   -0.3562 H   0  0  0  0  0  0  0  0  0  0  0  0
    2.0841    0.2513   -1.1429 H   0  0  0  0  0  0  0  0  0  0  0  0
    2.2742    0.7623    1.3602 H   0  0  0  0  0  0  0  0  0  0  0  0
    0.1657    2.1069    0.5227 H   0  0  0  0  0  0  0  0  0  0  0  0
   -0.6846    0.8772   -1.7270 H   0  0  0  0  0  0  0  0  0  0  0  0
   -2.0596    1.4158   -0.6201 H   0  0  0  0  0  0  0  0  0  0  0  0
   -1.1742   -1.3563   -1.1282 H   0  0  0  0  0  0  0  0  0  0  0  0
   -2.4990   -0.7480   -0.0757 H   0  0  0  0  0  0  0  0  0  0  0  0
   -0.5896   -1.5669    1.5038 H   0  0  0  0  0  0  0  0  0  0  0  0
  1  2  1  0
  2  3  1  0
  2  4  1  0
  4  5  1  0
  5  6  1  0
  6  7  1  0
  7  8  1  0
  7  2  1  0
  8  4  1  0
  1  9  1  0
  1 10  1  0
  1 11  1  0
  3 12  1  0
  4 13  1  0
  5 14  1  0
  5 15  1  0
  6 16  1  0
  6 17  1  0
  7 18  1  0
M  END
