
     RDKit          3D

 17 18  0  0  0  0  0  0  0  0999 V2000
   -1.1872   -1.3281    0.2990 C   0  0  0  0  0  0  0  0  0  0  0  0
   -1.0527    0.1487   -0.0087 C   0  0  0  0  0  0  0  0  0  0  0  0
   -2.2642    0.8246   -0.0083 O   0  0  0  0  0  0  0  0  0  0  0  0
    0.1456    0.9124    0.3378 C   0  0  0  0  0  0  0  0  0  0  0  0
    1.4547    0.2610    0.6470 C   0  0  0  0  0  0  0  0  0  0  0  0
    1.8359   -0.5470   -0.5208 C   0  0  0  0  0  0  0  0  0  0  0  0
    2.8729   -1.2381   -0.6654 O   0  0  0  0  0  0  0  0  0  0  0  0
    0.8489   -0.4262   -1.4634 O   0  0  0  0  0  0  0  0  0  0  0  0
   -0.1023    0.5450   -1.0801 C   0  0  0  0  0  0  0  0  0  0  0  0
   -0.2158   -1.8369    0.2238 H   0  0  0  0  0  0  0  0  0  0  0  0
   -1.8895   -1.7385   -0.4838 H   0  0  0  0  0  0  0  0  0  0  0  0
   -1.6864   -1.4490    1.2773 H   0  0  0  0  0  0  0  0  0  0  0  0
   -2.1198    1.7791    0.1693 H   0  0  0  0  0  0  0  0  0  0  0  0
    0.0092    1.9441    0.7011 H   0  0  0  0  0  0  0  0  0  0  0  0
    2.2229    1.0727    0.7431 H   0  0  0  0  0  0  0  0  0  0  0  0
    1.4575   -0.3115    1.6006 H   0  0  0  0  0  0  0  0  0  0  0  0
   -0.3299    1.3879   -1.7685 H   0  0  0  0  0  0  0  0  0  0  0  0
  1  2  1  0
  2  3  1  0
  2  4  1  0
  4  5  1  0
  5  6  1  0
  6  7  2  0
  6  8  1  0
  8  9  1  0
  9  2  1  0
  9  4  1  0
  1 10  1  0
  1 11  1  0
  1 12  1  0
  3 13  1  0
  4 14  1  0
  5 15  1  0
  5 16  1  0
  9 17  1  0
M  END
