
     RDKit          3D

 21 22  0  0  0  0  0  0  0  0999 V2000
   -1.6496    0.0244    1.0671 C   0  0  0  0  0  0  0  0  0  0  0  0
   -1.1116   -0.1534   -0.3134 C   0  0  0  0  0  0  0  0  0  0  0  0
   -2.0964    0.1450   -1.2624 O   0  0  0  0  0  0  0  0  0  0  0  0
   -0.5093   -1.5303   -0.5367 C   0  0  0  0  0  0  0  0  0  0  0  0
    0.8257   -0.8546   -0.7351 C   0  0  0  0  0  0  0  0  0  0  0  0
    1.6702   -0.9771    0.3590 O   0  0  0  0  0  0  0  0  0  0  0  0
    2.2190    0.2969    0.4583 C   0  0  0  0  0  0  0  0  0  0  0  0
    0.9320    1.1351    0.5063 C   0  0  0  0  0  0  0  0  0  0  0  0
    0.1763    0.5074   -0.6468 C   0  0  0  0  0  0  0  0  0  0  0  0
   -1.0598   -0.4609    1.8532 H   0  0  0  0  0  0  0  0  0  0  0  0
   -2.6718   -0.4155    1.0902 H   0  0  0  0  0  0  0  0  0  0  0  0
   -1.7665    1.1200    1.2433 H   0  0  0  0  0  0  0  0  0  0  0  0
   -2.1892    1.1354   -1.3635 H   0  0  0  0  0  0  0  0  0  0  0  0
   -0.4998   -2.1486    0.3784 H   0  0  0  0  0  0  0  0  0  0  0  0
   -0.9132   -2.0161   -1.4411 H   0  0  0  0  0  0  0  0  0  0  0  0
    1.2892   -0.9863   -1.7134 H   0  0  0  0  0  0  0  0  0  0  0  0
    2.7313    0.4888   -0.5172 H   0  0  0  0  0  0  0  0  0  0  0  0
    2.8485    0.4517    1.3309 H   0  0  0  0  0  0  0  0  0  0  0  0
    0.4326    0.9571    1.4702 H   0  0  0  0  0  0  0  0  0  0  0  0
    1.1843    2.1853    0.3472 H   0  0  0  0  0  0  0  0  0  0  0  0
    0.1579    1.0957   -1.5746 H   0  0  0  0  0  0  0  0  0  0  0  0
  1  2  1  0
  2  3  1  0
  2  4  1  0
  4  5  1  0
  5  6  1  0
  6  7  1  0
  7  8  1  0
  8  9  1  0
  9  2  1  0
  9  5  1  0
  1 10  1  0
  1 11  1  0
  1 12  1  0
  3 13  1  0
  4 14  1  0
  4 15  1  0
  5 16  1  0
  7 17  1  0
  7 18  1  0
  8 19  1  0
  8 20  1  0
  9 21  1  0
M  END
