
     RDKit          3D

 19 20  0  0  0  0  0  0  0  0999 V2000
   -1.6174    0.5950    1.4001 C   0  0  0  0  0  0  0  0  0  0  0  0
   -1.0197   -0.0902    0.1900 C   0  0  0  0  0  0  0  0  0  0  0  0
    0.4755   -0.1776    0.1938 C   0  0  0  0  0  0  0  0  0  0  0  0
    1.0659   -0.6457   -1.0995 C   0  0  0  0  0  0  0  0  0  0  0  0
    2.3531   -0.0913   -1.0474 O   0  0  0  0  0  0  0  0  0  0  0  0
    2.4211    0.7109    0.0590 C   0  0  0  0  0  0  0  0  0  0  0  0
    1.0833    1.0670    0.3499 O   0  0  0  0  0  0  0  0  0  0  0  0
   -1.8411   -0.3154   -0.9494 C   0  0  0  0  0  0  0  0  0  0  0  0
   -1.6233   -1.4326    0.0224 O   0  0  0  0  0  0  0  0  0  0  0  0
   -1.3199   -0.0083    2.2886 H   0  0  0  0  0  0  0  0  0  0  0  0
   -1.2883    1.6337    1.4398 H   0  0  0  0  0  0  0  0  0  0  0  0
   -2.7309    0.5352    1.3122 H   0  0  0  0  0  0  0  0  0  0  0  0
    0.8337   -0.8822    0.9902 H   0  0  0  0  0  0  0  0  0  0  0  0
    1.2174   -1.7519   -1.1321 H   0  0  0  0  0  0  0  0  0  0  0  0
    0.5157   -0.3154   -1.9971 H   0  0  0  0  0  0  0  0  0  0  0  0
    2.8776    0.2003    0.9458 H   0  0  0  0  0  0  0  0  0  0  0  0
    3.0173    1.6209   -0.1103 H   0  0  0  0  0  0  0  0  0  0  0  0
   -2.9160   -0.0617   -0.9008 H   0  0  0  0  0  0  0  0  0  0  0  0
   -1.5041   -0.5910   -1.9551 H   0  0  0  0  0  0  0  0  0  0  0  0
  1  2  1  0
  2  3  1  0
  3  4  1  0
  4  5  1  0
  5  6  1  0
  6  7  1  0
  2  8  1  0
  8  9  1  0
  9  2  1  0
  7  3  1  0
  1 10  1  0
  1 11  1  0
  1 12  1  0
  3 13  1  0
  4 14  1  0
  4 15  1  0
  6 16  1  0
  6 17  1  0
  8 18  1  0
  8 19  1  0
M  END
