
     RDKit          3D

 19 19  0  0  0  0  0  0  0  0999 V2000
   -1.2143   -1.0275   -0.7544 C   0  0  0  0  0  0  0  0  0  0  0  0
   -0.3341   -0.1106    0.0290 C   0  0  0  0  0  0  0  0  0  0  0  0
   -1.2163    0.6962    0.9652 C   0  0  0  0  0  0  0  0  0  0  0  0
    0.4601    0.8463   -0.7880 C   0  0  0  0  0  0  0  0  0  0  0  0
    1.8612    0.6768   -0.2020 C   0  0  0  0  0  0  0  0  0  0  0  0
    1.7303   -0.0846    0.9317 O   0  0  0  0  0  0  0  0  0  0  0  0
    0.6777   -0.9430    0.7623 C   0  0  0  0  0  0  0  0  0  0  0  0
   -0.6624   -1.4645   -1.6019 H   0  0  0  0  0  0  0  0  0  0  0  0
   -1.4494   -1.8999   -0.0753 H   0  0  0  0  0  0  0  0  0  0  0  0
   -2.1919   -0.5974   -1.0197 H   0  0  0  0  0  0  0  0  0  0  0  0
   -1.7471    1.4361    0.3191 H   0  0  0  0  0  0  0  0  0  0  0  0
   -1.8991   -0.0115    1.4496 H   0  0  0  0  0  0  0  0  0  0  0  0
   -0.5769    1.2701    1.6461 H   0  0  0  0  0  0  0  0  0  0  0  0
    0.4470    0.6793   -1.8632 H   0  0  0  0  0  0  0  0  0  0  0  0
    0.1745    1.9235   -0.6143 H   0  0  0  0  0  0  0  0  0  0  0  0
    2.4642    0.1006   -0.9359 H   0  0  0  0  0  0  0  0  0  0  0  0
    2.3386    1.6514   -0.0346 H   0  0  0  0  0  0  0  0  0  0  0  0
    0.2277   -1.3173    1.6749 H   0  0  0  0  0  0  0  0  0  0  0  0
    0.9103   -1.8241    0.1114 H   0  0  0  0  0  0  0  0  0  0  0  0
  1  2  1  0
  2  3  1  0
  2  4  1  0
  4  5  1  0
  5  6  1  0
  6  7  1  0
  7  2  1  0
  1  8  1  0
  1  9  1  0
  1 10  1  0
  3 11  1  0
  3 12  1  0
  3 13  1  0
  4 14  1  0
  4 15  1  0
  5 16  1  0
  5 17  1  0
  7 18  1  0
  7 19  1  0
M  END
