
     RDKit          3D

 19 20  0  0  0  0  0  0  0  0999 V2000
    1.7332   -1.1132    0.3690 C   0  0  0  0  0  0  0  0  0  0  0  0
    0.8555    0.0599   -0.1011 C   0  0  0  0  0  0  0  0  0  0  0  0
    1.6924    1.1299   -0.7223 C   0  0  0  0  0  0  0  0  0  0  0  0
    1.1687    2.1511   -1.1599 O   0  0  0  0  0  0  0  0  0  0  0  0
   -0.3719   -0.3195   -0.6877 C   0  0  0  0  0  0  0  0  0  0  0  0
   -1.5984   -1.0056   -0.2204 C   0  0  0  0  0  0  0  0  0  0  0  0
   -2.4052    0.0825    0.1825 O   0  0  0  0  0  0  0  0  0  0  0  0
   -1.5316    1.1737    0.4141 C   0  0  0  0  0  0  0  0  0  0  0  0
   -0.2516    0.4982    0.6662 C   0  0  0  0  0  0  0  0  0  0  0  0
    2.2767   -1.4540   -0.5138 H   0  0  0  0  0  0  0  0  0  0  0  0
    1.1009   -1.9234    0.7900 H   0  0  0  0  0  0  0  0  0  0  0  0
    2.4028   -0.7845    1.1982 H   0  0  0  0  0  0  0  0  0  0  0  0
    2.7637    1.0683   -0.8180 H   0  0  0  0  0  0  0  0  0  0  0  0
   -0.6517    0.3027   -1.5950 H   0  0  0  0  0  0  0  0  0  0  0  0
   -2.0867   -1.6439   -0.9537 H   0  0  0  0  0  0  0  0  0  0  0  0
   -1.3252   -1.6391    0.6717 H   0  0  0  0  0  0  0  0  0  0  0  0
   -1.8853    1.7041    1.3253 H   0  0  0  0  0  0  0  0  0  0  0  0
   -1.5075    1.8340   -0.4565 H   0  0  0  0  0  0  0  0  0  0  0  0
   -0.3790   -0.1211    1.6114 H   0  0  0  0  0  0  0  0  0  0  0  0
  1  2  1  0
  2  3  1  0
  3  4  2  0
  2  5  1  0
  5  6  1  0
  6  7  1  0
  7  8  1  0
  8  9  1  0
  9  2  1  0
  9  5  1  0
  1 10  1  0
  1 11  1  0
  1 12  1  0
  3 13  1  0
  5 14  1  0
  6 15  1  0
  6 16  1  0
  8 17  1  0
  8 18  1  0
  9 19  1  0
M  END
