
     RDKit          3D

 17 18  0  0  0  0  0  0  0  0999 V2000
    1.9965   -0.5120   -0.5437 C   0  0  0  0  0  0  0  0  0  0  0  0
    0.7894    0.2545   -0.1266 C   0  0  0  0  0  0  0  0  0  0  0  0
    1.0169    1.5935    0.2205 O   0  0  0  0  0  0  0  0  0  0  0  0
   -0.0691   -0.3897    0.9397 C   0  0  0  0  0  0  0  0  0  0  0  0
   -1.2330   -0.1170    0.0730 C   0  0  0  0  0  0  0  0  0  0  0  0
   -2.4668    0.3978    0.3401 C   0  0  0  0  0  0  0  0  0  0  0  0
   -2.2748   -1.0051    0.0754 O   0  0  0  0  0  0  0  0  0  0  0  0
   -0.3457    0.0565   -1.0766 C   0  0  0  0  0  0  0  0  0  0  0  0
   -0.5070    0.0391   -2.2886 O   0  0  0  0  0  0  0  0  0  0  0  0
    2.8949    0.0541   -0.1734 H   0  0  0  0  0  0  0  0  0  0  0  0
    2.0294   -1.5542   -0.2238 H   0  0  0  0  0  0  0  0  0  0  0  0
    2.0019   -0.5318   -1.6710 H   0  0  0  0  0  0  0  0  0  0  0  0
    1.9710    1.6213    0.5365 H   0  0  0  0  0  0  0  0  0  0  0  0
    0.1488   -1.4891    1.0744 H   0  0  0  0  0  0  0  0  0  0  0  0
   -0.0055    0.0946    1.9171 H   0  0  0  0  0  0  0  0  0  0  0  0
   -2.8303    0.6447    1.3677 H   0  0  0  0  0  0  0  0  0  0  0  0
   -3.1167    0.8427   -0.4407 H   0  0  0  0  0  0  0  0  0  0  0  0
  1  2  1  0
  2  3  1  0
  2  4  1  0
  4  5  1  0
  5  6  1  0
  6  7  1  0
  5  8  1  0
  8  9  2  0
  8  2  1  0
  7  5  1  0
  1 10  1  0
  1 11  1  0
  1 12  1  0
  3 13  1  0
  4 14  1  0
  4 15  1  0
  6 16  1  0
  6 17  1  0
M  END
