
     RDKit          3D

 19 19  0  0  0  0  0  0  0  0999 V2000
   -1.2710    0.9327    1.2186 C   0  0  0  0  0  0  0  0  0  0  0  0
   -0.6421    0.2583    0.0112 C   0  0  0  0  0  0  0  0  0  0  0  0
   -1.6392   -0.5977   -0.6910 C   0  0  0  0  0  0  0  0  0  0  0  0
    0.5393   -0.5695    0.4942 C   0  0  0  0  0  0  0  0  0  0  0  0
    1.5353   -0.3461   -0.6481 C   0  0  0  0  0  0  0  0  0  0  0  0
    2.8258   -0.6147   -0.2571 O   0  0  0  0  0  0  0  0  0  0  0  0
    1.2935    1.0961   -0.9218 C   0  0  0  0  0  0  0  0  0  0  0  0
    2.1959    1.9321   -1.1869 O   0  0  0  0  0  0  0  0  0  0  0  0
   -0.0808    1.2664   -0.8166 O   0  0  0  0  0  0  0  0  0  0  0  0
   -2.2317    1.3943    0.9506 H   0  0  0  0  0  0  0  0  0  0  0  0
   -0.5288    1.6976    1.5625 H   0  0  0  0  0  0  0  0  0  0  0  0
   -1.4695    0.1660    1.9982 H   0  0  0  0  0  0  0  0  0  0  0  0
   -1.8220   -0.3459   -1.7383 H   0  0  0  0  0  0  0  0  0  0  0  0
   -1.3580   -1.6896   -0.6497 H   0  0  0  0  0  0  0  0  0  0  0  0
   -2.6414   -0.5608   -0.1779 H   0  0  0  0  0  0  0  0  0  0  0  0
    0.9476   -0.0413    1.3744 H   0  0  0  0  0  0  0  0  0  0  0  0
    0.3057   -1.6156    0.6498 H   0  0  0  0  0  0  0  0  0  0  0  0
    1.2103   -0.9744   -1.5166 H   0  0  0  0  0  0  0  0  0  0  0  0
    2.8311   -1.3879    0.3444 H   0  0  0  0  0  0  0  0  0  0  0  0
  1  2  1  0
  2  3  1  0
  2  4  1  0
  4  5  1  0
  5  6  1  0
  5  7  1  0
  7  8  2  0
  7  9  1  0
  9  2  1  0
  1 10  1  0
  1 11  1  0
  1 12  1  0
  3 13  1  0
  3 14  1  0
  3 15  1  0
  4 16  1  0
  4 17  1  0
  5 18  1  0
  6 19  1  0
M  END
