
     RDKit          3D

 20 21  0  0  0  0  0  0  0  0999 V2000
    1.2862    1.2199   -0.6508 C   0  0  0  0  0  0  0  0  0  0  0  0
    0.5249    0.0530   -0.1391 C   0  0  0  0  0  0  0  0  0  0  0  0
    1.2476   -1.2401   -0.4789 C   0  0  0  0  0  0  0  0  0  0  0  0
   -0.0255    0.1314    1.2468 C   0  0  0  0  0  0  0  0  0  0  0  0
   -1.0517    1.0929    0.7191 C   0  0  0  0  0  0  0  0  0  0  0  0
   -0.9474    0.0337   -0.3518 C   0  0  0  0  0  0  0  0  0  0  0  0
   -1.6064   -0.0436   -1.4157 O   0  0  0  0  0  0  0  0  0  0  0  0
   -1.0114   -0.9352    0.8204 C   0  0  0  0  0  0  0  0  0  0  0  0
    2.3734    0.9522   -0.7285 H   0  0  0  0  0  0  0  0  0  0  0  0
    0.9305    1.4217   -1.7040 H   0  0  0  0  0  0  0  0  0  0  0  0
    1.2479    2.1224   -0.0200 H   0  0  0  0  0  0  0  0  0  0  0  0
    0.5995   -1.9461   -1.0263 H   0  0  0  0  0  0  0  0  0  0  0  0
    1.6672   -1.6716    0.4510 H   0  0  0  0  0  0  0  0  0  0  0  0
    2.1177   -1.0574   -1.1629 H   0  0  0  0  0  0  0  0  0  0  0  0
    0.4645    0.1733    2.1171 H   0  0  0  0  0  0  0  0  0  0  0  0
   -0.7326    2.0936    0.4665 H   0  0  0  0  0  0  0  0  0  0  0  0
   -2.0402    1.0108    1.2190 H   0  0  0  0  0  0  0  0  0  0  0  0
   -2.4594   -0.5422   -1.3385 H   0  0  0  0  0  0  0  0  0  0  0  0
   -1.9718   -0.9408    1.3343 H   0  0  0  0  0  0  0  0  0  0  0  0
   -0.6131   -1.9280    0.6425 H   0  0  0  0  0  0  0  0  0  0  0  0
  1  2  1  0
  2  3  1  0
  2  4  1  0
  4  5  1  0
  5  6  1  0
  6  7  1  0
  6  8  1  0
  6  2  1  0
  8  4  1  0
  1  9  1  0
  1 10  1  0
  1 11  1  0
  3 12  1  0
  3 13  1  0
  3 14  1  0
  4 15  1  0
  5 16  1  0
  5 17  1  0
  7 18  1  0
  8 19  1  0
  8 20  1  0
M  END
