
     RDKit          3D

 21 21  0  0  0  0  0  0  0  0999 V2000
   -2.0518   -0.0737   -0.6383 C   0  0  0  0  0  0  0  0  0  0  0  0
   -0.8254   -0.1726    0.2522 C   0  0  0  0  0  0  0  0  0  0  0  0
   -1.2774   -0.5833    1.5210 O   0  0  0  0  0  0  0  0  0  0  0  0
    0.1091   -1.2241   -0.2795 C   0  0  0  0  0  0  0  0  0  0  0  0
    1.4860   -0.6464   -0.2977 C   0  0  0  0  0  0  0  0  0  0  0  0
    2.3959   -1.3257    0.4909 O   0  0  0  0  0  0  0  0  0  0  0  0
    1.3961    0.7704    0.2176 C   0  0  0  0  0  0  0  0  0  0  0  0
   -0.0596    1.1159    0.3224 C   0  0  0  0  0  0  0  0  0  0  0  0
   -0.4439    1.9563   -0.7254 O   0  0  0  0  0  0  0  0  0  0  0  0
   -2.1071   -0.9591   -1.3202 H   0  0  0  0  0  0  0  0  0  0  0  0
   -2.0784    0.8640   -1.2220 H   0  0  0  0  0  0  0  0  0  0  0  0
   -2.9941   -0.0769   -0.0309 H   0  0  0  0  0  0  0  0  0  0  0  0
   -1.2771    0.1406    2.1670 H   0  0  0  0  0  0  0  0  0  0  0  0
    0.0143   -2.1598    0.3012 H   0  0  0  0  0  0  0  0  0  0  0  0
   -0.1907   -1.4636   -1.3224 H   0  0  0  0  0  0  0  0  0  0  0  0
    1.9065   -0.6348   -1.3365 H   0  0  0  0  0  0  0  0  0  0  0  0
    2.1111   -2.2132    0.7771 H   0  0  0  0  0  0  0  0  0  0  0  0
    1.9483    0.9021    1.1772 H   0  0  0  0  0  0  0  0  0  0  0  0
    1.8666    1.4734   -0.4982 H   0  0  0  0  0  0  0  0  0  0  0  0
   -0.2132    1.6783    1.2600 H   0  0  0  0  0  0  0  0  0  0  0  0
    0.2849    2.6321   -0.8156 H   0  0  0  0  0  0  0  0  0  0  0  0
  1  2  1  0
  2  3  1  0
  2  4  1  0
  4  5  1  0
  5  6  1  0
  5  7  1  0
  7  8  1  0
  8  9  1  0
  8  2  1  0
  1 10  1  0
  1 11  1  0
  1 12  1  0
  3 13  1  0
  4 14  1  0
  4 15  1  0
  5 16  1  0
  6 17  1  0
  7 18  1  0
  7 19  1  0
  8 20  1  0
  9 21  1  0
M  END
