
     RDKit          3D

 23 24  0  0  0  0  0  0  0  0999 V2000
    1.8674   -0.1680   -0.7280 C   0  0  0  0  0  0  0  0  0  0  0  0
    0.6345   -0.0080    0.1657 C   0  0  0  0  0  0  0  0  0  0  0  0
    1.0530   -0.2488    1.5419 C   0  0  0  0  0  0  0  0  0  0  0  0
    0.1167    1.4214   -0.0883 C   0  0  0  0  0  0  0  0  0  0  0  0
   -1.3958    1.2348   -0.3441 C   0  0  0  0  0  0  0  0  0  0  0  0
   -1.5993   -0.0229    0.4199 C   0  0  0  0  0  0  0  0  0  0  0  0
   -1.6347   -1.3852    0.0919 C   0  0  0  0  0  0  0  0  0  0  0  0
   -0.4714   -0.7780   -0.4018 C   0  0  0  0  0  0  0  0  0  0  0  0
   -0.5040   -0.5289   -1.8079 O   0  0  0  0  0  0  0  0  0  0  0  0
    2.6721    0.5283   -0.4037 H   0  0  0  0  0  0  0  0  0  0  0  0
    1.5682   -0.0211   -1.7839 H   0  0  0  0  0  0  0  0  0  0  0  0
    2.2288   -1.1980   -0.5693 H   0  0  0  0  0  0  0  0  0  0  0  0
    1.9642   -0.8952    1.5688 H   0  0  0  0  0  0  0  0  0  0  0  0
    1.3905    0.7301    1.9949 H   0  0  0  0  0  0  0  0  0  0  0  0
    0.3338   -0.7157    2.2246 H   0  0  0  0  0  0  0  0  0  0  0  0
    0.2816    2.0502    0.8039 H   0  0  0  0  0  0  0  0  0  0  0  0
    0.5825    1.8633   -0.9872 H   0  0  0  0  0  0  0  0  0  0  0  0
   -1.8823    2.1034    0.1460 H   0  0  0  0  0  0  0  0  0  0  0  0
   -1.6101    1.1628   -1.4178 H   0  0  0  0  0  0  0  0  0  0  0  0
   -1.3304    0.2058    1.5004 H   0  0  0  0  0  0  0  0  0  0  0  0
   -1.5211   -2.1594    0.9034 H   0  0  0  0  0  0  0  0  0  0  0  0
   -2.4415   -1.7460   -0.6059 H   0  0  0  0  0  0  0  0  0  0  0  0
   -0.3028   -1.4247   -2.2236 H   0  0  0  0  0  0  0  0  0  0  0  0
  1  2  1  0
  2  3  1  0
  2  4  1  0
  4  5  1  0
  5  6  1  0
  6  7  1  0
  7  8  1  0
  8  9  1  0
  8  2  1  0
  8  6  1  0
  1 10  1  0
  1 11  1  0
  1 12  1  0
  3 13  1  0
  3 14  1  0
  3 15  1  0
  4 16  1  0
  4 17  1  0
  5 18  1  0
  5 19  1  0
  6 20  1  0
  7 21  1  0
  7 22  1  0
  9 23  1  0
M  END
