
     RDKit          3D

 25 25  0  0  0  0  0  0  0  0999 V2000
   -2.2168    0.2756   -0.9850 C   0  0  0  0  0  0  0  0  0  0  0  0
   -0.9877    0.2647   -0.0874 C   0  0  0  0  0  0  0  0  0  0  0  0
   -1.2591    1.2484    1.0286 C   0  0  0  0  0  0  0  0  0  0  0  0
   -0.8360   -1.1319    0.4429 C   0  0  0  0  0  0  0  0  0  0  0  0
    0.5792   -1.5470    0.2479 C   0  0  0  0  0  0  0  0  0  0  0  0
    1.2537   -0.5015   -0.6041 C   0  0  0  0  0  0  0  0  0  0  0  0
    2.4904   -0.0455    0.1379 C   0  0  0  0  0  0  0  0  0  0  0  0
    2.2037    0.5011    1.3749 O   0  0  0  0  0  0  0  0  0  0  0  0
    0.2667    0.6081   -0.8144 C   0  0  0  0  0  0  0  0  0  0  0  0
   -1.8802    0.0518   -2.0193 H   0  0  0  0  0  0  0  0  0  0  0  0
   -2.7737    1.2260   -0.9009 H   0  0  0  0  0  0  0  0  0  0  0  0
   -2.9038   -0.5765   -0.7055 H   0  0  0  0  0  0  0  0  0  0  0  0
   -1.7992    2.1185    0.6312 H   0  0  0  0  0  0  0  0  0  0  0  0
   -0.3684    1.4940    1.6162 H   0  0  0  0  0  0  0  0  0  0  0  0
   -1.9769    0.7507    1.7439 H   0  0  0  0  0  0  0  0  0  0  0  0
   -1.4975   -1.8664   -0.0699 H   0  0  0  0  0  0  0  0  0  0  0  0
   -1.1505   -1.1302    1.5132 H   0  0  0  0  0  0  0  0  0  0  0  0
    1.0543   -1.6433    1.2601 H   0  0  0  0  0  0  0  0  0  0  0  0
    0.7059   -2.5378   -0.2339 H   0  0  0  0  0  0  0  0  0  0  0  0
    1.6132   -0.9370   -1.5642 H   0  0  0  0  0  0  0  0  0  0  0  0
    3.1147   -0.9501    0.3237 H   0  0  0  0  0  0  0  0  0  0  0  0
    3.1111    0.6467   -0.4605 H   0  0  0  0  0  0  0  0  0  0  0  0
    2.5641    1.4239    1.4568 H   0  0  0  0  0  0  0  0  0  0  0  0
    0.0228    0.6488   -1.9057 H   0  0  0  0  0  0  0  0  0  0  0  0
    0.6700    1.6087   -0.5592 H   0  0  0  0  0  0  0  0  0  0  0  0
  1  2  1  0
  2  3  1  0
  2  4  1  0
  4  5  1  0
  5  6  1  0
  6  7  1  0
  7  8  1  0
  6  9  1  0
  9  2  1  0
  1 10  1  0
  1 11  1  0
  1 12  1  0
  3 13  1  0
  3 14  1  0
  3 15  1  0
  4 16  1  0
  4 17  1  0
  5 18  1  0
  5 19  1  0
  6 20  1  0
  7 21  1  0
  7 22  1  0
  8 23  1  0
  9 24  1  0
  9 25  1  0
M  END
