
     RDKit          3D

 18 18  0  0  0  0  0  0  0  0999 V2000
   -1.6856   -1.0280   -0.2663 C   0  0  0  0  0  0  0  0  0  0  0  0
   -0.5227   -0.1472    0.0662 C   0  0  0  0  0  0  0  0  0  0  0  0
   -0.8974    1.3295    0.0717 C   0  0  0  0  0  0  0  0  0  0  0  0
    0.6389   -0.4153   -0.8503 C   0  0  0  0  0  0  0  0  0  0  0  0
    1.8503   -0.0510   -0.0162 C   0  0  0  0  0  0  0  0  0  0  0  0
    1.2888    0.1867    1.3391 C   0  0  0  0  0  0  0  0  0  0  0  0
    1.8661    0.8211    2.2903 O   0  0  0  0  0  0  0  0  0  0  0  0
    0.0382   -0.4159    1.3378 O   0  0  0  0  0  0  0  0  0  0  0  0
   -1.5342   -2.0344    0.1989 H   0  0  0  0  0  0  0  0  0  0  0  0
   -2.6471   -0.6533    0.1192 H   0  0  0  0  0  0  0  0  0  0  0  0
   -1.7193   -1.1983   -1.3772 H   0  0  0  0  0  0  0  0  0  0  0  0
   -1.1266    1.7127   -0.9264 H   0  0  0  0  0  0  0  0  0  0  0  0
   -0.0067    1.8587    0.5012 H   0  0  0  0  0  0  0  0  0  0  0  0
   -1.7059    1.4564    0.8092 H   0  0  0  0  0  0  0  0  0  0  0  0
    0.6313    0.2092   -1.7636 H   0  0  0  0  0  0  0  0  0  0  0  0
    0.6235   -1.5026   -1.1108 H   0  0  0  0  0  0  0  0  0  0  0  0
    2.5147   -0.9489   -0.0118 H   0  0  0  0  0  0  0  0  0  0  0  0
    2.3937    0.8205   -0.4110 H   0  0  0  0  0  0  0  0  0  0  0  0
  1  2  1  0
  2  3  1  0
  2  4  1  0
  4  5  1  0
  5  6  1  0
  6  7  2  0
  6  8  1  0
  8  2  1  0
  1  9  1  0
  1 10  1  0
  1 11  1  0
  3 12  1  0
  3 13  1  0
  3 14  1  0
  4 15  1  0
  4 16  1  0
  5 17  1  0
  5 18  1  0
M  END
