
     RDKit          3D

 18 19  0  0  0  0  0  0  0  0999 V2000
    1.6961   -0.7670   -0.5192 C   0  0  0  0  0  0  0  0  0  0  0  0
    0.8339    0.1867    0.3097 C   0  0  0  0  0  0  0  0  0  0  0  0
    1.3319    0.4879    1.5770 O   0  0  0  0  0  0  0  0  0  0  0  0
    0.2172    1.2947   -0.5188 C   0  0  0  0  0  0  0  0  0  0  0  0
   -0.5739    0.2382    0.0279 C   0  0  0  0  0  0  0  0  0  0  0  0
   -1.3998   -0.7601   -0.6522 C   0  0  0  0  0  0  0  0  0  0  0  0
   -2.0816   -0.9720    0.5710 O   0  0  0  0  0  0  0  0  0  0  0  0
   -1.6901    0.3218    0.9745 C   0  0  0  0  0  0  0  0  0  0  0  0
    2.4368   -1.2901    0.0964 H   0  0  0  0  0  0  0  0  0  0  0  0
    1.1075   -1.4462   -1.1315 H   0  0  0  0  0  0  0  0  0  0  0  0
    2.2565   -0.0995   -1.2291 H   0  0  0  0  0  0  0  0  0  0  0  0
    2.0484   -0.1639    1.8039 H   0  0  0  0  0  0  0  0  0  0  0  0
    0.5170    1.3997   -1.5887 H   0  0  0  0  0  0  0  0  0  0  0  0
    0.2686    2.2957    0.0010 H   0  0  0  0  0  0  0  0  0  0  0  0
   -0.9031   -1.7178   -0.9177 H   0  0  0  0  0  0  0  0  0  0  0  0
   -2.0888   -0.4552   -1.4491 H   0  0  0  0  0  0  0  0  0  0  0  0
   -2.4886    1.0257    0.5950 H   0  0  0  0  0  0  0  0  0  0  0  0
   -1.4879    0.4214    2.0500 H   0  0  0  0  0  0  0  0  0  0  0  0
  1  2  1  0
  2  3  1  0
  2  4  1  0
  4  5  1  0
  5  6  1  0
  6  7  1  0
  7  8  1  0
  5  2  1  0
  8  5  1  0
  1  9  1  0
  1 10  1  0
  1 11  1  0
  3 12  1  0
  4 13  1  0
  4 14  1  0
  6 15  1  0
  6 16  1  0
  8 17  1  0
  8 18  1  0
M  END
