
     RDKit          3D

 23 24  0  0  0  0  0  0  0  0999 V2000
   -1.4530    0.1225    1.2997 C   0  0  0  0  0  0  0  0  0  0  0  0
   -0.9027    0.1540   -0.1372 C   0  0  0  0  0  0  0  0  0  0  0  0
   -2.0066   -0.1508   -1.1455 C   0  0  0  0  0  0  0  0  0  0  0  0
    0.1227    0.9437   -0.4526 C   0  0  0  0  0  0  0  0  0  0  0  0
    1.3012    1.4728    0.3519 C   0  0  0  0  0  0  0  0  0  0  0  0
    2.3630    0.5296   -0.2288 C   0  0  0  0  0  0  0  0  0  0  0  0
    1.5449   -0.2828   -1.0507 O   0  0  0  0  0  0  0  0  0  0  0  0
    0.3730   -0.4726   -0.3633 C   0  0  0  0  0  0  0  0  0  0  0  0
    0.3193   -1.7523    0.1782 C   0  0  0  0  0  0  0  0  0  0  0  0
   -0.5913   -0.0207    1.9905 H   0  0  0  0  0  0  0  0  0  0  0  0
   -1.8805    1.1450    1.4862 H   0  0  0  0  0  0  0  0  0  0  0  0
   -2.1983   -0.6623    1.4348 H   0  0  0  0  0  0  0  0  0  0  0  0
   -1.8878   -1.1985   -1.4768 H   0  0  0  0  0  0  0  0  0  0  0  0
   -3.0072   -0.0193   -0.7385 H   0  0  0  0  0  0  0  0  0  0  0  0
   -1.8793    0.5568   -2.0119 H   0  0  0  0  0  0  0  0  0  0  0  0
    0.0957    1.4929   -1.4515 H   0  0  0  0  0  0  0  0  0  0  0  0
    1.1936    1.2481    1.4391 H   0  0  0  0  0  0  0  0  0  0  0  0
    1.5251    2.5215    0.1413 H   0  0  0  0  0  0  0  0  0  0  0  0
    2.8522   -0.0565    0.5646 H   0  0  0  0  0  0  0  0  0  0  0  0
    3.0709    1.1183   -0.8479 H   0  0  0  0  0  0  0  0  0  0  0  0
    1.3004   -2.0783    0.6480 H   0  0  0  0  0  0  0  0  0  0  0  0
   -0.4142   -2.0607    0.9814 H   0  0  0  0  0  0  0  0  0  0  0  0
    0.1591   -2.5504   -0.6111 H   0  0  0  0  0  0  0  0  0  0  0  0
  1  2  1  0
  2  3  1  0
  2  4  1  0
  4  5  1  0
  5  6  1  0
  6  7  1  0
  7  8  1  0
  8  9  1  0
  8  2  1  0
  8  4  1  0
  1 10  1  0
  1 11  1  0
  1 12  1  0
  3 13  1  0
  3 14  1  0
  3 15  1  0
  4 16  1  0
  5 17  1  0
  5 18  1  0
  6 19  1  0
  6 20  1  0
  9 21  1  0
  9 22  1  0
  9 23  1  0
M  END
