
     RDKit          3D

 23 23  0  0  0  0  0  0  0  0999 V2000
   -0.7523   -1.6874    1.0183 C   0  0  0  0  0  0  0  0  0  0  0  0
   -0.1397   -0.6801    0.0545 C   0  0  0  0  0  0  0  0  0  0  0  0
   -0.9981   -0.0792   -1.0099 C   0  0  0  0  0  0  0  0  0  0  0  0
   -2.1807    0.6823   -0.5014 C   0  0  0  0  0  0  0  0  0  0  0  0
   -1.7970    1.7442    0.3134 O   0  0  0  0  0  0  0  0  0  0  0  0
    1.2077   -1.1977   -0.5046 C   0  0  0  0  0  0  0  0  0  0  0  0
    1.0984   -0.0378    0.4916 C   0  0  0  0  0  0  0  0  0  0  0  0
    1.6180    1.2536   -0.0615 C   0  0  0  0  0  0  0  0  0  0  0  0
    2.8263    1.6180    0.5531 O   0  0  0  0  0  0  0  0  0  0  0  0
   -1.8546   -1.7675    0.8690 H   0  0  0  0  0  0  0  0  0  0  0  0
   -0.3549   -2.7115    0.8584 H   0  0  0  0  0  0  0  0  0  0  0  0
   -0.5274   -1.4289    2.0811 H   0  0  0  0  0  0  0  0  0  0  0  0
   -1.2928   -0.8782   -1.7174 H   0  0  0  0  0  0  0  0  0  0  0  0
   -0.3761    0.6314   -1.5994 H   0  0  0  0  0  0  0  0  0  0  0  0
   -2.8810    0.0654    0.0933 H   0  0  0  0  0  0  0  0  0  0  0  0
   -2.6921    1.1291   -1.3788 H   0  0  0  0  0  0  0  0  0  0  0  0
   -1.6624    2.5565   -0.2368 H   0  0  0  0  0  0  0  0  0  0  0  0
    1.4651   -0.9773   -1.5483 H   0  0  0  0  0  0  0  0  0  0  0  0
    1.6459   -2.1033   -0.0873 H   0  0  0  0  0  0  0  0  0  0  0  0
    1.4656   -0.2357    1.5388 H   0  0  0  0  0  0  0  0  0  0  0  0
    0.9187    2.0761    0.1500 H   0  0  0  0  0  0  0  0  0  0  0  0
    1.8635    1.1940   -1.1598 H   0  0  0  0  0  0  0  0  0  0  0  0
    3.4001    0.8341    0.7291 H   0  0  0  0  0  0  0  0  0  0  0  0
  1  2  1  0
  2  3  1  0
  3  4  1  0
  4  5  1  0
  2  6  1  0
  6  7  1  0
  7  8  1  0
  8  9  1  0
  7  2  1  0
  1 10  1  0
  1 11  1  0
  1 12  1  0
  3 13  1  0
  3 14  1  0
  4 15  1  0
  4 16  1  0
  5 17  1  0
  6 18  1  0
  6 19  1  0
  7 20  1  0
  8 21  1  0
  8 22  1  0
  9 23  1  0
M  END
