
     RDKit          3D

 23 24  0  0  0  0  0  0  0  0999 V2000
   -1.7058   -0.8034    0.6300 C   0  0  0  0  0  0  0  0  0  0  0  0
   -1.0510    0.2475   -0.2108 C   0  0  0  0  0  0  0  0  0  0  0  0
   -2.0894    0.9828   -1.0486 C   0  0  0  0  0  0  0  0  0  0  0  0
   -0.3272    1.2726    0.5849 C   0  0  0  0  0  0  0  0  0  0  0  0
    0.9814    1.1279    0.5315 C   0  0  0  0  0  0  0  0  0  0  0  0
    1.2650   -0.0419   -0.3296 C   0  0  0  0  0  0  0  0  0  0  0  0
    2.6238   -0.3173   -0.8290 C   0  0  0  0  0  0  0  0  0  0  0  0
    1.9983   -1.2181    0.2023 C   0  0  0  0  0  0  0  0  0  0  0  0
    0.0367   -0.3464   -1.1210 C   0  0  0  0  0  0  0  0  0  0  0  0
   -2.6929   -0.3789    0.9676 H   0  0  0  0  0  0  0  0  0  0  0  0
   -1.1330   -1.0629    1.5426 H   0  0  0  0  0  0  0  0  0  0  0  0
   -1.9497   -1.6776    0.0134 H   0  0  0  0  0  0  0  0  0  0  0  0
   -2.2399    2.0144   -0.6934 H   0  0  0  0  0  0  0  0  0  0  0  0
   -3.0471    0.4562   -0.9535 H   0  0  0  0  0  0  0  0  0  0  0  0
   -1.7663    1.0186   -2.0985 H   0  0  0  0  0  0  0  0  0  0  0  0
   -0.8341    2.0467    1.1417 H   0  0  0  0  0  0  0  0  0  0  0  0
    1.7581    1.7417    1.0213 H   0  0  0  0  0  0  0  0  0  0  0  0
    2.8368   -0.6749   -1.8400 H   0  0  0  0  0  0  0  0  0  0  0  0
    3.4281    0.3414   -0.3970 H   0  0  0  0  0  0  0  0  0  0  0  0
    2.3504   -1.1745    1.2535 H   0  0  0  0  0  0  0  0  0  0  0  0
    1.7079   -2.2160   -0.1530 H   0  0  0  0  0  0  0  0  0  0  0  0
    0.0052    0.1024   -2.1203 H   0  0  0  0  0  0  0  0  0  0  0  0
   -0.1553   -1.4401   -1.2291 H   0  0  0  0  0  0  0  0  0  0  0  0
  1  2  1  0
  2  3  1  0
  2  4  1  0
  4  5  2  0
  5  6  1  0
  6  7  1  0
  7  8  1  0
  6  9  1  0
  9  2  1  0
  8  6  1  0
  1 10  1  0
  1 11  1  0
  1 12  1  0
  3 13  1  0
  3 14  1  0
  3 15  1  0
  4 16  1  0
  5 17  1  0
  7 18  1  0
  7 19  1  0
  8 20  1  0
  8 21  1  0
  9 22  1  0
  9 23  1  0
M  END
