
     RDKit          3D

 20 20  0  0  0  0  0  0  0  0999 V2000
    1.8834    1.2127   -0.0031 C   0  0  0  0  0  0  0  0  0  0  0  0
    1.2958   -0.1355    0.1887 C   0  0  0  0  0  0  0  0  0  0  0  0
   -0.0647   -0.4983   -0.2786 C   0  0  0  0  0  0  0  0  0  0  0  0
   -1.1646    0.3359    0.3297 C   0  0  0  0  0  0  0  0  0  0  0  0
   -2.5295   -0.0904   -0.1937 C   0  0  0  0  0  0  0  0  0  0  0  0
   -3.5423    0.6810    0.3693 O   0  0  0  0  0  0  0  0  0  0  0  0
    2.2961   -1.2726    0.2040 C   0  0  0  0  0  0  0  0  0  0  0  0
    1.7019   -0.8088    1.3994 O   0  0  0  0  0  0  0  0  0  0  0  0
    2.1741    1.6445    0.9841 H   0  0  0  0  0  0  0  0  0  0  0  0
    1.2393    1.9226   -0.5573 H   0  0  0  0  0  0  0  0  0  0  0  0
    2.8299    1.1289   -0.5841 H   0  0  0  0  0  0  0  0  0  0  0  0
   -0.0899   -0.4138   -1.3833 H   0  0  0  0  0  0  0  0  0  0  0  0
   -0.3030   -1.5569   -0.0483 H   0  0  0  0  0  0  0  0  0  0  0  0
   -1.1984    0.2534    1.4168 H   0  0  0  0  0  0  0  0  0  0  0  0
   -1.0105    1.3865   -0.0228 H   0  0  0  0  0  0  0  0  0  0  0  0
   -2.6913   -1.1398    0.1070 H   0  0  0  0  0  0  0  0  0  0  0  0
   -2.5924    0.0504   -1.3006 H   0  0  0  0  0  0  0  0  0  0  0  0
   -3.6375    0.5758    1.3273 H   0  0  0  0  0  0  0  0  0  0  0  0
    2.0215   -2.2609   -0.1741 H   0  0  0  0  0  0  0  0  0  0  0  0
    3.3821   -1.0148    0.1661 H   0  0  0  0  0  0  0  0  0  0  0  0
  1  2  1  0
  2  3  1  0
  3  4  1  0
  4  5  1  0
  5  6  1  0
  2  7  1  0
  7  8  1  0
  8  2  1  0
  1  9  1  0
  1 10  1  0
  1 11  1  0
  3 12  1  0
  3 13  1  0
  4 14  1  0
  4 15  1  0
  5 16  1  0
  5 17  1  0
  6 18  1  0
  7 19  1  0
  7 20  1  0
M  END
