
     RDKit          3D

 20 21  0  0  0  0  0  0  0  0999 V2000
   -1.3377    1.2175    0.2516 C   0  0  0  0  0  0  0  0  0  0  0  0
   -0.5535   -0.0046   -0.1193 C   0  0  0  0  0  0  0  0  0  0  0  0
    0.8645    0.2851   -0.4445 C   0  0  0  0  0  0  0  0  0  0  0  0
    1.7455    0.9135    0.5964 C   0  0  0  0  0  0  0  0  0  0  0  0
    2.0070   -0.4741    0.0730 C   0  0  0  0  0  0  0  0  0  0  0  0
   -0.8304   -1.2489    0.6621 C   0  0  0  0  0  0  0  0  0  0  0  0
   -0.7937   -1.9616   -0.5401 O   0  0  0  0  0  0  0  0  0  0  0  0
   -1.2392   -0.8164   -1.2063 C   0  0  0  0  0  0  0  0  0  0  0  0
   -1.3431    1.3572    1.3518 H   0  0  0  0  0  0  0  0  0  0  0  0
   -2.3570    1.2339   -0.1925 H   0  0  0  0  0  0  0  0  0  0  0  0
   -0.8101    2.0994   -0.2176 H   0  0  0  0  0  0  0  0  0  0  0  0
    0.9943    0.7081   -1.4858 H   0  0  0  0  0  0  0  0  0  0  0  0
    1.4043    0.9376    1.6545 H   0  0  0  0  0  0  0  0  0  0  0  0
    2.3747    1.7557    0.2925 H   0  0  0  0  0  0  0  0  0  0  0  0
    1.9445   -1.3187    0.7642 H   0  0  0  0  0  0  0  0  0  0  0  0
    2.9370   -0.5346   -0.5652 H   0  0  0  0  0  0  0  0  0  0  0  0
    0.0034   -1.5296    1.3352 H   0  0  0  0  0  0  0  0  0  0  0  0
   -1.8379   -1.3173    1.1095 H   0  0  0  0  0  0  0  0  0  0  0  0
   -0.8283   -0.6499   -2.2008 H   0  0  0  0  0  0  0  0  0  0  0  0
   -2.3443   -0.6521   -1.1187 H   0  0  0  0  0  0  0  0  0  0  0  0
  1  2  1  0
  2  3  1  0
  3  4  1  0
  4  5  1  0
  2  6  1  0
  6  7  1  0
  7  8  1  0
  8  2  1  0
  5  3  1  0
  1  9  1  0
  1 10  1  0
  1 11  1  0
  3 12  1  0
  4 13  1  0
  4 14  1  0
  5 15  1  0
  5 16  1  0
  6 17  1  0
  6 18  1  0
  8 19  1  0
  8 20  1  0
M  END
