
     RDKit          3D

 21 21  0  0  0  0  0  0  0  0999 V2000
   -1.7294   -0.6527   -1.0079 C   0  0  0  0  0  0  0  0  0  0  0  0
   -0.6659   -0.0007   -0.1672 C   0  0  0  0  0  0  0  0  0  0  0  0
    0.7022   -0.1980   -0.6827 C   0  0  0  0  0  0  0  0  0  0  0  0
    0.9736   -1.5644   -0.7238 O   0  0  0  0  0  0  0  0  0  0  0  0
    1.7793    0.5261    0.0712 C   0  0  0  0  0  0  0  0  0  0  0  0
    3.0196    0.3450   -0.5378 O   0  0  0  0  0  0  0  0  0  0  0  0
   -0.8820   -0.2704    1.3077 C   0  0  0  0  0  0  0  0  0  0  0  0
   -1.9206    0.6839    1.2299 O   0  0  0  0  0  0  0  0  0  0  0  0
   -1.0905    1.3455    0.2974 C   0  0  0  0  0  0  0  0  0  0  0  0
   -1.2566   -1.2633   -1.8034 H   0  0  0  0  0  0  0  0  0  0  0  0
   -2.3376    0.1450   -1.5241 H   0  0  0  0  0  0  0  0  0  0  0  0
   -2.4603   -1.2314   -0.4121 H   0  0  0  0  0  0  0  0  0  0  0  0
    0.7392    0.1599   -1.7330 H   0  0  0  0  0  0  0  0  0  0  0  0
    1.7170   -1.8141   -0.1408 H   0  0  0  0  0  0  0  0  0  0  0  0
    1.8792    0.0955    1.1072 H   0  0  0  0  0  0  0  0  0  0  0  0
    1.6077    1.5926    0.1924 H   0  0  0  0  0  0  0  0  0  0  0  0
    3.2425   -0.5858   -0.7187 H   0  0  0  0  0  0  0  0  0  0  0  0
   -1.2260   -1.2950    1.5329 H   0  0  0  0  0  0  0  0  0  0  0  0
   -0.1029    0.1388    1.9721 H   0  0  0  0  0  0  0  0  0  0  0  0
   -1.6276    1.8937   -0.4873 H   0  0  0  0  0  0  0  0  0  0  0  0
   -0.3610    1.9497    0.8620 H   0  0  0  0  0  0  0  0  0  0  0  0
  1  2  1  0
  2  3  1  0
  3  4  1  0
  3  5  1  0
  5  6  1  0
  2  7  1  0
  7  8  1  0
  8  9  1  0
  9  2  1  0
  1 10  1  0
  1 11  1  0
  1 12  1  0
  3 13  1  0
  4 14  1  0
  5 15  1  0
  5 16  1  0
  6 17  1  0
  7 18  1  0
  7 19  1  0
  9 20  1  0
  9 21  1  0
M  END
