
     RDKit          3D

 23 24  0  0  0  0  0  0  0  0999 V2000
   -1.6234   -0.8054   -1.2051 C   0  0  0  0  0  0  0  0  0  0  0  0
   -1.1361   -0.0428   -0.0258 C   0  0  0  0  0  0  0  0  0  0  0  0
    0.3135    0.0700    0.3077 C   0  0  0  0  0  0  0  0  0  0  0  0
    1.1597    0.7005   -0.7329 C   0  0  0  0  0  0  0  0  0  0  0  0
    2.5297    0.0769   -0.4790 C   0  0  0  0  0  0  0  0  0  0  0  0
    2.2512   -0.7535    0.7778 C   0  0  0  0  0  0  0  0  0  0  0  0
    0.9266   -1.1694    0.5321 O   0  0  0  0  0  0  0  0  0  0  0  0
   -2.0624   -0.0951    1.1887 C   0  0  0  0  0  0  0  0  0  0  0  0
   -1.9977    1.1546    0.3836 C   0  0  0  0  0  0  0  0  0  0  0  0
   -1.7363   -1.8806   -0.8810 H   0  0  0  0  0  0  0  0  0  0  0  0
   -2.6049   -0.4100   -1.5546 H   0  0  0  0  0  0  0  0  0  0  0  0
   -0.9595   -0.8187   -2.0659 H   0  0  0  0  0  0  0  0  0  0  0  0
    0.4145    0.6350    1.2569 H   0  0  0  0  0  0  0  0  0  0  0  0
    0.8356    0.5111   -1.7740 H   0  0  0  0  0  0  0  0  0  0  0  0
    1.2906    1.7930   -0.5929 H   0  0  0  0  0  0  0  0  0  0  0  0
    2.8392   -0.5899   -1.3047 H   0  0  0  0  0  0  0  0  0  0  0  0
    3.3047    0.8233   -0.2839 H   0  0  0  0  0  0  0  0  0  0  0  0
    2.9467   -1.6070    0.8452 H   0  0  0  0  0  0  0  0  0  0  0  0
    2.2522   -0.1163    1.6747 H   0  0  0  0  0  0  0  0  0  0  0  0
   -1.5844   -0.1297    2.2030 H   0  0  0  0  0  0  0  0  0  0  0  0
   -2.9562   -0.7510    1.1412 H   0  0  0  0  0  0  0  0  0  0  0  0
   -2.9088    1.3715   -0.2084 H   0  0  0  0  0  0  0  0  0  0  0  0
   -1.4947    2.0333    0.7974 H   0  0  0  0  0  0  0  0  0  0  0  0
  1  2  1  0
  2  3  1  0
  3  4  1  0
  4  5  1  0
  5  6  1  0
  6  7  1  0
  2  8  1  0
  8  9  1  0
  9  2  1  0
  7  3  1  0
  1 10  1  0
  1 11  1  0
  1 12  1  0
  3 13  1  0
  4 14  1  0
  4 15  1  0
  5 16  1  0
  5 17  1  0
  6 18  1  0
  6 19  1  0
  8 20  1  0
  8 21  1  0
  9 22  1  0
  9 23  1  0
M  END
