
     RDKit          3D

 21 21  0  0  0  0  0  0  0  0999 V2000
   -0.0216   -1.6388    0.6426 C   0  0  0  0  0  0  0  0  0  0  0  0
   -0.3561   -0.3073   -0.0020 C   0  0  0  0  0  0  0  0  0  0  0  0
    0.5443    0.0735   -1.0903 C   0  0  0  0  0  0  0  0  0  0  0  0
    0.1009    0.2501   -2.2101 O   0  0  0  0  0  0  0  0  0  0  0  0
    1.9995    0.2487   -0.8470 C   0  0  0  0  0  0  0  0  0  0  0  0
    2.3566    0.0173    0.4601 O   0  0  0  0  0  0  0  0  0  0  0  0
   -0.5099    0.8347    0.9844 C   0  0  0  0  0  0  0  0  0  0  0  0
   -1.6516    1.3282    0.0915 C   0  0  0  0  0  0  0  0  0  0  0  0
   -1.8348   -0.1451   -0.2902 C   0  0  0  0  0  0  0  0  0  0  0  0
   -0.6954   -2.4199    0.2065 H   0  0  0  0  0  0  0  0  0  0  0  0
    1.0283   -1.9061    0.4397 H   0  0  0  0  0  0  0  0  0  0  0  0
   -0.1884   -1.5253    1.7325 H   0  0  0  0  0  0  0  0  0  0  0  0
    2.5647   -0.4793   -1.4780 H   0  0  0  0  0  0  0  0  0  0  0  0
    2.2732    1.2981   -1.1377 H   0  0  0  0  0  0  0  0  0  0  0  0
    3.2601   -0.3457    0.5784 H   0  0  0  0  0  0  0  0  0  0  0  0
   -0.8354    0.4560    1.9568 H   0  0  0  0  0  0  0  0  0  0  0  0
    0.2950    1.5715    0.9898 H   0  0  0  0  0  0  0  0  0  0  0  0
   -2.4859    1.7677    0.6296 H   0  0  0  0  0  0  0  0  0  0  0  0
   -1.2604    1.8617   -0.7924 H   0  0  0  0  0  0  0  0  0  0  0  0
   -2.4550   -0.6351    0.4705 H   0  0  0  0  0  0  0  0  0  0  0  0
   -2.1281   -0.3047   -1.3346 H   0  0  0  0  0  0  0  0  0  0  0  0
  1  2  1  0
  2  3  1  0
  3  4  2  0
  3  5  1  0
  5  6  1  0
  2  7  1  0
  7  8  1  0
  8  9  1  0
  9  2  1  0
  1 10  1  0
  1 11  1  0
  1 12  1  0
  5 13  1  0
  5 14  1  0
  6 15  1  0
  7 16  1  0
  7 17  1  0
  8 18  1  0
  8 19  1  0
  9 20  1  0
  9 21  1  0
M  END
