
     RDKit          3D

 23 24  0  0  0  0  0  0  0  0999 V2000
   -1.2498    1.4808    0.1909 C   0  0  0  0  0  0  0  0  0  0  0  0
   -0.7373    0.0318    0.2092 C   0  0  0  0  0  0  0  0  0  0  0  0
    0.7147   -0.0510   -0.0687 C   0  0  0  0  0  0  0  0  0  0  0  0
    1.5657    0.7071    0.9383 C   0  0  0  0  0  0  0  0  0  0  0  0
    1.0382    0.3293   -1.4995 C   0  0  0  0  0  0  0  0  0  0  0  0
    1.0746   -1.0316   -1.8759 O   0  0  0  0  0  0  0  0  0  0  0  0
    1.2842   -1.3462   -0.5344 C   0  0  0  0  0  0  0  0  0  0  0  0
   -1.7012   -0.9991   -0.2903 C   0  0  0  0  0  0  0  0  0  0  0  0
   -1.4448   -0.8452    1.1592 C   0  0  0  0  0  0  0  0  0  0  0  0
   -0.5416    2.1080    0.7996 H   0  0  0  0  0  0  0  0  0  0  0  0
   -2.2238    1.5638    0.6757 H   0  0  0  0  0  0  0  0  0  0  0  0
   -1.2300    1.9006   -0.8273 H   0  0  0  0  0  0  0  0  0  0  0  0
    1.5985    1.8017    0.6820 H   0  0  0  0  0  0  0  0  0  0  0  0
    2.5644    0.2541    0.9360 H   0  0  0  0  0  0  0  0  0  0  0  0
    1.0791    0.5801    1.9248 H   0  0  0  0  0  0  0  0  0  0  0  0
    0.1830    0.7960   -2.0578 H   0  0  0  0  0  0  0  0  0  0  0  0
    2.0082    0.8441   -1.6263 H   0  0  0  0  0  0  0  0  0  0  0  0
    2.3999   -1.3518   -0.3537 H   0  0  0  0  0  0  0  0  0  0  0  0
    0.7936   -2.2658   -0.2303 H   0  0  0  0  0  0  0  0  0  0  0  0
   -2.6727   -0.6280   -0.7221 H   0  0  0  0  0  0  0  0  0  0  0  0
   -1.2544   -1.7888   -0.9023 H   0  0  0  0  0  0  0  0  0  0  0  0
   -2.3260   -0.4478    1.7335 H   0  0  0  0  0  0  0  0  0  0  0  0
   -0.9224   -1.6419    1.7394 H   0  0  0  0  0  0  0  0  0  0  0  0
  1  2  1  0
  2  3  1  0
  3  4  1  0
  3  5  1  0
  5  6  1  0
  6  7  1  0
  2  8  1  0
  8  9  1  0
  9  2  1  0
  7  3  1  0
  1 10  1  0
  1 11  1  0
  1 12  1  0
  4 13  1  0
  4 14  1  0
  4 15  1  0
  5 16  1  0
  5 17  1  0
  7 18  1  0
  7 19  1  0
  8 20  1  0
  8 21  1  0
  9 22  1  0
  9 23  1  0
M  END
