
     RDKit          3D

 19 20  0  0  0  0  0  0  0  0999 V2000
    2.3235   -0.5085    0.2097 C   0  0  0  0  0  0  0  0  0  0  0  0
    1.1888    0.2070   -0.4286 C   0  0  0  0  0  0  0  0  0  0  0  0
    1.5992    1.2243   -1.3042 O   0  0  0  0  0  0  0  0  0  0  0  0
    0.0860   -0.6632   -1.0004 C   0  0  0  0  0  0  0  0  0  0  0  0
   -0.8928    0.1474   -0.1845 C   0  0  0  0  0  0  0  0  0  0  0  0
   -2.2163   -0.4190    0.1891 C   0  0  0  0  0  0  0  0  0  0  0  0
   -3.2479    0.0680   -0.6458 O   0  0  0  0  0  0  0  0  0  0  0  0
   -0.7956    1.5146   -0.1132 O   0  0  0  0  0  0  0  0  0  0  0  0
    0.1097    0.7144    0.5388 C   0  0  0  0  0  0  0  0  0  0  0  0
    2.1025   -0.9473    1.1949 H   0  0  0  0  0  0  0  0  0  0  0  0
    2.7219   -1.2663   -0.5151 H   0  0  0  0  0  0  0  0  0  0  0  0
    3.1505    0.2131    0.3611 H   0  0  0  0  0  0  0  0  0  0  0  0
    1.5321    2.0623   -0.8056 H   0  0  0  0  0  0  0  0  0  0  0  0
    0.1785   -1.6847   -0.5313 H   0  0  0  0  0  0  0  0  0  0  0  0
   -0.0381   -0.6447   -2.0797 H   0  0  0  0  0  0  0  0  0  0  0  0
   -2.1856   -1.5238   -0.0313 H   0  0  0  0  0  0  0  0  0  0  0  0
   -2.4569   -0.3072    1.2523 H   0  0  0  0  0  0  0  0  0  0  0  0
   -3.5061    0.9903   -0.4001 H   0  0  0  0  0  0  0  0  0  0  0  0
    0.3465    0.8233    1.5930 H   0  0  0  0  0  0  0  0  0  0  0  0
  1  2  1  0
  2  3  1  0
  2  4  1  0
  4  5  1  0
  5  6  1  0
  6  7  1  0
  5  8  1  0
  8  9  1  0
  9  2  1  0
  9  5  1  0
  1 10  1  0
  1 11  1  0
  1 12  1  0
  3 13  1  0
  4 14  1  0
  4 15  1  0
  6 16  1  0
  6 17  1  0
  7 18  1  0
  9 19  1  0
M  END
