
     RDKit          3D

 19 19  0  0  0  0  0  0  0  0999 V2000
   -2.1691    0.3282   -0.6606 C   0  0  0  0  0  0  0  0  0  0  0  0
   -0.8039   -0.2086   -0.3626 C   0  0  0  0  0  0  0  0  0  0  0  0
   -0.5188   -1.3307   -1.1136 O   0  0  0  0  0  0  0  0  0  0  0  0
   -0.6174   -0.4832    1.1354 C   0  0  0  0  0  0  0  0  0  0  0  0
    0.8738   -0.5219    1.2059 C   0  0  0  0  0  0  0  0  0  0  0  0
    1.3916    0.2103    0.2299 C   0  0  0  0  0  0  0  0  0  0  0  0
    2.8055    0.4038   -0.0121 C   0  0  0  0  0  0  0  0  0  0  0  0
    3.1577    1.1244   -0.9747 O   0  0  0  0  0  0  0  0  0  0  0  0
    0.2961    0.7993   -0.5734 C   0  0  0  0  0  0  0  0  0  0  0  0
   -2.2827    1.3961   -0.4222 H   0  0  0  0  0  0  0  0  0  0  0  0
   -2.3791    0.1134   -1.7436 H   0  0  0  0  0  0  0  0  0  0  0  0
   -2.9021   -0.3067   -0.0874 H   0  0  0  0  0  0  0  0  0  0  0  0
   -0.3314   -2.1054   -0.5144 H   0  0  0  0  0  0  0  0  0  0  0  0
   -1.0907   -1.4198    1.4233 H   0  0  0  0  0  0  0  0  0  0  0  0
   -1.0342    0.4050    1.6564 H   0  0  0  0  0  0  0  0  0  0  0  0
    1.4208   -1.0758    1.9561 H   0  0  0  0  0  0  0  0  0  0  0  0
    3.5977   -0.0294    0.5791 H   0  0  0  0  0  0  0  0  0  0  0  0
    0.0214    1.7586   -0.0863 H   0  0  0  0  0  0  0  0  0  0  0  0
    0.5648    0.9425   -1.6354 H   0  0  0  0  0  0  0  0  0  0  0  0
  1  2  1  0
  2  3  1  0
  2  4  1  0
  4  5  1  0
  5  6  2  0
  6  7  1  0
  7  8  2  0
  6  9  1  0
  9  2  1  0
  1 10  1  0
  1 11  1  0
  1 12  1  0
  3 13  1  0
  4 14  1  0
  4 15  1  0
  5 16  1  0
  7 17  1  0
  9 18  1  0
  9 19  1  0
M  END
