
     RDKit          3D

 21 21  0  0  0  0  0  0  0  0999 V2000
   -2.1311    0.3579   -0.5045 C   0  0  0  0  0  0  0  0  0  0  0  0
   -0.7766    0.1513    0.1643 C   0  0  0  0  0  0  0  0  0  0  0  0
   -0.9313   -0.8303    1.2989 C   0  0  0  0  0  0  0  0  0  0  0  0
   -0.2126    1.3578    0.4797 O   0  0  0  0  0  0  0  0  0  0  0  0
    0.4105    1.3742   -0.7646 C   0  0  0  0  0  0  0  0  0  0  0  0
    0.2887   -0.1247   -0.8205 C   0  0  0  0  0  0  0  0  0  0  0  0
    1.5231   -0.8130   -0.3708 C   0  0  0  0  0  0  0  0  0  0  0  0
    2.2733   -0.0920    0.6793 C   0  0  0  0  0  0  0  0  0  0  0  0
    3.3084   -0.5735    1.1262 O   0  0  0  0  0  0  0  0  0  0  0  0
   -2.2533    1.3925   -0.8832 H   0  0  0  0  0  0  0  0  0  0  0  0
   -2.9259    0.2446    0.2884 H   0  0  0  0  0  0  0  0  0  0  0  0
   -2.3385   -0.3931   -1.2740 H   0  0  0  0  0  0  0  0  0  0  0  0
   -0.8206   -1.8685    0.9236 H   0  0  0  0  0  0  0  0  0  0  0  0
   -1.9536   -0.7523    1.7255 H   0  0  0  0  0  0  0  0  0  0  0  0
   -0.2298   -0.6143    2.1411 H   0  0  0  0  0  0  0  0  0  0  0  0
   -0.1135    1.9292   -1.5562 H   0  0  0  0  0  0  0  0  0  0  0  0
    1.4794    1.6930   -0.7272 H   0  0  0  0  0  0  0  0  0  0  0  0
   -0.0427   -0.5312   -1.7990 H   0  0  0  0  0  0  0  0  0  0  0  0
    1.2784   -1.8203    0.0334 H   0  0  0  0  0  0  0  0  0  0  0  0
    2.1905   -0.9385   -1.2586 H   0  0  0  0  0  0  0  0  0  0  0  0
    1.9774    0.8513    1.0982 H   0  0  0  0  0  0  0  0  0  0  0  0
  1  2  1  0
  2  3  1  0
  2  4  1  0
  4  5  1  0
  5  6  1  0
  6  7  1  0
  7  8  1  0
  8  9  2  0
  6  2  1  0
  1 10  1  0
  1 11  1  0
  1 12  1  0
  3 13  1  0
  3 14  1  0
  3 15  1  0
  5 16  1  0
  5 17  1  0
  6 18  1  0
  7 19  1  0
  7 20  1  0
  8 21  1  0
M  END
