
     RDKit          3D

 19 20  0  0  0  0  0  0  0  0999 V2000
   -1.0043    1.6621    0.4718 C   0  0  0  0  0  0  0  0  0  0  0  0
   -0.4674    0.3252   -0.0632 C   0  0  0  0  0  0  0  0  0  0  0  0
   -1.5637   -0.3486   -0.9058 C   0  0  0  0  0  0  0  0  0  0  0  0
   -1.1536   -1.5527   -1.4184 O   0  0  0  0  0  0  0  0  0  0  0  0
    0.3756   -0.4015    0.8208 C   0  0  0  0  0  0  0  0  0  0  0  0
    1.9036   -0.3154    0.9845 C   0  0  0  0  0  0  0  0  0  0  0  0
    1.8429   -0.8790   -0.3854 C   0  0  0  0  0  0  0  0  0  0  0  0
    2.3510   -1.7629   -0.9850 O   0  0  0  0  0  0  0  0  0  0  0  0
    0.8638    0.2047   -0.5643 C   0  0  0  0  0  0  0  0  0  0  0  0
   -0.0921    2.1829    0.8759 H   0  0  0  0  0  0  0  0  0  0  0  0
   -1.7357    1.4744    1.2618 H   0  0  0  0  0  0  0  0  0  0  0  0
   -1.4420    2.2740   -0.3197 H   0  0  0  0  0  0  0  0  0  0  0  0
   -2.4421   -0.4259   -0.2342 H   0  0  0  0  0  0  0  0  0  0  0  0
   -1.8435    0.3858   -1.6929 H   0  0  0  0  0  0  0  0  0  0  0  0
   -1.7088   -2.2665   -0.9719 H   0  0  0  0  0  0  0  0  0  0  0  0
    0.1577   -1.5184    0.7767 H   0  0  0  0  0  0  0  0  0  0  0  0
    2.2697   -0.9614    1.7779 H   0  0  0  0  0  0  0  0  0  0  0  0
    2.2423    0.7447    1.0172 H   0  0  0  0  0  0  0  0  0  0  0  0
    1.4465    1.1786   -0.4457 H   0  0  0  0  0  0  0  0  0  0  0  0
  1  2  1  0
  2  3  1  0
  3  4  1  0
  2  5  1  0
  5  6  1  0
  6  7  1  0
  7  8  2  0
  7  9  1  0
  9  2  1  0
  9  5  1  0
  1 10  1  0
  1 11  1  0
  1 12  1  0
  3 13  1  0
  3 14  1  0
  4 15  1  0
  5 16  1  0
  6 17  1  0
  6 18  1  0
  9 19  1  0
M  END
