
     RDKit          3D

 21 22  0  0  0  0  0  0  0  0999 V2000
   -1.0363    1.4042    0.2951 C   0  0  0  0  0  0  0  0  0  0  0  0
   -0.7794   -0.0235   -0.1247 C   0  0  0  0  0  0  0  0  0  0  0  0
    0.6211   -0.5491   -0.0723 C   0  0  0  0  0  0  0  0  0  0  0  0
    1.6312    0.1798   -0.9311 C   0  0  0  0  0  0  0  0  0  0  0  0
    2.5975    0.0025    0.1740 C   0  0  0  0  0  0  0  0  0  0  0  0
    3.7907   -0.0925    0.2807 O   0  0  0  0  0  0  0  0  0  0  0  0
    1.4474   -0.0073    1.1015 C   0  0  0  0  0  0  0  0  0  0  0  0
   -1.8395   -1.0188    0.3755 C   0  0  0  0  0  0  0  0  0  0  0  0
   -1.7209   -0.6800   -1.0473 C   0  0  0  0  0  0  0  0  0  0  0  0
   -0.8000    1.4961    1.3810 H   0  0  0  0  0  0  0  0  0  0  0  0
   -0.4886    2.1367   -0.3283 H   0  0  0  0  0  0  0  0  0  0  0  0
   -2.1141    1.6493    0.2012 H   0  0  0  0  0  0  0  0  0  0  0  0
    0.7475   -1.6246   -0.1506 H   0  0  0  0  0  0  0  0  0  0  0  0
    1.8861   -0.3194   -1.8829 H   0  0  0  0  0  0  0  0  0  0  0  0
    1.4198    1.2592   -1.0755 H   0  0  0  0  0  0  0  0  0  0  0  0
    1.1874    1.0362    1.3815 H   0  0  0  0  0  0  0  0  0  0  0  0
    1.5141   -0.7062    1.9533 H   0  0  0  0  0  0  0  0  0  0  0  0
   -1.4995   -2.0195    0.6833 H   0  0  0  0  0  0  0  0  0  0  0  0
   -2.6528   -0.6229    1.0182 H   0  0  0  0  0  0  0  0  0  0  0  0
   -1.4022   -1.4758   -1.7527 H   0  0  0  0  0  0  0  0  0  0  0  0
   -2.5094   -0.0245   -1.4797 H   0  0  0  0  0  0  0  0  0  0  0  0
  1  2  1  0
  2  3  1  0
  3  4  1  0
  4  5  1  0
  5  6  2  0
  5  7  1  0
  2  8  1  0
  8  9  1  0
  9  2  1  0
  7  3  1  0
  1 10  1  0
  1 11  1  0
  1 12  1  0
  3 13  1  0
  4 14  1  0
  4 15  1  0
  7 16  1  0
  7 17  1  0
  8 18  1  0
  8 19  1  0
  9 20  1  0
  9 21  1  0
M  END
