
     RDKit          3D

 19 19  0  0  0  0  0  0  0  0999 V2000
   -1.1693   -1.4281    0.5525 C   0  0  0  0  0  0  0  0  0  0  0  0
   -0.8576   -0.2401   -0.3308 C   0  0  0  0  0  0  0  0  0  0  0  0
    0.5694    0.0706   -0.4705 C   0  0  0  0  0  0  0  0  0  0  0  0
    1.7542    0.3476   -0.5787 C   0  0  0  0  0  0  0  0  0  0  0  0
    3.1780    0.6788   -0.6831 C   0  0  0  0  0  0  0  0  0  0  0  0
    3.8585   -0.4847   -0.9926 O   0  0  0  0  0  0  0  0  0  0  0  0
   -1.7886    0.2015   -1.3709 C   0  0  0  0  0  0  0  0  0  0  0  0
   -1.8023    0.9715   -0.1119 C   0  0  0  0  0  0  0  0  0  0  0  0
   -2.7935    0.8272    0.8396 O   0  0  0  0  0  0  0  0  0  0  0  0
   -0.5594   -1.3284    1.4640 H   0  0  0  0  0  0  0  0  0  0  0  0
   -1.0092   -2.3908    0.0674 H   0  0  0  0  0  0  0  0  0  0  0  0
   -2.2348   -1.3729    0.8478 H   0  0  0  0  0  0  0  0  0  0  0  0
    3.3413    1.3800   -1.5441 H   0  0  0  0  0  0  0  0  0  0  0  0
    3.5550    1.1688    0.2462 H   0  0  0  0  0  0  0  0  0  0  0  0
    3.6227   -1.2076   -0.3489 H   0  0  0  0  0  0  0  0  0  0  0  0
   -1.3967    0.7231   -2.2583 H   0  0  0  0  0  0  0  0  0  0  0  0
   -2.6528   -0.4722   -1.5746 H   0  0  0  0  0  0  0  0  0  0  0  0
   -1.2736    1.9462   -0.0661 H   0  0  0  0  0  0  0  0  0  0  0  0
   -2.3412    0.6095    1.7169 H   0  0  0  0  0  0  0  0  0  0  0  0
  1  2  1  0
  2  3  1  0
  3  4  3  0
  4  5  1  0
  5  6  1  0
  2  7  1  0
  7  8  1  0
  8  9  1  0
  8  2  1  0
  1 10  1  0
  1 11  1  0
  1 12  1  0
  5 13  1  0
  5 14  1  0
  6 15  1  0
  7 16  1  0
  7 17  1  0
  8 18  1  0
  9 19  1  0
M  END
