
     RDKit          3D

 21 22  0  0  0  0  0  0  0  0999 V2000
    0.4764    1.3500    0.9586 C   0  0  0  0  0  0  0  0  0  0  0  0
    0.7281    0.2780   -0.0814 C   0  0  0  0  0  0  0  0  0  0  0  0
   -0.5152    0.0245   -0.8751 C   0  0  0  0  0  0  0  0  0  0  0  0
   -1.5926   -0.4254    0.0441 C   0  0  0  0  0  0  0  0  0  0  0  0
   -2.9126   -0.7569   -0.3548 C   0  0  0  0  0  0  0  0  0  0  0  0
   -2.6372    0.6267    0.1540 O   0  0  0  0  0  0  0  0  0  0  0  0
    2.0101    0.3767   -0.8264 C   0  0  0  0  0  0  0  0  0  0  0  0
    1.9735   -1.1343   -0.6501 C   0  0  0  0  0  0  0  0  0  0  0  0
    1.1802   -0.9363    0.4769 O   0  0  0  0  0  0  0  0  0  0  0  0
    1.4465    1.8112    1.1874 H   0  0  0  0  0  0  0  0  0  0  0  0
   -0.0072    0.8647    1.8197 H   0  0  0  0  0  0  0  0  0  0  0  0
   -0.1810    2.1115    0.4759 H   0  0  0  0  0  0  0  0  0  0  0  0
   -0.7663    0.9594   -1.4567 H   0  0  0  0  0  0  0  0  0  0  0  0
   -0.3541   -0.7437   -1.6715 H   0  0  0  0  0  0  0  0  0  0  0  0
   -1.2657   -0.6910    1.0769 H   0  0  0  0  0  0  0  0  0  0  0  0
   -3.5685   -1.3169    0.3535 H   0  0  0  0  0  0  0  0  0  0  0  0
   -3.2122   -0.6978   -1.4266 H   0  0  0  0  0  0  0  0  0  0  0  0
    1.9700    0.6584   -1.8891 H   0  0  0  0  0  0  0  0  0  0  0  0
    2.7870    0.8738   -0.2133 H   0  0  0  0  0  0  0  0  0  0  0  0
    2.9771   -1.5834   -0.4070 H   0  0  0  0  0  0  0  0  0  0  0  0
    1.4636   -1.6493   -1.4786 H   0  0  0  0  0  0  0  0  0  0  0  0
  1  2  1  0
  2  3  1  0
  3  4  1  0
  4  5  1  0
  5  6  1  0
  2  7  1  0
  7  8  1  0
  8  9  1  0
  9  2  1  0
  6  4  1  0
  1 10  1  0
  1 11  1  0
  1 12  1  0
  3 13  1  0
  3 14  1  0
  4 15  1  0
  5 16  1  0
  5 17  1  0
  7 18  1  0
  7 19  1  0
  8 20  1  0
  8 21  1  0
M  END
