
     RDKit          3D

 19 20  0  0  0  0  0  0  0  0999 V2000
    1.7566   -0.4303   -0.3360 C   0  0  0  0  0  0  0  0  0  0  0  0
    0.7087    0.4130    0.3724 C   0  0  0  0  0  0  0  0  0  0  0  0
    1.2605    1.5102    0.9977 O   0  0  0  0  0  0  0  0  0  0  0  0
   -0.0923   -0.5025    1.3037 C   0  0  0  0  0  0  0  0  0  0  0  0
   -1.0875   -0.5944    0.1451 C   0  0  0  0  0  0  0  0  0  0  0  0
   -1.0897   -1.6869   -0.6671 O   0  0  0  0  0  0  0  0  0  0  0  0
   -1.8558    0.6280   -0.0847 C   0  0  0  0  0  0  0  0  0  0  0  0
   -0.4601    0.6613   -0.5032 C   0  0  0  0  0  0  0  0  0  0  0  0
   -0.2039    0.6084   -1.8688 O   0  0  0  0  0  0  0  0  0  0  0  0
    2.7712    0.0219   -0.2654 H   0  0  0  0  0  0  0  0  0  0  0  0
    1.5370   -0.4956   -1.4296 H   0  0  0  0  0  0  0  0  0  0  0  0
    1.8174   -1.4495    0.0397 H   0  0  0  0  0  0  0  0  0  0  0  0
    1.9231    1.2221    1.6620 H   0  0  0  0  0  0  0  0  0  0  0  0
   -0.4781    0.1174    2.1444 H   0  0  0  0  0  0  0  0  0  0  0  0
    0.3973   -1.4360    1.5723 H   0  0  0  0  0  0  0  0  0  0  0  0
   -2.0203   -1.9080   -0.9154 H   0  0  0  0  0  0  0  0  0  0  0  0
   -2.1965    1.1610    0.8482 H   0  0  0  0  0  0  0  0  0  0  0  0
   -2.6252    0.6104   -0.8562 H   0  0  0  0  0  0  0  0  0  0  0  0
   -0.0624    1.5494   -2.1590 H   0  0  0  0  0  0  0  0  0  0  0  0
  1  2  1  0
  2  3  1  0
  2  4  1  0
  4  5  1  0
  5  6  1  0
  5  7  1  0
  7  8  1  0
  8  9  1  0
  8  2  1  0
  8  5  1  0
  1 10  1  0
  1 11  1  0
  1 12  1  0
  3 13  1  0
  4 14  1  0
  4 15  1  0
  6 16  1  0
  7 17  1  0
  7 18  1  0
  9 19  1  0
M  END
