
     RDKit          3D

 21 21  0  0  0  0  0  0  0  0999 V2000
   -1.4158   -1.5363   -0.2367 C   0  0  0  0  0  0  0  0  0  0  0  0
   -0.4888   -0.3238   -0.1170 C   0  0  0  0  0  0  0  0  0  0  0  0
    0.9684   -0.7202    0.0714 C   0  0  0  0  0  0  0  0  0  0  0  0
    1.3170   -1.5002   -1.0727 O   0  0  0  0  0  0  0  0  0  0  0  0
    1.9095    0.4702   -0.0408 C   0  0  0  0  0  0  0  0  0  0  0  0
    1.7754    1.3803    0.9749 O   0  0  0  0  0  0  0  0  0  0  0  0
   -1.0815    0.7323    0.8178 C   0  0  0  0  0  0  0  0  0  0  0  0
   -0.8864    0.9826   -0.6624 C   0  0  0  0  0  0  0  0  0  0  0  0
   -2.0349    0.9662   -1.4699 O   0  0  0  0  0  0  0  0  0  0  0  0
   -1.1604   -2.1753    0.6580 H   0  0  0  0  0  0  0  0  0  0  0  0
   -1.2042   -2.1277   -1.1264 H   0  0  0  0  0  0  0  0  0  0  0  0
   -2.4723   -1.2061   -0.1488 H   0  0  0  0  0  0  0  0  0  0  0  0
    1.1201   -1.2880    0.9990 H   0  0  0  0  0  0  0  0  0  0  0  0
    1.7816   -2.3218   -0.8042 H   0  0  0  0  0  0  0  0  0  0  0  0
    1.7153    0.9046   -1.0659 H   0  0  0  0  0  0  0  0  0  0  0  0
    2.9805    0.1079   -0.0259 H   0  0  0  0  0  0  0  0  0  0  0  0
    1.9303    2.2923    0.6256 H   0  0  0  0  0  0  0  0  0  0  0  0
   -0.4084    1.1498    1.5584 H   0  0  0  0  0  0  0  0  0  0  0  0
   -2.1577    0.6088    1.1431 H   0  0  0  0  0  0  0  0  0  0  0  0
   -0.1184    1.7464   -0.8715 H   0  0  0  0  0  0  0  0  0  0  0  0
   -2.0694    1.8582   -1.9210 H   0  0  0  0  0  0  0  0  0  0  0  0
  1  2  1  0
  2  3  1  0
  3  4  1  0
  3  5  1  0
  5  6  1  0
  2  7  1  0
  7  8  1  0
  8  9  1  0
  8  2  1  0
  1 10  1  0
  1 11  1  0
  1 12  1  0
  3 13  1  0
  4 14  1  0
  5 15  1  0
  5 16  1  0
  6 17  1  0
  7 18  1  0
  7 19  1  0
  8 20  1  0
  9 21  1  0
M  END
