
     RDKit          3D

 19 20  0  0  0  0  0  0  0  0999 V2000
   -1.1150   -1.5054   -0.3186 C   0  0  0  0  0  0  0  0  0  0  0  0
   -0.6186   -0.2223    0.2855 C   0  0  0  0  0  0  0  0  0  0  0  0
   -1.0613   -0.0468    1.5760 O   0  0  0  0  0  0  0  0  0  0  0  0
   -1.1086    0.9967   -0.5093 C   0  0  0  0  0  0  0  0  0  0  0  0
   -0.0991    2.0147   -0.0478 C   0  0  0  0  0  0  0  0  0  0  0  0
    1.0140    1.4168    0.3315 C   0  0  0  0  0  0  0  0  0  0  0  0
    0.8517   -0.0264    0.1608 C   0  0  0  0  0  0  0  0  0  0  0  0
    1.8179   -0.9888   -0.1186 C   0  0  0  0  0  0  0  0  0  0  0  0
    1.2563   -0.3878   -1.2261 O   0  0  0  0  0  0  0  0  0  0  0  0
   -0.4503   -2.3208    0.0693 H   0  0  0  0  0  0  0  0  0  0  0  0
   -2.1518   -1.6789    0.0321 H   0  0  0  0  0  0  0  0  0  0  0  0
   -1.0436   -1.4267   -1.4198 H   0  0  0  0  0  0  0  0  0  0  0  0
   -0.3490   -0.0953    2.2467 H   0  0  0  0  0  0  0  0  0  0  0  0
   -2.1298    1.2744   -0.2485 H   0  0  0  0  0  0  0  0  0  0  0  0
   -0.9257    0.8612   -1.5924 H   0  0  0  0  0  0  0  0  0  0  0  0
   -0.2894    3.0686   -0.0409 H   0  0  0  0  0  0  0  0  0  0  0  0
    1.9053    1.9017    0.7078 H   0  0  0  0  0  0  0  0  0  0  0  0
    1.6001   -2.0691    0.0927 H   0  0  0  0  0  0  0  0  0  0  0  0
    2.8966   -0.7658    0.0196 H   0  0  0  0  0  0  0  0  0  0  0  0
  1  2  1  0
  2  3  1  0
  2  4  1  0
  4  5  1  0
  5  6  2  0
  6  7  1  0
  7  8  1  0
  8  9  1  0
  7  2  1  0
  9  7  1  0
  1 10  1  0
  1 11  1  0
  1 12  1  0
  3 13  1  0
  4 14  1  0
  4 15  1  0
  5 16  1  0
  6 17  1  0
  8 18  1  0
  8 19  1  0
M  END
