
     RDKit          3D

 19 20  0  0  0  0  0  0  0  0999 V2000
   -1.4169   -1.0768   -0.7016 C   0  0  0  0  0  0  0  0  0  0  0  0
   -0.9048    0.0155    0.2005 C   0  0  0  0  0  0  0  0  0  0  0  0
   -1.9695    0.7916    0.9420 C   0  0  0  0  0  0  0  0  0  0  0  0
    0.1148   -0.4952    1.0232 O   0  0  0  0  0  0  0  0  0  0  0  0
    1.0154    0.0857    0.1954 C   0  0  0  0  0  0  0  0  0  0  0  0
    2.0114   -0.6247   -0.6109 C   0  0  0  0  0  0  0  0  0  0  0  0
    2.4102    0.3245    0.4371 C   0  0  0  0  0  0  0  0  0  0  0  0
    0.0547    0.9590   -0.4360 C   0  0  0  0  0  0  0  0  0  0  0  0
   -0.1158    1.9396   -1.1242 O   0  0  0  0  0  0  0  0  0  0  0  0
   -2.1571   -1.6606   -0.1249 H   0  0  0  0  0  0  0  0  0  0  0  0
   -1.8822   -0.7100   -1.6246 H   0  0  0  0  0  0  0  0  0  0  0  0
   -0.5812   -1.7749   -0.9272 H   0  0  0  0  0  0  0  0  0  0  0  0
   -2.8261    0.1636    1.2507 H   0  0  0  0  0  0  0  0  0  0  0  0
   -2.3113    1.6628    0.3193 H   0  0  0  0  0  0  0  0  0  0  0  0
   -1.4572    1.2448    1.8361 H   0  0  0  0  0  0  0  0  0  0  0  0
    2.0303   -0.3508   -1.7015 H   0  0  0  0  0  0  0  0  0  0  0  0
    2.2347   -1.7115   -0.4765 H   0  0  0  0  0  0  0  0  0  0  0  0
    2.8273    1.3377    0.2002 H   0  0  0  0  0  0  0  0  0  0  0  0
    2.9231   -0.1200    1.3229 H   0  0  0  0  0  0  0  0  0  0  0  0
  1  2  1  0
  2  3  1  0
  2  4  1  0
  4  5  1  0
  5  6  1  0
  6  7  1  0
  5  8  1  0
  8  9  2  0
  8  2  1  0
  7  5  1  0
  1 10  1  0
  1 11  1  0
  1 12  1  0
  3 13  1  0
  3 14  1  0
  3 15  1  0
  6 16  1  0
  6 17  1  0
  7 18  1  0
  7 19  1  0
M  END
