
     RDKit          3D

 21 22  0  0  0  0  0  0  0  0999 V2000
   -1.6426    1.5294    0.2875 C   0  0  0  0  0  0  0  0  0  0  0  0
   -0.8968    0.2849   -0.1140 C   0  0  0  0  0  0  0  0  0  0  0  0
   -1.7697   -0.9082   -0.4172 C   0  0  0  0  0  0  0  0  0  0  0  0
    0.0565    0.5691   -1.1057 O   0  0  0  0  0  0  0  0  0  0  0  0
    0.9719    0.8459   -0.0697 C   0  0  0  0  0  0  0  0  0  0  0  0
    2.3183    0.1652   -0.2660 C   0  0  0  0  0  0  0  0  0  0  0  0
    1.9362   -1.2620   -0.1529 C   0  0  0  0  0  0  0  0  0  0  0  0
    0.7667   -1.4351    0.4392 C   0  0  0  0  0  0  0  0  0  0  0  0
    0.2455   -0.1061    0.7859 C   0  0  0  0  0  0  0  0  0  0  0  0
   -2.7108    1.3993   -0.0521 H   0  0  0  0  0  0  0  0  0  0  0  0
   -1.6846    1.6978    1.3670 H   0  0  0  0  0  0  0  0  0  0  0  0
   -1.2678    2.4142   -0.2665 H   0  0  0  0  0  0  0  0  0  0  0  0
   -1.4129   -1.3495   -1.3537 H   0  0  0  0  0  0  0  0  0  0  0  0
   -2.8411   -0.5920   -0.5458 H   0  0  0  0  0  0  0  0  0  0  0  0
   -1.7281   -1.6239    0.4482 H   0  0  0  0  0  0  0  0  0  0  0  0
    1.0187    1.8962    0.2090 H   0  0  0  0  0  0  0  0  0  0  0  0
    2.7180    0.3420   -1.2861 H   0  0  0  0  0  0  0  0  0  0  0  0
    2.9794    0.5017    0.5401 H   0  0  0  0  0  0  0  0  0  0  0  0
    2.5379   -2.0868   -0.5112 H   0  0  0  0  0  0  0  0  0  0  0  0
    0.2829   -2.4021    0.6314 H   0  0  0  0  0  0  0  0  0  0  0  0
    0.1224    0.1200    1.8530 H   0  0  0  0  0  0  0  0  0  0  0  0
  1  2  1  0
  2  3  1  0
  2  4  1  0
  4  5  1  0
  5  6  1  0
  6  7  1  0
  7  8  2  0
  8  9  1  0
  9  2  1  0
  9  5  1  0
  1 10  1  0
  1 11  1  0
  1 12  1  0
  3 13  1  0
  3 14  1  0
  3 15  1  0
  5 16  1  0
  6 17  1  0
  6 18  1  0
  7 19  1  0
  8 20  1  0
  9 21  1  0
M  END
