
     RDKit          3D

 25 25  0  0  0  0  0  0  0  0999 V2000
   -1.6429   -0.6127    1.3055 C   0  0  0  0  0  0  0  0  0  0  0  0
   -0.9031   -0.0944    0.0712 C   0  0  0  0  0  0  0  0  0  0  0  0
   -1.9121   -0.0447   -1.0496 C   0  0  0  0  0  0  0  0  0  0  0  0
   -0.3695    1.2838    0.3181 C   0  0  0  0  0  0  0  0  0  0  0  0
    0.9257    1.2769    1.1076 C   0  0  0  0  0  0  0  0  0  0  0  0
    2.0002    0.5968    0.3312 C   0  0  0  0  0  0  0  0  0  0  0  0
    1.4692   -0.3738   -0.7056 C   0  0  0  0  0  0  0  0  0  0  0  0
    2.4114   -1.4175   -0.8749 O   0  0  0  0  0  0  0  0  0  0  0  0
    0.2186   -1.0586   -0.1882 C   0  0  0  0  0  0  0  0  0  0  0  0
   -0.8747   -0.7317    2.1121 H   0  0  0  0  0  0  0  0  0  0  0  0
   -1.9794   -1.6510    1.0160 H   0  0  0  0  0  0  0  0  0  0  0  0
   -2.4844    0.0184    1.5894 H   0  0  0  0  0  0  0  0  0  0  0  0
   -1.6342    0.6718   -1.8510 H   0  0  0  0  0  0  0  0  0  0  0  0
   -2.1461   -1.0355   -1.4737 H   0  0  0  0  0  0  0  0  0  0  0  0
   -2.8739    0.3318   -0.6129 H   0  0  0  0  0  0  0  0  0  0  0  0
   -1.1269    1.9500    0.7938 H   0  0  0  0  0  0  0  0  0  0  0  0
   -0.1281    1.7681   -0.6596 H   0  0  0  0  0  0  0  0  0  0  0  0
    0.7990    0.9174    2.1399 H   0  0  0  0  0  0  0  0  0  0  0  0
    1.2207    2.3616    1.2033 H   0  0  0  0  0  0  0  0  0  0  0  0
    2.6140    1.3464   -0.2500 H   0  0  0  0  0  0  0  0  0  0  0  0
    2.7280    0.0599    0.9638 H   0  0  0  0  0  0  0  0  0  0  0  0
    1.2856    0.1605   -1.6564 H   0  0  0  0  0  0  0  0  0  0  0  0
    1.9505   -2.2770   -1.0755 H   0  0  0  0  0  0  0  0  0  0  0  0
    0.5421   -1.6025    0.7452 H   0  0  0  0  0  0  0  0  0  0  0  0
   -0.0897   -1.8440   -0.8931 H   0  0  0  0  0  0  0  0  0  0  0  0
  1  2  1  0
  2  3  1  0
  2  4  1  0
  4  5  1  0
  5  6  1  0
  6  7  1  0
  7  8  1  0
  7  9  1  0
  9  2  1  0
  1 10  1  0
  1 11  1  0
  1 12  1  0
  3 13  1  0
  3 14  1  0
  3 15  1  0
  4 16  1  0
  4 17  1  0
  5 18  1  0
  5 19  1  0
  6 20  1  0
  6 21  1  0
  7 22  1  0
  8 23  1  0
  9 24  1  0
  9 25  1  0
M  END
