
     RDKit          3D

 21 22  0  0  0  0  0  0  0  0999 V2000
   -1.1949   -1.4962   -0.0403 C   0  0  0  0  0  0  0  0  0  0  0  0
   -0.8460   -0.0303   -0.0033 C   0  0  0  0  0  0  0  0  0  0  0  0
   -2.0850    0.8696   -0.0735 C   0  0  0  0  0  0  0  0  0  0  0  0
    0.3228    0.5017   -0.7496 C   0  0  0  0  0  0  0  0  0  0  0  0
    1.5644   -0.3541   -0.6927 C   0  0  0  0  0  0  0  0  0  0  0  0
    2.6214    0.0455   -1.4627 O   0  0  0  0  0  0  0  0  0  0  0  0
    1.6422   -0.0585    0.7819 C   0  0  0  0  0  0  0  0  0  0  0  0
    0.2730    0.5033    0.7598 C   0  0  0  0  0  0  0  0  0  0  0  0
    0.1067    1.7099    1.4363 O   0  0  0  0  0  0  0  0  0  0  0  0
   -1.1830   -1.9282   -1.0514 H   0  0  0  0  0  0  0  0  0  0  0  0
   -0.4941   -2.0986    0.5844 H   0  0  0  0  0  0  0  0  0  0  0  0
   -2.2002   -1.6558    0.3744 H   0  0  0  0  0  0  0  0  0  0  0  0
   -2.2090    1.2588   -1.1129 H   0  0  0  0  0  0  0  0  0  0  0  0
   -2.9977    0.3412    0.2051 H   0  0  0  0  0  0  0  0  0  0  0  0
   -1.9523    1.7724    0.5701 H   0  0  0  0  0  0  0  0  0  0  0  0
    0.3029    1.4280   -1.3168 H   0  0  0  0  0  0  0  0  0  0  0  0
    1.3505   -1.4498   -0.8265 H   0  0  0  0  0  0  0  0  0  0  0  0
    2.8491   -0.6631   -2.1433 H   0  0  0  0  0  0  0  0  0  0  0  0
    1.8653   -0.8915    1.4426 H   0  0  0  0  0  0  0  0  0  0  0  0
    2.4160    0.7468    0.9415 H   0  0  0  0  0  0  0  0  0  0  0  0
   -0.1522    1.4488    2.3771 H   0  0  0  0  0  0  0  0  0  0  0  0
  1  2  1  0
  2  3  1  0
  2  4  1  0
  4  5  1  0
  5  6  1  0
  5  7  1  0
  7  8  1  0
  8  9  1  0
  8  2  1  0
  8  4  1  0
  1 10  1  0
  1 11  1  0
  1 12  1  0
  3 13  1  0
  3 14  1  0
  3 15  1  0
  4 16  1  0
  5 17  1  0
  6 18  1  0
  7 19  1  0
  7 20  1  0
  9 21  1  0
M  END
