
     RDKit          3D

 19 20  0  0  0  0  0  0  0  0999 V2000
    2.5117    1.0764   -0.5915 C   0  0  0  0  0  0  0  0  0  0  0  0
    1.7842   -0.2368   -0.6214 C   0  0  0  0  0  0  0  0  0  0  0  0
    0.4689   -0.1854    0.0463 C   0  0  0  0  0  0  0  0  0  0  0  0
   -0.6084   -0.1418    0.5912 C   0  0  0  0  0  0  0  0  0  0  0  0
   -1.9118   -0.0946    1.2746 C   0  0  0  0  0  0  0  0  0  0  0  0
   -2.8351    0.9759    0.8708 C   0  0  0  0  0  0  0  0  0  0  0  0
   -3.1386   -0.4057    0.3557 C   0  0  0  0  0  0  0  0  0  0  0  0
    2.5932   -1.5064   -0.5194 C   0  0  0  0  0  0  0  0  0  0  0  0
    1.9777   -1.0975   -1.6738 O   0  0  0  0  0  0  0  0  0  0  0  0
    1.9988    1.8568   -1.1503 H   0  0  0  0  0  0  0  0  0  0  0  0
    3.5116    0.9152   -1.0592 H   0  0  0  0  0  0  0  0  0  0  0  0
    2.7289    1.3981    0.4576 H   0  0  0  0  0  0  0  0  0  0  0  0
   -1.9808   -0.5126    2.3044 H   0  0  0  0  0  0  0  0  0  0  0  0
   -3.5217    1.3407    1.6901 H   0  0  0  0  0  0  0  0  0  0  0  0
   -2.5494    1.7829    0.1679 H   0  0  0  0  0  0  0  0  0  0  0  0
   -3.9210   -1.0083    0.8174 H   0  0  0  0  0  0  0  0  0  0  0  0
   -2.9018   -0.5410   -0.7184 H   0  0  0  0  0  0  0  0  0  0  0  0
    3.6647   -1.3513   -0.3356 H   0  0  0  0  0  0  0  0  0  0  0  0
    2.1289   -2.2648    0.1431 H   0  0  0  0  0  0  0  0  0  0  0  0
  1  2  1  0
  2  3  1  0
  3  4  3  0
  4  5  1  0
  5  6  1  0
  6  7  1  0
  2  8  1  0
  8  9  1  0
  9  2  1  0
  7  5  1  0
  1 10  1  0
  1 11  1  0
  1 12  1  0
  5 13  1  0
  6 14  1  0
  6 15  1  0
  7 16  1  0
  7 17  1  0
  8 18  1  0
  8 19  1  0
M  END
