
     RDKit          3D

 21 22  0  0  0  0  0  0  0  0999 V2000
   -1.4191   -1.1475    0.9525 C   0  0  0  0  0  0  0  0  0  0  0  0
   -0.6615   -0.3090   -0.0173 C   0  0  0  0  0  0  0  0  0  0  0  0
   -1.5827    0.7754   -0.5638 C   0  0  0  0  0  0  0  0  0  0  0  0
   -0.1201   -1.0431   -1.0796 O   0  0  0  0  0  0  0  0  0  0  0  0
    1.2229   -0.6089   -1.1768 C   0  0  0  0  0  0  0  0  0  0  0  0
    1.6032   -0.6829    0.3166 C   0  0  0  0  0  0  0  0  0  0  0  0
    0.5136    0.3466    0.6746 C   0  0  0  0  0  0  0  0  0  0  0  0
    1.0046    1.4339   -0.2521 C   0  0  0  0  0  0  0  0  0  0  0  0
    1.2438    0.7400   -1.4372 O   0  0  0  0  0  0  0  0  0  0  0  0
   -1.9448   -2.0059    0.5228 H   0  0  0  0  0  0  0  0  0  0  0  0
   -2.2027   -0.4944    1.4294 H   0  0  0  0  0  0  0  0  0  0  0  0
   -0.7620   -1.4913    1.7905 H   0  0  0  0  0  0  0  0  0  0  0  0
   -1.8354    1.4576    0.2746 H   0  0  0  0  0  0  0  0  0  0  0  0
   -1.1106    1.2835   -1.4201 H   0  0  0  0  0  0  0  0  0  0  0  0
   -2.5271    0.3023   -0.9261 H   0  0  0  0  0  0  0  0  0  0  0  0
    1.8276   -1.2373   -1.7970 H   0  0  0  0  0  0  0  0  0  0  0  0
    2.6021   -0.2732    0.4578 H   0  0  0  0  0  0  0  0  0  0  0  0
    1.4060   -1.6578    0.7426 H   0  0  0  0  0  0  0  0  0  0  0  0
    0.4220    0.5713    1.7000 H   0  0  0  0  0  0  0  0  0  0  0  0
    1.9994    1.7667    0.1650 H   0  0  0  0  0  0  0  0  0  0  0  0
    0.3207    2.2741   -0.3565 H   0  0  0  0  0  0  0  0  0  0  0  0
  1  2  1  0
  2  3  1  0
  2  4  1  0
  4  5  1  0
  5  6  1  0
  6  7  1  0
  7  8  1  0
  8  9  1  0
  7  2  1  0
  9  5  1  0
  1 10  1  0
  1 11  1  0
  1 12  1  0
  3 13  1  0
  3 14  1  0
  3 15  1  0
  5 16  1  0
  6 17  1  0
  6 18  1  0
  7 19  1  0
  8 20  1  0
  8 21  1  0
M  END
