
     RDKit          3D

 17 18  0  0  0  0  0  0  0  0999 V2000
   -1.5397    0.2180    1.0643 C   0  0  0  0  0  0  0  0  0  0  0  0
   -0.5203   -0.0432    0.0136 C   0  0  0  0  0  0  0  0  0  0  0  0
   -0.9546    0.4904   -1.2198 O   0  0  0  0  0  0  0  0  0  0  0  0
   -0.0355   -1.4494   -0.1436 C   0  0  0  0  0  0  0  0  0  0  0  0
    1.3773   -0.9213   -0.1110 C   0  0  0  0  0  0  0  0  0  0  0  0
    1.7316   -0.3131    1.0715 O   0  0  0  0  0  0  0  0  0  0  0  0
    0.8779    0.4344    0.2977 C   0  0  0  0  0  0  0  0  0  0  0  0
    1.3351    1.6483   -0.3865 C   0  0  0  0  0  0  0  0  0  0  0  0
    0.5500    2.2844   -1.0631 O   0  0  0  0  0  0  0  0  0  0  0  0
   -1.9709    1.2411    0.8675 H   0  0  0  0  0  0  0  0  0  0  0  0
   -2.4035   -0.4832    0.9253 H   0  0  0  0  0  0  0  0  0  0  0  0
   -1.1624    0.2435    2.0894 H   0  0  0  0  0  0  0  0  0  0  0  0
   -1.1558   -0.2598   -1.8346 H   0  0  0  0  0  0  0  0  0  0  0  0
   -0.1880   -2.1049    0.7607 H   0  0  0  0  0  0  0  0  0  0  0  0
   -0.3293   -1.9779   -1.0717 H   0  0  0  0  0  0  0  0  0  0  0  0
    2.0311   -0.9786   -0.9705 H   0  0  0  0  0  0  0  0  0  0  0  0
    2.3570    1.9712   -0.2890 H   0  0  0  0  0  0  0  0  0  0  0  0
  1  2  1  0
  2  3  1  0
  2  4  1  0
  4  5  1  0
  5  6  1  0
  6  7  1  0
  7  8  1  0
  8  9  2  0
  7  2  1  0
  7  5  1  0
  1 10  1  0
  1 11  1  0
  1 12  1  0
  3 13  1  0
  4 14  1  0
  4 15  1  0
  5 16  1  0
  8 17  1  0
M  END
