
     RDKit          3D

 21 22  0  0  0  0  0  0  0  0999 V2000
   -1.5813    1.0545   -0.8289 C   0  0  0  0  0  0  0  0  0  0  0  0
   -0.6577    0.1445   -0.0810 C   0  0  0  0  0  0  0  0  0  0  0  0
   -1.2681   -0.6328    1.0273 C   0  0  0  0  0  0  0  0  0  0  0  0
    0.3220   -0.5949   -0.9729 C   0  0  0  0  0  0  0  0  0  0  0  0
    1.2813   -1.2613   -0.0238 C   0  0  0  0  0  0  0  0  0  0  0  0
    1.4475   -0.1030    0.9807 C   0  0  0  0  0  0  0  0  0  0  0  0
    0.6127    0.9289    0.2863 C   0  0  0  0  0  0  0  0  0  0  0  0
    0.9818    0.7322   -1.1380 C   0  0  0  0  0  0  0  0  0  0  0  0
    1.5216    1.2420   -2.0901 O   0  0  0  0  0  0  0  0  0  0  0  0
   -0.9796    1.6480   -1.5616 H   0  0  0  0  0  0  0  0  0  0  0  0
   -1.9641    1.8078   -0.0952 H   0  0  0  0  0  0  0  0  0  0  0  0
   -2.4253    0.5320   -1.3059 H   0  0  0  0  0  0  0  0  0  0  0  0
   -1.0050   -0.2517    2.0476 H   0  0  0  0  0  0  0  0  0  0  0  0
   -2.3886   -0.5443    0.9167 H   0  0  0  0  0  0  0  0  0  0  0  0
   -1.0496   -1.7069    1.0069 H   0  0  0  0  0  0  0  0  0  0  0  0
   -0.0372   -1.1083   -1.8271 H   0  0  0  0  0  0  0  0  0  0  0  0
    0.8831   -2.1194    0.5070 H   0  0  0  0  0  0  0  0  0  0  0  0
    2.2617   -1.4612   -0.5225 H   0  0  0  0  0  0  0  0  0  0  0  0
    1.0289   -0.3704    1.9674 H   0  0  0  0  0  0  0  0  0  0  0  0
    2.5186    0.1634    1.0285 H   0  0  0  0  0  0  0  0  0  0  0  0
    0.4972    1.9007    0.6787 H   0  0  0  0  0  0  0  0  0  0  0  0
  1  2  1  0
  2  3  1  0
  2  4  1  0
  4  5  1  0
  5  6  1  0
  6  7  1  0
  7  8  1  0
  8  9  2  0
  7  2  1  0
  8  4  1  0
  1 10  1  0
  1 11  1  0
  1 12  1  0
  3 13  1  0
  3 14  1  0
  3 15  1  0
  4 16  1  0
  5 17  1  0
  5 18  1  0
  6 19  1  0
  6 20  1  0
  7 21  1  0
M  END
