
     RDKit          3D

 19 20  0  0  0  0  0  0  0  0999 V2000
    1.3278   -0.6016   -0.9252 C   0  0  0  0  0  0  0  0  0  0  0  0
    0.5817    0.2868    0.0255 C   0  0  0  0  0  0  0  0  0  0  0  0
    1.2792    0.5471    1.3124 C   0  0  0  0  0  0  0  0  0  0  0  0
    2.2564   -0.0627    1.6918 O   0  0  0  0  0  0  0  0  0  0  0  0
   -0.0357    1.5212   -0.6158 C   0  0  0  0  0  0  0  0  0  0  0  0
   -1.3774    1.0113   -0.1325 C   0  0  0  0  0  0  0  0  0  0  0  0
   -1.4638    0.7112    1.2568 O   0  0  0  0  0  0  0  0  0  0  0  0
   -0.8586   -0.1509    0.3079 C   0  0  0  0  0  0  0  0  0  0  0  0
   -1.2375   -1.5690    0.2423 C   0  0  0  0  0  0  0  0  0  0  0  0
    2.1117   -0.0139   -1.4690 H   0  0  0  0  0  0  0  0  0  0  0  0
    1.8429   -1.3759   -0.3163 H   0  0  0  0  0  0  0  0  0  0  0  0
    0.6090   -1.0464   -1.6498 H   0  0  0  0  0  0  0  0  0  0  0  0
    0.8966    1.3301    1.9588 H   0  0  0  0  0  0  0  0  0  0  0  0
   -0.0234    1.4901   -1.7373 H   0  0  0  0  0  0  0  0  0  0  0  0
    0.2854    2.4806   -0.1891 H   0  0  0  0  0  0  0  0  0  0  0  0
   -2.3062    1.3920   -0.5296 H   0  0  0  0  0  0  0  0  0  0  0  0
   -0.3868   -2.1812    0.6572 H   0  0  0  0  0  0  0  0  0  0  0  0
   -2.1012   -1.7939    0.8980 H   0  0  0  0  0  0  0  0  0  0  0  0
   -1.4001   -1.9751   -0.7861 H   0  0  0  0  0  0  0  0  0  0  0  0
  1  2  1  0
  2  3  1  0
  3  4  2  0
  2  5  1  0
  5  6  1  0
  6  7  1  0
  7  8  1  0
  8  9  1  0
  8  2  1  0
  8  6  1  0
  1 10  1  0
  1 11  1  0
  1 12  1  0
  3 13  1  0
  5 14  1  0
  5 15  1  0
  6 16  1  0
  9 17  1  0
  9 18  1  0
  9 19  1  0
M  END
