
     RDKit          3D

 21 21  0  0  0  0  0  0  0  0999 V2000
   -2.0007    1.0160    0.8653 C   0  0  0  0  0  0  0  0  0  0  0  0
   -1.0075    0.2708    0.0122 C   0  0  0  0  0  0  0  0  0  0  0  0
   -1.7153   -0.8696   -0.6811 C   0  0  0  0  0  0  0  0  0  0  0  0
   -0.3851    1.1303   -1.0059 C   0  0  0  0  0  0  0  0  0  0  0  0
    0.8477    0.6737   -1.1683 C   0  0  0  0  0  0  0  0  0  0  0  0
    1.0334   -0.5033   -0.2398 C   0  0  0  0  0  0  0  0  0  0  0  0
    2.4355   -0.4467    0.2935 C   0  0  0  0  0  0  0  0  0  0  0  0
    2.5468   -1.3574    1.3638 O   0  0  0  0  0  0  0  0  0  0  0  0
    0.0880   -0.1622    0.7487 O   0  0  0  0  0  0  0  0  0  0  0  0
   -1.5458    1.7328    1.5477 H   0  0  0  0  0  0  0  0  0  0  0  0
   -2.5529    0.2528    1.4587 H   0  0  0  0  0  0  0  0  0  0  0  0
   -2.7344    1.4786    0.1920 H   0  0  0  0  0  0  0  0  0  0  0  0
   -1.1821   -1.8373   -0.5589 H   0  0  0  0  0  0  0  0  0  0  0  0
   -1.7607   -0.7044   -1.7944 H   0  0  0  0  0  0  0  0  0  0  0  0
   -2.7446   -1.0006   -0.3416 H   0  0  0  0  0  0  0  0  0  0  0  0
   -0.7899    1.9855   -1.5582 H   0  0  0  0  0  0  0  0  0  0  0  0
    1.6307    1.0156   -1.8150 H   0  0  0  0  0  0  0  0  0  0  0  0
    0.8235   -1.4554   -0.7230 H   0  0  0  0  0  0  0  0  0  0  0  0
    2.7055    0.5740    0.6178 H   0  0  0  0  0  0  0  0  0  0  0  0
    3.1132   -0.7702   -0.5114 H   0  0  0  0  0  0  0  0  0  0  0  0
    3.1947   -1.0231    2.0326 H   0  0  0  0  0  0  0  0  0  0  0  0
  1  2  1  0
  2  3  1  0
  2  4  1  0
  4  5  2  0
  5  6  1  0
  6  7  1  0
  7  8  1  0
  6  9  1  0
  9  2  1  0
  1 10  1  0
  1 11  1  0
  1 12  1  0
  3 13  1  0
  3 14  1  0
  3 15  1  0
  4 16  1  0
  5 17  1  0
  6 18  1  0
  7 19  1  0
  7 20  1  0
  8 21  1  0
M  END
