
     RDKit          3D

 23 24  0  0  0  0  0  0  0  0999 V2000
   -0.8064   -1.3911   -0.6440 C   0  0  0  0  0  0  0  0  0  0  0  0
   -0.7187   -0.2994    0.3859 C   0  0  0  0  0  0  0  0  0  0  0  0
    0.5199   -0.2425    0.9783 O   0  0  0  0  0  0  0  0  0  0  0  0
    1.5624   -0.0064    0.1181 C   0  0  0  0  0  0  0  0  0  0  0  0
    2.9081   -0.5636    0.3979 C   0  0  0  0  0  0  0  0  0  0  0  0
    2.6567    0.8780    0.7023 C   0  0  0  0  0  0  0  0  0  0  0  0
   -1.8119   -0.3901    1.4335 C   0  0  0  0  0  0  0  0  0  0  0  0
   -2.2690    1.0185    1.0558 C   0  0  0  0  0  0  0  0  0  0  0  0
   -1.2869    1.0258   -0.0736 C   0  0  0  0  0  0  0  0  0  0  0  0
    0.1925   -1.5836   -1.0391 H   0  0  0  0  0  0  0  0  0  0  0  0
   -1.4844   -1.0388   -1.4439 H   0  0  0  0  0  0  0  0  0  0  0  0
   -1.1871   -2.2962   -0.1299 H   0  0  0  0  0  0  0  0  0  0  0  0
    1.3189    0.1149   -0.9560 H   0  0  0  0  0  0  0  0  0  0  0  0
    3.0190   -1.2763    1.2280 H   0  0  0  0  0  0  0  0  0  0  0  0
    3.5944   -0.7897   -0.4538 H   0  0  0  0  0  0  0  0  0  0  0  0
    3.0163    1.6596    0.0073 H   0  0  0  0  0  0  0  0  0  0  0  0
    2.5676    1.2020    1.7587 H   0  0  0  0  0  0  0  0  0  0  0  0
   -1.4497   -0.4837    2.4794 H   0  0  0  0  0  0  0  0  0  0  0  0
   -2.5585   -1.1819    1.1917 H   0  0  0  0  0  0  0  0  0  0  0  0
   -2.0535    1.7071    1.8930 H   0  0  0  0  0  0  0  0  0  0  0  0
   -3.3383    1.0884    0.7688 H   0  0  0  0  0  0  0  0  0  0  0  0
   -1.8053    0.9664   -1.0549 H   0  0  0  0  0  0  0  0  0  0  0  0
   -0.5859    1.8824   -0.0021 H   0  0  0  0  0  0  0  0  0  0  0  0
  1  2  1  0
  2  3  1  0
  3  4  1  0
  4  5  1  0
  5  6  1  0
  2  7  1  0
  7  8  1  0
  8  9  1  0
  9  2  1  0
  6  4  1  0
  1 10  1  0
  1 11  1  0
  1 12  1  0
  4 13  1  0
  5 14  1  0
  5 15  1  0
  6 16  1  0
  6 17  1  0
  7 18  1  0
  7 19  1  0
  8 20  1  0
  8 21  1  0
  9 22  1  0
  9 23  1  0
M  END
