
     RDKit          3D

 23 24  0  0  0  0  0  0  0  0999 V2000
    1.5645   -1.1786   -0.6506 C   0  0  0  0  0  0  0  0  0  0  0  0
    0.6801   -0.0574   -0.1896 C   0  0  0  0  0  0  0  0  0  0  0  0
    1.4662    1.1460    0.2072 C   0  0  0  0  0  0  0  0  0  0  0  0
   -0.5037    0.1964   -1.1001 C   0  0  0  0  0  0  0  0  0  0  0  0
   -1.2680    1.2908   -0.4233 C   0  0  0  0  0  0  0  0  0  0  0  0
   -1.1539    0.8014    1.0364 C   0  0  0  0  0  0  0  0  0  0  0  0
   -0.4080   -0.4767    0.8046 C   0  0  0  0  0  0  0  0  0  0  0  0
   -0.0933   -1.2898    1.7956 O   0  0  0  0  0  0  0  0  0  0  0  0
   -1.1279   -1.0332   -0.4228 C   0  0  0  0  0  0  0  0  0  0  0  0
    1.6654   -1.1124   -1.7579 H   0  0  0  0  0  0  0  0  0  0  0  0
    1.2120   -2.1802   -0.3618 H   0  0  0  0  0  0  0  0  0  0  0  0
    2.6023   -1.0869   -0.2541 H   0  0  0  0  0  0  0  0  0  0  0  0
    1.1613    2.0770   -0.3088 H   0  0  0  0  0  0  0  0  0  0  0  0
    1.3656    1.2577    1.3201 H   0  0  0  0  0  0  0  0  0  0  0  0
    2.5611    1.0215   -0.0239 H   0  0  0  0  0  0  0  0  0  0  0  0
   -0.3769    0.1744   -2.1471 H   0  0  0  0  0  0  0  0  0  0  0  0
   -0.8658    2.2907   -0.5504 H   0  0  0  0  0  0  0  0  0  0  0  0
   -2.3366    1.1946   -0.7564 H   0  0  0  0  0  0  0  0  0  0  0  0
   -0.6317    1.5278    1.6624 H   0  0  0  0  0  0  0  0  0  0  0  0
   -2.1384    0.5802    1.4624 H   0  0  0  0  0  0  0  0  0  0  0  0
   -0.3716   -2.2300    1.7643 H   0  0  0  0  0  0  0  0  0  0  0  0
   -0.7743   -1.9913   -0.7861 H   0  0  0  0  0  0  0  0  0  0  0  0
   -2.2284   -0.9218   -0.3202 H   0  0  0  0  0  0  0  0  0  0  0  0
  1  2  1  0
  2  3  1  0
  2  4  1  0
  4  5  1  0
  5  6  1  0
  6  7  1  0
  7  8  1  0
  7  9  1  0
  7  2  1  0
  9  4  1  0
  1 10  1  0
  1 11  1  0
  1 12  1  0
  3 13  1  0
  3 14  1  0
  3 15  1  0
  4 16  1  0
  5 17  1  0
  5 18  1  0
  6 19  1  0
  6 20  1  0
  8 21  1  0
  9 22  1  0
  9 23  1  0
M  END
