
     RDKit          3D

 17 17  0  0  0  0  0  0  0  0999 V2000
   -1.3924   -1.0191    0.7806 C   0  0  0  0  0  0  0  0  0  0  0  0
   -0.5344   -0.1482   -0.0828 C   0  0  0  0  0  0  0  0  0  0  0  0
   -1.2587    0.8055   -0.9587 C   0  0  0  0  0  0  0  0  0  0  0  0
   -1.7815    1.7809   -0.4720 O   0  0  0  0  0  0  0  0  0  0  0  0
    0.5786    0.5943    0.6725 C   0  0  0  0  0  0  0  0  0  0  0  0
    1.2952    0.4612   -0.6821 C   0  0  0  0  0  0  0  0  0  0  0  0
    2.6561    0.4067   -0.6157 O   0  0  0  0  0  0  0  0  0  0  0  0
    0.5670   -0.8238   -0.8064 C   0  0  0  0  0  0  0  0  0  0  0  0
    0.8151   -1.8987   -1.2904 O   0  0  0  0  0  0  0  0  0  0  0  0
   -0.9818   -2.0229    0.8774 H   0  0  0  0  0  0  0  0  0  0  0  0
   -2.3791   -1.1257    0.2542 H   0  0  0  0  0  0  0  0  0  0  0  0
   -1.5633   -0.5687    1.7810 H   0  0  0  0  0  0  0  0  0  0  0  0
   -1.2992    0.6008   -2.0128 H   0  0  0  0  0  0  0  0  0  0  0  0
    0.3271    1.6228    0.9498 H   0  0  0  0  0  0  0  0  0  0  0  0
    1.0948   -0.0288    1.4138 H   0  0  0  0  0  0  0  0  0  0  0  0
    0.8698    1.2669   -1.3451 H   0  0  0  0  0  0  0  0  0  0  0  0
    2.9869    0.0969    0.2427 H   0  0  0  0  0  0  0  0  0  0  0  0
  1  2  1  0
  2  3  1  0
  3  4  2  0
  2  5  1  0
  5  6  1  0
  6  7  1  0
  6  8  1  0
  8  9  2  0
  8  2  1  0
  1 10  1  0
  1 11  1  0
  1 12  1  0
  3 13  1  0
  5 14  1  0
  5 15  1  0
  6 16  1  0
  7 17  1  0
M  END
