
     RDKit          3D

 23 24  0  0  0  0  0  0  0  0999 V2000
   -1.2749    1.0041    1.1394 C   0  0  0  0  0  0  0  0  0  0  0  0
   -0.9333   -0.0199    0.1071 C   0  0  0  0  0  0  0  0  0  0  0  0
   -2.1141   -0.6843   -0.5090 C   0  0  0  0  0  0  0  0  0  0  0  0
   -0.1033    0.6913   -0.9695 C   0  0  0  0  0  0  0  0  0  0  0  0
    1.2177    0.8593   -0.2197 C   0  0  0  0  0  0  0  0  0  0  0  0
    2.2766   -0.1825   -0.4827 C   0  0  0  0  0  0  0  0  0  0  0  0
    1.3705   -0.3193    0.6716 C   0  0  0  0  0  0  0  0  0  0  0  0
    1.9029   -0.1918    1.9483 O   0  0  0  0  0  0  0  0  0  0  0  0
    0.0671   -1.0372    0.6024 C   0  0  0  0  0  0  0  0  0  0  0  0
   -1.8404    1.8235    0.6775 H   0  0  0  0  0  0  0  0  0  0  0  0
   -0.3035    1.4592    1.4805 H   0  0  0  0  0  0  0  0  0  0  0  0
   -1.7678    0.6116    2.0364 H   0  0  0  0  0  0  0  0  0  0  0  0
   -2.7056    0.0108   -1.1405 H   0  0  0  0  0  0  0  0  0  0  0  0
   -1.7355   -1.4707   -1.2048 H   0  0  0  0  0  0  0  0  0  0  0  0
   -2.7175   -1.1668    0.2676 H   0  0  0  0  0  0  0  0  0  0  0  0
    0.0112   -0.0118   -1.8038 H   0  0  0  0  0  0  0  0  0  0  0  0
   -0.5580    1.6542   -1.2303 H   0  0  0  0  0  0  0  0  0  0  0  0
    1.4885    1.8636    0.1236 H   0  0  0  0  0  0  0  0  0  0  0  0
    3.3046    0.1756   -0.2398 H   0  0  0  0  0  0  0  0  0  0  0  0
    2.1939   -0.7742   -1.3996 H   0  0  0  0  0  0  0  0  0  0  0  0
    2.3815   -1.0430    2.1724 H   0  0  0  0  0  0  0  0  0  0  0  0
   -0.2802   -1.3827    1.5917 H   0  0  0  0  0  0  0  0  0  0  0  0
    0.1195   -1.8692   -0.1332 H   0  0  0  0  0  0  0  0  0  0  0  0
  1  2  1  0
  2  3  1  0
  2  4  1  0
  4  5  1  0
  5  6  1  0
  6  7  1  0
  7  8  1  0
  7  9  1  0
  9  2  1  0
  7  5  1  0
  1 10  1  0
  1 11  1  0
  1 12  1  0
  3 13  1  0
  3 14  1  0
  3 15  1  0
  4 16  1  0
  4 17  1  0
  5 18  1  0
  6 19  1  0
  6 20  1  0
  8 21  1  0
  9 22  1  0
  9 23  1  0
M  END
