
     RDKit          3D

 21 22  0  0  0  0  0  0  0  0999 V2000
   -2.2120   -0.3300   -0.2129 C   0  0  0  0  0  0  0  0  0  0  0  0
   -0.8571    0.2436   -0.1245 C   0  0  0  0  0  0  0  0  0  0  0  0
   -0.7941    1.1189    1.0093 C   0  0  0  0  0  0  0  0  0  0  0  0
   -0.3961   -0.0875   -1.4656 C   0  0  0  0  0  0  0  0  0  0  0  0
    0.5047    0.1260   -0.4933 C   0  0  0  0  0  0  0  0  0  0  0  0
    1.3369    1.2579   -0.6261 O   0  0  0  0  0  0  0  0  0  0  0  0
    1.2967   -1.0272    0.1396 C   0  0  0  0  0  0  0  0  0  0  0  0
    2.6653   -0.7710    0.6974 C   0  0  0  0  0  0  0  0  0  0  0  0
    2.4149   -1.4996   -0.5011 O   0  0  0  0  0  0  0  0  0  0  0  0
   -2.8770    0.2485   -0.9198 H   0  0  0  0  0  0  0  0  0  0  0  0
   -2.7870   -0.3200    0.7351 H   0  0  0  0  0  0  0  0  0  0  0  0
   -2.2697   -1.4336   -0.4726 H   0  0  0  0  0  0  0  0  0  0  0  0
   -1.0460    0.5023    1.9326 H   0  0  0  0  0  0  0  0  0  0  0  0
   -1.6694    1.8479    0.9783 H   0  0  0  0  0  0  0  0  0  0  0  0
    0.0257    1.7443    1.3190 H   0  0  0  0  0  0  0  0  0  0  0  0
   -0.4574   -1.1196   -1.8889 H   0  0  0  0  0  0  0  0  0  0  0  0
   -0.5290    0.6431   -2.3250 H   0  0  0  0  0  0  0  0  0  0  0  0
    0.7381    2.0425   -0.5737 H   0  0  0  0  0  0  0  0  0  0  0  0
    0.7020   -1.7464    0.7758 H   0  0  0  0  0  0  0  0  0  0  0  0
    3.0268   -1.3131    1.5733 H   0  0  0  0  0  0  0  0  0  0  0  0
    3.1836    0.1964    0.4430 H   0  0  0  0  0  0  0  0  0  0  0  0
  1  2  1  0
  2  3  1  0
  2  4  1  0
  4  5  1  0
  5  6  1  0
  5  7  1  0
  7  8  1  0
  8  9  1  0
  5  2  1  0
  9  7  1  0
  1 10  1  0
  1 11  1  0
  1 12  1  0
  3 13  1  0
  3 14  1  0
  3 15  1  0
  4 16  1  0
  4 17  1  0
  6 18  1  0
  7 19  1  0
  8 20  1  0
  8 21  1  0
M  END
