
     RDKit          3D

 20 21  0  0  0  0  0  0  0  0999 V2000
    1.7715    0.5180    0.8233 C   0  0  0  0  0  0  0  0  0  0  0  0
    1.2231   -0.3997   -0.2121 C   0  0  0  0  0  0  0  0  0  0  0  0
    2.0989   -1.2180   -0.8725 O   0  0  0  0  0  0  0  0  0  0  0  0
   -0.0044   -1.1709    0.2968 C   0  0  0  0  0  0  0  0  0  0  0  0
   -0.8115   -0.0207   -0.1753 C   0  0  0  0  0  0  0  0  0  0  0  0
   -2.2280    0.0578   -0.3123 C   0  0  0  0  0  0  0  0  0  0  0  0
   -1.4786    0.8563    0.7790 C   0  0  0  0  0  0  0  0  0  0  0  0
    0.2421    0.3640   -1.1164 C   0  0  0  0  0  0  0  0  0  0  0  0
    1.1880    0.4227    1.7722 H   0  0  0  0  0  0  0  0  0  0  0  0
    2.8314    0.2750    1.0036 H   0  0  0  0  0  0  0  0  0  0  0  0
    1.6395    1.5920    0.5198 H   0  0  0  0  0  0  0  0  0  0  0  0
    1.6147   -1.5606   -1.6907 H   0  0  0  0  0  0  0  0  0  0  0  0
   -0.0240   -1.3279    1.3820 H   0  0  0  0  0  0  0  0  0  0  0  0
   -0.1617   -2.1008   -0.2650 H   0  0  0  0  0  0  0  0  0  0  0  0
   -2.8619   -0.7817    0.0209 H   0  0  0  0  0  0  0  0  0  0  0  0
   -2.6495    0.6985   -1.1367 H   0  0  0  0  0  0  0  0  0  0  0  0
   -1.5519    0.4810    1.8184 H   0  0  0  0  0  0  0  0  0  0  0  0
   -1.3863    1.9446    0.6395 H   0  0  0  0  0  0  0  0  0  0  0  0
    0.1370   -0.0796   -2.1254 H   0  0  0  0  0  0  0  0  0  0  0  0
    0.4117    1.4501   -1.1491 H   0  0  0  0  0  0  0  0  0  0  0  0
  1  2  1  0
  2  3  1  0
  2  4  1  0
  4  5  1  0
  5  6  1  0
  6  7  1  0
  5  8  1  0
  8  2  1  0
  7  5  1  0
  1  9  1  0
  1 10  1  0
  1 11  1  0
  3 12  1  0
  4 13  1  0
  4 14  1  0
  6 15  1  0
  6 16  1  0
  7 17  1  0
  7 18  1  0
  8 19  1  0
  8 20  1  0
M  END
