
     RDKit          3D

 19 20  0  0  0  0  0  0  0  0999 V2000
    1.9588   -0.3816    0.5487 C   0  0  0  0  0  0  0  0  0  0  0  0
    0.7795   -0.1054   -0.3217 C   0  0  0  0  0  0  0  0  0  0  0  0
    0.9955   -0.6019   -1.6301 O   0  0  0  0  0  0  0  0  0  0  0  0
    0.5126    1.3459   -0.4765 C   0  0  0  0  0  0  0  0  0  0  0  0
   -0.7785    1.5953   -0.3410 C   0  0  0  0  0  0  0  0  0  0  0  0
   -1.5040    0.3318   -0.0816 C   0  0  0  0  0  0  0  0  0  0  0  0
   -2.5876    0.0020   -0.8513 O   0  0  0  0  0  0  0  0  0  0  0  0
   -1.2850   -0.2406    1.2742 C   0  0  0  0  0  0  0  0  0  0  0  0
   -0.4948   -0.7385    0.1485 C   0  0  0  0  0  0  0  0  0  0  0  0
    2.6012   -1.1348    0.0224 H   0  0  0  0  0  0  0  0  0  0  0  0
    2.6159    0.5277    0.6421 H   0  0  0  0  0  0  0  0  0  0  0  0
    1.6469   -0.7622    1.5257 H   0  0  0  0  0  0  0  0  0  0  0  0
    1.5435   -1.4008   -1.5841 H   0  0  0  0  0  0  0  0  0  0  0  0
    1.2573    2.0982   -0.6716 H   0  0  0  0  0  0  0  0  0  0  0  0
   -1.2140    2.5823   -0.4130 H   0  0  0  0  0  0  0  0  0  0  0  0
   -2.4850   -0.8790   -1.3261 H   0  0  0  0  0  0  0  0  0  0  0  0
   -2.0840   -0.8751    1.6520 H   0  0  0  0  0  0  0  0  0  0  0  0
   -0.8276    0.4096    2.0564 H   0  0  0  0  0  0  0  0  0  0  0  0
   -0.6506   -1.7729   -0.1730 H   0  0  0  0  0  0  0  0  0  0  0  0
  1  2  1  0
  2  3  1  0
  2  4  1  0
  4  5  2  0
  5  6  1  0
  6  7  1  0
  6  8  1  0
  8  9  1  0
  9  2  1  0
  9  6  1  0
  1 10  1  0
  1 11  1  0
  1 12  1  0
  3 13  1  0
  4 14  1  0
  5 15  1  0
  7 16  1  0
  8 17  1  0
  8 18  1  0
  9 19  1  0
M  END
