
     RDKit          3D

 18 19  0  0  0  0  0  0  0  0999 V2000
   -1.5988   -0.7879   -0.1870 C   0  0  0  0  0  0  0  0  0  0  0  0
   -0.4468    0.1211    0.0719 C   0  0  0  0  0  0  0  0  0  0  0  0
   -0.9805    1.5608    0.0584 C   0  0  0  0  0  0  0  0  0  0  0  0
    0.1690   -0.0671    1.2778 O   0  0  0  0  0  0  0  0  0  0  0  0
    1.3873   -0.6644    1.0829 C   0  0  0  0  0  0  0  0  0  0  0  0
    1.9275   -0.2377   -0.2453 C   0  0  0  0  0  0  0  0  0  0  0  0
    1.6421    0.9682   -0.8027 O   0  0  0  0  0  0  0  0  0  0  0  0
    0.6195    0.0628   -0.9920 C   0  0  0  0  0  0  0  0  0  0  0  0
   -2.2286   -0.3881   -1.0092 H   0  0  0  0  0  0  0  0  0  0  0  0
   -2.2189   -0.8316    0.7312 H   0  0  0  0  0  0  0  0  0  0  0  0
   -1.3025   -1.8137   -0.4921 H   0  0  0  0  0  0  0  0  0  0  0  0
   -1.9193    1.6161   -0.5427 H   0  0  0  0  0  0  0  0  0  0  0  0
   -1.2420    1.8995    1.0741 H   0  0  0  0  0  0  0  0  0  0  0  0
   -0.2059    2.2616   -0.3263 H   0  0  0  0  0  0  0  0  0  0  0  0
    1.1921   -1.7734    0.9855 H   0  0  0  0  0  0  0  0  0  0  0  0
    2.0603   -0.4795    1.9324 H   0  0  0  0  0  0  0  0  0  0  0  0
    2.6468   -0.9338   -0.7190 H   0  0  0  0  0  0  0  0  0  0  0  0
    0.4986   -0.5130   -1.8977 H   0  0  0  0  0  0  0  0  0  0  0  0
  1  2  1  0
  2  3  1  0
  2  4  1  0
  4  5  1  0
  5  6  1  0
  6  7  1  0
  7  8  1  0
  8  2  1  0
  8  6  1  0
  1  9  1  0
  1 10  1  0
  1 11  1  0
  3 12  1  0
  3 13  1  0
  3 14  1  0
  5 15  1  0
  5 16  1  0
  6 17  1  0
  8 18  1  0
M  END
