
     RDKit          3D

 19 19  0  0  0  0  0  0  0  0999 V2000
   -1.5684    0.5396    0.9877 C   0  0  0  0  0  0  0  0  0  0  0  0
   -0.9953    0.0784   -0.3266 C   0  0  0  0  0  0  0  0  0  0  0  0
   -1.6071    0.6877   -1.5256 C   0  0  0  0  0  0  0  0  0  0  0  0
   -1.2485    0.4127   -2.6593 O   0  0  0  0  0  0  0  0  0  0  0  0
   -0.4670   -1.3104   -0.3605 C   0  0  0  0  0  0  0  0  0  0  0  0
    0.4723   -0.1697   -0.4452 C   0  0  0  0  0  0  0  0  0  0  0  0
    1.3865    0.1739    0.7043 C   0  0  0  0  0  0  0  0  0  0  0  0
    2.7698   -0.1661    0.3306 C   0  0  0  0  0  0  0  0  0  0  0  0
    3.3917    0.5646   -0.4166 O   0  0  0  0  0  0  0  0  0  0  0  0
   -2.6128    0.1344    1.0445 H   0  0  0  0  0  0  0  0  0  0  0  0
   -1.0318    0.0510    1.8445 H   0  0  0  0  0  0  0  0  0  0  0  0
   -1.5969    1.6327    1.0794 H   0  0  0  0  0  0  0  0  0  0  0  0
   -2.4051    1.4074   -1.4111 H   0  0  0  0  0  0  0  0  0  0  0  0
   -0.6462   -1.9677   -1.2547 H   0  0  0  0  0  0  0  0  0  0  0  0
   -0.4539   -1.8668    0.5963 H   0  0  0  0  0  0  0  0  0  0  0  0
    0.9634   -0.0500   -1.4372 H   0  0  0  0  0  0  0  0  0  0  0  0
    1.1375   -0.3584    1.6384 H   0  0  0  0  0  0  0  0  0  0  0  0
    1.2465    1.2608    0.9123 H   0  0  0  0  0  0  0  0  0  0  0  0
    3.2656   -1.0540    0.6988 H   0  0  0  0  0  0  0  0  0  0  0  0
  1  2  1  0
  2  3  1  0
  3  4  2  0
  2  5  1  0
  5  6  1  0
  6  7  1  0
  7  8  1  0
  8  9  2  0
  6  2  1  0
  1 10  1  0
  1 11  1  0
  1 12  1  0
  3 13  1  0
  5 14  1  0
  5 15  1  0
  6 16  1  0
  7 17  1  0
  7 18  1  0
  8 19  1  0
M  END
