
     RDKit          3D

 23 23  0  0  0  0  0  0  0  0999 V2000
   -1.3200    1.1080    0.9403 C   0  0  0  0  0  0  0  0  0  0  0  0
   -1.1477   -0.2170    0.2340 C   0  0  0  0  0  0  0  0  0  0  0  0
   -2.4455   -0.9723   -0.0261 C   0  0  0  0  0  0  0  0  0  0  0  0
   -0.0163   -1.0825    0.6728 C   0  0  0  0  0  0  0  0  0  0  0  0
   -0.0271   -0.4196   -0.7016 C   0  0  0  0  0  0  0  0  0  0  0  0
    1.0300    0.5765   -0.9940 C   0  0  0  0  0  0  0  0  0  0  0  0
    1.9573    0.0936   -1.9524 O   0  0  0  0  0  0  0  0  0  0  0  0
    1.8798    0.9537    0.1904 C   0  0  0  0  0  0  0  0  0  0  0  0
    2.6077   -0.1494    0.6351 O   0  0  0  0  0  0  0  0  0  0  0  0
   -0.8181    1.1171    1.9459 H   0  0  0  0  0  0  0  0  0  0  0  0
   -2.3985    1.3473    1.0319 H   0  0  0  0  0  0  0  0  0  0  0  0
   -0.8982    1.9150    0.2908 H   0  0  0  0  0  0  0  0  0  0  0  0
   -2.9631   -1.1302    0.9418 H   0  0  0  0  0  0  0  0  0  0  0  0
   -2.2139   -1.9385   -0.5272 H   0  0  0  0  0  0  0  0  0  0  0  0
   -3.1302   -0.4033   -0.6871 H   0  0  0  0  0  0  0  0  0  0  0  0
    0.5862   -0.6975    1.4887 H   0  0  0  0  0  0  0  0  0  0  0  0
   -0.1575   -2.1976    0.7136 H   0  0  0  0  0  0  0  0  0  0  0  0
   -0.1648   -1.1604   -1.5425 H   0  0  0  0  0  0  0  0  0  0  0  0
    0.6480    1.5191   -1.4462 H   0  0  0  0  0  0  0  0  0  0  0  0
    1.9351   -0.8999   -1.8266 H   0  0  0  0  0  0  0  0  0  0  0  0
    2.6363    1.6928   -0.2046 H   0  0  0  0  0  0  0  0  0  0  0  0
    1.3482    1.4668    0.9863 H   0  0  0  0  0  0  0  0  0  0  0  0
    3.0724   -0.5214   -0.1633 H   0  0  0  0  0  0  0  0  0  0  0  0
  1  2  1  0
  2  3  1  0
  2  4  1  0
  4  5  1  0
  5  6  1  0
  6  7  1  0
  6  8  1  0
  8  9  1  0
  5  2  1  0
  1 10  1  0
  1 11  1  0
  1 12  1  0
  3 13  1  0
  3 14  1  0
  3 15  1  0
  4 16  1  0
  4 17  1  0
  5 18  1  0
  6 19  1  0
  7 20  1  0
  8 21  1  0
  8 22  1  0
  9 23  1  0
M  END
