
     RDKit          3D

 21 21  0  0  0  0  0  0  0  0999 V2000
    2.1638   -0.8720    0.3180 C   0  0  0  0  0  0  0  0  0  0  0  0
    1.1875    0.2101   -0.0810 C   0  0  0  0  0  0  0  0  0  0  0  0
    1.8085    1.3107   -0.6386 O   0  0  0  0  0  0  0  0  0  0  0  0
    0.0740   -0.3992   -0.9187 C   0  0  0  0  0  0  0  0  0  0  0  0
   -0.8834   -0.0379    0.1909 C   0  0  0  0  0  0  0  0  0  0  0  0
   -1.9545    0.8841   -0.3492 C   0  0  0  0  0  0  0  0  0  0  0  0
   -1.4924   -1.1638    0.9136 C   0  0  0  0  0  0  0  0  0  0  0  0
   -2.5010   -0.9321    1.5775 O   0  0  0  0  0  0  0  0  0  0  0  0
    0.2093    0.6166    0.9716 C   0  0  0  0  0  0  0  0  0  0  0  0
    2.6806   -1.1916   -0.6338 H   0  0  0  0  0  0  0  0  0  0  0  0
    1.6573   -1.7578    0.7020 H   0  0  0  0  0  0  0  0  0  0  0  0
    2.9540   -0.5237    0.9875 H   0  0  0  0  0  0  0  0  0  0  0  0
    1.3691    2.1402   -0.3753 H   0  0  0  0  0  0  0  0  0  0  0  0
   -0.0379    0.2084   -1.8501 H   0  0  0  0  0  0  0  0  0  0  0  0
    0.1631   -1.4599   -1.1380 H   0  0  0  0  0  0  0  0  0  0  0  0
   -2.7754    1.0467    0.3639 H   0  0  0  0  0  0  0  0  0  0  0  0
   -1.5069    1.8336   -0.7207 H   0  0  0  0  0  0  0  0  0  0  0  0
   -2.3898    0.3383   -1.2362 H   0  0  0  0  0  0  0  0  0  0  0  0
   -1.1373   -2.1804    0.9175 H   0  0  0  0  0  0  0  0  0  0  0  0
    0.0103    1.7212    1.0525 H   0  0  0  0  0  0  0  0  0  0  0  0
    0.4012    0.2084    1.9900 H   0  0  0  0  0  0  0  0  0  0  0  0
  1  2  1  0
  2  3  1  0
  2  4  1  0
  4  5  1  0
  5  6  1  0
  5  7  1  0
  7  8  2  0
  5  9  1  0
  9  2  1  0
  1 10  1  0
  1 11  1  0
  1 12  1  0
  3 13  1  0
  4 14  1  0
  4 15  1  0
  6 16  1  0
  6 17  1  0
  6 18  1  0
  7 19  1  0
  9 20  1  0
  9 21  1  0
M  END
