
     RDKit          3D

 17 18  0  0  0  0  0  0  0  0999 V2000
   -2.0498   -0.8899   -0.5193 C   0  0  0  0  0  0  0  0  0  0  0  0
   -1.0224   -0.0053    0.1750 C   0  0  0  0  0  0  0  0  0  0  0  0
    0.3345   -0.5625    0.2047 C   0  0  0  0  0  0  0  0  0  0  0  0
    0.5162   -1.7560    0.0238 O   0  0  0  0  0  0  0  0  0  0  0  0
    1.5474    0.2601    0.4495 C   0  0  0  0  0  0  0  0  0  0  0  0
    2.8232   -0.2398   -0.1851 C   0  0  0  0  0  0  0  0  0  0  0  0
    2.5724   -0.3650    1.1663 O   0  0  0  0  0  0  0  0  0  0  0  0
   -1.2976    1.4340    0.1668 C   0  0  0  0  0  0  0  0  0  0  0  0
   -1.3917    0.5928    1.3799 O   0  0  0  0  0  0  0  0  0  0  0  0
   -1.7265   -1.9290   -0.5866 H   0  0  0  0  0  0  0  0  0  0  0  0
   -2.0914   -0.5178   -1.5847 H   0  0  0  0  0  0  0  0  0  0  0  0
   -3.0564   -0.7584   -0.0760 H   0  0  0  0  0  0  0  0  0  0  0  0
    1.4124    1.3631    0.6174 H   0  0  0  0  0  0  0  0  0  0  0  0
    3.5263    0.5753   -0.4899 H   0  0  0  0  0  0  0  0  0  0  0  0
    2.7356   -1.1383   -0.8529 H   0  0  0  0  0  0  0  0  0  0  0  0
   -2.3308    1.7446   -0.1092 H   0  0  0  0  0  0  0  0  0  0  0  0
   -0.5014    2.1920    0.2203 H   0  0  0  0  0  0  0  0  0  0  0  0
  1  2  1  0
  2  3  1  0
  3  4  2  0
  3  5  1  0
  5  6  1  0
  6  7  1  0
  2  8  1  0
  8  9  1  0
  9  2  1  0
  7  5  1  0
  1 10  1  0
  1 11  1  0
  1 12  1  0
  5 13  1  0
  6 14  1  0
  6 15  1  0
  8 16  1  0
  8 17  1  0
M  END
