
     RDKit          3D

 13 13  0  0  0  0  0  0  0  0999 V2000
    1.4532    0.0798   -0.0778 C   0  0  0  0  0  0  0  0  0  0  0  0
   -0.0246   -0.0647   -0.2449 C   0  0  0  0  0  0  0  0  0  0  0  0
   -0.8427    1.1498    0.0787 C   0  0  0  0  0  0  0  0  0  0  0  0
   -0.6826   -1.3980    0.0815 C   0  0  0  0  0  0  0  0  0  0  0  0
   -0.4400   -0.9533   -1.2191 O   0  0  0  0  0  0  0  0  0  0  0  0
    1.9710   -0.9103   -0.0530 H   0  0  0  0  0  0  0  0  0  0  0  0
    1.6542    0.6885    0.8249 H   0  0  0  0  0  0  0  0  0  0  0  0
    1.8840    0.6031   -0.9706 H   0  0  0  0  0  0  0  0  0  0  0  0
   -1.3410    0.9512    1.0699 H   0  0  0  0  0  0  0  0  0  0  0  0
   -1.6631    1.3178   -0.6399 H   0  0  0  0  0  0  0  0  0  0  0  0
   -0.2271    2.0625    0.2471 H   0  0  0  0  0  0  0  0  0  0  0  0
   -1.7461   -1.4134    0.3451 H   0  0  0  0  0  0  0  0  0  0  0  0
    0.0048   -2.1131    0.5580 H   0  0  0  0  0  0  0  0  0  0  0  0
  1  2  1  0
  2  3  1  0
  2  4  1  0
  4  5  1  0
  5  2  1  0
  1  6  1  0
  1  7  1  0
  1  8  1  0
  3  9  1  0
  3 10  1  0
  3 11  1  0
  4 12  1  0
  4 13  1  0
M  END
