
     RDKit          3D

 21 23  0  0  0  0  0  0  0  0999 V2000
   -2.0202   -0.8766   -0.6912 C   0  0  0  0  0  0  0  0  0  0  0  0
   -1.1401    0.1199    0.0308 C   0  0  0  0  0  0  0  0  0  0  0  0
    0.3095    0.0655   -0.3413 C   0  0  0  0  0  0  0  0  0  0  0  0
    1.1020   -1.1807   -0.1350 C   0  0  0  0  0  0  0  0  0  0  0  0
    2.3002   -0.3507    0.3372 C   0  0  0  0  0  0  0  0  0  0  0  0
    1.3460    0.8464    0.3299 C   0  0  0  0  0  0  0  0  0  0  0  0
    0.8781    1.2510   -1.0110 C   0  0  0  0  0  0  0  0  0  0  0  0
   -1.6239    0.6523    1.2840 C   0  0  0  0  0  0  0  0  0  0  0  0
   -1.6518    1.4574    0.1483 O   0  0  0  0  0  0  0  0  0  0  0  0
   -1.8922   -1.8573   -0.1691 H   0  0  0  0  0  0  0  0  0  0  0  0
   -3.0832   -0.6002   -0.5947 H   0  0  0  0  0  0  0  0  0  0  0  0
   -1.7046   -1.0513   -1.7383 H   0  0  0  0  0  0  0  0  0  0  0  0
    0.7264   -1.7913    0.7345 H   0  0  0  0  0  0  0  0  0  0  0  0
    1.3013   -1.7756   -1.0521 H   0  0  0  0  0  0  0  0  0  0  0  0
    2.6829   -0.6163    1.3246 H   0  0  0  0  0  0  0  0  0  0  0  0
    3.0522   -0.3184   -0.4906 H   0  0  0  0  0  0  0  0  0  0  0  0
    1.2159    1.4352    1.2319 H   0  0  0  0  0  0  0  0  0  0  0  0
    1.5739    1.1403   -1.8932 H   0  0  0  0  0  0  0  0  0  0  0  0
    0.2531    2.1451   -1.0650 H   0  0  0  0  0  0  0  0  0  0  0  0
   -0.9815    0.9611    2.1380 H   0  0  0  0  0  0  0  0  0  0  0  0
   -2.6439    0.3440    1.6221 H   0  0  0  0  0  0  0  0  0  0  0  0
  1  2  1  0
  2  3  1  0
  3  4  1  0
  4  5  1  0
  5  6  1  0
  6  7  1  0
  2  8  1  0
  8  9  1  0
  9  2  1  0
  6  3  1  0
  7  3  1  0
  1 10  1  0
  1 11  1  0
  1 12  1  0
  4 13  1  0
  4 14  1  0
  5 15  1  0
  5 16  1  0
  6 17  1  0
  7 18  1  0
  7 19  1  0
  8 20  1  0
  8 21  1  0
M  END
