
     RDKit          3D

 23 24  0  0  0  0  0  0  0  0999 V2000
   -0.9003    0.0211   -1.7160 C   0  0  0  0  0  0  0  0  0  0  0  0
   -0.8205   -0.0239   -0.2251 C   0  0  0  0  0  0  0  0  0  0  0  0
   -2.1596    0.0763    0.4210 C   0  0  0  0  0  0  0  0  0  0  0  0
    0.2279    0.9091    0.3876 C   0  0  0  0  0  0  0  0  0  0  0  0
    1.4609    0.9045   -0.4587 C   0  0  0  0  0  0  0  0  0  0  0  0
    1.9945   -0.4759   -0.6406 C   0  0  0  0  0  0  0  0  0  0  0  0
    1.0949   -1.4817   -0.4284 O   0  0  0  0  0  0  0  0  0  0  0  0
    0.0129   -1.1566    0.3484 C   0  0  0  0  0  0  0  0  0  0  0  0
    0.4018   -0.1727    1.4636 C   0  0  0  0  0  0  0  0  0  0  0  0
   -1.5037    0.8833   -2.0085 H   0  0  0  0  0  0  0  0  0  0  0  0
   -1.4699   -0.8878   -2.0422 H   0  0  0  0  0  0  0  0  0  0  0  0
    0.0605   -0.0159   -2.2351 H   0  0  0  0  0  0  0  0  0  0  0  0
   -2.1116    0.8468    1.2062 H   0  0  0  0  0  0  0  0  0  0  0  0
   -2.9409    0.3193   -0.3350 H   0  0  0  0  0  0  0  0  0  0  0  0
   -2.4220   -0.9277    0.8208 H   0  0  0  0  0  0  0  0  0  0  0  0
   -0.1442    1.8627    0.7442 H   0  0  0  0  0  0  0  0  0  0  0  0
    1.2688    1.4199   -1.4332 H   0  0  0  0  0  0  0  0  0  0  0  0
    2.2325    1.5348    0.0495 H   0  0  0  0  0  0  0  0  0  0  0  0
    2.3396   -0.5578   -1.7143 H   0  0  0  0  0  0  0  0  0  0  0  0
    2.9472   -0.6266   -0.0516 H   0  0  0  0  0  0  0  0  0  0  0  0
   -0.5561   -2.0202    0.6785 H   0  0  0  0  0  0  0  0  0  0  0  0
    1.4136   -0.2867    1.8448 H   0  0  0  0  0  0  0  0  0  0  0  0
   -0.4262   -0.1443    2.2013 H   0  0  0  0  0  0  0  0  0  0  0  0
  1  2  1  0
  2  3  1  0
  2  4  1  0
  4  5  1  0
  5  6  1  0
  6  7  1  0
  7  8  1  0
  8  9  1  0
  8  2  1  0
  9  4  1  0
  1 10  1  0
  1 11  1  0
  1 12  1  0
  3 13  1  0
  3 14  1  0
  3 15  1  0
  4 16  1  0
  5 17  1  0
  5 18  1  0
  6 19  1  0
  6 20  1  0
  8 21  1  0
  9 22  1  0
  9 23  1  0
M  END
