
     RDKit          3D

 23 23  0  0  0  0  0  0  0  0999 V2000
   -1.9322    0.9048   -0.5371 C   0  0  0  0  0  0  0  0  0  0  0  0
   -0.8400   -0.0120   -0.0216 C   0  0  0  0  0  0  0  0  0  0  0  0
   -1.5251   -1.2205    0.6319 C   0  0  0  0  0  0  0  0  0  0  0  0
   -0.0441    0.6382    1.0411 C   0  0  0  0  0  0  0  0  0  0  0  0
    1.2298    1.0161    1.0065 C   0  0  0  0  0  0  0  0  0  0  0  0
    2.2724    0.9479   -0.0101 C   0  0  0  0  0  0  0  0  0  0  0  0
    2.3076   -0.2291   -0.7389 O   0  0  0  0  0  0  0  0  0  0  0  0
    1.2896   -1.1018   -0.4596 C   0  0  0  0  0  0  0  0  0  0  0  0
    0.0287   -0.5420   -1.1114 C   0  0  0  0  0  0  0  0  0  0  0  0
   -2.8765    0.6826   -0.0053 H   0  0  0  0  0  0  0  0  0  0  0  0
   -1.6846    1.9653   -0.3175 H   0  0  0  0  0  0  0  0  0  0  0  0
   -2.1155    0.7249   -1.6056 H   0  0  0  0  0  0  0  0  0  0  0  0
   -2.3633   -0.9190    1.2725 H   0  0  0  0  0  0  0  0  0  0  0  0
   -0.7607   -1.8390    1.1575 H   0  0  0  0  0  0  0  0  0  0  0  0
   -1.8955   -1.8410   -0.2162 H   0  0  0  0  0  0  0  0  0  0  0  0
   -0.6099    0.8120    1.9509 H   0  0  0  0  0  0  0  0  0  0  0  0
    1.5425    1.4700    1.9401 H   0  0  0  0  0  0  0  0  0  0  0  0
    3.2660    1.0454    0.4730 H   0  0  0  0  0  0  0  0  0  0  0  0
    2.2212    1.8044   -0.7414 H   0  0  0  0  0  0  0  0  0  0  0  0
    1.5128   -2.1005   -0.8285 H   0  0  0  0  0  0  0  0  0  0  0  0
    1.1771   -1.1727    0.6436 H   0  0  0  0  0  0  0  0  0  0  0  0
   -0.4599   -1.3287   -1.7206 H   0  0  0  0  0  0  0  0  0  0  0  0
    0.2596    0.2945   -1.8033 H   0  0  0  0  0  0  0  0  0  0  0  0
  1  2  1  0
  2  3  1  0
  2  4  1  0
  4  5  2  0
  5  6  1  0
  6  7  1  0
  7  8  1  0
  8  9  1  0
  9  2  1  0
  1 10  1  0
  1 11  1  0
  1 12  1  0
  3 13  1  0
  3 14  1  0
  3 15  1  0
  4 16  1  0
  5 17  1  0
  6 18  1  0
  6 19  1  0
  8 20  1  0
  8 21  1  0
  9 22  1  0
  9 23  1  0
M  END
