
     RDKit          3D

 23 24  0  0  0  0  0  0  0  0999 V2000
   -0.4623   -0.9483    1.4254 C   0  0  0  0  0  0  0  0  0  0  0  0
   -0.5378   -0.2782    0.0737 C   0  0  0  0  0  0  0  0  0  0  0  0
    0.7470   -0.3869   -0.6831 C   0  0  0  0  0  0  0  0  0  0  0  0
    1.8330    0.2787    0.1274 C   0  0  0  0  0  0  0  0  0  0  0  0
    3.2128    0.3553   -0.3154 C   0  0  0  0  0  0  0  0  0  0  0  0
    2.7790   -0.5755    0.7595 O   0  0  0  0  0  0  0  0  0  0  0  0
   -1.7965   -0.5704   -0.7107 C   0  0  0  0  0  0  0  0  0  0  0  0
   -2.4541    0.5666    0.0892 C   0  0  0  0  0  0  0  0  0  0  0  0
   -1.0466    1.1694    0.1488 C   0  0  0  0  0  0  0  0  0  0  0  0
   -0.4186   -2.0409    1.2928 H   0  0  0  0  0  0  0  0  0  0  0  0
   -1.2807   -0.6611    2.1022 H   0  0  0  0  0  0  0  0  0  0  0  0
    0.4783   -0.5781    1.9041 H   0  0  0  0  0  0  0  0  0  0  0  0
    0.6078    0.0966   -1.6849 H   0  0  0  0  0  0  0  0  0  0  0  0
    0.9971   -1.4559   -0.7815 H   0  0  0  0  0  0  0  0  0  0  0  0
    1.4607    1.1414    0.7476 H   0  0  0  0  0  0  0  0  0  0  0  0
    3.8605    1.1430    0.0913 H   0  0  0  0  0  0  0  0  0  0  0  0
    3.6292   -0.2166   -1.1487 H   0  0  0  0  0  0  0  0  0  0  0  0
   -1.7080   -0.2423   -1.7513 H   0  0  0  0  0  0  0  0  0  0  0  0
   -2.2663   -1.5470   -0.5266 H   0  0  0  0  0  0  0  0  0  0  0  0
   -2.8118    0.2556    1.0873 H   0  0  0  0  0  0  0  0  0  0  0  0
   -3.1870    1.1505   -0.4634 H   0  0  0  0  0  0  0  0  0  0  0  0
   -0.7992    1.6871    1.0700 H   0  0  0  0  0  0  0  0  0  0  0  0
   -0.8365    1.6572   -0.8076 H   0  0  0  0  0  0  0  0  0  0  0  0
  1  2  1  0
  2  3  1  0
  3  4  1  0
  4  5  1  0
  5  6  1  0
  2  7  1  0
  7  8  1  0
  8  9  1  0
  9  2  1  0
  6  4  1  0
  1 10  1  0
  1 11  1  0
  1 12  1  0
  3 13  1  0
  3 14  1  0
  4 15  1  0
  5 16  1  0
  5 17  1  0
  7 18  1  0
  7 19  1  0
  8 20  1  0
  8 21  1  0
  9 22  1  0
  9 23  1  0
M  END
