
     RDKit          3D

 23 24  0  0  0  0  0  0  0  0999 V2000
   -2.0043   -0.7184    0.7352 C   0  0  0  0  0  0  0  0  0  0  0  0
   -1.0646   -0.1129   -0.3143 C   0  0  0  0  0  0  0  0  0  0  0  0
   -1.5187    1.2483   -0.7764 C   0  0  0  0  0  0  0  0  0  0  0  0
   -0.3330   -1.0426   -1.1607 C   0  0  0  0  0  0  0  0  0  0  0  0
    0.3867   -0.2757   -0.1381 C   0  0  0  0  0  0  0  0  0  0  0  0
    1.3821    0.7565   -0.5559 C   0  0  0  0  0  0  0  0  0  0  0  0
    2.4857    0.5509    0.4854 C   0  0  0  0  0  0  0  0  0  0  0  0
    2.2694   -0.7198    1.0162 O   0  0  0  0  0  0  0  0  0  0  0  0
    0.8875   -0.8643    1.1368 C   0  0  0  0  0  0  0  0  0  0  0  0
   -3.0099   -0.8927    0.2849 H   0  0  0  0  0  0  0  0  0  0  0  0
   -1.6460   -1.7364    1.0391 H   0  0  0  0  0  0  0  0  0  0  0  0
   -2.0648   -0.0244    1.5788 H   0  0  0  0  0  0  0  0  0  0  0  0
   -1.6594    1.8599    0.1623 H   0  0  0  0  0  0  0  0  0  0  0  0
   -0.8124    1.7373   -1.4627 H   0  0  0  0  0  0  0  0  0  0  0  0
   -2.5033    1.2013   -1.2566 H   0  0  0  0  0  0  0  0  0  0  0  0
   -0.0720   -0.8734   -2.2145 H   0  0  0  0  0  0  0  0  0  0  0  0
   -0.4513   -2.1421   -0.9350 H   0  0  0  0  0  0  0  0  0  0  0  0
    1.0037    1.7949   -0.5217 H   0  0  0  0  0  0  0  0  0  0  0  0
    1.7630    0.5623   -1.5870 H   0  0  0  0  0  0  0  0  0  0  0  0
    2.4176    1.2792    1.2982 H   0  0  0  0  0  0  0  0  0  0  0  0
    3.4478    0.5927   -0.0560 H   0  0  0  0  0  0  0  0  0  0  0  0
    0.6243   -1.9181    1.2617 H   0  0  0  0  0  0  0  0  0  0  0  0
    0.4719   -0.2625    1.9803 H   0  0  0  0  0  0  0  0  0  0  0  0
  1  2  1  0
  2  3  1  0
  2  4  1  0
  4  5  1  0
  5  6  1  0
  6  7  1  0
  7  8  1  0
  8  9  1  0
  5  2  1  0
  9  5  1  0
  1 10  1  0
  1 11  1  0
  1 12  1  0
  3 13  1  0
  3 14  1  0
  3 15  1  0
  4 16  1  0
  4 17  1  0
  6 18  1  0
  6 19  1  0
  7 20  1  0
  7 21  1  0
  9 22  1  0
  9 23  1  0
M  END
