
     RDKit          3D

 19 20  0  0  0  0  0  0  0  0999 V2000
   -1.5456    0.9790   -0.6144 C   0  0  0  0  0  0  0  0  0  0  0  0
   -0.7199   -0.0996    0.0422 C   0  0  0  0  0  0  0  0  0  0  0  0
   -1.4384   -1.4412    0.1693 C   0  0  0  0  0  0  0  0  0  0  0  0
    0.0635    0.3649    1.2976 C   0  0  0  0  0  0  0  0  0  0  0  0
    0.7120   -0.1200    0.0831 C   0  0  0  0  0  0  0  0  0  0  0  0
    1.6500    0.6499   -0.7535 C   0  0  0  0  0  0  0  0  0  0  0  0
    2.6180   -0.3115   -0.1621 C   0  0  0  0  0  0  0  0  0  0  0  0
    3.8357   -0.3956    0.1130 O   0  0  0  0  0  0  0  0  0  0  0  0
    1.5488   -1.2104    0.0018 O   0  0  0  0  0  0  0  0  0  0  0  0
   -1.0203    1.9350   -0.6532 H   0  0  0  0  0  0  0  0  0  0  0  0
   -2.4862    1.0863   -0.0056 H   0  0  0  0  0  0  0  0  0  0  0  0
   -1.8740    0.6148   -1.6023 H   0  0  0  0  0  0  0  0  0  0  0  0
   -1.1775   -2.1150   -0.6726 H   0  0  0  0  0  0  0  0  0  0  0  0
   -2.5192   -1.2911    0.2995 H   0  0  0  0  0  0  0  0  0  0  0  0
   -1.0512   -1.9388    1.0886 H   0  0  0  0  0  0  0  0  0  0  0  0
    0.0166    1.4330    1.5537 H   0  0  0  0  0  0  0  0  0  0  0  0
   -0.0518   -0.2998    2.1913 H   0  0  0  0  0  0  0  0  0  0  0  0
    1.8421    1.6943   -0.4769 H   0  0  0  0  0  0  0  0  0  0  0  0
    1.5975    0.4659   -1.8529 H   0  0  0  0  0  0  0  0  0  0  0  0
  1  2  1  0
  2  3  1  0
  2  4  1  0
  4  5  1  0
  5  6  1  0
  6  7  1  0
  7  8  2  0
  7  9  1  0
  5  2  1  0
  9  5  1  0
  1 10  1  0
  1 11  1  0
  1 12  1  0
  3 13  1  0
  3 14  1  0
  3 15  1  0
  4 16  1  0
  4 17  1  0
  6 18  1  0
  6 19  1  0
M  END
