
     RDKit          3D

 21 22  0  0  0  0  0  0  0  0999 V2000
   -1.5478    0.9678   -0.8871 C   0  0  0  0  0  0  0  0  0  0  0  0
   -0.6928    0.1465    0.0805 C   0  0  0  0  0  0  0  0  0  0  0  0
   -1.6164   -0.6304    0.9591 C   0  0  0  0  0  0  0  0  0  0  0  0
    0.0918    1.0663    0.7741 O   0  0  0  0  0  0  0  0  0  0  0  0
    1.4156    0.8538    0.4154 C   0  0  0  0  0  0  0  0  0  0  0  0
    1.8215   -0.4522    0.9995 C   0  0  0  0  0  0  0  0  0  0  0  0
    1.1329   -1.3922    0.3596 C   0  0  0  0  0  0  0  0  0  0  0  0
    0.2964   -0.7088   -0.6679 C   0  0  0  0  0  0  0  0  0  0  0  0
    1.2658    0.4250   -1.0584 C   0  0  0  0  0  0  0  0  0  0  0  0
   -1.6038    0.4753   -1.8788 H   0  0  0  0  0  0  0  0  0  0  0  0
   -2.5479    1.1618   -0.4491 H   0  0  0  0  0  0  0  0  0  0  0  0
   -1.0957    1.9715   -1.0647 H   0  0  0  0  0  0  0  0  0  0  0  0
   -1.8484   -1.6094    0.4513 H   0  0  0  0  0  0  0  0  0  0  0  0
   -1.2375   -0.8605    1.9537 H   0  0  0  0  0  0  0  0  0  0  0  0
   -2.5548   -0.0278    1.0833 H   0  0  0  0  0  0  0  0  0  0  0  0
    2.0825    1.6692    0.5606 H   0  0  0  0  0  0  0  0  0  0  0  0
    2.5482   -0.5340    1.7942 H   0  0  0  0  0  0  0  0  0  0  0  0
    1.2146   -2.4504    0.5959 H   0  0  0  0  0  0  0  0  0  0  0  0
   -0.0585   -1.2913   -1.4736 H   0  0  0  0  0  0  0  0  0  0  0  0
    0.7388    1.1748   -1.6473 H   0  0  0  0  0  0  0  0  0  0  0  0
    2.1954    0.0448   -1.4700 H   0  0  0  0  0  0  0  0  0  0  0  0
  1  2  1  0
  2  3  1  0
  2  4  1  0
  4  5  1  0
  5  6  1  0
  6  7  2  0
  7  8  1  0
  8  9  1  0
  8  2  1  0
  9  5  1  0
  1 10  1  0
  1 11  1  0
  1 12  1  0
  3 13  1  0
  3 14  1  0
  3 15  1  0
  5 16  1  0
  6 17  1  0
  7 18  1  0
  8 19  1  0
  9 20  1  0
  9 21  1  0
M  END
