
     RDKit          3D

 23 24  0  0  0  0  0  0  0  0999 V2000
    2.1423    0.0326   -0.2414 C   0  0  0  0  0  0  0  0  0  0  0  0
    0.9306    0.0820    0.6689 C   0  0  0  0  0  0  0  0  0  0  0  0
    1.2416    0.0464    2.0117 O   0  0  0  0  0  0  0  0  0  0  0  0
   -0.2539    0.7487    0.1259 C   0  0  0  0  0  0  0  0  0  0  0  0
   -0.1152    1.4995   -1.1482 C   0  0  0  0  0  0  0  0  0  0  0  0
   -1.6071    0.7201    0.7375 C   0  0  0  0  0  0  0  0  0  0  0  0
   -1.4149   -0.7239    1.1616 C   0  0  0  0  0  0  0  0  0  0  0  0
   -0.2121   -0.7263    0.2211 C   0  0  0  0  0  0  0  0  0  0  0  0
   -0.1903   -1.6172   -0.9605 C   0  0  0  0  0  0  0  0  0  0  0  0
    3.0347    0.4645    0.1969 H   0  0  0  0  0  0  0  0  0  0  0  0
    2.3482   -1.0660   -0.4014 H   0  0  0  0  0  0  0  0  0  0  0  0
    1.9021    0.4449   -1.2477 H   0  0  0  0  0  0  0  0  0  0  0  0
    0.4950    0.3929    2.5355 H   0  0  0  0  0  0  0  0  0  0  0  0
   -0.0424    0.9035   -2.0534 H   0  0  0  0  0  0  0  0  0  0  0  0
   -0.9605    2.2160   -1.2703 H   0  0  0  0  0  0  0  0  0  0  0  0
    0.8003    2.1539   -1.0533 H   0  0  0  0  0  0  0  0  0  0  0  0
   -2.4422    0.7453   -0.0230 H   0  0  0  0  0  0  0  0  0  0  0  0
   -1.7739    1.4394    1.5401 H   0  0  0  0  0  0  0  0  0  0  0  0
   -1.1461   -0.8072    2.2366 H   0  0  0  0  0  0  0  0  0  0  0  0
   -2.1669   -1.4326    0.8175 H   0  0  0  0  0  0  0  0  0  0  0  0
    0.4410   -2.5190   -0.7948 H   0  0  0  0  0  0  0  0  0  0  0  0
   -1.2416   -1.8903   -1.2141 H   0  0  0  0  0  0  0  0  0  0  0  0
    0.2311   -1.1073   -1.8453 H   0  0  0  0  0  0  0  0  0  0  0  0
  1  2  1  0
  2  3  1  0
  2  4  1  0
  4  5  1  0
  4  6  1  0
  6  7  1  0
  7  8  1  0
  8  9  1  0
  8  2  1  0
  8  4  1  0
  1 10  1  0
  1 11  1  0
  1 12  1  0
  3 13  1  0
  5 14  1  0
  5 15  1  0
  5 16  1  0
  6 17  1  0
  6 18  1  0
  7 19  1  0
  7 20  1  0
  9 21  1  0
  9 22  1  0
  9 23  1  0
M  END
