
     RDKit          3D

 19 19  0  0  0  0  0  0  0  0999 V2000
   -1.2594   -0.0015    0.9658 C   0  0  0  0  0  0  0  0  0  0  0  0
   -0.4249   -0.2488   -0.2759 C   0  0  0  0  0  0  0  0  0  0  0  0
   -0.9658   -1.3757   -1.0559 C   0  0  0  0  0  0  0  0  0  0  0  0
   -0.3499    0.9555   -0.9801 O   0  0  0  0  0  0  0  0  0  0  0  0
    0.3101    1.8198   -0.1075 C   0  0  0  0  0  0  0  0  0  0  0  0
    1.3192    0.9698    0.6045 C   0  0  0  0  0  0  0  0  0  0  0  0
    2.1638    1.4064    1.3398 O   0  0  0  0  0  0  0  0  0  0  0  0
    1.0036   -0.4249    0.1803 C   0  0  0  0  0  0  0  0  0  0  0  0
    1.8467   -0.6999   -0.9038 O   0  0  0  0  0  0  0  0  0  0  0  0
   -2.1483    0.5969    0.6349 H   0  0  0  0  0  0  0  0  0  0  0  0
   -1.5359   -0.9506    1.4454 H   0  0  0  0  0  0  0  0  0  0  0  0
   -0.6615    0.5938    1.7159 H   0  0  0  0  0  0  0  0  0  0  0  0
   -0.2307   -2.0081   -1.5647 H   0  0  0  0  0  0  0  0  0  0  0  0
   -1.5677   -2.0309   -0.3725 H   0  0  0  0  0  0  0  0  0  0  0  0
   -1.6334   -0.9617   -1.8605 H   0  0  0  0  0  0  0  0  0  0  0  0
    0.9083    2.5836   -0.6623 H   0  0  0  0  0  0  0  0  0  0  0  0
   -0.4129    2.2808    0.5949 H   0  0  0  0  0  0  0  0  0  0  0  0
    1.1186   -1.1246    1.0050 H   0  0  0  0  0  0  0  0  0  0  0  0
    2.5200   -1.3799   -0.7033 H   0  0  0  0  0  0  0  0  0  0  0  0
  1  2  1  0
  2  3  1  0
  2  4  1  0
  4  5  1  0
  5  6  1  0
  6  7  2  0
  6  8  1  0
  8  9  1  0
  8  2  1  0
  1 10  1  0
  1 11  1  0
  1 12  1  0
  3 13  1  0
  3 14  1  0
  3 15  1  0
  5 16  1  0
  5 17  1  0
  8 18  1  0
  9 19  1  0
M  END
