
     RDKit          3D

 19 20  0  0  0  0  0  0  0  0999 V2000
   -0.8446   -1.3938   -0.2861 C   0  0  0  0  0  0  0  0  0  0  0  0
   -0.8198    0.0482   -0.3626 C   0  0  0  0  0  0  0  0  0  0  0  0
   -2.1633    0.5950    0.1262 C   0  0  0  0  0  0  0  0  0  0  0  0
   -0.5368    0.6972   -1.5639 O   0  0  0  0  0  0  0  0  0  0  0  0
    0.7712    0.3460   -1.3253 C   0  0  0  0  0  0  0  0  0  0  0  0
    1.7273    0.7519   -0.3290 C   0  0  0  0  0  0  0  0  0  0  0  0
    2.5839   -0.2125    0.4313 C   0  0  0  0  0  0  0  0  0  0  0  0
    3.7640   -0.0328    0.6620 O   0  0  0  0  0  0  0  0  0  0  0  0
    0.3639    0.8274    0.1186 C   0  0  0  0  0  0  0  0  0  0  0  0
    0.0832   -1.9463   -0.0923 H   0  0  0  0  0  0  0  0  0  0  0  0
   -1.5305   -1.7161    0.5267 H   0  0  0  0  0  0  0  0  0  0  0  0
   -1.3017   -1.8206   -1.2273 H   0  0  0  0  0  0  0  0  0  0  0  0
   -2.1648    0.6757    1.2386 H   0  0  0  0  0  0  0  0  0  0  0  0
   -2.9753   -0.0792   -0.1445 H   0  0  0  0  0  0  0  0  0  0  0  0
   -2.3756    1.5878   -0.2671 H   0  0  0  0  0  0  0  0  0  0  0  0
    0.8581   -0.7381   -1.5126 H   0  0  0  0  0  0  0  0  0  0  0  0
    2.3561    1.6447   -0.6372 H   0  0  0  0  0  0  0  0  0  0  0  0
    2.1629   -1.1536    0.8237 H   0  0  0  0  0  0  0  0  0  0  0  0
    0.0418    1.9191    0.1471 H   0  0  0  0  0  0  0  0  0  0  0  0
  1  2  1  0
  2  3  1  0
  2  4  1  0
  4  5  1  0
  5  6  1  0
  6  7  1  0
  7  8  2  0
  6  9  1  0
  9  2  1  0
  9  5  1  0
  1 10  1  0
  1 11  1  0
  1 12  1  0
  3 13  1  0
  3 14  1  0
  3 15  1  0
  5 16  1  0
  6 17  1  0
  7 18  1  0
  9 19  1  0
M  END
