
     RDKit          3D

 19 19  0  0  0  0  0  0  0  0999 V2000
   -0.2899    1.1876    0.9429 C   0  0  0  0  0  0  0  0  0  0  0  0
   -0.1730   -0.0135    0.0710 C   0  0  0  0  0  0  0  0  0  0  0  0
   -1.4502   -0.7668   -0.2039 C   0  0  0  0  0  0  0  0  0  0  0  0
   -2.3742    0.0378   -0.8285 O   0  0  0  0  0  0  0  0  0  0  0  0
    0.6632    0.2590   -1.1726 C   0  0  0  0  0  0  0  0  0  0  0  0
    1.8822   -0.0193   -0.2806 C   0  0  0  0  0  0  0  0  0  0  0  0
    0.9570   -0.9379    0.5180 C   0  0  0  0  0  0  0  0  0  0  0  0
   -0.1926    2.0914    0.3067 H   0  0  0  0  0  0  0  0  0  0  0  0
    0.5212    1.1884    1.7136 H   0  0  0  0  0  0  0  0  0  0  0  0
   -1.2762    1.1592    1.4488 H   0  0  0  0  0  0  0  0  0  0  0  0
   -1.8689   -1.0433    0.8032 H   0  0  0  0  0  0  0  0  0  0  0  0
   -1.2329   -1.7040   -0.7130 H   0  0  0  0  0  0  0  0  0  0  0  0
   -3.1353    0.2775   -0.2490 H   0  0  0  0  0  0  0  0  0  0  0  0
    0.6086    1.2898   -1.5540 H   0  0  0  0  0  0  0  0  0  0  0  0
    0.5952   -0.5426   -1.9214 H   0  0  0  0  0  0  0  0  0  0  0  0
    2.0979    0.9038    0.2885 H   0  0  0  0  0  0  0  0  0  0  0  0
    2.7117   -0.5142   -0.7815 H   0  0  0  0  0  0  0  0  0  0  0  0
    1.1160   -0.9386    1.5973 H   0  0  0  0  0  0  0  0  0  0  0  0
    0.8402   -1.9141    0.0145 H   0  0  0  0  0  0  0  0  0  0  0  0
  1  2  1  0
  2  3  1  0
  3  4  1  0
  2  5  1  0
  5  6  1  0
  6  7  1  0
  7  2  1  0
  1  8  1  0
  1  9  1  0
  1 10  1  0
  3 11  1  0
  3 12  1  0
  4 13  1  0
  5 14  1  0
  5 15  1  0
  6 16  1  0
  6 17  1  0
  7 18  1  0
  7 19  1  0
M  END
