
     RDKit          3D

 19 20  0  0  0  0  0  0  0  0999 V2000
   -1.8549    0.7812   -0.2676 C   0  0  0  0  0  0  0  0  0  0  0  0
   -1.0507   -0.3311    0.3128 C   0  0  0  0  0  0  0  0  0  0  0  0
   -1.8029   -1.3503    0.8800 O   0  0  0  0  0  0  0  0  0  0  0  0
   -0.0881    0.2854    1.2973 C   0  0  0  0  0  0  0  0  0  0  0  0
    1.1100    0.3939    0.7805 C   0  0  0  0  0  0  0  0  0  0  0  0
    2.5074    0.5863    0.3535 C   0  0  0  0  0  0  0  0  0  0  0  0
    2.3071   -0.6320   -0.3743 O   0  0  0  0  0  0  0  0  0  0  0  0
    1.0690   -0.0849   -0.6703 C   0  0  0  0  0  0  0  0  0  0  0  0
   -0.1245   -0.9976   -0.7092 C   0  0  0  0  0  0  0  0  0  0  0  0
   -2.7109    0.9761    0.4044 H   0  0  0  0  0  0  0  0  0  0  0  0
   -2.1756    0.4747   -1.2867 H   0  0  0  0  0  0  0  0  0  0  0  0
   -1.1893    1.6755   -0.3617 H   0  0  0  0  0  0  0  0  0  0  0  0
   -2.0322   -2.0037    0.1651 H   0  0  0  0  0  0  0  0  0  0  0  0
   -0.4209    0.5735    2.2824 H   0  0  0  0  0  0  0  0  0  0  0  0
    2.5972    1.3884   -0.3995 H   0  0  0  0  0  0  0  0  0  0  0  0
    3.2837    0.5235    1.1111 H   0  0  0  0  0  0  0  0  0  0  0  0
    1.0925    0.7307   -1.3925 H   0  0  0  0  0  0  0  0  0  0  0  0
    0.1071   -2.0440   -0.4335 H   0  0  0  0  0  0  0  0  0  0  0  0
   -0.6240   -0.9455   -1.6917 H   0  0  0  0  0  0  0  0  0  0  0  0
  1  2  1  0
  2  3  1  0
  2  4  1  0
  4  5  2  0
  5  6  1  0
  6  7  1  0
  7  8  1  0
  8  9  1  0
  9  2  1  0
  8  5  1  0
  1 10  1  0
  1 11  1  0
  1 12  1  0
  3 13  1  0
  4 14  1  0
  6 15  1  0
  6 16  1  0
  8 17  1  0
  9 18  1  0
  9 19  1  0
M  END
