
     RDKit          3D

 25 26  0  0  0  0  0  0  0  0999 V2000
    1.7159   -0.5782   -1.3509 C   0  0  0  0  0  0  0  0  0  0  0  0
    1.4911   -0.0109    0.0221 C   0  0  0  0  0  0  0  0  0  0  0  0
    2.5253   -0.4001    1.0858 C   0  0  0  0  0  0  0  0  0  0  0  0
    1.1771    1.4735    0.0399 C   0  0  0  0  0  0  0  0  0  0  0  0
    0.1830    0.4291    0.4977 C   0  0  0  0  0  0  0  0  0  0  0  0
   -1.0715    0.2900   -0.3220 C   0  0  0  0  0  0  0  0  0  0  0  0
   -2.2985    0.8192    0.3890 C   0  0  0  0  0  0  0  0  0  0  0  0
   -2.7425   -0.5912    0.6784 C   0  0  0  0  0  0  0  0  0  0  0  0
   -1.7074   -1.0600   -0.3475 C   0  0  0  0  0  0  0  0  0  0  0  0
    1.4991    0.1593   -2.1588 H   0  0  0  0  0  0  0  0  0  0  0  0
    2.7784   -0.9192   -1.4184 H   0  0  0  0  0  0  0  0  0  0  0  0
    1.1006   -1.4683   -1.5727 H   0  0  0  0  0  0  0  0  0  0  0  0
    3.3589    0.3211    0.9571 H   0  0  0  0  0  0  0  0  0  0  0  0
    2.8215   -1.4434    1.0133 H   0  0  0  0  0  0  0  0  0  0  0  0
    2.0965   -0.2024    2.0938 H   0  0  0  0  0  0  0  0  0  0  0  0
    1.6538    2.1311    0.7715 H   0  0  0  0  0  0  0  0  0  0  0  0
    0.9926    1.9823   -0.9435 H   0  0  0  0  0  0  0  0  0  0  0  0
    0.0081    0.4348    1.5964 H   0  0  0  0  0  0  0  0  0  0  0  0
   -0.9554    0.7948   -1.3120 H   0  0  0  0  0  0  0  0  0  0  0  0
   -2.0485    1.3703    1.3301 H   0  0  0  0  0  0  0  0  0  0  0  0
   -2.9721    1.4326   -0.2208 H   0  0  0  0  0  0  0  0  0  0  0  0
   -3.7490   -0.8637    0.3534 H   0  0  0  0  0  0  0  0  0  0  0  0
   -2.5398   -0.9681    1.6887 H   0  0  0  0  0  0  0  0  0  0  0  0
   -1.1328   -1.9048    0.0432 H   0  0  0  0  0  0  0  0  0  0  0  0
   -2.1842   -1.2276   -1.3549 H   0  0  0  0  0  0  0  0  0  0  0  0
  1  2  1  0
  2  3  1  0
  2  4  1  0
  4  5  1  0
  5  6  1  0
  6  7  1  0
  7  8  1  0
  8  9  1  0
  5  2  1  0
  9  6  1  0
  1 10  1  0
  1 11  1  0
  1 12  1  0
  3 13  1  0
  3 14  1  0
  3 15  1  0
  4 16  1  0
  4 17  1  0
  5 18  1  0
  6 19  1  0
  7 20  1  0
  7 21  1  0
  8 22  1  0
  8 23  1  0
  9 24  1  0
  9 25  1  0
M  END
