
     RDKit          3D

 21 22  0  0  0  0  0  0  0  0999 V2000
   -1.7922   -0.9209   -1.0189 C   0  0  0  0  0  0  0  0  0  0  0  0
   -0.8114   -0.0828   -0.2446 C   0  0  0  0  0  0  0  0  0  0  0  0
   -1.4578    1.2223    0.2029 C   0  0  0  0  0  0  0  0  0  0  0  0
   -0.2094   -0.8439    0.9003 C   0  0  0  0  0  0  0  0  0  0  0  0
    1.1163   -0.1250    1.0883 C   0  0  0  0  0  0  0  0  0  0  0  0
    2.2373   -0.8497    0.7445 O   0  0  0  0  0  0  0  0  0  0  0  0
    2.5298   -0.0960   -0.3825 C   0  0  0  0  0  0  0  0  0  0  0  0
    1.2705    0.6990   -0.1822 C   0  0  0  0  0  0  0  0  0  0  0  0
    0.2751    0.2907   -1.0471 O   0  0  0  0  0  0  0  0  0  0  0  0
   -1.2795   -1.8398   -1.3334 H   0  0  0  0  0  0  0  0  0  0  0  0
   -2.6078   -1.1977   -0.3043 H   0  0  0  0  0  0  0  0  0  0  0  0
   -2.1582   -0.3233   -1.8674 H   0  0  0  0  0  0  0  0  0  0  0  0
   -2.3658    1.0305    0.7859 H   0  0  0  0  0  0  0  0  0  0  0  0
   -0.7090    1.8437    0.7136 H   0  0  0  0  0  0  0  0  0  0  0  0
   -1.7359    1.7511   -0.7497 H   0  0  0  0  0  0  0  0  0  0  0  0
    0.0081   -1.8693    0.5369 H   0  0  0  0  0  0  0  0  0  0  0  0
   -0.8224   -0.8617    1.8077 H   0  0  0  0  0  0  0  0  0  0  0  0
    1.1760    0.4742    2.0061 H   0  0  0  0  0  0  0  0  0  0  0  0
    3.4114    0.5751   -0.2777 H   0  0  0  0  0  0  0  0  0  0  0  0
    2.5319   -0.6560   -1.3473 H   0  0  0  0  0  0  0  0  0  0  0  0
    1.3930    1.7797   -0.0309 H   0  0  0  0  0  0  0  0  0  0  0  0
  1  2  1  0
  2  3  1  0
  2  4  1  0
  4  5  1  0
  5  6  1  0
  6  7  1  0
  7  8  1  0
  8  9  1  0
  9  2  1  0
  8  5  1  0
  1 10  1  0
  1 11  1  0
  1 12  1  0
  3 13  1  0
  3 14  1  0
  3 15  1  0
  4 16  1  0
  4 17  1  0
  5 18  1  0
  7 19  1  0
  7 20  1  0
  8 21  1  0
M  END
