
     RDKit          3D

 23 24  0  0  0  0  0  0  0  0999 V2000
   -0.8184   -1.3735    0.4166 C   0  0  0  0  0  0  0  0  0  0  0  0
   -0.8051    0.0310   -0.0475 C   0  0  0  0  0  0  0  0  0  0  0  0
   -2.1119    0.7943    0.2354 C   0  0  0  0  0  0  0  0  0  0  0  0
   -3.1700    0.1557   -0.4098 O   0  0  0  0  0  0  0  0  0  0  0  0
   -0.3594    0.1605   -1.5287 C   0  0  0  0  0  0  0  0  0  0  0  0
    0.3646    0.8245   -0.3823 C   0  0  0  0  0  0  0  0  0  0  0  0
    1.7888    0.4804   -0.1898 C   0  0  0  0  0  0  0  0  0  0  0  0
    2.1630    0.2435    1.2926 C   0  0  0  0  0  0  0  0  0  0  0  0
    2.3288   -0.7955    0.2224 C   0  0  0  0  0  0  0  0  0  0  0  0
   -0.3269   -1.5350    1.4026 H   0  0  0  0  0  0  0  0  0  0  0  0
   -1.8857   -1.6979    0.6015 H   0  0  0  0  0  0  0  0  0  0  0  0
   -0.4728   -2.1137   -0.3534 H   0  0  0  0  0  0  0  0  0  0  0  0
   -2.2784    0.9102    1.3066 H   0  0  0  0  0  0  0  0  0  0  0  0
   -2.0068    1.7978   -0.2381 H   0  0  0  0  0  0  0  0  0  0  0  0
   -3.8005    0.8286   -0.7318 H   0  0  0  0  0  0  0  0  0  0  0  0
   -0.9989    0.7465   -2.2053 H   0  0  0  0  0  0  0  0  0  0  0  0
    0.1050   -0.7086   -2.0084 H   0  0  0  0  0  0  0  0  0  0  0  0
    0.1950    1.9474   -0.3892 H   0  0  0  0  0  0  0  0  0  0  0  0
    2.4910    1.1552   -0.7687 H   0  0  0  0  0  0  0  0  0  0  0  0
    1.3534    0.0605    2.0013 H   0  0  0  0  0  0  0  0  0  0  0  0
    3.0355    0.8330    1.6342 H   0  0  0  0  0  0  0  0  0  0  0  0
    1.7912   -1.7517    0.3060 H   0  0  0  0  0  0  0  0  0  0  0  0
    3.4185   -0.9932   -0.0082 H   0  0  0  0  0  0  0  0  0  0  0  0
  1  2  1  0
  2  3  1  0
  3  4  1  0
  2  5  1  0
  5  6  1  0
  6  7  1  0
  7  8  1  0
  8  9  1  0
  6  2  1  0
  9  7  1  0
  1 10  1  0
  1 11  1  0
  1 12  1  0
  3 13  1  0
  3 14  1  0
  4 15  1  0
  5 16  1  0
  5 17  1  0
  6 18  1  0
  7 19  1  0
  8 20  1  0
  8 21  1  0
  9 22  1  0
  9 23  1  0
M  END
