
     RDKit          3D

 23 24  0  0  0  0  0  0  0  0999 V2000
   -1.8722    0.9861   -0.3201 C   0  0  0  0  0  0  0  0  0  0  0  0
   -0.8055    0.0036    0.0366 C   0  0  0  0  0  0  0  0  0  0  0  0
   -1.4535   -1.3568    0.1999 C   0  0  0  0  0  0  0  0  0  0  0  0
   -0.1872    0.4635    1.3388 C   0  0  0  0  0  0  0  0  0  0  0  0
    1.1269    0.5274    1.4610 C   0  0  0  0  0  0  0  0  0  0  0  0
    1.9367    0.1456    0.2813 C   0  0  0  0  0  0  0  0  0  0  0  0
    1.3448    0.9597   -0.8813 C   0  0  0  0  0  0  0  0  0  0  0  0
    0.2853   -0.1146   -0.9694 C   0  0  0  0  0  0  0  0  0  0  0  0
    1.3346   -1.0697   -0.4182 C   0  0  0  0  0  0  0  0  0  0  0  0
   -2.2673    0.8223   -1.3324 H   0  0  0  0  0  0  0  0  0  0  0  0
   -2.7313    0.8138    0.3885 H   0  0  0  0  0  0  0  0  0  0  0  0
   -1.5674    2.0467   -0.1447 H   0  0  0  0  0  0  0  0  0  0  0  0
   -1.2844   -1.7470    1.2213 H   0  0  0  0  0  0  0  0  0  0  0  0
   -1.0725   -2.0784   -0.5734 H   0  0  0  0  0  0  0  0  0  0  0  0
   -2.5523   -1.3111    0.0363 H   0  0  0  0  0  0  0  0  0  0  0  0
   -0.8589    0.7319    2.1483 H   0  0  0  0  0  0  0  0  0  0  0  0
    1.6117    0.8363    2.3562 H   0  0  0  0  0  0  0  0  0  0  0  0
    3.0126    0.1696    0.3689 H   0  0  0  0  0  0  0  0  0  0  0  0
    2.0227    0.8928   -1.7402 H   0  0  0  0  0  0  0  0  0  0  0  0
    1.0242    1.9447   -0.5554 H   0  0  0  0  0  0  0  0  0  0  0  0
    0.0052   -0.4227   -1.9832 H   0  0  0  0  0  0  0  0  0  0  0  0
    0.9216   -1.8243    0.2723 H   0  0  0  0  0  0  0  0  0  0  0  0
    2.0263   -1.4193   -1.1908 H   0  0  0  0  0  0  0  0  0  0  0  0
  1  2  1  0
  2  3  1  0
  2  4  1  0
  4  5  2  0
  5  6  1  0
  6  7  1  0
  7  8  1  0
  8  9  1  0
  8  2  1  0
  9  6  1  0
  1 10  1  0
  1 11  1  0
  1 12  1  0
  3 13  1  0
  3 14  1  0
  3 15  1  0
  4 16  1  0
  5 17  1  0
  6 18  1  0
  7 19  1  0
  7 20  1  0
  8 21  1  0
  9 22  1  0
  9 23  1  0
M  END
