
     RDKit          3D

 17 18  0  0  0  0  0  0  0  0999 V2000
    2.0449    0.3936    0.2263 C   0  0  0  0  0  0  0  0  0  0  0  0
    0.5703    0.0917    0.5333 C   0  0  0  0  0  0  0  0  0  0  0  0
    0.2675    0.4902    1.8495 O   0  0  0  0  0  0  0  0  0  0  0  0
   -0.1542   -1.0535    0.0633 C   0  0  0  0  0  0  0  0  0  0  0  0
   -1.3483   -1.1336   -0.8554 C   0  0  0  0  0  0  0  0  0  0  0  0
   -0.5159   -0.3603   -1.7084 O   0  0  0  0  0  0  0  0  0  0  0  0
   -0.3147    0.3534   -0.5721 C   0  0  0  0  0  0  0  0  0  0  0  0
   -1.4278    1.2293   -0.1776 C   0  0  0  0  0  0  0  0  0  0  0  0
   -1.4833    1.9342    0.8155 O   0  0  0  0  0  0  0  0  0  0  0  0
    2.2746    0.2448   -0.8387 H   0  0  0  0  0  0  0  0  0  0  0  0
    2.1623    1.4871    0.4622 H   0  0  0  0  0  0  0  0  0  0  0  0
    2.7104   -0.1827    0.8810 H   0  0  0  0  0  0  0  0  0  0  0  0
    0.6839   -0.2145    2.4335 H   0  0  0  0  0  0  0  0  0  0  0  0
    0.6174   -1.7454   -0.4143 H   0  0  0  0  0  0  0  0  0  0  0  0
   -1.5252   -2.0946   -1.3460 H   0  0  0  0  0  0  0  0  0  0  0  0
   -2.2736   -0.7054   -0.5344 H   0  0  0  0  0  0  0  0  0  0  0  0
   -2.2884    1.2658   -0.8178 H   0  0  0  0  0  0  0  0  0  0  0  0
  1  2  1  0
  2  3  1  0
  2  4  1  0
  4  5  1  0
  5  6  1  0
  6  7  1  0
  7  8  1  0
  8  9  2  0
  7  2  1  0
  7  4  1  0
  1 10  1  0
  1 11  1  0
  1 12  1  0
  3 13  1  0
  4 14  1  0
  5 15  1  0
  5 16  1  0
  8 17  1  0
M  END
