
     RDKit          3D

 25 26  0  0  0  0  0  0  0  0999 V2000
   -2.0487    0.2654    0.9621 C   0  0  0  0  0  0  0  0  0  0  0  0
   -0.9080    0.0425   -0.0519 C   0  0  0  0  0  0  0  0  0  0  0  0
   -1.5778   -0.0254   -1.4032 C   0  0  0  0  0  0  0  0  0  0  0  0
   -0.2490   -1.2163    0.3661 C   0  0  0  0  0  0  0  0  0  0  0  0
    1.1575   -1.4430   -0.1072 C   0  0  0  0  0  0  0  0  0  0  0  0
    1.7073   -0.1405   -0.5260 C   0  0  0  0  0  0  0  0  0  0  0  0
    2.5581    0.7943    0.1240 C   0  0  0  0  0  0  0  0  0  0  0  0
    1.2371    0.8065    0.6239 C   0  0  0  0  0  0  0  0  0  0  0  0
   -0.0405    1.2909    0.0891 C   0  0  0  0  0  0  0  0  0  0  0  0
   -1.5085    0.5976    1.8934 H   0  0  0  0  0  0  0  0  0  0  0  0
   -2.5294   -0.6937    1.2215 H   0  0  0  0  0  0  0  0  0  0  0  0
   -2.7357    1.0426    0.6376 H   0  0  0  0  0  0  0  0  0  0  0  0
   -2.3298    0.8081   -1.4818 H   0  0  0  0  0  0  0  0  0  0  0  0
   -0.8953   -0.0132   -2.2494 H   0  0  0  0  0  0  0  0  0  0  0  0
   -2.1562   -0.9542   -1.4355 H   0  0  0  0  0  0  0  0  0  0  0  0
   -0.8601   -2.0611   -0.0183 H   0  0  0  0  0  0  0  0  0  0  0  0
   -0.2404   -1.3323    1.4793 H   0  0  0  0  0  0  0  0  0  0  0  0
    1.8189   -1.8506    0.7090 H   0  0  0  0  0  0  0  0  0  0  0  0
    1.2262   -2.1950   -0.9256 H   0  0  0  0  0  0  0  0  0  0  0  0
    1.4007    0.1071   -1.5692 H   0  0  0  0  0  0  0  0  0  0  0  0
    3.3796    0.3893    0.7775 H   0  0  0  0  0  0  0  0  0  0  0  0
    2.9390    1.6660   -0.4453 H   0  0  0  0  0  0  0  0  0  0  0  0
    1.0799    0.3309    1.6394 H   0  0  0  0  0  0  0  0  0  0  0  0
    0.0875    1.6875   -0.9614 H   0  0  0  0  0  0  0  0  0  0  0  0
   -0.5122    2.0969    0.6520 H   0  0  0  0  0  0  0  0  0  0  0  0
  1  2  1  0
  2  3  1  0
  2  4  1  0
  4  5  1  0
  5  6  1  0
  6  7  1  0
  7  8  1  0
  8  9  1  0
  9  2  1  0
  8  6  1  0
  1 10  1  0
  1 11  1  0
  1 12  1  0
  3 13  1  0
  3 14  1  0
  3 15  1  0
  4 16  1  0
  4 17  1  0
  5 18  1  0
  5 19  1  0
  6 20  1  0
  7 21  1  0
  7 22  1  0
  8 23  1  0
  9 24  1  0
  9 25  1  0
M  END
