
     RDKit          3D

 21 22  0  0  0  0  0  0  0  0999 V2000
   -1.7258    0.0337    1.1049 C   0  0  0  0  0  0  0  0  0  0  0  0
   -0.9949   -0.2084   -0.2040 C   0  0  0  0  0  0  0  0  0  0  0  0
   -1.4579   -1.2831   -0.9211 O   0  0  0  0  0  0  0  0  0  0  0  0
   -0.9602    1.0288   -1.1144 C   0  0  0  0  0  0  0  0  0  0  0  0
    0.5258    0.6961   -1.3357 C   0  0  0  0  0  0  0  0  0  0  0  0
    0.4601   -0.0388   -0.0437 C   0  0  0  0  0  0  0  0  0  0  0  0
    1.1273    0.3820    1.1822 C   0  0  0  0  0  0  0  0  0  0  0  0
    1.4180   -0.9536    0.4826 C   0  0  0  0  0  0  0  0  0  0  0  0
    2.7177   -1.0115   -0.0603 O   0  0  0  0  0  0  0  0  0  0  0  0
   -1.6332    1.0809    1.4519 H   0  0  0  0  0  0  0  0  0  0  0  0
   -1.2168   -0.6181    1.8592 H   0  0  0  0  0  0  0  0  0  0  0  0
   -2.7834   -0.3063    1.0279 H   0  0  0  0  0  0  0  0  0  0  0  0
   -1.0484   -2.1379   -0.6733 H   0  0  0  0  0  0  0  0  0  0  0  0
   -1.5812    0.9604   -2.0065 H   0  0  0  0  0  0  0  0  0  0  0  0
   -1.0496    1.9360   -0.5030 H   0  0  0  0  0  0  0  0  0  0  0  0
    0.6961    0.0385   -2.2250 H   0  0  0  0  0  0  0  0  0  0  0  0
    1.1930    1.5660   -1.2953 H   0  0  0  0  0  0  0  0  0  0  0  0
    0.6210    0.2846    2.1756 H   0  0  0  0  0  0  0  0  0  0  0  0
    1.8772    1.1877    1.0985 H   0  0  0  0  0  0  0  0  0  0  0  0
    1.1115   -1.8862    1.0070 H   0  0  0  0  0  0  0  0  0  0  0  0
    2.7039   -0.7509   -1.0073 H   0  0  0  0  0  0  0  0  0  0  0  0
  1  2  1  0
  2  3  1  0
  2  4  1  0
  4  5  1  0
  5  6  1  0
  6  7  1  0
  7  8  1  0
  8  9  1  0
  6  2  1  0
  8  6  1  0
  1 10  1  0
  1 11  1  0
  1 12  1  0
  3 13  1  0
  4 14  1  0
  4 15  1  0
  5 16  1  0
  5 17  1  0
  7 18  1  0
  7 19  1  0
  8 20  1  0
  9 21  1  0
M  END
