
     RDKit          3D

 21 22  0  0  0  0  0  0  0  0999 V2000
   -0.7038    1.2007   -0.9594 C   0  0  0  0  0  0  0  0  0  0  0  0
   -0.7480    0.0259   -0.0680 C   0  0  0  0  0  0  0  0  0  0  0  0
    0.4478   -0.1544    0.8281 C   0  0  0  0  0  0  0  0  0  0  0  0
    1.6917   -0.3074   -0.0512 C   0  0  0  0  0  0  0  0  0  0  0  0
    2.2797    0.7004    0.8741 C   0  0  0  0  0  0  0  0  0  0  0  0
    1.0084    1.0157    1.3264 O   0  0  0  0  0  0  0  0  0  0  0  0
   -0.9848   -1.2974   -0.8113 C   0  0  0  0  0  0  0  0  0  0  0  0
   -1.6370   -1.7312    0.3653 O   0  0  0  0  0  0  0  0  0  0  0  0
   -2.0627   -0.3884    0.5012 C   0  0  0  0  0  0  0  0  0  0  0  0
    0.2577    1.7220   -0.9358 H   0  0  0  0  0  0  0  0  0  0  0  0
   -0.8670    0.8827   -2.0180 H   0  0  0  0  0  0  0  0  0  0  0  0
   -1.4983    1.9618   -0.7607 H   0  0  0  0  0  0  0  0  0  0  0  0
    0.3534   -0.9239    1.5913 H   0  0  0  0  0  0  0  0  0  0  0  0
    1.5597    0.0367   -1.0917 H   0  0  0  0  0  0  0  0  0  0  0  0
    2.0916   -1.3372    0.0328 H   0  0  0  0  0  0  0  0  0  0  0  0
    2.7808    1.5679    0.3801 H   0  0  0  0  0  0  0  0  0  0  0  0
    2.9451    0.2182    1.6112 H   0  0  0  0  0  0  0  0  0  0  0  0
   -0.0565   -1.8261   -1.0466 H   0  0  0  0  0  0  0  0  0  0  0  0
   -1.6712   -1.0916   -1.6532 H   0  0  0  0  0  0  0  0  0  0  0  0
   -2.8780   -0.1913   -0.2171 H   0  0  0  0  0  0  0  0  0  0  0  0
   -2.3087   -0.0833    1.5169 H   0  0  0  0  0  0  0  0  0  0  0  0
  1  2  1  0
  2  3  1  0
  3  4  1  0
  4  5  1  0
  5  6  1  0
  2  7  1  0
  7  8  1  0
  8  9  1  0
  9  2  1  0
  6  3  1  0
  1 10  1  0
  1 11  1  0
  1 12  1  0
  3 13  1  0
  4 14  1  0
  4 15  1  0
  5 16  1  0
  5 17  1  0
  7 18  1  0
  7 19  1  0
  9 20  1  0
  9 21  1  0
M  END
