
     RDKit          3D

 18 20  0  0  0  0  0  0  0  0999 V2000
   -2.1638   -0.7247    0.2461 C   0  0  0  0  0  0  0  0  0  0  0  0
   -1.1347    0.2110   -0.3940 C   0  0  0  0  0  0  0  0  0  0  0  0
   -1.8207    1.2288   -1.1043 O   0  0  0  0  0  0  0  0  0  0  0  0
    0.0916   -0.3634   -0.7914 C   0  0  0  0  0  0  0  0  0  0  0  0
    1.3070   -0.8129   -0.0713 C   0  0  0  0  0  0  0  0  0  0  0  0
    2.3535   -0.0726    0.6652 C   0  0  0  0  0  0  0  0  0  0  0  0
    1.4873    0.7149   -0.1659 C   0  0  0  0  0  0  0  0  0  0  0  0
    0.0258    0.7397    0.3190 C   0  0  0  0  0  0  0  0  0  0  0  0
   -2.9026   -0.1097    0.8179 H   0  0  0  0  0  0  0  0  0  0  0  0
   -1.7020   -1.4760    0.8877 H   0  0  0  0  0  0  0  0  0  0  0  0
   -2.7257   -1.1726   -0.6078 H   0  0  0  0  0  0  0  0  0  0  0  0
   -2.3497    1.7861   -0.5018 H   0  0  0  0  0  0  0  0  0  0  0  0
    0.4042    0.0919   -1.8003 H   0  0  0  0  0  0  0  0  0  0  0  0
    1.8693   -1.5214   -0.7544 H   0  0  0  0  0  0  0  0  0  0  0  0
    2.2033    0.0406    1.7834 H   0  0  0  0  0  0  0  0  0  0  0  0
    3.4291   -0.0611    0.4331 H   0  0  0  0  0  0  0  0  0  0  0  0
    1.6957    1.0619   -1.1895 H   0  0  0  0  0  0  0  0  0  0  0  0
   -0.0678    0.4395    1.3805 H   0  0  0  0  0  0  0  0  0  0  0  0
  1  2  1  0
  2  3  1  0
  2  4  1  0
  4  5  1  0
  5  6  1  0
  6  7  1  0
  7  8  1  0
  8  2  1  0
  8  4  1  0
  7  5  1  0
  1  9  1  0
  1 10  1  0
  1 11  1  0
  3 12  1  0
  4 13  1  0
  5 14  1  0
  6 15  1  0
  6 16  1  0
  7 17  1  0
  8 18  1  0
M  END
