
     RDKit          3D

 19 20  0  0  0  0  0  0  0  0999 V2000
   -1.1819    0.1241   -1.2886 C   0  0  0  0  0  0  0  0  0  0  0  0
   -0.6447    0.1616    0.1118 C   0  0  0  0  0  0  0  0  0  0  0  0
   -1.2691    1.2114    0.9305 C   0  0  0  0  0  0  0  0  0  0  0  0
   -1.2125    1.1281    2.1333 O   0  0  0  0  0  0  0  0  0  0  0  0
   -0.8363   -1.2171    0.7575 C   0  0  0  0  0  0  0  0  0  0  0  0
    0.4039   -1.0365    1.3726 O   0  0  0  0  0  0  0  0  0  0  0  0
    0.7501   -0.1952    0.3452 C   0  0  0  0  0  0  0  0  0  0  0  0
    1.7557   -0.4989   -0.6668 C   0  0  0  0  0  0  0  0  0  0  0  0
    1.9018    0.6771    0.3407 C   0  0  0  0  0  0  0  0  0  0  0  0
   -1.3988    1.1505   -1.6832 H   0  0  0  0  0  0  0  0  0  0  0  0
   -2.1932   -0.3658   -1.2216 H   0  0  0  0  0  0  0  0  0  0  0  0
   -0.5900   -0.4784   -1.9848 H   0  0  0  0  0  0  0  0  0  0  0  0
   -1.7820    2.0634    0.5115 H   0  0  0  0  0  0  0  0  0  0  0  0
   -0.7387   -2.0584    0.0218 H   0  0  0  0  0  0  0  0  0  0  0  0
   -1.6968   -1.2953    1.4236 H   0  0  0  0  0  0  0  0  0  0  0  0
    2.4254   -1.3789   -0.4668 H   0  0  0  0  0  0  0  0  0  0  0  0
    1.6806   -0.1748   -1.7054 H   0  0  0  0  0  0  0  0  0  0  0  0
    1.9527    1.6820   -0.0734 H   0  0  0  0  0  0  0  0  0  0  0  0
    2.6738    0.5010    1.1422 H   0  0  0  0  0  0  0  0  0  0  0  0
  1  2  1  0
  2  3  1  0
  3  4  2  0
  2  5  1  0
  5  6  1  0
  6  7  1  0
  7  8  1  0
  8  9  1  0
  7  2  1  0
  9  7  1  0
  1 10  1  0
  1 11  1  0
  1 12  1  0
  3 13  1  0
  5 14  1  0
  5 15  1  0
  8 16  1  0
  8 17  1  0
  9 18  1  0
  9 19  1  0
M  END
