
     RDKit          3D

 19 20  0  0  0  0  0  0  0  0999 V2000
   -1.8587   -0.9477    0.6559 C   0  0  0  0  0  0  0  0  0  0  0  0
   -0.7892    0.0349    0.1479 C   0  0  0  0  0  0  0  0  0  0  0  0
   -1.4692    1.3619   -0.2220 C   0  0  0  0  0  0  0  0  0  0  0  0
    0.4159    0.0594    0.8650 C   0  0  0  0  0  0  0  0  0  0  0  0
    1.4149   -0.8389    1.1352 O   0  0  0  0  0  0  0  0  0  0  0  0
    2.4081   -0.3391    0.2410 C   0  0  0  0  0  0  0  0  0  0  0  0
    1.6066    0.0330   -0.9755 C   0  0  0  0  0  0  0  0  0  0  0  0
    2.1031    0.5864   -1.9313 O   0  0  0  0  0  0  0  0  0  0  0  0
    0.2736   -0.4308   -0.6372 C   0  0  0  0  0  0  0  0  0  0  0  0
   -2.3283   -1.4384   -0.2193 H   0  0  0  0  0  0  0  0  0  0  0  0
   -2.6100   -0.4191    1.2346 H   0  0  0  0  0  0  0  0  0  0  0  0
   -1.3996   -1.7117    1.3197 H   0  0  0  0  0  0  0  0  0  0  0  0
   -2.2527    1.2169   -0.9640 H   0  0  0  0  0  0  0  0  0  0  0  0
   -0.7356    2.1142   -0.5240 H   0  0  0  0  0  0  0  0  0  0  0  0
   -1.9169    1.7228    0.7472 H   0  0  0  0  0  0  0  0  0  0  0  0
    0.8647    1.0940    0.9921 H   0  0  0  0  0  0  0  0  0  0  0  0
    3.1390   -1.1265    0.0218 H   0  0  0  0  0  0  0  0  0  0  0  0
    2.8484    0.5924    0.6466 H   0  0  0  0  0  0  0  0  0  0  0  0
    0.2860   -1.5637   -0.7642 H   0  0  0  0  0  0  0  0  0  0  0  0
  1  2  1  0
  2  3  1  0
  2  4  1  0
  4  5  1  0
  5  6  1  0
  6  7  1  0
  7  8  2  0
  7  9  1  0
  9  2  1  0
  9  4  1  0
  1 10  1  0
  1 11  1  0
  1 12  1  0
  3 13  1  0
  3 14  1  0
  3 15  1  0
  4 16  1  0
  6 17  1  0
  6 18  1  0
  9 19  1  0
M  END
