
     RDKit          3D

 21 22  0  0  0  0  0  0  0  0999 V2000
   -1.7725    1.0500   -0.5151 C   0  0  0  0  0  0  0  0  0  0  0  0
   -0.9058   -0.0515    0.0074 C   0  0  0  0  0  0  0  0  0  0  0  0
   -1.2968   -0.3858    1.3187 O   0  0  0  0  0  0  0  0  0  0  0  0
   -0.9137   -1.2341   -0.8917 C   0  0  0  0  0  0  0  0  0  0  0  0
    0.4609   -1.3258   -0.2118 C   0  0  0  0  0  0  0  0  0  0  0  0
    1.5469   -0.8339   -0.8510 C   0  0  0  0  0  0  0  0  0  0  0  0
    2.8299   -0.8174   -0.2540 O   0  0  0  0  0  0  0  0  0  0  0  0
    0.5514    0.0642   -0.0978 C   0  0  0  0  0  0  0  0  0  0  0  0
    1.0274    1.3654   -0.3068 C   0  0  0  0  0  0  0  0  0  0  0  0
   -2.6670    0.5611   -0.9757 H   0  0  0  0  0  0  0  0  0  0  0  0
   -1.3040    1.6699   -1.2951 H   0  0  0  0  0  0  0  0  0  0  0  0
   -2.1705    1.6489    0.3396 H   0  0  0  0  0  0  0  0  0  0  0  0
   -1.9610   -1.1363    1.3166 H   0  0  0  0  0  0  0  0  0  0  0  0
   -0.8735   -0.9396   -1.9505 H   0  0  0  0  0  0  0  0  0  0  0  0
   -1.6000   -2.0566   -0.6302 H   0  0  0  0  0  0  0  0  0  0  0  0
    0.4016   -1.9416    0.7295 H   0  0  0  0  0  0  0  0  0  0  0  0
    1.6153   -0.7353   -1.9520 H   0  0  0  0  0  0  0  0  0  0  0  0
    3.4523   -0.2649   -0.7739 H   0  0  0  0  0  0  0  0  0  0  0  0
    2.1005    1.5326    0.0073 H   0  0  0  0  0  0  0  0  0  0  0  0
    1.0208    1.6792   -1.3921 H   0  0  0  0  0  0  0  0  0  0  0  0
    0.4577    2.1514    0.2295 H   0  0  0  0  0  0  0  0  0  0  0  0
  1  2  1  0
  2  3  1  0
  2  4  1  0
  4  5  1  0
  5  6  1  0
  6  7  1  0
  6  8  1  0
  8  9  1  0
  8  2  1  0
  8  5  1  0
  1 10  1  0
  1 11  1  0
  1 12  1  0
  3 13  1  0
  4 14  1  0
  4 15  1  0
  5 16  1  0
  6 17  1  0
  7 18  1  0
  9 19  1  0
  9 20  1  0
  9 21  1  0
M  END
