
     RDKit          3D

 21 23  0  0  0  0  0  0  0  0999 V2000
   -2.3538    1.1619    0.3011 C   0  0  0  0  0  0  0  0  0  0  0  0
   -1.4289    0.0066   -0.0785 C   0  0  0  0  0  0  0  0  0  0  0  0
   -0.0226    0.4107   -0.3843 C   0  0  0  0  0  0  0  0  0  0  0  0
    0.9544   -0.6341   -0.7599 C   0  0  0  0  0  0  0  0  0  0  0  0
    2.4196   -0.3593   -0.8435 C   0  0  0  0  0  0  0  0  0  0  0  0
    2.3987    0.5951    0.3177 C   0  0  0  0  0  0  0  0  0  0  0  0
    0.9949    0.0852    0.6290 C   0  0  0  0  0  0  0  0  0  0  0  0
   -1.9645   -1.2554   -0.4248 C   0  0  0  0  0  0  0  0  0  0  0  0
   -1.5183   -1.0931    0.9043 O   0  0  0  0  0  0  0  0  0  0  0  0
   -2.9569    0.9361    1.1930 H   0  0  0  0  0  0  0  0  0  0  0  0
   -3.0479    1.4246   -0.5102 H   0  0  0  0  0  0  0  0  0  0  0  0
   -1.7508    2.0679    0.5516 H   0  0  0  0  0  0  0  0  0  0  0  0
    0.0653    1.4374   -0.8260 H   0  0  0  0  0  0  0  0  0  0  0  0
    0.6102   -1.6862   -0.7132 H   0  0  0  0  0  0  0  0  0  0  0  0
    2.9894   -1.2918   -0.5594 H   0  0  0  0  0  0  0  0  0  0  0  0
    2.7869    0.0632   -1.8080 H   0  0  0  0  0  0  0  0  0  0  0  0
    2.2987    1.6736   -0.0035 H   0  0  0  0  0  0  0  0  0  0  0  0
    3.1430    0.4198    1.1090 H   0  0  0  0  0  0  0  0  0  0  0  0
    0.8283   -0.5570    1.4906 H   0  0  0  0  0  0  0  0  0  0  0  0
   -1.3830   -1.9956   -0.9923 H   0  0  0  0  0  0  0  0  0  0  0  0
   -3.0628   -1.4099   -0.4675 H   0  0  0  0  0  0  0  0  0  0  0  0
  1  2  1  0
  2  3  1  0
  3  4  1  0
  4  5  1  0
  5  6  1  0
  6  7  1  0
  2  8  1  0
  8  9  1  0
  9  2  1  0
  7  3  1  0
  7  4  1  0
  1 10  1  0
  1 11  1  0
  1 12  1  0
  3 13  1  0
  4 14  1  0
  5 15  1  0
  5 16  1  0
  6 17  1  0
  6 18  1  0
  7 19  1  0
  8 20  1  0
  8 21  1  0
M  END
