
     RDKit          3D

 19 19  0  0  0  0  0  0  0  0999 V2000
   -1.3758    1.2243   -0.0551 C   0  0  0  0  0  0  0  0  0  0  0  0
   -1.0418   -0.2614    0.1094 C   0  0  0  0  0  0  0  0  0  0  0  0
   -0.0358   -0.6193    1.1689 C   0  0  0  0  0  0  0  0  0  0  0  0
    1.2415   -0.7693    0.6708 O   0  0  0  0  0  0  0  0  0  0  0  0
    1.7496    0.3552    0.0647 C   0  0  0  0  0  0  0  0  0  0  0  0
    3.1251    0.0362   -0.4175 C   0  0  0  0  0  0  0  0  0  0  0  0
    3.8032    0.8920   -1.0042 O   0  0  0  0  0  0  0  0  0  0  0  0
   -2.2630   -1.1625   -0.0274 C   0  0  0  0  0  0  0  0  0  0  0  0
   -1.2484   -1.1109   -0.9456 O   0  0  0  0  0  0  0  0  0  0  0  0
   -0.5536    1.8450    0.3065 H   0  0  0  0  0  0  0  0  0  0  0  0
   -2.3167    1.3789    0.5499 H   0  0  0  0  0  0  0  0  0  0  0  0
   -1.5574    1.3999   -1.1278 H   0  0  0  0  0  0  0  0  0  0  0  0
   -0.0958    0.1241    1.9933 H   0  0  0  0  0  0  0  0  0  0  0  0
   -0.3366   -1.5898    1.6155 H   0  0  0  0  0  0  0  0  0  0  0  0
    1.7398    1.2604    0.7053 H   0  0  0  0  0  0  0  0  0  0  0  0
    1.1579    0.6222   -0.8530 H   0  0  0  0  0  0  0  0  0  0  0  0
    3.5755   -0.9430   -0.2741 H   0  0  0  0  0  0  0  0  0  0  0  0
   -3.2407   -0.7014   -0.2642 H   0  0  0  0  0  0  0  0  0  0  0  0
   -2.3271   -1.9805    0.7136 H   0  0  0  0  0  0  0  0  0  0  0  0
  1  2  1  0
  2  3  1  0
  3  4  1  0
  4  5  1  0
  5  6  1  0
  6  7  2  0
  2  8  1  0
  8  9  1  0
  9  2  1  0
  1 10  1  0
  1 11  1  0
  1 12  1  0
  3 13  1  0
  3 14  1  0
  5 15  1  0
  5 16  1  0
  6 17  1  0
  8 18  1  0
  8 19  1  0
M  END
