
     RDKit          3D

 19 19  0  0  0  0  0  0  0  0999 V2000
   -1.5486   -1.4085    0.5065 C   0  0  0  0  0  0  0  0  0  0  0  0
   -0.7371   -0.1888    0.1303 C   0  0  0  0  0  0  0  0  0  0  0  0
   -1.2472    1.0884    0.7647 C   0  0  0  0  0  0  0  0  0  0  0  0
   -0.2852   -0.0103   -1.2983 C   0  0  0  0  0  0  0  0  0  0  0  0
    0.6834   -0.3433   -0.2539 C   0  0  0  0  0  0  0  0  0  0  0  0
    1.6153    0.6490    0.3255 C   0  0  0  0  0  0  0  0  0  0  0  0
    1.2572    1.8450    0.3365 O   0  0  0  0  0  0  0  0  0  0  0  0
    2.9055    0.2797    0.8696 C   0  0  0  0  0  0  0  0  0  0  0  0
    3.3068   -0.9366    0.8757 O   0  0  0  0  0  0  0  0  0  0  0  0
   -1.7246   -1.3511    1.6023 H   0  0  0  0  0  0  0  0  0  0  0  0
   -1.0043   -2.3360    0.2190 H   0  0  0  0  0  0  0  0  0  0  0  0
   -2.5405   -1.3430   -0.0047 H   0  0  0  0  0  0  0  0  0  0  0  0
   -2.3662    1.0004    0.8181 H   0  0  0  0  0  0  0  0  0  0  0  0
   -0.8905    1.2121    1.8002 H   0  0  0  0  0  0  0  0  0  0  0  0
   -1.0652    1.9789    0.1250 H   0  0  0  0  0  0  0  0  0  0  0  0
   -0.3411    0.9971   -1.7647 H   0  0  0  0  0  0  0  0  0  0  0  0
   -0.6147   -0.8147   -1.9728 H   0  0  0  0  0  0  0  0  0  0  0  0
    1.0664   -1.3835   -0.2307 H   0  0  0  0  0  0  0  0  0  0  0  0
    3.5307    1.0653    1.2761 H   0  0  0  0  0  0  0  0  0  0  0  0
  1  2  1  0
  2  3  1  0
  2  4  1  0
  4  5  1  0
  5  6  1  0
  6  7  2  0
  6  8  1  0
  8  9  2  0
  5  2  1  0
  1 10  1  0
  1 11  1  0
  1 12  1  0
  3 13  1  0
  3 14  1  0
  3 15  1  0
  4 16  1  0
  4 17  1  0
  5 18  1  0
  8 19  1  0
M  END
