
     RDKit          3D

 23 23  0  0  0  0  0  0  0  0999 V2000
    1.7467   -0.4527   -0.9065 C   0  0  0  0  0  0  0  0  0  0  0  0
    1.0316    0.1639    0.2672 C   0  0  0  0  0  0  0  0  0  0  0  0
    2.0741    0.6409    1.1106 O   0  0  0  0  0  0  0  0  0  0  0  0
    0.2738   -0.8063    1.0855 C   0  0  0  0  0  0  0  0  0  0  0  0
   -0.7497   -1.6181    0.4067 C   0  0  0  0  0  0  0  0  0  0  0  0
   -1.9826   -0.7596    0.2523 C   0  0  0  0  0  0  0  0  0  0  0  0
   -1.9873    0.4166   -0.3515 C   0  0  0  0  0  0  0  0  0  0  0  0
   -0.9045    1.1716   -0.9921 C   0  0  0  0  0  0  0  0  0  0  0  0
    0.2762    1.4091   -0.1017 C   0  0  0  0  0  0  0  0  0  0  0  0
    2.6879   -0.9542   -0.5310 H   0  0  0  0  0  0  0  0  0  0  0  0
    2.0263    0.3131   -1.6587 H   0  0  0  0  0  0  0  0  0  0  0  0
    1.1836   -1.2267   -1.4260 H   0  0  0  0  0  0  0  0  0  0  0  0
    1.7317    1.3783    1.6890 H   0  0  0  0  0  0  0  0  0  0  0  0
   -0.2049   -0.2523    1.9253 H   0  0  0  0  0  0  0  0  0  0  0  0
    1.0223   -1.4845    1.5908 H   0  0  0  0  0  0  0  0  0  0  0  0
   -0.5128   -1.9880   -0.5903 H   0  0  0  0  0  0  0  0  0  0  0  0
   -0.9881   -2.5167    1.0317 H   0  0  0  0  0  0  0  0  0  0  0  0
   -2.9023   -1.1259    0.6549 H   0  0  0  0  0  0  0  0  0  0  0  0
   -2.9547    0.8940   -0.3717 H   0  0  0  0  0  0  0  0  0  0  0  0
   -0.5850    0.6088   -1.8921 H   0  0  0  0  0  0  0  0  0  0  0  0
   -1.2588    2.1664   -1.3324 H   0  0  0  0  0  0  0  0  0  0  0  0
    0.9829    2.0601   -0.6672 H   0  0  0  0  0  0  0  0  0  0  0  0
   -0.0063    1.9622    0.8072 H   0  0  0  0  0  0  0  0  0  0  0  0
  1  2  1  0
  2  3  1  0
  2  4  1  0
  4  5  1  0
  5  6  1  0
  6  7  2  0
  7  8  1  0
  8  9  1  0
  9  2  1  0
  1 10  1  0
  1 11  1  0
  1 12  1  0
  3 13  1  0
  4 14  1  0
  4 15  1  0
  5 16  1  0
  5 17  1  0
  6 18  1  0
  7 19  1  0
  8 20  1  0
  8 21  1  0
  9 22  1  0
  9 23  1  0
M  END
