
     RDKit          3D

 19 20  0  0  0  0  0  0  0  0999 V2000
   -1.8037   -0.6042   -0.3410 C   0  0  0  0  0  0  0  0  0  0  0  0
   -0.6859    0.3329   -0.0683 C   0  0  0  0  0  0  0  0  0  0  0  0
   -1.2103    1.6250    0.0262 O   0  0  0  0  0  0  0  0  0  0  0  0
    0.0742   -0.0227    1.2232 C   0  0  0  0  0  0  0  0  0  0  0  0
    1.4599   -0.0867    0.6496 C   0  0  0  0  0  0  0  0  0  0  0  0
    1.2521   -0.9462   -0.5909 C   0  0  0  0  0  0  0  0  0  0  0  0
    0.4450    0.2697   -1.0373 C   0  0  0  0  0  0  0  0  0  0  0  0
    1.4976    1.0647   -0.3035 C   0  0  0  0  0  0  0  0  0  0  0  0
    2.0394    2.1149   -0.4848 O   0  0  0  0  0  0  0  0  0  0  0  0
   -2.3888   -0.7176    0.6174 H   0  0  0  0  0  0  0  0  0  0  0  0
   -2.5224   -0.0813   -1.0315 H   0  0  0  0  0  0  0  0  0  0  0  0
   -1.5204   -1.5929   -0.7004 H   0  0  0  0  0  0  0  0  0  0  0  0
   -1.7165    1.6525    0.8812 H   0  0  0  0  0  0  0  0  0  0  0  0
   -0.0521    0.7691    1.9858 H   0  0  0  0  0  0  0  0  0  0  0  0
   -0.2464   -1.0279    1.5873 H   0  0  0  0  0  0  0  0  0  0  0  0
    2.2968   -0.2741    1.2665 H   0  0  0  0  0  0  0  0  0  0  0  0
    2.1724   -1.1033   -1.1633 H   0  0  0  0  0  0  0  0  0  0  0  0
    0.5946   -1.8180   -0.4479 H   0  0  0  0  0  0  0  0  0  0  0  0
    0.3145    0.4461   -2.0683 H   0  0  0  0  0  0  0  0  0  0  0  0
  1  2  1  0
  2  3  1  0
  2  4  1  0
  4  5  1  0
  5  6  1  0
  6  7  1  0
  7  8  1  0
  8  9  2  0
  7  2  1  0
  8  5  1  0
  1 10  1  0
  1 11  1  0
  1 12  1  0
  3 13  1  0
  4 14  1  0
  4 15  1  0
  5 16  1  0
  6 17  1  0
  6 18  1  0
  7 19  1  0
M  END
