
     RDKit          3D

 21 22  0  0  0  0  0  0  0  0999 V2000
   -1.4305    1.3825    0.8544 C   0  0  0  0  0  0  0  0  0  0  0  0
   -0.9596    0.1605    0.0574 C   0  0  0  0  0  0  0  0  0  0  0  0
   -1.7641   -0.0636   -1.2078 C   0  0  0  0  0  0  0  0  0  0  0  0
   -0.5799   -1.0062    0.8956 C   0  0  0  0  0  0  0  0  0  0  0  0
    0.4440   -0.1665    0.1641 C   0  0  0  0  0  0  0  0  0  0  0  0
    1.2284   -0.9401   -0.8454 C   0  0  0  0  0  0  0  0  0  0  0  0
    2.3809   -0.1964   -0.9860 O   0  0  0  0  0  0  0  0  0  0  0  0
    2.6066    0.3825    0.2656 C   0  0  0  0  0  0  0  0  0  0  0  0
    1.3746    0.5633    0.8615 O   0  0  0  0  0  0  0  0  0  0  0  0
   -1.6396    1.0978    1.9160 H   0  0  0  0  0  0  0  0  0  0  0  0
   -0.6367    2.1532    0.8938 H   0  0  0  0  0  0  0  0  0  0  0  0
   -2.3736    1.7908    0.4598 H   0  0  0  0  0  0  0  0  0  0  0  0
   -2.6323    0.6275   -1.2852 H   0  0  0  0  0  0  0  0  0  0  0  0
   -2.1343   -1.0928   -1.3085 H   0  0  0  0  0  0  0  0  0  0  0  0
   -1.0921    0.1801   -2.0649 H   0  0  0  0  0  0  0  0  0  0  0  0
   -0.4957   -0.9625    1.9809 H   0  0  0  0  0  0  0  0  0  0  0  0
   -0.8257   -2.0227    0.5097 H   0  0  0  0  0  0  0  0  0  0  0  0
    0.7026   -1.1539   -1.7792 H   0  0  0  0  0  0  0  0  0  0  0  0
    1.5342   -1.9057   -0.3448 H   0  0  0  0  0  0  0  0  0  0  0  0
    3.2632   -0.2250    0.9085 H   0  0  0  0  0  0  0  0  0  0  0  0
    3.0298    1.3972    0.0545 H   0  0  0  0  0  0  0  0  0  0  0  0
  1  2  1  0
  2  3  1  0
  2  4  1  0
  4  5  1  0
  5  6  1  0
  6  7  1  0
  7  8  1  0
  8  9  1  0
  5  2  1  0
  9  5  1  0
  1 10  1  0
  1 11  1  0
  1 12  1  0
  3 13  1  0
  3 14  1  0
  3 15  1  0
  4 16  1  0
  4 17  1  0
  6 18  1  0
  6 19  1  0
  8 20  1  0
  8 21  1  0
M  END
