
     RDKit          3D

 19 20  0  0  0  0  0  0  0  0999 V2000
   -1.9313    0.4491    0.6521 C   0  0  0  0  0  0  0  0  0  0  0  0
   -0.9780    0.1830   -0.5203 C   0  0  0  0  0  0  0  0  0  0  0  0
   -1.2843    0.8614   -1.6665 O   0  0  0  0  0  0  0  0  0  0  0  0
   -0.5352   -1.2935   -0.6653 C   0  0  0  0  0  0  0  0  0  0  0  0
    0.3433   -0.2804   -0.1399 C   0  0  0  0  0  0  0  0  0  0  0  0
    1.6249    0.1678   -0.6953 C   0  0  0  0  0  0  0  0  0  0  0  0
    2.0799    0.4962    0.6876 C   0  0  0  0  0  0  0  0  0  0  0  0
    3.0143    1.0993    1.1922 O   0  0  0  0  0  0  0  0  0  0  0  0
    0.8873   -0.2367    1.2485 C   0  0  0  0  0  0  0  0  0  0  0  0
   -1.8047    1.5317    0.9064 H   0  0  0  0  0  0  0  0  0  0  0  0
   -2.9735    0.2034    0.3720 H   0  0  0  0  0  0  0  0  0  0  0  0
   -1.6424   -0.2020    1.5224 H   0  0  0  0  0  0  0  0  0  0  0  0
   -0.5399    1.0608   -2.2577 H   0  0  0  0  0  0  0  0  0  0  0  0
   -0.4061   -1.6576   -1.7088 H   0  0  0  0  0  0  0  0  0  0  0  0
   -1.0841   -2.0335   -0.0247 H   0  0  0  0  0  0  0  0  0  0  0  0
    1.5648    1.0584   -1.3722 H   0  0  0  0  0  0  0  0  0  0  0  0
    2.2683   -0.6517   -1.1027 H   0  0  0  0  0  0  0  0  0  0  0  0
    0.2850    0.4515    1.8794 H   0  0  0  0  0  0  0  0  0  0  0  0
    1.1117   -1.2072    1.6929 H   0  0  0  0  0  0  0  0  0  0  0  0
  1  2  1  0
  2  3  1  0
  2  4  1  0
  4  5  1  0
  5  6  1  0
  6  7  1  0
  7  8  2  0
  7  9  1  0
  5  2  1  0
  9  5  1  0
  1 10  1  0
  1 11  1  0
  1 12  1  0
  3 13  1  0
  4 14  1  0
  4 15  1  0
  6 16  1  0
  6 17  1  0
  9 18  1  0
  9 19  1  0
M  END
