
     RDKit          3D

 19 19  0  0  0  0  0  0  0  0999 V2000
   -0.5161    1.4273   -0.9690 C   0  0  0  0  0  0  0  0  0  0  0  0
   -0.0779    0.2609   -0.0751 C   0  0  0  0  0  0  0  0  0  0  0  0
   -1.0326   -0.8855   -0.0443 C   0  0  0  0  0  0  0  0  0  0  0  0
   -2.3843   -0.5587    0.4375 C   0  0  0  0  0  0  0  0  0  0  0  0
   -3.1807    0.0104   -0.2731 O   0  0  0  0  0  0  0  0  0  0  0  0
    1.3526   -0.1929   -0.4260 C   0  0  0  0  0  0  0  0  0  0  0  0
    1.6435   -1.5626   -0.3081 O   0  0  0  0  0  0  0  0  0  0  0  0
    0.9869    0.5186    0.8711 C   0  0  0  0  0  0  0  0  0  0  0  0
    1.2457   -0.1962    2.0222 O   0  0  0  0  0  0  0  0  0  0  0  0
    0.2731    2.2226   -0.9661 H   0  0  0  0  0  0  0  0  0  0  0  0
   -1.4342    1.8841   -0.5996 H   0  0  0  0  0  0  0  0  0  0  0  0
   -0.6509    1.0175   -1.9864 H   0  0  0  0  0  0  0  0  0  0  0  0
   -1.1444   -1.2752   -1.0980 H   0  0  0  0  0  0  0  0  0  0  0  0
   -0.5853   -1.7066    0.5586 H   0  0  0  0  0  0  0  0  0  0  0  0
   -2.6844   -0.8220    1.4376 H   0  0  0  0  0  0  0  0  0  0  0  0
    1.9119    0.3287   -1.2030 H   0  0  0  0  0  0  0  0  0  0  0  0
    2.6314   -1.6166   -0.2771 H   0  0  0  0  0  0  0  0  0  0  0  0
    1.4118    1.5529    0.9000 H   0  0  0  0  0  0  0  0  0  0  0  0
    2.2339   -0.4066    1.9987 H   0  0  0  0  0  0  0  0  0  0  0  0
  1  2  1  0
  2  3  1  0
  3  4  1  0
  4  5  2  0
  2  6  1  0
  6  7  1  0
  6  8  1  0
  8  9  1  0
  8  2  1  0
  1 10  1  0
  1 11  1  0
  1 12  1  0
  3 13  1  0
  3 14  1  0
  4 15  1  0
  6 16  1  0
  7 17  1  0
  8 18  1  0
  9 19  1  0
M  END
