
     RDKit          3D

 19 19  0  0  0  0  0  0  0  0999 V2000
   -1.8171    0.2597   -0.7786 C   0  0  0  0  0  0  0  0  0  0  0  0
   -0.6479   -0.0618    0.1154 C   0  0  0  0  0  0  0  0  0  0  0  0
   -1.1253   -0.5393    1.4426 C   0  0  0  0  0  0  0  0  0  0  0  0
   -1.8423   -1.5114    1.4628 O   0  0  0  0  0  0  0  0  0  0  0  0
    0.3174   -1.0761   -0.4865 C   0  0  0  0  0  0  0  0  0  0  0  0
    1.4211   -0.0452   -0.4443 C   0  0  0  0  0  0  0  0  0  0  0  0
    2.4558   -0.4192    0.4299 O   0  0  0  0  0  0  0  0  0  0  0  0
    0.4409    0.9368    0.1132 C   0  0  0  0  0  0  0  0  0  0  0  0
    0.7748    1.5418    1.3050 O   0  0  0  0  0  0  0  0  0  0  0  0
   -1.8709   -0.4849   -1.5852 H   0  0  0  0  0  0  0  0  0  0  0  0
   -2.7738    0.3489   -0.2331 H   0  0  0  0  0  0  0  0  0  0  0  0
   -1.6207    1.2614   -1.2217 H   0  0  0  0  0  0  0  0  0  0  0  0
   -0.8624   -0.0638    2.3574 H   0  0  0  0  0  0  0  0  0  0  0  0
    0.1017   -1.3730   -1.5206 H   0  0  0  0  0  0  0  0  0  0  0  0
    0.5343   -1.9472    0.1851 H   0  0  0  0  0  0  0  0  0  0  0  0
    1.8274    0.2137   -1.4515 H   0  0  0  0  0  0  0  0  0  0  0  0
    3.0229   -1.0510   -0.1087 H   0  0  0  0  0  0  0  0  0  0  0  0
    0.2316    1.7392   -0.6530 H   0  0  0  0  0  0  0  0  0  0  0  0
    1.4326    2.2714    1.0719 H   0  0  0  0  0  0  0  0  0  0  0  0
  1  2  1  0
  2  3  1  0
  3  4  2  0
  2  5  1  0
  5  6  1  0
  6  7  1  0
  6  8  1  0
  8  9  1  0
  8  2  1  0
  1 10  1  0
  1 11  1  0
  1 12  1  0
  3 13  1  0
  5 14  1  0
  5 15  1  0
  6 16  1  0
  7 17  1  0
  8 18  1  0
  9 19  1  0
M  END
