
     RDKit          3D

 19 19  0  0  0  0  0  0  0  0999 V2000
   -1.0716   -1.0412    0.9772 C   0  0  0  0  0  0  0  0  0  0  0  0
   -0.5786   -0.1406   -0.1370 C   0  0  0  0  0  0  0  0  0  0  0  0
   -1.7064    0.2087   -1.0965 C   0  0  0  0  0  0  0  0  0  0  0  0
   -0.1110    1.1391    0.4515 C   0  0  0  0  0  0  0  0  0  0  0  0
    1.1607    1.4946    0.4368 C   0  0  0  0  0  0  0  0  0  0  0  0
    2.0932    0.5659   -0.1886 C   0  0  0  0  0  0  0  0  0  0  0  0
    3.2068    0.9272   -0.6490 O   0  0  0  0  0  0  0  0  0  0  0  0
    1.6171   -0.8416   -0.2359 C   0  0  0  0  0  0  0  0  0  0  0  0
    0.3770   -0.8173   -0.8479 O   0  0  0  0  0  0  0  0  0  0  0  0
   -0.3082   -1.0654    1.7639 H   0  0  0  0  0  0  0  0  0  0  0  0
   -1.1754   -2.0647    0.5703 H   0  0  0  0  0  0  0  0  0  0  0  0
   -2.0719   -0.7356    1.3446 H   0  0  0  0  0  0  0  0  0  0  0  0
   -2.1479    1.1966   -0.8739 H   0  0  0  0  0  0  0  0  0  0  0  0
   -2.4697   -0.5820   -1.1050 H   0  0  0  0  0  0  0  0  0  0  0  0
   -1.2747    0.2801   -2.1364 H   0  0  0  0  0  0  0  0  0  0  0  0
   -0.8479    1.7772    0.8963 H   0  0  0  0  0  0  0  0  0  0  0  0
    1.5315    2.4193    0.8556 H   0  0  0  0  0  0  0  0  0  0  0  0
    1.4785   -1.2407    0.7954 H   0  0  0  0  0  0  0  0  0  0  0  0
    2.2984   -1.4798   -0.8216 H   0  0  0  0  0  0  0  0  0  0  0  0
  1  2  1  0
  2  3  1  0
  2  4  1  0
  4  5  2  0
  5  6  1  0
  6  7  2  0
  6  8  1  0
  8  9  1  0
  9  2  1  0
  1 10  1  0
  1 11  1  0
  1 12  1  0
  3 13  1  0
  3 14  1  0
  3 15  1  0
  4 16  1  0
  5 17  1  0
  8 18  1  0
  8 19  1  0
M  END
