
     RDKit          3D

 19 19  0  0  0  0  0  0  0  0999 V2000
   -1.9652   -0.5320    0.2301 C   0  0  0  0  0  0  0  0  0  0  0  0
   -0.7340    0.2321   -0.1965 C   0  0  0  0  0  0  0  0  0  0  0  0
   -1.0498    1.2713   -1.0832 O   0  0  0  0  0  0  0  0  0  0  0  0
    0.1135   -0.7583   -1.0040 C   0  0  0  0  0  0  0  0  0  0  0  0
    1.2257   -0.0624   -1.4331 O   0  0  0  0  0  0  0  0  0  0  0  0
    2.1435   -0.0290   -0.4072 C   0  0  0  0  0  0  0  0  0  0  0  0
    1.4485    0.2451    0.8860 C   0  0  0  0  0  0  0  0  0  0  0  0
    2.0859    0.0552    1.9001 O   0  0  0  0  0  0  0  0  0  0  0  0
    0.0637    0.7218    0.9840 C   0  0  0  0  0  0  0  0  0  0  0  0
   -2.6611   -0.5697   -0.6525 H   0  0  0  0  0  0  0  0  0  0  0  0
   -2.4671   -0.1086    1.0986 H   0  0  0  0  0  0  0  0  0  0  0  0
   -1.7069   -1.6133    0.4218 H   0  0  0  0  0  0  0  0  0  0  0  0
   -1.5767    1.9851   -0.6639 H   0  0  0  0  0  0  0  0  0  0  0  0
    0.3720   -1.5892   -0.3263 H   0  0  0  0  0  0  0  0  0  0  0  0
   -0.5063   -1.0614   -1.8655 H   0  0  0  0  0  0  0  0  0  0  0  0
    2.9534    0.6796   -0.5913 H   0  0  0  0  0  0  0  0  0  0  0  0
    2.6030   -1.0431   -0.3108 H   0  0  0  0  0  0  0  0  0  0  0  0
   -0.3999    0.3506    1.9444 H   0  0  0  0  0  0  0  0  0  0  0  0
    0.0579    1.8264    1.0694 H   0  0  0  0  0  0  0  0  0  0  0  0
  1  2  1  0
  2  3  1  0
  2  4  1  0
  4  5  1  0
  5  6  1  0
  6  7  1  0
  7  8  2  0
  7  9  1  0
  9  2  1  0
  1 10  1  0
  1 11  1  0
  1 12  1  0
  3 13  1  0
  4 14  1  0
  4 15  1  0
  6 16  1  0
  6 17  1  0
  9 18  1  0
  9 19  1  0
M  END
