
     RDKit          3D

 23 24  0  0  0  0  0  0  0  0999 V2000
   -1.8887   -1.6787    0.0413 C   0  0  0  0  0  0  0  0  0  0  0  0
   -1.0478   -0.3907   -0.0548 C   0  0  0  0  0  0  0  0  0  0  0  0
    0.3437   -0.6117    0.3988 C   0  0  0  0  0  0  0  0  0  0  0  0
    1.2662    0.5400    0.3599 C   0  0  0  0  0  0  0  0  0  0  0  0
    2.6986    0.2064    0.8537 C   0  0  0  0  0  0  0  0  0  0  0  0
    2.4604    0.4813   -0.6178 C   0  0  0  0  0  0  0  0  0  0  0  0
   -1.3339    0.3687   -1.3284 C   0  0  0  0  0  0  0  0  0  0  0  0
   -1.8047    0.8483    0.0385 C   0  0  0  0  0  0  0  0  0  0  0  0
   -1.2904    2.0796    0.3867 O   0  0  0  0  0  0  0  0  0  0  0  0
   -1.7184   -2.2097   -0.9185 H   0  0  0  0  0  0  0  0  0  0  0  0
   -1.5114   -2.3318    0.8539 H   0  0  0  0  0  0  0  0  0  0  0  0
   -2.9602   -1.4498    0.1283 H   0  0  0  0  0  0  0  0  0  0  0  0
    0.7753   -1.4481   -0.2270 H   0  0  0  0  0  0  0  0  0  0  0  0
    0.2950   -1.0568    1.4329 H   0  0  0  0  0  0  0  0  0  0  0  0
    0.9695    1.5701    0.5823 H   0  0  0  0  0  0  0  0  0  0  0  0
    2.9156   -0.8304    1.1368 H   0  0  0  0  0  0  0  0  0  0  0  0
    3.2175    0.9727    1.4538 H   0  0  0  0  0  0  0  0  0  0  0  0
    2.8216    1.4069   -1.0639 H   0  0  0  0  0  0  0  0  0  0  0  0
    2.5278   -0.3994   -1.2809 H   0  0  0  0  0  0  0  0  0  0  0  0
   -0.4612    0.8696   -1.7888 H   0  0  0  0  0  0  0  0  0  0  0  0
   -2.1529    0.0504   -1.9981 H   0  0  0  0  0  0  0  0  0  0  0  0
   -2.9091    0.7851    0.2505 H   0  0  0  0  0  0  0  0  0  0  0  0
   -1.2124    2.2280    1.3608 H   0  0  0  0  0  0  0  0  0  0  0  0
  1  2  1  0
  2  3  1  0
  3  4  1  0
  4  5  1  0
  5  6  1  0
  2  7  1  0
  7  8  1  0
  8  9  1  0
  8  2  1  0
  6  4  1  0
  1 10  1  0
  1 11  1  0
  1 12  1  0
  3 13  1  0
  3 14  1  0
  4 15  1  0
  5 16  1  0
  5 17  1  0
  6 18  1  0
  6 19  1  0
  7 20  1  0
  7 21  1  0
  8 22  1  0
  9 23  1  0
M  END
