
     RDKit          3D

 17 18  0  0  0  0  0  0  0  0999 V2000
    1.8173   -0.4959    0.5407 C   0  0  0  0  0  0  0  0  0  0  0  0
    0.6703    0.2472   -0.1882 C   0  0  0  0  0  0  0  0  0  0  0  0
    1.0845    1.5993   -0.6151 C   0  0  0  0  0  0  0  0  0  0  0  0
    1.1389    1.9221   -1.7915 O   0  0  0  0  0  0  0  0  0  0  0  0
   -0.5429    0.1559    0.6272 C   0  0  0  0  0  0  0  0  0  0  0  0
   -1.6511   -0.8571    0.5722 C   0  0  0  0  0  0  0  0  0  0  0  0
   -1.8804   -0.0997   -0.7011 C   0  0  0  0  0  0  0  0  0  0  0  0
   -2.8167    0.4066   -1.2121 O   0  0  0  0  0  0  0  0  0  0  0  0
   -0.4255   -0.3597   -0.8429 C   0  0  0  0  0  0  0  0  0  0  0  0
    1.4948   -1.5171    0.8362 H   0  0  0  0  0  0  0  0  0  0  0  0
    2.6143   -0.5929   -0.2673 H   0  0  0  0  0  0  0  0  0  0  0  0
    2.2417    0.1434    1.3181 H   0  0  0  0  0  0  0  0  0  0  0  0
    1.3380    2.3439    0.1347 H   0  0  0  0  0  0  0  0  0  0  0  0
   -1.0391    1.1755    0.7371 H   0  0  0  0  0  0  0  0  0  0  0  0
   -2.4027   -0.6941    1.3580 H   0  0  0  0  0  0  0  0  0  0  0  0
   -1.3058   -1.8992    0.4537 H   0  0  0  0  0  0  0  0  0  0  0  0
   -0.3357   -1.4782   -0.9597 H   0  0  0  0  0  0  0  0  0  0  0  0
  1  2  1  0
  2  3  1  0
  3  4  2  0
  2  5  1  0
  5  6  1  0
  6  7  1  0
  7  8  2  0
  7  9  1  0
  9  2  1  0
  9  5  1  0
  1 10  1  0
  1 11  1  0
  1 12  1  0
  3 13  1  0
  5 14  1  0
  6 15  1  0
  6 16  1  0
  9 17  1  0
M  END
