
     RDKit          3D

 21 22  0  0  0  0  0  0  0  0999 V2000
   -1.7333    0.0665   -1.2986 C   0  0  0  0  0  0  0  0  0  0  0  0
   -0.7304   -0.0457   -0.1453 C   0  0  0  0  0  0  0  0  0  0  0  0
   -1.3897   -0.7137    1.0559 C   0  0  0  0  0  0  0  0  0  0  0  0
   -0.2318    1.2893    0.2617 C   0  0  0  0  0  0  0  0  0  0  0  0
    1.0255    1.4768    0.6362 C   0  0  0  0  0  0  0  0  0  0  0  0
    2.0144    0.3757    0.6747 C   0  0  0  0  0  0  0  0  0  0  0  0
    1.6504   -0.7813   -0.1877 C   0  0  0  0  0  0  0  0  0  0  0  0
    1.2756   -0.2778   -1.5370 O   0  0  0  0  0  0  0  0  0  0  0  0
    0.3721   -0.9247   -0.6311 C   0  0  0  0  0  0  0  0  0  0  0  0
   -2.3696    0.9425   -1.2132 H   0  0  0  0  0  0  0  0  0  0  0  0
   -2.2575   -0.8941   -1.3765 H   0  0  0  0  0  0  0  0  0  0  0  0
   -1.1011    0.1831   -2.2180 H   0  0  0  0  0  0  0  0  0  0  0  0
   -0.9591   -0.2358    1.9794 H   0  0  0  0  0  0  0  0  0  0  0  0
   -2.4777   -0.6517    1.0108 H   0  0  0  0  0  0  0  0  0  0  0  0
   -1.1156   -1.7856    1.1198 H   0  0  0  0  0  0  0  0  0  0  0  0
   -0.8978    2.1422    0.2586 H   0  0  0  0  0  0  0  0  0  0  0  0
    1.3213    2.4783    0.9206 H   0  0  0  0  0  0  0  0  0  0  0  0
    2.1982    0.0407    1.7135 H   0  0  0  0  0  0  0  0  0  0  0  0
    2.9917    0.7759    0.2940 H   0  0  0  0  0  0  0  0  0  0  0  0
    2.4125   -1.5796   -0.2287 H   0  0  0  0  0  0  0  0  0  0  0  0
    0.0019   -1.8808   -1.0890 H   0  0  0  0  0  0  0  0  0  0  0  0
  1  2  1  0
  2  3  1  0
  2  4  1  0
  4  5  2  0
  5  6  1  0
  6  7  1  0
  7  8  1  0
  8  9  1  0
  9  2  1  0
  9  7  1  0
  1 10  1  0
  1 11  1  0
  1 12  1  0
  3 13  1  0
  3 14  1  0
  3 15  1  0
  4 16  1  0
  5 17  1  0
  6 18  1  0
  6 19  1  0
  7 20  1  0
  9 21  1  0
M  END
