
     RDKit          3D

 23 24  0  0  0  0  0  0  0  0999 V2000
   -1.4578   -1.4140    0.0273 C   0  0  0  0  0  0  0  0  0  0  0  0
   -1.1639    0.0297   -0.2274 C   0  0  0  0  0  0  0  0  0  0  0  0
    0.0588    0.3617   -0.7134 O   0  0  0  0  0  0  0  0  0  0  0  0
    1.1839    0.0959   -0.0212 C   0  0  0  0  0  0  0  0  0  0  0  0
    1.4882   -1.3596    0.2648 C   0  0  0  0  0  0  0  0  0  0  0  0
    1.9059    1.0858    0.8030 C   0  0  0  0  0  0  0  0  0  0  0  0
    2.4146    0.8756   -0.5863 C   0  0  0  0  0  0  0  0  0  0  0  0
   -2.2967    0.7611   -0.9958 C   0  0  0  0  0  0  0  0  0  0  0  0
   -2.0347    1.0070    0.4674 C   0  0  0  0  0  0  0  0  0  0  0  0
   -0.8576   -2.1315   -0.5478 H   0  0  0  0  0  0  0  0  0  0  0  0
   -2.5177   -1.6156   -0.3219 H   0  0  0  0  0  0  0  0  0  0  0  0
   -1.5144   -1.6549    1.1182 H   0  0  0  0  0  0  0  0  0  0  0  0
    0.8473   -1.7119    1.0773 H   0  0  0  0  0  0  0  0  0  0  0  0
    2.5288   -1.3800    0.7233 H   0  0  0  0  0  0  0  0  0  0  0  0
    1.4975   -1.9929   -0.6438 H   0  0  0  0  0  0  0  0  0  0  0  0
    2.5655    0.6860    1.5985 H   0  0  0  0  0  0  0  0  0  0  0  0
    1.4585    2.0620    1.0759 H   0  0  0  0  0  0  0  0  0  0  0  0
    2.2358    1.6497   -1.3372 H   0  0  0  0  0  0  0  0  0  0  0  0
    3.3315    0.2818   -0.7633 H   0  0  0  0  0  0  0  0  0  0  0  0
   -3.2276    0.1985   -1.1848 H   0  0  0  0  0  0  0  0  0  0  0  0
   -2.0392    1.5166   -1.7324 H   0  0  0  0  0  0  0  0  0  0  0  0
   -2.7080    0.6072    1.2395 H   0  0  0  0  0  0  0  0  0  0  0  0
   -1.6988    2.0417    0.6803 H   0  0  0  0  0  0  0  0  0  0  0  0
  1  2  1  0
  2  3  1  0
  3  4  1  0
  4  5  1  0
  4  6  1  0
  6  7  1  0
  2  8  1  0
  8  9  1  0
  9  2  1  0
  7  4  1  0
  1 10  1  0
  1 11  1  0
  1 12  1  0
  5 13  1  0
  5 14  1  0
  5 15  1  0
  6 16  1  0
  6 17  1  0
  7 18  1  0
  7 19  1  0
  8 20  1  0
  8 21  1  0
  9 22  1  0
  9 23  1  0
M  END
