
     RDKit          3D

 21 22  0  0  0  0  0  0  0  0999 V2000
   -1.3969   -1.0022    0.8672 C   0  0  0  0  0  0  0  0  0  0  0  0
   -0.9278    0.0105   -0.1111 C   0  0  0  0  0  0  0  0  0  0  0  0
   -1.9770    0.9777   -0.5563 C   0  0  0  0  0  0  0  0  0  0  0  0
   -0.1693   -0.6812   -1.2547 C   0  0  0  0  0  0  0  0  0  0  0  0
    0.9146   -0.7843   -0.2106 C   0  0  0  0  0  0  0  0  0  0  0  0
    2.2169   -0.5062   -0.6039 O   0  0  0  0  0  0  0  0  0  0  0  0
    2.6842    0.4049    0.3669 C   0  0  0  0  0  0  0  0  0  0  0  0
    1.4651    1.2347    0.6047 C   0  0  0  0  0  0  0  0  0  0  0  0
    0.3871    0.5807    0.2400 C   0  0  0  0  0  0  0  0  0  0  0  0
   -1.3166   -2.0405    0.4990 H   0  0  0  0  0  0  0  0  0  0  0  0
   -2.4710   -0.8155    1.1341 H   0  0  0  0  0  0  0  0  0  0  0  0
   -0.8504   -0.9275    1.8422 H   0  0  0  0  0  0  0  0  0  0  0  0
   -2.9603    0.4300   -0.5049 H   0  0  0  0  0  0  0  0  0  0  0  0
   -1.8398    1.3560   -1.5823 H   0  0  0  0  0  0  0  0  0  0  0  0
   -2.0956    1.8334    0.1455 H   0  0  0  0  0  0  0  0  0  0  0  0
    0.1595    0.0153   -2.0542 H   0  0  0  0  0  0  0  0  0  0  0  0
   -0.6173   -1.6222   -1.5923 H   0  0  0  0  0  0  0  0  0  0  0  0
    0.7804   -1.5398    0.5647 H   0  0  0  0  0  0  0  0  0  0  0  0
    2.9807   -0.1350    1.2884 H   0  0  0  0  0  0  0  0  0  0  0  0
    3.5044    0.9691   -0.1101 H   0  0  0  0  0  0  0  0  0  0  0  0
    1.5289    2.2421    1.0276 H   0  0  0  0  0  0  0  0  0  0  0  0
  1  2  1  0
  2  3  1  0
  2  4  1  0
  4  5  1  0
  5  6  1  0
  6  7  1  0
  7  8  1  0
  8  9  2  0
  9  2  1  0
  9  5  1  0
  1 10  1  0
  1 11  1  0
  1 12  1  0
  3 13  1  0
  3 14  1  0
  3 15  1  0
  4 16  1  0
  4 17  1  0
  5 18  1  0
  7 19  1  0
  7 20  1  0
  8 21  1  0
M  END
