
     RDKit          3D

 21 21  0  0  0  0  0  0  0  0999 V2000
   -1.0023   -0.1642    1.3013 C   0  0  0  0  0  0  0  0  0  0  0  0
   -0.8312    0.1030   -0.1659 C   0  0  0  0  0  0  0  0  0  0  0  0
   -2.0453   -0.2717   -0.9987 C   0  0  0  0  0  0  0  0  0  0  0  0
   -0.1373    1.4207   -0.4693 C   0  0  0  0  0  0  0  0  0  0  0  0
    0.4724    0.1462   -0.8273 C   0  0  0  0  0  0  0  0  0  0  0  0
    1.6838   -0.4195   -0.1387 C   0  0  0  0  0  0  0  0  0  0  0  0
    1.4621   -1.7820    0.1125 O   0  0  0  0  0  0  0  0  0  0  0  0
    2.0718    0.2843    1.0817 C   0  0  0  0  0  0  0  0  0  0  0  0
    2.3124    1.4669    1.0931 O   0  0  0  0  0  0  0  0  0  0  0  0
   -1.9779    0.3221    1.5979 H   0  0  0  0  0  0  0  0  0  0  0  0
   -0.2396    0.2845    1.9385 H   0  0  0  0  0  0  0  0  0  0  0  0
   -1.1667   -1.2501    1.4737 H   0  0  0  0  0  0  0  0  0  0  0  0
   -2.7040    0.5949   -1.0629 H   0  0  0  0  0  0  0  0  0  0  0  0
   -2.5546   -1.1161   -0.5338 H   0  0  0  0  0  0  0  0  0  0  0  0
   -1.7020   -0.6217   -2.0129 H   0  0  0  0  0  0  0  0  0  0  0  0
   -0.6535    2.0116   -1.2782 H   0  0  0  0  0  0  0  0  0  0  0  0
    0.1750    2.0635    0.3639 H   0  0  0  0  0  0  0  0  0  0  0  0
    0.4722   -0.1059   -1.9290 H   0  0  0  0  0  0  0  0  0  0  0  0
    2.5801   -0.4022   -0.8274 H   0  0  0  0  0  0  0  0  0  0  0  0
    1.6376   -2.3020   -0.7205 H   0  0  0  0  0  0  0  0  0  0  0  0
    2.1472   -0.2624    2.0021 H   0  0  0  0  0  0  0  0  0  0  0  0
  1  2  1  0
  2  3  1  0
  2  4  1  0
  4  5  1  0
  5  6  1  0
  6  7  1  0
  6  8  1  0
  8  9  2  0
  5  2  1  0
  1 10  1  0
  1 11  1  0
  1 12  1  0
  3 13  1  0
  3 14  1  0
  3 15  1  0
  4 16  1  0
  4 17  1  0
  5 18  1  0
  6 19  1  0
  7 20  1  0
  8 21  1  0
M  END
