
     RDKit          3D

 20 21  0  0  0  0  0  0  0  0999 V2000
   -1.0834    0.2038    1.5996 C   0  0  0  0  0  0  0  0  0  0  0  0
   -0.9601   -0.2764    0.1801 C   0  0  0  0  0  0  0  0  0  0  0  0
    0.2640   -0.7064   -0.3019 O   0  0  0  0  0  0  0  0  0  0  0  0
    1.2181    0.2946   -0.2383 C   0  0  0  0  0  0  0  0  0  0  0  0
    2.3740    0.3497   -1.1431 C   0  0  0  0  0  0  0  0  0  0  0  0
    2.5823   -0.2078    0.2189 C   0  0  0  0  0  0  0  0  0  0  0  0
   -1.8497    0.3354   -0.8891 C   0  0  0  0  0  0  0  0  0  0  0  0
   -2.2046   -0.9812   -0.3196 C   0  0  0  0  0  0  0  0  0  0  0  0
   -0.4546    1.0814    1.8232 H   0  0  0  0  0  0  0  0  0  0  0  0
   -2.1340    0.5184    1.7628 H   0  0  0  0  0  0  0  0  0  0  0  0
   -0.8102   -0.6432    2.2576 H   0  0  0  0  0  0  0  0  0  0  0  0
    0.8480    1.2543    0.1804 H   0  0  0  0  0  0  0  0  0  0  0  0
    2.4728   -0.2990   -2.0380 H   0  0  0  0  0  0  0  0  0  0  0  0
    2.8404    1.3508   -1.3056 H   0  0  0  0  0  0  0  0  0  0  0  0
    2.7609   -1.2941    0.2628 H   0  0  0  0  0  0  0  0  0  0  0  0
    3.0767    0.3565    1.0211 H   0  0  0  0  0  0  0  0  0  0  0  0
   -1.5089    0.3406   -1.9300 H   0  0  0  0  0  0  0  0  0  0  0  0
   -2.3435    1.2661   -0.5540 H   0  0  0  0  0  0  0  0  0  0  0  0
   -3.0897   -1.0623    0.3350 H   0  0  0  0  0  0  0  0  0  0  0  0
   -1.9983   -1.8812   -0.9217 H   0  0  0  0  0  0  0  0  0  0  0  0
  1  2  1  0
  2  3  1  0
  3  4  1  0
  4  5  1  0
  5  6  1  0
  2  7  1  0
  7  8  1  0
  8  2  1  0
  6  4  1  0
  1  9  1  0
  1 10  1  0
  1 11  1  0
  4 12  1  0
  5 13  1  0
  5 14  1  0
  6 15  1  0
  6 16  1  0
  7 17  1  0
  7 18  1  0
  8 19  1  0
  8 20  1  0
M  END
