
     RDKit          3D

 19 19  0  0  0  0  0  0  0  0999 V2000
   -0.7859    1.4440    0.1095 C   0  0  0  0  0  0  0  0  0  0  0  0
   -0.4383   -0.0489    0.0110 C   0  0  0  0  0  0  0  0  0  0  0  0
   -1.7640   -0.7741    0.0511 C   0  0  0  0  0  0  0  0  0  0  0  0
    0.3931   -0.4475    1.1641 C   0  0  0  0  0  0  0  0  0  0  0  0
    1.7045   -0.4390    1.0424 C   0  0  0  0  0  0  0  0  0  0  0  0
    2.3734   -0.0493   -0.1959 C   0  0  0  0  0  0  0  0  0  0  0  0
    3.6064   -0.0267   -0.3519 O   0  0  0  0  0  0  0  0  0  0  0  0
    1.5426    0.3245   -1.2798 O   0  0  0  0  0  0  0  0  0  0  0  0
    0.2221   -0.2337   -1.3229 C   0  0  0  0  0  0  0  0  0  0  0  0
   -1.6959    1.5547    0.7268 H   0  0  0  0  0  0  0  0  0  0  0  0
   -1.0351    1.7946   -0.9126 H   0  0  0  0  0  0  0  0  0  0  0  0
    0.0806    2.0157    0.4920 H   0  0  0  0  0  0  0  0  0  0  0  0
   -2.3334   -0.3277    0.9079 H   0  0  0  0  0  0  0  0  0  0  0  0
   -2.2910   -0.6052   -0.9075 H   0  0  0  0  0  0  0  0  0  0  0  0
   -1.6698   -1.8505    0.2342 H   0  0  0  0  0  0  0  0  0  0  0  0
   -0.1190   -0.7365    2.0810 H   0  0  0  0  0  0  0  0  0  0  0  0
    2.3087   -0.7281    1.8811 H   0  0  0  0  0  0  0  0  0  0  0  0
   -0.3318    0.4118   -2.0526 H   0  0  0  0  0  0  0  0  0  0  0  0
    0.2328   -1.2782   -1.6778 H   0  0  0  0  0  0  0  0  0  0  0  0
  1  2  1  0
  2  3  1  0
  2  4  1  0
  4  5  2  0
  5  6  1  0
  6  7  2  0
  6  8  1  0
  8  9  1  0
  9  2  1  0
  1 10  1  0
  1 11  1  0
  1 12  1  0
  3 13  1  0
  3 14  1  0
  3 15  1  0
  4 16  1  0
  5 17  1  0
  9 18  1  0
  9 19  1  0
M  END
