
     RDKit          3D

 16 16  0  0  0  0  0  0  0  0999 V2000
   -1.1072    1.1872   -0.4011 C   0  0  0  0  0  0  0  0  0  0  0  0
   -0.2273    0.0133   -0.0787 C   0  0  0  0  0  0  0  0  0  0  0  0
   -1.0969   -1.2270    0.1812 C   0  0  0  0  0  0  0  0  0  0  0  0
    0.6915   -0.2633   -1.0793 O   0  0  0  0  0  0  0  0  0  0  0  0
    1.9470   -0.1756   -0.5385 C   0  0  0  0  0  0  0  0  0  0  0  0
    1.8114   -0.3144    0.8649 O   0  0  0  0  0  0  0  0  0  0  0  0
    0.5662    0.2000    1.1492 C   0  0  0  0  0  0  0  0  0  0  0  0
    0.2535    0.7033    2.2461 O   0  0  0  0  0  0  0  0  0  0  0  0
   -1.2548    1.8798    0.4497 H   0  0  0  0  0  0  0  0  0  0  0  0
   -0.7000    1.7283   -1.2864 H   0  0  0  0  0  0  0  0  0  0  0  0
   -2.1150    0.8001   -0.6619 H   0  0  0  0  0  0  0  0  0  0  0  0
   -1.5245   -1.0838    1.1958 H   0  0  0  0  0  0  0  0  0  0  0  0
   -1.8695   -1.2201   -0.5847 H   0  0  0  0  0  0  0  0  0  0  0  0
   -0.4314   -2.1173    0.1500 H   0  0  0  0  0  0  0  0  0  0  0  0
    2.4063    0.8362   -0.6980 H   0  0  0  0  0  0  0  0  0  0  0  0
    2.6506   -0.9466   -0.9084 H   0  0  0  0  0  0  0  0  0  0  0  0
  1  2  1  0
  2  3  1  0
  2  4  1  0
  4  5  1  0
  5  6  1  0
  6  7  1  0
  7  8  2  0
  7  2  1  0
  1  9  1  0
  1 10  1  0
  1 11  1  0
  3 12  1  0
  3 13  1  0
  3 14  1  0
  5 15  1  0
  5 16  1  0
M  END
