
     RDKit          3D

 23 24  0  0  0  0  0  0  0  0999 V2000
   -1.4328   -0.5218   -1.1758 C   0  0  0  0  0  0  0  0  0  0  0  0
   -0.7307   -0.0518    0.0729 C   0  0  0  0  0  0  0  0  0  0  0  0
   -1.3159   -0.6913    1.2757 C   0  0  0  0  0  0  0  0  0  0  0  0
   -0.9705    1.4322    0.1693 C   0  0  0  0  0  0  0  0  0  0  0  0
    0.0551    2.0872   -0.3621 C   0  0  0  0  0  0  0  0  0  0  0  0
    1.0480    1.1257   -0.8499 C   0  0  0  0  0  0  0  0  0  0  0  0
    0.7530   -0.0993   -0.0270 C   0  0  0  0  0  0  0  0  0  0  0  0
    1.5497   -1.2862   -0.2329 C   0  0  0  0  0  0  0  0  0  0  0  0
    1.6545   -0.4652    1.0495 C   0  0  0  0  0  0  0  0  0  0  0  0
   -1.3301   -1.6139   -1.2863 H   0  0  0  0  0  0  0  0  0  0  0  0
   -1.0098    0.0001   -2.0368 H   0  0  0  0  0  0  0  0  0  0  0  0
   -2.5227   -0.3293   -1.0283 H   0  0  0  0  0  0  0  0  0  0  0  0
   -2.1393   -1.4023    0.9726 H   0  0  0  0  0  0  0  0  0  0  0  0
   -1.8382    0.0470    1.9513 H   0  0  0  0  0  0  0  0  0  0  0  0
   -0.6368   -1.2651    1.9009 H   0  0  0  0  0  0  0  0  0  0  0  0
   -1.8309    1.9313    0.5972 H   0  0  0  0  0  0  0  0  0  0  0  0
    0.1795    3.1688   -0.4432 H   0  0  0  0  0  0  0  0  0  0  0  0
    0.8327    0.8723   -1.9185 H   0  0  0  0  0  0  0  0  0  0  0  0
    2.0954    1.4438   -0.7034 H   0  0  0  0  0  0  0  0  0  0  0  0
    1.1880   -2.3206   -0.1821 H   0  0  0  0  0  0  0  0  0  0  0  0
    2.4582   -1.1869   -0.8836 H   0  0  0  0  0  0  0  0  0  0  0  0
    2.5536    0.1704    1.1974 H   0  0  0  0  0  0  0  0  0  0  0  0
    1.3899   -1.0454    1.9428 H   0  0  0  0  0  0  0  0  0  0  0  0
  1  2  1  0
  2  3  1  0
  2  4  1  0
  4  5  2  0
  5  6  1  0
  6  7  1  0
  7  8  1  0
  8  9  1  0
  7  2  1  0
  9  7  1  0
  1 10  1  0
  1 11  1  0
  1 12  1  0
  3 13  1  0
  3 14  1  0
  3 15  1  0
  4 16  1  0
  5 17  1  0
  6 18  1  0
  6 19  1  0
  8 20  1  0
  8 21  1  0
  9 22  1  0
  9 23  1  0
M  END
