
     RDKit          3D

 21 21  0  0  0  0  0  0  0  0999 V2000
   -1.8832    0.3391   -1.2861 C   0  0  0  0  0  0  0  0  0  0  0  0
   -1.2051    0.4920    0.0588 C   0  0  0  0  0  0  0  0  0  0  0  0
   -1.9304    1.3318    0.8868 O   0  0  0  0  0  0  0  0  0  0  0  0
    0.2161    0.8880   -0.0777 C   0  0  0  0  0  0  0  0  0  0  0  0
    0.9828   -0.1852    0.0143 C   0  0  0  0  0  0  0  0  0  0  0  0
    2.4788   -0.2067   -0.0727 C   0  0  0  0  0  0  0  0  0  0  0  0
    3.0098    1.0510   -0.2663 O   0  0  0  0  0  0  0  0  0  0  0  0
    0.1732   -1.4019    0.2179 C   0  0  0  0  0  0  0  0  0  0  0  0
   -1.1405   -0.8792    0.6995 C   0  0  0  0  0  0  0  0  0  0  0  0
   -2.9768    0.3551   -1.1095 H   0  0  0  0  0  0  0  0  0  0  0  0
   -1.5512    1.1071   -2.0085 H   0  0  0  0  0  0  0  0  0  0  0  0
   -1.6430   -0.6502   -1.7476 H   0  0  0  0  0  0  0  0  0  0  0  0
   -1.3351    2.0881    1.1219 H   0  0  0  0  0  0  0  0  0  0  0  0
    0.5777    1.8865   -0.2279 H   0  0  0  0  0  0  0  0  0  0  0  0
    2.9175   -0.7073    0.8053 H   0  0  0  0  0  0  0  0  0  0  0  0
    2.7277   -0.8237   -0.9664 H   0  0  0  0  0  0  0  0  0  0  0  0
    3.0671    1.5981    0.5458 H   0  0  0  0  0  0  0  0  0  0  0  0
    0.6353   -2.1093    0.9341 H   0  0  0  0  0  0  0  0  0  0  0  0
    0.0080   -1.8613   -0.7819 H   0  0  0  0  0  0  0  0  0  0  0  0
   -1.9984   -1.5013    0.3843 H   0  0  0  0  0  0  0  0  0  0  0  0
   -1.1304   -0.8107    1.8126 H   0  0  0  0  0  0  0  0  0  0  0  0
  1  2  1  0
  2  3  1  0
  2  4  1  0
  4  5  2  0
  5  6  1  0
  6  7  1  0
  5  8  1  0
  8  9  1  0
  9  2  1  0
  1 10  1  0
  1 11  1  0
  1 12  1  0
  3 13  1  0
  4 14  1  0
  6 15  1  0
  6 16  1  0
  7 17  1  0
  8 18  1  0
  8 19  1  0
  9 20  1  0
  9 21  1  0
M  END
