
     RDKit          3D

 19 20  0  0  0  0  0  0  0  0999 V2000
   -0.2376    0.8291    1.3661 C   0  0  0  0  0  0  0  0  0  0  0  0
   -0.1008    0.0309    0.1481 C   0  0  0  0  0  0  0  0  0  0  0  0
    1.0751    0.4220   -0.6910 C   0  0  0  0  0  0  0  0  0  0  0  0
    2.3434    0.2593    0.0757 C   0  0  0  0  0  0  0  0  0  0  0  0
    2.3420   -0.1459    1.2290 O   0  0  0  0  0  0  0  0  0  0  0  0
   -1.3449   -0.0601   -0.7591 C   0  0  0  0  0  0  0  0  0  0  0  0
   -1.8324   -0.9708    0.3331 C   0  0  0  0  0  0  0  0  0  0  0  0
   -1.3351   -2.1116    0.7697 O   0  0  0  0  0  0  0  0  0  0  0  0
   -0.3508   -1.4437    0.2226 C   0  0  0  0  0  0  0  0  0  0  0  0
    0.6667    1.4581    1.5026 H   0  0  0  0  0  0  0  0  0  0  0  0
   -1.0866    1.5566    1.2315 H   0  0  0  0  0  0  0  0  0  0  0  0
   -0.3450    0.2612    2.3135 H   0  0  0  0  0  0  0  0  0  0  0  0
    1.1096   -0.1138   -1.6641 H   0  0  0  0  0  0  0  0  0  0  0  0
    1.0160    1.5126   -0.9481 H   0  0  0  0  0  0  0  0  0  0  0  0
    3.3165    0.4882   -0.3430 H   0  0  0  0  0  0  0  0  0  0  0  0
   -1.9192    0.8519   -0.8539 H   0  0  0  0  0  0  0  0  0  0  0  0
   -1.1137   -0.6302   -1.6642 H   0  0  0  0  0  0  0  0  0  0  0  0
   -2.0751   -0.3249    1.2352 H   0  0  0  0  0  0  0  0  0  0  0  0
   -0.1281   -1.8689   -0.8132 H   0  0  0  0  0  0  0  0  0  0  0  0
  1  2  1  0
  2  3  1  0
  3  4  1  0
  4  5  2  0
  2  6  1  0
  6  7  1  0
  7  8  1  0
  8  9  1  0
  9  2  1  0
  9  7  1  0
  1 10  1  0
  1 11  1  0
  1 12  1  0
  3 13  1  0
  3 14  1  0
  4 15  1  0
  6 16  1  0
  6 17  1  0
  7 18  1  0
  9 19  1  0
M  END
