
     RDKit          3D

 17 18  0  0  0  0  0  0  0  0999 V2000
    1.6591    1.0222   -0.3447 C   0  0  0  0  0  0  0  0  0  0  0  0
    0.6560    0.1023    0.4048 C   0  0  0  0  0  0  0  0  0  0  0  0
    1.4103   -0.9700    1.1102 C   0  0  0  0  0  0  0  0  0  0  0  0
    1.8016   -1.8844    0.4413 O   0  0  0  0  0  0  0  0  0  0  0  0
   -0.2813    0.8535    1.1890 O   0  0  0  0  0  0  0  0  0  0  0  0
   -0.6487    0.0941    0.1507 C   0  0  0  0  0  0  0  0  0  0  0  0
   -1.6882   -0.9873    0.2338 C   0  0  0  0  0  0  0  0  0  0  0  0
   -1.9949   -0.6875   -1.0897 O   0  0  0  0  0  0  0  0  0  0  0  0
   -1.4387    0.5932   -1.0434 C   0  0  0  0  0  0  0  0  0  0  0  0
    2.0516    0.2945   -1.1439 H   0  0  0  0  0  0  0  0  0  0  0  0
    2.4343    1.4246    0.2646 H   0  0  0  0  0  0  0  0  0  0  0  0
    1.0855    1.7682   -0.9053 H   0  0  0  0  0  0  0  0  0  0  0  0
    1.5941   -0.9373    2.1865 H   0  0  0  0  0  0  0  0  0  0  0  0
   -1.2463   -2.0181    0.3364 H   0  0  0  0  0  0  0  0  0  0  0  0
   -2.5467   -0.8204    0.9143 H   0  0  0  0  0  0  0  0  0  0  0  0
   -2.1378    1.3969   -0.8333 H   0  0  0  0  0  0  0  0  0  0  0  0
   -0.7097    0.7555   -1.8713 H   0  0  0  0  0  0  0  0  0  0  0  0
  1  2  1  0
  2  3  1  0
  3  4  2  0
  2  5  1  0
  5  6  1  0
  6  7  1  0
  7  8  1  0
  8  9  1  0
  6  2  1  0
  9  6  1  0
  1 10  1  0
  1 11  1  0
  1 12  1  0
  3 13  1  0
  7 14  1  0
  7 15  1  0
  9 16  1  0
  9 17  1  0
M  END
