
     RDKit          3D

 21 22  0  0  0  0  0  0  0  0999 V2000
    2.2296    0.5538    0.3378 C   0  0  0  0  0  0  0  0  0  0  0  0
    1.0586    0.2486   -0.6066 C   0  0  0  0  0  0  0  0  0  0  0  0
    1.5590    0.0255   -1.9090 O   0  0  0  0  0  0  0  0  0  0  0  0
   -0.0851    1.0478   -0.4249 C   0  0  0  0  0  0  0  0  0  0  0  0
   -0.9674    1.2376    0.5973 O   0  0  0  0  0  0  0  0  0  0  0  0
   -2.0617    0.4461    0.1547 C   0  0  0  0  0  0  0  0  0  0  0  0
   -1.4193   -0.7113   -0.6395 C   0  0  0  0  0  0  0  0  0  0  0  0
   -0.0216   -0.5177   -0.1722 C   0  0  0  0  0  0  0  0  0  0  0  0
    0.0470   -0.9211    1.3193 C   0  0  0  0  0  0  0  0  0  0  0  0
    1.9147    0.6232    1.3803 H   0  0  0  0  0  0  0  0  0  0  0  0
    3.0819   -0.0983    0.1513 H   0  0  0  0  0  0  0  0  0  0  0  0
    2.5569    1.5925    0.0434 H   0  0  0  0  0  0  0  0  0  0  0  0
    1.0589   -0.6729   -2.3631 H   0  0  0  0  0  0  0  0  0  0  0  0
   -0.5945    1.3646   -1.3875 H   0  0  0  0  0  0  0  0  0  0  0  0
   -2.5438    0.0746    1.0596 H   0  0  0  0  0  0  0  0  0  0  0  0
   -2.6791    1.0721   -0.4856 H   0  0  0  0  0  0  0  0  0  0  0  0
   -1.5565   -0.5602   -1.7210 H   0  0  0  0  0  0  0  0  0  0  0  0
   -1.8672   -1.6525   -0.3083 H   0  0  0  0  0  0  0  0  0  0  0  0
   -0.2512   -0.1010    1.9700 H   0  0  0  0  0  0  0  0  0  0  0  0
    1.1115   -1.2489    1.4813 H   0  0  0  0  0  0  0  0  0  0  0  0
   -0.5707   -1.8024    1.5227 H   0  0  0  0  0  0  0  0  0  0  0  0
  1  2  1  0
  2  3  1  0
  2  4  1  0
  4  5  1  0
  5  6  1  0
  6  7  1  0
  7  8  1  0
  8  9  1  0
  8  2  1  0
  8  4  1  0
  1 10  1  0
  1 11  1  0
  1 12  1  0
  3 13  1  0
  4 14  1  0
  6 15  1  0
  6 16  1  0
  7 17  1  0
  7 18  1  0
  9 19  1  0
  9 20  1  0
  9 21  1  0
M  END
