
     RDKit          3D

 21 21  0  0  0  0  0  0  0  0999 V2000
   -1.6629   -0.7392    0.6854 C   0  0  0  0  0  0  0  0  0  0  0  0
   -0.7538    0.2276   -0.0532 C   0  0  0  0  0  0  0  0  0  0  0  0
   -1.5872    1.4276   -0.4336 C   0  0  0  0  0  0  0  0  0  0  0  0
   -0.2680   -0.4819   -1.2521 C   0  0  0  0  0  0  0  0  0  0  0  0
    0.9313   -0.9584   -0.9939 C   0  0  0  0  0  0  0  0  0  0  0  0
    1.3729   -0.6165    0.4040 C   0  0  0  0  0  0  0  0  0  0  0  0
    2.8028   -0.2141    0.3060 C   0  0  0  0  0  0  0  0  0  0  0  0
    3.0940    0.6608   -0.4766 O   0  0  0  0  0  0  0  0  0  0  0  0
    0.4757    0.5672    0.7015 C   0  0  0  0  0  0  0  0  0  0  0  0
   -2.3484   -0.2158    1.3855 H   0  0  0  0  0  0  0  0  0  0  0  0
   -2.3091   -1.2071   -0.0863 H   0  0  0  0  0  0  0  0  0  0  0  0
   -1.0924   -1.5576    1.1626 H   0  0  0  0  0  0  0  0  0  0  0  0
   -0.9476    2.3261   -0.3962 H   0  0  0  0  0  0  0  0  0  0  0  0
   -2.3711    1.5504    0.3339 H   0  0  0  0  0  0  0  0  0  0  0  0
   -2.0109    1.2428   -1.4458 H   0  0  0  0  0  0  0  0  0  0  0  0
   -0.8487   -0.5640   -2.1666 H   0  0  0  0  0  0  0  0  0  0  0  0
    1.5260   -1.5288   -1.7073 H   0  0  0  0  0  0  0  0  0  0  0  0
    1.2018   -1.4651    1.0771 H   0  0  0  0  0  0  0  0  0  0  0  0
    3.5365   -0.6883    0.9104 H   0  0  0  0  0  0  0  0  0  0  0  0
    0.9188    1.4885    0.2681 H   0  0  0  0  0  0  0  0  0  0  0  0
    0.3404    0.7456    1.7772 H   0  0  0  0  0  0  0  0  0  0  0  0
  1  2  1  0
  2  3  1  0
  2  4  1  0
  4  5  2  0
  5  6  1  0
  6  7  1  0
  7  8  2  0
  6  9  1  0
  9  2  1  0
  1 10  1  0
  1 11  1  0
  1 12  1  0
  3 13  1  0
  3 14  1  0
  3 15  1  0
  4 16  1  0
  5 17  1  0
  6 18  1  0
  7 19  1  0
  9 20  1  0
  9 21  1  0
M  END
