
     RDKit          3D

 19 21  0  0  0  0  0  0  0  0999 V2000
   -1.4006    1.4185    0.8234 C   0  0  0  0  0  0  0  0  0  0  0  0
   -0.9215    0.1771    0.1259 C   0  0  0  0  0  0  0  0  0  0  0  0
    0.4048    0.0441   -0.2267 C   0  0  0  0  0  0  0  0  0  0  0  0
    1.6168    0.2393    0.5660 C   0  0  0  0  0  0  0  0  0  0  0  0
    2.0529   -0.0604   -0.8363 C   0  0  0  0  0  0  0  0  0  0  0  0
    1.0396   -1.1572   -0.8581 C   0  0  0  0  0  0  0  0  0  0  0  0
    1.0412    0.7948   -1.2465 O   0  0  0  0  0  0  0  0  0  0  0  0
   -1.8705   -1.0087    0.0536 C   0  0  0  0  0  0  0  0  0  0  0  0
   -1.8347   -0.1160   -1.0122 O   0  0  0  0  0  0  0  0  0  0  0  0
   -1.9586    1.2378    1.7424 H   0  0  0  0  0  0  0  0  0  0  0  0
   -0.5070    2.0420    1.1073 H   0  0  0  0  0  0  0  0  0  0  0  0
   -2.0175    2.0777    0.1815 H   0  0  0  0  0  0  0  0  0  0  0  0
    1.8610   -0.5369    1.3213 H   0  0  0  0  0  0  0  0  0  0  0  0
    1.7948    1.2808    0.9021 H   0  0  0  0  0  0  0  0  0  0  0  0
    2.9997   -0.0896   -1.1837 H   0  0  0  0  0  0  0  0  0  0  0  0
    1.3181   -1.9865   -0.2112 H   0  0  0  0  0  0  0  0  0  0  0  0
    0.5692   -1.3803   -1.8250 H   0  0  0  0  0  0  0  0  0  0  0  0
   -2.7618   -0.9899    0.7210 H   0  0  0  0  0  0  0  0  0  0  0  0
   -1.4257   -1.9867   -0.1449 H   0  0  0  0  0  0  0  0  0  0  0  0
  1  2  1  0
  2  3  1  0
  3  4  1  0
  4  5  1  0
  5  6  1  0
  5  7  1  0
  2  8  1  0
  8  9  1  0
  9  2  1  0
  6  3  1  0
  7  3  1  0
  1 10  1  0
  1 11  1  0
  1 12  1  0
  4 13  1  0
  4 14  1  0
  5 15  1  0
  6 16  1  0
  6 17  1  0
  8 18  1  0
  8 19  1  0
M  END
