
     RDKit          3D

 19 21  0  0  0  0  0  0  0  0999 V2000
   -1.5710    0.9457    0.3151 C   0  0  0  0  0  0  0  0  0  0  0  0
   -0.9395   -0.1096   -0.5195 C   0  0  0  0  0  0  0  0  0  0  0  0
   -1.7909   -0.7622   -1.4162 O   0  0  0  0  0  0  0  0  0  0  0  0
    0.3388    0.2780   -1.2377 C   0  0  0  0  0  0  0  0  0  0  0  0
    1.0481    1.3012   -0.6642 O   0  0  0  0  0  0  0  0  0  0  0  0
    1.5041    0.9262    0.5651 C   0  0  0  0  0  0  0  0  0  0  0  0
    1.2478   -0.5723    0.7179 C   0  0  0  0  0  0  0  0  0  0  0  0
    0.9631   -0.9575   -0.6649 C   0  0  0  0  0  0  0  0  0  0  0  0
   -0.1021   -1.0577    0.3246 C   0  0  0  0  0  0  0  0  0  0  0  0
   -1.5589    0.7034    1.4058 H   0  0  0  0  0  0  0  0  0  0  0  0
   -1.1654    1.9570    0.1853 H   0  0  0  0  0  0  0  0  0  0  0  0
   -2.6631    1.0022    0.0401 H   0  0  0  0  0  0  0  0  0  0  0  0
   -2.0893   -1.6030   -0.9872 H   0  0  0  0  0  0  0  0  0  0  0  0
    0.2839    0.3040   -2.3335 H   0  0  0  0  0  0  0  0  0  0  0  0
    2.6267    1.0352    0.5542 H   0  0  0  0  0  0  0  0  0  0  0  0
    1.0734    1.5028    1.4118 H   0  0  0  0  0  0  0  0  0  0  0  0
    1.9112   -1.1828    1.3203 H   0  0  0  0  0  0  0  0  0  0  0  0
    1.4124   -1.7341   -1.2350 H   0  0  0  0  0  0  0  0  0  0  0  0
   -0.5293   -1.9764    0.7082 H   0  0  0  0  0  0  0  0  0  0  0  0
  1  2  1  0
  2  3  1  0
  2  4  1  0
  4  5  1  0
  5  6  1  0
  6  7  1  0
  7  8  1  0
  8  9  1  0
  9  2  1  0
  8  4  1  0
  9  7  1  0
  1 10  1  0
  1 11  1  0
  1 12  1  0
  3 13  1  0
  4 14  1  0
  6 15  1  0
  6 16  1  0
  7 17  1  0
  8 18  1  0
  9 19  1  0
M  END
