
     RDKit          3D

 20 20  0  0  0  0  0  0  0  0999 V2000
   -1.2734    0.5333    1.1605 C   0  0  0  0  0  0  0  0  0  0  0  0
   -0.4820   -0.0519    0.0037 C   0  0  0  0  0  0  0  0  0  0  0  0
   -1.4324   -0.7274   -0.9375 C   0  0  0  0  0  0  0  0  0  0  0  0
    0.5837   -0.9731    0.5277 C   0  0  0  0  0  0  0  0  0  0  0  0
    1.9142   -0.4331   -0.0068 C   0  0  0  0  0  0  0  0  0  0  0  0
    1.5883    1.0034   -0.1340 C   0  0  0  0  0  0  0  0  0  0  0  0
    2.2641    1.9296    0.1818 O   0  0  0  0  0  0  0  0  0  0  0  0
    0.2427    1.0640   -0.7376 C   0  0  0  0  0  0  0  0  0  0  0  0
   -1.9103    1.3714    0.8020 H   0  0  0  0  0  0  0  0  0  0  0  0
   -0.5518    0.9157    1.9019 H   0  0  0  0  0  0  0  0  0  0  0  0
   -1.8642   -0.3031    1.5893 H   0  0  0  0  0  0  0  0  0  0  0  0
   -1.6983   -0.0461   -1.7707 H   0  0  0  0  0  0  0  0  0  0  0  0
   -2.3580   -0.9985   -0.3968 H   0  0  0  0  0  0  0  0  0  0  0  0
   -1.0181   -1.6486   -1.3869 H   0  0  0  0  0  0  0  0  0  0  0  0
    0.6557   -0.8455    1.6463 H   0  0  0  0  0  0  0  0  0  0  0  0
    0.4322   -2.0247    0.2777 H   0  0  0  0  0  0  0  0  0  0  0  0
    2.7068   -0.6424    0.7237 H   0  0  0  0  0  0  0  0  0  0  0  0
    2.1170   -0.8655   -1.0085 H   0  0  0  0  0  0  0  0  0  0  0  0
    0.3392    0.7133   -1.7914 H   0  0  0  0  0  0  0  0  0  0  0  0
   -0.2556    2.0290   -0.6444 H   0  0  0  0  0  0  0  0  0  0  0  0
  1  2  1  0
  2  3  1  0
  2  4  1  0
  4  5  1  0
  5  6  1  0
  6  7  2  0
  6  8  1  0
  8  2  1  0
  1  9  1  0
  1 10  1  0
  1 11  1  0
  3 12  1  0
  3 13  1  0
  3 14  1  0
  4 15  1  0
  4 16  1  0
  5 17  1  0
  5 18  1  0
  8 19  1  0
  8 20  1  0
M  END
