
     RDKit          3D

 21 22  0  0  0  0  0  0  0  0999 V2000
   -0.9899    0.3039    1.6701 C   0  0  0  0  0  0  0  0  0  0  0  0
   -0.6510    0.3224    0.1943 C   0  0  0  0  0  0  0  0  0  0  0  0
   -1.5776   -0.4978   -0.6610 C   0  0  0  0  0  0  0  0  0  0  0  0
   -1.5839   -1.8367   -0.3034 O   0  0  0  0  0  0  0  0  0  0  0  0
   -0.1373    1.6496   -0.3682 C   0  0  0  0  0  0  0  0  0  0  0  0
    0.7548    0.5128   -0.1525 C   0  0  0  0  0  0  0  0  0  0  0  0
    1.4925   -0.2073   -1.2019 C   0  0  0  0  0  0  0  0  0  0  0  0
    2.3046   -0.6252    0.0293 C   0  0  0  0  0  0  0  0  0  0  0  0
    1.7852    0.4824    0.7387 O   0  0  0  0  0  0  0  0  0  0  0  0
   -1.6481    1.1633    1.9230 H   0  0  0  0  0  0  0  0  0  0  0  0
   -1.4845   -0.6609    1.8989 H   0  0  0  0  0  0  0  0  0  0  0  0
   -0.0526    0.3052    2.2933 H   0  0  0  0  0  0  0  0  0  0  0  0
   -1.3356   -0.4385   -1.7378 H   0  0  0  0  0  0  0  0  0  0  0  0
   -2.6276   -0.1231   -0.5594 H   0  0  0  0  0  0  0  0  0  0  0  0
   -2.1723   -1.9585    0.4718 H   0  0  0  0  0  0  0  0  0  0  0  0
   -0.3777    1.9029   -1.4123 H   0  0  0  0  0  0  0  0  0  0  0  0
   -0.0852    2.5067    0.3332 H   0  0  0  0  0  0  0  0  0  0  0  0
    1.0394   -1.0911   -1.6594 H   0  0  0  0  0  0  0  0  0  0  0  0
    2.0903    0.4513   -1.8809 H   0  0  0  0  0  0  0  0  0  0  0  0
    3.3883   -0.6185   -0.1088 H   0  0  0  0  0  0  0  0  0  0  0  0
    1.8681   -1.5430    0.4930 H   0  0  0  0  0  0  0  0  0  0  0  0
  1  2  1  0
  2  3  1  0
  3  4  1  0
  2  5  1  0
  5  6  1  0
  6  7  1  0
  7  8  1  0
  8  9  1  0
  6  2  1  0
  9  6  1  0
  1 10  1  0
  1 11  1  0
  1 12  1  0
  3 13  1  0
  3 14  1  0
  4 15  1  0
  5 16  1  0
  5 17  1  0
  7 18  1  0
  7 19  1  0
  8 20  1  0
  8 21  1  0
M  END
