
     RDKit          3D

 23 23  0  0  0  0  0  0  0  0999 V2000
   -1.1245    0.0200    1.1319 C   0  0  0  0  0  0  0  0  0  0  0  0
   -0.8294    0.0983   -0.3312 C   0  0  0  0  0  0  0  0  0  0  0  0
   -2.1383   -0.1151   -1.0876 C   0  0  0  0  0  0  0  0  0  0  0  0
    0.1413   -0.9228   -0.8237 C   0  0  0  0  0  0  0  0  0  0  0  0
    1.2674   -1.2016    0.1483 C   0  0  0  0  0  0  0  0  0  0  0  0
    2.1238   -0.0031    0.4161 C   0  0  0  0  0  0  0  0  0  0  0  0
    1.7940    1.1058   -0.3354 O   0  0  0  0  0  0  0  0  0  0  0  0
    0.6812    1.7855    0.1233 C   0  0  0  0  0  0  0  0  0  0  0  0
   -0.4062    1.3846   -0.6222 O   0  0  0  0  0  0  0  0  0  0  0  0
   -1.6503    0.9567    1.4283 H   0  0  0  0  0  0  0  0  0  0  0  0
   -1.7746   -0.8745    1.2926 H   0  0  0  0  0  0  0  0  0  0  0  0
   -0.2538   -0.0771    1.7801 H   0  0  0  0  0  0  0  0  0  0  0  0
   -1.9989   -0.8032   -1.9560 H   0  0  0  0  0  0  0  0  0  0  0  0
   -2.9278   -0.4830   -0.4020 H   0  0  0  0  0  0  0  0  0  0  0  0
   -2.5243    0.8329   -1.5178 H   0  0  0  0  0  0  0  0  0  0  0  0
    0.5728   -0.6212   -1.7897 H   0  0  0  0  0  0  0  0  0  0  0  0
   -0.3682   -1.9074   -0.9940 H   0  0  0  0  0  0  0  0  0  0  0  0
    0.8444   -1.6530    1.0937 H   0  0  0  0  0  0  0  0  0  0  0  0
    1.8508   -2.0562   -0.3071 H   0  0  0  0  0  0  0  0  0  0  0  0
    2.1787    0.2226    1.5138 H   0  0  0  0  0  0  0  0  0  0  0  0
    3.1770   -0.2827    0.1158 H   0  0  0  0  0  0  0  0  0  0  0  0
    0.5324    1.7180    1.2148 H   0  0  0  0  0  0  0  0  0  0  0  0
    0.8324    2.8768   -0.0920 H   0  0  0  0  0  0  0  0  0  0  0  0
  1  2  1  0
  2  3  1  0
  2  4  1  0
  4  5  1  0
  5  6  1  0
  6  7  1  0
  7  8  1  0
  8  9  1  0
  9  2  1  0
  1 10  1  0
  1 11  1  0
  1 12  1  0
  3 13  1  0
  3 14  1  0
  3 15  1  0
  4 16  1  0
  4 17  1  0
  5 18  1  0
  5 19  1  0
  6 20  1  0
  6 21  1  0
  8 22  1  0
  8 23  1  0
M  END
