
     RDKit          3D

 19 20  0  0  0  0  0  0  0  0999 V2000
    1.8543    0.0626   -0.4980 C   0  0  0  0  0  0  0  0  0  0  0  0
    0.4642    0.3670   -0.0977 C   0  0  0  0  0  0  0  0  0  0  0  0
    0.2616    1.7497    0.3727 C   0  0  0  0  0  0  0  0  0  0  0  0
    0.0194    2.6697   -0.3588 O   0  0  0  0  0  0  0  0  0  0  0  0
   -0.2132   -0.6110    0.8353 C   0  0  0  0  0  0  0  0  0  0  0  0
   -1.5855   -0.0116    0.9133 C   0  0  0  0  0  0  0  0  0  0  0  0
   -1.7932    0.2836   -0.4620 O   0  0  0  0  0  0  0  0  0  0  0  0
   -0.6270   -0.1294   -1.0559 C   0  0  0  0  0  0  0  0  0  0  0  0
   -0.4032   -1.4956   -0.4054 C   0  0  0  0  0  0  0  0  0  0  0  0
    1.8784   -0.5578   -1.4233 H   0  0  0  0  0  0  0  0  0  0  0  0
    2.4995   -0.3515    0.2954 H   0  0  0  0  0  0  0  0  0  0  0  0
    2.3472    1.0332   -0.7997 H   0  0  0  0  0  0  0  0  0  0  0  0
    0.3355    1.9423    1.4297 H   0  0  0  0  0  0  0  0  0  0  0  0
    0.2820   -1.0005    1.6684 H   0  0  0  0  0  0  0  0  0  0  0  0
   -2.3758   -0.7328    1.1757 H   0  0  0  0  0  0  0  0  0  0  0  0
   -1.6191    0.9246    1.4895 H   0  0  0  0  0  0  0  0  0  0  0  0
   -0.4594   -0.0325   -2.0916 H   0  0  0  0  0  0  0  0  0  0  0  0
   -1.3419   -2.0748   -0.2562 H   0  0  0  0  0  0  0  0  0  0  0  0
    0.4761   -2.0352   -0.7314 H   0  0  0  0  0  0  0  0  0  0  0  0
  1  2  1  0
  2  3  1  0
  3  4  2  0
  2  5  1  0
  5  6  1  0
  6  7  1  0
  7  8  1  0
  8  9  1  0
  8  2  1  0
  9  5  1  0
  1 10  1  0
  1 11  1  0
  1 12  1  0
  3 13  1  0
  5 14  1  0
  6 15  1  0
  6 16  1  0
  8 17  1  0
  9 18  1  0
  9 19  1  0
M  END
