
     RDKit          3D

 21 21  0  0  0  0  0  0  0  0999 V2000
    1.7818   -0.5866   -0.8318 C   0  0  0  0  0  0  0  0  0  0  0  0
    0.6021   -0.0496   -0.0939 C   0  0  0  0  0  0  0  0  0  0  0  0
    1.0004    0.9675    0.9653 C   0  0  0  0  0  0  0  0  0  0  0  0
   -0.2638   -1.1315    0.5186 C   0  0  0  0  0  0  0  0  0  0  0  0
   -1.6860   -0.6833    0.4060 C   0  0  0  0  0  0  0  0  0  0  0  0
   -1.5694    0.7784   -0.0548 C   0  0  0  0  0  0  0  0  0  0  0  0
   -0.4026    0.6372   -1.0217 C   0  0  0  0  0  0  0  0  0  0  0  0
    2.6849   -0.4202   -0.1734 H   0  0  0  0  0  0  0  0  0  0  0  0
    1.9054   -0.1380   -1.8282 H   0  0  0  0  0  0  0  0  0  0  0  0
    1.6847   -1.6855   -0.9688 H   0  0  0  0  0  0  0  0  0  0  0  0
    2.1157    1.0205    0.9518 H   0  0  0  0  0  0  0  0  0  0  0  0
    0.6430    1.9893    0.6948 H   0  0  0  0  0  0  0  0  0  0  0  0
    0.5916    0.6881    1.9465 H   0  0  0  0  0  0  0  0  0  0  0  0
   -0.1485   -2.0732   -0.0771 H   0  0  0  0  0  0  0  0  0  0  0  0
    0.0332   -1.3665    1.5526 H   0  0  0  0  0  0  0  0  0  0  0  0
   -2.2623   -0.7206    1.3276 H   0  0  0  0  0  0  0  0  0  0  0  0
   -2.1991   -1.2104   -0.4447 H   0  0  0  0  0  0  0  0  0  0  0  0
   -2.4814    1.1379   -0.5264 H   0  0  0  0  0  0  0  0  0  0  0  0
   -1.2854    1.3440    0.8570 H   0  0  0  0  0  0  0  0  0  0  0  0
   -0.7021   -0.0830   -1.7906 H   0  0  0  0  0  0  0  0  0  0  0  0
   -0.0421    1.5858   -1.4090 H   0  0  0  0  0  0  0  0  0  0  0  0
  1  2  1  0
  2  3  1  0
  2  4  1  0
  4  5  1  0
  5  6  1  0
  6  7  1  0
  7  2  1  0
  1  8  1  0
  1  9  1  0
  1 10  1  0
  3 11  1  0
  3 12  1  0
  3 13  1  0
  4 14  1  0
  4 15  1  0
  5 16  1  0
  5 17  1  0
  6 18  1  0
  6 19  1  0
  7 20  1  0
  7 21  1  0
M  END
