
     RDKit          3D

 19 20  0  0  0  0  0  0  0  0999 V2000
   -1.4213   -1.3188    0.2301 C   0  0  0  0  0  0  0  0  0  0  0  0
   -0.7451   -0.0957   -0.2842 C   0  0  0  0  0  0  0  0  0  0  0  0
   -0.8427    0.1071   -1.6577 O   0  0  0  0  0  0  0  0  0  0  0  0
   -1.0705    1.1965    0.4362 C   0  0  0  0  0  0  0  0  0  0  0  0
   -0.4143    2.3007   -0.1006 O   0  0  0  0  0  0  0  0  0  0  0  0
    0.2392    1.4440    0.7429 C   0  0  0  0  0  0  0  0  0  0  0  0
    0.6798    0.0740    0.2621 C   0  0  0  0  0  0  0  0  0  0  0  0
    1.7129    0.0600   -0.8123 C   0  0  0  0  0  0  0  0  0  0  0  0
    0.9198   -0.7408    1.3650 O   0  0  0  0  0  0  0  0  0  0  0  0
   -1.1856   -1.4149    1.3130 H   0  0  0  0  0  0  0  0  0  0  0  0
   -0.9849   -2.1962   -0.2703 H   0  0  0  0  0  0  0  0  0  0  0  0
   -2.5006   -1.2697    0.0177 H   0  0  0  0  0  0  0  0  0  0  0  0
   -1.0014   -0.7236   -2.1317 H   0  0  0  0  0  0  0  0  0  0  0  0
   -2.0202    1.3292    0.9488 H   0  0  0  0  0  0  0  0  0  0  0  0
    0.7748    1.7895    1.6280 H   0  0  0  0  0  0  0  0  0  0  0  0
    1.2446   -0.1007   -1.8085 H   0  0  0  0  0  0  0  0  0  0  0  0
    2.4099   -0.8065   -0.6342 H   0  0  0  0  0  0  0  0  0  0  0  0
    2.3341    0.9524   -0.8642 H   0  0  0  0  0  0  0  0  0  0  0  0
    1.8715   -0.5865    1.6199 H   0  0  0  0  0  0  0  0  0  0  0  0
  1  2  1  0
  2  3  1  0
  2  4  1  0
  4  5  1  0
  5  6  1  0
  6  7  1  0
  7  8  1  0
  7  9  1  0
  7  2  1  0
  6  4  1  0
  1 10  1  0
  1 11  1  0
  1 12  1  0
  3 13  1  0
  4 14  1  0
  6 15  1  0
  8 16  1  0
  8 17  1  0
  8 18  1  0
  9 19  1  0
M  END
