
     RDKit          3D

 21 23  0  0  0  0  0  0  0  0999 V2000
   -2.0330    0.7011   -0.5171 C   0  0  0  0  0  0  0  0  0  0  0  0
   -0.7687   -0.0269   -0.3397 C   0  0  0  0  0  0  0  0  0  0  0  0
   -0.9509   -1.5146   -0.5570 C   0  0  0  0  0  0  0  0  0  0  0  0
    0.4837    0.5645   -0.9069 C   0  0  0  0  0  0  0  0  0  0  0  0
    0.4265    1.5676    0.2112 C   0  0  0  0  0  0  0  0  0  0  0  0
    0.0685    0.2591    0.8680 C   0  0  0  0  0  0  0  0  0  0  0  0
    1.2014   -0.2778    0.1002 C   0  0  0  0  0  0  0  0  0  0  0  0
    2.5057   -0.4785    0.2765 C   0  0  0  0  0  0  0  0  0  0  0  0
    1.5251   -1.5641   -0.0668 O   0  0  0  0  0  0  0  0  0  0  0  0
   -2.6127    0.6747    0.4450 H   0  0  0  0  0  0  0  0  0  0  0  0
   -2.6663    0.1335   -1.2493 H   0  0  0  0  0  0  0  0  0  0  0  0
   -1.9697    1.7243   -0.8966 H   0  0  0  0  0  0  0  0  0  0  0  0
   -0.3893   -1.8671   -1.4449 H   0  0  0  0  0  0  0  0  0  0  0  0
   -0.7087   -2.1055    0.3608 H   0  0  0  0  0  0  0  0  0  0  0  0
   -2.0286   -1.7664   -0.7720 H   0  0  0  0  0  0  0  0  0  0  0  0
    0.7201    0.7265   -1.8638 H   0  0  0  0  0  0  0  0  0  0  0  0
   -0.3238    2.3374    0.1720 H   0  0  0  0  0  0  0  0  0  0  0  0
    1.4152    1.9071    0.5268 H   0  0  0  0  0  0  0  0  0  0  0  0
   -0.1850    0.1288    1.8308 H   0  0  0  0  0  0  0  0  0  0  0  0
    3.2841   -0.3822   -0.5377 H   0  0  0  0  0  0  0  0  0  0  0  0
    3.0065   -0.7417    1.2458 H   0  0  0  0  0  0  0  0  0  0  0  0
  1  2  1  0
  2  3  1  0
  2  4  1  0
  4  5  1  0
  5  6  1  0
  6  7  1  0
  7  8  1  0
  8  9  1  0
  6  2  1  0
  9  7  1  0
  7  4  1  0
  1 10  1  0
  1 11  1  0
  1 12  1  0
  3 13  1  0
  3 14  1  0
  3 15  1  0
  4 16  1  0
  5 17  1  0
  5 18  1  0
  6 19  1  0
  8 20  1  0
  8 21  1  0
M  END
