
     RDKit          3D

 20 21  0  0  0  0  0  0  0  0999 V2000
    2.0009   -1.0489    0.5643 C   0  0  0  0  0  0  0  0  0  0  0  0
    0.9289   -0.0892    0.1447 C   0  0  0  0  0  0  0  0  0  0  0  0
    1.4348    1.2289   -0.4089 C   0  0  0  0  0  0  0  0  0  0  0  0
   -0.1240   -0.7673   -0.7056 C   0  0  0  0  0  0  0  0  0  0  0  0
   -0.9993   -0.0666    0.2480 C   0  0  0  0  0  0  0  0  0  0  0  0
   -2.0030    0.8857   -0.2182 C   0  0  0  0  0  0  0  0  0  0  0  0
   -2.3778   -0.3778    0.5589 C   0  0  0  0  0  0  0  0  0  0  0  0
   -0.0186    0.2013    1.1521 O   0  0  0  0  0  0  0  0  0  0  0  0
    2.0635   -1.8746   -0.1657 H   0  0  0  0  0  0  0  0  0  0  0  0
    1.8302   -1.5058    1.5535 H   0  0  0  0  0  0  0  0  0  0  0  0
    2.9710   -0.5352    0.5972 H   0  0  0  0  0  0  0  0  0  0  0  0
    0.7263    2.0681   -0.1945 H   0  0  0  0  0  0  0  0  0  0  0  0
    1.5800    1.2158   -1.4954 H   0  0  0  0  0  0  0  0  0  0  0  0
    2.3712    1.4585    0.1614 H   0  0  0  0  0  0  0  0  0  0  0  0
   -0.0840   -1.8665   -0.6899 H   0  0  0  0  0  0  0  0  0  0  0  0
   -0.1414   -0.2873   -1.7072 H   0  0  0  0  0  0  0  0  0  0  0  0
   -2.1830    1.8658    0.2376 H   0  0  0  0  0  0  0  0  0  0  0  0
   -2.2661    0.8240   -1.3079 H   0  0  0  0  0  0  0  0  0  0  0  0
   -2.7052   -0.2053    1.6224 H   0  0  0  0  0  0  0  0  0  0  0  0
   -3.0044   -1.1235    0.0531 H   0  0  0  0  0  0  0  0  0  0  0  0
  1  2  1  0
  2  3  1  0
  2  4  1  0
  4  5  1  0
  5  6  1  0
  6  7  1  0
  5  8  1  0
  8  2  1  0
  7  5  1  0
  1  9  1  0
  1 10  1  0
  1 11  1  0
  3 12  1  0
  3 13  1  0
  3 14  1  0
  4 15  1  0
  4 16  1  0
  6 17  1  0
  6 18  1  0
  7 19  1  0
  7 20  1  0
M  END
