
     RDKit          3D

 14 14  0  0  0  0  0  0  0  0999 V2000
    0.9871    0.6803    0.7900 C   0  0  0  0  0  0  0  0  0  0  0  0
    0.2559   -0.3233   -0.0265 C   0  0  0  0  0  0  0  0  0  0  0  0
    0.9503   -1.3959   -0.5058 O   0  0  0  0  0  0  0  0  0  0  0  0
   -1.1372   -0.6329    0.4902 C   0  0  0  0  0  0  0  0  0  0  0  0
   -1.4808    0.6705    0.0552 O   0  0  0  0  0  0  0  0  0  0  0  0
   -0.6383    0.3907   -1.0478 C   0  0  0  0  0  0  0  0  0  0  0  0
    1.4476    1.4336    0.0857 H   0  0  0  0  0  0  0  0  0  0  0  0
    1.7422    0.1943    1.4288 H   0  0  0  0  0  0  0  0  0  0  0  0
    0.2734    1.2806    1.4006 H   0  0  0  0  0  0  0  0  0  0  0  0
    1.7954   -1.0749   -0.8951 H   0  0  0  0  0  0  0  0  0  0  0  0
   -1.6909   -1.3507   -0.1326 H   0  0  0  0  0  0  0  0  0  0  0  0
   -1.1481   -0.7777    1.5692 H   0  0  0  0  0  0  0  0  0  0  0  0
   -1.1592   -0.3509   -1.6831 H   0  0  0  0  0  0  0  0  0  0  0  0
   -0.1973    1.2563   -1.5288 H   0  0  0  0  0  0  0  0  0  0  0  0
  1  2  1  0
  2  3  1  0
  2  4  1  0
  4  5  1  0
  5  6  1  0
  6  2  1  0
  1  7  1  0
  1  8  1  0
  1  9  1  0
  3 10  1  0
  4 11  1  0
  4 12  1  0
  6 13  1  0
  6 14  1  0
M  END
