
     RDKit          3D

 20 21  0  0  0  0  0  0  0  0999 V2000
   -1.5623   -1.1445    0.0594 C   0  0  0  0  0  0  0  0  0  0  0  0
   -0.8484    0.1791    0.1393 C   0  0  0  0  0  0  0  0  0  0  0  0
   -1.7821    1.3717   -0.0337 C   0  0  0  0  0  0  0  0  0  0  0  0
    0.3219    0.3778    0.9981 C   0  0  0  0  0  0  0  0  0  0  0  0
    1.4994   -0.5287    1.0188 C   0  0  0  0  0  0  0  0  0  0  0  0
    1.4561   -0.7492   -0.4792 C   0  0  0  0  0  0  0  0  0  0  0  0
    2.6477   -0.4836   -1.1466 O   0  0  0  0  0  0  0  0  0  0  0  0
    0.4637    0.3784   -0.5569 C   0  0  0  0  0  0  0  0  0  0  0  0
   -0.9308   -1.9812   -0.2430 H   0  0  0  0  0  0  0  0  0  0  0  0
   -2.1242   -1.3511    1.0127 H   0  0  0  0  0  0  0  0  0  0  0  0
   -2.3755   -1.0449   -0.7173 H   0  0  0  0  0  0  0  0  0  0  0  0
   -2.8394    1.0873    0.0317 H   0  0  0  0  0  0  0  0  0  0  0  0
   -1.6113    1.8267   -1.0510 H   0  0  0  0  0  0  0  0  0  0  0  0
   -1.5268    2.1620    0.6898 H   0  0  0  0  0  0  0  0  0  0  0  0
    0.4262    1.3527    1.4991 H   0  0  0  0  0  0  0  0  0  0  0  0
    2.4433    0.0459    1.2532 H   0  0  0  0  0  0  0  0  0  0  0  0
    1.4668   -1.4213    1.6398 H   0  0  0  0  0  0  0  0  0  0  0  0
    1.0365   -1.7353   -0.7340 H   0  0  0  0  0  0  0  0  0  0  0  0
    3.0743    0.3142   -0.7650 H   0  0  0  0  0  0  0  0  0  0  0  0
    0.7648    1.3440   -0.9642 H   0  0  0  0  0  0  0  0  0  0  0  0
  1  2  1  0
  2  3  1  0
  2  4  1  0
  4  5  1  0
  5  6  1  0
  6  7  1  0
  6  8  1  0
  8  2  1  0
  8  4  1  0
  1  9  1  0
  1 10  1  0
  1 11  1  0
  3 12  1  0
  3 13  1  0
  3 14  1  0
  4 15  1  0
  5 16  1  0
  5 17  1  0
  6 18  1  0
  7 19  1  0
  8 20  1  0
M  END
