
     RDKit          3D

 23 24  0  0  0  0  0  0  0  0999 V2000
   -2.1866   -1.1429   -0.3919 C   0  0  0  0  0  0  0  0  0  0  0  0
   -1.1706   -0.0743   -0.1275 C   0  0  0  0  0  0  0  0  0  0  0  0
   -1.6843    1.3185    0.0436 C   0  0  0  0  0  0  0  0  0  0  0  0
    0.0116   -0.0884   -1.0786 C   0  0  0  0  0  0  0  0  0  0  0  0
    0.9019   -0.2194    0.1001 C   0  0  0  0  0  0  0  0  0  0  0  0
    2.1952   -0.8633    0.1163 C   0  0  0  0  0  0  0  0  0  0  0  0
    2.0419    0.6078    0.4060 C   0  0  0  0  0  0  0  0  0  0  0  0
    2.5182    1.5467   -0.4918 O   0  0  0  0  0  0  0  0  0  0  0  0
   -0.2356   -0.5158    0.9985 C   0  0  0  0  0  0  0  0  0  0  0  0
   -2.6791   -0.9228   -1.3496 H   0  0  0  0  0  0  0  0  0  0  0  0
   -2.9253   -1.1583    0.4176 H   0  0  0  0  0  0  0  0  0  0  0  0
   -1.6594   -2.1178   -0.3697 H   0  0  0  0  0  0  0  0  0  0  0  0
   -2.2341    1.5923   -0.8800 H   0  0  0  0  0  0  0  0  0  0  0  0
   -2.3590    1.4317    0.9015 H   0  0  0  0  0  0  0  0  0  0  0  0
   -0.8022    1.9981    0.0821 H   0  0  0  0  0  0  0  0  0  0  0  0
   -0.0107   -1.0193   -1.7092 H   0  0  0  0  0  0  0  0  0  0  0  0
    0.1273    0.8536   -1.6724 H   0  0  0  0  0  0  0  0  0  0  0  0
    2.5048   -1.5607    0.9153 H   0  0  0  0  0  0  0  0  0  0  0  0
    2.7356   -1.0779   -0.8470 H   0  0  0  0  0  0  0  0  0  0  0  0
    2.2347    0.8498    1.4887 H   0  0  0  0  0  0  0  0  0  0  0  0
    3.2784    2.0415   -0.0693 H   0  0  0  0  0  0  0  0  0  0  0  0
   -0.2969    0.1278    1.8977 H   0  0  0  0  0  0  0  0  0  0  0  0
   -0.3058   -1.6068    1.2295 H   0  0  0  0  0  0  0  0  0  0  0  0
  1  2  1  0
  2  3  1  0
  2  4  1  0
  4  5  1  0
  5  6  1  0
  6  7  1  0
  7  8  1  0
  5  9  1  0
  9  2  1  0
  7  5  1  0
  1 10  1  0
  1 11  1  0
  1 12  1  0
  3 13  1  0
  3 14  1  0
  3 15  1  0
  4 16  1  0
  4 17  1  0
  6 18  1  0
  6 19  1  0
  7 20  1  0
  8 21  1  0
  9 22  1  0
  9 23  1  0
M  END
