
     RDKit          3D

 19 20  0  0  0  0  0  0  0  0999 V2000
    2.1169    0.4137   -0.5828 C   0  0  0  0  0  0  0  0  0  0  0  0
    0.9194   -0.3778   -0.0879 C   0  0  0  0  0  0  0  0  0  0  0  0
    1.2027   -1.7104    0.2263 O   0  0  0  0  0  0  0  0  0  0  0  0
   -0.1384    0.3580    0.5900 C   0  0  0  0  0  0  0  0  0  0  0  0
    0.0350    1.7319    0.7270 O   0  0  0  0  0  0  0  0  0  0  0  0
   -1.5076   -0.1376    0.8461 C   0  0  0  0  0  0  0  0  0  0  0  0
   -1.5040   -0.9765   -0.4268 C   0  0  0  0  0  0  0  0  0  0  0  0
   -0.3150   -0.1644   -0.8751 C   0  0  0  0  0  0  0  0  0  0  0  0
   -0.4469    0.8272   -1.8099 O   0  0  0  0  0  0  0  0  0  0  0  0
    1.7786    1.3431   -1.1272 H   0  0  0  0  0  0  0  0  0  0  0  0
    2.7663    0.7466    0.2260 H   0  0  0  0  0  0  0  0  0  0  0  0
    2.6395   -0.1868   -1.3684 H   0  0  0  0  0  0  0  0  0  0  0  0
    1.6929   -1.8215    1.0576 H   0  0  0  0  0  0  0  0  0  0  0  0
   -0.3989    2.2571    0.0395 H   0  0  0  0  0  0  0  0  0  0  0  0
   -2.2844    0.6708    0.7000 H   0  0  0  0  0  0  0  0  0  0  0  0
   -1.7123   -0.6823    1.7704 H   0  0  0  0  0  0  0  0  0  0  0  0
   -1.2221   -2.0220   -0.1437 H   0  0  0  0  0  0  0  0  0  0  0  0
   -2.3869   -0.8974   -1.0527 H   0  0  0  0  0  0  0  0  0  0  0  0
   -1.2348    0.6282   -2.3658 H   0  0  0  0  0  0  0  0  0  0  0  0
  1  2  1  0
  2  3  1  0
  2  4  1  0
  4  5  1  0
  4  6  1  0
  6  7  1  0
  7  8  1  0
  8  9  1  0
  8  2  1  0
  8  4  1  0
  1 10  1  0
  1 11  1  0
  1 12  1  0
  3 13  1  0
  5 14  1  0
  6 15  1  0
  6 16  1  0
  7 17  1  0
  7 18  1  0
  9 19  1  0
M  END
