
     RDKit          3D

 17 17  0  0  0  0  0  0  0  0999 V2000
   -1.0135   -1.5850    0.1091 C   0  0  0  0  0  0  0  0  0  0  0  0
   -0.3645   -0.2960    0.5546 C   0  0  0  0  0  0  0  0  0  0  0  0
   -0.9302    0.2069    1.7444 O   0  0  0  0  0  0  0  0  0  0  0  0
    1.0268    0.0279    0.2685 C   0  0  0  0  0  0  0  0  0  0  0  0
    1.9028   -0.7756   -0.5881 C   0  0  0  0  0  0  0  0  0  0  0  0
    3.1175   -0.8207   -0.4826 O   0  0  0  0  0  0  0  0  0  0  0  0
   -0.1043    0.7449   -0.4749 C   0  0  0  0  0  0  0  0  0  0  0  0
   -0.2566    2.1765   -0.1330 C   0  0  0  0  0  0  0  0  0  0  0  0
   -0.5188    3.0342   -0.9723 O   0  0  0  0  0  0  0  0  0  0  0  0
   -2.1120   -1.3540   -0.0071 H   0  0  0  0  0  0  0  0  0  0  0  0
   -0.6611   -1.9163   -0.8809 H   0  0  0  0  0  0  0  0  0  0  0  0
   -0.9577   -2.3547    0.8931 H   0  0  0  0  0  0  0  0  0  0  0  0
   -1.7874    0.6668    1.5678 H   0  0  0  0  0  0  0  0  0  0  0  0
    1.5679    0.6229    1.0596 H   0  0  0  0  0  0  0  0  0  0  0  0
    1.4712   -1.3841   -1.3812 H   0  0  0  0  0  0  0  0  0  0  0  0
   -0.2446    0.5031   -1.5466 H   0  0  0  0  0  0  0  0  0  0  0  0
   -0.1357    2.5030    0.8953 H   0  0  0  0  0  0  0  0  0  0  0  0
  1  2  1  0
  2  3  1  0
  2  4  1  0
  4  5  1  0
  5  6  2  0
  4  7  1  0
  7  8  1  0
  8  9  2  0
  7  2  1  0
  1 10  1  0
  1 11  1  0
  1 12  1  0
  3 13  1  0
  4 14  1  0
  5 15  1  0
  7 16  1  0
  8 17  1  0
M  END
