
     RDKit          3D

 21 21  0  0  0  0  0  0  0  0999 V2000
   -2.4487    0.0005   -0.1089 C   0  0  0  0  0  0  0  0  0  0  0  0
   -0.9597   -0.0745   -0.2153 C   0  0  0  0  0  0  0  0  0  0  0  0
   -0.6129   -0.1262   -1.5588 O   0  0  0  0  0  0  0  0  0  0  0  0
   -0.3894    1.1562    0.4031 C   0  0  0  0  0  0  0  0  0  0  0  0
    0.8961    1.4522    0.4741 C   0  0  0  0  0  0  0  0  0  0  0  0
    2.1042    0.7623    0.0240 C   0  0  0  0  0  0  0  0  0  0  0  0
    1.9352   -0.6903   -0.1767 C   0  0  0  0  0  0  0  0  0  0  0  0
    0.9507   -1.5456    0.0124 C   0  0  0  0  0  0  0  0  0  0  0  0
   -0.3894   -1.2527    0.5299 C   0  0  0  0  0  0  0  0  0  0  0  0
   -2.8782   -0.7187   -0.8405 H   0  0  0  0  0  0  0  0  0  0  0  0
   -2.7595    1.0400   -0.3613 H   0  0  0  0  0  0  0  0  0  0  0  0
   -2.7635   -0.2149    0.9203 H   0  0  0  0  0  0  0  0  0  0  0  0
   -0.6329    0.8269   -1.8863 H   0  0  0  0  0  0  0  0  0  0  0  0
   -1.0625    1.8874    0.8390 H   0  0  0  0  0  0  0  0  0  0  0  0
    1.0835    2.4044    0.9697 H   0  0  0  0  0  0  0  0  0  0  0  0
    2.9064    0.8935    0.7888 H   0  0  0  0  0  0  0  0  0  0  0  0
    2.4886    1.1876   -0.9384 H   0  0  0  0  0  0  0  0  0  0  0  0
    2.8331   -1.1678   -0.5737 H   0  0  0  0  0  0  0  0  0  0  0  0
    1.1390   -2.5955   -0.2405 H   0  0  0  0  0  0  0  0  0  0  0  0
   -0.3486   -1.1111    1.6061 H   0  0  0  0  0  0  0  0  0  0  0  0
   -1.0916   -2.1139    0.3326 H   0  0  0  0  0  0  0  0  0  0  0  0
  1  2  1  0
  2  3  1  0
  2  4  1  0
  4  5  2  0
  5  6  1  0
  6  7  1  0
  7  8  2  0
  8  9  1  0
  9  2  1  0
  1 10  1  0
  1 11  1  0
  1 12  1  0
  3 13  1  0
  4 14  1  0
  5 15  1  0
  6 16  1  0
  6 17  1  0
  7 18  1  0
  8 19  1  0
  9 20  1  0
  9 21  1  0
M  END
