
     RDKit          3D

 18 18  0  0  0  0  0  0  0  0999 V2000
   -0.2889   -1.4253   -0.6832 C   0  0  0  0  0  0  0  0  0  0  0  0
   -0.2745   -0.1822    0.1678 C   0  0  0  0  0  0  0  0  0  0  0  0
   -1.6331    0.4787    0.2923 C   0  0  0  0  0  0  0  0  0  0  0  0
   -2.0196    0.8142   -1.0243 O   0  0  0  0  0  0  0  0  0  0  0  0
    0.5915   -0.1288    1.3841 C   0  0  0  0  0  0  0  0  0  0  0  0
    0.8924    0.7296    0.1869 C   0  0  0  0  0  0  0  0  0  0  0  0
    2.1342    0.3836   -0.5546 C   0  0  0  0  0  0  0  0  0  0  0  0
    2.4423   -0.8000   -0.6780 O   0  0  0  0  0  0  0  0  0  0  0  0
   -1.2760   -1.9233   -0.5439 H   0  0  0  0  0  0  0  0  0  0  0  0
   -0.2107   -1.1899   -1.7591 H   0  0  0  0  0  0  0  0  0  0  0  0
    0.4792   -2.1583   -0.4129 H   0  0  0  0  0  0  0  0  0  0  0  0
   -2.3772   -0.1657    0.7739 H   0  0  0  0  0  0  0  0  0  0  0  0
   -1.5700    1.4461    0.8639 H   0  0  0  0  0  0  0  0  0  0  0  0
   -1.7957    1.7741   -1.1962 H   0  0  0  0  0  0  0  0  0  0  0  0
    0.2100    0.3439    2.3203 H   0  0  0  0  0  0  0  0  0  0  0  0
    1.2655   -0.9770    1.5810 H   0  0  0  0  0  0  0  0  0  0  0  0
    0.6940    1.8193    0.2484 H   0  0  0  0  0  0  0  0  0  0  0  0
    2.7365    1.1609   -0.9664 H   0  0  0  0  0  0  0  0  0  0  0  0
  1  2  1  0
  2  3  1  0
  3  4  1  0
  2  5  1  0
  5  6  1  0
  6  7  1  0
  7  8  2  0
  6  2  1  0
  1  9  1  0
  1 10  1  0
  1 11  1  0
  3 12  1  0
  3 13  1  0
  4 14  1  0
  5 15  1  0
  5 16  1  0
  6 17  1  0
  7 18  1  0
M  END
