
     RDKit          3D

 21 22  0  0  0  0  0  0  0  0999 V2000
    1.8640    0.0736    0.6568 C   0  0  0  0  0  0  0  0  0  0  0  0
    0.7964    0.1708   -0.4315 C   0  0  0  0  0  0  0  0  0  0  0  0
    1.5447    0.4652   -1.5973 O   0  0  0  0  0  0  0  0  0  0  0  0
   -0.1100    1.3265   -0.2055 C   0  0  0  0  0  0  0  0  0  0  0  0
   -1.3700    1.0744    0.5090 C   0  0  0  0  0  0  0  0  0  0  0  0
   -1.9531   -0.2784    0.3944 C   0  0  0  0  0  0  0  0  0  0  0  0
   -1.3204   -1.1923    1.3745 O   0  0  0  0  0  0  0  0  0  0  0  0
   -1.1534   -1.3598    0.0098 C   0  0  0  0  0  0  0  0  0  0  0  0
    0.1748   -1.1446   -0.6248 C   0  0  0  0  0  0  0  0  0  0  0  0
    2.5981    0.8966    0.4828 H   0  0  0  0  0  0  0  0  0  0  0  0
    2.4171   -0.8827    0.4454 H   0  0  0  0  0  0  0  0  0  0  0  0
    1.4370    0.0912    1.6626 H   0  0  0  0  0  0  0  0  0  0  0  0
    2.1521   -0.3073   -1.7424 H   0  0  0  0  0  0  0  0  0  0  0  0
    0.4751    2.0869    0.3883 H   0  0  0  0  0  0  0  0  0  0  0  0
   -0.3259    1.8641   -1.1731 H   0  0  0  0  0  0  0  0  0  0  0  0
   -1.2707    1.3118    1.6098 H   0  0  0  0  0  0  0  0  0  0  0  0
   -2.1494    1.8045    0.1523 H   0  0  0  0  0  0  0  0  0  0  0  0
   -3.0696   -0.3667    0.3941 H   0  0  0  0  0  0  0  0  0  0  0  0
   -1.6740   -2.2915   -0.3651 H   0  0  0  0  0  0  0  0  0  0  0  0
    0.8652   -1.9456   -0.2268 H   0  0  0  0  0  0  0  0  0  0  0  0
    0.0720   -1.3966   -1.7132 H   0  0  0  0  0  0  0  0  0  0  0  0
  1  2  1  0
  2  3  1  0
  2  4  1  0
  4  5  1  0
  5  6  1  0
  6  7  1  0
  7  8  1  0
  8  9  1  0
  9  2  1  0
  8  6  1  0
  1 10  1  0
  1 11  1  0
  1 12  1  0
  3 13  1  0
  4 14  1  0
  4 15  1  0
  5 16  1  0
  5 17  1  0
  6 18  1  0
  8 19  1  0
  9 20  1  0
  9 21  1  0
M  END
