
     RDKit          3D

 25 25  0  0  0  0  0  0  0  0999 V2000
    2.2454   -1.0123    0.6542 C   0  0  0  0  0  0  0  0  0  0  0  0
    1.1842   -0.1017    0.0871 C   0  0  0  0  0  0  0  0  0  0  0  0
    1.7149    1.3136    0.1042 C   0  0  0  0  0  0  0  0  0  0  0  0
    0.8063   -0.4417   -1.2875 C   0  0  0  0  0  0  0  0  0  0  0  0
   -0.5111   -0.4008   -1.4026 C   0  0  0  0  0  0  0  0  0  0  0  0
   -1.1822   -0.0315   -0.1301 C   0  0  0  0  0  0  0  0  0  0  0  0
   -2.3493   -0.9565    0.0641 C   0  0  0  0  0  0  0  0  0  0  0  0
   -1.6735    1.3785   -0.1083 C   0  0  0  0  0  0  0  0  0  0  0  0
   -0.0660   -0.2855    0.8700 C   0  0  0  0  0  0  0  0  0  0  0  0
    1.8374   -2.0469    0.7308 H   0  0  0  0  0  0  0  0  0  0  0  0
    3.1808   -0.9970    0.0976 H   0  0  0  0  0  0  0  0  0  0  0  0
    2.4295   -0.6906    1.7057 H   0  0  0  0  0  0  0  0  0  0  0  0
    1.2616    1.9396   -0.7010 H   0  0  0  0  0  0  0  0  0  0  0  0
    1.6676    1.7934    1.0823 H   0  0  0  0  0  0  0  0  0  0  0  0
    2.8029    1.2318   -0.1883 H   0  0  0  0  0  0  0  0  0  0  0  0
    1.4786   -0.6996   -2.1331 H   0  0  0  0  0  0  0  0  0  0  0  0
   -1.0485   -0.6189   -2.3462 H   0  0  0  0  0  0  0  0  0  0  0  0
   -3.2880   -0.4618   -0.3028 H   0  0  0  0  0  0  0  0  0  0  0  0
   -2.5248   -1.1916    1.1334 H   0  0  0  0  0  0  0  0  0  0  0  0
   -2.2301   -1.9021   -0.5312 H   0  0  0  0  0  0  0  0  0  0  0  0
   -0.9093    2.0913    0.3107 H   0  0  0  0  0  0  0  0  0  0  0  0
   -1.9570    1.6957   -1.1469 H   0  0  0  0  0  0  0  0  0  0  0  0
   -2.6068    1.4093    0.5018 H   0  0  0  0  0  0  0  0  0  0  0  0
   -0.1384    0.3435    1.7532 H   0  0  0  0  0  0  0  0  0  0  0  0
   -0.1238   -1.3581    1.1828 H   0  0  0  0  0  0  0  0  0  0  0  0
  1  2  1  0
  2  3  1  0
  2  4  1  0
  4  5  2  0
  5  6  1  0
  6  7  1  0
  6  8  1  0
  6  9  1  0
  9  2  1  0
  1 10  1  0
  1 11  1  0
  1 12  1  0
  3 13  1  0
  3 14  1  0
  3 15  1  0
  4 16  1  0
  5 17  1  0
  7 18  1  0
  7 19  1  0
  7 20  1  0
  8 21  1  0
  8 22  1  0
  8 23  1  0
  9 24  1  0
  9 25  1  0
M  END
