
     RDKit          3D

 23 23  0  0  0  0  0  0  0  0999 V2000
   -1.1840    1.0728    1.1227 C   0  0  0  0  0  0  0  0  0  0  0  0
   -0.9067    0.1503   -0.0276 C   0  0  0  0  0  0  0  0  0  0  0  0
   -1.3411    0.6570   -1.3774 C   0  0  0  0  0  0  0  0  0  0  0  0
   -0.9642   -1.3024    0.2858 C   0  0  0  0  0  0  0  0  0  0  0  0
    0.3269   -0.6888   -0.0490 C   0  0  0  0  0  0  0  0  0  0  0  0
    0.9295   -1.1023   -1.3842 C   0  0  0  0  0  0  0  0  0  0  0  0
    1.3558   -0.3656    0.9960 C   0  0  0  0  0  0  0  0  0  0  0  0
    1.8285    1.0357    0.8556 C   0  0  0  0  0  0  0  0  0  0  0  0
    2.6619    1.4387    1.6322 O   0  0  0  0  0  0  0  0  0  0  0  0
   -0.7385    0.7316    2.0745 H   0  0  0  0  0  0  0  0  0  0  0  0
   -2.2868    1.0741    1.2824 H   0  0  0  0  0  0  0  0  0  0  0  0
   -0.7885    2.0683    0.8806 H   0  0  0  0  0  0  0  0  0  0  0  0
   -1.6173   -0.1712   -2.0701 H   0  0  0  0  0  0  0  0  0  0  0  0
   -2.2405    1.3257   -1.3134 H   0  0  0  0  0  0  0  0  0  0  0  0
   -0.5258    1.2963   -1.7788 H   0  0  0  0  0  0  0  0  0  0  0  0
   -1.0987   -1.6070    1.3466 H   0  0  0  0  0  0  0  0  0  0  0  0
   -1.4410   -2.0233   -0.4244 H   0  0  0  0  0  0  0  0  0  0  0  0
    1.3608   -2.1294   -1.2018 H   0  0  0  0  0  0  0  0  0  0  0  0
    1.8022   -0.4750   -1.6576 H   0  0  0  0  0  0  0  0  0  0  0  0
    0.1833   -1.1687   -2.1796 H   0  0  0  0  0  0  0  0  0  0  0  0
    0.9835   -0.4869    2.0267 H   0  0  0  0  0  0  0  0  0  0  0  0
    2.2591   -1.0127    0.8787 H   0  0  0  0  0  0  0  0  0  0  0  0
    1.4417    1.6829    0.0821 H   0  0  0  0  0  0  0  0  0  0  0  0
  1  2  1  0
  2  3  1  0
  2  4  1  0
  4  5  1  0
  5  6  1  0
  5  7  1  0
  7  8  1  0
  8  9  2  0
  5  2  1  0
  1 10  1  0
  1 11  1  0
  1 12  1  0
  3 13  1  0
  3 14  1  0
  3 15  1  0
  4 16  1  0
  4 17  1  0
  6 18  1  0
  6 19  1  0
  6 20  1  0
  7 21  1  0
  7 22  1  0
  8 23  1  0
M  END
