
     RDKit          3D

 16 16  0  0  0  0  0  0  0  0999 V2000
    0.0107   -1.4792   -0.0389 C   0  0  0  0  0  0  0  0  0  0  0  0
   -0.0787    0.0160   -0.1133 C   0  0  0  0  0  0  0  0  0  0  0  0
    0.9685    0.6859   -0.7250 O   0  0  0  0  0  0  0  0  0  0  0  0
    2.2852    0.6741   -0.3477 C   0  0  0  0  0  0  0  0  0  0  0  0
    2.6006   -0.0121    0.6603 O   0  0  0  0  0  0  0  0  0  0  0  0
   -0.7420    0.6802    1.0533 C   0  0  0  0  0  0  0  0  0  0  0  0
   -1.3197    1.5715    0.1192 O   0  0  0  0  0  0  0  0  0  0  0  0
   -1.4093    0.4588   -0.7379 C   0  0  0  0  0  0  0  0  0  0  0  0
    0.5215   -1.7645    0.9161 H   0  0  0  0  0  0  0  0  0  0  0  0
   -1.0244   -1.8949    0.0388 H   0  0  0  0  0  0  0  0  0  0  0  0
    0.5015   -1.8835   -0.9163 H   0  0  0  0  0  0  0  0  0  0  0  0
    2.9902    1.2521   -0.9300 H   0  0  0  0  0  0  0  0  0  0  0  0
   -1.5727    0.0223    1.4278 H   0  0  0  0  0  0  0  0  0  0  0  0
   -0.1142    1.1365    1.8102 H   0  0  0  0  0  0  0  0  0  0  0  0
   -2.2706   -0.1570   -0.4102 H   0  0  0  0  0  0  0  0  0  0  0  0
   -1.3468    0.6937   -1.8063 H   0  0  0  0  0  0  0  0  0  0  0  0
  1  2  1  0
  2  3  1  0
  3  4  1  0
  4  5  2  0
  2  6  1  0
  6  7  1  0
  7  8  1  0
  8  2  1  0
  1  9  1  0
  1 10  1  0
  1 11  1  0
  4 12  1  0
  6 13  1  0
  6 14  1  0
  8 15  1  0
  8 16  1  0
M  END
