
     RDKit          3D

 19 20  0  0  0  0  0  0  0  0999 V2000
   -1.3254   -1.1884   -1.0981 C   0  0  0  0  0  0  0  0  0  0  0  0
   -0.8494    0.0091   -0.2909 C   0  0  0  0  0  0  0  0  0  0  0  0
   -1.8676    0.5660    0.7091 C   0  0  0  0  0  0  0  0  0  0  0  0
   -0.2840    1.0855   -1.0664 O   0  0  0  0  0  0  0  0  0  0  0  0
    0.4630    0.3486   -0.2194 C   0  0  0  0  0  0  0  0  0  0  0  0
    1.1457    0.9047    0.9883 C   0  0  0  0  0  0  0  0  0  0  0  0
    2.3111    0.0420    0.6754 C   0  0  0  0  0  0  0  0  0  0  0  0
    3.3450   -0.2234    1.2512 O   0  0  0  0  0  0  0  0  0  0  0  0
    1.7104   -0.3669   -0.6200 C   0  0  0  0  0  0  0  0  0  0  0  0
   -0.4216   -1.7621   -1.4296 H   0  0  0  0  0  0  0  0  0  0  0  0
   -1.9368   -1.8014   -0.3992 H   0  0  0  0  0  0  0  0  0  0  0  0
   -1.8744   -0.8712   -1.9844 H   0  0  0  0  0  0  0  0  0  0  0  0
   -1.4458    1.5003    1.1305 H   0  0  0  0  0  0  0  0  0  0  0  0
   -2.8202    0.7376    0.2169 H   0  0  0  0  0  0  0  0  0  0  0  0
   -1.9118   -0.1954    1.5265 H   0  0  0  0  0  0  0  0  0  0  0  0
    0.5796    0.6286    1.9075 H   0  0  0  0  0  0  0  0  0  0  0  0
    1.3733    1.9858    0.9854 H   0  0  0  0  0  0  0  0  0  0  0  0
    2.2080    0.0659   -1.5178 H   0  0  0  0  0  0  0  0  0  0  0  0
    1.6009   -1.4654   -0.7649 H   0  0  0  0  0  0  0  0  0  0  0  0
  1  2  1  0
  2  3  1  0
  2  4  1  0
  4  5  1  0
  5  6  1  0
  6  7  1  0
  7  8  2  0
  7  9  1  0
  5  2  1  0
  9  5  1  0
  1 10  1  0
  1 11  1  0
  1 12  1  0
  3 13  1  0
  3 14  1  0
  3 15  1  0
  6 16  1  0
  6 17  1  0
  9 18  1  0
  9 19  1  0
M  END
