
     RDKit          3D

 23 24  0  0  0  0  0  0  0  0999 V2000
   -2.1322   -1.4937    0.0194 C   0  0  0  0  0  0  0  0  0  0  0  0
   -1.1834   -0.2818   -0.0170 C   0  0  0  0  0  0  0  0  0  0  0  0
    0.1826   -0.6079   -0.4470 C   0  0  0  0  0  0  0  0  0  0  0  0
    1.1846    0.4850   -0.5199 C   0  0  0  0  0  0  0  0  0  0  0  0
    2.5698   -0.0006   -1.0069 C   0  0  0  0  0  0  0  0  0  0  0  0
    3.1074    1.0013   -0.2058 O   0  0  0  0  0  0  0  0  0  0  0  0
    2.0631    0.6723    0.6985 C   0  0  0  0  0  0  0  0  0  0  0  0
   -1.8316    1.0304   -0.2168 C   0  0  0  0  0  0  0  0  0  0  0  0
   -1.3267    0.6934    1.1528 C   0  0  0  0  0  0  0  0  0  0  0  0
   -1.6137   -2.4262   -0.2029 H   0  0  0  0  0  0  0  0  0  0  0  0
   -2.8591   -1.3151   -0.8101 H   0  0  0  0  0  0  0  0  0  0  0  0
   -2.7050   -1.4796    0.9544 H   0  0  0  0  0  0  0  0  0  0  0  0
    0.6067   -1.4279    0.2116 H   0  0  0  0  0  0  0  0  0  0  0  0
    0.1912   -1.1073   -1.4650 H   0  0  0  0  0  0  0  0  0  0  0  0
    0.9007    1.4213   -0.9913 H   0  0  0  0  0  0  0  0  0  0  0  0
    2.7160    0.1078   -2.0883 H   0  0  0  0  0  0  0  0  0  0  0  0
    2.7982   -0.9829   -0.5838 H   0  0  0  0  0  0  0  0  0  0  0  0
    2.3409   -0.3163    1.1540 H   0  0  0  0  0  0  0  0  0  0  0  0
    1.8203    1.4652    1.3949 H   0  0  0  0  0  0  0  0  0  0  0  0
   -1.3516    1.8461   -0.7885 H   0  0  0  0  0  0  0  0  0  0  0  0
   -2.9373    1.0330   -0.2987 H   0  0  0  0  0  0  0  0  0  0  0  0
   -0.5027    1.3073    1.4902 H   0  0  0  0  0  0  0  0  0  0  0  0
   -2.0382    0.3763    1.9435 H   0  0  0  0  0  0  0  0  0  0  0  0
  1  2  1  0
  2  3  1  0
  3  4  1  0
  4  5  1  0
  5  6  1  0
  6  7  1  0
  2  8  1  0
  8  9  1  0
  9  2  1  0
  7  4  1  0
  1 10  1  0
  1 11  1  0
  1 12  1  0
  3 13  1  0
  3 14  1  0
  4 15  1  0
  5 16  1  0
  5 17  1  0
  7 18  1  0
  7 19  1  0
  8 20  1  0
  8 21  1  0
  9 22  1  0
  9 23  1  0
M  END
