
     RDKit          3D

 21 22  0  0  0  0  0  0  0  0999 V2000
   -1.7045   -0.9234    0.1709 C   0  0  0  0  0  0  0  0  0  0  0  0
   -0.9874    0.3283   -0.1534 C   0  0  0  0  0  0  0  0  0  0  0  0
   -1.8799    1.3560   -0.4691 O   0  0  0  0  0  0  0  0  0  0  0  0
   -0.1650    0.0898   -1.4276 C   0  0  0  0  0  0  0  0  0  0  0  0
    0.9723   -0.7474   -0.8261 C   0  0  0  0  0  0  0  0  0  0  0  0
    1.3879    0.1985    0.2912 C   0  0  0  0  0  0  0  0  0  0  0  0
    2.3490    1.1463    0.0310 O   0  0  0  0  0  0  0  0  0  0  0  0
    0.8742   -0.1084    1.6231 C   0  0  0  0  0  0  0  0  0  0  0  0
    0.0343    0.7743    0.8123 C   0  0  0  0  0  0  0  0  0  0  0  0
   -1.5278   -1.3301    1.1724 H   0  0  0  0  0  0  0  0  0  0  0  0
   -1.5175   -1.7331   -0.5884 H   0  0  0  0  0  0  0  0  0  0  0  0
   -2.8132   -0.7405    0.1018 H   0  0  0  0  0  0  0  0  0  0  0  0
   -1.9738    1.8942    0.3735 H   0  0  0  0  0  0  0  0  0  0  0  0
    0.3069    1.0194   -1.7857 H   0  0  0  0  0  0  0  0  0  0  0  0
   -0.7100   -0.4783   -2.1753 H   0  0  0  0  0  0  0  0  0  0  0  0
    1.7886   -0.9050   -1.5224 H   0  0  0  0  0  0  0  0  0  0  0  0
    0.5351   -1.6659   -0.3924 H   0  0  0  0  0  0  0  0  0  0  0  0
    2.9950    0.7302   -0.6197 H   0  0  0  0  0  0  0  0  0  0  0  0
    1.4126    0.3814    2.4739 H   0  0  0  0  0  0  0  0  0  0  0  0
    0.5893   -1.1539    1.8764 H   0  0  0  0  0  0  0  0  0  0  0  0
    0.0341    1.8676    1.0336 H   0  0  0  0  0  0  0  0  0  0  0  0
  1  2  1  0
  2  3  1  0
  2  4  1  0
  4  5  1  0
  5  6  1  0
  6  7  1  0
  6  8  1  0
  8  9  1  0
  9  2  1  0
  9  6  1  0
  1 10  1  0
  1 11  1  0
  1 12  1  0
  3 13  1  0
  4 14  1  0
  4 15  1  0
  5 16  1  0
  5 17  1  0
  7 18  1  0
  8 19  1  0
  8 20  1  0
  9 21  1  0
M  END
