
     RDKit          3D

 23 24  0  0  0  0  0  0  0  0999 V2000
   -1.7568   -0.7673    0.4522 C   0  0  0  0  0  0  0  0  0  0  0  0
   -0.7668    0.2653    0.0297 C   0  0  0  0  0  0  0  0  0  0  0  0
   -1.4052    1.5689   -0.3254 C   0  0  0  0  0  0  0  0  0  0  0  0
    0.2038   -0.1602   -1.0483 C   0  0  0  0  0  0  0  0  0  0  0  0
    0.7780   -1.4352   -0.5303 C   0  0  0  0  0  0  0  0  0  0  0  0
    1.0466   -1.0127    0.9287 C   0  0  0  0  0  0  0  0  0  0  0  0
    0.4817    0.3742    0.8783 C   0  0  0  0  0  0  0  0  0  0  0  0
    1.1362    0.8866   -0.4160 C   0  0  0  0  0  0  0  0  0  0  0  0
    2.4444    0.4758   -0.5849 O   0  0  0  0  0  0  0  0  0  0  0  0
   -2.3716   -1.1251   -0.3967 H   0  0  0  0  0  0  0  0  0  0  0  0
   -1.3450   -1.6399    0.9554 H   0  0  0  0  0  0  0  0  0  0  0  0
   -2.4665   -0.2837    1.1599 H   0  0  0  0  0  0  0  0  0  0  0  0
   -1.3489    2.3190    0.4955 H   0  0  0  0  0  0  0  0  0  0  0  0
   -2.5071    1.3940   -0.5025 H   0  0  0  0  0  0  0  0  0  0  0  0
   -1.0406    1.9918   -1.2977 H   0  0  0  0  0  0  0  0  0  0  0  0
   -0.0529   -0.0365   -2.0674 H   0  0  0  0  0  0  0  0  0  0  0  0
    0.0871   -2.2911   -0.5695 H   0  0  0  0  0  0  0  0  0  0  0  0
    1.7312   -1.6563   -1.0502 H   0  0  0  0  0  0  0  0  0  0  0  0
    2.1554   -0.9946    1.0635 H   0  0  0  0  0  0  0  0  0  0  0  0
    0.5745   -1.6827    1.6426 H   0  0  0  0  0  0  0  0  0  0  0  0
    0.4945    1.0064    1.7207 H   0  0  0  0  0  0  0  0  0  0  0  0
    0.8949    1.9184   -0.6560 H   0  0  0  0  0  0  0  0  0  0  0  0
    3.0331    0.8849    0.1187 H   0  0  0  0  0  0  0  0  0  0  0  0
  1  2  1  0
  2  3  1  0
  2  4  1  0
  4  5  1  0
  5  6  1  0
  6  7  1  0
  7  8  1  0
  8  9  1  0
  7  2  1  0
  8  4  1  0
  1 10  1  0
  1 11  1  0
  1 12  1  0
  3 13  1  0
  3 14  1  0
  3 15  1  0
  4 16  1  0
  5 17  1  0
  5 18  1  0
  6 19  1  0
  6 20  1  0
  7 21  1  0
  8 22  1  0
  9 23  1  0
M  END
