
     RDKit          3D

 21 21  0  0  0  0  0  0  0  0999 V2000
   -1.9896    0.0712    1.0718 C   0  0  0  0  0  0  0  0  0  0  0  0
   -1.4310   -0.2075   -0.3019 C   0  0  0  0  0  0  0  0  0  0  0  0
    0.0539    0.0285   -0.4895 C   0  0  0  0  0  0  0  0  0  0  0  0
    0.8821   -0.8214    0.4225 C   0  0  0  0  0  0  0  0  0  0  0  0
    2.3402   -0.5167    0.1615 C   0  0  0  0  0  0  0  0  0  0  0  0
    2.6356    0.9071    0.4228 C   0  0  0  0  0  0  0  0  0  0  0  0
    3.7663    1.3328    0.2502 O   0  0  0  0  0  0  0  0  0  0  0  0
   -2.2715    0.2846   -1.4593 C   0  0  0  0  0  0  0  0  0  0  0  0
   -2.0949   -1.0645   -1.1593 O   0  0  0  0  0  0  0  0  0  0  0  0
   -3.0381   -0.3029    1.1081 H   0  0  0  0  0  0  0  0  0  0  0  0
   -1.3901   -0.5101    1.8116 H   0  0  0  0  0  0  0  0  0  0  0  0
   -1.9634    1.1613    1.2879 H   0  0  0  0  0  0  0  0  0  0  0  0
    0.3605   -0.1759   -1.5394 H   0  0  0  0  0  0  0  0  0  0  0  0
    0.2635    1.0815   -0.2991 H   0  0  0  0  0  0  0  0  0  0  0  0
    0.6977   -1.8977    0.3159 H   0  0  0  0  0  0  0  0  0  0  0  0
    0.6823   -0.5300    1.4848 H   0  0  0  0  0  0  0  0  0  0  0  0
    3.0071   -1.1963    0.7318 H   0  0  0  0  0  0  0  0  0  0  0  0
    2.5745   -0.6902   -0.9281 H   0  0  0  0  0  0  0  0  0  0  0  0
    1.9034    1.6272    0.7671 H   0  0  0  0  0  0  0  0  0  0  0  0
   -3.2250    0.7829   -1.2710 H   0  0  0  0  0  0  0  0  0  0  0  0
   -1.7635    0.6360   -2.3885 H   0  0  0  0  0  0  0  0  0  0  0  0
  1  2  1  0
  2  3  1  0
  3  4  1  0
  4  5  1  0
  5  6  1  0
  6  7  2  0
  2  8  1  0
  8  9  1  0
  9  2  1  0
  1 10  1  0
  1 11  1  0
  1 12  1  0
  3 13  1  0
  3 14  1  0
  4 15  1  0
  4 16  1  0
  5 17  1  0
  5 18  1  0
  6 19  1  0
  8 20  1  0
  8 21  1  0
M  END
