
     RDKit          3D

 23 23  0  0  0  0  0  0  0  0999 V2000
   -2.2878    0.2538   -0.1398 C   0  0  0  0  0  0  0  0  0  0  0  0
   -0.8498   -0.0345    0.3034 C   0  0  0  0  0  0  0  0  0  0  0  0
   -0.7863   -0.2822    1.6513 O   0  0  0  0  0  0  0  0  0  0  0  0
   -0.3778   -1.1982   -0.5336 C   0  0  0  0  0  0  0  0  0  0  0  0
    1.0633   -1.5261   -0.3524 C   0  0  0  0  0  0  0  0  0  0  0  0
    1.9278   -0.4350    0.1277 C   0  0  0  0  0  0  0  0  0  0  0  0
    1.4408    0.9497   -0.0114 C   0  0  0  0  0  0  0  0  0  0  0  0
   -0.0162    1.1541   -0.1162 C   0  0  0  0  0  0  0  0  0  0  0  0
   -0.4208    2.3160    0.5750 O   0  0  0  0  0  0  0  0  0  0  0  0
   -2.3065    1.0505   -0.9105 H   0  0  0  0  0  0  0  0  0  0  0  0
   -2.7324   -0.6490   -0.6398 H   0  0  0  0  0  0  0  0  0  0  0  0
   -2.9455    0.4652    0.7231 H   0  0  0  0  0  0  0  0  0  0  0  0
   -1.5917   -0.7993    1.9033 H   0  0  0  0  0  0  0  0  0  0  0  0
   -1.0635   -2.0507   -0.3082 H   0  0  0  0  0  0  0  0  0  0  0  0
   -0.5588   -0.9214   -1.6028 H   0  0  0  0  0  0  0  0  0  0  0  0
    1.1028   -2.4162    0.3451 H   0  0  0  0  0  0  0  0  0  0  0  0
    1.4285   -1.9534   -1.3339 H   0  0  0  0  0  0  0  0  0  0  0  0
    2.2157   -0.6487    1.2006 H   0  0  0  0  0  0  0  0  0  0  0  0
    2.9134   -0.5131   -0.4226 H   0  0  0  0  0  0  0  0  0  0  0  0
    1.9387    1.4665   -0.8852 H   0  0  0  0  0  0  0  0  0  0  0  0
    1.8036    1.5447    0.8798 H   0  0  0  0  0  0  0  0  0  0  0  0
   -0.2927    1.3575   -1.1884 H   0  0  0  0  0  0  0  0  0  0  0  0
    0.3956    2.8696    0.7358 H   0  0  0  0  0  0  0  0  0  0  0  0
  1  2  1  0
  2  3  1  0
  2  4  1  0
  4  5  1  0
  5  6  1  0
  6  7  1  0
  7  8  1  0
  8  9  1  0
  8  2  1  0
  1 10  1  0
  1 11  1  0
  1 12  1  0
  3 13  1  0
  4 14  1  0
  4 15  1  0
  5 16  1  0
  5 17  1  0
  6 18  1  0
  6 19  1  0
  7 20  1  0
  7 21  1  0
  8 22  1  0
  9 23  1  0
M  END
