
     RDKit          3D

 16 16  0  0  0  0  0  0  0  0999 V2000
    1.6660   -0.4998   -0.2745 C   0  0  0  0  0  0  0  0  0  0  0  0
    0.4190    0.2192    0.2721 C   0  0  0  0  0  0  0  0  0  0  0  0
    0.4979    0.3222    1.6613 O   0  0  0  0  0  0  0  0  0  0  0  0
   -0.1040    1.2340   -0.4696 C   0  0  0  0  0  0  0  0  0  0  0  0
   -0.8843    0.0138   -0.3307 C   0  0  0  0  0  0  0  0  0  0  0  0
   -2.0567    0.4561   -0.7122 O   0  0  0  0  0  0  0  0  0  0  0  0
   -1.0777   -1.3099    0.1515 C   0  0  0  0  0  0  0  0  0  0  0  0
   -0.5784   -2.2936   -0.5175 O   0  0  0  0  0  0  0  0  0  0  0  0
    1.6144   -0.5187   -1.3933 H   0  0  0  0  0  0  0  0  0  0  0  0
    2.5064    0.1684    0.0043 H   0  0  0  0  0  0  0  0  0  0  0  0
    1.8080   -1.4918    0.1756 H   0  0  0  0  0  0  0  0  0  0  0  0
    0.7719    1.2301    1.9530 H   0  0  0  0  0  0  0  0  0  0  0  0
   -0.4903    2.1392    0.0864 H   0  0  0  0  0  0  0  0  0  0  0  0
    0.3295    1.5590   -1.4398 H   0  0  0  0  0  0  0  0  0  0  0  0
   -2.8286    0.3917   -0.2138 H   0  0  0  0  0  0  0  0  0  0  0  0
   -1.5931   -1.6199    1.0470 H   0  0  0  0  0  0  0  0  0  0  0  0
  1  2  1  0
  2  3  1  0
  2  4  1  0
  4  5  1  0
  5  6  1  0
  5  7  1  0
  7  8  2  0
  5  2  1  0
  1  9  1  0
  1 10  1  0
  1 11  1  0
  3 12  1  0
  4 13  1  0
  4 14  1  0
  6 15  1  0
  7 16  1  0
M  END
