
     RDKit          3D

 21 21  0  0  0  0  0  0  0  0999 V2000
   -2.1145   -0.1212   -0.6675 C   0  0  0  0  0  0  0  0  0  0  0  0
   -0.8593   -0.0650    0.1848 C   0  0  0  0  0  0  0  0  0  0  0  0
   -1.2194   -0.5490    1.4542 O   0  0  0  0  0  0  0  0  0  0  0  0
   -0.4420    1.3522    0.2485 C   0  0  0  0  0  0  0  0  0  0  0  0
    0.8125    1.7534    0.4281 C   0  0  0  0  0  0  0  0  0  0  0  0
    1.8095    0.6573    0.5664 C   0  0  0  0  0  0  0  0  0  0  0  0
    1.5587   -0.4480   -0.4196 C   0  0  0  0  0  0  0  0  0  0  0  0
    0.1644   -0.9635   -0.4387 C   0  0  0  0  0  0  0  0  0  0  0  0
    0.0911   -2.1968    0.2121 O   0  0  0  0  0  0  0  0  0  0  0  0
   -2.1162    0.7105   -1.3926 H   0  0  0  0  0  0  0  0  0  0  0  0
   -2.1204   -1.0714   -1.2617 H   0  0  0  0  0  0  0  0  0  0  0  0
   -3.0337   -0.1139   -0.0473 H   0  0  0  0  0  0  0  0  0  0  0  0
   -1.6370    0.1669    1.9948 H   0  0  0  0  0  0  0  0  0  0  0  0
   -1.1896    2.1486    0.1448 H   0  0  0  0  0  0  0  0  0  0  0  0
    1.0903    2.8133    0.4708 H   0  0  0  0  0  0  0  0  0  0  0  0
    2.8046    1.1038    0.3733 H   0  0  0  0  0  0  0  0  0  0  0  0
    1.8399    0.2479    1.5959 H   0  0  0  0  0  0  0  0  0  0  0  0
    2.2725   -1.2758   -0.1485 H   0  0  0  0  0  0  0  0  0  0  0  0
    1.9048   -0.0852   -1.4122 H   0  0  0  0  0  0  0  0  0  0  0  0
   -0.1038   -1.1719   -1.5079 H   0  0  0  0  0  0  0  0  0  0  0  0
    0.4874   -2.8923   -0.3778 H   0  0  0  0  0  0  0  0  0  0  0  0
  1  2  1  0
  2  3  1  0
  2  4  1  0
  4  5  2  0
  5  6  1  0
  6  7  1  0
  7  8  1  0
  8  9  1  0
  8  2  1  0
  1 10  1  0
  1 11  1  0
  1 12  1  0
  3 13  1  0
  4 14  1  0
  5 15  1  0
  6 16  1  0
  6 17  1  0
  7 18  1  0
  7 19  1  0
  8 20  1  0
  9 21  1  0
M  END
