
     RDKit          3D

 17 17  0  0  0  0  0  0  0  0999 V2000
   -1.8860   -0.1171   -0.9781 C   0  0  0  0  0  0  0  0  0  0  0  0
   -0.6582   -0.1267   -0.1056 C   0  0  0  0  0  0  0  0  0  0  0  0
    0.5925    0.3362   -0.8318 C   0  0  0  0  0  0  0  0  0  0  0  0
    1.7992    0.3049    0.0985 C   0  0  0  0  0  0  0  0  0  0  0  0
    2.0583   -0.9532    0.5909 O   0  0  0  0  0  0  0  0  0  0  0  0
   -0.7928    0.0809    1.2934 C   0  0  0  0  0  0  0  0  0  0  0  0
   -0.5497   -1.2631    0.7054 O   0  0  0  0  0  0  0  0  0  0  0  0
   -2.7887   -0.1373   -0.3425 H   0  0  0  0  0  0  0  0  0  0  0  0
   -1.8555   -1.0269   -1.6023 H   0  0  0  0  0  0  0  0  0  0  0  0
   -1.8212    0.7586   -1.6355 H   0  0  0  0  0  0  0  0  0  0  0  0
    0.8283   -0.3244   -1.6911 H   0  0  0  0  0  0  0  0  0  0  0  0
    0.5018    1.3829   -1.1730 H   0  0  0  0  0  0  0  0  0  0  0  0
    2.6672    0.6066   -0.5272 H   0  0  0  0  0  0  0  0  0  0  0  0
    1.6160    1.0241    0.8985 H   0  0  0  0  0  0  0  0  0  0  0  0
    2.0505   -0.9846    1.5772 H   0  0  0  0  0  0  0  0  0  0  0  0
   -1.8083    0.1527    1.7527 H   0  0  0  0  0  0  0  0  0  0  0  0
    0.0465    0.2865    1.9706 H   0  0  0  0  0  0  0  0  0  0  0  0
  1  2  1  0
  2  3  1  0
  3  4  1  0
  4  5  1  0
  2  6  1  0
  6  7  1  0
  7  2  1  0
  1  8  1  0
  1  9  1  0
  1 10  1  0
  3 11  1  0
  3 12  1  0
  4 13  1  0
  4 14  1  0
  5 15  1  0
  6 16  1  0
  6 17  1  0
M  END
