
     RDKit          3D

 18 19  0  0  0  0  0  0  0  0999 V2000
    1.0162    1.2858    0.8214 C   0  0  0  0  0  0  0  0  0  0  0  0
    0.5647    0.1881   -0.1367 C   0  0  0  0  0  0  0  0  0  0  0  0
    1.6823   -0.6677   -0.6230 C   0  0  0  0  0  0  0  0  0  0  0  0
   -0.2250    0.7852   -1.1362 O   0  0  0  0  0  0  0  0  0  0  0  0
   -1.4444    0.3154   -0.7270 C   0  0  0  0  0  0  0  0  0  0  0  0
   -1.8491    0.2125    0.6781 C   0  0  0  0  0  0  0  0  0  0  0  0
   -0.6539   -0.5688    0.2952 C   0  0  0  0  0  0  0  0  0  0  0  0
   -0.7502   -1.9355    0.0499 O   0  0  0  0  0  0  0  0  0  0  0  0
    1.0683    2.2782    0.2977 H   0  0  0  0  0  0  0  0  0  0  0  0
    0.2900    1.3479    1.6410 H   0  0  0  0  0  0  0  0  0  0  0  0
    2.0605    1.0844    1.1745 H   0  0  0  0  0  0  0  0  0  0  0  0
    1.9704   -0.3838   -1.6429 H   0  0  0  0  0  0  0  0  0  0  0  0
    2.5754   -0.4720    0.0305 H   0  0  0  0  0  0  0  0  0  0  0  0
    1.4606   -1.7518   -0.6350 H   0  0  0  0  0  0  0  0  0  0  0  0
   -2.0131   -0.2362   -1.4998 H   0  0  0  0  0  0  0  0  0  0  0  0
   -2.7661   -0.4205    0.8620 H   0  0  0  0  0  0  0  0  0  0  0  0
   -1.8046    1.0578    1.3919 H   0  0  0  0  0  0  0  0  0  0  0  0
   -1.1821   -2.1188   -0.8419 H   0  0  0  0  0  0  0  0  0  0  0  0
  1  2  1  0
  2  3  1  0
  2  4  1  0
  4  5  1  0
  5  6  1  0
  6  7  1  0
  7  8  1  0
  7  2  1  0
  7  5  1  0
  1  9  1  0
  1 10  1  0
  1 11  1  0
  3 12  1  0
  3 13  1  0
  3 14  1  0
  5 15  1  0
  6 16  1  0
  6 17  1  0
  8 18  1  0
M  END
