
     RDKit          3D

 23 25  0  0  0  0  0  0  0  0999 V2000
    1.8778   -1.0947    0.0772 C   0  0  0  0  0  0  0  0  0  0  0  0
    0.5528   -0.3767   -0.2027 C   0  0  0  0  0  0  0  0  0  0  0  0
    0.2003   -0.5246   -1.6249 C   0  0  0  0  0  0  0  0  0  0  0  0
   -0.4324   -0.8910    0.7826 C   0  0  0  0  0  0  0  0  0  0  0  0
   -1.8125   -1.1102    0.8316 C   0  0  0  0  0  0  0  0  0  0  0  0
   -1.5140    0.1642    0.3069 C   0  0  0  0  0  0  0  0  0  0  0  0
   -0.7704    1.3262    0.7936 C   0  0  0  0  0  0  0  0  0  0  0  0
   -0.0016    2.2001   -0.2240 C   0  0  0  0  0  0  0  0  0  0  0  0
    0.6915    1.0467    0.2809 C   0  0  0  0  0  0  0  0  0  0  0  0
    2.4528   -1.0866   -0.8654 H   0  0  0  0  0  0  0  0  0  0  0  0
    1.6326   -2.1218    0.4114 H   0  0  0  0  0  0  0  0  0  0  0  0
    2.4146   -0.5478    0.8771 H   0  0  0  0  0  0  0  0  0  0  0  0
   -0.6490   -1.2472   -1.8073 H   0  0  0  0  0  0  0  0  0  0  0  0
    1.0589   -0.9899   -2.1965 H   0  0  0  0  0  0  0  0  0  0  0  0
    0.0118    0.4368   -2.1497 H   0  0  0  0  0  0  0  0  0  0  0  0
    0.0261   -0.6768    1.8036 H   0  0  0  0  0  0  0  0  0  0  0  0
   -2.2556   -1.9118    0.1875 H   0  0  0  0  0  0  0  0  0  0  0  0
   -2.3685   -1.1280    1.8176 H   0  0  0  0  0  0  0  0  0  0  0  0
   -1.6598    0.2226   -0.8185 H   0  0  0  0  0  0  0  0  0  0  0  0
   -0.8293    1.7007    1.8258 H   0  0  0  0  0  0  0  0  0  0  0  0
   -0.4468    2.2126   -1.2608 H   0  0  0  0  0  0  0  0  0  0  0  0
    0.3348    3.1849    0.0867 H   0  0  0  0  0  0  0  0  0  0  0  0
    1.4860    1.2123    1.0672 H   0  0  0  0  0  0  0  0  0  0  0  0
  1  2  1  0
  2  3  1  0
  2  4  1  0
  4  5  1  0
  5  6  1  0
  6  7  1  0
  7  8  1  0
  8  9  1  0
  9  2  1  0
  6  4  1  0
  9  7  1  0
  1 10  1  0
  1 11  1  0
  1 12  1  0
  3 13  1  0
  3 14  1  0
  3 15  1  0
  4 16  1  0
  5 17  1  0
  5 18  1  0
  6 19  1  0
  7 20  1  0
  8 21  1  0
  8 22  1  0
  9 23  1  0
M  END
