
     RDKit          3D

 19 20  0  0  0  0  0  0  0  0999 V2000
   -1.1503    0.6715    1.0288 C   0  0  0  0  0  0  0  0  0  0  0  0
   -0.9743   -0.5920    0.2710 C   0  0  0  0  0  0  0  0  0  0  0  0
    0.1400   -0.8511   -0.6529 C   0  0  0  0  0  0  0  0  0  0  0  0
    0.1097   -1.9564   -1.2476 O   0  0  0  0  0  0  0  0  0  0  0  0
    1.2796   -0.0007   -0.9778 C   0  0  0  0  0  0  0  0  0  0  0  0
    2.1781    0.2491    0.2732 C   0  0  0  0  0  0  0  0  0  0  0  0
    1.5511    1.3444   -0.5136 C   0  0  0  0  0  0  0  0  0  0  0  0
   -2.3034   -1.2405   -0.1499 C   0  0  0  0  0  0  0  0  0  0  0  0
   -1.5720   -1.7139    0.9000 O   0  0  0  0  0  0  0  0  0  0  0  0
   -2.0612    0.5554    1.6924 H   0  0  0  0  0  0  0  0  0  0  0  0
   -1.4378    1.4972    0.3388 H   0  0  0  0  0  0  0  0  0  0  0  0
   -0.3499    0.9406    1.7346 H   0  0  0  0  0  0  0  0  0  0  0  0
    1.9390   -0.4134   -1.8102 H   0  0  0  0  0  0  0  0  0  0  0  0
    1.7662    0.0513    1.2551 H   0  0  0  0  0  0  0  0  0  0  0  0
    3.2719    0.0652    0.1554 H   0  0  0  0  0  0  0  0  0  0  0  0
    0.8293    2.0100   -0.0410 H   0  0  0  0  0  0  0  0  0  0  0  0
    2.2969    1.9253   -1.1460 H   0  0  0  0  0  0  0  0  0  0  0  0
   -2.2933   -1.8733   -1.0743 H   0  0  0  0  0  0  0  0  0  0  0  0
   -3.2198   -0.6686   -0.0358 H   0  0  0  0  0  0  0  0  0  0  0  0
  1  2  1  0
  2  3  1  0
  3  4  2  0
  3  5  1  0
  5  6  1  0
  6  7  1  0
  2  8  1  0
  8  9  1  0
  9  2  1  0
  7  5  1  0
  1 10  1  0
  1 11  1  0
  1 12  1  0
  5 13  1  0
  6 14  1  0
  6 15  1  0
  7 16  1  0
  7 17  1  0
  8 18  1  0
  8 19  1  0
M  END
