
     RDKit          3D

 19 20  0  0  0  0  0  0  0  0999 V2000
   -1.4368   -0.4116   -1.0882 C   0  0  0  0  0  0  0  0  0  0  0  0
   -1.0296    0.1532    0.2401 C   0  0  0  0  0  0  0  0  0  0  0  0
   -2.1333    0.3217    1.0672 O   0  0  0  0  0  0  0  0  0  0  0  0
   -0.1196    1.3462    0.1182 C   0  0  0  0  0  0  0  0  0  0  0  0
    1.0404    0.5142    0.5219 C   0  0  0  0  0  0  0  0  0  0  0  0
    1.9495    1.0750    1.3799 O   0  0  0  0  0  0  0  0  0  0  0  0
    1.2688   -0.8598    0.0488 C   0  0  0  0  0  0  0  0  0  0  0  0
    1.0732   -1.1605   -1.3108 O   0  0  0  0  0  0  0  0  0  0  0  0
    0.1228   -0.5792    0.9215 C   0  0  0  0  0  0  0  0  0  0  0  0
   -1.3609   -1.5118   -1.0240 H   0  0  0  0  0  0  0  0  0  0  0  0
   -2.5149   -0.1883   -1.2680 H   0  0  0  0  0  0  0  0  0  0  0  0
   -0.8588   -0.0051   -1.9425 H   0  0  0  0  0  0  0  0  0  0  0  0
   -2.3991   -0.5244    1.4948 H   0  0  0  0  0  0  0  0  0  0  0  0
   -0.3639    2.0837    0.9371 H   0  0  0  0  0  0  0  0  0  0  0  0
   -0.0656    1.8320   -0.8594 H   0  0  0  0  0  0  0  0  0  0  0  0
    2.8033    1.2010    0.8551 H   0  0  0  0  0  0  0  0  0  0  0  0
    2.1182   -1.3967    0.4814 H   0  0  0  0  0  0  0  0  0  0  0  0
    1.8932   -0.9600   -1.8031 H   0  0  0  0  0  0  0  0  0  0  0  0
    0.0132   -0.9296    1.9445 H   0  0  0  0  0  0  0  0  0  0  0  0
  1  2  1  0
  2  3  1  0
  2  4  1  0
  4  5  1  0
  5  6  1  0
  5  7  1  0
  7  8  1  0
  7  9  1  0
  9  2  1  0
  9  5  1  0
  1 10  1  0
  1 11  1  0
  1 12  1  0
  3 13  1  0
  4 14  1  0
  4 15  1  0
  6 16  1  0
  7 17  1  0
  8 18  1  0
  9 19  1  0
M  END
