
     RDKit          3D

 14 14  0  0  0  0  0  0  0  0999 V2000
   -0.9385    1.6285    0.6232 C   0  0  0  0  0  0  0  0  0  0  0  0
   -0.7660    0.1668    0.2107 C   0  0  0  0  0  0  0  0  0  0  0  0
    0.5326   -0.2130   -0.3826 C   0  0  0  0  0  0  0  0  0  0  0  0
    1.5884   -0.5417   -0.8734 C   0  0  0  0  0  0  0  0  0  0  0  0
    2.8309   -0.9370   -1.4779 C   0  0  0  0  0  0  0  0  0  0  0  0
    2.8378   -1.7751   -2.3909 O   0  0  0  0  0  0  0  0  0  0  0  0
   -1.4504   -0.8283    0.9892 C   0  0  0  0  0  0  0  0  0  0  0  0
   -1.9194   -0.4311   -0.3633 O   0  0  0  0  0  0  0  0  0  0  0  0
   -1.9293    1.6906    1.1186 H   0  0  0  0  0  0  0  0  0  0  0  0
   -0.1277    1.9316    1.2882 H   0  0  0  0  0  0  0  0  0  0  0  0
   -1.0001    2.2560   -0.3075 H   0  0  0  0  0  0  0  0  0  0  0  0
    3.7775   -0.5216   -1.1586 H   0  0  0  0  0  0  0  0  0  0  0  0
   -2.2785   -0.5265    1.6934 H   0  0  0  0  0  0  0  0  0  0  0  0
   -1.1572   -1.8993    1.0310 H   0  0  0  0  0  0  0  0  0  0  0  0
  1  2  1  0
  2  3  1  0
  3  4  3  0
  4  5  1  0
  5  6  2  0
  2  7  1  0
  7  8  1  0
  8  2  1  0
  1  9  1  0
  1 10  1  0
  1 11  1  0
  5 12  1  0
  7 13  1  0
  7 14  1  0
M  END
