
     RDKit          3D

 21 22  0  0  0  0  0  0  0  0999 V2000
    1.5218    0.9463   -0.5163 C   0  0  0  0  0  0  0  0  0  0  0  0
    0.5863   -0.0193    0.1040 C   0  0  0  0  0  0  0  0  0  0  0  0
    1.2033   -1.2767    0.6108 C   0  0  0  0  0  0  0  0  0  0  0  0
   -0.6365   -0.3106   -0.7867 C   0  0  0  0  0  0  0  0  0  0  0  0
   -1.1832    1.0990   -0.8470 C   0  0  0  0  0  0  0  0  0  0  0  0
   -1.0865    1.5255    0.4876 O   0  0  0  0  0  0  0  0  0  0  0  0
   -0.3100    0.6352    1.1768 C   0  0  0  0  0  0  0  0  0  0  0  0
   -1.1265   -0.4832    1.4720 O   0  0  0  0  0  0  0  0  0  0  0  0
   -1.4734   -1.0390    0.2388 C   0  0  0  0  0  0  0  0  0  0  0  0
    1.5498    1.9359   -0.0683 H   0  0  0  0  0  0  0  0  0  0  0  0
    1.3369    1.0525   -1.6231 H   0  0  0  0  0  0  0  0  0  0  0  0
    2.5664    0.5274   -0.4607 H   0  0  0  0  0  0  0  0  0  0  0  0
    0.4208   -1.8666    1.1285 H   0  0  0  0  0  0  0  0  0  0  0  0
    1.5746   -1.8830   -0.2160 H   0  0  0  0  0  0  0  0  0  0  0  0
    1.9570   -1.0176    1.3636 H   0  0  0  0  0  0  0  0  0  0  0  0
   -0.4286   -0.7989   -1.6963 H   0  0  0  0  0  0  0  0  0  0  0  0
   -0.5622    1.7790   -1.4543 H   0  0  0  0  0  0  0  0  0  0  0  0
   -2.2053    1.1212   -1.2313 H   0  0  0  0  0  0  0  0  0  0  0  0
    0.2362    0.9976    2.0186 H   0  0  0  0  0  0  0  0  0  0  0  0
   -1.3810   -2.1215    0.2084 H   0  0  0  0  0  0  0  0  0  0  0  0
   -2.5600   -0.8032    0.0908 H   0  0  0  0  0  0  0  0  0  0  0  0
  1  2  1  0
  2  3  1  0
  2  4  1  0
  4  5  1  0
  5  6  1  0
  6  7  1  0
  7  8  1  0
  8  9  1  0
  7  2  1  0
  9  4  1  0
  1 10  1  0
  1 11  1  0
  1 12  1  0
  3 13  1  0
  3 14  1  0
  3 15  1  0
  4 16  1  0
  5 17  1  0
  5 18  1  0
  7 19  1  0
  9 20  1  0
  9 21  1  0
M  END
