
     RDKit          3D

 21 21  0  0  0  0  0  0  0  0999 V2000
   -0.9991   -1.2631    0.6839 C   0  0  0  0  0  0  0  0  0  0  0  0
   -0.7396   -0.0735   -0.1704 C   0  0  0  0  0  0  0  0  0  0  0  0
    0.5532    0.1260   -0.8807 C   0  0  0  0  0  0  0  0  0  0  0  0
    1.7559    0.2036    0.0133 C   0  0  0  0  0  0  0  0  0  0  0  0
    1.6113    1.2578    0.8793 O   0  0  0  0  0  0  0  0  0  0  0  0
    2.1154   -1.0601    0.6599 C   0  0  0  0  0  0  0  0  0  0  0  0
    2.2593   -1.0941    1.8673 O   0  0  0  0  0  0  0  0  0  0  0  0
   -1.4765    1.2321    0.1675 C   0  0  0  0  0  0  0  0  0  0  0  0
   -1.9860    0.4243   -0.9503 C   0  0  0  0  0  0  0  0  0  0  0  0
   -2.0817   -1.3223    0.9204 H   0  0  0  0  0  0  0  0  0  0  0  0
   -0.7703   -2.1905    0.1042 H   0  0  0  0  0  0  0  0  0  0  0  0
   -0.4764   -1.2522    1.6605 H   0  0  0  0  0  0  0  0  0  0  0  0
    0.5048    1.0742   -1.4558 H   0  0  0  0  0  0  0  0  0  0  0  0
    0.6818   -0.6777   -1.6540 H   0  0  0  0  0  0  0  0  0  0  0  0
    2.6217    0.4721   -0.6645 H   0  0  0  0  0  0  0  0  0  0  0  0
    1.9703    2.0884    0.5123 H   0  0  0  0  0  0  0  0  0  0  0  0
    2.2618   -1.9784    0.1121 H   0  0  0  0  0  0  0  0  0  0  0  0
   -0.9860    2.1821   -0.0853 H   0  0  0  0  0  0  0  0  0  0  0  0
   -2.0820    1.2521    1.0943 H   0  0  0  0  0  0  0  0  0  0  0  0
   -1.8137    0.7224   -2.0076 H   0  0  0  0  0  0  0  0  0  0  0  0
   -2.9242   -0.1233   -0.8065 H   0  0  0  0  0  0  0  0  0  0  0  0
  1  2  1  0
  2  3  1  0
  3  4  1  0
  4  5  1  0
  4  6  1  0
  6  7  2  0
  2  8  1  0
  8  9  1  0
  9  2  1  0
  1 10  1  0
  1 11  1  0
  1 12  1  0
  3 13  1  0
  3 14  1  0
  4 15  1  0
  5 16  1  0
  6 17  1  0
  8 18  1  0
  8 19  1  0
  9 20  1  0
  9 21  1  0
M  END
