
     RDKit          3D

 21 22  0  0  0  0  0  0  0  0999 V2000
    1.3254    0.0144    1.4735 C   0  0  0  0  0  0  0  0  0  0  0  0
    0.4836    0.0440    0.2330 C   0  0  0  0  0  0  0  0  0  0  0  0
    1.3626    0.2168   -0.9883 C   0  0  0  0  0  0  0  0  0  0  0  0
    2.2379   -0.8721   -1.0197 O   0  0  0  0  0  0  0  0  0  0  0  0
   -0.4577   -1.1356    0.1531 C   0  0  0  0  0  0  0  0  0  0  0  0
   -1.6166   -0.2134    0.0941 C   0  0  0  0  0  0  0  0  0  0  0  0
   -2.7439   -0.3817    0.8444 O   0  0  0  0  0  0  0  0  0  0  0  0
   -1.6080    0.8671   -0.9239 C   0  0  0  0  0  0  0  0  0  0  0  0
   -0.7055    0.9489    0.2462 C   0  0  0  0  0  0  0  0  0  0  0  0
    2.0151   -0.8486    1.4105 H   0  0  0  0  0  0  0  0  0  0  0  0
    0.7241   -0.0029    2.3983 H   0  0  0  0  0  0  0  0  0  0  0  0
    1.9561    0.9210    1.5060 H   0  0  0  0  0  0  0  0  0  0  0  0
    0.7868    0.2726   -1.9285 H   0  0  0  0  0  0  0  0  0  0  0  0
    1.9304    1.1730   -0.8350 H   0  0  0  0  0  0  0  0  0  0  0  0
    3.1284   -0.5647   -1.3290 H   0  0  0  0  0  0  0  0  0  0  0  0
   -0.4130   -1.8213    1.0150 H   0  0  0  0  0  0  0  0  0  0  0  0
   -0.3741   -1.7410   -0.7843 H   0  0  0  0  0  0  0  0  0  0  0  0
   -3.4987   -0.7006    0.2691 H   0  0  0  0  0  0  0  0  0  0  0  0
   -2.4055    1.6195   -0.9734 H   0  0  0  0  0  0  0  0  0  0  0  0
   -1.2347    0.5574   -1.9185 H   0  0  0  0  0  0  0  0  0  0  0  0
   -0.8926    1.6474    1.0574 H   0  0  0  0  0  0  0  0  0  0  0  0
  1  2  1  0
  2  3  1  0
  3  4  1  0
  2  5  1  0
  5  6  1  0
  6  7  1  0
  6  8  1  0
  8  9  1  0
  9  2  1  0
  9  6  1  0
  1 10  1  0
  1 11  1  0
  1 12  1  0
  3 13  1  0
  3 14  1  0
  4 15  1  0
  5 16  1  0
  5 17  1  0
  7 18  1  0
  8 19  1  0
  8 20  1  0
  9 21  1  0
M  END
