
     RDKit          3D

 16 16  0  0  0  0  0  0  0  0999 V2000
   -1.1921   -0.4158    1.2774 C   0  0  0  0  0  0  0  0  0  0  0  0
   -0.3784    0.2606    0.1946 C   0  0  0  0  0  0  0  0  0  0  0  0
    0.7755   -0.5055   -0.4169 C   0  0  0  0  0  0  0  0  0  0  0  0
    0.8856   -0.1323   -1.7353 O   0  0  0  0  0  0  0  0  0  0  0  0
    2.0244   -0.1047    0.2807 C   0  0  0  0  0  0  0  0  0  0  0  0
    2.1818   -0.3236    1.4691 O   0  0  0  0  0  0  0  0  0  0  0  0
   -1.2037    1.1326   -0.7245 C   0  0  0  0  0  0  0  0  0  0  0  0
   -0.2525    1.6224    0.1657 O   0  0  0  0  0  0  0  0  0  0  0  0
   -1.1708   -1.5114    1.0601 H   0  0  0  0  0  0  0  0  0  0  0  0
   -0.8316   -0.1790    2.2910 H   0  0  0  0  0  0  0  0  0  0  0  0
   -2.2664   -0.1241    1.2463 H   0  0  0  0  0  0  0  0  0  0  0  0
    0.6671   -1.5989   -0.2932 H   0  0  0  0  0  0  0  0  0  0  0  0
    1.1293   -0.8877   -2.3032 H   0  0  0  0  0  0  0  0  0  0  0  0
    2.8345    0.3906   -0.2276 H   0  0  0  0  0  0  0  0  0  0  0  0
   -2.2456    1.3511   -0.4943 H   0  0  0  0  0  0  0  0  0  0  0  0
   -0.9571    1.0255   -1.7898 H   0  0  0  0  0  0  0  0  0  0  0  0
  1  2  1  0
  2  3  1  0
  3  4  1  0
  3  5  1  0
  5  6  2  0
  2  7  1  0
  7  8  1  0
  8  2  1  0
  1  9  1  0
  1 10  1  0
  1 11  1  0
  3 12  1  0
  4 13  1  0
  5 14  1  0
  7 15  1  0
  7 16  1  0
M  END
