
     RDKit          3D

 14 14  0  0  0  0  0  0  0  0999 V2000
    1.5633    0.1984   -0.0068 C   0  0  0  0  0  0  0  0  0  0  0  0
    0.0742    0.2164    0.1897 C   0  0  0  0  0  0  0  0  0  0  0  0
   -0.4591    1.5256    0.6216 C   0  0  0  0  0  0  0  0  0  0  0  0
   -0.1938    2.5054   -0.0275 O   0  0  0  0  0  0  0  0  0  0  0  0
   -0.2954   -0.8529    1.0151 O   0  0  0  0  0  0  0  0  0  0  0  0
   -1.0513   -1.4318   -0.0037 C   0  0  0  0  0  0  0  0  0  0  0  0
   -0.7376   -0.3112   -0.9261 C   0  0  0  0  0  0  0  0  0  0  0  0
   -1.0821   -0.0834   -2.0666 O   0  0  0  0  0  0  0  0  0  0  0  0
    2.0146    0.9455    0.6885 H   0  0  0  0  0  0  0  0  0  0  0  0
    1.8480    0.4920   -1.0361 H   0  0  0  0  0  0  0  0  0  0  0  0
    1.9980   -0.8153    0.1777 H   0  0  0  0  0  0  0  0  0  0  0  0
   -1.0660    1.5562    1.5016 H   0  0  0  0  0  0  0  0  0  0  0  0
   -2.1106   -1.5910    0.2236 H   0  0  0  0  0  0  0  0  0  0  0  0
   -0.5021   -2.3539   -0.3510 H   0  0  0  0  0  0  0  0  0  0  0  0
  1  2  1  0
  2  3  1  0
  3  4  2  0
  2  5  1  0
  5  6  1  0
  6  7  1  0
  7  8  2  0
  7  2  1  0
  1  9  1  0
  1 10  1  0
  1 11  1  0
  3 12  1  0
  6 13  1  0
  6 14  1  0
M  END
