
     RDKit          3D

 21 21  0  0  0  0  0  0  0  0999 V2000
   -0.7309    0.2357    1.4395 C   0  0  0  0  0  0  0  0  0  0  0  0
   -0.4259    0.4163   -0.0327 C   0  0  0  0  0  0  0  0  0  0  0  0
   -0.8730    1.7767   -0.5307 C   0  0  0  0  0  0  0  0  0  0  0  0
   -1.1688   -0.6481   -0.7426 C   0  0  0  0  0  0  0  0  0  0  0  0
   -0.3487   -1.6721   -0.8973 C   0  0  0  0  0  0  0  0  0  0  0  0
    1.0055   -1.3825   -0.3098 C   0  0  0  0  0  0  0  0  0  0  0  0
    1.1782   -1.8989    0.9431 O   0  0  0  0  0  0  0  0  0  0  0  0
    1.0033    0.1340   -0.3613 C   0  0  0  0  0  0  0  0  0  0  0  0
    1.9013    0.6903    0.5277 O   0  0  0  0  0  0  0  0  0  0  0  0
   -0.7973   -0.8568    1.6180 H   0  0  0  0  0  0  0  0  0  0  0  0
   -0.0310    0.7451    2.1015 H   0  0  0  0  0  0  0  0  0  0  0  0
   -1.7870    0.6136    1.5754 H   0  0  0  0  0  0  0  0  0  0  0  0
   -0.9070    1.7082   -1.6365 H   0  0  0  0  0  0  0  0  0  0  0  0
   -1.9014    1.9288   -0.1867 H   0  0  0  0  0  0  0  0  0  0  0  0
   -0.2036    2.5649   -0.1603 H   0  0  0  0  0  0  0  0  0  0  0  0
   -2.2146   -0.5939   -1.0794 H   0  0  0  0  0  0  0  0  0  0  0  0
   -0.6489   -2.6056   -1.3975 H   0  0  0  0  0  0  0  0  0  0  0  0
    1.7482   -1.7802   -1.0073 H   0  0  0  0  0  0  0  0  0  0  0  0
    1.6581   -1.2389    1.5046 H   0  0  0  0  0  0  0  0  0  0  0  0
    1.1888    0.4228   -1.4077 H   0  0  0  0  0  0  0  0  0  0  0  0
    2.3544    1.4406    0.0400 H   0  0  0  0  0  0  0  0  0  0  0  0
  1  2  1  0
  2  3  1  0
  2  4  1  0
  4  5  2  0
  5  6  1  0
  6  7  1  0
  6  8  1  0
  8  9  1  0
  8  2  1  0
  1 10  1  0
  1 11  1  0
  1 12  1  0
  3 13  1  0
  3 14  1  0
  3 15  1  0
  4 16  1  0
  5 17  1  0
  6 18  1  0
  7 19  1  0
  8 20  1  0
  9 21  1  0
M  END
