
     RDKit          3D

 25 26  0  0  0  0  0  0  0  0999 V2000
    1.6261    0.2715    1.2608 C   0  0  0  0  0  0  0  0  0  0  0  0
    0.8838    0.0125   -0.0033 C   0  0  0  0  0  0  0  0  0  0  0  0
    1.8640   -0.0281   -1.1381 C   0  0  0  0  0  0  0  0  0  0  0  0
    0.1261   -1.3235    0.0495 C   0  0  0  0  0  0  0  0  0  0  0  0
   -1.2495   -0.9896   -0.4067 C   0  0  0  0  0  0  0  0  0  0  0  0
   -1.9451   -0.2712    0.7472 C   0  0  0  0  0  0  0  0  0  0  0  0
   -1.2274    1.0839    0.7939 C   0  0  0  0  0  0  0  0  0  0  0  0
   -0.1909    1.0167   -0.3080 C   0  0  0  0  0  0  0  0  0  0  0  0
   -1.0100    0.2107   -1.3351 C   0  0  0  0  0  0  0  0  0  0  0  0
    1.1929    1.0146    1.9253 H   0  0  0  0  0  0  0  0  0  0  0  0
    1.7071   -0.7151    1.8060 H   0  0  0  0  0  0  0  0  0  0  0  0
    2.7033    0.5454    1.0581 H   0  0  0  0  0  0  0  0  0  0  0  0
    2.8004   -0.5113   -0.7392 H   0  0  0  0  0  0  0  0  0  0  0  0
    2.1179    1.0173   -1.3992 H   0  0  0  0  0  0  0  0  0  0  0  0
    1.5458   -0.6422   -1.9878 H   0  0  0  0  0  0  0  0  0  0  0  0
    0.0847   -1.6367    1.1186 H   0  0  0  0  0  0  0  0  0  0  0  0
    0.6326   -2.0969   -0.5299 H   0  0  0  0  0  0  0  0  0  0  0  0
   -1.8261   -1.7708   -0.8534 H   0  0  0  0  0  0  0  0  0  0  0  0
   -1.8035   -0.8105    1.6998 H   0  0  0  0  0  0  0  0  0  0  0  0
   -2.9977   -0.1729    0.4697 H   0  0  0  0  0  0  0  0  0  0  0  0
   -1.9834    1.8408    0.4550 H   0  0  0  0  0  0  0  0  0  0  0  0
   -0.8199    1.3087    1.7751 H   0  0  0  0  0  0  0  0  0  0  0  0
    0.1394    1.9672   -0.6837 H   0  0  0  0  0  0  0  0  0  0  0  0
   -0.4171   -0.0520   -2.2033 H   0  0  0  0  0  0  0  0  0  0  0  0
   -1.9539    0.7317   -1.5714 H   0  0  0  0  0  0  0  0  0  0  0  0
  1  2  1  0
  2  3  1  0
  2  4  1  0
  4  5  1  0
  5  6  1  0
  6  7  1  0
  7  8  1  0
  8  9  1  0
  8  2  1  0
  9  5  1  0
  1 10  1  0
  1 11  1  0
  1 12  1  0
  3 13  1  0
  3 14  1  0
  3 15  1  0
  4 16  1  0
  4 17  1  0
  5 18  1  0
  6 19  1  0
  6 20  1  0
  7 21  1  0
  7 22  1  0
  8 23  1  0
  9 24  1  0
  9 25  1  0
M  END
