
     RDKit          3D

 17 18  0  0  0  0  0  0  0  0999 V2000
   -1.5095    1.0592    0.6448 C   0  0  0  0  0  0  0  0  0  0  0  0
   -0.7624    0.0195   -0.1363 C   0  0  0  0  0  0  0  0  0  0  0  0
    0.6179    0.3408   -0.6321 C   0  0  0  0  0  0  0  0  0  0  0  0
    1.7208    0.6857    0.2468 C   0  0  0  0  0  0  0  0  0  0  0  0
    1.6565   -0.7278   -0.2195 C   0  0  0  0  0  0  0  0  0  0  0  0
   -1.1905   -1.3732   -0.1924 C   0  0  0  0  0  0  0  0  0  0  0  0
   -1.5971   -0.5182   -1.2034 O   0  0  0  0  0  0  0  0  0  0  0  0
   -2.6049    0.9149    0.6182 H   0  0  0  0  0  0  0  0  0  0  0  0
   -1.2067    1.1277    1.7033 H   0  0  0  0  0  0  0  0  0  0  0  0
   -1.3069    2.0495    0.1608 H   0  0  0  0  0  0  0  0  0  0  0  0
    0.7017    0.6612   -1.7035 H   0  0  0  0  0  0  0  0  0  0  0  0
    2.5567    1.2906   -0.1696 H   0  0  0  0  0  0  0  0  0  0  0  0
    1.5606    0.8853    1.3269 H   0  0  0  0  0  0  0  0  0  0  0  0
    1.3783   -1.4643    0.5280 H   0  0  0  0  0  0  0  0  0  0  0  0
    2.3623   -1.0734   -0.9971 H   0  0  0  0  0  0  0  0  0  0  0  0
   -0.4446   -2.1254   -0.5053 H   0  0  0  0  0  0  0  0  0  0  0  0
   -1.9322   -1.7522    0.5304 H   0  0  0  0  0  0  0  0  0  0  0  0
  1  2  1  0
  2  3  1  0
  3  4  1  0
  4  5  1  0
  2  6  1  0
  6  7  1  0
  7  2  1  0
  5  3  1  0
  1  8  1  0
  1  9  1  0
  1 10  1  0
  3 11  1  0
  4 12  1  0
  4 13  1  0
  5 14  1  0
  5 15  1  0
  6 16  1  0
  6 17  1  0
M  END
