
     RDKit          3D

 19 20  0  0  0  0  0  0  0  0999 V2000
    1.6319   -1.1024   -0.6132 C   0  0  0  0  0  0  0  0  0  0  0  0
    0.5884   -0.1991    0.0051 C   0  0  0  0  0  0  0  0  0  0  0  0
   -0.7784   -0.7889    0.0203 C   0  0  0  0  0  0  0  0  0  0  0  0
   -1.9544   -0.1192    0.5606 C   0  0  0  0  0  0  0  0  0  0  0  0
   -1.7779   -0.2379   -0.9445 C   0  0  0  0  0  0  0  0  0  0  0  0
    0.5907    1.0296   -0.6926 O   0  0  0  0  0  0  0  0  0  0  0  0
    0.9984    1.8028    0.3938 C   0  0  0  0  0  0  0  0  0  0  0  0
    1.0145    0.5461    1.1920 C   0  0  0  0  0  0  0  0  0  0  0  0
    1.2943    0.3668    2.3630 O   0  0  0  0  0  0  0  0  0  0  0  0
    1.9982   -0.7235   -1.5923 H   0  0  0  0  0  0  0  0  0  0  0  0
    1.1601   -2.0990   -0.8252 H   0  0  0  0  0  0  0  0  0  0  0  0
    2.4633   -1.3011    0.0804 H   0  0  0  0  0  0  0  0  0  0  0  0
   -0.7737   -1.9156    0.1139 H   0  0  0  0  0  0  0  0  0  0  0  0
   -2.8024   -0.7361    0.9382 H   0  0  0  0  0  0  0  0  0  0  0  0
   -1.9364    0.8936    1.0109 H   0  0  0  0  0  0  0  0  0  0  0  0
   -2.3947   -0.9483   -1.5057 H   0  0  0  0  0  0  0  0  0  0  0  0
   -1.6130    0.7189   -1.4591 H   0  0  0  0  0  0  0  0  0  0  0  0
    0.2941    2.5615    0.7404 H   0  0  0  0  0  0  0  0  0  0  0  0
    1.9971    2.2518    0.2140 H   0  0  0  0  0  0  0  0  0  0  0  0
  1  2  1  0
  2  3  1  0
  3  4  1  0
  4  5  1  0
  2  6  1  0
  6  7  1  0
  7  8  1  0
  8  9  2  0
  8  2  1  0
  5  3  1  0
  1 10  1  0
  1 11  1  0
  1 12  1  0
  3 13  1  0
  4 14  1  0
  4 15  1  0
  5 16  1  0
  5 17  1  0
  7 18  1  0
  7 19  1  0
M  END
