
     RDKit          3D

 21 22  0  0  0  0  0  0  0  0999 V2000
   -1.5565    0.0885   -0.9419 C   0  0  0  0  0  0  0  0  0  0  0  0
   -0.9989   -0.4516    0.3601 C   0  0  0  0  0  0  0  0  0  0  0  0
   -1.9513   -1.3899    1.0272 C   0  0  0  0  0  0  0  0  0  0  0  0
   -2.3642   -1.0009    2.1164 O   0  0  0  0  0  0  0  0  0  0  0  0
    0.0058    0.2123    1.1301 C   0  0  0  0  0  0  0  0  0  0  0  0
    0.6203    1.4362    0.5482 C   0  0  0  0  0  0  0  0  0  0  0  0
    1.8500    0.9218   -0.1318 C   0  0  0  0  0  0  0  0  0  0  0  0
    1.4485   -0.4655   -0.5973 C   0  0  0  0  0  0  0  0  0  0  0  0
    0.4034   -0.9673    0.3260 C   0  0  0  0  0  0  0  0  0  0  0  0
   -1.9692    1.1308   -0.6409 H   0  0  0  0  0  0  0  0  0  0  0  0
   -2.4543   -0.4342   -1.3084 H   0  0  0  0  0  0  0  0  0  0  0  0
   -0.7678    0.2122   -1.6914 H   0  0  0  0  0  0  0  0  0  0  0  0
   -2.2114   -2.3135    0.5413 H   0  0  0  0  0  0  0  0  0  0  0  0
    0.1732    0.0621    2.2139 H   0  0  0  0  0  0  0  0  0  0  0  0
   -0.0415    1.9029   -0.2245 H   0  0  0  0  0  0  0  0  0  0  0  0
    0.8440    2.1418    1.3626 H   0  0  0  0  0  0  0  0  0  0  0  0
    2.6548    0.8716    0.6503 H   0  0  0  0  0  0  0  0  0  0  0  0
    2.0906    1.5933   -0.9640 H   0  0  0  0  0  0  0  0  0  0  0  0
    1.2347   -0.5210   -1.6643 H   0  0  0  0  0  0  0  0  0  0  0  0
    2.3886   -1.0782   -0.4719 H   0  0  0  0  0  0  0  0  0  0  0  0
    0.6014   -1.9514    0.8015 H   0  0  0  0  0  0  0  0  0  0  0  0
  1  2  1  0
  2  3  1  0
  3  4  2  0
  2  5  1  0
  5  6  1  0
  6  7  1  0
  7  8  1  0
  8  9  1  0
  9  2  1  0
  9  5  1  0
  1 10  1  0
  1 11  1  0
  1 12  1  0
  3 13  1  0
  5 14  1  0
  6 15  1  0
  6 16  1  0
  7 17  1  0
  7 18  1  0
  8 19  1  0
  8 20  1  0
  9 21  1  0
M  END
