
     RDKit          3D

 21 22  0  0  0  0  0  0  0  0999 V2000
    1.5052    0.1346    1.0732 C   0  0  0  0  0  0  0  0  0  0  0  0
    0.7236   -0.0473   -0.2265 C   0  0  0  0  0  0  0  0  0  0  0  0
    1.4359   -0.9591   -1.1505 C   0  0  0  0  0  0  0  0  0  0  0  0
    2.5562   -0.6864   -1.5217 O   0  0  0  0  0  0  0  0  0  0  0  0
    0.4385    1.3319   -0.7823 C   0  0  0  0  0  0  0  0  0  0  0  0
   -0.9219    1.1590   -0.1298 C   0  0  0  0  0  0  0  0  0  0  0  0
   -1.8013    0.2530   -0.8861 C   0  0  0  0  0  0  0  0  0  0  0  0
   -0.7277   -0.3077   -0.0654 C   0  0  0  0  0  0  0  0  0  0  0  0
   -1.1249   -1.1445    1.0986 C   0  0  0  0  0  0  0  0  0  0  0  0
    2.4821    0.5969    0.7855 H   0  0  0  0  0  0  0  0  0  0  0  0
    0.9500    0.9082    1.6520 H   0  0  0  0  0  0  0  0  0  0  0  0
    1.6244   -0.7845    1.6308 H   0  0  0  0  0  0  0  0  0  0  0  0
    0.9681   -1.8679   -1.4994 H   0  0  0  0  0  0  0  0  0  0  0  0
    0.4114    1.2899   -1.8966 H   0  0  0  0  0  0  0  0  0  0  0  0
    1.0493    2.1460   -0.3962 H   0  0  0  0  0  0  0  0  0  0  0  0
   -1.2205    1.7616    0.7142 H   0  0  0  0  0  0  0  0  0  0  0  0
   -2.8269    0.1579   -0.5172 H   0  0  0  0  0  0  0  0  0  0  0  0
   -1.7445    0.3386   -1.9953 H   0  0  0  0  0  0  0  0  0  0  0  0
   -0.2621   -1.5623    1.6726 H   0  0  0  0  0  0  0  0  0  0  0  0
   -1.8708   -0.6601    1.7561 H   0  0  0  0  0  0  0  0  0  0  0  0
   -1.6442   -2.0578    0.6839 H   0  0  0  0  0  0  0  0  0  0  0  0
  1  2  1  0
  2  3  1  0
  3  4  2  0
  2  5  1  0
  5  6  1  0
  6  7  1  0
  7  8  1  0
  8  9  1  0
  8  2  1  0
  8  6  1  0
  1 10  1  0
  1 11  1  0
  1 12  1  0
  3 13  1  0
  5 14  1  0
  5 15  1  0
  6 16  1  0
  7 17  1  0
  7 18  1  0
  9 19  1  0
  9 20  1  0
  9 21  1  0
M  END
