
     RDKit          3D

 21 22  0  0  0  0  0  0  0  0999 V2000
   -2.4691   -0.3302   -0.4231 C   0  0  0  0  0  0  0  0  0  0  0  0
   -1.3567    0.1565    0.4631 C   0  0  0  0  0  0  0  0  0  0  0  0
   -1.3729    1.5420    0.6646 O   0  0  0  0  0  0  0  0  0  0  0  0
   -0.8605   -0.7559    1.5114 C   0  0  0  0  0  0  0  0  0  0  0  0
    0.0100   -0.4289    0.3594 C   0  0  0  0  0  0  0  0  0  0  0  0
    0.1900   -1.3158   -0.6898 O   0  0  0  0  0  0  0  0  0  0  0  0
    1.2012    0.4442    0.6518 C   0  0  0  0  0  0  0  0  0  0  0  0
    2.5613   -0.1966    0.5325 C   0  0  0  0  0  0  0  0  0  0  0  0
    2.1109    0.8780   -0.4331 C   0  0  0  0  0  0  0  0  0  0  0  0
   -2.8255    0.4488   -1.1272 H   0  0  0  0  0  0  0  0  0  0  0  0
   -3.3268   -0.5884    0.2444 H   0  0  0  0  0  0  0  0  0  0  0  0
   -2.1932   -1.2755   -0.9439 H   0  0  0  0  0  0  0  0  0  0  0  0
   -1.3792    1.9682   -0.2346 H   0  0  0  0  0  0  0  0  0  0  0  0
   -0.5868   -0.3856    2.5236 H   0  0  0  0  0  0  0  0  0  0  0  0
   -1.2922   -1.7809    1.5436 H   0  0  0  0  0  0  0  0  0  0  0  0
    0.0354   -0.7831   -1.5337 H   0  0  0  0  0  0  0  0  0  0  0  0
    1.0871    1.0975    1.5393 H   0  0  0  0  0  0  0  0  0  0  0  0
    2.6605   -1.1958    0.0550 H   0  0  0  0  0  0  0  0  0  0  0  0
    3.3516    0.0825    1.2642 H   0  0  0  0  0  0  0  0  0  0  0  0
    2.6380    1.8314   -0.3589 H   0  0  0  0  0  0  0  0  0  0  0  0
    1.8167    0.5874   -1.4611 H   0  0  0  0  0  0  0  0  0  0  0  0
  1  2  1  0
  2  3  1  0
  2  4  1  0
  4  5  1  0
  5  6  1  0
  5  7  1  0
  7  8  1  0
  8  9  1  0
  5  2  1  0
  9  7  1  0
  1 10  1  0
  1 11  1  0
  1 12  1  0
  3 13  1  0
  4 14  1  0
  4 15  1  0
  6 16  1  0
  7 17  1  0
  8 18  1  0
  8 19  1  0
  9 20  1  0
  9 21  1  0
M  END
