
     RDKit          3D

 19 19  0  0  0  0  0  0  0  0999 V2000
   -0.9175    0.2791   -1.4465 C   0  0  0  0  0  0  0  0  0  0  0  0
   -0.7115    0.3016    0.0350 C   0  0  0  0  0  0  0  0  0  0  0  0
   -1.9189   -0.1076    0.8700 C   0  0  0  0  0  0  0  0  0  0  0  0
    0.0792    1.2709    0.6361 O   0  0  0  0  0  0  0  0  0  0  0  0
    0.6740    0.0135    0.5217 C   0  0  0  0  0  0  0  0  0  0  0  0
    0.7515   -0.8334    1.7490 C   0  0  0  0  0  0  0  0  0  0  0  0
   -0.1858   -0.8117    2.5112 O   0  0  0  0  0  0  0  0  0  0  0  0
    1.8517    0.0052   -0.4080 C   0  0  0  0  0  0  0  0  0  0  0  0
    1.5751    0.3864   -1.6847 O   0  0  0  0  0  0  0  0  0  0  0  0
   -0.5576    1.1360   -2.0043 H   0  0  0  0  0  0  0  0  0  0  0  0
   -2.0265    0.2057   -1.6913 H   0  0  0  0  0  0  0  0  0  0  0  0
   -0.4632   -0.6393   -1.8551 H   0  0  0  0  0  0  0  0  0  0  0  0
   -1.9535   -1.1873    1.0899 H   0  0  0  0  0  0  0  0  0  0  0  0
   -1.9524    0.4829    1.8025 H   0  0  0  0  0  0  0  0  0  0  0  0
   -2.8493    0.1015    0.2737 H   0  0  0  0  0  0  0  0  0  0  0  0
    1.6169   -1.4487    1.9545 H   0  0  0  0  0  0  0  0  0  0  0  0
    2.3124   -1.0255   -0.3705 H   0  0  0  0  0  0  0  0  0  0  0  0
    2.6214    0.6917    0.0211 H   0  0  0  0  0  0  0  0  0  0  0  0
    2.0538    1.1791   -2.0043 H   0  0  0  0  0  0  0  0  0  0  0  0
  1  2  1  0
  2  3  1  0
  2  4  1  0
  4  5  1  0
  5  6  1  0
  6  7  2  0
  5  8  1  0
  8  9  1  0
  5  2  1  0
  1 10  1  0
  1 11  1  0
  1 12  1  0
  3 13  1  0
  3 14  1  0
  3 15  1  0
  6 16  1  0
  8 17  1  0
  8 18  1  0
  9 19  1  0
M  END
