
     RDKit          3D

 19 19  0  0  0  0  0  0  0  0999 V2000
   -0.7931    1.1073   -1.0741 C   0  0  0  0  0  0  0  0  0  0  0  0
   -0.1661    0.1334   -0.1316 C   0  0  0  0  0  0  0  0  0  0  0  0
   -1.1139   -1.0013    0.2299 C   0  0  0  0  0  0  0  0  0  0  0  0
   -2.2655   -0.5106    0.8418 O   0  0  0  0  0  0  0  0  0  0  0  0
    0.3017    0.7276    1.1231 C   0  0  0  0  0  0  0  0  0  0  0  0
    1.5698    0.4294    1.3625 C   0  0  0  0  0  0  0  0  0  0  0  0
    2.0846   -0.3997    0.2864 C   0  0  0  0  0  0  0  0  0  0  0  0
    3.1791   -0.9884    0.2826 O   0  0  0  0  0  0  0  0  0  0  0  0
    1.0838   -0.4099   -0.7773 C   0  0  0  0  0  0  0  0  0  0  0  0
   -0.9586    2.1235   -0.6087 H   0  0  0  0  0  0  0  0  0  0  0  0
   -0.1814    1.3032   -1.9880 H   0  0  0  0  0  0  0  0  0  0  0  0
   -1.7730    0.7142   -1.4733 H   0  0  0  0  0  0  0  0  0  0  0  0
   -0.6397   -1.7114    0.9310 H   0  0  0  0  0  0  0  0  0  0  0  0
   -1.3534   -1.5967   -0.6885 H   0  0  0  0  0  0  0  0  0  0  0  0
   -3.0803   -0.8606    0.3803 H   0  0  0  0  0  0  0  0  0  0  0  0
   -0.2935    1.3326    1.7813 H   0  0  0  0  0  0  0  0  0  0  0  0
    2.1509    0.7530    2.2348 H   0  0  0  0  0  0  0  0  0  0  0  0
    1.4071    0.2793   -1.5621 H   0  0  0  0  0  0  0  0  0  0  0  0
    0.8415   -1.4248   -1.1502 H   0  0  0  0  0  0  0  0  0  0  0  0
  1  2  1  0
  2  3  1  0
  3  4  1  0
  2  5  1  0
  5  6  2  0
  6  7  1  0
  7  8  2  0
  7  9  1  0
  9  2  1  0
  1 10  1  0
  1 11  1  0
  1 12  1  0
  3 13  1  0
  3 14  1  0
  4 15  1  0
  5 16  1  0
  6 17  1  0
  9 18  1  0
  9 19  1  0
M  END
