
     RDKit          3D

 23 24  0  0  0  0  0  0  0  0999 V2000
   -0.9378    1.5903   -0.6463 C   0  0  0  0  0  0  0  0  0  0  0  0
   -0.4543    0.3281   -0.0087 C   0  0  0  0  0  0  0  0  0  0  0  0
   -1.5576   -0.1852    0.8910 C   0  0  0  0  0  0  0  0  0  0  0  0
   -2.6670   -0.4138    0.0809 O   0  0  0  0  0  0  0  0  0  0  0  0
   -0.0865   -0.7388   -1.0567 C   0  0  0  0  0  0  0  0  0  0  0  0
    1.3591   -0.9430   -0.6782 C   0  0  0  0  0  0  0  0  0  0  0  0
    1.8290    0.5064   -0.4762 C   0  0  0  0  0  0  0  0  0  0  0  0
    0.8438    0.4391    0.7011 C   0  0  0  0  0  0  0  0  0  0  0  0
    1.3493   -0.9966    0.8231 C   0  0  0  0  0  0  0  0  0  0  0  0
   -1.6762    1.3145   -1.4383 H   0  0  0  0  0  0  0  0  0  0  0  0
   -0.1665    2.2407   -1.0485 H   0  0  0  0  0  0  0  0  0  0  0  0
   -1.5145    2.1526    0.1278 H   0  0  0  0  0  0  0  0  0  0  0  0
   -1.2443   -1.0536    1.4593 H   0  0  0  0  0  0  0  0  0  0  0  0
   -1.8081    0.6410    1.5839 H   0  0  0  0  0  0  0  0  0  0  0  0
   -2.8300   -1.3790   -0.0881 H   0  0  0  0  0  0  0  0  0  0  0  0
   -0.6191   -1.6843   -0.8432 H   0  0  0  0  0  0  0  0  0  0  0  0
   -0.2182   -0.3685   -2.0719 H   0  0  0  0  0  0  0  0  0  0  0  0
    1.9753   -1.5881   -1.2400 H   0  0  0  0  0  0  0  0  0  0  0  0
    2.8408    0.6119   -0.0917 H   0  0  0  0  0  0  0  0  0  0  0  0
    1.5053    1.1046   -1.3193 H   0  0  0  0  0  0  0  0  0  0  0  0
    0.9966    1.1010    1.5099 H   0  0  0  0  0  0  0  0  0  0  0  0
    2.3987   -0.9787    1.2172 H   0  0  0  0  0  0  0  0  0  0  0  0
    0.6824   -1.7006    1.3039 H   0  0  0  0  0  0  0  0  0  0  0  0
  1  2  1  0
  2  3  1  0
  3  4  1  0
  2  5  1  0
  5  6  1  0
  6  7  1  0
  7  8  1  0
  8  9  1  0
  8  2  1  0
  9  6  1  0
  1 10  1  0
  1 11  1  0
  1 12  1  0
  3 13  1  0
  3 14  1  0
  4 15  1  0
  5 16  1  0
  5 17  1  0
  6 18  1  0
  7 19  1  0
  7 20  1  0
  8 21  1  0
  9 22  1  0
  9 23  1  0
M  END
