
     RDKit          3D

 19 19  0  0  0  0  0  0  0  0999 V2000
   -1.9353   -0.0565   -0.4901 C   0  0  0  0  0  0  0  0  0  0  0  0
   -0.5910    0.3471    0.0515 C   0  0  0  0  0  0  0  0  0  0  0  0
   -0.7122    1.7282    0.6528 C   0  0  0  0  0  0  0  0  0  0  0  0
   -0.1903   -0.5893    1.0040 O   0  0  0  0  0  0  0  0  0  0  0  0
    0.4220   -1.5539    0.1912 C   0  0  0  0  0  0  0  0  0  0  0  0
    1.2824   -0.6314   -0.6825 C   0  0  0  0  0  0  0  0  0  0  0  0
    2.4306   -0.0975    0.0825 C   0  0  0  0  0  0  0  0  0  0  0  0
    3.3465   -0.8643    0.3912 O   0  0  0  0  0  0  0  0  0  0  0  0
    0.3665    0.3872   -0.9276 O   0  0  0  0  0  0  0  0  0  0  0  0
   -2.4118   -0.7805    0.2146 H   0  0  0  0  0  0  0  0  0  0  0  0
   -2.6434    0.8044   -0.5446 H   0  0  0  0  0  0  0  0  0  0  0  0
   -1.8671   -0.4602   -1.5135 H   0  0  0  0  0  0  0  0  0  0  0  0
    0.0481    2.4188    0.2411 H   0  0  0  0  0  0  0  0  0  0  0  0
   -0.5952    1.6340    1.7589 H   0  0  0  0  0  0  0  0  0  0  0  0
   -1.7115    2.1746    0.4916 H   0  0  0  0  0  0  0  0  0  0  0  0
    1.0236   -2.2718    0.7520 H   0  0  0  0  0  0  0  0  0  0  0  0
   -0.3532   -1.9778   -0.4459 H   0  0  0  0  0  0  0  0  0  0  0  0
    1.6188   -1.1394   -1.5920 H   0  0  0  0  0  0  0  0  0  0  0  0
    2.4725    0.9282    0.3647 H   0  0  0  0  0  0  0  0  0  0  0  0
  1  2  1  0
  2  3  1  0
  2  4  1  0
  4  5  1  0
  5  6  1  0
  6  7  1  0
  7  8  2  0
  6  9  1  0
  9  2  1  0
  1 10  1  0
  1 11  1  0
  1 12  1  0
  3 13  1  0
  3 14  1  0
  3 15  1  0
  5 16  1  0
  5 17  1  0
  6 18  1  0
  7 19  1  0
M  END
