
     RDKit          3D

 21 22  0  0  0  0  0  0  0  0999 V2000
   -1.4525   -0.3229    1.3265 C   0  0  0  0  0  0  0  0  0  0  0  0
   -0.5328    0.0448    0.1752 C   0  0  0  0  0  0  0  0  0  0  0  0
   -1.1930    1.0685   -0.6365 C   0  0  0  0  0  0  0  0  0  0  0  0
   -0.2840   -1.2813   -0.5773 C   0  0  0  0  0  0  0  0  0  0  0  0
    1.1875   -1.2643   -0.7925 C   0  0  0  0  0  0  0  0  0  0  0  0
    1.9054   -2.2039   -0.9648 O   0  0  0  0  0  0  0  0  0  0  0  0
    1.5146    0.1360   -0.7412 C   0  0  0  0  0  0  0  0  0  0  0  0
    1.9412    1.0475    0.2432 C   0  0  0  0  0  0  0  0  0  0  0  0
    0.8254    0.3160    0.6767 C   0  0  0  0  0  0  0  0  0  0  0  0
   -2.4763   -0.5608    0.9275 H   0  0  0  0  0  0  0  0  0  0  0  0
   -1.4952    0.4621    2.0978 H   0  0  0  0  0  0  0  0  0  0  0  0
   -1.1159   -1.2713    1.8133 H   0  0  0  0  0  0  0  0  0  0  0  0
   -0.5601    1.8671   -1.0571 H   0  0  0  0  0  0  0  0  0  0  0  0
   -1.9595    1.5892   -0.0255 H   0  0  0  0  0  0  0  0  0  0  0  0
   -1.7342    0.5915   -1.4784 H   0  0  0  0  0  0  0  0  0  0  0  0
   -0.6347   -2.1476   -0.0253 H   0  0  0  0  0  0  0  0  0  0  0  0
   -0.7527   -1.2405   -1.5816 H   0  0  0  0  0  0  0  0  0  0  0  0
    0.9598    0.6356   -1.6037 H   0  0  0  0  0  0  0  0  0  0  0  0
    2.9566    0.8779    0.7023 H   0  0  0  0  0  0  0  0  0  0  0  0
    1.8224    2.1538    0.0887 H   0  0  0  0  0  0  0  0  0  0  0  0
    1.0779   -0.4973    1.4327 H   0  0  0  0  0  0  0  0  0  0  0  0
  1  2  1  0
  2  3  1  0
  2  4  1  0
  4  5  1  0
  5  6  2  0
  5  7  1  0
  7  8  1  0
  8  9  1  0
  9  2  1  0
  9  7  1  0
  1 10  1  0
  1 11  1  0
  1 12  1  0
  3 13  1  0
  3 14  1  0
  3 15  1  0
  4 16  1  0
  4 17  1  0
  7 18  1  0
  8 19  1  0
  8 20  1  0
  9 21  1  0
M  END
