
     RDKit          3D

 23 25  0  0  0  0  0  0  0  0999 V2000
   -1.4007   -0.7615    0.9276 C   0  0  0  0  0  0  0  0  0  0  0  0
   -0.7445    0.1699   -0.0649 C   0  0  0  0  0  0  0  0  0  0  0  0
   -1.7193    1.2764   -0.3944 C   0  0  0  0  0  0  0  0  0  0  0  0
   -0.3706   -0.6475   -1.2766 C   0  0  0  0  0  0  0  0  0  0  0  0
    1.1219   -0.7641   -1.1640 C   0  0  0  0  0  0  0  0  0  0  0  0
    1.8078   -0.8337    0.1360 C   0  0  0  0  0  0  0  0  0  0  0  0
    1.3200   -0.1589    1.3641 C   0  0  0  0  0  0  0  0  0  0  0  0
    0.5128    0.7918    0.4727 C   0  0  0  0  0  0  0  0  0  0  0  0
    1.5156    0.5128   -0.5866 C   0  0  0  0  0  0  0  0  0  0  0  0
   -2.3406   -1.1275    0.4301 H   0  0  0  0  0  0  0  0  0  0  0  0
   -0.7791   -1.6676    1.0778 H   0  0  0  0  0  0  0  0  0  0  0  0
   -1.6985   -0.2620    1.8561 H   0  0  0  0  0  0  0  0  0  0  0  0
   -1.3418    1.9303   -1.1809 H   0  0  0  0  0  0  0  0  0  0  0  0
   -1.8210    1.8888    0.5372 H   0  0  0  0  0  0  0  0  0  0  0  0
   -2.7457    0.8897   -0.5987 H   0  0  0  0  0  0  0  0  0  0  0  0
   -0.5756   -0.0092   -2.1803 H   0  0  0  0  0  0  0  0  0  0  0  0
   -0.8817   -1.6148   -1.3295 H   0  0  0  0  0  0  0  0  0  0  0  0
    1.6355   -1.1072   -2.0557 H   0  0  0  0  0  0  0  0  0  0  0  0
    2.8592   -1.1879    0.1050 H   0  0  0  0  0  0  0  0  0  0  0  0
    2.1129    0.4601    1.8702 H   0  0  0  0  0  0  0  0  0  0  0  0
    0.7323   -0.7326    2.0796 H   0  0  0  0  0  0  0  0  0  0  0  0
    0.4591    1.8212    0.8199 H   0  0  0  0  0  0  0  0  0  0  0  0
    2.3420    1.1333   -0.8447 H   0  0  0  0  0  0  0  0  0  0  0  0
  1  2  1  0
  2  3  1  0
  2  4  1  0
  4  5  1  0
  5  6  1  0
  6  7  1  0
  7  8  1  0
  8  9  1  0
  8  2  1  0
  9  5  1  0
  9  6  1  0
  1 10  1  0
  1 11  1  0
  1 12  1  0
  3 13  1  0
  3 14  1  0
  3 15  1  0
  4 16  1  0
  4 17  1  0
  5 18  1  0
  6 19  1  0
  7 20  1  0
  7 21  1  0
  8 22  1  0
  9 23  1  0
M  END
