
     RDKit          3D

 21 22  0  0  0  0  0  0  0  0999 V2000
    0.1136    0.0613    1.8286 C   0  0  0  0  0  0  0  0  0  0  0  0
   -0.0381   -0.2087    0.3520 C   0  0  0  0  0  0  0  0  0  0  0  0
    1.3123   -0.1810   -0.3183 C   0  0  0  0  0  0  0  0  0  0  0  0
    2.1858    0.9612   -0.3279 C   0  0  0  0  0  0  0  0  0  0  0  0
    1.4775    0.4473   -1.5281 O   0  0  0  0  0  0  0  0  0  0  0  0
   -0.7541   -1.5080    0.0441 C   0  0  0  0  0  0  0  0  0  0  0  0
   -1.4593   -0.7753   -1.0895 C   0  0  0  0  0  0  0  0  0  0  0  0
   -1.1435    0.5197   -0.3311 C   0  0  0  0  0  0  0  0  0  0  0  0
   -0.8256    1.5432   -1.1708 O   0  0  0  0  0  0  0  0  0  0  0  0
   -0.6137   -0.5575    2.3859 H   0  0  0  0  0  0  0  0  0  0  0  0
   -0.0028    1.1450    2.0187 H   0  0  0  0  0  0  0  0  0  0  0  0
    1.1282   -0.2172    2.1768 H   0  0  0  0  0  0  0  0  0  0  0  0
    1.8067   -1.1853   -0.2549 H   0  0  0  0  0  0  0  0  0  0  0  0
    3.2901    0.8038   -0.3985 H   0  0  0  0  0  0  0  0  0  0  0  0
    1.9084    2.0030   -0.1948 H   0  0  0  0  0  0  0  0  0  0  0  0
   -0.1103   -2.3419   -0.2723 H   0  0  0  0  0  0  0  0  0  0  0  0
   -1.4894   -1.8055    0.8317 H   0  0  0  0  0  0  0  0  0  0  0  0
   -0.8845   -0.8841   -2.0148 H   0  0  0  0  0  0  0  0  0  0  0  0
   -2.5415   -0.9196   -1.1461 H   0  0  0  0  0  0  0  0  0  0  0  0
   -1.9568    0.7681    0.3825 H   0  0  0  0  0  0  0  0  0  0  0  0
   -1.4031    2.3316   -0.9730 H   0  0  0  0  0  0  0  0  0  0  0  0
  1  2  1  0
  2  3  1  0
  3  4  1  0
  4  5  1  0
  2  6  1  0
  6  7  1  0
  7  8  1  0
  8  9  1  0
  8  2  1  0
  5  3  1  0
  1 10  1  0
  1 11  1  0
  1 12  1  0
  3 13  1  0
  4 14  1  0
  4 15  1  0
  6 16  1  0
  6 17  1  0
  7 18  1  0
  7 19  1  0
  8 20  1  0
  9 21  1  0
M  END
