
     RDKit          3D

 23 23  0  0  0  0  0  0  0  0999 V2000
    2.0944   -0.2584   -0.9014 C   0  0  0  0  0  0  0  0  0  0  0  0
    1.2728   -0.0755    0.3445 C   0  0  0  0  0  0  0  0  0  0  0  0
    2.0458   -0.5093    1.4352 O   0  0  0  0  0  0  0  0  0  0  0  0
    0.7686    1.3234    0.5178 C   0  0  0  0  0  0  0  0  0  0  0  0
   -0.5958    1.2472    0.7862 O   0  0  0  0  0  0  0  0  0  0  0  0
   -1.0787    0.1141    0.1769 C   0  0  0  0  0  0  0  0  0  0  0  0
   -1.5130    0.4058   -1.2269 C   0  0  0  0  0  0  0  0  0  0  0  0
   -2.2913   -0.4691    0.9068 C   0  0  0  0  0  0  0  0  0  0  0  0
    0.0266   -0.9118    0.2584 C   0  0  0  0  0  0  0  0  0  0  0  0
    3.1271   -0.6266   -0.6873 H   0  0  0  0  0  0  0  0  0  0  0  0
    2.1860    0.6466   -1.5163 H   0  0  0  0  0  0  0  0  0  0  0  0
    1.6298   -1.0359   -1.5599 H   0  0  0  0  0  0  0  0  0  0  0  0
    2.8652   -0.0030    1.5478 H   0  0  0  0  0  0  0  0  0  0  0  0
    1.2712    1.8217    1.3819 H   0  0  0  0  0  0  0  0  0  0  0  0
    0.9711    1.9719   -0.3584 H   0  0  0  0  0  0  0  0  0  0  0  0
   -1.5033    1.4957   -1.4387 H   0  0  0  0  0  0  0  0  0  0  0  0
   -2.5683    0.0759   -1.4349 H   0  0  0  0  0  0  0  0  0  0  0  0
   -0.8873   -0.1418   -1.9540 H   0  0  0  0  0  0  0  0  0  0  0  0
   -3.2241    0.0659    0.6384 H   0  0  0  0  0  0  0  0  0  0  0  0
   -2.1197   -0.5643    1.9847 H   0  0  0  0  0  0  0  0  0  0  0  0
   -2.4134   -1.4998    0.4616 H   0  0  0  0  0  0  0  0  0  0  0  0
    0.0439   -1.6095   -0.5873 H   0  0  0  0  0  0  0  0  0  0  0  0
   -0.1077   -1.4631    1.2246 H   0  0  0  0  0  0  0  0  0  0  0  0
  1  2  1  0
  2  3  1  0
  2  4  1  0
  4  5  1  0
  5  6  1  0
  6  7  1  0
  6  8  1  0
  6  9  1  0
  9  2  1  0
  1 10  1  0
  1 11  1  0
  1 12  1  0
  3 13  1  0
  4 14  1  0
  4 15  1  0
  7 16  1  0
  7 17  1  0
  7 18  1  0
  8 19  1  0
  8 20  1  0
  8 21  1  0
  9 22  1  0
  9 23  1  0
M  END
