
     RDKit          3D

 23 24  0  0  0  0  0  0  0  0999 V2000
    0.8716   -1.2715   -0.8904 C   0  0  0  0  0  0  0  0  0  0  0  0
    0.5138    0.0188   -0.2075 C   0  0  0  0  0  0  0  0  0  0  0  0
    1.5012    0.3443    0.8725 C   0  0  0  0  0  0  0  0  0  0  0  0
    2.7767    0.4643    0.2794 O   0  0  0  0  0  0  0  0  0  0  0  0
    0.2964    1.2007   -1.1312 C   0  0  0  0  0  0  0  0  0  0  0  0
   -1.2170    1.0720   -0.9062 C   0  0  0  0  0  0  0  0  0  0  0  0
   -0.9220    0.0798    0.1395 C   0  0  0  0  0  0  0  0  0  0  0  0
   -1.5027   -0.0388    1.4452 C   0  0  0  0  0  0  0  0  0  0  0  0
   -1.8028   -1.0573    0.3313 C   0  0  0  0  0  0  0  0  0  0  0  0
    0.2373   -1.4374   -1.7634 H   0  0  0  0  0  0  0  0  0  0  0  0
    0.7160   -2.0836   -0.1270 H   0  0  0  0  0  0  0  0  0  0  0  0
    1.9551   -1.2441   -1.1291 H   0  0  0  0  0  0  0  0  0  0  0  0
    1.4767   -0.4532    1.6354 H   0  0  0  0  0  0  0  0  0  0  0  0
    1.2344    1.2984    1.4046 H   0  0  0  0  0  0  0  0  0  0  0  0
    3.4757    0.2486    0.9341 H   0  0  0  0  0  0  0  0  0  0  0  0
    0.6144    1.0614   -2.1723 H   0  0  0  0  0  0  0  0  0  0  0  0
    0.6128    2.1829   -0.6724 H   0  0  0  0  0  0  0  0  0  0  0  0
   -1.7255    1.9978   -0.6521 H   0  0  0  0  0  0  0  0  0  0  0  0
   -1.6623    0.5767   -1.8162 H   0  0  0  0  0  0  0  0  0  0  0  0
   -2.3492    0.5411    1.8387 H   0  0  0  0  0  0  0  0  0  0  0  0
   -0.8855   -0.4895    2.2713 H   0  0  0  0  0  0  0  0  0  0  0  0
   -2.8448   -0.9550   -0.0869 H   0  0  0  0  0  0  0  0  0  0  0  0
   -1.3704   -2.0566    0.4026 H   0  0  0  0  0  0  0  0  0  0  0  0
  1  2  1  0
  2  3  1  0
  3  4  1  0
  2  5  1  0
  5  6  1  0
  6  7  1  0
  7  8  1  0
  8  9  1  0
  7  2  1  0
  9  7  1  0
  1 10  1  0
  1 11  1  0
  1 12  1  0
  3 13  1  0
  3 14  1  0
  4 15  1  0
  5 16  1  0
  5 17  1  0
  6 18  1  0
  6 19  1  0
  8 20  1  0
  8 21  1  0
  9 22  1  0
  9 23  1  0
M  END
