
     RDKit          3D

 25 25  0  0  0  0  0  0  0  0999 V2000
    1.4650   -1.2738    0.2491 C   0  0  0  0  0  0  0  0  0  0  0  0
    0.7327    0.0009    0.0237 C   0  0  0  0  0  0  0  0  0  0  0  0
    1.2653    1.0387    0.9486 C   0  0  0  0  0  0  0  0  0  0  0  0
    1.0024    0.4437   -1.4151 C   0  0  0  0  0  0  0  0  0  0  0  0
   -0.2097    0.7831   -1.9622 O   0  0  0  0  0  0  0  0  0  0  0  0
   -1.0883    1.0636   -0.9146 C   0  0  0  0  0  0  0  0  0  0  0  0
   -0.7512   -0.0923    0.0405 C   0  0  0  0  0  0  0  0  0  0  0  0
   -1.3225   -1.3228   -0.5545 C   0  0  0  0  0  0  0  0  0  0  0  0
   -1.3902    0.2261    1.3498 C   0  0  0  0  0  0  0  0  0  0  0  0
    1.1118   -2.1337   -0.3207 H   0  0  0  0  0  0  0  0  0  0  0  0
    2.5323   -1.1011   -0.0846 H   0  0  0  0  0  0  0  0  0  0  0  0
    1.5722   -1.5221    1.3458 H   0  0  0  0  0  0  0  0  0  0  0  0
    1.0860    0.7873    1.9944 H   0  0  0  0  0  0  0  0  0  0  0  0
    2.3840    1.0613    0.8144 H   0  0  0  0  0  0  0  0  0  0  0  0
    0.8843    2.0574    0.7628 H   0  0  0  0  0  0  0  0  0  0  0  0
    1.3986   -0.4229   -2.0151 H   0  0  0  0  0  0  0  0  0  0  0  0
    1.6855    1.2982   -1.4636 H   0  0  0  0  0  0  0  0  0  0  0  0
   -0.8079    2.0311   -0.4315 H   0  0  0  0  0  0  0  0  0  0  0  0
   -2.1271    1.0247   -1.2405 H   0  0  0  0  0  0  0  0  0  0  0  0
   -2.4149   -1.3352   -0.3545 H   0  0  0  0  0  0  0  0  0  0  0  0
   -0.9205   -2.2702   -0.1765 H   0  0  0  0  0  0  0  0  0  0  0  0
   -1.2411   -1.2572   -1.6799 H   0  0  0  0  0  0  0  0  0  0  0  0
   -0.7844   -0.0042    2.2298 H   0  0  0  0  0  0  0  0  0  0  0  0
   -1.7242    1.2944    1.4252 H   0  0  0  0  0  0  0  0  0  0  0  0
   -2.3383   -0.3751    1.4290 H   0  0  0  0  0  0  0  0  0  0  0  0
  1  2  1  0
  2  3  1  0
  2  4  1  0
  4  5  1  0
  5  6  1  0
  6  7  1  0
  7  8  1  0
  7  9  1  0
  7  2  1  0
  1 10  1  0
  1 11  1  0
  1 12  1  0
  3 13  1  0
  3 14  1  0
  3 15  1  0
  4 16  1  0
  4 17  1  0
  6 18  1  0
  6 19  1  0
  8 20  1  0
  8 21  1  0
  8 22  1  0
  9 23  1  0
  9 24  1  0
  9 25  1  0
M  END
