
     RDKit          3D

 19 19  0  0  0  0  0  0  0  0999 V2000
   -0.0508    0.8315   -1.5680 C   0  0  0  0  0  0  0  0  0  0  0  0
   -0.2709    0.2193   -0.2230 C   0  0  0  0  0  0  0  0  0  0  0  0
    0.9714   -0.3440    0.4369 C   0  0  0  0  0  0  0  0  0  0  0  0
    1.5925   -1.1641   -0.5327 O   0  0  0  0  0  0  0  0  0  0  0  0
    1.9297    0.7198    0.8285 C   0  0  0  0  0  0  0  0  0  0  0  0
    1.5703    1.5287    1.6607 O   0  0  0  0  0  0  0  0  0  0  0  0
   -1.3738   -0.8433   -0.1934 C   0  0  0  0  0  0  0  0  0  0  0  0
   -1.7152   -0.0632    1.0303 C   0  0  0  0  0  0  0  0  0  0  0  0
   -1.0205    1.0639    0.5946 O   0  0  0  0  0  0  0  0  0  0  0  0
   -1.0298    0.9457   -2.0753 H   0  0  0  0  0  0  0  0  0  0  0  0
    0.6923    0.2889   -2.1746 H   0  0  0  0  0  0  0  0  0  0  0  0
    0.3567    1.8689   -1.3892 H   0  0  0  0  0  0  0  0  0  0  0  0
    0.7144   -1.0198    1.2763 H   0  0  0  0  0  0  0  0  0  0  0  0
    1.8505   -2.0346   -0.1697 H   0  0  0  0  0  0  0  0  0  0  0  0
    2.9248    0.8249    0.4249 H   0  0  0  0  0  0  0  0  0  0  0  0
   -2.0777   -0.7264   -1.0341 H   0  0  0  0  0  0  0  0  0  0  0  0
   -0.9908   -1.8639   -0.0238 H   0  0  0  0  0  0  0  0  0  0  0  0
   -2.7823    0.2046    1.1645 H   0  0  0  0  0  0  0  0  0  0  0  0
   -1.2907   -0.4370    1.9672 H   0  0  0  0  0  0  0  0  0  0  0  0
  1  2  1  0
  2  3  1  0
  3  4  1  0
  3  5  1  0
  5  6  2  0
  2  7  1  0
  7  8  1  0
  8  9  1  0
  9  2  1  0
  1 10  1  0
  1 11  1  0
  1 12  1  0
  3 13  1  0
  4 14  1  0
  5 15  1  0
  7 16  1  0
  7 17  1  0
  8 18  1  0
  8 19  1  0
M  END
