
     RDKit          3D

 18 18  0  0  0  0  0  0  0  0999 V2000
   -1.1300    1.2194   -0.4001 C   0  0  0  0  0  0  0  0  0  0  0  0
   -0.3104    0.0441    0.0711 C   0  0  0  0  0  0  0  0  0  0  0  0
   -1.2542   -0.9019    0.7881 C   0  0  0  0  0  0  0  0  0  0  0  0
    0.3108   -0.7284   -1.0673 C   0  0  0  0  0  0  0  0  0  0  0  0
    1.5770   -0.1929   -1.2281 O   0  0  0  0  0  0  0  0  0  0  0  0
    2.0544    0.1596    0.0004 C   0  0  0  0  0  0  0  0  0  0  0  0
    0.8554    0.4224    0.8787 C   0  0  0  0  0  0  0  0  0  0  0  0
    0.9733    0.8574    2.0004 O   0  0  0  0  0  0  0  0  0  0  0  0
   -2.1012    1.2854    0.1726 H   0  0  0  0  0  0  0  0  0  0  0  0
   -1.4284    1.1354   -1.4614 H   0  0  0  0  0  0  0  0  0  0  0  0
   -0.5872    2.1477   -0.1639 H   0  0  0  0  0  0  0  0  0  0  0  0
   -0.6936   -1.7626    1.1972 H   0  0  0  0  0  0  0  0  0  0  0  0
   -1.8678   -0.3800    1.5408 H   0  0  0  0  0  0  0  0  0  0  0  0
   -1.9071   -1.3402   -0.0228 H   0  0  0  0  0  0  0  0  0  0  0  0
    0.4544   -1.7737   -0.6933 H   0  0  0  0  0  0  0  0  0  0  0  0
   -0.2943   -0.6997   -1.9784 H   0  0  0  0  0  0  0  0  0  0  0  0
    2.6533    1.0941   -0.1173 H   0  0  0  0  0  0  0  0  0  0  0  0
    2.6957   -0.5861    0.4832 H   0  0  0  0  0  0  0  0  0  0  0  0
  1  2  1  0
  2  3  1  0
  2  4  1  0
  4  5  1  0
  5  6  1  0
  6  7  1  0
  7  8  2  0
  7  2  1  0
  1  9  1  0
  1 10  1  0
  1 11  1  0
  3 12  1  0
  3 13  1  0
  3 14  1  0
  4 15  1  0
  4 16  1  0
  6 17  1  0
  6 18  1  0
M  END
