
     RDKit          3D

 21 22  0  0  0  0  0  0  0  0999 V2000
   -2.4975    0.3701    0.4828 C   0  0  0  0  0  0  0  0  0  0  0  0
   -1.2433    0.3147   -0.3220 C   0  0  0  0  0  0  0  0  0  0  0  0
   -1.3326    0.7271   -1.6265 O   0  0  0  0  0  0  0  0  0  0  0  0
   -0.0137    0.9365    0.3560 C   0  0  0  0  0  0  0  0  0  0  0  0
    0.7642   -0.2115   -0.2147 C   0  0  0  0  0  0  0  0  0  0  0  0
    1.9221   -0.7146    0.5337 C   0  0  0  0  0  0  0  0  0  0  0  0
    2.6371   -0.0031   -0.6239 C   0  0  0  0  0  0  0  0  0  0  0  0
    1.4391   -0.0116   -1.3770 O   0  0  0  0  0  0  0  0  0  0  0  0
   -0.4902   -1.0170   -0.2463 C   0  0  0  0  0  0  0  0  0  0  0  0
   -3.1288   -0.5290    0.2937 H   0  0  0  0  0  0  0  0  0  0  0  0
   -2.3255    0.5117    1.5713 H   0  0  0  0  0  0  0  0  0  0  0  0
   -3.0805    1.2539    0.1396 H   0  0  0  0  0  0  0  0  0  0  0  0
   -2.1164    0.3405   -2.0757 H   0  0  0  0  0  0  0  0  0  0  0  0
    0.2427    1.9417    0.0002 H   0  0  0  0  0  0  0  0  0  0  0  0
   -0.0417    0.8402    1.4750 H   0  0  0  0  0  0  0  0  0  0  0  0
    2.0240   -1.8007    0.4963 H   0  0  0  0  0  0  0  0  0  0  0  0
    2.2150   -0.2170    1.4731 H   0  0  0  0  0  0  0  0  0  0  0  0
    2.8565    1.0678   -0.3808 H   0  0  0  0  0  0  0  0  0  0  0  0
    3.4537   -0.5770   -1.0657 H   0  0  0  0  0  0  0  0  0  0  0  0
   -0.6617   -1.5533    0.7262 H   0  0  0  0  0  0  0  0  0  0  0  0
   -0.6225   -1.6693   -1.1194 H   0  0  0  0  0  0  0  0  0  0  0  0
  1  2  1  0
  2  3  1  0
  2  4  1  0
  4  5  1  0
  5  6  1  0
  6  7  1  0
  7  8  1  0
  5  9  1  0
  9  2  1  0
  8  5  1  0
  1 10  1  0
  1 11  1  0
  1 12  1  0
  3 13  1  0
  4 14  1  0
  4 15  1  0
  6 16  1  0
  6 17  1  0
  7 18  1  0
  7 19  1  0
  9 20  1  0
  9 21  1  0
M  END
