
     RDKit          3D

 21 22  0  0  0  0  0  0  0  0999 V2000
   -1.3521    1.0526   -0.9934 C   0  0  0  0  0  0  0  0  0  0  0  0
   -0.7712    0.2190    0.1035 C   0  0  0  0  0  0  0  0  0  0  0  0
   -1.5725   -1.0839    0.2207 C   0  0  0  0  0  0  0  0  0  0  0  0
   -0.7806    0.8510    1.3666 O   0  0  0  0  0  0  0  0  0  0  0  0
    0.6250    0.7681    1.5069 C   0  0  0  0  0  0  0  0  0  0  0  0
    0.6542    0.0502    0.2204 C   0  0  0  0  0  0  0  0  0  0  0  0
    1.3193   -1.2529    0.1177 C   0  0  0  0  0  0  0  0  0  0  0  0
    2.4909   -0.5659   -0.2859 O   0  0  0  0  0  0  0  0  0  0  0  0
    1.6137    0.4118   -0.8166 C   0  0  0  0  0  0  0  0  0  0  0  0
   -1.6279    0.3901   -1.8470 H   0  0  0  0  0  0  0  0  0  0  0  0
   -0.7418    1.8990   -1.3082 H   0  0  0  0  0  0  0  0  0  0  0  0
   -2.3347    1.4885   -0.6496 H   0  0  0  0  0  0  0  0  0  0  0  0
   -1.2869   -1.6572    1.1190 H   0  0  0  0  0  0  0  0  0  0  0  0
   -1.3642   -1.6323   -0.7312 H   0  0  0  0  0  0  0  0  0  0  0  0
   -2.6415   -0.7769    0.2522 H   0  0  0  0  0  0  0  0  0  0  0  0
    1.0984    1.7774    1.5531 H   0  0  0  0  0  0  0  0  0  0  0  0
    0.9398    0.1846    2.4137 H   0  0  0  0  0  0  0  0  0  0  0  0
    0.9472   -1.8484   -0.7468 H   0  0  0  0  0  0  0  0  0  0  0  0
    1.4348   -1.8423    1.0390 H   0  0  0  0  0  0  0  0  0  0  0  0
    1.9935    1.4549   -0.6969 H   0  0  0  0  0  0  0  0  0  0  0  0
    1.3565    0.1127   -1.8375 H   0  0  0  0  0  0  0  0  0  0  0  0
  1  2  1  0
  2  3  1  0
  2  4  1  0
  4  5  1  0
  5  6  1  0
  6  7  1  0
  7  8  1  0
  8  9  1  0
  6  2  1  0
  9  6  1  0
  1 10  1  0
  1 11  1  0
  1 12  1  0
  3 13  1  0
  3 14  1  0
  3 15  1  0
  5 16  1  0
  5 17  1  0
  7 18  1  0
  7 19  1  0
  9 20  1  0
  9 21  1  0
M  END
