
     RDKit          3D

 21 22  0  0  0  0  0  0  0  0999 V2000
    1.5866    0.0379   -1.1136 C   0  0  0  0  0  0  0  0  0  0  0  0
    0.6278   -0.0482    0.0074 C   0  0  0  0  0  0  0  0  0  0  0  0
    1.1600   -0.5461    1.2950 C   0  0  0  0  0  0  0  0  0  0  0  0
   -0.6336   -0.8500   -0.3537 C   0  0  0  0  0  0  0  0  0  0  0  0
   -1.3904   -0.5818    0.9220 C   0  0  0  0  0  0  0  0  0  0  0  0
   -1.2547    0.7574    1.0773 C   0  0  0  0  0  0  0  0  0  0  0  0
   -0.1737    1.2564    0.1745 C   0  0  0  0  0  0  0  0  0  0  0  0
   -0.7129    1.3626   -1.0992 O   0  0  0  0  0  0  0  0  0  0  0  0
   -1.2344    0.0870   -1.3713 C   0  0  0  0  0  0  0  0  0  0  0  0
    2.3175    0.8272   -0.9135 H   0  0  0  0  0  0  0  0  0  0  0  0
    2.0618   -0.9245   -1.2727 H   0  0  0  0  0  0  0  0  0  0  0  0
    1.0333    0.3342   -2.0302 H   0  0  0  0  0  0  0  0  0  0  0  0
    0.4013   -1.1569    1.8361 H   0  0  0  0  0  0  0  0  0  0  0  0
    2.0527   -1.1655    1.1817 H   0  0  0  0  0  0  0  0  0  0  0  0
    1.4048    0.2928    2.0109 H   0  0  0  0  0  0  0  0  0  0  0  0
   -0.4855   -1.8522   -0.6146 H   0  0  0  0  0  0  0  0  0  0  0  0
   -1.9124   -1.2565    1.5641 H   0  0  0  0  0  0  0  0  0  0  0  0
   -1.8258    1.3952    1.7439 H   0  0  0  0  0  0  0  0  0  0  0  0
    0.3933    2.0766    0.5297 H   0  0  0  0  0  0  0  0  0  0  0  0
   -2.3347    0.1760   -1.1657 H   0  0  0  0  0  0  0  0  0  0  0  0
   -1.0809   -0.2215   -2.4080 H   0  0  0  0  0  0  0  0  0  0  0  0
  1  2  1  0
  2  3  1  0
  2  4  1  0
  4  5  1  0
  5  6  2  0
  6  7  1  0
  7  8  1  0
  8  9  1  0
  7  2  1  0
  9  4  1  0
  1 10  1  0
  1 11  1  0
  1 12  1  0
  3 13  1  0
  3 14  1  0
  3 15  1  0
  4 16  1  0
  5 17  1  0
  6 18  1  0
  7 19  1  0
  9 20  1  0
  9 21  1  0
M  END
