
     RDKit          3D

 21 21  0  0  0  0  0  0  0  0999 V2000
   -1.3678   -0.9984   -0.7156 C   0  0  0  0  0  0  0  0  0  0  0  0
   -0.6193    0.1441   -0.0769 C   0  0  0  0  0  0  0  0  0  0  0  0
   -1.6843    1.1678    0.3380 C   0  0  0  0  0  0  0  0  0  0  0  0
    0.2576    0.7415   -1.1345 C   0  0  0  0  0  0  0  0  0  0  0  0
    1.5724    0.5938   -1.1095 C   0  0  0  0  0  0  0  0  0  0  0  0
    2.2557   -0.1508   -0.0658 C   0  0  0  0  0  0  0  0  0  0  0  0
    3.5066   -0.1090   -0.0258 O   0  0  0  0  0  0  0  0  0  0  0  0
    1.4359   -0.9179    0.8931 C   0  0  0  0  0  0  0  0  0  0  0  0
    0.1295   -0.2318    1.1443 C   0  0  0  0  0  0  0  0  0  0  0  0
   -0.7264   -1.8220   -1.0472 H   0  0  0  0  0  0  0  0  0  0  0  0
   -2.2391   -1.3314   -0.0982 H   0  0  0  0  0  0  0  0  0  0  0  0
   -1.8317   -0.5687   -1.6512 H   0  0  0  0  0  0  0  0  0  0  0  0
   -1.2431    2.1715    0.1984 H   0  0  0  0  0  0  0  0  0  0  0  0
   -1.9160    1.0623    1.4179 H   0  0  0  0  0  0  0  0  0  0  0  0
   -2.6265    1.0215   -0.2149 H   0  0  0  0  0  0  0  0  0  0  0  0
   -0.1800    1.3089   -1.9427 H   0  0  0  0  0  0  0  0  0  0  0  0
    2.1512    1.0608   -1.9198 H   0  0  0  0  0  0  0  0  0  0  0  0
    1.9781   -0.9459    1.8836 H   0  0  0  0  0  0  0  0  0  0  0  0
    1.3278   -1.9854    0.5982 H   0  0  0  0  0  0  0  0  0  0  0  0
   -0.5089   -0.8873    1.7660 H   0  0  0  0  0  0  0  0  0  0  0  0
    0.3283    0.6763    1.7628 H   0  0  0  0  0  0  0  0  0  0  0  0
  1  2  1  0
  2  3  1  0
  2  4  1  0
  4  5  2  0
  5  6  1  0
  6  7  2  0
  6  8  1  0
  8  9  1  0
  9  2  1  0
  1 10  1  0
  1 11  1  0
  1 12  1  0
  3 13  1  0
  3 14  1  0
  3 15  1  0
  4 16  1  0
  5 17  1  0
  8 18  1  0
  8 19  1  0
  9 20  1  0
  9 21  1  0
M  END
