
     RDKit          3D

 21 22  0  0  0  0  0  0  0  0999 V2000
   -0.7353    1.7933    0.7723 C   0  0  0  0  0  0  0  0  0  0  0  0
   -0.2027    0.5820    0.0373 C   0  0  0  0  0  0  0  0  0  0  0  0
    1.2788    0.5102    0.1510 C   0  0  0  0  0  0  0  0  0  0  0  0
    1.8839   -0.6765   -0.5600 C   0  0  0  0  0  0  0  0  0  0  0  0
    3.2707   -0.6962   -0.4226 O   0  0  0  0  0  0  0  0  0  0  0  0
   -0.6917    0.4431   -1.2648 O   0  0  0  0  0  0  0  0  0  0  0  0
   -1.3030   -0.7639   -1.0137 C   0  0  0  0  0  0  0  0  0  0  0  0
   -2.3709   -0.8285    0.0158 C   0  0  0  0  0  0  0  0  0  0  0  0
   -0.9558   -0.6768    0.3997 C   0  0  0  0  0  0  0  0  0  0  0  0
   -1.3389    2.4250    0.0776 H   0  0  0  0  0  0  0  0  0  0  0  0
   -1.3739    1.5234    1.6296 H   0  0  0  0  0  0  0  0  0  0  0  0
    0.0775    2.4449    1.1537 H   0  0  0  0  0  0  0  0  0  0  0  0
    1.5723    0.5045    1.2031 H   0  0  0  0  0  0  0  0  0  0  0  0
    1.7060    1.4258   -0.3106 H   0  0  0  0  0  0  0  0  0  0  0  0
    1.4972   -1.6360   -0.2242 H   0  0  0  0  0  0  0  0  0  0  0  0
    1.6903   -0.5914   -1.6657 H   0  0  0  0  0  0  0  0  0  0  0  0
    3.4799   -0.9080    0.5080 H   0  0  0  0  0  0  0  0  0  0  0  0
   -1.1549   -1.6350   -1.6524 H   0  0  0  0  0  0  0  0  0  0  0  0
   -3.0759    0.0276   -0.0126 H   0  0  0  0  0  0  0  0  0  0  0  0
   -2.8179   -1.8241    0.2051 H   0  0  0  0  0  0  0  0  0  0  0  0
   -0.4358   -1.4433    0.9736 H   0  0  0  0  0  0  0  0  0  0  0  0
  1  2  1  0
  2  3  1  0
  3  4  1  0
  4  5  1  0
  2  6  1  0
  6  7  1  0
  7  8  1  0
  8  9  1  0
  9  2  1  0
  9  7  1  0
  1 10  1  0
  1 11  1  0
  1 12  1  0
  3 13  1  0
  3 14  1  0
  4 15  1  0
  4 16  1  0
  5 17  1  0
  7 18  1  0
  8 19  1  0
  8 20  1  0
  9 21  1  0
M  END
