
     RDKit          3D

 23 23  0  0  0  0  0  0  0  0999 V2000
    1.8617    0.7440    0.8017 C   0  0  0  0  0  0  0  0  0  0  0  0
    0.7660    0.0073    0.0288 C   0  0  0  0  0  0  0  0  0  0  0  0
    1.3879   -1.1246   -0.7831 C   0  0  0  0  0  0  0  0  0  0  0  0
    0.0932    1.0048   -0.8489 C   0  0  0  0  0  0  0  0  0  0  0  0
   -1.3867    0.8122   -0.9852 C   0  0  0  0  0  0  0  0  0  0  0  0
   -2.0627    0.7281    0.2042 O   0  0  0  0  0  0  0  0  0  0  0  0
   -2.3227   -0.5687    0.5963 C   0  0  0  0  0  0  0  0  0  0  0  0
   -1.1413   -1.3218    0.4020 O   0  0  0  0  0  0  0  0  0  0  0  0
   -0.1374   -0.6205    1.0536 C   0  0  0  0  0  0  0  0  0  0  0  0
    1.7577    1.8500    0.6912 H   0  0  0  0  0  0  0  0  0  0  0  0
    1.8530    0.4835    1.8752 H   0  0  0  0  0  0  0  0  0  0  0  0
    2.8405    0.4812    0.3827 H   0  0  0  0  0  0  0  0  0  0  0  0
    1.0858   -2.1215   -0.3984 H   0  0  0  0  0  0  0  0  0  0  0  0
    1.1296   -1.0227   -1.8660 H   0  0  0  0  0  0  0  0  0  0  0  0
    2.5024   -1.0772   -0.6964 H   0  0  0  0  0  0  0  0  0  0  0  0
    0.5271    0.9274   -1.8785 H   0  0  0  0  0  0  0  0  0  0  0  0
    0.2673    2.0651   -0.5359 H   0  0  0  0  0  0  0  0  0  0  0  0
   -1.6201   -0.0423   -1.6689 H   0  0  0  0  0  0  0  0  0  0  0  0
   -1.7805    1.7217   -1.5212 H   0  0  0  0  0  0  0  0  0  0  0  0
   -2.4769   -0.5517    1.6994 H   0  0  0  0  0  0  0  0  0  0  0  0
   -3.1036   -1.0772    0.0378 H   0  0  0  0  0  0  0  0  0  0  0  0
    0.4756   -1.3779    1.6009 H   0  0  0  0  0  0  0  0  0  0  0  0
   -0.5160    0.0806    1.8089 H   0  0  0  0  0  0  0  0  0  0  0  0
  1  2  1  0
  2  3  1  0
  2  4  1  0
  4  5  1  0
  5  6  1  0
  6  7  1  0
  7  8  1  0
  8  9  1  0
  9  2  1  0
  1 10  1  0
  1 11  1  0
  1 12  1  0
  3 13  1  0
  3 14  1  0
  3 15  1  0
  4 16  1  0
  4 17  1  0
  5 18  1  0
  5 19  1  0
  7 20  1  0
  7 21  1  0
  9 22  1  0
  9 23  1  0
M  END
