
     RDKit          3D

 25 25  0  0  0  0  0  0  0  0999 V2000
   -2.3849   -1.2952    0.6801 C   0  0  0  0  0  0  0  0  0  0  0  0
   -1.6267   -0.0818    0.1810 C   0  0  0  0  0  0  0  0  0  0  0  0
   -2.2169    1.2266    0.6463 C   0  0  0  0  0  0  0  0  0  0  0  0
   -1.2168   -0.2071   -1.2899 C   0  0  0  0  0  0  0  0  0  0  0  0
   -0.2066   -0.2205   -0.1482 C   0  0  0  0  0  0  0  0  0  0  0  0
    0.7458    0.9191   -0.1557 C   0  0  0  0  0  0  0  0  0  0  0  0
    2.1459    0.5703   -0.5176 C   0  0  0  0  0  0  0  0  0  0  0  0
    2.7816   -0.4320    0.4137 C   0  0  0  0  0  0  0  0  0  0  0  0
    4.0880   -0.7054    0.0094 O   0  0  0  0  0  0  0  0  0  0  0  0
   -1.9554   -2.2264    0.2526 H   0  0  0  0  0  0  0  0  0  0  0  0
   -3.4161   -1.2084    0.2662 H   0  0  0  0  0  0  0  0  0  0  0  0
   -2.4368   -1.3517    1.7748 H   0  0  0  0  0  0  0  0  0  0  0  0
   -1.4325    1.7648    1.2034 H   0  0  0  0  0  0  0  0  0  0  0  0
   -2.5414    1.8079   -0.2598 H   0  0  0  0  0  0  0  0  0  0  0  0
   -3.1002    1.0937    1.3029 H   0  0  0  0  0  0  0  0  0  0  0  0
   -1.3651    0.7236   -1.8533 H   0  0  0  0  0  0  0  0  0  0  0  0
   -1.4311   -1.1341   -1.8278 H   0  0  0  0  0  0  0  0  0  0  0  0
    0.2310   -1.2418    0.0610 H   0  0  0  0  0  0  0  0  0  0  0  0
    0.4028    1.7022   -0.8627 H   0  0  0  0  0  0  0  0  0  0  0  0
    0.7773    1.4558    0.8384 H   0  0  0  0  0  0  0  0  0  0  0  0
    2.2151    0.1694   -1.5531 H   0  0  0  0  0  0  0  0  0  0  0  0
    2.7583    1.4956   -0.4561 H   0  0  0  0  0  0  0  0  0  0  0  0
    2.8736    0.0027    1.4468 H   0  0  0  0  0  0  0  0  0  0  0  0
    2.2172   -1.3568    0.4918 H   0  0  0  0  0  0  0  0  0  0  0  0
    4.0940   -1.4706   -0.6444 H   0  0  0  0  0  0  0  0  0  0  0  0
  1  2  1  0
  2  3  1  0
  2  4  1  0
  4  5  1  0
  5  6  1  0
  6  7  1  0
  7  8  1  0
  8  9  1  0
  5  2  1  0
  1 10  1  0
  1 11  1  0
  1 12  1  0
  3 13  1  0
  3 14  1  0
  3 15  1  0
  4 16  1  0
  4 17  1  0
  5 18  1  0
  6 19  1  0
  6 20  1  0
  7 21  1  0
  7 22  1  0
  8 23  1  0
  8 24  1  0
  9 25  1  0
M  END
