
     RDKit          3D

 19 20  0  0  0  0  0  0  0  0999 V2000
   -1.4870    0.4455   -1.0241 C   0  0  0  0  0  0  0  0  0  0  0  0
   -0.7647   -0.0015    0.2064 C   0  0  0  0  0  0  0  0  0  0  0  0
    0.7012   -0.1691    0.2663 C   0  0  0  0  0  0  0  0  0  0  0  0
    1.1195   -1.0737    1.2555 O   0  0  0  0  0  0  0  0  0  0  0  0
    1.3942    1.1895    0.4206 C   0  0  0  0  0  0  0  0  0  0  0  0
    1.7175    1.2146   -0.9333 O   0  0  0  0  0  0  0  0  0  0  0  0
    1.4837   -0.1598   -0.9889 C   0  0  0  0  0  0  0  0  0  0  0  0
   -1.6190   -0.8499    1.1452 C   0  0  0  0  0  0  0  0  0  0  0  0
   -1.3319    0.4830    1.4175 O   0  0  0  0  0  0  0  0  0  0  0  0
   -0.9230    0.2093   -1.9392 H   0  0  0  0  0  0  0  0  0  0  0  0
   -2.4813   -0.0599   -1.1401 H   0  0  0  0  0  0  0  0  0  0  0  0
   -1.7010    1.5345   -1.0407 H   0  0  0  0  0  0  0  0  0  0  0  0
    1.2253   -1.9956    0.8657 H   0  0  0  0  0  0  0  0  0  0  0  0
    0.7044    2.0233    0.6477 H   0  0  0  0  0  0  0  0  0  0  0  0
    2.2656    1.1281    1.1142 H   0  0  0  0  0  0  0  0  0  0  0  0
    0.9914   -0.5063   -1.9125 H   0  0  0  0  0  0  0  0  0  0  0  0
    2.4551   -0.7052   -0.8747 H   0  0  0  0  0  0  0  0  0  0  0  0
   -1.0812   -1.6542    1.6432 H   0  0  0  0  0  0  0  0  0  0  0  0
   -2.6686   -1.0524    0.8711 H   0  0  0  0  0  0  0  0  0  0  0  0
  1  2  1  0
  2  3  1  0
  3  4  1  0
  3  5  1  0
  5  6  1  0
  6  7  1  0
  2  8  1  0
  8  9  1  0
  9  2  1  0
  7  3  1  0
  1 10  1  0
  1 11  1  0
  1 12  1  0
  4 13  1  0
  5 14  1  0
  5 15  1  0
  7 16  1  0
  7 17  1  0
  8 18  1  0
  8 19  1  0
M  END
