
     RDKit          3D

 19 20  0  0  0  0  0  0  0  0999 V2000
   -0.3132   -0.2158    1.6879 C   0  0  0  0  0  0  0  0  0  0  0  0
   -0.3728    0.3002    0.2888 C   0  0  0  0  0  0  0  0  0  0  0  0
   -1.6855    0.0769   -0.4258 C   0  0  0  0  0  0  0  0  0  0  0  0
   -2.0692   -1.2489   -0.4459 O   0  0  0  0  0  0  0  0  0  0  0  0
   -0.0627    1.6717    0.2597 O   0  0  0  0  0  0  0  0  0  0  0  0
    1.1154    1.5112   -0.5078 C   0  0  0  0  0  0  0  0  0  0  0  0
    0.8649    0.0442   -0.4842 C   0  0  0  0  0  0  0  0  0  0  0  0
    1.7463   -1.0176   -0.4334 C   0  0  0  0  0  0  0  0  0  0  0  0
    0.9077   -0.7350   -1.5999 O   0  0  0  0  0  0  0  0  0  0  0  0
    0.7432   -0.2574    2.0247 H   0  0  0  0  0  0  0  0  0  0  0  0
   -0.7137   -1.2389    1.7895 H   0  0  0  0  0  0  0  0  0  0  0  0
   -0.8558    0.4905    2.3428 H   0  0  0  0  0  0  0  0  0  0  0  0
   -1.7061    0.5518   -1.4188 H   0  0  0  0  0  0  0  0  0  0  0  0
   -2.4705    0.6212    0.1778 H   0  0  0  0  0  0  0  0  0  0  0  0
   -2.4592   -1.4643   -1.3265 H   0  0  0  0  0  0  0  0  0  0  0  0
    1.9790    1.7838    0.1298 H   0  0  0  0  0  0  0  0  0  0  0  0
    1.0317    2.0260   -1.4724 H   0  0  0  0  0  0  0  0  0  0  0  0
    1.4970   -1.9741    0.0720 H   0  0  0  0  0  0  0  0  0  0  0  0
    2.8237   -0.9256   -0.6583 H   0  0  0  0  0  0  0  0  0  0  0  0
  1  2  1  0
  2  3  1  0
  3  4  1  0
  2  5  1  0
  5  6  1  0
  6  7  1  0
  7  8  1  0
  8  9  1  0
  7  2  1  0
  9  7  1  0
  1 10  1  0
  1 11  1  0
  1 12  1  0
  3 13  1  0
  3 14  1  0
  4 15  1  0
  6 16  1  0
  6 17  1  0
  8 18  1  0
  8 19  1  0
M  END
