
     RDKit          3D

 21 21  0  0  0  0  0  0  0  0999 V2000
   -1.9365   -0.5897    0.9833 C   0  0  0  0  0  0  0  0  0  0  0  0
   -0.9879   -0.0544   -0.0622 C   0  0  0  0  0  0  0  0  0  0  0  0
   -1.6017   -0.0021   -1.3204 O   0  0  0  0  0  0  0  0  0  0  0  0
   -0.4749    1.3173    0.2617 C   0  0  0  0  0  0  0  0  0  0  0  0
    0.9084    1.3447   -0.3175 C   0  0  0  0  0  0  0  0  0  0  0  0
    1.2917   -0.0664   -0.6610 C   0  0  0  0  0  0  0  0  0  0  0  0
    2.5378   -0.4961   -0.0022 C   0  0  0  0  0  0  0  0  0  0  0  0
    2.9758   -1.5977   -0.2083 O   0  0  0  0  0  0  0  0  0  0  0  0
    0.1815   -0.9648   -0.1577 C   0  0  0  0  0  0  0  0  0  0  0  0
   -2.5854   -1.3389    0.4635 H   0  0  0  0  0  0  0  0  0  0  0  0
   -1.3361   -1.2053    1.7139 H   0  0  0  0  0  0  0  0  0  0  0  0
   -2.5317    0.1869    1.4673 H   0  0  0  0  0  0  0  0  0  0  0  0
   -2.2855   -0.7083   -1.3196 H   0  0  0  0  0  0  0  0  0  0  0  0
   -1.1337    2.0565   -0.2275 H   0  0  0  0  0  0  0  0  0  0  0  0
   -0.4847    1.5525    1.3461 H   0  0  0  0  0  0  0  0  0  0  0  0
    1.6454    1.7967    0.3891 H   0  0  0  0  0  0  0  0  0  0  0  0
    0.8875    2.0013   -1.2279 H   0  0  0  0  0  0  0  0  0  0  0  0
    1.4339   -0.1800   -1.7605 H   0  0  0  0  0  0  0  0  0  0  0  0
    3.0472    0.1724    0.6559 H   0  0  0  0  0  0  0  0  0  0  0  0
   -0.0020   -1.8119   -0.8539 H   0  0  0  0  0  0  0  0  0  0  0  0
    0.4507   -1.4127    0.8379 H   0  0  0  0  0  0  0  0  0  0  0  0
  1  2  1  0
  2  3  1  0
  2  4  1  0
  4  5  1  0
  5  6  1  0
  6  7  1  0
  7  8  2  0
  6  9  1  0
  9  2  1  0
  1 10  1  0
  1 11  1  0
  1 12  1  0
  3 13  1  0
  4 14  1  0
  4 15  1  0
  5 16  1  0
  5 17  1  0
  6 18  1  0
  7 19  1  0
  9 20  1  0
  9 21  1  0
M  END
