
     RDKit          3D

 21 21  0  0  0  0  0  0  0  0999 V2000
    1.3565    0.1919   -1.4637 C   0  0  0  0  0  0  0  0  0  0  0  0
    0.4959    0.0290   -0.2337 C   0  0  0  0  0  0  0  0  0  0  0  0
    1.3333    0.0411    1.0037 C   0  0  0  0  0  0  0  0  0  0  0  0
   -0.3745   -1.2253   -0.2480 C   0  0  0  0  0  0  0  0  0  0  0  0
   -0.3390   -1.9578    0.9325 O   0  0  0  0  0  0  0  0  0  0  0  0
   -1.6226   -0.3807   -0.2946 C   0  0  0  0  0  0  0  0  0  0  0  0
   -0.7412    0.8535   -0.2292 C   0  0  0  0  0  0  0  0  0  0  0  0
   -0.9741    1.7255    0.9331 C   0  0  0  0  0  0  0  0  0  0  0  0
   -0.7552    1.3550    2.0726 O   0  0  0  0  0  0  0  0  0  0  0  0
    0.8801    0.8020   -2.2511 H   0  0  0  0  0  0  0  0  0  0  0  0
    1.6147   -0.8256   -1.8297 H   0  0  0  0  0  0  0  0  0  0  0  0
    2.3285    0.6843   -1.2294 H   0  0  0  0  0  0  0  0  0  0  0  0
    0.7944   -0.3873    1.8951 H   0  0  0  0  0  0  0  0  0  0  0  0
    2.1777   -0.6879    0.8286 H   0  0  0  0  0  0  0  0  0  0  0  0
    1.7984    0.9937    1.2422 H   0  0  0  0  0  0  0  0  0  0  0  0
   -0.1761   -1.8643   -1.1097 H   0  0  0  0  0  0  0  0  0  0  0  0
   -1.1178   -2.5264    1.0153 H   0  0  0  0  0  0  0  0  0  0  0  0
   -2.2858   -0.4521    0.5673 H   0  0  0  0  0  0  0  0  0  0  0  0
   -2.1598   -0.5367   -1.2367 H   0  0  0  0  0  0  0  0  0  0  0  0
   -0.8810    1.4280   -1.1887 H   0  0  0  0  0  0  0  0  0  0  0  0
   -1.3523    2.7400    0.8241 H   0  0  0  0  0  0  0  0  0  0  0  0
  1  2  1  0
  2  3  1  0
  2  4  1  0
  4  5  1  0
  4  6  1  0
  6  7  1  0
  7  8  1  0
  8  9  2  0
  7  2  1  0
  1 10  1  0
  1 11  1  0
  1 12  1  0
  3 13  1  0
  3 14  1  0
  3 15  1  0
  4 16  1  0
  5 17  1  0
  6 18  1  0
  6 19  1  0
  7 20  1  0
  8 21  1  0
M  END
