
     RDKit          3D

 21 21  0  0  0  0  0  0  0  0999 V2000
    1.5360    0.4102    0.9249 C   0  0  0  0  0  0  0  0  0  0  0  0
    0.5662    0.0569   -0.1745 C   0  0  0  0  0  0  0  0  0  0  0  0
    1.3587   -0.3794   -1.3753 C   0  0  0  0  0  0  0  0  0  0  0  0
   -0.2043    1.3000   -0.5109 C   0  0  0  0  0  0  0  0  0  0  0  0
    0.1512    2.2263   -1.2140 O   0  0  0  0  0  0  0  0  0  0  0  0
   -1.5054    1.1365    0.2156 C   0  0  0  0  0  0  0  0  0  0  0  0
   -1.8079   -0.3311   -0.0869 C   0  0  0  0  0  0  0  0  0  0  0  0
   -0.4521   -0.9612    0.2425 C   0  0  0  0  0  0  0  0  0  0  0  0
   -0.4488   -1.2544    1.5819 O   0  0  0  0  0  0  0  0  0  0  0  0
    2.2869    1.1020    0.4749 H   0  0  0  0  0  0  0  0  0  0  0  0
    1.0579    0.8171    1.8241 H   0  0  0  0  0  0  0  0  0  0  0  0
    2.1072   -0.5176    1.1718 H   0  0  0  0  0  0  0  0  0  0  0  0
    1.9019    0.5339   -1.7461 H   0  0  0  0  0  0  0  0  0  0  0  0
    2.1331   -1.0940   -1.0558 H   0  0  0  0  0  0  0  0  0  0  0  0
    0.6730   -0.7948   -2.1319 H   0  0  0  0  0  0  0  0  0  0  0  0
   -1.2711    1.1969    1.2872 H   0  0  0  0  0  0  0  0  0  0  0  0
   -2.2810    1.8118   -0.1355 H   0  0  0  0  0  0  0  0  0  0  0  0
   -2.6103   -0.7254    0.5483 H   0  0  0  0  0  0  0  0  0  0  0  0
   -2.0426   -0.4615   -1.1720 H   0  0  0  0  0  0  0  0  0  0  0  0
   -0.3593   -1.8749   -0.3700 H   0  0  0  0  0  0  0  0  0  0  0  0
   -0.7895   -2.1971    1.7016 H   0  0  0  0  0  0  0  0  0  0  0  0
  1  2  1  0
  2  3  1  0
  2  4  1  0
  4  5  2  0
  4  6  1  0
  6  7  1  0
  7  8  1  0
  8  9  1  0
  8  2  1  0
  1 10  1  0
  1 11  1  0
  1 12  1  0
  3 13  1  0
  3 14  1  0
  3 15  1  0
  6 16  1  0
  6 17  1  0
  7 18  1  0
  7 19  1  0
  8 20  1  0
  9 21  1  0
M  END
