
     RDKit          3D

 20 20  0  0  0  0  0  0  0  0999 V2000
    1.1032   -1.6097   -0.0672 C   0  0  0  0  0  0  0  0  0  0  0  0
    0.4085   -0.3208    0.1729 C   0  0  0  0  0  0  0  0  0  0  0  0
    1.3665    0.8336   -0.0353 C   0  0  0  0  0  0  0  0  0  0  0  0
   -0.2512   -0.2062    1.4850 C   0  0  0  0  0  0  0  0  0  0  0  0
   -1.3080    0.5928    1.3823 C   0  0  0  0  0  0  0  0  0  0  0  0
   -1.4203    1.0732   -0.0453 C   0  0  0  0  0  0  0  0  0  0  0  0
   -0.7876   -0.1184   -0.7675 C   0  0  0  0  0  0  0  0  0  0  0  0
   -0.4060    0.1773   -2.0460 O   0  0  0  0  0  0  0  0  0  0  0  0
    1.8011   -1.4495   -0.9383 H   0  0  0  0  0  0  0  0  0  0  0  0
    1.7476   -1.8382    0.7898 H   0  0  0  0  0  0  0  0  0  0  0  0
    0.4474   -2.4429   -0.3649 H   0  0  0  0  0  0  0  0  0  0  0  0
    1.2155    1.5712    0.7867 H   0  0  0  0  0  0  0  0  0  0  0  0
    2.4074    0.4399    0.0105 H   0  0  0  0  0  0  0  0  0  0  0  0
    1.1499    1.3142   -1.0051 H   0  0  0  0  0  0  0  0  0  0  0  0
    0.0671   -0.6921    2.3943 H   0  0  0  0  0  0  0  0  0  0  0  0
   -2.0196    0.9030    2.1294 H   0  0  0  0  0  0  0  0  0  0  0  0
   -2.4503    1.2506   -0.3448 H   0  0  0  0  0  0  0  0  0  0  0  0
   -0.7509    1.9418   -0.1623 H   0  0  0  0  0  0  0  0  0  0  0  0
   -1.4535   -0.9943   -0.6704 H   0  0  0  0  0  0  0  0  0  0  0  0
   -0.8668   -0.4255   -2.7041 H   0  0  0  0  0  0  0  0  0  0  0  0
  1  2  1  0
  2  3  1  0
  2  4  1  0
  4  5  2  0
  5  6  1  0
  6  7  1  0
  7  8  1  0
  7  2  1  0
  1  9  1  0
  1 10  1  0
  1 11  1  0
  3 12  1  0
  3 13  1  0
  3 14  1  0
  4 15  1  0
  5 16  1  0
  6 17  1  0
  6 18  1  0
  7 19  1  0
  8 20  1  0
M  END
