
     RDKit          3D

 23 23  0  0  0  0  0  0  0  0999 V2000
   -1.7184    1.2278   -0.6399 C   0  0  0  0  0  0  0  0  0  0  0  0
   -1.1294    0.0385    0.1219 C   0  0  0  0  0  0  0  0  0  0  0  0
   -2.2748   -0.9471    0.2769 C   0  0  0  0  0  0  0  0  0  0  0  0
   -0.5246    0.4261    1.3961 C   0  0  0  0  0  0  0  0  0  0  0  0
    0.7819    0.2934    1.2544 C   0  0  0  0  0  0  0  0  0  0  0  0
    1.1006   -0.1815   -0.1008 C   0  0  0  0  0  0  0  0  0  0  0  0
    1.9008    0.8161   -0.9005 C   0  0  0  0  0  0  0  0  0  0  0  0
    1.9285   -1.4548   -0.0625 C   0  0  0  0  0  0  0  0  0  0  0  0
   -0.1168   -0.4801   -0.6775 O   0  0  0  0  0  0  0  0  0  0  0  0
   -1.0008    2.0366   -0.7771 H   0  0  0  0  0  0  0  0  0  0  0  0
   -2.0099    0.8309   -1.6361 H   0  0  0  0  0  0  0  0  0  0  0  0
   -2.5915    1.6523   -0.0860 H   0  0  0  0  0  0  0  0  0  0  0  0
   -2.0124   -1.8216    0.8739 H   0  0  0  0  0  0  0  0  0  0  0  0
   -2.6282   -1.1762   -0.7489 H   0  0  0  0  0  0  0  0  0  0  0  0
   -3.1070   -0.4161    0.7790 H   0  0  0  0  0  0  0  0  0  0  0  0
   -1.0313    0.7558    2.2816 H   0  0  0  0  0  0  0  0  0  0  0  0
    1.5039    0.5063    2.0300 H   0  0  0  0  0  0  0  0  0  0  0  0
    2.7286    1.1681   -0.2377 H   0  0  0  0  0  0  0  0  0  0  0  0
    1.3359    1.6919   -1.2090 H   0  0  0  0  0  0  0  0  0  0  0  0
    2.3583    0.3201   -1.7633 H   0  0  0  0  0  0  0  0  0  0  0  0
    1.4447   -2.2415    0.5355 H   0  0  0  0  0  0  0  0  0  0  0  0
    2.1349   -1.7673   -1.1099 H   0  0  0  0  0  0  0  0  0  0  0  0
    2.9271   -1.2778    0.4000 H   0  0  0  0  0  0  0  0  0  0  0  0
  1  2  1  0
  2  3  1  0
  2  4  1  0
  4  5  2  0
  5  6  1  0
  6  7  1  0
  6  8  1  0
  6  9  1  0
  9  2  1  0
  1 10  1  0
  1 11  1  0
  1 12  1  0
  3 13  1  0
  3 14  1  0
  3 15  1  0
  4 16  1  0
  5 17  1  0
  7 18  1  0
  7 19  1  0
  7 20  1  0
  8 21  1  0
  8 22  1  0
  8 23  1  0
M  END
