
     RDKit          3D

 21 23  0  0  0  0  0  0  0  0999 V2000
   -1.2859   -0.7271   -0.9489 C   0  0  0  0  0  0  0  0  0  0  0  0
   -0.5486   -0.1214    0.2120 C   0  0  0  0  0  0  0  0  0  0  0  0
   -1.3992   -0.3224    1.4534 C   0  0  0  0  0  0  0  0  0  0  0  0
    0.8022   -0.6849    0.4468 C   0  0  0  0  0  0  0  0  0  0  0  0
    1.7528   -0.8384   -0.7203 C   0  0  0  0  0  0  0  0  0  0  0  0
    1.7364    0.3895    0.0682 C   0  0  0  0  0  0  0  0  0  0  0  0
    0.9472    1.6084   -0.3149 C   0  0  0  0  0  0  0  0  0  0  0  0
    0.0885    1.5906   -1.3890 O   0  0  0  0  0  0  0  0  0  0  0  0
   -0.3952    1.3601   -0.0711 C   0  0  0  0  0  0  0  0  0  0  0  0
   -1.4790   -1.7978   -0.8550 H   0  0  0  0  0  0  0  0  0  0  0  0
   -2.2802   -0.2006   -0.9998 H   0  0  0  0  0  0  0  0  0  0  0  0
   -0.7839   -0.4524   -1.9157 H   0  0  0  0  0  0  0  0  0  0  0  0
   -1.6030   -1.4037    1.5799 H   0  0  0  0  0  0  0  0  0  0  0  0
   -0.8606    0.0090    2.3598 H   0  0  0  0  0  0  0  0  0  0  0  0
   -2.3405    0.2443    1.2757 H   0  0  0  0  0  0  0  0  0  0  0  0
    0.9899   -1.3915    1.2707 H   0  0  0  0  0  0  0  0  0  0  0  0
    2.6288   -1.5027   -0.5962 H   0  0  0  0  0  0  0  0  0  0  0  0
    1.2479   -0.9680   -1.6913 H   0  0  0  0  0  0  0  0  0  0  0  0
    2.5781    0.5868    0.7524 H   0  0  0  0  0  0  0  0  0  0  0  0
    1.4275    2.6012   -0.1441 H   0  0  0  0  0  0  0  0  0  0  0  0
   -1.2231    2.0208    0.2275 H   0  0  0  0  0  0  0  0  0  0  0  0
  1  2  1  0
  2  3  1  0
  2  4  1  0
  4  5  1  0
  5  6  1  0
  6  7  1  0
  7  8  1  0
  8  9  1  0
  9  2  1  0
  6  4  1  0
  9  7  1  0
  1 10  1  0
  1 11  1  0
  1 12  1  0
  3 13  1  0
  3 14  1  0
  3 15  1  0
  4 16  1  0
  5 17  1  0
  5 18  1  0
  6 19  1  0
  7 20  1  0
  9 21  1  0
M  END
