
     RDKit          3D

 21 22  0  0  0  0  0  0  0  0999 V2000
   -1.8152   -1.0669   -0.7866 C   0  0  0  0  0  0  0  0  0  0  0  0
   -0.9369   -0.0043   -0.1384 C   0  0  0  0  0  0  0  0  0  0  0  0
   -1.7318    1.2836   -0.1595 C   0  0  0  0  0  0  0  0  0  0  0  0
    0.3313    0.1947   -0.9231 C   0  0  0  0  0  0  0  0  0  0  0  0
    1.3911   -0.2430    0.0179 C   0  0  0  0  0  0  0  0  0  0  0  0
    0.7147   -0.1428    1.3655 C   0  0  0  0  0  0  0  0  0  0  0  0
   -0.6125   -0.3747    1.1340 O   0  0  0  0  0  0  0  0  0  0  0  0
    2.7801   -0.0831   -0.1001 C   0  0  0  0  0  0  0  0  0  0  0  0
    2.1201   -1.3555   -0.3178 O   0  0  0  0  0  0  0  0  0  0  0  0
   -2.1098   -1.8581   -0.0775 H   0  0  0  0  0  0  0  0  0  0  0  0
   -2.7192   -0.6451   -1.2471 H   0  0  0  0  0  0  0  0  0  0  0  0
   -1.2397   -1.5612   -1.6033 H   0  0  0  0  0  0  0  0  0  0  0  0
   -1.6416    1.7113   -1.1764 H   0  0  0  0  0  0  0  0  0  0  0  0
   -1.3257    1.9366    0.6301 H   0  0  0  0  0  0  0  0  0  0  0  0
   -2.8046    1.1198    0.0558 H   0  0  0  0  0  0  0  0  0  0  0  0
    0.3015   -0.4742   -1.8126 H   0  0  0  0  0  0  0  0  0  0  0  0
    0.4988    1.2567   -1.2042 H   0  0  0  0  0  0  0  0  0  0  0  0
    1.1806   -0.8466    2.0913 H   0  0  0  0  0  0  0  0  0  0  0  0
    0.9329    0.8791    1.7753 H   0  0  0  0  0  0  0  0  0  0  0  0
    3.4258   -0.0836    0.8118 H   0  0  0  0  0  0  0  0  0  0  0  0
    3.2600    0.3571   -1.0022 H   0  0  0  0  0  0  0  0  0  0  0  0
  1  2  1  0
  2  3  1  0
  2  4  1  0
  4  5  1  0
  5  6  1  0
  6  7  1  0
  5  8  1  0
  8  9  1  0
  7  2  1  0
  9  5  1  0
  1 10  1  0
  1 11  1  0
  1 12  1  0
  3 13  1  0
  3 14  1  0
  3 15  1  0
  4 16  1  0
  4 17  1  0
  6 18  1  0
  6 19  1  0
  8 20  1  0
  8 21  1  0
M  END
