
     RDKit          3D

 17 17  0  0  0  0  0  0  0  0999 V2000
   -1.4639   -0.9954    0.6387 C   0  0  0  0  0  0  0  0  0  0  0  0
   -0.8664    0.1859   -0.0844 C   0  0  0  0  0  0  0  0  0  0  0  0
   -1.8880    1.0086   -0.6128 O   0  0  0  0  0  0  0  0  0  0  0  0
   -0.0539    1.0438    0.7991 C   0  0  0  0  0  0  0  0  0  0  0  0
    1.2274    0.9661    0.5279 C   0  0  0  0  0  0  0  0  0  0  0  0
    1.4327    0.0247   -0.5956 C   0  0  0  0  0  0  0  0  0  0  0  0
    1.9270   -1.1739   -0.0277 O   0  0  0  0  0  0  0  0  0  0  0  0
    0.0859   -0.2061   -1.1464 C   0  0  0  0  0  0  0  0  0  0  0  0
   -0.2204   -0.6272   -2.2354 O   0  0  0  0  0  0  0  0  0  0  0  0
   -0.8768   -1.1348    1.5752 H   0  0  0  0  0  0  0  0  0  0  0  0
   -1.3316   -1.9056    0.0193 H   0  0  0  0  0  0  0  0  0  0  0  0
   -2.5386   -0.8282    0.9046 H   0  0  0  0  0  0  0  0  0  0  0  0
   -1.9044    0.8928   -1.5836 H   0  0  0  0  0  0  0  0  0  0  0  0
   -0.4567    1.6867    1.6038 H   0  0  0  0  0  0  0  0  0  0  0  0
    2.0440    1.5260    1.0631 H   0  0  0  0  0  0  0  0  0  0  0  0
    2.1477    0.4194   -1.3473 H   0  0  0  0  0  0  0  0  0  0  0  0
    2.7361   -0.8829    0.5016 H   0  0  0  0  0  0  0  0  0  0  0  0
  1  2  1  0
  2  3  1  0
  2  4  1  0
  4  5  2  0
  5  6  1  0
  6  7  1  0
  6  8  1  0
  8  9  2  0
  8  2  1  0
  1 10  1  0
  1 11  1  0
  1 12  1  0
  3 13  1  0
  4 14  1  0
  5 15  1  0
  6 16  1  0
  7 17  1  0
M  END
