
     RDKit          3D

 19 19  0  0  0  0  0  0  0  0999 V2000
   -1.6913   -0.8229    0.3543 C   0  0  0  0  0  0  0  0  0  0  0  0
   -0.4594   -0.0743   -0.0870 C   0  0  0  0  0  0  0  0  0  0  0  0
   -0.8619    0.9708   -1.0646 C   0  0  0  0  0  0  0  0  0  0  0  0
    0.3126    0.4735    1.1001 C   0  0  0  0  0  0  0  0  0  0  0  0
    1.6999    0.6177    0.4919 C   0  0  0  0  0  0  0  0  0  0  0  0
    1.8495   -0.7334   -0.1259 C   0  0  0  0  0  0  0  0  0  0  0  0
    2.8683   -1.4726   -0.1772 O   0  0  0  0  0  0  0  0  0  0  0  0
    0.5258   -1.0213   -0.6724 C   0  0  0  0  0  0  0  0  0  0  0  0
    0.3247   -1.9484   -1.5102 O   0  0  0  0  0  0  0  0  0  0  0  0
   -1.4819   -1.8757    0.5987 H   0  0  0  0  0  0  0  0  0  0  0  0
   -2.3888   -0.8421   -0.5201 H   0  0  0  0  0  0  0  0  0  0  0  0
   -2.1443   -0.3440    1.2395 H   0  0  0  0  0  0  0  0  0  0  0  0
   -1.8527    1.3868   -0.7187 H   0  0  0  0  0  0  0  0  0  0  0  0
   -0.1669    1.8280   -1.1289 H   0  0  0  0  0  0  0  0  0  0  0  0
   -0.9798    0.4857   -2.0624 H   0  0  0  0  0  0  0  0  0  0  0  0
   -0.0894    1.4274    1.4603 H   0  0  0  0  0  0  0  0  0  0  0  0
    0.3608   -0.2667    1.8962 H   0  0  0  0  0  0  0  0  0  0  0  0
    1.7036    1.3881   -0.3148 H   0  0  0  0  0  0  0  0  0  0  0  0
    2.4710    0.8235    1.2412 H   0  0  0  0  0  0  0  0  0  0  0  0
  1  2  1  0
  2  3  1  0
  2  4  1  0
  4  5  1  0
  5  6  1  0
  6  7  2  0
  6  8  1  0
  8  9  2  0
  8  2  1  0
  1 10  1  0
  1 11  1  0
  1 12  1  0
  3 13  1  0
  3 14  1  0
  3 15  1  0
  4 16  1  0
  4 17  1  0
  5 18  1  0
  5 19  1  0
M  END
