
     RDKit          3D

 21 22  0  0  0  0  0  0  0  0999 V2000
    0.9203    1.5949   -0.6308 C   0  0  0  0  0  0  0  0  0  0  0  0
    0.5626    0.5281    0.3498 C   0  0  0  0  0  0  0  0  0  0  0  0
    0.7005    0.9311    1.6788 O   0  0  0  0  0  0  0  0  0  0  0  0
    1.2833   -0.8053    0.1522 C   0  0  0  0  0  0  0  0  0  0  0  0
    2.4580   -0.7513   -0.5349 O   0  0  0  0  0  0  0  0  0  0  0  0
    0.0620   -1.2594   -0.6483 C   0  0  0  0  0  0  0  0  0  0  0  0
   -0.6848   -0.1716    0.0288 C   0  0  0  0  0  0  0  0  0  0  0  0
   -1.7582   -0.3492    0.9902 C   0  0  0  0  0  0  0  0  0  0  0  0
   -1.9577    0.3617   -0.3335 C   0  0  0  0  0  0  0  0  0  0  0  0
   -0.0431    1.9533   -1.0908 H   0  0  0  0  0  0  0  0  0  0  0  0
    1.6220    1.2660   -1.4204 H   0  0  0  0  0  0  0  0  0  0  0  0
    1.3146    2.4860   -0.0823 H   0  0  0  0  0  0  0  0  0  0  0  0
    0.3537    0.2312    2.2886 H   0  0  0  0  0  0  0  0  0  0  0  0
    1.3465   -1.4017    1.0684 H   0  0  0  0  0  0  0  0  0  0  0  0
    2.5209   -1.4323   -1.2569 H   0  0  0  0  0  0  0  0  0  0  0  0
    0.2468   -1.1320   -1.7491 H   0  0  0  0  0  0  0  0  0  0  0  0
   -0.3045   -2.2663   -0.3982 H   0  0  0  0  0  0  0  0  0  0  0  0
   -2.1585   -1.3766    1.1209 H   0  0  0  0  0  0  0  0  0  0  0  0
   -1.7445    0.3256    1.8891 H   0  0  0  0  0  0  0  0  0  0  0  0
   -2.5520   -0.1875   -1.1214 H   0  0  0  0  0  0  0  0  0  0  0  0
   -2.1879    1.4552   -0.3001 H   0  0  0  0  0  0  0  0  0  0  0  0
  1  2  1  0
  2  3  1  0
  2  4  1  0
  4  5  1  0
  4  6  1  0
  6  7  1  0
  7  8  1  0
  8  9  1  0
  7  2  1  0
  9  7  1  0
  1 10  1  0
  1 11  1  0
  1 12  1  0
  3 13  1  0
  4 14  1  0
  5 15  1  0
  6 16  1  0
  6 17  1  0
  8 18  1  0
  8 19  1  0
  9 20  1  0
  9 21  1  0
M  END
