
     RDKit          3D

 21 21  0  0  0  0  0  0  0  0999 V2000
    1.8228    0.2848   -0.5954 C   0  0  0  0  0  0  0  0  0  0  0  0
    0.7324    0.2607    0.4345 C   0  0  0  0  0  0  0  0  0  0  0  0
    1.2068    0.7368    1.6495 O   0  0  0  0  0  0  0  0  0  0  0  0
    0.2967   -1.1942    0.5890 C   0  0  0  0  0  0  0  0  0  0  0  0
   -0.6622   -1.3572   -0.5578 C   0  0  0  0  0  0  0  0  0  0  0  0
   -1.5190   -0.1053   -0.3922 C   0  0  0  0  0  0  0  0  0  0  0  0
   -2.4971   -0.3224    0.5579 O   0  0  0  0  0  0  0  0  0  0  0  0
   -0.5181    0.9429    0.0377 C   0  0  0  0  0  0  0  0  0  0  0  0
   -0.3794    1.8900   -0.9600 O   0  0  0  0  0  0  0  0  0  0  0  0
    2.7556   -0.0999   -0.1087 H   0  0  0  0  0  0  0  0  0  0  0  0
    1.6017   -0.4308   -1.4225 H   0  0  0  0  0  0  0  0  0  0  0  0
    2.0190    1.2828   -1.0008 H   0  0  0  0  0  0  0  0  0  0  0  0
    2.0588    1.2109    1.5553 H   0  0  0  0  0  0  0  0  0  0  0  0
   -0.2998   -1.2697    1.5243 H   0  0  0  0  0  0  0  0  0  0  0  0
    1.1690   -1.8412    0.5517 H   0  0  0  0  0  0  0  0  0  0  0  0
   -1.2392   -2.2824   -0.4079 H   0  0  0  0  0  0  0  0  0  0  0  0
   -0.1866   -1.4171   -1.5406 H   0  0  0  0  0  0  0  0  0  0  0  0
   -2.0119    0.1609   -1.3500 H   0  0  0  0  0  0  0  0  0  0  0  0
   -2.1740   -0.3311    1.4848 H   0  0  0  0  0  0  0  0  0  0  0  0
   -0.9268    1.4832    0.9319 H   0  0  0  0  0  0  0  0  0  0  0  0
   -1.2487    2.3983   -0.9807 H   0  0  0  0  0  0  0  0  0  0  0  0
  1  2  1  0
  2  3  1  0
  2  4  1  0
  4  5  1  0
  5  6  1  0
  6  7  1  0
  6  8  1  0
  8  9  1  0
  8  2  1  0
  1 10  1  0
  1 11  1  0
  1 12  1  0
  3 13  1  0
  4 14  1  0
  4 15  1  0
  5 16  1  0
  5 17  1  0
  6 18  1  0
  7 19  1  0
  8 20  1  0
  9 21  1  0
M  END
