
     RDKit          3D

 25 25  0  0  0  0  0  0  0  0999 V2000
   -1.5005   -0.5675    1.0897 C   0  0  0  0  0  0  0  0  0  0  0  0
   -0.7630   -0.1708   -0.1781 C   0  0  0  0  0  0  0  0  0  0  0  0
   -1.8474   -0.0117   -1.2552 C   0  0  0  0  0  0  0  0  0  0  0  0
    0.1476   -1.2617   -0.6597 C   0  0  0  0  0  0  0  0  0  0  0  0
    1.4501   -1.3067    0.0635 C   0  0  0  0  0  0  0  0  0  0  0  0
    2.1315    0.0273    0.0768 C   0  0  0  0  0  0  0  0  0  0  0  0
    1.2493    1.1321    0.5837 C   0  0  0  0  0  0  0  0  0  0  0  0
   -0.0870    1.1538   -0.0671 C   0  0  0  0  0  0  0  0  0  0  0  0
   -0.8955    2.0566    0.6003 O   0  0  0  0  0  0  0  0  0  0  0  0
   -2.5548   -0.8180    0.9135 H   0  0  0  0  0  0  0  0  0  0  0  0
   -1.4603    0.2244    1.8577 H   0  0  0  0  0  0  0  0  0  0  0  0
   -1.0198   -1.4683    1.5137 H   0  0  0  0  0  0  0  0  0  0  0  0
   -2.2743   -0.9815   -1.5319 H   0  0  0  0  0  0  0  0  0  0  0  0
   -1.3831    0.5443   -2.0794 H   0  0  0  0  0  0  0  0  0  0  0  0
   -2.6799    0.5925   -0.8201 H   0  0  0  0  0  0  0  0  0  0  0  0
   -0.3648   -2.2410   -0.5348 H   0  0  0  0  0  0  0  0  0  0  0  0
    0.2887   -1.1396   -1.7617 H   0  0  0  0  0  0  0  0  0  0  0  0
    2.1219   -2.0280   -0.4221 H   0  0  0  0  0  0  0  0  0  0  0  0
    1.2683   -1.6130    1.1063 H   0  0  0  0  0  0  0  0  0  0  0  0
    2.4111    0.3083   -0.9798 H   0  0  0  0  0  0  0  0  0  0  0  0
    3.0595   -0.0384    0.6440 H   0  0  0  0  0  0  0  0  0  0  0  0
    1.7684    2.0978    0.3064 H   0  0  0  0  0  0  0  0  0  0  0  0
    1.1905    1.1678    1.6995 H   0  0  0  0  0  0  0  0  0  0  0  0
    0.0436    1.5465   -1.1142 H   0  0  0  0  0  0  0  0  0  0  0  0
   -0.3005    2.7949    0.9491 H   0  0  0  0  0  0  0  0  0  0  0  0
  1  2  1  0
  2  3  1  0
  2  4  1  0
  4  5  1  0
  5  6  1  0
  6  7  1  0
  7  8  1  0
  8  9  1  0
  8  2  1  0
  1 10  1  0
  1 11  1  0
  1 12  1  0
  3 13  1  0
  3 14  1  0
  3 15  1  0
  4 16  1  0
  4 17  1  0
  5 18  1  0
  5 19  1  0
  6 20  1  0
  6 21  1  0
  7 22  1  0
  7 23  1  0
  8 24  1  0
  9 25  1  0
M  END
