
     RDKit          3D

 19 20  0  0  0  0  0  0  0  0999 V2000
    1.7316   -0.7532    0.5971 C   0  0  0  0  0  0  0  0  0  0  0  0
    0.6446    0.2598    0.3416 C   0  0  0  0  0  0  0  0  0  0  0  0
    0.8132    1.4516    1.1725 C   0  0  0  0  0  0  0  0  0  0  0  0
    0.8771    2.5446    0.6432 O   0  0  0  0  0  0  0  0  0  0  0  0
    0.5854    0.6391   -1.0018 O   0  0  0  0  0  0  0  0  0  0  0  0
   -0.6803    0.2801   -1.3803 C   0  0  0  0  0  0  0  0  0  0  0  0
   -0.7757   -1.1581   -0.8434 C   0  0  0  0  0  0  0  0  0  0  0  0
   -0.6974   -0.3993    0.4911 C   0  0  0  0  0  0  0  0  0  0  0  0
   -1.6016    0.5988   -0.1903 C   0  0  0  0  0  0  0  0  0  0  0  0
    2.3162   -0.4574    1.4957 H   0  0  0  0  0  0  0  0  0  0  0  0
    2.4346   -0.8234   -0.2471 H   0  0  0  0  0  0  0  0  0  0  0  0
    1.3163   -1.7636    0.8310 H   0  0  0  0  0  0  0  0  0  0  0  0
    0.8879    1.4381    2.2550 H   0  0  0  0  0  0  0  0  0  0  0  0
   -1.0549    0.4646   -2.3519 H   0  0  0  0  0  0  0  0  0  0  0  0
    0.1168   -1.7312   -1.0895 H   0  0  0  0  0  0  0  0  0  0  0  0
   -1.7481   -1.6009   -1.0504 H   0  0  0  0  0  0  0  0  0  0  0  0
   -0.9879   -0.8893    1.3712 H   0  0  0  0  0  0  0  0  0  0  0  0
   -2.6221    0.2742   -0.3824 H   0  0  0  0  0  0  0  0  0  0  0  0
   -1.5556    1.6256    0.1518 H   0  0  0  0  0  0  0  0  0  0  0  0
  1  2  1  0
  2  3  1  0
  3  4  2  0
  2  5  1  0
  5  6  1  0
  6  7  1  0
  7  8  1  0
  8  9  1  0
  8  2  1  0
  9  6  1  0
  1 10  1  0
  1 11  1  0
  1 12  1  0
  3 13  1  0
  6 14  1  0
  7 15  1  0
  7 16  1  0
  8 17  1  0
  9 18  1  0
  9 19  1  0
M  END
