
     RDKit          3D

 23 23  0  0  0  0  0  0  0  0999 V2000
    1.1221   -0.7646   -1.2796 C   0  0  0  0  0  0  0  0  0  0  0  0
    0.6031   -0.3761    0.0676 C   0  0  0  0  0  0  0  0  0  0  0  0
    1.1168   -1.2078    1.2217 C   0  0  0  0  0  0  0  0  0  0  0  0
    0.4179    1.1315    0.2894 C   0  0  0  0  0  0  0  0  0  0  0  0
    0.8589    2.0081   -0.8007 C   0  0  0  0  0  0  0  0  0  0  0  0
    0.6354    1.8010   -1.9820 O   0  0  0  0  0  0  0  0  0  0  0  0
   -0.7658    0.2634    0.1976 C   0  0  0  0  0  0  0  0  0  0  0  0
   -1.6313    0.1577   -1.0073 C   0  0  0  0  0  0  0  0  0  0  0  0
   -1.4890   -0.1135    1.4985 C   0  0  0  0  0  0  0  0  0  0  0  0
    1.4475   -1.8286   -1.2785 H   0  0  0  0  0  0  0  0  0  0  0  0
    0.4431   -0.5244   -2.1078 H   0  0  0  0  0  0  0  0  0  0  0  0
    2.0533   -0.1496   -1.4553 H   0  0  0  0  0  0  0  0  0  0  0  0
    2.2029   -1.2603    1.1672 H   0  0  0  0  0  0  0  0  0  0  0  0
    0.7113   -2.2460    1.0510 H   0  0  0  0  0  0  0  0  0  0  0  0
    0.7697   -0.7952    2.1857 H   0  0  0  0  0  0  0  0  0  0  0  0
    0.6925    1.4405    1.3218 H   0  0  0  0  0  0  0  0  0  0  0  0
    1.4216    2.9034   -0.5594 H   0  0  0  0  0  0  0  0  0  0  0  0
   -1.4565   -0.8660   -1.4515 H   0  0  0  0  0  0  0  0  0  0  0  0
   -2.7279    0.1348   -0.7344 H   0  0  0  0  0  0  0  0  0  0  0  0
   -1.5259    0.9515   -1.7458 H   0  0  0  0  0  0  0  0  0  0  0  0
   -2.5845   -0.0429    1.3865 H   0  0  0  0  0  0  0  0  0  0  0  0
   -1.1035    0.5504    2.3138 H   0  0  0  0  0  0  0  0  0  0  0  0
   -1.2119   -1.1673    1.7017 H   0  0  0  0  0  0  0  0  0  0  0  0
  1  2  1  0
  2  3  1  0
  2  4  1  0
  4  5  1  0
  5  6  2  0
  4  7  1  0
  7  8  1  0
  7  9  1  0
  7  2  1  0
  1 10  1  0
  1 11  1  0
  1 12  1  0
  3 13  1  0
  3 14  1  0
  3 15  1  0
  4 16  1  0
  5 17  1  0
  8 18  1  0
  8 19  1  0
  8 20  1  0
  9 21  1  0
  9 22  1  0
  9 23  1  0
M  END
