
     RDKit          3D

 19 21  0  0  0  0  0  0  0  0999 V2000
    1.3886   -0.8812   -0.6028 C   0  0  0  0  0  0  0  0  0  0  0  0
    0.4182    0.0860    0.0693 C   0  0  0  0  0  0  0  0  0  0  0  0
    1.2271    1.1886    0.6662 C   0  0  0  0  0  0  0  0  0  0  0  0
   -0.3924   -0.6954    1.0408 C   0  0  0  0  0  0  0  0  0  0  0  0
   -1.4705   -0.1711    1.6964 O   0  0  0  0  0  0  0  0  0  0  0  0
   -1.7421   -0.7484    0.4556 C   0  0  0  0  0  0  0  0  0  0  0  0
   -1.7700    0.1156   -0.7758 C   0  0  0  0  0  0  0  0  0  0  0  0
   -1.4768    1.5403   -0.4384 O   0  0  0  0  0  0  0  0  0  0  0  0
   -0.5243    0.6857   -0.9467 C   0  0  0  0  0  0  0  0  0  0  0  0
    0.9687   -1.9194   -0.5420 H   0  0  0  0  0  0  0  0  0  0  0  0
    1.4955   -0.6204   -1.6707 H   0  0  0  0  0  0  0  0  0  0  0  0
    2.3505   -0.9150   -0.0554 H   0  0  0  0  0  0  0  0  0  0  0  0
    1.3739    2.0468   -0.0480 H   0  0  0  0  0  0  0  0  0  0  0  0
    0.7416    1.6123    1.5497 H   0  0  0  0  0  0  0  0  0  0  0  0
    2.2591    0.8184    0.8847 H   0  0  0  0  0  0  0  0  0  0  0  0
    0.0736   -1.5839    1.5383 H   0  0  0  0  0  0  0  0  0  0  0  0
   -2.2344   -1.7164    0.4006 H   0  0  0  0  0  0  0  0  0  0  0  0
   -2.6857    0.1097   -1.3616 H   0  0  0  0  0  0  0  0  0  0  0  0
   -0.0008    1.0477   -1.8601 H   0  0  0  0  0  0  0  0  0  0  0  0
  1  2  1  0
  2  3  1  0
  2  4  1  0
  4  5  1  0
  5  6  1  0
  6  7  1  0
  7  8  1  0
  8  9  1  0
  9  2  1  0
  6  4  1  0
  9  7  1  0
  1 10  1  0
  1 11  1  0
  1 12  1  0
  3 13  1  0
  3 14  1  0
  3 15  1  0
  4 16  1  0
  6 17  1  0
  7 18  1  0
  9 19  1  0
M  END
