
     RDKit          3D

 21 22  0  0  0  0  0  0  0  0999 V2000
    2.1877   -0.3739    0.7079 C   0  0  0  0  0  0  0  0  0  0  0  0
    1.0730    0.0681   -0.2330 C   0  0  0  0  0  0  0  0  0  0  0  0
    1.5037    1.0164   -1.1257 O   0  0  0  0  0  0  0  0  0  0  0  0
    0.3352   -1.1066   -0.7694 C   0  0  0  0  0  0  0  0  0  0  0  0
   -0.7878   -0.8292    0.1678 C   0  0  0  0  0  0  0  0  0  0  0  0
   -2.2114   -0.9888   -0.2592 C   0  0  0  0  0  0  0  0  0  0  0  0
   -0.5779   -0.4282    1.4656 O   0  0  0  0  0  0  0  0  0  0  0  0
   -0.1838    0.4617    0.5063 C   0  0  0  0  0  0  0  0  0  0  0  0
   -0.8360    1.7665    0.2870 C   0  0  0  0  0  0  0  0  0  0  0  0
    1.7210   -0.8789    1.5976 H   0  0  0  0  0  0  0  0  0  0  0  0
    2.8567   -1.0798    0.1570 H   0  0  0  0  0  0  0  0  0  0  0  0
    2.7606    0.4726    1.0967 H   0  0  0  0  0  0  0  0  0  0  0  0
    2.0208    1.6945   -0.6085 H   0  0  0  0  0  0  0  0  0  0  0  0
    0.8613   -2.0581   -0.6785 H   0  0  0  0  0  0  0  0  0  0  0  0
   -0.0105   -0.9901   -1.8371 H   0  0  0  0  0  0  0  0  0  0  0  0
   -2.3682   -2.0756   -0.5207 H   0  0  0  0  0  0  0  0  0  0  0  0
   -2.5054   -0.3466   -1.1110 H   0  0  0  0  0  0  0  0  0  0  0  0
   -2.8888   -0.7720    0.5659 H   0  0  0  0  0  0  0  0  0  0  0  0
   -1.8369    1.7129   -0.2014 H   0  0  0  0  0  0  0  0  0  0  0  0
   -0.9090    2.3698    1.2154 H   0  0  0  0  0  0  0  0  0  0  0  0
   -0.2043    2.3653   -0.4225 H   0  0  0  0  0  0  0  0  0  0  0  0
  1  2  1  0
  2  3  1  0
  2  4  1  0
  4  5  1  0
  5  6  1  0
  5  7  1  0
  7  8  1  0
  8  9  1  0
  8  2  1  0
  8  5  1  0
  1 10  1  0
  1 11  1  0
  1 12  1  0
  3 13  1  0
  4 14  1  0
  4 15  1  0
  6 16  1  0
  6 17  1  0
  6 18  1  0
  9 19  1  0
  9 20  1  0
  9 21  1  0
M  END
