
     RDKit          3D

 21 21  0  0  0  0  0  0  0  0999 V2000
   -1.4046   -1.8642    0.0174 C   0  0  0  0  0  0  0  0  0  0  0  0
   -0.6569   -0.6357   -0.4841 C   0  0  0  0  0  0  0  0  0  0  0  0
   -0.9303   -0.2955   -1.7982 O   0  0  0  0  0  0  0  0  0  0  0  0
    0.6706   -0.4126    0.1074 C   0  0  0  0  0  0  0  0  0  0  0  0
    1.8118   -0.0363   -0.8012 C   0  0  0  0  0  0  0  0  0  0  0  0
    3.0031    0.1427   -0.1081 O   0  0  0  0  0  0  0  0  0  0  0  0
   -0.4191    0.5058    0.4362 C   0  0  0  0  0  0  0  0  0  0  0  0
   -0.4441    1.9237   -0.0651 C   0  0  0  0  0  0  0  0  0  0  0  0
   -1.0560    0.3652    1.6913 O   0  0  0  0  0  0  0  0  0  0  0  0
   -2.1219   -2.2212   -0.7242 H   0  0  0  0  0  0  0  0  0  0  0  0
   -0.6344   -2.6575    0.1422 H   0  0  0  0  0  0  0  0  0  0  0  0
   -1.8357   -1.6836    1.0174 H   0  0  0  0  0  0  0  0  0  0  0  0
   -0.1565   -0.2746   -2.3875 H   0  0  0  0  0  0  0  0  0  0  0  0
    0.9987   -1.0920    0.9447 H   0  0  0  0  0  0  0  0  0  0  0  0
    1.9862   -0.8912   -1.5068 H   0  0  0  0  0  0  0  0  0  0  0  0
    1.6190    0.9036   -1.3677 H   0  0  0  0  0  0  0  0  0  0  0  0
    2.8823    0.5917    0.7639 H   0  0  0  0  0  0  0  0  0  0  0  0
    0.1807    2.5270    0.6359 H   0  0  0  0  0  0  0  0  0  0  0  0
   -0.0344    2.0594   -1.0642 H   0  0  0  0  0  0  0  0  0  0  0  0
   -1.4594    2.3668   -0.0512 H   0  0  0  0  0  0  0  0  0  0  0  0
   -1.9988    0.6784    1.5231 H   0  0  0  0  0  0  0  0  0  0  0  0
  1  2  1  0
  2  3  1  0
  2  4  1  0
  4  5  1  0
  5  6  1  0
  4  7  1  0
  7  8  1  0
  7  9  1  0
  7  2  1  0
  1 10  1  0
  1 11  1  0
  1 12  1  0
  3 13  1  0
  4 14  1  0
  5 15  1  0
  5 16  1  0
  6 17  1  0
  8 18  1  0
  8 19  1  0
  8 20  1  0
  9 21  1  0
M  END
