
     RDKit          3D

 19 19  0  0  0  0  0  0  0  0999 V2000
   -0.8160   -1.2539   -1.2708 C   0  0  0  0  0  0  0  0  0  0  0  0
   -0.4138   -0.2374   -0.2576 C   0  0  0  0  0  0  0  0  0  0  0  0
    1.0366   -0.2296   -0.0522 C   0  0  0  0  0  0  0  0  0  0  0  0
    2.2469   -0.2181    0.1044 C   0  0  0  0  0  0  0  0  0  0  0  0
    3.6699   -0.1867    0.2713 C   0  0  0  0  0  0  0  0  0  0  0  0
    4.3453    0.8701    0.2505 O   0  0  0  0  0  0  0  0  0  0  0  0
   -0.9617    1.1548   -0.4648 C   0  0  0  0  0  0  0  0  0  0  0  0
   -1.3795    1.2074    0.9896 C   0  0  0  0  0  0  0  0  0  0  0  0
   -1.2182   -0.3015    1.0275 C   0  0  0  0  0  0  0  0  0  0  0  0
   -1.2053   -2.1666   -0.7522 H   0  0  0  0  0  0  0  0  0  0  0  0
   -1.6601   -0.8283   -1.8778 H   0  0  0  0  0  0  0  0  0  0  0  0
   -0.0209   -1.5122   -1.9907 H   0  0  0  0  0  0  0  0  0  0  0  0
    4.2009   -1.1118    0.4235 H   0  0  0  0  0  0  0  0  0  0  0  0
   -0.2119    1.9175   -0.7630 H   0  0  0  0  0  0  0  0  0  0  0  0
   -1.8159    1.1920   -1.1627 H   0  0  0  0  0  0  0  0  0  0  0  0
   -0.6406    1.7683    1.6041 H   0  0  0  0  0  0  0  0  0  0  0  0
   -2.4237    1.4903    1.1113 H   0  0  0  0  0  0  0  0  0  0  0  0
   -0.5777   -0.6839    1.8474 H   0  0  0  0  0  0  0  0  0  0  0  0
   -2.1542   -0.8703    0.9622 H   0  0  0  0  0  0  0  0  0  0  0  0
  1  2  1  0
  2  3  1  0
  3  4  3  0
  4  5  1  0
  5  6  2  0
  2  7  1  0
  7  8  1  0
  8  9  1  0
  9  2  1  0
  1 10  1  0
  1 11  1  0
  1 12  1  0
  5 13  1  0
  7 14  1  0
  7 15  1  0
  8 16  1  0
  8 17  1  0
  9 18  1  0
  9 19  1  0
M  END
