
     RDKit          3D

 21 21  0  0  0  0  0  0  0  0999 V2000
    1.3338   -0.8265   -0.7361 C   0  0  0  0  0  0  0  0  0  0  0  0
    0.7560    0.2279    0.1821 C   0  0  0  0  0  0  0  0  0  0  0  0
    1.5738    0.3426    1.2997 O   0  0  0  0  0  0  0  0  0  0  0  0
    0.6827    1.4906   -0.5907 C   0  0  0  0  0  0  0  0  0  0  0  0
   -0.5174    1.5744   -1.1273 C   0  0  0  0  0  0  0  0  0  0  0  0
   -1.3484    0.3826   -0.7624 C   0  0  0  0  0  0  0  0  0  0  0  0
   -0.6596   -0.0230    0.5490 C   0  0  0  0  0  0  0  0  0  0  0  0
   -1.0011   -1.4303    0.8749 C   0  0  0  0  0  0  0  0  0  0  0  0
   -1.0571    0.8951    1.4976 O   0  0  0  0  0  0  0  0  0  0  0  0
    1.5833   -1.7656   -0.2070 H   0  0  0  0  0  0  0  0  0  0  0  0
    2.3264   -0.4137   -1.0813 H   0  0  0  0  0  0  0  0  0  0  0  0
    0.7317   -0.9612   -1.6399 H   0  0  0  0  0  0  0  0  0  0  0  0
    2.5100    0.3468    1.0290 H   0  0  0  0  0  0  0  0  0  0  0  0
    1.5208    2.2019   -0.6690 H   0  0  0  0  0  0  0  0  0  0  0  0
   -0.9030    2.3722   -1.7538 H   0  0  0  0  0  0  0  0  0  0  0  0
   -1.2354   -0.4455   -1.4764 H   0  0  0  0  0  0  0  0  0  0  0  0
   -2.3840    0.6454   -0.5196 H   0  0  0  0  0  0  0  0  0  0  0  0
   -0.6271   -2.0866    0.0789 H   0  0  0  0  0  0  0  0  0  0  0  0
   -0.5874   -1.7210    1.8498 H   0  0  0  0  0  0  0  0  0  0  0  0
   -2.1281   -1.5093    0.8761 H   0  0  0  0  0  0  0  0  0  0  0  0
   -0.5698    0.7033    2.3262 H   0  0  0  0  0  0  0  0  0  0  0  0
  1  2  1  0
  2  3  1  0
  2  4  1  0
  4  5  2  0
  5  6  1  0
  6  7  1  0
  7  8  1  0
  7  9  1  0
  7  2  1  0
  1 10  1  0
  1 11  1  0
  1 12  1  0
  3 13  1  0
  4 14  1  0
  5 15  1  0
  6 16  1  0
  6 17  1  0
  8 18  1  0
  8 19  1  0
  8 20  1  0
  9 21  1  0
M  END
