
     RDKit          3D

 21 22  0  0  0  0  0  0  0  0999 V2000
   -1.8694   -1.1034   -0.6593 C   0  0  0  0  0  0  0  0  0  0  0  0
   -1.1057   -0.0206    0.1090 C   0  0  0  0  0  0  0  0  0  0  0  0
   -2.0075    1.0244    0.7030 C   0  0  0  0  0  0  0  0  0  0  0  0
   -0.2127   -0.6341    1.1533 O   0  0  0  0  0  0  0  0  0  0  0  0
    0.2401    0.0624    0.0653 C   0  0  0  0  0  0  0  0  0  0  0  0
    1.2074   -0.6283   -0.8531 C   0  0  0  0  0  0  0  0  0  0  0  0
    2.3219    0.1786   -0.1772 C   0  0  0  0  0  0  0  0  0  0  0  0
    2.7866   -0.4928    0.9517 O   0  0  0  0  0  0  0  0  0  0  0  0
    1.2195    1.1539    0.2577 C   0  0  0  0  0  0  0  0  0  0  0  0
   -1.6849   -0.9424   -1.7590 H   0  0  0  0  0  0  0  0  0  0  0  0
   -1.4331   -2.1171   -0.4535 H   0  0  0  0  0  0  0  0  0  0  0  0
   -2.9528   -1.0835   -0.4180 H   0  0  0  0  0  0  0  0  0  0  0  0
   -1.9646    1.0210    1.8322 H   0  0  0  0  0  0  0  0  0  0  0  0
   -3.0846    0.8570    0.4684 H   0  0  0  0  0  0  0  0  0  0  0  0
   -1.7264    2.0597    0.4094 H   0  0  0  0  0  0  0  0  0  0  0  0
    1.0763   -0.3383   -1.9291 H   0  0  0  0  0  0  0  0  0  0  0  0
    1.2923   -1.7108   -0.7497 H   0  0  0  0  0  0  0  0  0  0  0  0
    3.0688    0.5935   -0.8484 H   0  0  0  0  0  0  0  0  0  0  0  0
    2.3231   -1.3836    1.0584 H   0  0  0  0  0  0  0  0  0  0  0  0
    1.1857    1.9976   -0.4644 H   0  0  0  0  0  0  0  0  0  0  0  0
    1.3201    1.5068    1.3034 H   0  0  0  0  0  0  0  0  0  0  0  0
  1  2  1  0
  2  3  1  0
  2  4  1  0
  4  5  1  0
  5  6  1  0
  6  7  1  0
  7  8  1  0
  7  9  1  0
  5  2  1  0
  9  5  1  0
  1 10  1  0
  1 11  1  0
  1 12  1  0
  3 13  1  0
  3 14  1  0
  3 15  1  0
  6 16  1  0
  6 17  1  0
  7 18  1  0
  8 19  1  0
  9 20  1  0
  9 21  1  0
M  END
