
     RDKit          3D

 18 19  0  0  0  0  0  0  0  0999 V2000
   -2.1174   -0.5514   -0.9041 C   0  0  0  0  0  0  0  0  0  0  0  0
   -0.8405    0.0392   -0.2949 C   0  0  0  0  0  0  0  0  0  0  0  0
   -1.0265    0.4530    1.1237 C   0  0  0  0  0  0  0  0  0  0  0  0
   -0.1242    0.9583   -1.0728 O   0  0  0  0  0  0  0  0  0  0  0  0
    0.4137   -0.3145   -0.9114 C   0  0  0  0  0  0  0  0  0  0  0  0
    1.7143   -0.4558   -0.1643 C   0  0  0  0  0  0  0  0  0  0  0  0
    2.5451    0.6561    0.2269 C   0  0  0  0  0  0  0  0  0  0  0  0
    1.6820    0.0247    1.2193 O   0  0  0  0  0  0  0  0  0  0  0  0
   -2.0724   -0.6155   -1.9895 H   0  0  0  0  0  0  0  0  0  0  0  0
   -2.1552   -1.6063   -0.5023 H   0  0  0  0  0  0  0  0  0  0  0  0
   -3.0050   -0.0245   -0.5136 H   0  0  0  0  0  0  0  0  0  0  0  0
   -0.3186    1.2019    1.4929 H   0  0  0  0  0  0  0  0  0  0  0  0
   -2.0527    0.9196    1.2000 H   0  0  0  0  0  0  0  0  0  0  0  0
   -1.0641   -0.4731    1.7469 H   0  0  0  0  0  0  0  0  0  0  0  0
    0.3769   -0.9262   -1.8369 H   0  0  0  0  0  0  0  0  0  0  0  0
    2.1602   -1.4705   -0.1665 H   0  0  0  0  0  0  0  0  0  0  0  0
    2.2843    1.7076    0.0280 H   0  0  0  0  0  0  0  0  0  0  0  0
    3.5999    0.4775    0.4601 H   0  0  0  0  0  0  0  0  0  0  0  0
  1  2  1  0
  2  3  1  0
  2  4  1  0
  4  5  1  0
  5  6  1  0
  6  7  1  0
  7  8  1  0
  5  2  1  0
  8  6  1  0
  1  9  1  0
  1 10  1  0
  1 11  1  0
  3 12  1  0
  3 13  1  0
  3 14  1  0
  5 15  1  0
  6 16  1  0
  7 17  1  0
  7 18  1  0
M  END
