
     RDKit          3D

 19 21  0  0  0  0  0  0  0  0999 V2000
    2.1812    0.4762   -0.7385 C   0  0  0  0  0  0  0  0  0  0  0  0
    0.8680    0.3384   -0.0571 C   0  0  0  0  0  0  0  0  0  0  0  0
    0.7267    0.9900    1.1668 O   0  0  0  0  0  0  0  0  0  0  0  0
    0.2540   -1.0188   -0.0161 C   0  0  0  0  0  0  0  0  0  0  0  0
   -0.2647   -0.7736   -1.2820 O   0  0  0  0  0  0  0  0  0  0  0  0
   -0.3602    0.5594   -0.8957 C   0  0  0  0  0  0  0  0  0  0  0  0
   -1.4636    0.5043    0.1326 C   0  0  0  0  0  0  0  0  0  0  0  0
   -2.2963   -0.7029    0.2517 C   0  0  0  0  0  0  0  0  0  0  0  0
   -0.9610   -0.7895    0.8728 C   0  0  0  0  0  0  0  0  0  0  0  0
    2.9428   -0.2482   -0.3895 H   0  0  0  0  0  0  0  0  0  0  0  0
    2.5249    1.5257   -0.6230 H   0  0  0  0  0  0  0  0  0  0  0  0
    2.0551    0.3074   -1.8236 H   0  0  0  0  0  0  0  0  0  0  0  0
    1.3462    0.6575    1.8578 H   0  0  0  0  0  0  0  0  0  0  0  0
    0.8476   -1.8849    0.1516 H   0  0  0  0  0  0  0  0  0  0  0  0
   -0.3685    1.3231   -1.6358 H   0  0  0  0  0  0  0  0  0  0  0  0
   -1.6266    1.3811    0.7567 H   0  0  0  0  0  0  0  0  0  0  0  0
   -2.4695   -1.3554   -0.6253 H   0  0  0  0  0  0  0  0  0  0  0  0
   -3.1506   -0.6558    0.9482 H   0  0  0  0  0  0  0  0  0  0  0  0
   -0.7854   -0.6342    1.9485 H   0  0  0  0  0  0  0  0  0  0  0  0
  1  2  1  0
  2  3  1  0
  2  4  1  0
  4  5  1  0
  5  6  1  0
  6  7  1  0
  7  8  1  0
  8  9  1  0
  6  2  1  0
  9  7  1  0
  9  4  1  0
  1 10  1  0
  1 11  1  0
  1 12  1  0
  3 13  1  0
  4 14  1  0
  6 15  1  0
  7 16  1  0
  8 17  1  0
  8 18  1  0
  9 19  1  0
M  END
