
     RDKit          3D

 23 24  0  0  0  0  0  0  0  0999 V2000
    1.0005   -0.9507    1.0741 C   0  0  0  0  0  0  0  0  0  0  0  0
    0.7909    0.0524   -0.0072 C   0  0  0  0  0  0  0  0  0  0  0  0
    2.0522    0.5326   -0.6984 C   0  0  0  0  0  0  0  0  0  0  0  0
   -0.1434    1.1535    0.4398 C   0  0  0  0  0  0  0  0  0  0  0  0
   -1.1883    0.5124    1.2984 C   0  0  0  0  0  0  0  0  0  0  0  0
   -1.7492   -0.5996    0.8365 C   0  0  0  0  0  0  0  0  0  0  0  0
   -1.3868   -1.0957   -0.5105 C   0  0  0  0  0  0  0  0  0  0  0  0
   -0.2518   -0.2924   -1.0484 C   0  0  0  0  0  0  0  0  0  0  0  0
   -0.6782    1.1819   -0.9774 C   0  0  0  0  0  0  0  0  0  0  0  0
    0.6890   -1.9712    0.8268 H   0  0  0  0  0  0  0  0  0  0  0  0
    0.4699   -0.6793    2.0339 H   0  0  0  0  0  0  0  0  0  0  0  0
    2.0932   -0.9013    1.3594 H   0  0  0  0  0  0  0  0  0  0  0  0
    1.8152    0.9220   -1.7068 H   0  0  0  0  0  0  0  0  0  0  0  0
    2.6503    1.2058   -0.0840 H   0  0  0  0  0  0  0  0  0  0  0  0
    2.6694   -0.3879   -0.8735 H   0  0  0  0  0  0  0  0  0  0  0  0
    0.3036    2.0627    0.8167 H   0  0  0  0  0  0  0  0  0  0  0  0
   -1.4776    0.9238    2.2442 H   0  0  0  0  0  0  0  0  0  0  0  0
   -2.4775   -1.1697    1.4201 H   0  0  0  0  0  0  0  0  0  0  0  0
   -2.2848   -0.8959   -1.1664 H   0  0  0  0  0  0  0  0  0  0  0  0
   -1.2296   -2.1832   -0.5550 H   0  0  0  0  0  0  0  0  0  0  0  0
    0.1286   -0.5471   -2.0347 H   0  0  0  0  0  0  0  0  0  0  0  0
   -0.0338    1.8234   -1.6068 H   0  0  0  0  0  0  0  0  0  0  0  0
   -1.7618    1.3035   -1.0809 H   0  0  0  0  0  0  0  0  0  0  0  0
  1  2  1  0
  2  3  1  0
  2  4  1  0
  4  5  1  0
  5  6  2  0
  6  7  1  0
  7  8  1  0
  8  9  1  0
  8  2  1  0
  9  4  1  0
  1 10  1  0
  1 11  1  0
  1 12  1  0
  3 13  1  0
  3 14  1  0
  3 15  1  0
  4 16  1  0
  5 17  1  0
  6 18  1  0
  7 19  1  0
  7 20  1  0
  8 21  1  0
  9 22  1  0
  9 23  1  0
M  END
