
     RDKit          3D

 21 22  0  0  0  0  0  0  0  0999 V2000
   -1.2277    0.9339   -0.9230 C   0  0  0  0  0  0  0  0  0  0  0  0
   -0.7526   -0.1352   -0.0020 C   0  0  0  0  0  0  0  0  0  0  0  0
   -1.9481   -0.9816    0.4477 C   0  0  0  0  0  0  0  0  0  0  0  0
    0.0708   -1.0205   -0.6669 O   0  0  0  0  0  0  0  0  0  0  0  0
    1.3574   -0.7180   -0.8363 C   0  0  0  0  0  0  0  0  0  0  0  0
    2.0356    0.0404    0.3143 C   0  0  0  0  0  0  0  0  0  0  0  0
    1.1116    1.1369    0.6303 C   0  0  0  0  0  0  0  0  0  0  0  0
    0.3745    1.4702    1.6582 O   0  0  0  0  0  0  0  0  0  0  0  0
   -0.0731    0.3212    1.2182 C   0  0  0  0  0  0  0  0  0  0  0  0
   -2.2144    0.6180   -1.3605 H   0  0  0  0  0  0  0  0  0  0  0  0
   -1.3780    1.9184   -0.4394 H   0  0  0  0  0  0  0  0  0  0  0  0
   -0.5551    1.0612   -1.7952 H   0  0  0  0  0  0  0  0  0  0  0  0
   -1.5121   -1.9407    0.8408 H   0  0  0  0  0  0  0  0  0  0  0  0
   -2.5757   -1.1861   -0.4160 H   0  0  0  0  0  0  0  0  0  0  0  0
   -2.4530   -0.5099    1.3006 H   0  0  0  0  0  0  0  0  0  0  0  0
    1.5315   -0.1683   -1.7877 H   0  0  0  0  0  0  0  0  0  0  0  0
    1.9548   -1.6730   -0.9235 H   0  0  0  0  0  0  0  0  0  0  0  0
    3.0334    0.3405   -0.0054 H   0  0  0  0  0  0  0  0  0  0  0  0
    2.1517   -0.7213    1.1361 H   0  0  0  0  0  0  0  0  0  0  0  0
    0.8753    1.7537   -0.2906 H   0  0  0  0  0  0  0  0  0  0  0  0
    0.1932   -0.5398    1.9003 H   0  0  0  0  0  0  0  0  0  0  0  0
  1  2  1  0
  2  3  1  0
  2  4  1  0
  4  5  1  0
  5  6  1  0
  6  7  1  0
  7  8  1  0
  8  9  1  0
  9  2  1  0
  9  7  1  0
  1 10  1  0
  1 11  1  0
  1 12  1  0
  3 13  1  0
  3 14  1  0
  3 15  1  0
  5 16  1  0
  5 17  1  0
  6 18  1  0
  6 19  1  0
  7 20  1  0
  9 21  1  0
M  END
