
     RDKit          3D

 19 19  0  0  0  0  0  0  0  0999 V2000
   -1.2741   -0.9314    0.9459 C   0  0  0  0  0  0  0  0  0  0  0  0
   -0.3898   -0.1814   -0.0098 C   0  0  0  0  0  0  0  0  0  0  0  0
   -1.2613    0.5995   -0.9540 C   0  0  0  0  0  0  0  0  0  0  0  0
    0.4279   -1.1822   -0.7487 C   0  0  0  0  0  0  0  0  0  0  0  0
    1.6807   -0.7595   -0.8703 C   0  0  0  0  0  0  0  0  0  0  0  0
    1.8029    0.5524   -0.2257 C   0  0  0  0  0  0  0  0  0  0  0  0
    2.7006    1.4124   -0.4126 O   0  0  0  0  0  0  0  0  0  0  0  0
    0.6374    0.6381    0.6915 C   0  0  0  0  0  0  0  0  0  0  0  0
    0.2479    1.9366    0.9522 O   0  0  0  0  0  0  0  0  0  0  0  0
   -0.6550   -1.6782    1.4716 H   0  0  0  0  0  0  0  0  0  0  0  0
   -2.0538   -1.4652    0.3999 H   0  0  0  0  0  0  0  0  0  0  0  0
   -1.7772   -0.2624    1.6775 H   0  0  0  0  0  0  0  0  0  0  0  0
   -0.8698    1.6321   -1.1388 H   0  0  0  0  0  0  0  0  0  0  0  0
   -2.3304    0.6273   -0.6310 H   0  0  0  0  0  0  0  0  0  0  0  0
   -1.2451    0.0795   -1.9324 H   0  0  0  0  0  0  0  0  0  0  0  0
    0.0448   -2.1364   -1.1377 H   0  0  0  0  0  0  0  0  0  0  0  0
    2.5255   -1.2576   -1.3569 H   0  0  0  0  0  0  0  0  0  0  0  0
    0.9338    0.0871    1.6255 H   0  0  0  0  0  0  0  0  0  0  0  0
    0.8549    2.2891    1.6538 H   0  0  0  0  0  0  0  0  0  0  0  0
  1  2  1  0
  2  3  1  0
  2  4  1  0
  4  5  2  0
  5  6  1  0
  6  7  2  0
  6  8  1  0
  8  9  1  0
  8  2  1  0
  1 10  1  0
  1 11  1  0
  1 12  1  0
  3 13  1  0
  3 14  1  0
  3 15  1  0
  4 16  1  0
  5 17  1  0
  8 18  1  0
  9 19  1  0
M  END
