
     RDKit          3D

 23 24  0  0  0  0  0  0  0  0999 V2000
   -1.7431   -1.0908   -0.8031 C   0  0  0  0  0  0  0  0  0  0  0  0
   -1.1797    0.0914   -0.0778 C   0  0  0  0  0  0  0  0  0  0  0  0
   -1.8893    0.4158    1.2453 C   0  0  0  0  0  0  0  0  0  0  0  0
   -0.7568    1.3228   -0.8495 C   0  0  0  0  0  0  0  0  0  0  0  0
    0.2286    0.4784   -0.1323 C   0  0  0  0  0  0  0  0  0  0  0  0
    1.2405   -0.2086   -1.0024 C   0  0  0  0  0  0  0  0  0  0  0  0
    2.2676   -0.6684    0.0201 C   0  0  0  0  0  0  0  0  0  0  0  0
    1.9985    0.1875    1.2032 C   0  0  0  0  0  0  0  0  0  0  0  0
    0.8926    0.9592    0.9699 O   0  0  0  0  0  0  0  0  0  0  0  0
   -0.9910   -1.9003   -0.9714 H   0  0  0  0  0  0  0  0  0  0  0  0
   -2.2204   -0.8273   -1.7782 H   0  0  0  0  0  0  0  0  0  0  0  0
   -2.5666   -1.5852   -0.2141 H   0  0  0  0  0  0  0  0  0  0  0  0
   -1.1812    0.1624    2.0762 H   0  0  0  0  0  0  0  0  0  0  0  0
   -2.0968    1.5011    1.3327 H   0  0  0  0  0  0  0  0  0  0  0  0
   -2.8185   -0.1452    1.3580 H   0  0  0  0  0  0  0  0  0  0  0  0
   -0.8564    1.2034   -1.9573 H   0  0  0  0  0  0  0  0  0  0  0  0
   -0.9407    2.3267   -0.4060 H   0  0  0  0  0  0  0  0  0  0  0  0
    0.8605   -1.0507   -1.5733 H   0  0  0  0  0  0  0  0  0  0  0  0
    1.7014    0.5964   -1.6463 H   0  0  0  0  0  0  0  0  0  0  0  0
    2.1110   -1.7450    0.1696 H   0  0  0  0  0  0  0  0  0  0  0  0
    3.2590   -0.5220   -0.4478 H   0  0  0  0  0  0  0  0  0  0  0  0
    1.8116   -0.3871    2.1479 H   0  0  0  0  0  0  0  0  0  0  0  0
    2.8691    0.8856    1.3366 H   0  0  0  0  0  0  0  0  0  0  0  0
  1  2  1  0
  2  3  1  0
  2  4  1  0
  4  5  1  0
  5  6  1  0
  6  7  1  0
  7  8  1  0
  8  9  1  0
  5  2  1  0
  9  5  1  0
  1 10  1  0
  1 11  1  0
  1 12  1  0
  3 13  1  0
  3 14  1  0
  3 15  1  0
  4 16  1  0
  4 17  1  0
  6 18  1  0
  6 19  1  0
  7 20  1  0
  7 21  1  0
  8 22  1  0
  8 23  1  0
M  END
