
     RDKit          3D

 15 15  0  0  0  0  0  0  0  0999 V2000
   -1.3530   -0.2860   -0.7719 C   0  0  0  0  0  0  0  0  0  0  0  0
   -0.4026    0.1576    0.2850 C   0  0  0  0  0  0  0  0  0  0  0  0
   -1.0317    0.6319    1.4282 O   0  0  0  0  0  0  0  0  0  0  0  0
    0.7845    0.9481   -0.1296 C   0  0  0  0  0  0  0  0  0  0  0  0
    1.5119   -0.3221   -0.3672 C   0  0  0  0  0  0  0  0  0  0  0  0
    2.4497   -0.6248   -1.0706 O   0  0  0  0  0  0  0  0  0  0  0  0
    0.5809   -0.9679    0.6127 C   0  0  0  0  0  0  0  0  0  0  0  0
   -0.8512   -1.0534   -1.4113 H   0  0  0  0  0  0  0  0  0  0  0  0
   -1.7039    0.5008   -1.4440 H   0  0  0  0  0  0  0  0  0  0  0  0
   -2.2555   -0.7108   -0.2610 H   0  0  0  0  0  0  0  0  0  0  0  0
   -0.8263    1.5991    1.4914 H   0  0  0  0  0  0  0  0  0  0  0  0
    1.2261    1.4912    0.7565 H   0  0  0  0  0  0  0  0  0  0  0  0
    0.6993    1.5710   -1.0345 H   0  0  0  0  0  0  0  0  0  0  0  0
    0.9373   -0.9733    1.6552 H   0  0  0  0  0  0  0  0  0  0  0  0
    0.2346   -1.9613    0.2612 H   0  0  0  0  0  0  0  0  0  0  0  0
  1  2  1  0
  2  3  1  0
  2  4  1  0
  4  5  1  0
  5  6  2  0
  5  7  1  0
  7  2  1  0
  1  8  1  0
  1  9  1  0
  1 10  1  0
  3 11  1  0
  4 12  1  0
  4 13  1  0
  7 14  1  0
  7 15  1  0
M  END
