
     RDKit          3D

 23 24  0  0  0  0  0  0  0  0999 V2000
   -0.1384   -1.4457   -1.2826 C   0  0  0  0  0  0  0  0  0  0  0  0
   -0.3472   -0.2932   -0.3503 C   0  0  0  0  0  0  0  0  0  0  0  0
    0.9232    0.3976   -0.0246 C   0  0  0  0  0  0  0  0  0  0  0  0
    1.9680   -0.4741    0.6470 C   0  0  0  0  0  0  0  0  0  0  0  0
    1.1202    1.8160   -0.0018 C   0  0  0  0  0  0  0  0  0  0  0  0
    1.4597    1.0678   -1.2402 O   0  0  0  0  0  0  0  0  0  0  0  0
   -1.0467   -0.7389    0.9413 C   0  0  0  0  0  0  0  0  0  0  0  0
   -1.7297    0.6353    0.8938 C   0  0  0  0  0  0  0  0  0  0  0  0
   -1.5501    0.5721   -0.6197 C   0  0  0  0  0  0  0  0  0  0  0  0
    0.5778   -2.1541   -0.8107 H   0  0  0  0  0  0  0  0  0  0  0  0
    0.3623   -1.0615   -2.2012 H   0  0  0  0  0  0  0  0  0  0  0  0
   -1.0977   -1.9328   -1.4855 H   0  0  0  0  0  0  0  0  0  0  0  0
    2.7050   -0.7957   -0.1123 H   0  0  0  0  0  0  0  0  0  0  0  0
    2.4507    0.0616    1.5033 H   0  0  0  0  0  0  0  0  0  0  0  0
    1.5089   -1.3835    1.0827 H   0  0  0  0  0  0  0  0  0  0  0  0
    2.0576    2.2146    0.4218 H   0  0  0  0  0  0  0  0  0  0  0  0
    0.3907    2.5820   -0.2683 H   0  0  0  0  0  0  0  0  0  0  0  0
   -1.7304   -1.5853    0.7759 H   0  0  0  0  0  0  0  0  0  0  0  0
   -0.3852   -0.8943    1.7930 H   0  0  0  0  0  0  0  0  0  0  0  0
   -2.7482    0.5456    1.2560 H   0  0  0  0  0  0  0  0  0  0  0  0
   -1.0624    1.3738    1.3257 H   0  0  0  0  0  0  0  0  0  0  0  0
   -1.3559    1.5324   -1.1076 H   0  0  0  0  0  0  0  0  0  0  0  0
   -2.3322   -0.0397   -1.1356 H   0  0  0  0  0  0  0  0  0  0  0  0
  1  2  1  0
  2  3  1  0
  3  4  1  0
  3  5  1  0
  5  6  1  0
  2  7  1  0
  7  8  1  0
  8  9  1  0
  9  2  1  0
  6  3  1  0
  1 10  1  0
  1 11  1  0
  1 12  1  0
  4 13  1  0
  4 14  1  0
  4 15  1  0
  5 16  1  0
  5 17  1  0
  7 18  1  0
  7 19  1  0
  8 20  1  0
  8 21  1  0
  9 22  1  0
  9 23  1  0
M  END
