
     RDKit          3D

 17 18  0  0  0  0  0  0  0  0999 V2000
    1.9298    0.5025   -0.1434 C   0  0  0  0  0  0  0  0  0  0  0  0
    0.5456   -0.0143   -0.3179 C   0  0  0  0  0  0  0  0  0  0  0  0
    0.5027   -0.8906   -1.4062 O   0  0  0  0  0  0  0  0  0  0  0  0
    0.0090   -0.7361    0.8503 C   0  0  0  0  0  0  0  0  0  0  0  0
    0.5740   -1.1385    1.8308 O   0  0  0  0  0  0  0  0  0  0  0  0
   -1.4369   -0.8806    0.5742 C   0  0  0  0  0  0  0  0  0  0  0  0
   -1.7753    0.5145    0.0683 C   0  0  0  0  0  0  0  0  0  0  0  0
   -1.6179    0.8240   -1.2543 O   0  0  0  0  0  0  0  0  0  0  0  0
   -0.4895    1.0772   -0.5041 C   0  0  0  0  0  0  0  0  0  0  0  0
    2.5593   -0.1552    0.4931 H   0  0  0  0  0  0  0  0  0  0  0  0
    2.3718    0.6086   -1.1767 H   0  0  0  0  0  0  0  0  0  0  0  0
    1.9041    1.5264    0.2690 H   0  0  0  0  0  0  0  0  0  0  0  0
    0.9460   -1.7321   -1.0785 H   0  0  0  0  0  0  0  0  0  0  0  0
   -2.0311   -1.1293    1.4872 H   0  0  0  0  0  0  0  0  0  0  0  0
   -1.5410   -1.6453   -0.2229 H   0  0  0  0  0  0  0  0  0  0  0  0
   -2.2756    1.1755    0.7814 H   0  0  0  0  0  0  0  0  0  0  0  0
   -0.1750    2.0932   -0.2502 H   0  0  0  0  0  0  0  0  0  0  0  0
  1  2  1  0
  2  3  1  0
  2  4  1  0
  4  5  2  0
  4  6  1  0
  6  7  1  0
  7  8  1  0
  8  9  1  0
  9  2  1  0
  9  7  1  0
  1 10  1  0
  1 11  1  0
  1 12  1  0
  3 13  1  0
  6 14  1  0
  6 15  1  0
  7 16  1  0
  9 17  1  0
M  END
