
     RDKit          3D

 19 20  0  0  0  0  0  0  0  0999 V2000
   -1.7962    1.3280    0.1912 C   0  0  0  0  0  0  0  0  0  0  0  0
   -1.3488   -0.0607   -0.1993 C   0  0  0  0  0  0  0  0  0  0  0  0
   -2.1154   -1.0918    0.3216 O   0  0  0  0  0  0  0  0  0  0  0  0
   -0.6904   -0.3225   -1.4882 C   0  0  0  0  0  0  0  0  0  0  0  0
    0.1392   -0.2032   -0.2803 C   0  0  0  0  0  0  0  0  0  0  0  0
    0.8482   -1.3152    0.3402 C   0  0  0  0  0  0  0  0  0  0  0  0
    2.0374   -0.8632    0.6947 C   0  0  0  0  0  0  0  0  0  0  0  0
    2.1661    0.5610    0.3257 C   0  0  0  0  0  0  0  0  0  0  0  0
    0.9600    0.9156   -0.2042 O   0  0  0  0  0  0  0  0  0  0  0  0
   -1.5175    2.0018   -0.6355 H   0  0  0  0  0  0  0  0  0  0  0  0
   -2.8849    1.3688    0.4047 H   0  0  0  0  0  0  0  0  0  0  0  0
   -1.1829    1.6259    1.0755 H   0  0  0  0  0  0  0  0  0  0  0  0
   -1.8251   -1.4253    1.1837 H   0  0  0  0  0  0  0  0  0  0  0  0
   -0.6951    0.5480   -2.2069 H   0  0  0  0  0  0  0  0  0  0  0  0
   -0.8635   -1.2831   -1.9986 H   0  0  0  0  0  0  0  0  0  0  0  0
    0.5060   -2.3118    0.4948 H   0  0  0  0  0  0  0  0  0  0  0  0
    2.8550   -1.4098    1.1924 H   0  0  0  0  0  0  0  0  0  0  0  0
    2.9788    0.7266   -0.4226 H   0  0  0  0  0  0  0  0  0  0  0  0
    2.4293    1.2110    1.2110 H   0  0  0  0  0  0  0  0  0  0  0  0
  1  2  1  0
  2  3  1  0
  2  4  1  0
  4  5  1  0
  5  6  1  0
  6  7  2  0
  7  8  1  0
  8  9  1  0
  5  2  1  0
  9  5  1  0
  1 10  1  0
  1 11  1  0
  1 12  1  0
  3 13  1  0
  4 14  1  0
  4 15  1  0
  6 16  1  0
  7 17  1  0
  8 18  1  0
  8 19  1  0
M  END
