
     RDKit          3D

 21 22  0  0  0  0  0  0  0  0999 V2000
   -1.1571    0.0970    1.5455 C   0  0  0  0  0  0  0  0  0  0  0  0
   -0.7102   -0.0585    0.1154 C   0  0  0  0  0  0  0  0  0  0  0  0
   -1.0527    1.0974   -0.7974 C   0  0  0  0  0  0  0  0  0  0  0  0
   -1.1100   -1.3589   -0.5393 C   0  0  0  0  0  0  0  0  0  0  0  0
    0.1706   -1.8770   -0.4464 O   0  0  0  0  0  0  0  0  0  0  0  0
    0.6213   -0.6640   -0.0292 C   0  0  0  0  0  0  0  0  0  0  0  0
    1.7799   -0.4782    0.7955 C   0  0  0  0  0  0  0  0  0  0  0  0
    1.7033    0.0966   -0.6371 C   0  0  0  0  0  0  0  0  0  0  0  0
    1.5913    1.5048   -0.6580 O   0  0  0  0  0  0  0  0  0  0  0  0
   -1.1324   -0.9148    2.0141 H   0  0  0  0  0  0  0  0  0  0  0  0
   -0.3850    0.6953    2.0843 H   0  0  0  0  0  0  0  0  0  0  0  0
   -2.1482    0.5612    1.6235 H   0  0  0  0  0  0  0  0  0  0  0  0
   -0.4379    0.9987   -1.7023 H   0  0  0  0  0  0  0  0  0  0  0  0
   -0.9783    2.0559   -0.2810 H   0  0  0  0  0  0  0  0  0  0  0  0
   -2.1121    0.9259   -1.1259 H   0  0  0  0  0  0  0  0  0  0  0  0
   -1.8887   -1.8523    0.0603 H   0  0  0  0  0  0  0  0  0  0  0  0
   -1.3859   -1.2750   -1.6224 H   0  0  0  0  0  0  0  0  0  0  0  0
    2.5149   -1.3280    0.8932 H   0  0  0  0  0  0  0  0  0  0  0  0
    1.8915    0.2438    1.6245 H   0  0  0  0  0  0  0  0  0  0  0  0
    2.3933   -0.3509   -1.3912 H   0  0  0  0  0  0  0  0  0  0  0  0
    1.8325    1.8812   -1.5262 H   0  0  0  0  0  0  0  0  0  0  0  0
  1  2  1  0
  2  3  1  0
  2  4  1  0
  4  5  1  0
  5  6  1  0
  6  7  1  0
  7  8  1  0
  8  9  1  0
  6  2  1  0
  8  6  1  0
  1 10  1  0
  1 11  1  0
  1 12  1  0
  3 13  1  0
  3 14  1  0
  3 15  1  0
  4 16  1  0
  4 17  1  0
  7 18  1  0
  7 19  1  0
  8 20  1  0
  9 21  1  0
M  END
