
     RDKit          3D

 20 21  0  0  0  0  0  0  0  0999 V2000
   -1.4744    0.2438    1.3759 C   0  0  0  0  0  0  0  0  0  0  0  0
   -0.6338   -0.0946    0.1594 C   0  0  0  0  0  0  0  0  0  0  0  0
    0.8279   -0.2389    0.4658 C   0  0  0  0  0  0  0  0  0  0  0  0
    1.7303   -0.5703   -0.6722 C   0  0  0  0  0  0  0  0  0  0  0  0
    2.7223    0.2249   -0.0525 O   0  0  0  0  0  0  0  0  0  0  0  0
    1.6547    0.9929    0.4702 C   0  0  0  0  0  0  0  0  0  0  0  0
   -1.0849    0.4091   -1.1662 C   0  0  0  0  0  0  0  0  0  0  0  0
   -1.3057   -0.9934   -0.8199 C   0  0  0  0  0  0  0  0  0  0  0  0
   -2.4038    0.7636    1.1163 H   0  0  0  0  0  0  0  0  0  0  0  0
   -0.8942    0.8888    2.0967 H   0  0  0  0  0  0  0  0  0  0  0  0
   -1.7122   -0.7110    1.8894 H   0  0  0  0  0  0  0  0  0  0  0  0
    1.0584   -0.8797    1.3416 H   0  0  0  0  0  0  0  0  0  0  0  0
    2.0061   -1.6477   -0.7330 H   0  0  0  0  0  0  0  0  0  0  0  0
    1.5015   -0.1406   -1.6475 H   0  0  0  0  0  0  0  0  0  0  0  0
    1.9398    1.3913    1.4650 H   0  0  0  0  0  0  0  0  0  0  0  0
    1.4203    1.7865   -0.2375 H   0  0  0  0  0  0  0  0  0  0  0  0
   -2.0121    1.0470   -1.2390 H   0  0  0  0  0  0  0  0  0  0  0  0
   -0.3385    0.7074   -1.9395 H   0  0  0  0  0  0  0  0  0  0  0  0
   -2.3409   -1.3629   -0.6350 H   0  0  0  0  0  0  0  0  0  0  0  0
   -0.6609   -1.8162   -1.2382 H   0  0  0  0  0  0  0  0  0  0  0  0
  1  2  1  0
  2  3  1  0
  3  4  1  0
  4  5  1  0
  5  6  1  0
  2  7  1  0
  7  8  1  0
  8  2  1  0
  6  3  1  0
  1  9  1  0
  1 10  1  0
  1 11  1  0
  3 12  1  0
  4 13  1  0
  4 14  1  0
  6 15  1  0
  6 16  1  0
  7 17  1  0
  7 18  1  0
  8 19  1  0
  8 20  1  0
M  END
