
     RDKit          3D

 17 17  0  0  0  0  0  0  0  0999 V2000
    1.5172    0.3335   -1.1182 C   0  0  0  0  0  0  0  0  0  0  0  0
    0.4389   -0.5155   -0.5294 C   0  0  0  0  0  0  0  0  0  0  0  0
   -0.0533   -1.5244   -1.3576 O   0  0  0  0  0  0  0  0  0  0  0  0
    0.4670   -0.6982    0.9423 C   0  0  0  0  0  0  0  0  0  0  0  0
   -0.6216    0.1137    0.3410 C   0  0  0  0  0  0  0  0  0  0  0  0
   -0.5993    1.5754    0.3725 C   0  0  0  0  0  0  0  0  0  0  0  0
    0.4657    2.1608    0.3378 O   0  0  0  0  0  0  0  0  0  0  0  0
   -1.9650   -0.5288    0.3884 C   0  0  0  0  0  0  0  0  0  0  0  0
   -2.1060   -1.7389    0.3680 O   0  0  0  0  0  0  0  0  0  0  0  0
    1.0811    1.1901   -1.6952 H   0  0  0  0  0  0  0  0  0  0  0  0
    2.1686    0.7028   -0.3213 H   0  0  0  0  0  0  0  0  0  0  0  0
    2.1561   -0.2391   -1.8196 H   0  0  0  0  0  0  0  0  0  0  0  0
   -0.1411   -1.1292   -2.2565 H   0  0  0  0  0  0  0  0  0  0  0  0
    1.2790   -0.2017    1.5337 H   0  0  0  0  0  0  0  0  0  0  0  0
    0.2561   -1.7153    1.2997 H   0  0  0  0  0  0  0  0  0  0  0  0
   -1.4993    2.1441    0.4256 H   0  0  0  0  0  0  0  0  0  0  0  0
   -2.8441    0.0706    0.4422 H   0  0  0  0  0  0  0  0  0  0  0  0
  1  2  1  0
  2  3  1  0
  2  4  1  0
  4  5  1  0
  5  6  1  0
  6  7  2  0
  5  8  1  0
  8  9  2  0
  5  2  1  0
  1 10  1  0
  1 11  1  0
  1 12  1  0
  3 13  1  0
  4 14  1  0
  4 15  1  0
  6 16  1  0
  8 17  1  0
M  END
