
     RDKit          3D

 19 19  0  0  0  0  0  0  0  0999 V2000
   -1.7164    0.7535    0.8649 C   0  0  0  0  0  0  0  0  0  0  0  0
   -0.8376   -0.0410   -0.1165 C   0  0  0  0  0  0  0  0  0  0  0  0
   -1.7700   -0.6668   -1.0836 C   0  0  0  0  0  0  0  0  0  0  0  0
   -2.4718   -0.0258   -1.8398 O   0  0  0  0  0  0  0  0  0  0  0  0
   -0.1867   -0.9830    0.5935 O   0  0  0  0  0  0  0  0  0  0  0  0
    1.0910   -1.2819    0.2874 C   0  0  0  0  0  0  0  0  0  0  0  0
    1.9420   -0.1355   -0.1733 C   0  0  0  0  0  0  0  0  0  0  0  0
    1.1333    1.1630   -0.2010 C   0  0  0  0  0  0  0  0  0  0  0  0
   -0.0496    0.8504   -0.8213 O   0  0  0  0  0  0  0  0  0  0  0  0
   -2.7723    0.4853    0.7780 H   0  0  0  0  0  0  0  0  0  0  0  0
   -1.5619    1.8475    0.7314 H   0  0  0  0  0  0  0  0  0  0  0  0
   -1.4173    0.5402    1.9194 H   0  0  0  0  0  0  0  0  0  0  0  0
   -1.8327   -1.7414   -1.1223 H   0  0  0  0  0  0  0  0  0  0  0  0
    1.5820   -1.6831    1.2244 H   0  0  0  0  0  0  0  0  0  0  0  0
    1.1155   -2.1535   -0.4221 H   0  0  0  0  0  0  0  0  0  0  0  0
    2.3464   -0.3288   -1.1917 H   0  0  0  0  0  0  0  0  0  0  0  0
    2.8238    0.0527    0.4721 H   0  0  0  0  0  0  0  0  0  0  0  0
    1.6586    1.9338   -0.7561 H   0  0  0  0  0  0  0  0  0  0  0  0
    0.9235    1.4145    0.8566 H   0  0  0  0  0  0  0  0  0  0  0  0
  1  2  1  0
  2  3  1  0
  3  4  2  0
  2  5  1  0
  5  6  1  0
  6  7  1  0
  7  8  1  0
  8  9  1  0
  9  2  1  0
  1 10  1  0
  1 11  1  0
  1 12  1  0
  3 13  1  0
  6 14  1  0
  6 15  1  0
  7 16  1  0
  7 17  1  0
  8 18  1  0
  8 19  1  0
M  END
