
     RDKit          3D

 17 17  0  0  0  0  0  0  0  0999 V2000
   -0.7134    1.5185    0.2840 C   0  0  0  0  0  0  0  0  0  0  0  0
   -0.3057    0.0993   -0.0027 C   0  0  0  0  0  0  0  0  0  0  0  0
   -1.4770   -0.7697   -0.4126 C   0  0  0  0  0  0  0  0  0  0  0  0
    0.8159   -0.0052   -0.9485 C   0  0  0  0  0  0  0  0  0  0  0  0
    0.8978    0.3166   -2.1164 O   0  0  0  0  0  0  0  0  0  0  0  0
    1.9512   -0.6213   -0.2038 C   0  0  0  0  0  0  0  0  0  0  0  0
    1.4319   -1.0944    1.0048 O   0  0  0  0  0  0  0  0  0  0  0  0
    0.2326   -0.4716    1.2613 C   0  0  0  0  0  0  0  0  0  0  0  0
   -0.3818   -0.3569    2.3595 O   0  0  0  0  0  0  0  0  0  0  0  0
   -1.5786    1.8547   -0.3011 H   0  0  0  0  0  0  0  0  0  0  0  0
   -0.8171    1.7219    1.3814 H   0  0  0  0  0  0  0  0  0  0  0  0
    0.1480    2.1655   -0.0472 H   0  0  0  0  0  0  0  0  0  0  0  0
   -1.2818   -1.8204   -0.0894 H   0  0  0  0  0  0  0  0  0  0  0  0
   -2.3861   -0.4023    0.1070 H   0  0  0  0  0  0  0  0  0  0  0  0
   -1.5981   -0.8054   -1.5189 H   0  0  0  0  0  0  0  0  0  0  0  0
    2.7185    0.1534    0.0120 H   0  0  0  0  0  0  0  0  0  0  0  0
    2.3438   -1.4828   -0.7694 H   0  0  0  0  0  0  0  0  0  0  0  0
  1  2  1  0
  2  3  1  0
  2  4  1  0
  4  5  2  0
  4  6  1  0
  6  7  1  0
  7  8  1  0
  8  9  2  0
  8  2  1  0
  1 10  1  0
  1 11  1  0
  1 12  1  0
  3 13  1  0
  3 14  1  0
  3 15  1  0
  6 16  1  0
  6 17  1  0
M  END
