
     RDKit          3D

 21 22  0  0  0  0  0  0  0  0999 V2000
   -1.5466   -1.1623    0.6272 C   0  0  0  0  0  0  0  0  0  0  0  0
   -0.7559   -0.1137   -0.0546 C   0  0  0  0  0  0  0  0  0  0  0  0
   -1.6321    0.9159   -0.7190 C   0  0  0  0  0  0  0  0  0  0  0  0
    0.4479   -0.5549   -0.8421 C   0  0  0  0  0  0  0  0  0  0  0  0
    1.1124   -0.8114    0.4655 C   0  0  0  0  0  0  0  0  0  0  0  0
    2.4992   -0.6888    0.4888 O   0  0  0  0  0  0  0  0  0  0  0  0
    0.3947    0.4920    0.6860 C   0  0  0  0  0  0  0  0  0  0  0  0
    0.9151    0.8712   -0.6786 C   0  0  0  0  0  0  0  0  0  0  0  0
    2.2616    1.0881   -0.7857 O   0  0  0  0  0  0  0  0  0  0  0  0
   -2.5426   -1.2383    0.0983 H   0  0  0  0  0  0  0  0  0  0  0  0
   -1.7398   -0.8116    1.6830 H   0  0  0  0  0  0  0  0  0  0  0  0
   -1.1254   -2.1770    0.5975 H   0  0  0  0  0  0  0  0  0  0  0  0
   -1.4962    0.9899   -1.8011 H   0  0  0  0  0  0  0  0  0  0  0  0
   -2.7257    0.6854   -0.5620 H   0  0  0  0  0  0  0  0  0  0  0  0
   -1.4780    1.8842   -0.1802 H   0  0  0  0  0  0  0  0  0  0  0  0
    0.4620   -1.0995   -1.6799 H   0  0  0  0  0  0  0  0  0  0  0  0
    0.7954   -1.6670    1.0559 H   0  0  0  0  0  0  0  0  0  0  0  0
    2.8110   -1.0001    1.3742 H   0  0  0  0  0  0  0  0  0  0  0  0
    0.3841    1.0558    1.5074 H   0  0  0  0  0  0  0  0  0  0  0  0
    0.3307    1.6441   -1.1722 H   0  0  0  0  0  0  0  0  0  0  0  0
    2.6281    1.6982   -0.1084 H   0  0  0  0  0  0  0  0  0  0  0  0
  1  2  1  0
  2  3  1  0
  2  4  1  0
  4  5  1  0
  5  6  1  0
  5  7  1  0
  7  8  1  0
  8  9  1  0
  7  2  1  0
  8  4  1  0
  1 10  1  0
  1 11  1  0
  1 12  1  0
  3 13  1  0
  3 14  1  0
  3 15  1  0
  4 16  1  0
  5 17  1  0
  6 18  1  0
  7 19  1  0
  8 20  1  0
  9 21  1  0
M  END
