
     RDKit          3D

 23 23  0  0  0  0  0  0  0  0999 V2000
   -0.1458    1.4649    0.4709 C   0  0  0  0  0  0  0  0  0  0  0  0
   -0.3649    0.1430   -0.1467 C   0  0  0  0  0  0  0  0  0  0  0  0
    0.7391   -0.5066   -0.8787 C   0  0  0  0  0  0  0  0  0  0  0  0
    1.9675   -0.8133   -0.1110 C   0  0  0  0  0  0  0  0  0  0  0  0
    2.7823    0.2778    0.3917 C   0  0  0  0  0  0  0  0  0  0  0  0
    2.7391    1.4613    0.1135 O   0  0  0  0  0  0  0  0  0  0  0  0
   -1.1171   -0.8511    0.7520 C   0  0  0  0  0  0  0  0  0  0  0  0
   -2.3864   -0.1776    0.2886 C   0  0  0  0  0  0  0  0  0  0  0  0
   -1.6602    0.1443   -0.9946 C   0  0  0  0  0  0  0  0  0  0  0  0
   -1.1410    1.9151    0.7822 H   0  0  0  0  0  0  0  0  0  0  0  0
    0.4529    1.4990    1.3765 H   0  0  0  0  0  0  0  0  0  0  0  0
    0.2523    2.1734   -0.2710 H   0  0  0  0  0  0  0  0  0  0  0  0
    1.0477    0.0981   -1.7789 H   0  0  0  0  0  0  0  0  0  0  0  0
    0.3869   -1.4804   -1.3486 H   0  0  0  0  0  0  0  0  0  0  0  0
    1.6611   -1.4270    0.8013 H   0  0  0  0  0  0  0  0  0  0  0  0
    2.6466   -1.5118   -0.7004 H   0  0  0  0  0  0  0  0  0  0  0  0
    3.5691   -0.0008    1.1473 H   0  0  0  0  0  0  0  0  0  0  0  0
   -0.9346   -0.7349    1.8183 H   0  0  0  0  0  0  0  0  0  0  0  0
   -1.0418   -1.8567    0.3146 H   0  0  0  0  0  0  0  0  0  0  0  0
   -3.2020   -0.9263    0.1813 H   0  0  0  0  0  0  0  0  0  0  0  0
   -2.7193    0.6753    0.9029 H   0  0  0  0  0  0  0  0  0  0  0  0
   -1.7110   -0.7110   -1.6990 H   0  0  0  0  0  0  0  0  0  0  0  0
   -1.8204    1.1451   -1.4123 H   0  0  0  0  0  0  0  0  0  0  0  0
  1  2  1  0
  2  3  1  0
  3  4  1  0
  4  5  1  0
  5  6  2  0
  2  7  1  0
  7  8  1  0
  8  9  1  0
  9  2  1  0
  1 10  1  0
  1 11  1  0
  1 12  1  0
  3 13  1  0
  3 14  1  0
  4 15  1  0
  4 16  1  0
  5 17  1  0
  7 18  1  0
  7 19  1  0
  8 20  1  0
  8 21  1  0
  9 22  1  0
  9 23  1  0
M  END
