
     RDKit          3D

 21 21  0  0  0  0  0  0  0  0999 V2000
   -0.2955   -0.9141   -1.5829 C   0  0  0  0  0  0  0  0  0  0  0  0
   -0.3927   -0.2964   -0.2236 C   0  0  0  0  0  0  0  0  0  0  0  0
    0.9308   -0.2194    0.4861 C   0  0  0  0  0  0  0  0  0  0  0  0
    1.9469    0.5972   -0.2607 C   0  0  0  0  0  0  0  0  0  0  0  0
    3.1229    0.5865    0.5048 O   0  0  0  0  0  0  0  0  0  0  0  0
   -1.2518    0.9438   -0.1333 C   0  0  0  0  0  0  0  0  0  0  0  0
   -1.7906    0.3588    1.1486 C   0  0  0  0  0  0  0  0  0  0  0  0
   -1.4043   -0.9935    0.6146 C   0  0  0  0  0  0  0  0  0  0  0  0
   -1.7660   -2.1368    0.7962 O   0  0  0  0  0  0  0  0  0  0  0  0
    0.2327   -1.8933   -1.4605 H   0  0  0  0  0  0  0  0  0  0  0  0
    0.2675   -0.2620   -2.2642 H   0  0  0  0  0  0  0  0  0  0  0  0
   -1.3371   -1.1113   -1.9331 H   0  0  0  0  0  0  0  0  0  0  0  0
    0.8349    0.1813    1.5043 H   0  0  0  0  0  0  0  0  0  0  0  0
    1.3109   -1.2676    0.5830 H   0  0  0  0  0  0  0  0  0  0  0  0
    2.1006    0.2931   -1.2936 H   0  0  0  0  0  0  0  0  0  0  0  0
    1.6036    1.6696   -0.2569 H   0  0  0  0  0  0  0  0  0  0  0  0
    2.8299    0.6050    1.4510 H   0  0  0  0  0  0  0  0  0  0  0  0
   -0.7319    1.8958   -0.0645 H   0  0  0  0  0  0  0  0  0  0  0  0
   -2.0455    0.9208   -0.9113 H   0  0  0  0  0  0  0  0  0  0  0  0
   -1.2598    0.6476    2.0734 H   0  0  0  0  0  0  0  0  0  0  0  0
   -2.9055    0.3951    1.2228 H   0  0  0  0  0  0  0  0  0  0  0  0
  1  2  1  0
  2  3  1  0
  3  4  1  0
  4  5  1  0
  2  6  1  0
  6  7  1  0
  7  8  1  0
  8  9  2  0
  8  2  1  0
  1 10  1  0
  1 11  1  0
  1 12  1  0
  3 13  1  0
  3 14  1  0
  4 15  1  0
  4 16  1  0
  5 17  1  0
  6 18  1  0
  6 19  1  0
  7 20  1  0
  7 21  1  0
M  END
