
     RDKit          3D

 19 19  0  0  0  0  0  0  0  0999 V2000
   -2.1564   -0.2980    0.8778 C   0  0  0  0  0  0  0  0  0  0  0  0
   -1.3231    0.0720   -0.3066 C   0  0  0  0  0  0  0  0  0  0  0  0
   -2.0752    0.9169   -1.3121 C   0  0  0  0  0  0  0  0  0  0  0  0
   -3.1186    1.4774   -1.0361 O   0  0  0  0  0  0  0  0  0  0  0  0
   -0.6705   -1.0794   -0.9533 O   0  0  0  0  0  0  0  0  0  0  0  0
    0.0796    0.0265   -0.3817 C   0  0  0  0  0  0  0  0  0  0  0  0
    1.0588   -0.4565    0.6759 C   0  0  0  0  0  0  0  0  0  0  0  0
    2.4869   -0.3191    0.2034 C   0  0  0  0  0  0  0  0  0  0  0  0
    2.7897    1.0366   -0.0562 O   0  0  0  0  0  0  0  0  0  0  0  0
   -3.2368   -0.0306    0.7433 H   0  0  0  0  0  0  0  0  0  0  0  0
   -2.1440   -1.3638    1.1538 H   0  0  0  0  0  0  0  0  0  0  0  0
   -1.8755    0.2595    1.8066 H   0  0  0  0  0  0  0  0  0  0  0  0
   -1.6847    1.0371   -2.3200 H   0  0  0  0  0  0  0  0  0  0  0  0
    0.5963    0.5474   -1.2179 H   0  0  0  0  0  0  0  0  0  0  0  0
    0.8794   -1.5142    0.9653 H   0  0  0  0  0  0  0  0  0  0  0  0
    0.9552    0.1673    1.5730 H   0  0  0  0  0  0  0  0  0  0  0  0
    3.1942   -0.6693    0.9790 H   0  0  0  0  0  0  0  0  0  0  0  0
    2.7016   -0.8887   -0.7243 H   0  0  0  0  0  0  0  0  0  0  0  0
    3.5431    1.0789   -0.6701 H   0  0  0  0  0  0  0  0  0  0  0  0
  1  2  1  0
  2  3  1  0
  3  4  2  0
  2  5  1  0
  5  6  1  0
  6  7  1  0
  7  8  1  0
  8  9  1  0
  6  2  1  0
  1 10  1  0
  1 11  1  0
  1 12  1  0
  3 13  1  0
  6 14  1  0
  7 15  1  0
  7 16  1  0
  8 17  1  0
  8 18  1  0
  9 19  1  0
M  END
