
     RDKit          3D

 19 20  0  0  0  0  0  0  0  0999 V2000
   -1.6951    1.0036    0.0088 C   0  0  0  0  0  0  0  0  0  0  0  0
   -0.7713   -0.1739    0.0704 C   0  0  0  0  0  0  0  0  0  0  0  0
   -1.3472   -1.3256    0.8454 C   0  0  0  0  0  0  0  0  0  0  0  0
   -2.2501   -1.9216    0.2343 O   0  0  0  0  0  0  0  0  0  0  0  0
    0.0104   -0.5209   -1.1578 C   0  0  0  0  0  0  0  0  0  0  0  0
    0.8722   -1.6180   -1.1223 O   0  0  0  0  0  0  0  0  0  0  0  0
    1.5295   -1.2110    0.0498 C   0  0  0  0  0  0  0  0  0  0  0  0
    0.6873    0.0291    0.0133 C   0  0  0  0  0  0  0  0  0  0  0  0
    1.3824    1.3307    0.0680 C   0  0  0  0  0  0  0  0  0  0  0  0
   -1.1876    1.8875   -0.3633 H   0  0  0  0  0  0  0  0  0  0  0  0
   -2.5757    0.7077   -0.6671 H   0  0  0  0  0  0  0  0  0  0  0  0
   -2.1512    1.1939    0.9872 H   0  0  0  0  0  0  0  0  0  0  0  0
   -1.0469   -1.6083    1.8380 H   0  0  0  0  0  0  0  0  0  0  0  0
   -0.1874    0.0152   -2.0922 H   0  0  0  0  0  0  0  0  0  0  0  0
    2.6032   -1.0214   -0.0450 H   0  0  0  0  0  0  0  0  0  0  0  0
    1.2653   -1.8131    0.9565 H   0  0  0  0  0  0  0  0  0  0  0  0
    2.0482    1.3208    0.9772 H   0  0  0  0  0  0  0  0  0  0  0  0
    2.0716    1.5153   -0.7846 H   0  0  0  0  0  0  0  0  0  0  0  0
    0.7426    2.2101    0.1835 H   0  0  0  0  0  0  0  0  0  0  0  0
  1  2  1  0
  2  3  1  0
  3  4  2  0
  2  5  1  0
  5  6  1  0
  6  7  1  0
  7  8  1  0
  8  9  1  0
  8  2  1  0
  8  5  1  0
  1 10  1  0
  1 11  1  0
  1 12  1  0
  3 13  1  0
  5 14  1  0
  7 15  1  0
  7 16  1  0
  9 17  1  0
  9 18  1  0
  9 19  1  0
M  END
