
     RDKit          3D

 22 22  0  0  0  0  0  0  0  0999 V2000
    1.2081    1.5009   -0.1531 C   0  0  0  0  0  0  0  0  0  0  0  0
    0.8299    0.0608    0.0476 C   0  0  0  0  0  0  0  0  0  0  0  0
    2.1160   -0.7676    0.1734 C   0  0  0  0  0  0  0  0  0  0  0  0
   -0.1718   -0.2101    1.1389 C   0  0  0  0  0  0  0  0  0  0  0  0
   -1.2703   -0.4810    0.1080 C   0  0  0  0  0  0  0  0  0  0  0  0
   -2.2396    0.6436   -0.0836 C   0  0  0  0  0  0  0  0  0  0  0  0
   -1.9253   -1.6871    0.2743 O   0  0  0  0  0  0  0  0  0  0  0  0
   -0.1590   -0.4971   -0.9387 C   0  0  0  0  0  0  0  0  0  0  0  0
    2.0093    1.7283    0.5959 H   0  0  0  0  0  0  0  0  0  0  0  0
    0.4029    2.2126   -0.0014 H   0  0  0  0  0  0  0  0  0  0  0  0
    1.6232    1.6311   -1.1791 H   0  0  0  0  0  0  0  0  0  0  0  0
    2.7177   -0.3146    0.9844 H   0  0  0  0  0  0  0  0  0  0  0  0
    2.6693   -0.7060   -0.7752 H   0  0  0  0  0  0  0  0  0  0  0  0
    1.8344   -1.7887    0.4365 H   0  0  0  0  0  0  0  0  0  0  0  0
   -0.3841    0.6113    1.8311 H   0  0  0  0  0  0  0  0  0  0  0  0
    0.0914   -1.1853    1.6341 H   0  0  0  0  0  0  0  0  0  0  0  0
   -3.2436    0.4545    0.3211 H   0  0  0  0  0  0  0  0  0  0  0  0
   -2.3721    0.7831   -1.1874 H   0  0  0  0  0  0  0  0  0  0  0  0
   -1.8949    1.6084    0.3510 H   0  0  0  0  0  0  0  0  0  0  0  0
   -1.5449   -2.1518    1.0734 H   0  0  0  0  0  0  0  0  0  0  0  0
   -0.3384    0.1212   -1.8217 H   0  0  0  0  0  0  0  0  0  0  0  0
    0.0419   -1.5664   -1.2072 H   0  0  0  0  0  0  0  0  0  0  0  0
  1  2  1  0
  2  3  1  0
  2  4  1  0
  4  5  1  0
  5  6  1  0
  5  7  1  0
  5  8  1  0
  8  2  1  0
  1  9  1  0
  1 10  1  0
  1 11  1  0
  3 12  1  0
  3 13  1  0
  3 14  1  0
  4 15  1  0
  4 16  1  0
  6 17  1  0
  6 18  1  0
  6 19  1  0
  7 20  1  0
  8 21  1  0
  8 22  1  0
M  END
