
     RDKit          3D

 19 20  0  0  0  0  0  0  0  0999 V2000
   -1.4340   -0.2439   -1.2792 C   0  0  0  0  0  0  0  0  0  0  0  0
   -0.6976    0.2935   -0.1323 C   0  0  0  0  0  0  0  0  0  0  0  0
   -1.5032    1.1391    0.6522 O   0  0  0  0  0  0  0  0  0  0  0  0
    0.0879   -0.6028    0.7501 C   0  0  0  0  0  0  0  0  0  0  0  0
    0.6085    0.4124    1.7648 C   0  0  0  0  0  0  0  0  0  0  0  0
    0.9374    1.4565    0.8625 O   0  0  0  0  0  0  0  0  0  0  0  0
    0.6603    0.9079   -0.3902 C   0  0  0  0  0  0  0  0  0  0  0  0
    1.2437   -0.4699   -0.2511 C   0  0  0  0  0  0  0  0  0  0  0  0
    1.1397   -1.3349   -1.2803 O   0  0  0  0  0  0  0  0  0  0  0  0
   -2.0069   -1.1422   -0.9762 H   0  0  0  0  0  0  0  0  0  0  0  0
   -2.2084    0.5062   -1.5969 H   0  0  0  0  0  0  0  0  0  0  0  0
   -0.8381   -0.4504   -2.1865 H   0  0  0  0  0  0  0  0  0  0  0  0
   -2.0780    0.5516    1.2090 H   0  0  0  0  0  0  0  0  0  0  0  0
   -0.2202   -1.5464    1.0562 H   0  0  0  0  0  0  0  0  0  0  0  0
   -0.2059    0.6798    2.4310 H   0  0  0  0  0  0  0  0  0  0  0  0
    1.5341    0.0720    2.2520 H   0  0  0  0  0  0  0  0  0  0  0  0
    0.8240    1.4767   -1.2589 H   0  0  0  0  0  0  0  0  0  0  0  0
    2.2420   -0.3982    0.2428 H   0  0  0  0  0  0  0  0  0  0  0  0
    1.9146   -1.3069   -1.8692 H   0  0  0  0  0  0  0  0  0  0  0  0
  1  2  1  0
  2  3  1  0
  2  4  1  0
  4  5  1  0
  5  6  1  0
  6  7  1  0
  7  8  1  0
  8  9  1  0
  7  2  1  0
  8  4  1  0
  1 10  1  0
  1 11  1  0
  1 12  1  0
  3 13  1  0
  4 14  1  0
  5 15  1  0
  5 16  1  0
  7 17  1  0
  8 18  1  0
  9 19  1  0
M  END
