
     RDKit          3D

 21 22  0  0  0  0  0  0  0  0999 V2000
   -1.5894   -0.6066    1.2794 C   0  0  0  0  0  0  0  0  0  0  0  0
   -0.9657   -0.0831   -0.0081 C   0  0  0  0  0  0  0  0  0  0  0  0
    0.4771    0.1713    0.1070 C   0  0  0  0  0  0  0  0  0  0  0  0
    1.4025   -0.4295   -0.6247 C   0  0  0  0  0  0  0  0  0  0  0  0
    2.7278    0.0941   -0.2132 C   0  0  0  0  0  0  0  0  0  0  0  0
    2.4337    1.2774    0.4649 O   0  0  0  0  0  0  0  0  0  0  0  0
    1.1772    1.1015    1.0171 C   0  0  0  0  0  0  0  0  0  0  0  0
   -1.4009   -0.7562   -1.3072 C   0  0  0  0  0  0  0  0  0  0  0  0
   -1.8174    0.6127   -0.9928 C   0  0  0  0  0  0  0  0  0  0  0  0
   -1.7453   -1.7110    1.1008 H   0  0  0  0  0  0  0  0  0  0  0  0
   -2.5412   -0.0881    1.4681 H   0  0  0  0  0  0  0  0  0  0  0  0
   -0.9055   -0.5184    2.1422 H   0  0  0  0  0  0  0  0  0  0  0  0
    1.2776   -1.1878   -1.4109 H   0  0  0  0  0  0  0  0  0  0  0  0
    3.1530   -0.6242    0.5238 H   0  0  0  0  0  0  0  0  0  0  0  0
    3.3537    0.2453   -1.0953 H   0  0  0  0  0  0  0  0  0  0  0  0
    1.3122    0.6943    2.0416 H   0  0  0  0  0  0  0  0  0  0  0  0
    0.6981    2.0992    1.0719 H   0  0  0  0  0  0  0  0  0  0  0  0
   -2.0805   -1.6286   -1.1950 H   0  0  0  0  0  0  0  0  0  0  0  0
   -0.6469   -0.8812   -2.1073 H   0  0  0  0  0  0  0  0  0  0  0  0
   -2.8811    0.7613   -0.6751 H   0  0  0  0  0  0  0  0  0  0  0  0
   -1.4390    1.4577   -1.5873 H   0  0  0  0  0  0  0  0  0  0  0  0
  1  2  1  0
  2  3  1  0
  3  4  2  0
  4  5  1  0
  5  6  1  0
  6  7  1  0
  2  8  1  0
  8  9  1  0
  9  2  1  0
  7  3  1  0
  1 10  1  0
  1 11  1  0
  1 12  1  0
  4 13  1  0
  5 14  1  0
  5 15  1  0
  7 16  1  0
  7 17  1  0
  8 18  1  0
  8 19  1  0
  9 20  1  0
  9 21  1  0
M  END
