
     RDKit          3D

 25 26  0  0  0  0  0  0  0  0999 V2000
   -1.5169    0.5519    1.1835 C   0  0  0  0  0  0  0  0  0  0  0  0
   -0.7151    0.2077   -0.0353 C   0  0  0  0  0  0  0  0  0  0  0  0
   -1.1467    1.0660   -1.1823 C   0  0  0  0  0  0  0  0  0  0  0  0
   -0.9292   -1.2761   -0.4062 C   0  0  0  0  0  0  0  0  0  0  0  0
    0.4945   -1.7329   -0.4185 C   0  0  0  0  0  0  0  0  0  0  0  0
    0.9903   -1.1411    0.9057 C   0  0  0  0  0  0  0  0  0  0  0  0
    0.7553    0.1811    0.1861 C   0  0  0  0  0  0  0  0  0  0  0  0
    1.4897    1.3492    0.5988 C   0  0  0  0  0  0  0  0  0  0  0  0
    1.2253   -0.5773   -1.0620 C   0  0  0  0  0  0  0  0  0  0  0  0
   -2.5587    0.2004    1.0194 H   0  0  0  0  0  0  0  0  0  0  0  0
   -1.1038    0.0787    2.1113 H   0  0  0  0  0  0  0  0  0  0  0  0
   -1.4987    1.6374    1.3191 H   0  0  0  0  0  0  0  0  0  0  0  0
   -1.9481    1.8022   -0.8857 H   0  0  0  0  0  0  0  0  0  0  0  0
   -1.6122    0.4492   -1.9819 H   0  0  0  0  0  0  0  0  0  0  0  0
   -0.3045    1.6739   -1.5840 H   0  0  0  0  0  0  0  0  0  0  0  0
   -1.4467   -1.7504    0.4387 H   0  0  0  0  0  0  0  0  0  0  0  0
   -1.4456   -1.3637   -1.3699 H   0  0  0  0  0  0  0  0  0  0  0  0
    0.7588   -2.7263   -0.6535 H   0  0  0  0  0  0  0  0  0  0  0  0
    2.0564   -1.3403    1.1102 H   0  0  0  0  0  0  0  0  0  0  0  0
    0.2717   -1.3738    1.6925 H   0  0  0  0  0  0  0  0  0  0  0  0
    0.9676    2.2794    0.3489 H   0  0  0  0  0  0  0  0  0  0  0  0
    1.7500    1.2792    1.6867 H   0  0  0  0  0  0  0  0  0  0  0  0
    2.4788    1.3886    0.0737 H   0  0  0  0  0  0  0  0  0  0  0  0
    0.6782   -0.1919   -1.9454 H   0  0  0  0  0  0  0  0  0  0  0  0
    2.3096   -0.6712   -1.1500 H   0  0  0  0  0  0  0  0  0  0  0  0
  1  2  1  0
  2  3  1  0
  2  4  1  0
  4  5  1  0
  5  6  1  0
  6  7  1  0
  7  8  1  0
  7  9  1  0
  7  2  1  0
  9  5  1  0
  1 10  1  0
  1 11  1  0
  1 12  1  0
  3 13  1  0
  3 14  1  0
  3 15  1  0
  4 16  1  0
  4 17  1  0
  5 18  1  0
  6 19  1  0
  6 20  1  0
  8 21  1  0
  8 22  1  0
  8 23  1  0
  9 24  1  0
  9 25  1  0
M  END
