
     RDKit          3D

 22 22  0  0  0  0  0  0  0  0999 V2000
    2.3121    0.3865    0.1707 C   0  0  0  0  0  0  0  0  0  0  0  0
    0.8969    0.0778   -0.1585 C   0  0  0  0  0  0  0  0  0  0  0  0
    0.7248   -0.2006   -1.5336 O   0  0  0  0  0  0  0  0  0  0  0  0
    0.3219   -1.0895    0.5881 C   0  0  0  0  0  0  0  0  0  0  0  0
   -1.0656   -1.3509   -0.0035 C   0  0  0  0  0  0  0  0  0  0  0  0
   -1.9196   -0.1175    0.1723 C   0  0  0  0  0  0  0  0  0  0  0  0
   -1.2818    1.1108   -0.4158 C   0  0  0  0  0  0  0  0  0  0  0  0
    0.0590    1.3026    0.2319 C   0  0  0  0  0  0  0  0  0  0  0  0
    2.9193   -0.4630    0.5014 H   0  0  0  0  0  0  0  0  0  0  0  0
    2.7789    0.8379   -0.7535 H   0  0  0  0  0  0  0  0  0  0  0  0
    2.3705    1.2019    0.9429 H   0  0  0  0  0  0  0  0  0  0  0  0
    0.9334   -1.1645   -1.6226 H   0  0  0  0  0  0  0  0  0  0  0  0
    0.1489   -0.8782    1.6631 H   0  0  0  0  0  0  0  0  0  0  0  0
    0.8912   -2.0281    0.4284 H   0  0  0  0  0  0  0  0  0  0  0  0
   -1.0244   -1.5702   -1.0776 H   0  0  0  0  0  0  0  0  0  0  0  0
   -1.5122   -2.1916    0.5157 H   0  0  0  0  0  0  0  0  0  0  0  0
   -2.8603   -0.3047   -0.4020 H   0  0  0  0  0  0  0  0  0  0  0  0
   -2.2310    0.0415    1.2220 H   0  0  0  0  0  0  0  0  0  0  0  0
   -1.1297    0.9542   -1.5003 H   0  0  0  0  0  0  0  0  0  0  0  0
   -1.9219    1.9746   -0.1855 H   0  0  0  0  0  0  0  0  0  0  0  0
    0.5993    2.2043   -0.1254 H   0  0  0  0  0  0  0  0  0  0  0  0
   -0.0095    1.2667    1.3420 H   0  0  0  0  0  0  0  0  0  0  0  0
  1  2  1  0
  2  3  1  0
  2  4  1  0
  4  5  1  0
  5  6  1  0
  6  7  1  0
  7  8  1  0
  8  2  1  0
  1  9  1  0
  1 10  1  0
  1 11  1  0
  3 12  1  0
  4 13  1  0
  4 14  1  0
  5 15  1  0
  5 16  1  0
  6 17  1  0
  6 18  1  0
  7 19  1  0
  7 20  1  0
  8 21  1  0
  8 22  1  0
M  END
