
     RDKit          3D

 19 19  0  0  0  0  0  0  0  0999 V2000
   -1.0184    1.1826    1.1717 C   0  0  0  0  0  0  0  0  0  0  0  0
   -0.5807    0.1118    0.1785 C   0  0  0  0  0  0  0  0  0  0  0  0
   -1.7537   -0.5393   -0.5043 C   0  0  0  0  0  0  0  0  0  0  0  0
    0.1781   -0.8167    0.8574 O   0  0  0  0  0  0  0  0  0  0  0  0
    1.0832   -1.3129   -0.0640 C   0  0  0  0  0  0  0  0  0  0  0  0
    1.6308   -0.0038   -0.6497 C   0  0  0  0  0  0  0  0  0  0  0  0
    2.3665    0.6818    0.3221 O   0  0  0  0  0  0  0  0  0  0  0  0
    0.3531    0.7441   -0.8216 C   0  0  0  0  0  0  0  0  0  0  0  0
    0.1602    1.6376   -1.5930 O   0  0  0  0  0  0  0  0  0  0  0  0
   -0.3687    1.1823    2.0701 H   0  0  0  0  0  0  0  0  0  0  0  0
   -0.9792    2.1719    0.6652 H   0  0  0  0  0  0  0  0  0  0  0  0
   -2.0812    0.9591    1.4308 H   0  0  0  0  0  0  0  0  0  0  0  0
   -1.6243   -0.6428   -1.5895 H   0  0  0  0  0  0  0  0  0  0  0  0
   -2.7050    0.0287   -0.3027 H   0  0  0  0  0  0  0  0  0  0  0  0
   -1.9542   -1.5702   -0.1083 H   0  0  0  0  0  0  0  0  0  0  0  0
    1.8729   -1.9163    0.3740 H   0  0  0  0  0  0  0  0  0  0  0  0
    0.5126   -1.8036   -0.8698 H   0  0  0  0  0  0  0  0  0  0  0  0
    2.1768   -0.1644   -1.5783 H   0  0  0  0  0  0  0  0  0  0  0  0
    2.7311    0.0702    1.0112 H   0  0  0  0  0  0  0  0  0  0  0  0
  1  2  1  0
  2  3  1  0
  2  4  1  0
  4  5  1  0
  5  6  1  0
  6  7  1  0
  6  8  1  0
  8  9  2  0
  8  2  1  0
  1 10  1  0
  1 11  1  0
  1 12  1  0
  3 13  1  0
  3 14  1  0
  3 15  1  0
  5 16  1  0
  5 17  1  0
  6 18  1  0
  7 19  1  0
M  END
