
     RDKit          3D

 16 17  0  0  0  0  0  0  0  0999 V2000
   -1.1171   -0.4350   -1.0172 C   0  0  0  0  0  0  0  0  0  0  0  0
   -0.5509    0.0108    0.2550 C   0  0  0  0  0  0  0  0  0  0  0  0
   -1.5891    0.7102    1.0635 C   0  0  0  0  0  0  0  0  0  0  0  0
   -1.8049    0.4957    2.2366 O   0  0  0  0  0  0  0  0  0  0  0  0
    0.0958   -0.9029    1.0865 O   0  0  0  0  0  0  0  0  0  0  0  0
    1.0971   -0.8626    0.1495 C   0  0  0  0  0  0  0  0  0  0  0  0
    2.0695    0.1273   -0.1459 C   0  0  0  0  0  0  0  0  0  0  0  0
    0.7975    0.6812    0.2560 C   0  0  0  0  0  0  0  0  0  0  0  0
   -1.2928   -1.5165   -1.1495 H   0  0  0  0  0  0  0  0  0  0  0  0
   -2.1043    0.0276   -1.2477 H   0  0  0  0  0  0  0  0  0  0  0  0
   -0.4554   -0.0625   -1.8567 H   0  0  0  0  0  0  0  0  0  0  0  0
   -2.1851    1.4586    0.5587 H   0  0  0  0  0  0  0  0  0  0  0  0
    0.7231   -1.3581   -0.7720 H   0  0  0  0  0  0  0  0  0  0  0  0
    3.0129    0.1098    0.4808 H   0  0  0  0  0  0  0  0  0  0  0  0
    2.3782    0.4106   -1.1997 H   0  0  0  0  0  0  0  0  0  0  0  0
    0.9255    1.1059    1.3020 H   0  0  0  0  0  0  0  0  0  0  0  0
  1  2  1  0
  2  3  1  0
  3  4  2  0
  2  5  1  0
  5  6  1  0
  6  7  1  0
  7  8  1  0
  8  2  1  0
  8  6  1  0
  1  9  1  0
  1 10  1  0
  1 11  1  0
  3 12  1  0
  6 13  1  0
  7 14  1  0
  7 15  1  0
  8 16  1  0
M  END
