
     RDKit          3D

 23 24  0  0  0  0  0  0  0  0999 V2000
   -1.9625   -1.3792   -0.6767 C   0  0  0  0  0  0  0  0  0  0  0  0
   -1.2253   -0.0959   -0.3893 C   0  0  0  0  0  0  0  0  0  0  0  0
    0.2408   -0.1710   -0.0609 C   0  0  0  0  0  0  0  0  0  0  0  0
    0.9923   -1.2414    0.0109 C   0  0  0  0  0  0  0  0  0  0  0  0
    2.4034   -0.9282    0.3631 C   0  0  0  0  0  0  0  0  0  0  0  0
    2.5153    0.5366    0.1728 C   0  0  0  0  0  0  0  0  0  0  0  0
    1.0731    1.0175    0.2395 C   0  0  0  0  0  0  0  0  0  0  0  0
   -2.0153    0.9413    0.3167 C   0  0  0  0  0  0  0  0  0  0  0  0
   -1.6701    1.1204   -1.1288 C   0  0  0  0  0  0  0  0  0  0  0  0
   -1.2347   -2.1078   -1.0849 H   0  0  0  0  0  0  0  0  0  0  0  0
   -2.4158   -1.8303    0.2257 H   0  0  0  0  0  0  0  0  0  0  0  0
   -2.7481   -1.1873   -1.4628 H   0  0  0  0  0  0  0  0  0  0  0  0
    0.5859   -2.2535   -0.1768 H   0  0  0  0  0  0  0  0  0  0  0  0
    2.6855   -1.2873    1.3666 H   0  0  0  0  0  0  0  0  0  0  0  0
    3.0338   -1.4265   -0.4234 H   0  0  0  0  0  0  0  0  0  0  0  0
    2.9561    0.8271   -0.8190 H   0  0  0  0  0  0  0  0  0  0  0  0
    3.1186    0.9716    0.9975 H   0  0  0  0  0  0  0  0  0  0  0  0
    0.8384    1.4847    1.2017 H   0  0  0  0  0  0  0  0  0  0  0  0
    0.9237    1.7695   -0.5638 H   0  0  0  0  0  0  0  0  0  0  0  0
   -3.1101    0.7754    0.5341 H   0  0  0  0  0  0  0  0  0  0  0  0
   -1.5449    1.6100    1.0459 H   0  0  0  0  0  0  0  0  0  0  0  0
   -2.4917    0.9736   -1.8905 H   0  0  0  0  0  0  0  0  0  0  0  0
   -0.9483    1.8806   -1.4569 H   0  0  0  0  0  0  0  0  0  0  0  0
  1  2  1  0
  2  3  1  0
  3  4  2  0
  4  5  1  0
  5  6  1  0
  6  7  1  0
  2  8  1  0
  8  9  1  0
  9  2  1  0
  7  3  1  0
  1 10  1  0
  1 11  1  0
  1 12  1  0
  4 13  1  0
  5 14  1  0
  5 15  1  0
  6 16  1  0
  6 17  1  0
  7 18  1  0
  7 19  1  0
  8 20  1  0
  8 21  1  0
  9 22  1  0
  9 23  1  0
M  END
