
     RDKit          3D

 21 21  0  0  0  0  0  0  0  0999 V2000
    1.0381    1.2899   -0.3052 C   0  0  0  0  0  0  0  0  0  0  0  0
    0.6493   -0.1277   -0.1354 C   0  0  0  0  0  0  0  0  0  0  0  0
    1.5195   -1.0012    0.7063 C   0  0  0  0  0  0  0  0  0  0  0  0
    0.1398   -0.8632   -1.3380 C   0  0  0  0  0  0  0  0  0  0  0  0
   -0.8134   -1.4627   -0.4793 O   0  0  0  0  0  0  0  0  0  0  0  0
   -0.8367   -0.2556    0.2067 C   0  0  0  0  0  0  0  0  0  0  0  0
   -1.6583    0.7741   -0.5670 C   0  0  0  0  0  0  0  0  0  0  0  0
   -1.1441   -0.3218    1.6313 C   0  0  0  0  0  0  0  0  0  0  0  0
   -1.1923    0.6671    2.3317 O   0  0  0  0  0  0  0  0  0  0  0  0
    0.3408    1.9601    0.2603 H   0  0  0  0  0  0  0  0  0  0  0  0
    1.1317    1.6318   -1.3463 H   0  0  0  0  0  0  0  0  0  0  0  0
    2.0326    1.4356    0.2061 H   0  0  0  0  0  0  0  0  0  0  0  0
    0.9062   -1.9174    0.9579 H   0  0  0  0  0  0  0  0  0  0  0  0
    1.8486   -0.4883    1.6234 H   0  0  0  0  0  0  0  0  0  0  0  0
    2.3950   -1.3472    0.1276 H   0  0  0  0  0  0  0  0  0  0  0  0
   -0.3118   -0.2578   -2.1370 H   0  0  0  0  0  0  0  0  0  0  0  0
    0.9034   -1.5906   -1.6894 H   0  0  0  0  0  0  0  0  0  0  0  0
   -1.0137    1.4204   -1.1836 H   0  0  0  0  0  0  0  0  0  0  0  0
   -2.1348    1.4322    0.1903 H   0  0  0  0  0  0  0  0  0  0  0  0
   -2.4610    0.2983   -1.1600 H   0  0  0  0  0  0  0  0  0  0  0  0
   -1.3390   -1.2758    2.0993 H   0  0  0  0  0  0  0  0  0  0  0  0
  1  2  1  0
  2  3  1  0
  2  4  1  0
  4  5  1  0
  5  6  1  0
  6  7  1  0
  6  8  1  0
  8  9  2  0
  6  2  1  0
  1 10  1  0
  1 11  1  0
  1 12  1  0
  3 13  1  0
  3 14  1  0
  3 15  1  0
  4 16  1  0
  4 17  1  0
  7 18  1  0
  7 19  1  0
  7 20  1  0
  8 21  1  0
M  END
