
     RDKit          3D

 19 19  0  0  0  0  0  0  0  0999 V2000
   -1.4600   -0.6675   -1.0328 C   0  0  0  0  0  0  0  0  0  0  0  0
   -0.6596   -0.0530    0.1252 C   0  0  0  0  0  0  0  0  0  0  0  0
   -1.6654    0.2609    1.1842 C   0  0  0  0  0  0  0  0  0  0  0  0
   -1.6679   -0.2982    2.2694 O   0  0  0  0  0  0  0  0  0  0  0  0
   -0.0129    1.2299   -0.2818 C   0  0  0  0  0  0  0  0  0  0  0  0
    1.2735    1.1258   -0.7185 O   0  0  0  0  0  0  0  0  0  0  0  0
    2.0437    0.3611    0.1500 C   0  0  0  0  0  0  0  0  0  0  0  0
    1.4491   -1.0258    0.1543 C   0  0  0  0  0  0  0  0  0  0  0  0
    0.1677   -1.0110    0.6075 O   0  0  0  0  0  0  0  0  0  0  0  0
   -1.9402    0.1313   -1.6278 H   0  0  0  0  0  0  0  0  0  0  0  0
   -0.8101   -1.3232   -1.6171 H   0  0  0  0  0  0  0  0  0  0  0  0
   -2.2481   -1.3251   -0.5680 H   0  0  0  0  0  0  0  0  0  0  0  0
   -2.4204    1.0136    0.9790 H   0  0  0  0  0  0  0  0  0  0  0  0
   -0.0655    1.9883    0.5284 H   0  0  0  0  0  0  0  0  0  0  0  0
   -0.6195    1.6730   -1.1255 H   0  0  0  0  0  0  0  0  0  0  0  0
    3.0620    0.3240   -0.2332 H   0  0  0  0  0  0  0  0  0  0  0  0
    2.0036    0.7640    1.1767 H   0  0  0  0  0  0  0  0  0  0  0  0
    2.0505   -1.6642    0.8599 H   0  0  0  0  0  0  0  0  0  0  0  0
    1.5194   -1.5038   -0.8300 H   0  0  0  0  0  0  0  0  0  0  0  0
  1  2  1  0
  2  3  1  0
  3  4  2  0
  2  5  1  0
  5  6  1  0
  6  7  1  0
  7  8  1  0
  8  9  1  0
  9  2  1  0
  1 10  1  0
  1 11  1  0
  1 12  1  0
  3 13  1  0
  5 14  1  0
  5 15  1  0
  7 16  1  0
  7 17  1  0
  8 18  1  0
  8 19  1  0
M  END
