
     RDKit          3D

 19 20  0  0  0  0  0  0  0  0999 V2000
    1.5656   -0.2563   -0.8625 C   0  0  0  0  0  0  0  0  0  0  0  0
    0.5043   -0.5448    0.2053 C   0  0  0  0  0  0  0  0  0  0  0  0
    1.0359   -1.3597    1.1719 O   0  0  0  0  0  0  0  0  0  0  0  0
   -0.0966    0.7029    0.8069 C   0  0  0  0  0  0  0  0  0  0  0  0
    0.6792    1.9402    0.6189 C   0  0  0  0  0  0  0  0  0  0  0  0
    0.1854    2.8650    0.0272 O   0  0  0  0  0  0  0  0  0  0  0  0
   -1.2365    0.5051   -0.2010 C   0  0  0  0  0  0  0  0  0  0  0  0
   -2.1018   -0.6307    0.1134 C   0  0  0  0  0  0  0  0  0  0  0  0
   -0.7723   -0.9472   -0.4267 C   0  0  0  0  0  0  0  0  0  0  0  0
    2.1153   -1.2167   -1.0036 H   0  0  0  0  0  0  0  0  0  0  0  0
    2.2057    0.5872   -0.5944 H   0  0  0  0  0  0  0  0  0  0  0  0
    1.0533   -0.0356   -1.8394 H   0  0  0  0  0  0  0  0  0  0  0  0
    0.8903   -2.3165    1.0139 H   0  0  0  0  0  0  0  0  0  0  0  0
   -0.4196    0.5109    1.8523 H   0  0  0  0  0  0  0  0  0  0  0  0
    1.6723    2.0132    1.0059 H   0  0  0  0  0  0  0  0  0  0  0  0
   -1.2564    1.0902   -1.1108 H   0  0  0  0  0  0  0  0  0  0  0  0
   -2.3242   -0.7807    1.2081 H   0  0  0  0  0  0  0  0  0  0  0  0
   -2.9702   -0.8116   -0.5166 H   0  0  0  0  0  0  0  0  0  0  0  0
   -0.7295   -1.3149   -1.4690 H   0  0  0  0  0  0  0  0  0  0  0  0
  1  2  1  0
  2  3  1  0
  2  4  1  0
  4  5  1  0
  5  6  2  0
  4  7  1  0
  7  8  1  0
  8  9  1  0
  9  2  1  0
  9  7  1  0
  1 10  1  0
  1 11  1  0
  1 12  1  0
  3 13  1  0
  4 14  1  0
  5 15  1  0
  7 16  1  0
  8 17  1  0
  8 18  1  0
  9 19  1  0
M  END
