
     RDKit          3D

 21 21  0  0  0  0  0  0  0  0999 V2000
   -1.8144    1.1514    0.0286 C   0  0  0  0  0  0  0  0  0  0  0  0
   -0.9603   -0.1106   -0.0810 C   0  0  0  0  0  0  0  0  0  0  0  0
   -1.8145   -1.3558   -0.1728 C   0  0  0  0  0  0  0  0  0  0  0  0
    0.0679   -0.1245    1.0167 C   0  0  0  0  0  0  0  0  0  0  0  0
    1.1525   -0.1397   -0.0418 C   0  0  0  0  0  0  0  0  0  0  0  0
    2.0262    0.9140    0.1451 O   0  0  0  0  0  0  0  0  0  0  0  0
    3.3806    0.6915    0.2789 C   0  0  0  0  0  0  0  0  0  0  0  0
    3.7580   -0.5033    0.2209 O   0  0  0  0  0  0  0  0  0  0  0  0
    0.1293   -0.0165   -1.1280 C   0  0  0  0  0  0  0  0  0  0  0  0
   -1.1707    2.0454   -0.0495 H   0  0  0  0  0  0  0  0  0  0  0  0
   -2.2602    1.1436    1.0543 H   0  0  0  0  0  0  0  0  0  0  0  0
   -2.6383    1.1375   -0.6848 H   0  0  0  0  0  0  0  0  0  0  0  0
   -2.8748   -1.0896   -0.0652 H   0  0  0  0  0  0  0  0  0  0  0  0
   -1.5671   -2.0527    0.6634 H   0  0  0  0  0  0  0  0  0  0  0  0
   -1.5803   -1.8540   -1.1344 H   0  0  0  0  0  0  0  0  0  0  0  0
    0.0702   -1.0339    1.6521 H   0  0  0  0  0  0  0  0  0  0  0  0
    0.0731    0.7718    1.6651 H   0  0  0  0  0  0  0  0  0  0  0  0
    1.6774   -1.1143   -0.0647 H   0  0  0  0  0  0  0  0  0  0  0  0
    4.1277    1.4395    0.4259 H   0  0  0  0  0  0  0  0  0  0  0  0
    0.0720    0.9634   -1.6385 H   0  0  0  0  0  0  0  0  0  0  0  0
    0.1456   -0.8631   -1.8179 H   0  0  0  0  0  0  0  0  0  0  0  0
  1  2  1  0
  2  3  1  0
  2  4  1  0
  4  5  1  0
  5  6  1  0
  6  7  1  0
  7  8  2  0
  5  9  1  0
  9  2  1  0
  1 10  1  0
  1 11  1  0
  1 12  1  0
  3 13  1  0
  3 14  1  0
  3 15  1  0
  4 16  1  0
  4 17  1  0
  5 18  1  0
  7 19  1  0
  9 20  1  0
  9 21  1  0
M  END
