
     RDKit          3D

 18 18  0  0  0  0  0  0  0  0999 V2000
    1.2953    0.7762   -0.7844 C   0  0  0  0  0  0  0  0  0  0  0  0
    0.4372    0.0009    0.1678 C   0  0  0  0  0  0  0  0  0  0  0  0
    1.1694   -0.2339    1.4398 C   0  0  0  0  0  0  0  0  0  0  0  0
    1.2821    0.6982    2.2165 O   0  0  0  0  0  0  0  0  0  0  0  0
   -0.1496   -1.2054   -0.4878 C   0  0  0  0  0  0  0  0  0  0  0  0
   -1.5233   -0.7419   -0.0164 C   0  0  0  0  0  0  0  0  0  0  0  0
   -0.9317    0.5693    0.4411 C   0  0  0  0  0  0  0  0  0  0  0  0
   -1.2847    1.6843   -0.2759 O   0  0  0  0  0  0  0  0  0  0  0  0
    2.3327    0.3622   -0.6996 H   0  0  0  0  0  0  0  0  0  0  0  0
    0.9925    0.6207   -1.8318 H   0  0  0  0  0  0  0  0  0  0  0  0
    1.3801    1.8452   -0.5082 H   0  0  0  0  0  0  0  0  0  0  0  0
    1.6141   -1.1729    1.7345 H   0  0  0  0  0  0  0  0  0  0  0  0
   -0.1318   -1.1632   -1.6084 H   0  0  0  0  0  0  0  0  0  0  0  0
    0.1862   -2.1663   -0.1002 H   0  0  0  0  0  0  0  0  0  0  0  0
   -2.2930   -0.6862   -0.7948 H   0  0  0  0  0  0  0  0  0  0  0  0
   -1.8442   -1.4264    0.8148 H   0  0  0  0  0  0  0  0  0  0  0  0
   -1.1607    0.7041    1.5290 H   0  0  0  0  0  0  0  0  0  0  0  0
   -1.3704    1.5352   -1.2362 H   0  0  0  0  0  0  0  0  0  0  0  0
  1  2  1  0
  2  3  1  0
  3  4  2  0
  2  5  1  0
  5  6  1  0
  6  7  1  0
  7  8  1  0
  7  2  1  0
  1  9  1  0
  1 10  1  0
  1 11  1  0
  3 12  1  0
  5 13  1  0
  5 14  1  0
  6 15  1  0
  6 16  1  0
  7 17  1  0
  8 18  1  0
M  END
