
     RDKit          3D

 23 24  0  0  0  0  0  0  0  0999 V2000
   -1.9829   -0.5854    0.8478 C   0  0  0  0  0  0  0  0  0  0  0  0
   -0.7791   -0.0535    0.0743 C   0  0  0  0  0  0  0  0  0  0  0  0
   -1.2486    0.7969   -1.0647 C   0  0  0  0  0  0  0  0  0  0  0  0
   -0.0069    0.8181    1.0585 C   0  0  0  0  0  0  0  0  0  0  0  0
    1.4294    0.6075    0.6708 C   0  0  0  0  0  0  0  0  0  0  0  0
    1.7175    1.5057   -0.3601 O   0  0  0  0  0  0  0  0  0  0  0  0
    1.4834   -0.8347    0.1912 C   0  0  0  0  0  0  0  0  0  0  0  0
    1.2404   -1.0474   -1.2426 C   0  0  0  0  0  0  0  0  0  0  0  0
    0.1144   -1.1762   -0.3164 C   0  0  0  0  0  0  0  0  0  0  0  0
   -2.3702    0.2725    1.4391 H   0  0  0  0  0  0  0  0  0  0  0  0
   -1.6371   -1.4002    1.4982 H   0  0  0  0  0  0  0  0  0  0  0  0
   -2.6981   -0.9814    0.1226 H   0  0  0  0  0  0  0  0  0  0  0  0
   -1.3341    0.2705   -2.0238 H   0  0  0  0  0  0  0  0  0  0  0  0
   -2.2729    1.1668   -0.7982 H   0  0  0  0  0  0  0  0  0  0  0  0
   -0.6223    1.7121   -1.1471 H   0  0  0  0  0  0  0  0  0  0  0  0
   -0.2499    1.8942    0.8959 H   0  0  0  0  0  0  0  0  0  0  0  0
   -0.1812    0.5176    2.1001 H   0  0  0  0  0  0  0  0  0  0  0  0
    2.1369    0.7696    1.5017 H   0  0  0  0  0  0  0  0  0  0  0  0
    2.6672    1.6701   -0.4871 H   0  0  0  0  0  0  0  0  0  0  0  0
    1.9209   -1.6031    0.8559 H   0  0  0  0  0  0  0  0  0  0  0  0
    1.3656   -0.1481   -1.9094 H   0  0  0  0  0  0  0  0  0  0  0  0
    1.6054   -1.9667   -1.7445 H   0  0  0  0  0  0  0  0  0  0  0  0
   -0.2977   -2.2050   -0.1620 H   0  0  0  0  0  0  0  0  0  0  0  0
  1  2  1  0
  2  3  1  0
  2  4  1  0
  4  5  1  0
  5  6  1  0
  5  7  1  0
  7  8  1  0
  8  9  1  0
  9  2  1  0
  9  7  1  0
  1 10  1  0
  1 11  1  0
  1 12  1  0
  3 13  1  0
  3 14  1  0
  3 15  1  0
  4 16  1  0
  4 17  1  0
  5 18  1  0
  6 19  1  0
  7 20  1  0
  8 21  1  0
  8 22  1  0
  9 23  1  0
M  END
