
     RDKit          3D

 14 14  0  0  0  0  0  0  0  0999 V2000
   -0.9027    1.0882   -0.8166 C   0  0  0  0  0  0  0  0  0  0  0  0
   -0.1226   -0.1112   -0.3213 C   0  0  0  0  0  0  0  0  0  0  0  0
    1.3052    0.1313    0.1258 C   0  0  0  0  0  0  0  0  0  0  0  0
    1.7297   -0.8061    1.0575 O   0  0  0  0  0  0  0  0  0  0  0  0
   -0.9319   -1.1758    0.3104 C   0  0  0  0  0  0  0  0  0  0  0  0
   -0.3545   -1.3470   -0.9235 O   0  0  0  0  0  0  0  0  0  0  0  0
   -0.5122    1.9784   -0.2706 H   0  0  0  0  0  0  0  0  0  0  0  0
   -1.9965    0.9950   -0.5824 H   0  0  0  0  0  0  0  0  0  0  0  0
   -0.7835    1.2497   -1.9114 H   0  0  0  0  0  0  0  0  0  0  0  0
    1.4165    1.1490    0.5361 H   0  0  0  0  0  0  0  0  0  0  0  0
    2.0160    0.0695   -0.7400 H   0  0  0  0  0  0  0  0  0  0  0  0
    1.6207   -0.4951    2.0000 H   0  0  0  0  0  0  0  0  0  0  0  0
   -2.0289   -1.0639    0.3362 H   0  0  0  0  0  0  0  0  0  0  0  0
   -0.4553   -1.6619    1.1999 H   0  0  0  0  0  0  0  0  0  0  0  0
  1  2  1  0
  2  3  1  0
  3  4  1  0
  2  5  1  0
  5  6  1  0
  6  2  1  0
  1  7  1  0
  1  8  1  0
  1  9  1  0
  3 10  1  0
  3 11  1  0
  4 12  1  0
  5 13  1  0
  5 14  1  0
M  END
