
     RDKit          3D

 21 22  0  0  0  0  0  0  0  0999 V2000
    2.3149   -0.1762   -0.5422 C   0  0  0  0  0  0  0  0  0  0  0  0
    1.0789    0.2105    0.2227 C   0  0  0  0  0  0  0  0  0  0  0  0
    1.2929    1.1564    1.2216 O   0  0  0  0  0  0  0  0  0  0  0  0
    0.2751   -0.9804    0.7454 C   0  0  0  0  0  0  0  0  0  0  0  0
   -0.6833   -0.8611   -0.4218 C   0  0  0  0  0  0  0  0  0  0  0  0
   -2.1162   -0.6497   -0.0311 C   0  0  0  0  0  0  0  0  0  0  0  0
   -2.2031    0.8021    0.2634 C   0  0  0  0  0  0  0  0  0  0  0  0
   -1.0949    1.4283   -0.0953 C   0  0  0  0  0  0  0  0  0  0  0  0
   -0.1066    0.4986   -0.6793 C   0  0  0  0  0  0  0  0  0  0  0  0
    3.2016    0.3491   -0.1002 H   0  0  0  0  0  0  0  0  0  0  0  0
    2.4832   -1.2639   -0.5026 H   0  0  0  0  0  0  0  0  0  0  0  0
    2.2756    0.1109   -1.6050 H   0  0  0  0  0  0  0  0  0  0  0  0
    2.2340    1.4538    1.2088 H   0  0  0  0  0  0  0  0  0  0  0  0
   -0.1486   -0.8256    1.7383 H   0  0  0  0  0  0  0  0  0  0  0  0
    0.8599   -1.9389    0.7098 H   0  0  0  0  0  0  0  0  0  0  0  0
   -0.5680   -1.6125   -1.2168 H   0  0  0  0  0  0  0  0  0  0  0  0
   -2.3674   -1.2536    0.8897 H   0  0  0  0  0  0  0  0  0  0  0  0
   -2.8168   -0.9408   -0.8382 H   0  0  0  0  0  0  0  0  0  0  0  0
   -3.0871    1.2991    0.7265 H   0  0  0  0  0  0  0  0  0  0  0  0
   -0.9795    2.5255    0.0506 H   0  0  0  0  0  0  0  0  0  0  0  0
    0.1557    0.6683   -1.7444 H   0  0  0  0  0  0  0  0  0  0  0  0
  1  2  1  0
  2  3  1  0
  2  4  1  0
  4  5  1  0
  5  6  1  0
  6  7  1  0
  7  8  2  0
  8  9  1  0
  9  2  1  0
  9  5  1  0
  1 10  1  0
  1 11  1  0
  1 12  1  0
  3 13  1  0
  4 14  1  0
  4 15  1  0
  5 16  1  0
  6 17  1  0
  6 18  1  0
  7 19  1  0
  8 20  1  0
  9 21  1  0
M  END
