
     RDKit          3D

 17 17  0  0  0  0  0  0  0  0999 V2000
   -0.7706    1.7207   -0.8494 C   0  0  0  0  0  0  0  0  0  0  0  0
   -0.5355    0.3074   -0.3575 C   0  0  0  0  0  0  0  0  0  0  0  0
    0.8598    0.0189    0.0037 C   0  0  0  0  0  0  0  0  0  0  0  0
    2.0092   -0.2232    0.2807 C   0  0  0  0  0  0  0  0  0  0  0  0
    3.3872   -0.5086    0.6137 C   0  0  0  0  0  0  0  0  0  0  0  0
    4.2446   -0.7434   -0.3003 O   0  0  0  0  0  0  0  0  0  0  0  0
   -1.4581   -0.1467    0.7272 C   0  0  0  0  0  0  0  0  0  0  0  0
   -1.4238   -1.4220   -0.1039 C   0  0  0  0  0  0  0  0  0  0  0  0
   -1.0917   -0.6590   -1.2191 O   0  0  0  0  0  0  0  0  0  0  0  0
   -1.4668    1.6867   -1.6997 H   0  0  0  0  0  0  0  0  0  0  0  0
   -1.1635    2.2996    0.0165 H   0  0  0  0  0  0  0  0  0  0  0  0
    0.2231    2.1569   -1.1536 H   0  0  0  0  0  0  0  0  0  0  0  0
    3.7031   -0.5262    1.6280 H   0  0  0  0  0  0  0  0  0  0  0  0
   -1.0585   -0.2545    1.7307 H   0  0  0  0  0  0  0  0  0  0  0  0
   -2.4457    0.3700    0.6279 H   0  0  0  0  0  0  0  0  0  0  0  0
   -2.3775   -1.9555   -0.1832 H   0  0  0  0  0  0  0  0  0  0  0  0
   -0.6354   -2.1211    0.2381 H   0  0  0  0  0  0  0  0  0  0  0  0
  1  2  1  0
  2  3  1  0
  3  4  3  0
  4  5  1  0
  5  6  2  0
  2  7  1  0
  7  8  1  0
  8  9  1  0
  9  2  1  0
  1 10  1  0
  1 11  1  0
  1 12  1  0
  5 13  1  0
  7 14  1  0
  7 15  1  0
  8 16  1  0
  8 17  1  0
M  END
