
     RDKit          3D

 21 21  0  0  0  0  0  0  0  0999 V2000
   -0.2719    1.4886   -0.0712 C   0  0  0  0  0  0  0  0  0  0  0  0
   -0.2142   -0.0010   -0.1957 C   0  0  0  0  0  0  0  0  0  0  0  0
    1.1091   -0.5070   -0.7099 C   0  0  0  0  0  0  0  0  0  0  0  0
    2.2620   -0.1299    0.1781 C   0  0  0  0  0  0  0  0  0  0  0  0
    2.4167    1.2297    0.3244 O   0  0  0  0  0  0  0  0  0  0  0  0
   -1.2618   -0.5380   -1.0935 C   0  0  0  0  0  0  0  0  0  0  0  0
   -2.2376   -0.9765   -0.3316 C   0  0  0  0  0  0  0  0  0  0  0  0
   -1.8655   -0.7425    1.0771 C   0  0  0  0  0  0  0  0  0  0  0  0
   -0.4981   -0.5879    1.0455 O   0  0  0  0  0  0  0  0  0  0  0  0
   -0.0500    1.8619    0.9513 H   0  0  0  0  0  0  0  0  0  0  0  0
   -1.2960    1.8897   -0.3102 H   0  0  0  0  0  0  0  0  0  0  0  0
    0.4760    1.9455   -0.7639 H   0  0  0  0  0  0  0  0  0  0  0  0
    1.2522   -0.2050   -1.7540 H   0  0  0  0  0  0  0  0  0  0  0  0
    1.0424   -1.6314   -0.6786 H   0  0  0  0  0  0  0  0  0  0  0  0
    2.1605   -0.6671    1.1464 H   0  0  0  0  0  0  0  0  0  0  0  0
    3.1830   -0.5274   -0.2970 H   0  0  0  0  0  0  0  0  0  0  0  0
    2.8324    1.4995    1.1742 H   0  0  0  0  0  0  0  0  0  0  0  0
   -1.2691   -0.5832   -2.1722 H   0  0  0  0  0  0  0  0  0  0  0  0
   -3.1880   -1.4457   -0.6603 H   0  0  0  0  0  0  0  0  0  0  0  0
   -2.1912   -1.5647    1.7480 H   0  0  0  0  0  0  0  0  0  0  0  0
   -2.3911    0.1924    1.3932 H   0  0  0  0  0  0  0  0  0  0  0  0
  1  2  1  0
  2  3  1  0
  3  4  1  0
  4  5  1  0
  2  6  1  0
  6  7  2  0
  7  8  1  0
  8  9  1  0
  9  2  1  0
  1 10  1  0
  1 11  1  0
  1 12  1  0
  3 13  1  0
  3 14  1  0
  4 15  1  0
  4 16  1  0
  5 17  1  0
  6 18  1  0
  7 19  1  0
  8 20  1  0
  8 21  1  0
M  END
