
     RDKit          3D

 19 20  0  0  0  0  0  0  0  0999 V2000
   -1.8577    1.2144    0.0284 C   0  0  0  0  0  0  0  0  0  0  0  0
   -0.7984    0.1746    0.2837 C   0  0  0  0  0  0  0  0  0  0  0  0
   -0.6643   -0.1492    1.5986 O   0  0  0  0  0  0  0  0  0  0  0  0
   -0.8612   -1.0127   -0.7025 C   0  0  0  0  0  0  0  0  0  0  0  0
    0.5778   -1.1480   -0.2482 C   0  0  0  0  0  0  0  0  0  0  0  0
    1.7032   -0.2809   -0.5011 C   0  0  0  0  0  0  0  0  0  0  0  0
    2.6631    0.1416    0.5528 C   0  0  0  0  0  0  0  0  0  0  0  0
    2.3047    0.4587    1.6733 O   0  0  0  0  0  0  0  0  0  0  0  0
    0.4607    0.4124   -0.5207 C   0  0  0  0  0  0  0  0  0  0  0  0
   -1.5576    1.8696   -0.8366 H   0  0  0  0  0  0  0  0  0  0  0  0
   -2.8581    0.7811   -0.1410 H   0  0  0  0  0  0  0  0  0  0  0  0
   -1.8780    1.8803    0.9133 H   0  0  0  0  0  0  0  0  0  0  0  0
   -1.4333   -0.7104    1.8820 H   0  0  0  0  0  0  0  0  0  0  0  0
   -0.9416   -0.6525   -1.7283 H   0  0  0  0  0  0  0  0  0  0  0  0
   -1.4734   -1.8449   -0.3869 H   0  0  0  0  0  0  0  0  0  0  0  0
    0.5475   -1.4274    0.8498 H   0  0  0  0  0  0  0  0  0  0  0  0
    2.2457   -0.5308   -1.4639 H   0  0  0  0  0  0  0  0  0  0  0  0
    3.7140    0.1703    0.3228 H   0  0  0  0  0  0  0  0  0  0  0  0
    0.1069    0.6536   -1.5754 H   0  0  0  0  0  0  0  0  0  0  0  0
  1  2  1  0
  2  3  1  0
  2  4  1  0
  4  5  1  0
  5  6  1  0
  6  7  1  0
  7  8  2  0
  6  9  1  0
  9  2  1  0
  9  5  1  0
  1 10  1  0
  1 11  1  0
  1 12  1  0
  3 13  1  0
  4 14  1  0
  4 15  1  0
  5 16  1  0
  6 17  1  0
  7 18  1  0
  9 19  1  0
M  END
