
     RDKit          3D

 17 17  0  0  0  0  0  0  0  0999 V2000
   -1.6332   -1.2788    0.1024 C   0  0  0  0  0  0  0  0  0  0  0  0
   -0.5927   -0.1701    0.1596 C   0  0  0  0  0  0  0  0  0  0  0  0
   -0.3894    0.3131    1.4474 O   0  0  0  0  0  0  0  0  0  0  0  0
   -0.7700    0.9334   -0.8688 C   0  0  0  0  0  0  0  0  0  0  0  0
    0.3869   -0.0255   -0.9116 C   0  0  0  0  0  0  0  0  0  0  0  0
    1.7742    0.4934   -0.7105 C   0  0  0  0  0  0  0  0  0  0  0  0
    2.5255   -0.2697    0.1737 O   0  0  0  0  0  0  0  0  0  0  0  0
   -2.6355   -0.8453   -0.1823 H   0  0  0  0  0  0  0  0  0  0  0  0
   -1.7973   -1.7335    1.1052 H   0  0  0  0  0  0  0  0  0  0  0  0
   -1.3118   -2.0641   -0.5854 H   0  0  0  0  0  0  0  0  0  0  0  0
   -1.2881    0.4717    1.8436 H   0  0  0  0  0  0  0  0  0  0  0  0
   -0.4998    1.9665   -0.6001 H   0  0  0  0  0  0  0  0  0  0  0  0
   -1.6108    0.8381   -1.5554 H   0  0  0  0  0  0  0  0  0  0  0  0
    0.3104   -0.7781   -1.7461 H   0  0  0  0  0  0  0  0  0  0  0  0
    2.3160    0.4855   -1.6806 H   0  0  0  0  0  0  0  0  0  0  0  0
    1.7555    1.5527   -0.3414 H   0  0  0  0  0  0  0  0  0  0  0  0
    3.4601    0.1106    0.1275 H   0  0  0  0  0  0  0  0  0  0  0  0
  1  2  1  0
  2  3  1  0
  2  4  1  0
  4  5  1  0
  5  6  1  0
  6  7  1  0
  5  2  1  0
  1  8  1  0
  1  9  1  0
  1 10  1  0
  3 11  1  0
  4 12  1  0
  4 13  1  0
  5 14  1  0
  6 15  1  0
  6 16  1  0
  7 17  1  0
M  END
