
     RDKit          3D

 21 22  0  0  0  0  0  0  0  0999 V2000
    2.2115   -0.3318   -0.6474 C   0  0  0  0  0  0  0  0  0  0  0  0
    1.2162    0.5277    0.1088 C   0  0  0  0  0  0  0  0  0  0  0  0
    1.2928    1.8958   -0.1400 O   0  0  0  0  0  0  0  0  0  0  0  0
    0.8403    0.0048    1.4414 C   0  0  0  0  0  0  0  0  0  0  0  0
   -0.1594    0.0190    0.3682 C   0  0  0  0  0  0  0  0  0  0  0  0
   -0.5568   -1.1807   -0.4142 C   0  0  0  0  0  0  0  0  0  0  0  0
   -1.9850   -0.9473   -0.7265 C   0  0  0  0  0  0  0  0  0  0  0  0
   -2.4065    0.1946   -0.2322 C   0  0  0  0  0  0  0  0  0  0  0  0
   -1.3344    0.9216    0.4954 C   0  0  0  0  0  0  0  0  0  0  0  0
    3.1441   -0.3343   -0.0094 H   0  0  0  0  0  0  0  0  0  0  0  0
    2.4589    0.0925   -1.6408 H   0  0  0  0  0  0  0  0  0  0  0  0
    1.9013   -1.3957   -0.6940 H   0  0  0  0  0  0  0  0  0  0  0  0
    0.6164    2.0680   -0.8700 H   0  0  0  0  0  0  0  0  0  0  0  0
    0.7427    0.7828    2.2411 H   0  0  0  0  0  0  0  0  0  0  0  0
    1.2858   -0.9424    1.8025 H   0  0  0  0  0  0  0  0  0  0  0  0
   -0.0101   -1.1897   -1.3760 H   0  0  0  0  0  0  0  0  0  0  0  0
   -0.3894   -2.1007    0.1797 H   0  0  0  0  0  0  0  0  0  0  0  0
   -2.5979   -1.6348   -1.2911 H   0  0  0  0  0  0  0  0  0  0  0  0
   -3.4212    0.6086   -0.3185 H   0  0  0  0  0  0  0  0  0  0  0  0
   -1.6677    0.9943    1.5697 H   0  0  0  0  0  0  0  0  0  0  0  0
   -1.1814    1.9477    0.1533 H   0  0  0  0  0  0  0  0  0  0  0  0
  1  2  1  0
  2  3  1  0
  2  4  1  0
  4  5  1  0
  5  6  1  0
  6  7  1  0
  7  8  2  0
  8  9  1  0
  5  2  1  0
  9  5  1  0
  1 10  1  0
  1 11  1  0
  1 12  1  0
  3 13  1  0
  4 14  1  0
  4 15  1  0
  6 16  1  0
  6 17  1  0
  7 18  1  0
  8 19  1  0
  9 20  1  0
  9 21  1  0
M  END
