
     RDKit          3D

 17 18  0  0  0  0  0  0  0  0999 V2000
   -1.7993    0.6338   -0.2725 C   0  0  0  0  0  0  0  0  0  0  0  0
   -0.7885   -0.3751    0.1470 C   0  0  0  0  0  0  0  0  0  0  0  0
   -1.1899   -1.1831    1.2244 O   0  0  0  0  0  0  0  0  0  0  0  0
    0.1835   -0.9494   -0.8006 C   0  0  0  0  0  0  0  0  0  0  0  0
    0.9792   -1.9841   -0.2731 O   0  0  0  0  0  0  0  0  0  0  0  0
    1.7320   -0.9854    0.3526 C   0  0  0  0  0  0  0  0  0  0  0  0
    0.6471    0.0317    0.2029 C   0  0  0  0  0  0  0  0  0  0  0  0
    0.9676    1.4257   -0.1441 C   0  0  0  0  0  0  0  0  0  0  0  0
    1.0654    2.2471    0.7708 O   0  0  0  0  0  0  0  0  0  0  0  0
   -2.3930    0.9382    0.6308 H   0  0  0  0  0  0  0  0  0  0  0  0
   -2.5115    0.2398   -1.0553 H   0  0  0  0  0  0  0  0  0  0  0  0
   -1.3239    1.5196   -0.7517 H   0  0  0  0  0  0  0  0  0  0  0  0
   -1.5854   -0.6248    1.9558 H   0  0  0  0  0  0  0  0  0  0  0  0
    0.2282   -0.7120   -1.8597 H   0  0  0  0  0  0  0  0  0  0  0  0
    2.5996   -0.7042   -0.3103 H   0  0  0  0  0  0  0  0  0  0  0  0
    2.0822   -1.2056    1.3604 H   0  0  0  0  0  0  0  0  0  0  0  0
    1.1067    1.6877   -1.1773 H   0  0  0  0  0  0  0  0  0  0  0  0
  1  2  1  0
  2  3  1  0
  2  4  1  0
  4  5  1  0
  5  6  1  0
  6  7  1  0
  7  8  1  0
  8  9  2  0
  7  2  1  0
  7  4  1  0
  1 10  1  0
  1 11  1  0
  1 12  1  0
  3 13  1  0
  4 14  1  0
  6 15  1  0
  6 16  1  0
  8 17  1  0
M  END
