
     RDKit          3D

 21 21  0  0  0  0  0  0  0  0999 V2000
   -1.7477   -0.9510   -0.1368 C   0  0  0  0  0  0  0  0  0  0  0  0
   -0.4465   -0.3163   -0.5521 C   0  0  0  0  0  0  0  0  0  0  0  0
   -0.2650   -0.2603   -1.9295 O   0  0  0  0  0  0  0  0  0  0  0  0
    0.0413    0.9218    0.1610 C   0  0  0  0  0  0  0  0  0  0  0  0
   -0.9349    1.4944    1.1429 C   0  0  0  0  0  0  0  0  0  0  0  0
    0.7354    1.8944   -0.5717 O   0  0  0  0  0  0  0  0  0  0  0  0
    0.7392   -0.3462    0.3616 C   0  0  0  0  0  0  0  0  0  0  0  0
    2.0598   -0.5545   -0.3786 C   0  0  0  0  0  0  0  0  0  0  0  0
    0.6871   -1.0329    1.5658 O   0  0  0  0  0  0  0  0  0  0  0  0
   -1.8145   -1.1704    0.9366 H   0  0  0  0  0  0  0  0  0  0  0  0
   -2.5652   -0.3233   -0.5292 H   0  0  0  0  0  0  0  0  0  0  0  0
   -1.8103   -1.9316   -0.6667 H   0  0  0  0  0  0  0  0  0  0  0  0
   -0.4229   -1.1349   -2.3239 H   0  0  0  0  0  0  0  0  0  0  0  0
   -1.6235    0.7558    1.5808 H   0  0  0  0  0  0  0  0  0  0  0  0
   -0.4757    2.0705    1.9580 H   0  0  0  0  0  0  0  0  0  0  0  0
   -1.5662    2.2349    0.5679 H   0  0  0  0  0  0  0  0  0  0  0  0
    0.6588    1.6139   -1.5250 H   0  0  0  0  0  0  0  0  0  0  0  0
    2.0143   -0.1922   -1.4128 H   0  0  0  0  0  0  0  0  0  0  0  0
    2.9201   -0.1582    0.1987 H   0  0  0  0  0  0  0  0  0  0  0  0
    2.2134   -1.6696   -0.4190 H   0  0  0  0  0  0  0  0  0  0  0  0
    1.6030   -0.9444    1.9719 H   0  0  0  0  0  0  0  0  0  0  0  0
  1  2  1  0
  2  3  1  0
  2  4  1  0
  4  5  1  0
  4  6  1  0
  4  7  1  0
  7  8  1  0
  7  9  1  0
  7  2  1  0
  1 10  1  0
  1 11  1  0
  1 12  1  0
  3 13  1  0
  5 14  1  0
  5 15  1  0
  5 16  1  0
  6 17  1  0
  8 18  1  0
  8 19  1  0
  8 20  1  0
  9 21  1  0
M  END
