
     RDKit          3D

 21 21  0  0  0  0  0  0  0  0999 V2000
   -1.5005   -0.6841    1.1626 C   0  0  0  0  0  0  0  0  0  0  0  0
   -0.6727    0.3195    0.4420 C   0  0  0  0  0  0  0  0  0  0  0  0
   -0.2129    1.3610    1.1922 O   0  0  0  0  0  0  0  0  0  0  0  0
   -1.3050    0.6522   -0.8858 C   0  0  0  0  0  0  0  0  0  0  0  0
   -0.6072   -0.4222   -1.4376 O   0  0  0  0  0  0  0  0  0  0  0  0
    0.3800   -0.2145   -0.4775 C   0  0  0  0  0  0  0  0  0  0  0  0
    1.0327   -1.4984   -0.1039 C   0  0  0  0  0  0  0  0  0  0  0  0
    1.3999    0.7986   -0.9121 C   0  0  0  0  0  0  0  0  0  0  0  0
    2.3487    0.9580    0.0826 O   0  0  0  0  0  0  0  0  0  0  0  0
   -1.2915   -0.7167    2.2595 H   0  0  0  0  0  0  0  0  0  0  0  0
   -2.5760   -0.3461    1.0800 H   0  0  0  0  0  0  0  0  0  0  0  0
   -1.4966   -1.6970    0.7123 H   0  0  0  0  0  0  0  0  0  0  0  0
   -0.8176    2.1206    1.2855 H   0  0  0  0  0  0  0  0  0  0  0  0
   -2.4229    0.5116   -0.8677 H   0  0  0  0  0  0  0  0  0  0  0  0
   -1.0430    1.6067   -1.3307 H   0  0  0  0  0  0  0  0  0  0  0  0
    1.5983   -1.8532   -1.0158 H   0  0  0  0  0  0  0  0  0  0  0  0
    0.3762   -2.3082    0.1837 H   0  0  0  0  0  0  0  0  0  0  0  0
    1.8082   -1.3898    0.6815 H   0  0  0  0  0  0  0  0  0  0  0  0
    0.9867    1.7724   -1.1856 H   0  0  0  0  0  0  0  0  0  0  0  0
    1.9243    0.4078   -1.8225 H   0  0  0  0  0  0  0  0  0  0  0  0
    2.0910    0.6217    0.9570 H   0  0  0  0  0  0  0  0  0  0  0  0
  1  2  1  0
  2  3  1  0
  2  4  1  0
  4  5  1  0
  5  6  1  0
  6  7  1  0
  6  8  1  0
  8  9  1  0
  6  2  1  0
  1 10  1  0
  1 11  1  0
  1 12  1  0
  3 13  1  0
  4 14  1  0
  4 15  1  0
  7 16  1  0
  7 17  1  0
  7 18  1  0
  8 19  1  0
  8 20  1  0
  9 21  1  0
M  END
