
     RDKit          3D

 19 19  0  0  0  0  0  0  0  0999 V2000
   -1.3665    1.0468    0.3328 C   0  0  0  0  0  0  0  0  0  0  0  0
   -0.5802   -0.0270   -0.3618 C   0  0  0  0  0  0  0  0  0  0  0  0
   -1.0515   -0.2275   -1.6453 O   0  0  0  0  0  0  0  0  0  0  0  0
   -0.5679   -1.2902    0.4312 C   0  0  0  0  0  0  0  0  0  0  0  0
    0.8453   -0.9599    0.8687 C   0  0  0  0  0  0  0  0  0  0  0  0
    0.9038    0.0546   -0.2720 C   0  0  0  0  0  0  0  0  0  0  0  0
    1.4978   -0.5560   -1.3752 O   0  0  0  0  0  0  0  0  0  0  0  0
    1.5027    1.3127    0.1554 C   0  0  0  0  0  0  0  0  0  0  0  0
    2.4592    1.7585   -0.4470 O   0  0  0  0  0  0  0  0  0  0  0  0
   -1.1892    1.1007    1.4203 H   0  0  0  0  0  0  0  0  0  0  0  0
   -1.2846    2.0421   -0.1685 H   0  0  0  0  0  0  0  0  0  0  0  0
   -2.4515    0.7669    0.2225 H   0  0  0  0  0  0  0  0  0  0  0  0
   -1.5642   -1.0762   -1.7018 H   0  0  0  0  0  0  0  0  0  0  0  0
   -1.2688   -1.3164    1.2955 H   0  0  0  0  0  0  0  0  0  0  0  0
   -0.6847   -2.1970   -0.1679 H   0  0  0  0  0  0  0  0  0  0  0  0
    0.9088   -0.4540    1.8413 H   0  0  0  0  0  0  0  0  0  0  0  0
    1.5684   -1.7982    0.7538 H   0  0  0  0  0  0  0  0  0  0  0  0
    1.2073   -0.0419   -2.1805 H   0  0  0  0  0  0  0  0  0  0  0  0
    1.1158    1.8621    0.9984 H   0  0  0  0  0  0  0  0  0  0  0  0
  1  2  1  0
  2  3  1  0
  2  4  1  0
  4  5  1  0
  5  6  1  0
  6  7  1  0
  6  8  1  0
  8  9  2  0
  6  2  1  0
  1 10  1  0
  1 11  1  0
  1 12  1  0
  3 13  1  0
  4 14  1  0
  4 15  1  0
  5 16  1  0
  5 17  1  0
  7 18  1  0
  8 19  1  0
M  END
