
     RDKit          3D

 21 22  0  0  0  0  0  0  0  0999 V2000
   -0.6216    1.5279    0.0374 C   0  0  0  0  0  0  0  0  0  0  0  0
   -0.2886    0.0502    0.0316 C   0  0  0  0  0  0  0  0  0  0  0  0
   -1.3201   -0.8024    0.7361 C   0  0  0  0  0  0  0  0  0  0  0  0
   -2.6915   -0.8673    0.3349 C   0  0  0  0  0  0  0  0  0  0  0  0
   -2.3162   -0.1238    1.4835 O   0  0  0  0  0  0  0  0  0  0  0  0
    0.3295   -0.4309   -1.2373 C   0  0  0  0  0  0  0  0  0  0  0  0
    1.0902   -0.4324    0.0279 C   0  0  0  0  0  0  0  0  0  0  0  0
    2.2665    0.4967    0.2157 C   0  0  0  0  0  0  0  0  0  0  0  0
    3.4789   -0.1898    0.1751 O   0  0  0  0  0  0  0  0  0  0  0  0
   -1.7258    1.5960   -0.1136 H   0  0  0  0  0  0  0  0  0  0  0  0
   -0.3968    2.0096    1.0029 H   0  0  0  0  0  0  0  0  0  0  0  0
   -0.1638    2.0670   -0.8168 H   0  0  0  0  0  0  0  0  0  0  0  0
   -0.9073   -1.6745    1.3231 H   0  0  0  0  0  0  0  0  0  0  0  0
   -3.1055   -0.2578   -0.4891 H   0  0  0  0  0  0  0  0  0  0  0  0
   -3.2646   -1.8028    0.5043 H   0  0  0  0  0  0  0  0  0  0  0  0
    0.6185    0.3004   -2.0080 H   0  0  0  0  0  0  0  0  0  0  0  0
   -0.0850   -1.3693   -1.6728 H   0  0  0  0  0  0  0  0  0  0  0  0
    1.2758   -1.4481    0.4650 H   0  0  0  0  0  0  0  0  0  0  0  0
    2.3023    1.2288   -0.6333 H   0  0  0  0  0  0  0  0  0  0  0  0
    2.1169    1.0282    1.1652 H   0  0  0  0  0  0  0  0  0  0  0  0
    3.4083   -0.9057   -0.5320 H   0  0  0  0  0  0  0  0  0  0  0  0
  1  2  1  0
  2  3  1  0
  3  4  1  0
  4  5  1  0
  2  6  1  0
  6  7  1  0
  7  8  1  0
  8  9  1  0
  7  2  1  0
  5  3  1  0
  1 10  1  0
  1 11  1  0
  1 12  1  0
  3 13  1  0
  4 14  1  0
  4 15  1  0
  6 16  1  0
  6 17  1  0
  7 18  1  0
  8 19  1  0
  8 20  1  0
  9 21  1  0
M  END
