
     RDKit          3D

 19 21  0  0  0  0  0  0  0  0999 V2000
   -1.3979    1.1206   -0.8763 C   0  0  0  0  0  0  0  0  0  0  0  0
   -1.0590   -0.1745   -0.1584 C   0  0  0  0  0  0  0  0  0  0  0  0
   -2.2302   -1.0201    0.1584 C   0  0  0  0  0  0  0  0  0  0  0  0
   -3.2693   -0.8294   -0.4388 O   0  0  0  0  0  0  0  0  0  0  0  0
    0.1709   -0.9107   -0.5276 C   0  0  0  0  0  0  0  0  0  0  0  0
    1.4389   -0.2212   -0.9060 C   0  0  0  0  0  0  0  0  0  0  0  0
    2.5355   -0.0219    0.0480 C   0  0  0  0  0  0  0  0  0  0  0  0
    1.2642    0.7033    0.2816 C   0  0  0  0  0  0  0  0  0  0  0  0
    0.1070   -0.1395    0.7343 C   0  0  0  0  0  0  0  0  0  0  0  0
   -1.6958    1.8410   -0.0820 H   0  0  0  0  0  0  0  0  0  0  0  0
   -2.2688    0.9179   -1.5453 H   0  0  0  0  0  0  0  0  0  0  0  0
   -0.5482    1.5240   -1.4483 H   0  0  0  0  0  0  0  0  0  0  0  0
   -2.2069   -1.8063    0.9036 H   0  0  0  0  0  0  0  0  0  0  0  0
    0.1454   -2.0235   -0.5398 H   0  0  0  0  0  0  0  0  0  0  0  0
    1.4604    0.1999   -1.9276 H   0  0  0  0  0  0  0  0  0  0  0  0
    3.3837    0.5759   -0.3194 H   0  0  0  0  0  0  0  0  0  0  0  0
    2.8400   -0.7904    0.7805 H   0  0  0  0  0  0  0  0  0  0  0  0
    1.1310    1.7715    0.0164 H   0  0  0  0  0  0  0  0  0  0  0  0
    0.1994   -0.7167    1.6678 H   0  0  0  0  0  0  0  0  0  0  0  0
  1  2  1  0
  2  3  1  0
  3  4  2  0
  2  5  1  0
  5  6  1  0
  6  7  1  0
  7  8  1  0
  8  9  1  0
  9  2  1  0
  9  5  1  0
  8  6  1  0
  1 10  1  0
  1 11  1  0
  1 12  1  0
  3 13  1  0
  5 14  1  0
  6 15  1  0
  7 16  1  0
  7 17  1  0
  8 18  1  0
  9 19  1  0
M  END
