
     RDKit          3D

 19 19  0  0  0  0  0  0  0  0999 V2000
    1.7559   -0.0803    0.3443 C   0  0  0  0  0  0  0  0  0  0  0  0
    0.5393   -0.1391   -0.5612 C   0  0  0  0  0  0  0  0  0  0  0  0
    0.9199   -0.1882   -1.9022 O   0  0  0  0  0  0  0  0  0  0  0  0
   -0.3187   -1.3470   -0.2533 C   0  0  0  0  0  0  0  0  0  0  0  0
   -1.1950   -0.8234    0.8282 C   0  0  0  0  0  0  0  0  0  0  0  0
   -1.4871   -1.3837    1.8678 O   0  0  0  0  0  0  0  0  0  0  0  0
   -1.6154    0.5188    0.3383 C   0  0  0  0  0  0  0  0  0  0  0  0
   -0.3837    1.0101   -0.3636 C   0  0  0  0  0  0  0  0  0  0  0  0
    0.2690    1.9392    0.4756 O   0  0  0  0  0  0  0  0  0  0  0  0
    2.0597   -1.0630    0.7184 H   0  0  0  0  0  0  0  0  0  0  0  0
    2.5518    0.4536   -0.2155 H   0  0  0  0  0  0  0  0  0  0  0  0
    1.5503    0.5495    1.2528 H   0  0  0  0  0  0  0  0  0  0  0  0
    1.4030   -1.0352   -2.0582 H   0  0  0  0  0  0  0  0  0  0  0  0
    0.2522   -2.2284    0.0400 H   0  0  0  0  0  0  0  0  0  0  0  0
   -0.9278   -1.5534   -1.1663 H   0  0  0  0  0  0  0  0  0  0  0  0
   -1.8883    1.2101    1.1394 H   0  0  0  0  0  0  0  0  0  0  0  0
   -2.4770    0.4097   -0.3533 H   0  0  0  0  0  0  0  0  0  0  0  0
   -0.6424    1.5150   -1.3226 H   0  0  0  0  0  0  0  0  0  0  0  0
   -0.3656    2.2356    1.1914 H   0  0  0  0  0  0  0  0  0  0  0  0
  1  2  1  0
  2  3  1  0
  2  4  1  0
  4  5  1  0
  5  6  2  0
  5  7  1  0
  7  8  1  0
  8  9  1  0
  8  2  1  0
  1 10  1  0
  1 11  1  0
  1 12  1  0
  3 13  1  0
  4 14  1  0
  4 15  1  0
  7 16  1  0
  7 17  1  0
  8 18  1  0
  9 19  1  0
M  END
