
     RDKit          3D

 15 15  0  0  0  0  0  0  0  0999 V2000
   -1.5697   -0.6946   -0.2102 C   0  0  0  0  0  0  0  0  0  0  0  0
   -0.3846    0.1639    0.1377 C   0  0  0  0  0  0  0  0  0  0  0  0
   -0.3218    1.3768   -0.6788 C   0  0  0  0  0  0  0  0  0  0  0  0
   -0.1504    2.4532   -0.1359 O   0  0  0  0  0  0  0  0  0  0  0  0
   -0.2280    0.4373    1.5143 O   0  0  0  0  0  0  0  0  0  0  0  0
    1.1387    0.4598    1.2984 C   0  0  0  0  0  0  0  0  0  0  0  0
    2.0527    1.1171    1.8363 O   0  0  0  0  0  0  0  0  0  0  0  0
    0.9303   -0.5625    0.2488 C   0  0  0  0  0  0  0  0  0  0  0  0
    1.7655   -0.4832   -0.8464 O   0  0  0  0  0  0  0  0  0  0  0  0
   -1.2454   -1.6879   -0.5299 H   0  0  0  0  0  0  0  0  0  0  0  0
   -2.2026   -0.2027   -1.0040 H   0  0  0  0  0  0  0  0  0  0  0  0
   -2.1870   -0.7902    0.7231 H   0  0  0  0  0  0  0  0  0  0  0  0
   -0.4205    1.3749   -1.7593 H   0  0  0  0  0  0  0  0  0  0  0  0
    0.8224   -1.5663    0.7117 H   0  0  0  0  0  0  0  0  0  0  0  0
    2.0003   -1.3956   -1.1925 H   0  0  0  0  0  0  0  0  0  0  0  0
  1  2  1  0
  2  3  1  0
  3  4  2  0
  2  5  1  0
  5  6  1  0
  6  7  2  0
  6  8  1  0
  8  9  1  0
  8  2  1  0
  1 10  1  0
  1 11  1  0
  1 12  1  0
  3 13  1  0
  8 14  1  0
  9 15  1  0
M  END
