
     RDKit          3D

 23 25  0  0  0  0  0  0  0  0999 V2000
    1.5259    1.5376   -0.0802 C   0  0  0  0  0  0  0  0  0  0  0  0
    0.8694    0.2009   -0.0398 C   0  0  0  0  0  0  0  0  0  0  0  0
    1.9237   -0.8769   -0.2256 C   0  0  0  0  0  0  0  0  0  0  0  0
    0.0868   -0.0007    1.2318 C   0  0  0  0  0  0  0  0  0  0  0  0
   -1.1753   -0.7595    0.8480 C   0  0  0  0  0  0  0  0  0  0  0  0
   -2.2327    0.2703    0.4292 C   0  0  0  0  0  0  0  0  0  0  0  0
   -1.5793    0.3106   -0.9134 C   0  0  0  0  0  0  0  0  0  0  0  0
   -0.9900   -1.0784   -0.5781 C   0  0  0  0  0  0  0  0  0  0  0  0
   -0.1593    0.0004   -1.1239 C   0  0  0  0  0  0  0  0  0  0  0  0
    1.9246    1.7334   -1.0979 H   0  0  0  0  0  0  0  0  0  0  0  0
    0.8551    2.3402    0.2679 H   0  0  0  0  0  0  0  0  0  0  0  0
    2.3951    1.5145    0.6086 H   0  0  0  0  0  0  0  0  0  0  0  0
    2.6138   -0.5040   -1.0104 H   0  0  0  0  0  0  0  0  0  0  0  0
    2.3925   -1.0693    0.7396 H   0  0  0  0  0  0  0  0  0  0  0  0
    1.4693   -1.8137   -0.6434 H   0  0  0  0  0  0  0  0  0  0  0  0
   -0.1933    1.0107    1.6457 H   0  0  0  0  0  0  0  0  0  0  0  0
    0.6415   -0.5571    2.0032 H   0  0  0  0  0  0  0  0  0  0  0  0
   -1.5122   -1.5192    1.5413 H   0  0  0  0  0  0  0  0  0  0  0  0
   -2.2340    1.1879    1.0256 H   0  0  0  0  0  0  0  0  0  0  0  0
   -3.2207   -0.2780    0.4101 H   0  0  0  0  0  0  0  0  0  0  0  0
   -2.2292    0.4048   -1.7787 H   0  0  0  0  0  0  0  0  0  0  0  0
   -1.3430   -1.9449   -1.0918 H   0  0  0  0  0  0  0  0  0  0  0  0
    0.1715   -0.1098   -2.1678 H   0  0  0  0  0  0  0  0  0  0  0  0
  1  2  1  0
  2  3  1  0
  2  4  1  0
  4  5  1  0
  5  6  1  0
  6  7  1  0
  7  8  1  0
  8  9  1  0
  9  2  1  0
  8  5  1  0
  9  7  1  0
  1 10  1  0
  1 11  1  0
  1 12  1  0
  3 13  1  0
  3 14  1  0
  3 15  1  0
  4 16  1  0
  4 17  1  0
  5 18  1  0
  6 19  1  0
  6 20  1  0
  7 21  1  0
  8 22  1  0
  9 23  1  0
M  END
