
     RDKit          3D

 21 21  0  0  0  0  0  0  0  0999 V2000
   -1.5065    1.1415   -0.1972 C   0  0  0  0  0  0  0  0  0  0  0  0
   -0.7698   -0.1762   -0.2502 C   0  0  0  0  0  0  0  0  0  0  0  0
   -1.6851   -1.2649   -0.7491 C   0  0  0  0  0  0  0  0  0  0  0  0
   -0.2093   -0.5699    1.0908 C   0  0  0  0  0  0  0  0  0  0  0  0
    1.0734    0.2383    1.1407 C   0  0  0  0  0  0  0  0  0  0  0  0
    1.3395    0.5623   -0.3215 C   0  0  0  0  0  0  0  0  0  0  0  0
    2.6607    0.0325   -0.7183 C   0  0  0  0  0  0  0  0  0  0  0  0
    3.6557    0.4580   -0.2131 O   0  0  0  0  0  0  0  0  0  0  0  0
    0.3604   -0.0757   -1.0327 O   0  0  0  0  0  0  0  0  0  0  0  0
   -1.0202    1.8417   -0.9093 H   0  0  0  0  0  0  0  0  0  0  0  0
   -1.4262    1.6242    0.8183 H   0  0  0  0  0  0  0  0  0  0  0  0
   -2.5658    1.0055   -0.4841 H   0  0  0  0  0  0  0  0  0  0  0  0
   -2.3457   -0.8218   -1.5408 H   0  0  0  0  0  0  0  0  0  0  0  0
   -1.0973   -2.1196   -1.1109 H   0  0  0  0  0  0  0  0  0  0  0  0
   -2.3829   -1.5428    0.0808 H   0  0  0  0  0  0  0  0  0  0  0  0
    0.0455   -1.6403    1.0664 H   0  0  0  0  0  0  0  0  0  0  0  0
   -0.8776   -0.3846    1.9296 H   0  0  0  0  0  0  0  0  0  0  0  0
    0.8614    1.1348    1.7432 H   0  0  0  0  0  0  0  0  0  0  0  0
    1.8892   -0.3810    1.5259 H   0  0  0  0  0  0  0  0  0  0  0  0
    1.2912    1.6769   -0.4024 H   0  0  0  0  0  0  0  0  0  0  0  0
    2.7094   -0.7390   -1.4663 H   0  0  0  0  0  0  0  0  0  0  0  0
  1  2  1  0
  2  3  1  0
  2  4  1  0
  4  5  1  0
  5  6  1  0
  6  7  1  0
  7  8  2  0
  6  9  1  0
  9  2  1  0
  1 10  1  0
  1 11  1  0
  1 12  1  0
  3 13  1  0
  3 14  1  0
  3 15  1  0
  4 16  1  0
  4 17  1  0
  5 18  1  0
  5 19  1  0
  6 20  1  0
  7 21  1  0
M  END
