
     RDKit          3D

 18 18  0  0  0  0  0  0  0  0999 V2000
   -2.0005   -0.1135    0.4976 C   0  0  0  0  0  0  0  0  0  0  0  0
   -0.6679    0.1322   -0.1538 C   0  0  0  0  0  0  0  0  0  0  0  0
   -0.7253    0.5684   -1.4706 O   0  0  0  0  0  0  0  0  0  0  0  0
    0.3317    0.9072    0.6492 C   0  0  0  0  0  0  0  0  0  0  0  0
    1.3404   -0.1916    0.3671 C   0  0  0  0  0  0  0  0  0  0  0  0
    2.1597    0.0315   -0.8641 C   0  0  0  0  0  0  0  0  0  0  0  0
    2.6836   -0.9578   -1.3527 O   0  0  0  0  0  0  0  0  0  0  0  0
    0.1992   -1.1050    0.0595 C   0  0  0  0  0  0  0  0  0  0  0  0
   -2.3971   -1.0734    0.0740 H   0  0  0  0  0  0  0  0  0  0  0  0
   -2.6970    0.7189    0.3767 H   0  0  0  0  0  0  0  0  0  0  0  0
   -1.8139   -0.3267    1.5697 H   0  0  0  0  0  0  0  0  0  0  0  0
   -1.6701    0.8001   -1.6527 H   0  0  0  0  0  0  0  0  0  0  0  0
    0.6558    1.8735    0.2106 H   0  0  0  0  0  0  0  0  0  0  0  0
    0.1537    0.9492    1.7465 H   0  0  0  0  0  0  0  0  0  0  0  0
    1.9851   -0.4762    1.2065 H   0  0  0  0  0  0  0  0  0  0  0  0
    2.2779    1.0220   -1.2946 H   0  0  0  0  0  0  0  0  0  0  0  0
    0.2518   -1.6572   -0.8924 H   0  0  0  0  0  0  0  0  0  0  0  0
   -0.0672   -1.7180    0.9236 H   0  0  0  0  0  0  0  0  0  0  0  0
  1  2  1  0
  2  3  1  0
  2  4  1  0
  4  5  1  0
  5  6  1  0
  6  7  2  0
  5  8  1  0
  8  2  1  0
  1  9  1  0
  1 10  1  0
  1 11  1  0
  3 12  1  0
  4 13  1  0
  4 14  1  0
  5 15  1  0
  6 16  1  0
  8 17  1  0
  8 18  1  0
M  END
