
     RDKit          3D

 19 20  0  0  0  0  0  0  0  0999 V2000
    1.6377   -1.1243    0.0396 C   0  0  0  0  0  0  0  0  0  0  0  0
    0.7421    0.0831    0.1560 C   0  0  0  0  0  0  0  0  0  0  0  0
    1.4070    1.2824    0.8510 C   0  0  0  0  0  0  0  0  0  0  0  0
    0.8015    1.7271    1.7510 O   0  0  0  0  0  0  0  0  0  0  0  0
    0.1656    0.5119   -1.2702 C   0  0  0  0  0  0  0  0  0  0  0  0
   -0.6381    0.0717   -0.1556 C   0  0  0  0  0  0  0  0  0  0  0  0
   -1.5412   -1.1157   -0.1230 C   0  0  0  0  0  0  0  0  0  0  0  0
   -2.5896   -0.2562    0.1815 O   0  0  0  0  0  0  0  0  0  0  0  0
   -1.7398    0.8490    0.4671 C   0  0  0  0  0  0  0  0  0  0  0  0
    1.4461   -1.7959    0.9342 H   0  0  0  0  0  0  0  0  0  0  0  0
    2.6948   -0.8558    0.0017 H   0  0  0  0  0  0  0  0  0  0  0  0
    1.3945   -1.7057   -0.8590 H   0  0  0  0  0  0  0  0  0  0  0  0
    2.3253    1.5838    0.4600 H   0  0  0  0  0  0  0  0  0  0  0  0
    0.3321   -0.2070   -2.0887 H   0  0  0  0  0  0  0  0  0  0  0  0
    0.1646    1.6043   -1.4869 H   0  0  0  0  0  0  0  0  0  0  0  0
   -1.6270   -1.6967   -1.0560 H   0  0  0  0  0  0  0  0  0  0  0  0
   -1.3000   -1.8042    0.7355 H   0  0  0  0  0  0  0  0  0  0  0  0
   -2.0595    1.7702   -0.0709 H   0  0  0  0  0  0  0  0  0  0  0  0
   -1.6160    1.0779    1.5329 H   0  0  0  0  0  0  0  0  0  0  0  0
  1  2  1  0
  2  3  1  0
  3  4  2  0
  2  5  1  0
  5  6  1  0
  6  7  1  0
  7  8  1  0
  8  9  1  0
  6  2  1  0
  9  6  1  0
  1 10  1  0
  1 11  1  0
  1 12  1  0
  3 13  1  0
  5 14  1  0
  5 15  1  0
  7 16  1  0
  7 17  1  0
  9 18  1  0
  9 19  1  0
M  END
