
     RDKit          3D

 19 20  0  0  0  0  0  0  0  0999 V2000
   -1.2115    1.1231    0.7600 C   0  0  0  0  0  0  0  0  0  0  0  0
   -0.5309   -0.0851    0.1008 C   0  0  0  0  0  0  0  0  0  0  0  0
    0.9576   -0.0566    0.1328 C   0  0  0  0  0  0  0  0  0  0  0  0
    1.5329    1.1419   -0.5569 C   0  0  0  0  0  0  0  0  0  0  0  0
    0.8670    2.1314   -0.7932 O   0  0  0  0  0  0  0  0  0  0  0  0
    1.8014   -0.7889    1.0012 C   0  0  0  0  0  0  0  0  0  0  0  0
    1.5325   -1.3015   -0.3206 O   0  0  0  0  0  0  0  0  0  0  0  0
   -1.0622   -0.4096   -1.3256 C   0  0  0  0  0  0  0  0  0  0  0  0
   -1.3441   -1.2665   -0.1373 C   0  0  0  0  0  0  0  0  0  0  0  0
   -1.3492    1.9171   -0.0043 H   0  0  0  0  0  0  0  0  0  0  0  0
   -0.5498    1.4856    1.5584 H   0  0  0  0  0  0  0  0  0  0  0  0
   -2.1968    0.8444    1.1845 H   0  0  0  0  0  0  0  0  0  0  0  0
    2.5799    1.1696   -0.8764 H   0  0  0  0  0  0  0  0  0  0  0  0
    2.8760   -0.4785    1.0817 H   0  0  0  0  0  0  0  0  0  0  0  0
    1.5016   -1.4315    1.8456 H   0  0  0  0  0  0  0  0  0  0  0  0
   -1.8042    0.3017   -1.7240 H   0  0  0  0  0  0  0  0  0  0  0  0
   -0.3739   -0.8137   -2.0653 H   0  0  0  0  0  0  0  0  0  0  0  0
   -2.3931   -1.2327    0.2064 H   0  0  0  0  0  0  0  0  0  0  0  0
   -0.8331   -2.2503   -0.0677 H   0  0  0  0  0  0  0  0  0  0  0  0
  1  2  1  0
  2  3  1  0
  3  4  1  0
  4  5  2  0
  3  6  1  0
  6  7  1  0
  2  8  1  0
  8  9  1  0
  9  2  1  0
  7  3  1  0
  1 10  1  0
  1 11  1  0
  1 12  1  0
  4 13  1  0
  6 14  1  0
  6 15  1  0
  8 16  1  0
  8 17  1  0
  9 18  1  0
  9 19  1  0
M  END
