
     RDKit          3D

 21 21  0  0  0  0  0  0  0  0999 V2000
   -1.3512    0.6937    1.1078 C   0  0  0  0  0  0  0  0  0  0  0  0
   -0.5014    0.0869    0.0095 C   0  0  0  0  0  0  0  0  0  0  0  0
   -1.1595    0.2684   -1.3168 C   0  0  0  0  0  0  0  0  0  0  0  0
   -0.3556   -1.3973    0.2582 C   0  0  0  0  0  0  0  0  0  0  0  0
    1.0056   -1.6098    0.7834 C   0  0  0  0  0  0  0  0  0  0  0  0
    1.7094   -0.5078    0.7167 C   0  0  0  0  0  0  0  0  0  0  0  0
    0.8827    0.5843    0.1289 C   0  0  0  0  0  0  0  0  0  0  0  0
    1.5119    1.0457   -1.1089 C   0  0  0  0  0  0  0  0  0  0  0  0
    2.6118    1.5694   -1.0310 O   0  0  0  0  0  0  0  0  0  0  0  0
   -2.3601    0.9895    0.7279 H   0  0  0  0  0  0  0  0  0  0  0  0
   -0.8996    1.6493    1.4921 H   0  0  0  0  0  0  0  0  0  0  0  0
   -1.4884   -0.0212    1.9410 H   0  0  0  0  0  0  0  0  0  0  0  0
   -2.2725    0.2178   -1.1533 H   0  0  0  0  0  0  0  0  0  0  0  0
   -0.9455    1.2083   -1.8191 H   0  0  0  0  0  0  0  0  0  0  0  0
   -0.9428   -0.5698   -2.0328 H   0  0  0  0  0  0  0  0  0  0  0  0
   -0.4639   -1.9791   -0.6852 H   0  0  0  0  0  0  0  0  0  0  0  0
   -1.1049   -1.7151    1.0249 H   0  0  0  0  0  0  0  0  0  0  0  0
    1.3515   -2.5575    1.1665 H   0  0  0  0  0  0  0  0  0  0  0  0
    2.7363   -0.3583    1.0264 H   0  0  0  0  0  0  0  0  0  0  0  0
    0.9414    1.4331    0.8711 H   0  0  0  0  0  0  0  0  0  0  0  0
    1.0948    0.9695   -2.1071 H   0  0  0  0  0  0  0  0  0  0  0  0
  1  2  1  0
  2  3  1  0
  2  4  1  0
  4  5  1  0
  5  6  2  0
  6  7  1  0
  7  8  1  0
  8  9  2  0
  7  2  1  0
  1 10  1  0
  1 11  1  0
  1 12  1  0
  3 13  1  0
  3 14  1  0
  3 15  1  0
  4 16  1  0
  4 17  1  0
  5 18  1  0
  6 19  1  0
  7 20  1  0
  8 21  1  0
M  END
