
     RDKit          3D

 17 18  0  0  0  0  0  0  0  0999 V2000
   -0.2638    1.4777   -0.7498 C   0  0  0  0  0  0  0  0  0  0  0  0
   -0.1466    0.0663   -0.1465 C   0  0  0  0  0  0  0  0  0  0  0  0
   -1.4169   -0.7142   -0.4959 C   0  0  0  0  0  0  0  0  0  0  0  0
   -2.5478   -0.1165    0.0016 O   0  0  0  0  0  0  0  0  0  0  0  0
    0.4937   -0.1247    1.1064 C   0  0  0  0  0  0  0  0  0  0  0  0
    1.4085   -1.1578    1.5143 O   0  0  0  0  0  0  0  0  0  0  0  0
    2.2749   -0.4330    0.7117 C   0  0  0  0  0  0  0  0  0  0  0  0
    3.3969    0.0852    0.7021 O   0  0  0  0  0  0  0  0  0  0  0  0
    1.1638   -0.5429   -0.2662 C   0  0  0  0  0  0  0  0  0  0  0  0
   -0.1604    1.4186   -1.8366 H   0  0  0  0  0  0  0  0  0  0  0  0
   -1.2556    1.9174   -0.4369 H   0  0  0  0  0  0  0  0  0  0  0  0
    0.4976    2.1216   -0.2813 H   0  0  0  0  0  0  0  0  0  0  0  0
   -1.2435   -1.7470   -0.1078 H   0  0  0  0  0  0  0  0  0  0  0  0
   -1.4178   -0.8056   -1.6166 H   0  0  0  0  0  0  0  0  0  0  0  0
   -2.7900   -0.6168    0.8441 H   0  0  0  0  0  0  0  0  0  0  0  0
    0.9281    0.8277    1.5518 H   0  0  0  0  0  0  0  0  0  0  0  0
    1.0790   -1.6558   -0.4945 H   0  0  0  0  0  0  0  0  0  0  0  0
  1  2  1  0
  2  3  1  0
  3  4  1  0
  2  5  1  0
  5  6  1  0
  6  7  1  0
  7  8  2  0
  7  9  1  0
  9  2  1  0
  9  5  1  0
  1 10  1  0
  1 11  1  0
  1 12  1  0
  3 13  1  0
  3 14  1  0
  4 15  1  0
  5 16  1  0
  9 17  1  0
M  END
