
     RDKit          3D

 18 18  0  0  0  0  0  0  0  0999 V2000
   -1.9156   -0.2372   -0.3755 C   0  0  0  0  0  0  0  0  0  0  0  0
   -0.5882    0.3171    0.1397 C   0  0  0  0  0  0  0  0  0  0  0  0
   -0.7539    1.7699    0.4449 C   0  0  0  0  0  0  0  0  0  0  0  0
   -0.0665   -0.5566    1.2099 C   0  0  0  0  0  0  0  0  0  0  0  0
    0.6025   -0.3941   -0.1811 C   0  0  0  0  0  0  0  0  0  0  0  0
    1.9362   -0.2098   -0.0096 O   0  0  0  0  0  0  0  0  0  0  0  0
    3.0091   -0.8661   -0.5336 C   0  0  0  0  0  0  0  0  0  0  0  0
    2.6290   -1.7764   -1.2882 O   0  0  0  0  0  0  0  0  0  0  0  0
   -1.8423   -1.3505   -0.4782 H   0  0  0  0  0  0  0  0  0  0  0  0
   -2.2374    0.2532   -1.3023 H   0  0  0  0  0  0  0  0  0  0  0  0
   -2.6705    0.0178    0.4117 H   0  0  0  0  0  0  0  0  0  0  0  0
    0.1476    2.3736    0.4186 H   0  0  0  0  0  0  0  0  0  0  0  0
   -1.1823    1.8618    1.4783 H   0  0  0  0  0  0  0  0  0  0  0  0
   -1.4839    2.2892   -0.2150 H   0  0  0  0  0  0  0  0  0  0  0  0
    0.3562   -0.0613    2.0744 H   0  0  0  0  0  0  0  0  0  0  0  0
   -0.4265   -1.5805    1.4037 H   0  0  0  0  0  0  0  0  0  0  0  0
    0.4741   -1.2536   -0.8875 H   0  0  0  0  0  0  0  0  0  0  0  0
    4.0123   -0.5967   -0.2970 H   0  0  0  0  0  0  0  0  0  0  0  0
  1  2  1  0
  2  3  1  0
  2  4  1  0
  4  5  1  0
  5  6  1  0
  6  7  1  0
  7  8  2  0
  5  2  1  0
  1  9  1  0
  1 10  1  0
  1 11  1  0
  3 12  1  0
  3 13  1  0
  3 14  1  0
  4 15  1  0
  4 16  1  0
  5 17  1  0
  7 18  1  0
M  END
