
     RDKit          3D

 23 24  0  0  0  0  0  0  0  0999 V2000
   -1.5810    1.4172    0.0247 C   0  0  0  0  0  0  0  0  0  0  0  0
   -0.6594    0.1862   -0.0109 C   0  0  0  0  0  0  0  0  0  0  0  0
   -1.4317   -0.9082    0.6632 C   0  0  0  0  0  0  0  0  0  0  0  0
   -0.3154   -0.1618   -1.4550 C   0  0  0  0  0  0  0  0  0  0  0  0
    1.1185   -0.3160   -1.7105 C   0  0  0  0  0  0  0  0  0  0  0  0
    2.0277   -0.6058   -0.7487 C   0  0  0  0  0  0  0  0  0  0  0  0
    1.4451   -0.7494    0.5623 C   0  0  0  0  0  0  0  0  0  0  0  0
    1.3570    0.0576    1.7110 C   0  0  0  0  0  0  0  0  0  0  0  0
    0.5985    0.5735    0.6410 C   0  0  0  0  0  0  0  0  0  0  0  0
   -1.3264    2.0912   -0.8404 H   0  0  0  0  0  0  0  0  0  0  0  0
   -1.3570    1.9726    0.9621 H   0  0  0  0  0  0  0  0  0  0  0  0
   -2.6386    1.1144    0.0237 H   0  0  0  0  0  0  0  0  0  0  0  0
   -1.1634   -1.9204    0.3497 H   0  0  0  0  0  0  0  0  0  0  0  0
   -1.3901   -0.7328    1.7529 H   0  0  0  0  0  0  0  0  0  0  0  0
   -2.5186   -0.7837    0.3778 H   0  0  0  0  0  0  0  0  0  0  0  0
   -0.6868    0.6696   -2.0899 H   0  0  0  0  0  0  0  0  0  0  0  0
   -0.9065   -1.0667   -1.7739 H   0  0  0  0  0  0  0  0  0  0  0  0
    1.4415   -0.1827   -2.7559 H   0  0  0  0  0  0  0  0  0  0  0  0
    3.0445   -0.6899   -1.0772 H   0  0  0  0  0  0  0  0  0  0  0  0
    0.8507   -1.7155    0.5889 H   0  0  0  0  0  0  0  0  0  0  0  0
    2.2555    0.6070    2.0692 H   0  0  0  0  0  0  0  0  0  0  0  0
    0.7996   -0.3366    2.6119 H   0  0  0  0  0  0  0  0  0  0  0  0
    1.0363    1.4803    0.1241 H   0  0  0  0  0  0  0  0  0  0  0  0
  1  2  1  0
  2  3  1  0
  2  4  1  0
  4  5  1  0
  5  6  2  0
  6  7  1  0
  7  8  1  0
  8  9  1  0
  9  2  1  0
  9  7  1  0
  1 10  1  0
  1 11  1  0
  1 12  1  0
  3 13  1  0
  3 14  1  0
  3 15  1  0
  4 16  1  0
  4 17  1  0
  5 18  1  0
  6 19  1  0
  7 20  1  0
  8 21  1  0
  8 22  1  0
  9 23  1  0
M  END
