
     RDKit          3D

 25 25  0  0  0  0  0  0  0  0999 V2000
   -1.9545    0.2177   -1.1233 C   0  0  0  0  0  0  0  0  0  0  0  0
   -0.9971    0.1106    0.0456 C   0  0  0  0  0  0  0  0  0  0  0  0
   -1.6860    0.3681    1.3589 C   0  0  0  0  0  0  0  0  0  0  0  0
   -0.4371   -1.3084    0.0137 C   0  0  0  0  0  0  0  0  0  0  0  0
    0.9737   -1.1829    0.4975 C   0  0  0  0  0  0  0  0  0  0  0  0
    1.4092    0.1912    0.1101 C   0  0  0  0  0  0  0  0  0  0  0  0
    2.1795    0.2396   -1.1869 C   0  0  0  0  0  0  0  0  0  0  0  0
    2.2272    0.6825    1.1462 O   0  0  0  0  0  0  0  0  0  0  0  0
    0.1721    1.0372   -0.0661 C   0  0  0  0  0  0  0  0  0  0  0  0
   -2.8763   -0.3474   -0.8203 H   0  0  0  0  0  0  0  0  0  0  0  0
   -1.5479   -0.3348   -1.9969 H   0  0  0  0  0  0  0  0  0  0  0  0
   -2.1726    1.2501   -1.4044 H   0  0  0  0  0  0  0  0  0  0  0  0
   -2.0110   -0.6099    1.7853 H   0  0  0  0  0  0  0  0  0  0  0  0
   -2.5707    1.0239    1.1625 H   0  0  0  0  0  0  0  0  0  0  0  0
   -0.9999    0.9115    2.0594 H   0  0  0  0  0  0  0  0  0  0  0  0
   -1.0713   -1.9637    0.6160 H   0  0  0  0  0  0  0  0  0  0  0  0
   -0.4252   -1.6781   -1.0368 H   0  0  0  0  0  0  0  0  0  0  0  0
    1.5628   -1.9973    0.0511 H   0  0  0  0  0  0  0  0  0  0  0  0
    1.0014   -1.2916    1.6139 H   0  0  0  0  0  0  0  0  0  0  0  0
    2.7494    1.2053   -1.1773 H   0  0  0  0  0  0  0  0  0  0  0  0
    2.9109   -0.5698   -1.2935 H   0  0  0  0  0  0  0  0  0  0  0  0
    1.4748    0.3056   -2.0319 H   0  0  0  0  0  0  0  0  0  0  0  0
    1.7791    0.3749    1.9865 H   0  0  0  0  0  0  0  0  0  0  0  0
    0.1234    1.5426   -1.0420 H   0  0  0  0  0  0  0  0  0  0  0  0
    0.1860    1.8229    0.7327 H   0  0  0  0  0  0  0  0  0  0  0  0
  1  2  1  0
  2  3  1  0
  2  4  1  0
  4  5  1  0
  5  6  1  0
  6  7  1  0
  6  8  1  0
  6  9  1  0
  9  2  1  0
  1 10  1  0
  1 11  1  0
  1 12  1  0
  3 13  1  0
  3 14  1  0
  3 15  1  0
  4 16  1  0
  4 17  1  0
  5 18  1  0
  5 19  1  0
  7 20  1  0
  7 21  1  0
  7 22  1  0
  8 23  1  0
  9 24  1  0
  9 25  1  0
M  END
