
     RDKit          3D

 19 21  0  0  0  0  0  0  0  0999 V2000
   -2.6517   -0.6858   -0.0805 C   0  0  0  0  0  0  0  0  0  0  0  0
   -1.3511    0.1233   -0.2418 C   0  0  0  0  0  0  0  0  0  0  0  0
   -1.5938    1.1899   -1.1498 O   0  0  0  0  0  0  0  0  0  0  0  0
   -0.4606    0.3155    0.8366 C   0  0  0  0  0  0  0  0  0  0  0  0
    0.4834   -0.5713    1.4013 O   0  0  0  0  0  0  0  0  0  0  0  0
    1.2101   -0.2012    0.2873 C   0  0  0  0  0  0  0  0  0  0  0  0
    2.0610    0.9074    0.0982 C   0  0  0  0  0  0  0  0  0  0  0  0
    2.5270   -0.5774   -0.0833 C   0  0  0  0  0  0  0  0  0  0  0  0
   -0.0662   -0.5293   -0.4425 C   0  0  0  0  0  0  0  0  0  0  0  0
   -3.5363   -0.0680   -0.1996 H   0  0  0  0  0  0  0  0  0  0  0  0
   -2.6272   -1.2721    0.8601 H   0  0  0  0  0  0  0  0  0  0  0  0
   -2.6277   -1.4249   -0.9092 H   0  0  0  0  0  0  0  0  0  0  0  0
   -1.8011    1.9665   -0.5385 H   0  0  0  0  0  0  0  0  0  0  0  0
    0.0456    1.3340    0.8697 H   0  0  0  0  0  0  0  0  0  0  0  0
    2.5574    1.4595    0.9090 H   0  0  0  0  0  0  0  0  0  0  0  0
    2.0236    1.4913   -0.8554 H   0  0  0  0  0  0  0  0  0  0  0  0
    3.2529   -0.9271    0.6948 H   0  0  0  0  0  0  0  0  0  0  0  0
    2.7340   -0.8763   -1.1394 H   0  0  0  0  0  0  0  0  0  0  0  0
   -0.1793   -1.6540   -0.3172 H   0  0  0  0  0  0  0  0  0  0  0  0
  1  2  1  0
  2  3  1  0
  2  4  1  0
  4  5  1  0
  5  6  1  0
  6  7  1  0
  7  8  1  0
  6  9  1  0
  9  2  1  0
  9  4  1  0
  8  6  1  0
  1 10  1  0
  1 11  1  0
  1 12  1  0
  3 13  1  0
  4 14  1  0
  7 15  1  0
  7 16  1  0
  8 17  1  0
  8 18  1  0
  9 19  1  0
M  END
