
     RDKit          3D

 17 18  0  0  0  0  0  0  0  0999 V2000
   -1.9823    0.0769    0.1566 C   0  0  0  0  0  0  0  0  0  0  0  0
   -0.7256   -0.3931   -0.5742 C   0  0  0  0  0  0  0  0  0  0  0  0
   -1.0273   -0.8935   -1.8526 O   0  0  0  0  0  0  0  0  0  0  0  0
    0.1724   -1.3216    0.3065 C   0  0  0  0  0  0  0  0  0  0  0  0
    0.5838   -0.0068   -0.1693 C   0  0  0  0  0  0  0  0  0  0  0  0
    0.9657    1.1314    0.7002 C   0  0  0  0  0  0  0  0  0  0  0  0
    2.2960    0.7868    0.1778 C   0  0  0  0  0  0  0  0  0  0  0  0
    3.4693    0.9059    0.5452 O   0  0  0  0  0  0  0  0  0  0  0  0
    1.6949    0.2521   -0.9381 O   0  0  0  0  0  0  0  0  0  0  0  0
   -1.7471    0.6760    1.0468 H   0  0  0  0  0  0  0  0  0  0  0  0
   -2.5210   -0.8419    0.4636 H   0  0  0  0  0  0  0  0  0  0  0  0
   -2.6188    0.6105   -0.5662 H   0  0  0  0  0  0  0  0  0  0  0  0
   -0.4683   -0.4428   -2.5137 H   0  0  0  0  0  0  0  0  0  0  0  0
    0.5678   -2.2149   -0.2076 H   0  0  0  0  0  0  0  0  0  0  0  0
   -0.1090   -1.4364    1.3515 H   0  0  0  0  0  0  0  0  0  0  0  0
    0.6435    2.1190    0.2898 H   0  0  0  0  0  0  0  0  0  0  0  0
    0.8060    0.9923    1.7838 H   0  0  0  0  0  0  0  0  0  0  0  0
  1  2  1  0
  2  3  1  0
  2  4  1  0
  4  5  1  0
  5  6  1  0
  6  7  1  0
  7  8  2  0
  7  9  1  0
  5  2  1  0
  9  5  1  0
  1 10  1  0
  1 11  1  0
  1 12  1  0
  3 13  1  0
  4 14  1  0
  4 15  1  0
  6 16  1  0
  6 17  1  0
M  END
