
     RDKit          3D

 21 23  0  0  0  0  0  0  0  0999 V2000
    2.2341   -0.5860    0.5678 C   0  0  0  0  0  0  0  0  0  0  0  0
    1.2481    0.2255   -0.1905 C   0  0  0  0  0  0  0  0  0  0  0  0
    1.7690    1.1660   -1.0817 O   0  0  0  0  0  0  0  0  0  0  0  0
    0.1027   -0.5035   -0.8306 C   0  0  0  0  0  0  0  0  0  0  0  0
   -0.3976   -0.7551    0.5515 C   0  0  0  0  0  0  0  0  0  0  0  0
   -1.8902   -0.7735    0.4093 C   0  0  0  0  0  0  0  0  0  0  0  0
   -2.0760    0.4983   -0.4418 C   0  0  0  0  0  0  0  0  0  0  0  0
   -0.6412    0.8043   -0.7276 C   0  0  0  0  0  0  0  0  0  0  0  0
    0.0492    0.6779    0.5959 C   0  0  0  0  0  0  0  0  0  0  0  0
    2.3071   -0.1963    1.6103 H   0  0  0  0  0  0  0  0  0  0  0  0
    3.2443   -0.4138    0.0927 H   0  0  0  0  0  0  0  0  0  0  0  0
    2.0683   -1.6664    0.5579 H   0  0  0  0  0  0  0  0  0  0  0  0
    1.9288    1.9979   -0.5998 H   0  0  0  0  0  0  0  0  0  0  0  0
    0.1281   -1.1221   -1.6144 H   0  0  0  0  0  0  0  0  0  0  0  0
    0.0850   -1.4759    1.1769 H   0  0  0  0  0  0  0  0  0  0  0  0
   -2.1531   -1.6437   -0.2248 H   0  0  0  0  0  0  0  0  0  0  0  0
   -2.4417   -0.7144    1.3509 H   0  0  0  0  0  0  0  0  0  0  0  0
   -2.6263    0.2967   -1.3583 H   0  0  0  0  0  0  0  0  0  0  0  0
   -2.5827    1.2765    0.1737 H   0  0  0  0  0  0  0  0  0  0  0  0
   -0.3814    1.6017   -1.3882 H   0  0  0  0  0  0  0  0  0  0  0  0
    0.0257    1.3057    1.3707 H   0  0  0  0  0  0  0  0  0  0  0  0
  1  2  1  0
  2  3  1  0
  2  4  1  0
  4  5  1  0
  5  6  1  0
  6  7  1  0
  7  8  1  0
  8  9  1  0
  9  2  1  0
  8  4  1  0
  9  5  1  0
  1 10  1  0
  1 11  1  0
  1 12  1  0
  3 13  1  0
  4 14  1  0
  5 15  1  0
  6 16  1  0
  6 17  1  0
  7 18  1  0
  7 19  1  0
  8 20  1  0
  9 21  1  0
M  END
