
     RDKit          3D

 23 24  0  0  0  0  0  0  0  0999 V2000
   -1.7507   -0.0708    1.0235 C   0  0  0  0  0  0  0  0  0  0  0  0
   -0.8529   -0.1509   -0.2172 C   0  0  0  0  0  0  0  0  0  0  0  0
   -1.5469    0.2567   -1.4776 C   0  0  0  0  0  0  0  0  0  0  0  0
    0.1771   -1.1844   -0.3206 C   0  0  0  0  0  0  0  0  0  0  0  0
    0.9399   -1.7019    0.8601 C   0  0  0  0  0  0  0  0  0  0  0  0
    1.1229   -0.2868    1.3561 C   0  0  0  0  0  0  0  0  0  0  0  0
    0.5562    0.1947    0.0421 C   0  0  0  0  0  0  0  0  0  0  0  0
    1.3583    1.0760   -0.8549 C   0  0  0  0  0  0  0  0  0  0  0  0
    0.8190    2.3627   -0.9902 O   0  0  0  0  0  0  0  0  0  0  0  0
   -1.3760    0.7974    1.6338 H   0  0  0  0  0  0  0  0  0  0  0  0
   -1.5574   -0.9705    1.6080 H   0  0  0  0  0  0  0  0  0  0  0  0
   -2.7930    0.1101    0.7646 H   0  0  0  0  0  0  0  0  0  0  0  0
   -2.1620    1.1681   -1.3741 H   0  0  0  0  0  0  0  0  0  0  0  0
   -0.8811    0.3546   -2.3426 H   0  0  0  0  0  0  0  0  0  0  0  0
   -2.2669   -0.5688   -1.7356 H   0  0  0  0  0  0  0  0  0  0  0  0
    0.4118   -1.6228   -1.3104 H   0  0  0  0  0  0  0  0  0  0  0  0
    1.9032   -2.1577    0.5210 H   0  0  0  0  0  0  0  0  0  0  0  0
    0.3281   -2.3460    1.5243 H   0  0  0  0  0  0  0  0  0  0  0  0
    0.4840   -0.0290    2.2242 H   0  0  0  0  0  0  0  0  0  0  0  0
    2.1745   -0.0143    1.4397 H   0  0  0  0  0  0  0  0  0  0  0  0
    1.5787    0.6489   -1.8462 H   0  0  0  0  0  0  0  0  0  0  0  0
    2.3585    1.2300   -0.3522 H   0  0  0  0  0  0  0  0  0  0  0  0
    0.9746    2.9050   -0.1761 H   0  0  0  0  0  0  0  0  0  0  0  0
  1  2  1  0
  2  3  1  0
  2  4  1  0
  4  5  1  0
  5  6  1  0
  6  7  1  0
  7  8  1  0
  8  9  1  0
  7  2  1  0
  7  4  1  0
  1 10  1  0
  1 11  1  0
  1 12  1  0
  3 13  1  0
  3 14  1  0
  3 15  1  0
  4 16  1  0
  5 17  1  0
  5 18  1  0
  6 19  1  0
  6 20  1  0
  8 21  1  0
  8 22  1  0
  9 23  1  0
M  END
