
     RDKit          3D

 19 19  0  0  0  0  0  0  0  0999 V2000
   -2.2846   -1.0617    0.2107 C   0  0  0  0  0  0  0  0  0  0  0  0
   -1.2042   -0.1270   -0.3477 C   0  0  0  0  0  0  0  0  0  0  0  0
   -1.6099    1.3163   -0.2825 C   0  0  0  0  0  0  0  0  0  0  0  0
   -0.7123   -0.6027   -1.5798 O   0  0  0  0  0  0  0  0  0  0  0  0
    0.1356   -0.5887   -0.3418 C   0  0  0  0  0  0  0  0  0  0  0  0
    1.3483    0.2217   -0.4651 C   0  0  0  0  0  0  0  0  0  0  0  0
    1.2568    1.3997   -0.7625 O   0  0  0  0  0  0  0  0  0  0  0  0
    2.7164   -0.3222   -0.2433 C   0  0  0  0  0  0  0  0  0  0  0  0
    3.6857    0.6582   -0.4243 O   0  0  0  0  0  0  0  0  0  0  0  0
   -2.0199   -2.1091    0.0838 H   0  0  0  0  0  0  0  0  0  0  0  0
   -2.4147   -0.7675    1.2894 H   0  0  0  0  0  0  0  0  0  0  0  0
   -3.2268   -0.7781   -0.2910 H   0  0  0  0  0  0  0  0  0  0  0  0
   -2.6987    1.3470   -0.5740 H   0  0  0  0  0  0  0  0  0  0  0  0
   -1.6132    1.6102    0.8060 H   0  0  0  0  0  0  0  0  0  0  0  0
   -1.0010    1.9879   -0.9000 H   0  0  0  0  0  0  0  0  0  0  0  0
    0.3341   -1.6570   -0.0645 H   0  0  0  0  0  0  0  0  0  0  0  0
    2.9283   -1.1205   -0.9881 H   0  0  0  0  0  0  0  0  0  0  0  0
    2.8275   -0.7540    0.7739 H   0  0  0  0  0  0  0  0  0  0  0  0
    3.5527    1.3474    0.2760 H   0  0  0  0  0  0  0  0  0  0  0  0
  1  2  1  0
  2  3  1  0
  2  4  1  0
  4  5  1  0
  5  6  1  0
  6  7  2  0
  6  8  1  0
  8  9  1  0
  5  2  1  0
  1 10  1  0
  1 11  1  0
  1 12  1  0
  3 13  1  0
  3 14  1  0
  3 15  1  0
  5 16  1  0
  8 17  1  0
  8 18  1  0
  9 19  1  0
M  END
