
     RDKit          3D

 22 22  0  0  0  0  0  0  0  0999 V2000
   -1.2295   -0.0516    1.4896 C   0  0  0  0  0  0  0  0  0  0  0  0
   -0.6430   -0.0419    0.1128 C   0  0  0  0  0  0  0  0  0  0  0  0
   -1.3224    0.9179   -0.8023 C   0  0  0  0  0  0  0  0  0  0  0  0
   -0.4746   -1.4546   -0.4633 C   0  0  0  0  0  0  0  0  0  0  0  0
    0.8244   -0.9086   -1.0756 C   0  0  0  0  0  0  0  0  0  0  0  0
    0.8666    0.0021    0.1325 C   0  0  0  0  0  0  0  0  0  0  0  0
    1.5185    1.3106   -0.0242 C   0  0  0  0  0  0  0  0  0  0  0  0
    1.3178   -0.7304    1.2415 O   0  0  0  0  0  0  0  0  0  0  0  0
   -1.7899   -0.9959    1.6349 H   0  0  0  0  0  0  0  0  0  0  0  0
   -0.4317    0.0118    2.2603 H   0  0  0  0  0  0  0  0  0  0  0  0
   -1.9533    0.7836    1.6372 H   0  0  0  0  0  0  0  0  0  0  0  0
   -2.3928    0.9970   -0.4701 H   0  0  0  0  0  0  0  0  0  0  0  0
   -0.8750    1.9294   -0.7673 H   0  0  0  0  0  0  0  0  0  0  0  0
   -1.3343    0.6048   -1.8644 H   0  0  0  0  0  0  0  0  0  0  0  0
   -0.2185   -2.1307    0.3674 H   0  0  0  0  0  0  0  0  0  0  0  0
   -1.2293   -1.7623   -1.1733 H   0  0  0  0  0  0  0  0  0  0  0  0
    1.6290   -1.6329   -1.1710 H   0  0  0  0  0  0  0  0  0  0  0  0
    0.6294   -0.4015   -2.0442 H   0  0  0  0  0  0  0  0  0  0  0  0
    0.8867    2.0985    0.4651 H   0  0  0  0  0  0  0  0  0  0  0  0
    2.4671    1.3068    0.5908 H   0  0  0  0  0  0  0  0  0  0  0  0
    1.8341    1.5848   -1.0407 H   0  0  0  0  0  0  0  0  0  0  0  0
    1.9206   -1.4370    0.9642 H   0  0  0  0  0  0  0  0  0  0  0  0
  1  2  1  0
  2  3  1  0
  2  4  1  0
  4  5  1  0
  5  6  1  0
  6  7  1  0
  6  8  1  0
  6  2  1  0
  1  9  1  0
  1 10  1  0
  1 11  1  0
  3 12  1  0
  3 13  1  0
  3 14  1  0
  4 15  1  0
  4 16  1  0
  5 17  1  0
  5 18  1  0
  7 19  1  0
  7 20  1  0
  7 21  1  0
  8 22  1  0
M  END
