
     RDKit          3D

 23 24  0  0  0  0  0  0  0  0999 V2000
   -1.8297   -1.6119   -0.4285 C   0  0  0  0  0  0  0  0  0  0  0  0
   -0.9977   -0.3886   -0.1141 C   0  0  0  0  0  0  0  0  0  0  0  0
    0.4600   -0.6681    0.0549 C   0  0  0  0  0  0  0  0  0  0  0  0
    1.2945    0.5175    0.3638 C   0  0  0  0  0  0  0  0  0  0  0  0
    2.7842    0.1869    0.5294 C   0  0  0  0  0  0  0  0  0  0  0  0
    2.2704    1.0982   -0.5805 C   0  0  0  0  0  0  0  0  0  0  0  0
   -1.6413    0.3764    1.0260 C   0  0  0  0  0  0  0  0  0  0  0  0
   -1.3520    1.5612    0.3753 O   0  0  0  0  0  0  0  0  0  0  0  0
   -1.3898    0.8570   -0.8269 C   0  0  0  0  0  0  0  0  0  0  0  0
   -2.4643   -1.9131    0.4420 H   0  0  0  0  0  0  0  0  0  0  0  0
   -1.1432   -2.4413   -0.6246 H   0  0  0  0  0  0  0  0  0  0  0  0
   -2.5115   -1.3723   -1.2563 H   0  0  0  0  0  0  0  0  0  0  0  0
    0.8086   -1.1997   -0.8542 H   0  0  0  0  0  0  0  0  0  0  0  0
    0.5616   -1.4003    0.8988 H   0  0  0  0  0  0  0  0  0  0  0  0
    0.8603    1.1994    1.1426 H   0  0  0  0  0  0  0  0  0  0  0  0
    3.1433   -0.7826    0.1774 H   0  0  0  0  0  0  0  0  0  0  0  0
    3.3250    0.6324    1.3810 H   0  0  0  0  0  0  0  0  0  0  0  0
    2.5446    2.1590   -0.4199 H   0  0  0  0  0  0  0  0  0  0  0  0
    2.3552    0.7555   -1.6269 H   0  0  0  0  0  0  0  0  0  0  0  0
   -1.1319    0.2324    2.0133 H   0  0  0  0  0  0  0  0  0  0  0  0
   -2.7465    0.2006    1.1105 H   0  0  0  0  0  0  0  0  0  0  0  0
   -0.7376    1.2191   -1.6235 H   0  0  0  0  0  0  0  0  0  0  0  0
   -2.4621    0.7824   -1.1594 H   0  0  0  0  0  0  0  0  0  0  0  0
  1  2  1  0
  2  3  1  0
  3  4  1  0
  4  5  1  0
  5  6  1  0
  2  7  1  0
  7  8  1  0
  8  9  1  0
  9  2  1  0
  6  4  1  0
  1 10  1  0
  1 11  1  0
  1 12  1  0
  3 13  1  0
  3 14  1  0
  4 15  1  0
  5 16  1  0
  5 17  1  0
  6 18  1  0
  6 19  1  0
  7 20  1  0
  7 21  1  0
  9 22  1  0
  9 23  1  0
M  END
