
     RDKit          3D

 23 23  0  0  0  0  0  0  0  0999 V2000
   -1.7104   -0.0354   -1.0003 C   0  0  0  0  0  0  0  0  0  0  0  0
   -0.5421    0.0024   -0.0379 C   0  0  0  0  0  0  0  0  0  0  0  0
   -0.8220    1.0467    0.9947 C   0  0  0  0  0  0  0  0  0  0  0  0
   -0.5062   -1.3381    0.6823 C   0  0  0  0  0  0  0  0  0  0  0  0
    0.8144   -1.9221    0.2794 C   0  0  0  0  0  0  0  0  0  0  0  0
    1.6086   -0.8839   -0.1756 O   0  0  0  0  0  0  0  0  0  0  0  0
    0.7563    0.0727   -0.7180 C   0  0  0  0  0  0  0  0  0  0  0  0
    1.4614    1.3962   -0.6597 C   0  0  0  0  0  0  0  0  0  0  0  0
    1.8009    1.7991    0.6095 O   0  0  0  0  0  0  0  0  0  0  0  0
   -2.0437    1.0374   -1.1149 H   0  0  0  0  0  0  0  0  0  0  0  0
   -1.3952   -0.3926   -1.9946 H   0  0  0  0  0  0  0  0  0  0  0  0
   -2.5788   -0.5949   -0.5946 H   0  0  0  0  0  0  0  0  0  0  0  0
   -1.9073    0.9538    1.2538 H   0  0  0  0  0  0  0  0  0  0  0  0
   -0.2870    0.8218    1.9590 H   0  0  0  0  0  0  0  0  0  0  0  0
   -0.6538    2.0730    0.6734 H   0  0  0  0  0  0  0  0  0  0  0  0
   -1.3578   -1.9883    0.3979 H   0  0  0  0  0  0  0  0  0  0  0  0
   -0.5541   -1.2263    1.7811 H   0  0  0  0  0  0  0  0  0  0  0  0
    0.6351   -2.7101   -0.4735 H   0  0  0  0  0  0  0  0  0  0  0  0
    1.2998   -2.3738    1.1770 H   0  0  0  0  0  0  0  0  0  0  0  0
    0.6338   -0.1877   -1.7913 H   0  0  0  0  0  0  0  0  0  0  0  0
    2.4326    1.2593   -1.2218 H   0  0  0  0  0  0  0  0  0  0  0  0
    0.9353    2.2049   -1.2074 H   0  0  0  0  0  0  0  0  0  0  0  0
    1.9802    0.9860    1.1814 H   0  0  0  0  0  0  0  0  0  0  0  0
  1  2  1  0
  2  3  1  0
  2  4  1  0
  4  5  1  0
  5  6  1  0
  6  7  1  0
  7  8  1  0
  8  9  1  0
  7  2  1  0
  1 10  1  0
  1 11  1  0
  1 12  1  0
  3 13  1  0
  3 14  1  0
  3 15  1  0
  4 16  1  0
  4 17  1  0
  5 18  1  0
  5 19  1  0
  7 20  1  0
  8 21  1  0
  8 22  1  0
  9 23  1  0
M  END
