
     RDKit          3D

 23 23  0  0  0  0  0  0  0  0999 V2000
   -1.8440   -1.1061    0.0203 C   0  0  0  0  0  0  0  0  0  0  0  0
   -1.0197    0.1383   -0.1270 C   0  0  0  0  0  0  0  0  0  0  0  0
   -1.8426    1.3944    0.0673 C   0  0  0  0  0  0  0  0  0  0  0  0
   -0.3357    0.2430   -1.4347 C   0  0  0  0  0  0  0  0  0  0  0  0
    0.9310   -0.0524   -1.2875 C   0  0  0  0  0  0  0  0  0  0  0  0
    1.2374   -0.3798    0.0902 C   0  0  0  0  0  0  0  0  0  0  0  0
    2.4990    0.2692    0.6175 C   0  0  0  0  0  0  0  0  0  0  0  0
    1.3765   -1.7533    0.2829 O   0  0  0  0  0  0  0  0  0  0  0  0
    0.0880    0.1655    0.8936 C   0  0  0  0  0  0  0  0  0  0  0  0
   -1.3268   -1.9708   -0.4181 H   0  0  0  0  0  0  0  0  0  0  0  0
   -2.0254   -1.2958    1.1004 H   0  0  0  0  0  0  0  0  0  0  0  0
   -2.8354   -1.0170   -0.4746 H   0  0  0  0  0  0  0  0  0  0  0  0
   -2.8247    1.2027   -0.4120 H   0  0  0  0  0  0  0  0  0  0  0  0
   -1.2932    2.2242   -0.4526 H   0  0  0  0  0  0  0  0  0  0  0  0
   -1.9274    1.6745    1.1210 H   0  0  0  0  0  0  0  0  0  0  0  0
   -0.8561    0.5307   -2.3682 H   0  0  0  0  0  0  0  0  0  0  0  0
    1.6452   -0.0457   -2.1125 H   0  0  0  0  0  0  0  0  0  0  0  0
    3.3563    0.1653   -0.0683 H   0  0  0  0  0  0  0  0  0  0  0  0
    2.7369   -0.2540    1.5722 H   0  0  0  0  0  0  0  0  0  0  0  0
    2.3210    1.3446    0.9054 H   0  0  0  0  0  0  0  0  0  0  0  0
    1.7446   -2.1476   -0.5623 H   0  0  0  0  0  0  0  0  0  0  0  0
   -0.0956   -0.5037    1.7572 H   0  0  0  0  0  0  0  0  0  0  0  0
    0.2906    1.1739    1.2897 H   0  0  0  0  0  0  0  0  0  0  0  0
  1  2  1  0
  2  3  1  0
  2  4  1  0
  4  5  2  0
  5  6  1  0
  6  7  1  0
  6  8  1  0
  6  9  1  0
  9  2  1  0
  1 10  1  0
  1 11  1  0
  1 12  1  0
  3 13  1  0
  3 14  1  0
  3 15  1  0
  4 16  1  0
  5 17  1  0
  7 18  1  0
  7 19  1  0
  7 20  1  0
  8 21  1  0
  9 22  1  0
  9 23  1  0
M  END
