
     RDKit          3D

 21 22  0  0  0  0  0  0  0  0999 V2000
    2.4104   -0.9646    0.4590 C   0  0  0  0  0  0  0  0  0  0  0  0
    1.1441   -0.3457   -0.0874 C   0  0  0  0  0  0  0  0  0  0  0  0
    0.1272    0.1967    0.8849 C   0  0  0  0  0  0  0  0  0  0  0  0
   -1.0444    0.7608    0.1151 C   0  0  0  0  0  0  0  0  0  0  0  0
   -1.7575   -0.2482   -0.7618 C   0  0  0  0  0  0  0  0  0  0  0  0
   -2.9603    0.3804   -0.3910 O   0  0  0  0  0  0  0  0  0  0  0  0
   -2.3621    0.6022    0.8566 C   0  0  0  0  0  0  0  0  0  0  0  0
    1.3263    0.3888   -1.4039 C   0  0  0  0  0  0  0  0  0  0  0  0
    0.6942   -0.8609   -1.3092 O   0  0  0  0  0  0  0  0  0  0  0  0
    2.2294   -1.3682    1.4911 H   0  0  0  0  0  0  0  0  0  0  0  0
    3.2288   -0.2342    0.4342 H   0  0  0  0  0  0  0  0  0  0  0  0
    2.7474   -1.8428   -0.1604 H   0  0  0  0  0  0  0  0  0  0  0  0
    0.6175    1.0074    1.4503 H   0  0  0  0  0  0  0  0  0  0  0  0
   -0.1995   -0.6037    1.5478 H   0  0  0  0  0  0  0  0  0  0  0  0
   -0.8999    1.7262   -0.3666 H   0  0  0  0  0  0  0  0  0  0  0  0
   -1.7532   -1.2742   -0.3301 H   0  0  0  0  0  0  0  0  0  0  0  0
   -1.5283   -0.1869   -1.8347 H   0  0  0  0  0  0  0  0  0  0  0  0
   -2.3648   -0.3296    1.4356 H   0  0  0  0  0  0  0  0  0  0  0  0
   -2.7013    1.5191    1.3795 H   0  0  0  0  0  0  0  0  0  0  0  0
    0.7172    1.2965   -1.5331 H   0  0  0  0  0  0  0  0  0  0  0  0
    2.3289    0.3809   -1.8759 H   0  0  0  0  0  0  0  0  0  0  0  0
  1  2  1  0
  2  3  1  0
  3  4  1  0
  4  5  1  0
  5  6  1  0
  6  7  1  0
  2  8  1  0
  8  9  1  0
  9  2  1  0
  7  4  1  0
  1 10  1  0
  1 11  1  0
  1 12  1  0
  3 13  1  0
  3 14  1  0
  4 15  1  0
  5 16  1  0
  5 17  1  0
  7 18  1  0
  7 19  1  0
  8 20  1  0
  8 21  1  0
M  END
