
     RDKit          3D

 21 22  0  0  0  0  0  0  0  0999 V2000
   -1.7715    0.9935    0.4055 C   0  0  0  0  0  0  0  0  0  0  0  0
   -0.8222    0.1992   -0.5020 C   0  0  0  0  0  0  0  0  0  0  0  0
   -0.8462    0.6879   -1.7817 O   0  0  0  0  0  0  0  0  0  0  0  0
   -1.1228   -1.2662   -0.4694 C   0  0  0  0  0  0  0  0  0  0  0  0
   -0.1748   -1.1086    0.6930 C   0  0  0  0  0  0  0  0  0  0  0  0
    1.1589   -1.2942    0.5947 C   0  0  0  0  0  0  0  0  0  0  0  0
    0.5197   -0.0470    0.1183 C   0  0  0  0  0  0  0  0  0  0  0  0
    1.5323    0.7256   -0.4821 C   0  0  0  0  0  0  0  0  0  0  0  0
    2.7952    0.5359    0.0696 O   0  0  0  0  0  0  0  0  0  0  0  0
   -1.3103    1.1720    1.4042 H   0  0  0  0  0  0  0  0  0  0  0  0
   -2.6955    0.4013    0.5347 H   0  0  0  0  0  0  0  0  0  0  0  0
   -2.0234    1.9717   -0.0470 H   0  0  0  0  0  0  0  0  0  0  0  0
   -1.6544    1.2097   -1.9209 H   0  0  0  0  0  0  0  0  0  0  0  0
   -2.1886   -1.4581   -0.1908 H   0  0  0  0  0  0  0  0  0  0  0  0
   -0.7446   -1.8493   -1.3270 H   0  0  0  0  0  0  0  0  0  0  0  0
   -0.7231   -0.9434    1.6642 H   0  0  0  0  0  0  0  0  0  0  0  0
    1.8751   -1.1158    1.4484 H   0  0  0  0  0  0  0  0  0  0  0  0
    1.6147   -2.0354   -0.1246 H   0  0  0  0  0  0  0  0  0  0  0  0
    1.6803    0.6124   -1.6037 H   0  0  0  0  0  0  0  0  0  0  0  0
    1.3800    1.8500   -0.4051 H   0  0  0  0  0  0  0  0  0  0  0  0
    3.5211    0.7588   -0.5725 H   0  0  0  0  0  0  0  0  0  0  0  0
  1  2  1  0
  2  3  1  0
  2  4  1  0
  4  5  1  0
  5  6  1  0
  6  7  1  0
  7  8  1  0
  8  9  1  0
  7  2  1  0
  7  5  1  0
  1 10  1  0
  1 11  1  0
  1 12  1  0
  3 13  1  0
  4 14  1  0
  4 15  1  0
  5 16  1  0
  6 17  1  0
  6 18  1  0
  8 19  1  0
  8 20  1  0
  9 21  1  0
M  END
