
     RDKit          3D

 25 25  0  0  0  0  0  0  0  0999 V2000
   -2.2546   -1.5648   -0.1024 C   0  0  0  0  0  0  0  0  0  0  0  0
   -1.4757   -0.3078    0.1970 C   0  0  0  0  0  0  0  0  0  0  0  0
   -2.3351    0.6662    0.9556 C   0  0  0  0  0  0  0  0  0  0  0  0
   -0.7121    0.2618   -0.9662 C   0  0  0  0  0  0  0  0  0  0  0  0
    0.4609   -0.5836   -0.5037 C   0  0  0  0  0  0  0  0  0  0  0  0
    1.7901    0.0884   -0.6809 C   0  0  0  0  0  0  0  0  0  0  0  0
    2.8755   -0.8432   -0.1888 C   0  0  0  0  0  0  0  0  0  0  0  0
    4.1109   -0.2035   -0.3598 O   0  0  0  0  0  0  0  0  0  0  0  0
   -0.1367   -0.5306    0.8728 C   0  0  0  0  0  0  0  0  0  0  0  0
   -3.0911   -1.3038   -0.7644 H   0  0  0  0  0  0  0  0  0  0  0  0
   -2.5858   -1.9960    0.8721 H   0  0  0  0  0  0  0  0  0  0  0  0
   -1.6564   -2.3365   -0.6185 H   0  0  0  0  0  0  0  0  0  0  0  0
   -2.3848    0.3295    2.0118 H   0  0  0  0  0  0  0  0  0  0  0  0
   -1.9540    1.6920    0.9638 H   0  0  0  0  0  0  0  0  0  0  0  0
   -3.3614    0.6578    0.5600 H   0  0  0  0  0  0  0  0  0  0  0  0
   -0.4754    1.3427   -0.8310 H   0  0  0  0  0  0  0  0  0  0  0  0
   -1.0726   -0.0067   -1.9687 H   0  0  0  0  0  0  0  0  0  0  0  0
    0.4951   -1.6001   -0.9621 H   0  0  0  0  0  0  0  0  0  0  0  0
    1.9316    0.2294   -1.7736 H   0  0  0  0  0  0  0  0  0  0  0  0
    1.7976    1.0552   -0.1795 H   0  0  0  0  0  0  0  0  0  0  0  0
    2.8245   -1.7873   -0.7536 H   0  0  0  0  0  0  0  0  0  0  0  0
    2.7733   -1.0822    0.8823 H   0  0  0  0  0  0  0  0  0  0  0  0
    4.3009    0.2998    0.4686 H   0  0  0  0  0  0  0  0  0  0  0  0
   -0.0680   -1.4541    1.4760 H   0  0  0  0  0  0  0  0  0  0  0  0
    0.2030    0.3953    1.3932 H   0  0  0  0  0  0  0  0  0  0  0  0
  1  2  1  0
  2  3  1  0
  2  4  1  0
  4  5  1  0
  5  6  1  0
  6  7  1  0
  7  8  1  0
  5  9  1  0
  9  2  1  0
  1 10  1  0
  1 11  1  0
  1 12  1  0
  3 13  1  0
  3 14  1  0
  3 15  1  0
  4 16  1  0
  4 17  1  0
  5 18  1  0
  6 19  1  0
  6 20  1  0
  7 21  1  0
  7 22  1  0
  8 23  1  0
  9 24  1  0
  9 25  1  0
M  END
