
     RDKit          3D

 21 22  0  0  0  0  0  0  0  0999 V2000
   -1.9727    1.0131    0.1305 C   0  0  0  0  0  0  0  0  0  0  0  0
   -1.0386   -0.1770    0.1126 C   0  0  0  0  0  0  0  0  0  0  0  0
   -1.7086   -1.4938   -0.2300 C   0  0  0  0  0  0  0  0  0  0  0  0
   -0.0024   -0.2895    1.2044 C   0  0  0  0  0  0  0  0  0  0  0  0
    0.3454    0.0026   -0.2840 C   0  0  0  0  0  0  0  0  0  0  0  0
    1.0200    1.2828   -0.4596 C   0  0  0  0  0  0  0  0  0  0  0  0
    2.3171    1.0258   -0.5766 C   0  0  0  0  0  0  0  0  0  0  0  0
    2.4292   -0.4737   -0.4671 C   0  0  0  0  0  0  0  0  0  0  0  0
    1.1497   -0.9404   -0.8482 O   0  0  0  0  0  0  0  0  0  0  0  0
   -2.6210    1.0337    1.0276 H   0  0  0  0  0  0  0  0  0  0  0  0
   -1.4527    1.9655   -0.0547 H   0  0  0  0  0  0  0  0  0  0  0  0
   -2.6632    0.8713   -0.7462 H   0  0  0  0  0  0  0  0  0  0  0  0
   -1.0999   -2.0724   -0.9384 H   0  0  0  0  0  0  0  0  0  0  0  0
   -1.8446   -2.0729    0.7258 H   0  0  0  0  0  0  0  0  0  0  0  0
   -2.6909   -1.3086   -0.7155 H   0  0  0  0  0  0  0  0  0  0  0  0
    0.0068    0.5450    1.9017 H   0  0  0  0  0  0  0  0  0  0  0  0
    0.2556   -1.2820    1.5934 H   0  0  0  0  0  0  0  0  0  0  0  0
    0.6296    2.2971   -0.5005 H   0  0  0  0  0  0  0  0  0  0  0  0
    3.1646    1.6531   -0.7172 H   0  0  0  0  0  0  0  0  0  0  0  0
    2.5830   -0.7766    0.5786 H   0  0  0  0  0  0  0  0  0  0  0  0
    3.1937   -0.8030   -1.1678 H   0  0  0  0  0  0  0  0  0  0  0  0
  1  2  1  0
  2  3  1  0
  2  4  1  0
  4  5  1  0
  5  6  1  0
  6  7  2  0
  7  8  1  0
  8  9  1  0
  5  2  1  0
  9  5  1  0
  1 10  1  0
  1 11  1  0
  1 12  1  0
  3 13  1  0
  3 14  1  0
  3 15  1  0
  4 16  1  0
  4 17  1  0
  6 18  1  0
  7 19  1  0
  8 20  1  0
  8 21  1  0
M  END
