
     RDKit          3D

 21 22  0  0  0  0  0  0  0  0999 V2000
   -2.0816   -0.3902    0.6505 C   0  0  0  0  0  0  0  0  0  0  0  0
   -1.2766    0.8099    0.2316 C   0  0  0  0  0  0  0  0  0  0  0  0
   -2.0562    1.9028   -0.1435 O   0  0  0  0  0  0  0  0  0  0  0  0
   -0.0769    1.1699    1.0500 C   0  0  0  0  0  0  0  0  0  0  0  0
    0.0484    0.6919   -0.3954 C   0  0  0  0  0  0  0  0  0  0  0  0
    0.7850   -0.5777   -0.5694 C   0  0  0  0  0  0  0  0  0  0  0  0
    1.1138   -1.3389    0.7020 C   0  0  0  0  0  0  0  0  0  0  0  0
    1.9353   -0.5842   -1.5597 C   0  0  0  0  0  0  0  0  0  0  0  0
    0.7666   -1.2706   -1.7699 O   0  0  0  0  0  0  0  0  0  0  0  0
   -1.9762   -0.5972    1.7395 H   0  0  0  0  0  0  0  0  0  0  0  0
   -3.1806   -0.2449    0.4879 H   0  0  0  0  0  0  0  0  0  0  0  0
   -1.8134   -1.2842    0.0426 H   0  0  0  0  0  0  0  0  0  0  0  0
   -1.5090    2.7175   -0.2713 H   0  0  0  0  0  0  0  0  0  0  0  0
    0.1911    2.2229    1.2314 H   0  0  0  0  0  0  0  0  0  0  0  0
    0.1550    0.4826    1.8675 H   0  0  0  0  0  0  0  0  0  0  0  0
    0.3197    1.4936   -1.1449 H   0  0  0  0  0  0  0  0  0  0  0  0
    1.7993   -0.6820    1.3121 H   0  0  0  0  0  0  0  0  0  0  0  0
    0.2130   -1.4843    1.3152 H   0  0  0  0  0  0  0  0  0  0  0  0
    1.6481   -2.2812    0.5010 H   0  0  0  0  0  0  0  0  0  0  0  0
    2.8654   -1.1179   -1.3234 H   0  0  0  0  0  0  0  0  0  0  0  0
    2.1299    0.3620   -2.1340 H   0  0  0  0  0  0  0  0  0  0  0  0
  1  2  1  0
  2  3  1  0
  2  4  1  0
  4  5  1  0
  5  6  1  0
  6  7  1  0
  6  8  1  0
  8  9  1  0
  5  2  1  0
  9  6  1  0
  1 10  1  0
  1 11  1  0
  1 12  1  0
  3 13  1  0
  4 14  1  0
  4 15  1  0
  5 16  1  0
  7 17  1  0
  7 18  1  0
  7 19  1  0
  8 20  1  0
  8 21  1  0
M  END
