
     RDKit          3D

 23 25  0  0  0  0  0  0  0  0999 V2000
   -2.3346   -1.2266   -0.3186 C   0  0  0  0  0  0  0  0  0  0  0  0
   -1.2626   -0.1303   -0.1617 C   0  0  0  0  0  0  0  0  0  0  0  0
   -1.9157    1.2346   -0.4359 C   0  0  0  0  0  0  0  0  0  0  0  0
   -0.3480   -0.3080    0.8994 C   0  0  0  0  0  0  0  0  0  0  0  0
    0.9490   -1.1188    0.9349 C   0  0  0  0  0  0  0  0  0  0  0  0
    1.3757    0.0270    0.0509 C   0  0  0  0  0  0  0  0  0  0  0  0
    2.6454    0.2601   -0.5201 C   0  0  0  0  0  0  0  0  0  0  0  0
    1.9210    1.2671    0.4387 C   0  0  0  0  0  0  0  0  0  0  0  0
    0.0833   -0.2715   -0.6307 C   0  0  0  0  0  0  0  0  0  0  0  0
   -1.8346   -2.1944   -0.0249 H   0  0  0  0  0  0  0  0  0  0  0  0
   -3.1932   -1.0197    0.3195 H   0  0  0  0  0  0  0  0  0  0  0  0
   -2.5549   -1.3184   -1.3916 H   0  0  0  0  0  0  0  0  0  0  0  0
   -2.9199    1.2441    0.0683 H   0  0  0  0  0  0  0  0  0  0  0  0
   -2.1175    1.3568   -1.5286 H   0  0  0  0  0  0  0  0  0  0  0  0
   -1.3091    2.0633   -0.0840 H   0  0  0  0  0  0  0  0  0  0  0  0
   -0.1076    0.6601    1.4489 H   0  0  0  0  0  0  0  0  0  0  0  0
    0.9214   -2.0543    0.3761 H   0  0  0  0  0  0  0  0  0  0  0  0
    1.3854   -1.1742    1.9280 H   0  0  0  0  0  0  0  0  0  0  0  0
    2.7421    0.5929   -1.5730 H   0  0  0  0  0  0  0  0  0  0  0  0
    3.5515   -0.2324   -0.0806 H   0  0  0  0  0  0  0  0  0  0  0  0
    1.6459    2.2277   -0.0428 H   0  0  0  0  0  0  0  0  0  0  0  0
    2.4492    1.4218    1.4132 H   0  0  0  0  0  0  0  0  0  0  0  0
    0.2279   -1.3071   -1.0856 H   0  0  0  0  0  0  0  0  0  0  0  0
  1  2  1  0
  2  3  1  0
  2  4  1  0
  4  5  1  0
  5  6  1  0
  6  7  1  0
  7  8  1  0
  6  9  1  0
  9  2  1  0
  9  4  1  0
  8  6  1  0
  1 10  1  0
  1 11  1  0
  1 12  1  0
  3 13  1  0
  3 14  1  0
  3 15  1  0
  4 16  1  0
  5 17  1  0
  5 18  1  0
  7 19  1  0
  7 20  1  0
  8 21  1  0
  8 22  1  0
  9 23  1  0
M  END
