
     RDKit          3D

 23 23  0  0  0  0  0  0  0  0999 V2000
   -1.6966   -0.8116    0.8813 C   0  0  0  0  0  0  0  0  0  0  0  0
   -0.6396   -0.2995   -0.0562 C   0  0  0  0  0  0  0  0  0  0  0  0
   -0.7367   -0.9300   -1.4167 C   0  0  0  0  0  0  0  0  0  0  0  0
   -0.8562    1.1952   -0.2098 C   0  0  0  0  0  0  0  0  0  0  0  0
   -0.0606    1.7250    0.9290 C   0  0  0  0  0  0  0  0  0  0  0  0
    0.8082    0.8325    1.3866 C   0  0  0  0  0  0  0  0  0  0  0  0
    0.6846   -0.4117    0.5883 C   0  0  0  0  0  0  0  0  0  0  0  0
    1.8486   -0.4576   -0.3649 C   0  0  0  0  0  0  0  0  0  0  0  0
    1.9247    0.6861   -1.1589 O   0  0  0  0  0  0  0  0  0  0  0  0
   -2.0903   -1.8056    0.5796 H   0  0  0  0  0  0  0  0  0  0  0  0
   -1.3308   -0.8954    1.9333 H   0  0  0  0  0  0  0  0  0  0  0  0
   -2.5829   -0.1403    0.9318 H   0  0  0  0  0  0  0  0  0  0  0  0
   -0.4994   -1.9942   -1.4218 H   0  0  0  0  0  0  0  0  0  0  0  0
   -0.0559   -0.4145   -2.1018 H   0  0  0  0  0  0  0  0  0  0  0  0
   -1.7770   -0.7241   -1.7881 H   0  0  0  0  0  0  0  0  0  0  0  0
   -1.9336    1.4464   -0.1150 H   0  0  0  0  0  0  0  0  0  0  0  0
   -0.5245    1.5709   -1.1885 H   0  0  0  0  0  0  0  0  0  0  0  0
   -0.2062    2.7409    1.3152 H   0  0  0  0  0  0  0  0  0  0  0  0
    1.4973    1.0045    2.2201 H   0  0  0  0  0  0  0  0  0  0  0  0
    0.7409   -1.3254    1.2141 H   0  0  0  0  0  0  0  0  0  0  0  0
    1.8748   -1.3890   -0.9694 H   0  0  0  0  0  0  0  0  0  0  0  0
    2.7725   -0.4658    0.2549 H   0  0  0  0  0  0  0  0  0  0  0  0
    2.8387    0.8632   -1.4434 H   0  0  0  0  0  0  0  0  0  0  0  0
  1  2  1  0
  2  3  1  0
  2  4  1  0
  4  5  1  0
  5  6  2  0
  6  7  1  0
  7  8  1  0
  8  9  1  0
  7  2  1  0
  1 10  1  0
  1 11  1  0
  1 12  1  0
  3 13  1  0
  3 14  1  0
  3 15  1  0
  4 16  1  0
  4 17  1  0
  5 18  1  0
  6 19  1  0
  7 20  1  0
  8 21  1  0
  8 22  1  0
  9 23  1  0
M  END
