
     RDKit          3D

 23 23  0  0  0  0  0  0  0  0999 V2000
   -2.2075   -0.3156    0.7697 C   0  0  0  0  0  0  0  0  0  0  0  0
   -1.1691   -0.2603   -0.3632 C   0  0  0  0  0  0  0  0  0  0  0  0
   -1.8775   -0.6255   -1.5087 O   0  0  0  0  0  0  0  0  0  0  0  0
   -0.7443    1.2498   -0.4674 C   0  0  0  0  0  0  0  0  0  0  0  0
    0.5313    1.5388    0.1595 C   0  0  0  0  0  0  0  0  0  0  0  0
    1.6985    0.9587    0.3519 C   0  0  0  0  0  0  0  0  0  0  0  0
    2.2882   -0.3236    0.0023 C   0  0  0  0  0  0  0  0  0  0  0  0
    1.2947   -1.5305    0.0340 C   0  0  0  0  0  0  0  0  0  0  0  0
    0.0557   -0.9040   -0.1767 C   0  0  0  0  0  0  0  0  0  0  0  0
   -3.0608    0.2551    0.4094 H   0  0  0  0  0  0  0  0  0  0  0  0
   -1.7702    0.2631    1.6310 H   0  0  0  0  0  0  0  0  0  0  0  0
   -2.3995   -1.3399    1.0821 H   0  0  0  0  0  0  0  0  0  0  0  0
   -2.8168   -0.3947   -1.4431 H   0  0  0  0  0  0  0  0  0  0  0  0
   -1.5271    1.8453   -0.0201 H   0  0  0  0  0  0  0  0  0  0  0  0
   -0.7149    1.4637   -1.5575 H   0  0  0  0  0  0  0  0  0  0  0  0
    0.5125    2.5559    0.6056 H   0  0  0  0  0  0  0  0  0  0  0  0
    2.3812    1.6320    0.9224 H   0  0  0  0  0  0  0  0  0  0  0  0
    3.0450   -0.5778    0.7304 H   0  0  0  0  0  0  0  0  0  0  0  0
    2.7814   -0.3199   -1.0086 H   0  0  0  0  0  0  0  0  0  0  0  0
    1.6456   -2.2588   -0.7555 H   0  0  0  0  0  0  0  0  0  0  0  0
    1.4386   -2.1213    0.9730 H   0  0  0  0  0  0  0  0  0  0  0  0
    0.4295   -0.4738   -1.1663 H   0  0  0  0  0  0  0  0  0  0  0  0
    0.1853   -0.3169    0.7958 H   0  0  0  0  0  0  0  0  0  0  0  0
  1  2  1  0
  2  3  1  0
  2  4  1  0
  4  5  1  0
  5  6  2  0
  6  7  1  0
  7  8  1  0
  8  9  1  0
  9  2  1  0
  1 10  1  0
  1 11  1  0
  1 12  1  0
  3 13  1  0
  4 14  1  0
  4 15  1  0
  5 16  1  0
  6 17  1  0
  7 18  1  0
  7 19  1  0
  8 20  1  0
  8 21  1  0
  9 22  1  0
  9 23  1  0
M  END
