
     RDKit          3D

 21 21  0  0  0  0  0  0  0  0999 V2000
   -1.0205   -0.8343   -1.0497 C   0  0  0  0  0  0  0  0  0  0  0  0
   -0.7944   -0.0577    0.2163 C   0  0  0  0  0  0  0  0  0  0  0  0
   -2.1427    0.0860    0.9310 C   0  0  0  0  0  0  0  0  0  0  0  0
   -0.3784    1.3179   -0.1685 C   0  0  0  0  0  0  0  0  0  0  0  0
    0.8580    1.7327   -0.3621 C   0  0  0  0  0  0  0  0  0  0  0  0
    2.0972    0.9559   -0.2478 C   0  0  0  0  0  0  0  0  0  0  0  0
    2.2256   -0.3052    0.1317 C   0  0  0  0  0  0  0  0  0  0  0  0
    1.1612   -1.2581    0.5380 C   0  0  0  0  0  0  0  0  0  0  0  0
    0.0655   -0.6543    1.0974 O   0  0  0  0  0  0  0  0  0  0  0  0
   -1.5173   -1.8160   -0.8799 H   0  0  0  0  0  0  0  0  0  0  0  0
   -1.7600   -0.2373   -1.6567 H   0  0  0  0  0  0  0  0  0  0  0  0
   -0.1142   -0.8958   -1.6625 H   0  0  0  0  0  0  0  0  0  0  0  0
   -2.8419    0.5472    0.2370 H   0  0  0  0  0  0  0  0  0  0  0  0
   -1.9769    0.6418    1.8718 H   0  0  0  0  0  0  0  0  0  0  0  0
   -2.4206   -0.9572    1.2281 H   0  0  0  0  0  0  0  0  0  0  0  0
   -1.1531    2.0460   -0.3026 H   0  0  0  0  0  0  0  0  0  0  0  0
    0.9441    2.7745   -0.6375 H   0  0  0  0  0  0  0  0  0  0  0  0
    3.0003    1.4801   -0.5041 H   0  0  0  0  0  0  0  0  0  0  0  0
    3.2318   -0.6862    0.1467 H   0  0  0  0  0  0  0  0  0  0  0  0
    0.9116   -1.9812   -0.2730 H   0  0  0  0  0  0  0  0  0  0  0  0
    1.6247   -1.8989    1.3466 H   0  0  0  0  0  0  0  0  0  0  0  0
  1  2  1  0
  2  3  1  0
  2  4  1  0
  4  5  2  0
  5  6  1  0
  6  7  2  0
  7  8  1  0
  8  9  1  0
  9  2  1  0
  1 10  1  0
  1 11  1  0
  1 12  1  0
  3 13  1  0
  3 14  1  0
  3 15  1  0
  4 16  1  0
  5 17  1  0
  6 18  1  0
  7 19  1  0
  8 20  1  0
  8 21  1  0
M  END
