
     RDKit          3D

 21 21  0  0  0  0  0  0  0  0999 V2000
    0.9012    0.3187    1.3831 C   0  0  0  0  0  0  0  0  0  0  0  0
    0.6357   -0.0497   -0.0349 C   0  0  0  0  0  0  0  0  0  0  0  0
    1.6166    0.6252   -0.9996 C   0  0  0  0  0  0  0  0  0  0  0  0
    0.7468   -1.5368   -0.2752 C   0  0  0  0  0  0  0  0  0  0  0  0
    1.6092   -2.3782   -0.3348 O   0  0  0  0  0  0  0  0  0  0  0  0
   -0.7207   -1.5704   -0.4213 C   0  0  0  0  0  0  0  0  0  0  0  0
   -0.7614   -0.0577   -0.5150 C   0  0  0  0  0  0  0  0  0  0  0  0
   -1.8269    0.4970    0.3619 C   0  0  0  0  0  0  0  0  0  0  0  0
   -1.6737    1.8200    0.7007 O   0  0  0  0  0  0  0  0  0  0  0  0
    1.9908    0.5990    1.4775 H   0  0  0  0  0  0  0  0  0  0  0  0
    0.3354    1.1862    1.7126 H   0  0  0  0  0  0  0  0  0  0  0  0
    0.7784   -0.5462    2.0799 H   0  0  0  0  0  0  0  0  0  0  0  0
    2.0065    1.5623   -0.6043 H   0  0  0  0  0  0  0  0  0  0  0  0
    1.0896    0.7263   -1.9743 H   0  0  0  0  0  0  0  0  0  0  0  0
    2.4828   -0.0562   -1.2079 H   0  0  0  0  0  0  0  0  0  0  0  0
   -1.0869   -2.0843   -1.3428 H   0  0  0  0  0  0  0  0  0  0  0  0
   -1.1906   -1.9905    0.4924 H   0  0  0  0  0  0  0  0  0  0  0  0
   -0.8446    0.3411   -1.5419 H   0  0  0  0  0  0  0  0  0  0  0  0
   -2.7995    0.3930   -0.1793 H   0  0  0  0  0  0  0  0  0  0  0  0
   -1.9554   -0.1301    1.2881 H   0  0  0  0  0  0  0  0  0  0  0  0
   -1.3334    2.3312   -0.0649 H   0  0  0  0  0  0  0  0  0  0  0  0
  1  2  1  0
  2  3  1  0
  2  4  1  0
  4  5  2  0
  4  6  1  0
  6  7  1  0
  7  8  1  0
  8  9  1  0
  7  2  1  0
  1 10  1  0
  1 11  1  0
  1 12  1  0
  3 13  1  0
  3 14  1  0
  3 15  1  0
  6 16  1  0
  6 17  1  0
  7 18  1  0
  8 19  1  0
  8 20  1  0
  9 21  1  0
M  END
