
     RDKit          3D

 20 21  0  0  0  0  0  0  0  0999 V2000
   -1.4637    1.1737   -0.9819 C   0  0  0  0  0  0  0  0  0  0  0  0
   -0.5717    0.2512   -0.2133 C   0  0  0  0  0  0  0  0  0  0  0  0
   -1.2495   -0.4726    0.8869 C   0  0  0  0  0  0  0  0  0  0  0  0
    0.7367    0.9051    0.1081 C   0  0  0  0  0  0  0  0  0  0  0  0
    1.5896   -0.1520    0.7779 C   0  0  0  0  0  0  0  0  0  0  0  0
    1.2980   -1.2884   -0.2246 C   0  0  0  0  0  0  0  0  0  0  0  0
    0.3403   -0.5077   -1.1090 C   0  0  0  0  0  0  0  0  0  0  0  0
    1.0661    0.6998   -1.2530 O   0  0  0  0  0  0  0  0  0  0  0  0
   -1.9626    0.6583   -1.8041 H   0  0  0  0  0  0  0  0  0  0  0  0
   -0.8465    1.9912   -1.4580 H   0  0  0  0  0  0  0  0  0  0  0  0
   -2.1831    1.7169   -0.3078 H   0  0  0  0  0  0  0  0  0  0  0  0
   -1.6412    0.3030    1.6104 H   0  0  0  0  0  0  0  0  0  0  0  0
   -2.1647   -0.9552    0.4785 H   0  0  0  0  0  0  0  0  0  0  0  0
   -0.6335   -1.2269    1.3758 H   0  0  0  0  0  0  0  0  0  0  0  0
    0.7656    1.9020    0.4754 H   0  0  0  0  0  0  0  0  0  0  0  0
    1.2141   -0.4540    1.7633 H   0  0  0  0  0  0  0  0  0  0  0  0
    2.6544    0.0869    0.7399 H   0  0  0  0  0  0  0  0  0  0  0  0
    2.2197   -1.5093   -0.8171 H   0  0  0  0  0  0  0  0  0  0  0  0
    0.8518   -2.1526    0.2531 H   0  0  0  0  0  0  0  0  0  0  0  0
   -0.0196   -0.9693   -2.0005 H   0  0  0  0  0  0  0  0  0  0  0  0
  1  2  1  0
  2  3  1  0
  2  4  1  0
  4  5  1  0
  5  6  1  0
  6  7  1  0
  7  8  1  0
  7  2  1  0
  8  4  1  0
  1  9  1  0
  1 10  1  0
  1 11  1  0
  3 12  1  0
  3 13  1  0
  3 14  1  0
  4 15  1  0
  5 16  1  0
  5 17  1  0
  6 18  1  0
  6 19  1  0
  7 20  1  0
M  END
