
     RDKit          3D

 18 18  0  0  0  0  0  0  0  0999 V2000
    1.8903    0.2810   -0.4728 C   0  0  0  0  0  0  0  0  0  0  0  0
    0.6219   -0.1976    0.1477 C   0  0  0  0  0  0  0  0  0  0  0  0
    0.7516   -0.4519    1.5189 O   0  0  0  0  0  0  0  0  0  0  0  0
    0.0927   -1.4393   -0.4708 C   0  0  0  0  0  0  0  0  0  0  0  0
   -1.2291   -1.4355   -0.4131 C   0  0  0  0  0  0  0  0  0  0  0  0
   -1.7078   -0.1758    0.2571 C   0  0  0  0  0  0  0  0  0  0  0  0
   -0.5442    0.7596   -0.0936 C   0  0  0  0  0  0  0  0  0  0  0  0
   -0.4964    1.8551    0.7317 O   0  0  0  0  0  0  0  0  0  0  0  0
    2.6680    0.3073    0.3446 H   0  0  0  0  0  0  0  0  0  0  0  0
    2.2320   -0.3114   -1.3302 H   0  0  0  0  0  0  0  0  0  0  0  0
    1.7045    1.3270   -0.8288 H   0  0  0  0  0  0  0  0  0  0  0  0
    0.9103    0.3624    2.0410 H   0  0  0  0  0  0  0  0  0  0  0  0
    0.6912   -2.2288   -0.9036 H   0  0  0  0  0  0  0  0  0  0  0  0
   -1.9166   -2.1912   -0.7740 H   0  0  0  0  0  0  0  0  0  0  0  0
   -1.6948   -0.3053    1.3648 H   0  0  0  0  0  0  0  0  0  0  0  0
   -2.6591    0.1774   -0.1379 H   0  0  0  0  0  0  0  0  0  0  0  0
   -0.5555    1.0135   -1.1618 H   0  0  0  0  0  0  0  0  0  0  0  0
   -0.7591    2.6535    0.1809 H   0  0  0  0  0  0  0  0  0  0  0  0
  1  2  1  0
  2  3  1  0
  2  4  1  0
  4  5  2  0
  5  6  1  0
  6  7  1  0
  7  8  1  0
  7  2  1  0
  1  9  1  0
  1 10  1  0
  1 11  1  0
  3 12  1  0
  4 13  1  0
  5 14  1  0
  6 15  1  0
  6 16  1  0
  7 17  1  0
  8 18  1  0
M  END
