
     RDKit          3D

 19 20  0  0  0  0  0  0  0  0999 V2000
   -0.4206    1.8712   -0.2577 C   0  0  0  0  0  0  0  0  0  0  0  0
   -0.3421    0.4846    0.3661 C   0  0  0  0  0  0  0  0  0  0  0  0
   -0.0628    0.4670    1.7133 O   0  0  0  0  0  0  0  0  0  0  0  0
   -1.4094   -0.4530   -0.1173 C   0  0  0  0  0  0  0  0  0  0  0  0
   -2.0516   -1.2045    0.8369 O   0  0  0  0  0  0  0  0  0  0  0  0
   -0.3114   -1.2720   -0.7869 C   0  0  0  0  0  0  0  0  0  0  0  0
    0.4052   -0.6149   -1.7561 O   0  0  0  0  0  0  0  0  0  0  0  0
    0.6686   -0.3439   -0.4045 C   0  0  0  0  0  0  0  0  0  0  0  0
    2.0247   -0.5881    0.1462 C   0  0  0  0  0  0  0  0  0  0  0  0
    0.4630    2.0727   -0.9179 H   0  0  0  0  0  0  0  0  0  0  0  0
   -0.4875    2.6146    0.5643 H   0  0  0  0  0  0  0  0  0  0  0  0
   -1.3186    1.9404   -0.8999 H   0  0  0  0  0  0  0  0  0  0  0  0
    0.5334    1.2403    1.9015 H   0  0  0  0  0  0  0  0  0  0  0  0
   -2.0829   -0.0628   -0.9072 H   0  0  0  0  0  0  0  0  0  0  0  0
   -2.5729   -1.9112    0.3385 H   0  0  0  0  0  0  0  0  0  0  0  0
   -0.2365   -2.3383   -0.6147 H   0  0  0  0  0  0  0  0  0  0  0  0
    2.4899    0.3201    0.5908 H   0  0  0  0  0  0  0  0  0  0  0  0
    2.6966   -0.8598   -0.7196 H   0  0  0  0  0  0  0  0  0  0  0  0
    2.0147   -1.3622    0.9241 H   0  0  0  0  0  0  0  0  0  0  0  0
  1  2  1  0
  2  3  1  0
  2  4  1  0
  4  5  1  0
  4  6  1  0
  6  7  1  0
  7  8  1  0
  8  9  1  0
  8  2  1  0
  8  6  1  0
  1 10  1  0
  1 11  1  0
  1 12  1  0
  3 13  1  0
  4 14  1  0
  5 15  1  0
  6 16  1  0
  9 17  1  0
  9 18  1  0
  9 19  1  0
M  END
