
     RDKit          3D

 21 22  0  0  0  0  0  0  0  0999 V2000
    0.4652   -0.4438    1.5581 C   0  0  0  0  0  0  0  0  0  0  0  0
    0.6454   -0.0040    0.1096 C   0  0  0  0  0  0  0  0  0  0  0  0
    2.1005    0.0771   -0.2356 C   0  0  0  0  0  0  0  0  0  0  0  0
    2.3247    0.4711   -1.5367 O   0  0  0  0  0  0  0  0  0  0  0  0
   -0.2248   -0.8111   -0.7921 C   0  0  0  0  0  0  0  0  0  0  0  0
   -1.2208    0.3252   -0.7391 C   0  0  0  0  0  0  0  0  0  0  0  0
   -2.4887    0.2061    0.0128 C   0  0  0  0  0  0  0  0  0  0  0  0
   -0.7912    1.4793   -1.3217 O   0  0  0  0  0  0  0  0  0  0  0  0
   -0.1325    1.2386   -0.1545 C   0  0  0  0  0  0  0  0  0  0  0  0
   -0.2643    0.2103    2.0957 H   0  0  0  0  0  0  0  0  0  0  0  0
    1.4229   -0.5088    2.0896 H   0  0  0  0  0  0  0  0  0  0  0  0
    0.0151   -1.4666    1.5955 H   0  0  0  0  0  0  0  0  0  0  0  0
    2.5430    0.8662    0.4404 H   0  0  0  0  0  0  0  0  0  0  0  0
    2.5778   -0.9093   -0.0527 H   0  0  0  0  0  0  0  0  0  0  0  0
    2.3414   -0.3412   -2.1367 H   0  0  0  0  0  0  0  0  0  0  0  0
   -0.5695   -1.7835   -0.4518 H   0  0  0  0  0  0  0  0  0  0  0  0
    0.1418   -0.9041   -1.8545 H   0  0  0  0  0  0  0  0  0  0  0  0
   -3.3588    0.4530   -0.6271 H   0  0  0  0  0  0  0  0  0  0  0  0
   -2.5916   -0.8590    0.3525 H   0  0  0  0  0  0  0  0  0  0  0  0
   -2.5201    0.8043    0.9592 H   0  0  0  0  0  0  0  0  0  0  0  0
   -0.4157    1.9002    0.6892 H   0  0  0  0  0  0  0  0  0  0  0  0
  1  2  1  0
  2  3  1  0
  3  4  1  0
  2  5  1  0
  5  6  1  0
  6  7  1  0
  6  8  1  0
  8  9  1  0
  9  2  1  0
  9  6  1  0
  1 10  1  0
  1 11  1  0
  1 12  1  0
  3 13  1  0
  3 14  1  0
  4 15  1  0
  5 16  1  0
  5 17  1  0
  7 18  1  0
  7 19  1  0
  7 20  1  0
  9 21  1  0
M  END
