
     RDKit          3D

 21 21  0  0  0  0  0  0  0  0999 V2000
    1.3102   -1.2898    1.0659 C   0  0  0  0  0  0  0  0  0  0  0  0
    0.9444    0.0099    0.3955 C   0  0  0  0  0  0  0  0  0  0  0  0
    1.7786    1.0581    0.7889 O   0  0  0  0  0  0  0  0  0  0  0  0
    0.5961    0.0590   -1.0489 C   0  0  0  0  0  0  0  0  0  0  0  0
    0.9009    1.1771   -1.8179 O   0  0  0  0  0  0  0  0  0  0  0  0
   -0.4404    0.3350    0.0196 C   0  0  0  0  0  0  0  0  0  0  0  0
   -0.8680    1.7648    0.2709 C   0  0  0  0  0  0  0  0  0  0  0  0
   -1.5552   -0.6523    0.0190 C   0  0  0  0  0  0  0  0  0  0  0  0
   -1.3321   -1.7367   -0.8475 O   0  0  0  0  0  0  0  0  0  0  0  0
    0.5345   -2.0620    0.9925 H   0  0  0  0  0  0  0  0  0  0  0  0
    2.3046   -1.6801    0.7173 H   0  0  0  0  0  0  0  0  0  0  0  0
    1.4364   -1.0684    2.1504 H   0  0  0  0  0  0  0  0  0  0  0  0
    2.5571    1.1300    0.1655 H   0  0  0  0  0  0  0  0  0  0  0  0
    0.5809   -0.8817   -1.6033 H   0  0  0  0  0  0  0  0  0  0  0  0
    0.3937    1.1307   -2.6573 H   0  0  0  0  0  0  0  0  0  0  0  0
   -0.0174    2.4618    0.3421 H   0  0  0  0  0  0  0  0  0  0  0  0
   -1.3550    1.7574    1.2901 H   0  0  0  0  0  0  0  0  0  0  0  0
   -1.6642    2.1023   -0.4242 H   0  0  0  0  0  0  0  0  0  0  0  0
   -1.8459   -0.9711    1.0284 H   0  0  0  0  0  0  0  0  0  0  0  0
   -2.4541   -0.1322   -0.4168 H   0  0  0  0  0  0  0  0  0  0  0  0
   -1.8050   -2.5117   -0.4302 H   0  0  0  0  0  0  0  0  0  0  0  0
  1  2  1  0
  2  3  1  0
  2  4  1  0
  4  5  1  0
  4  6  1  0
  6  7  1  0
  6  8  1  0
  8  9  1  0
  6  2  1  0
  1 10  1  0
  1 11  1  0
  1 12  1  0
  3 13  1  0
  4 14  1  0
  5 15  1  0
  7 16  1  0
  7 17  1  0
  7 18  1  0
  8 19  1  0
  8 20  1  0
  9 21  1  0
M  END
