
     RDKit          3D

 20 20  0  0  0  0  0  0  0  0999 V2000
   -1.2976   -1.5802    0.6694 C   0  0  0  0  0  0  0  0  0  0  0  0
   -0.6019   -0.3509    0.0921 C   0  0  0  0  0  0  0  0  0  0  0  0
   -1.0559    0.9473    0.6694 C   0  0  0  0  0  0  0  0  0  0  0  0
   -0.4185    2.0396    0.1365 O   0  0  0  0  0  0  0  0  0  0  0  0
   -0.3800   -0.3072   -1.4100 C   0  0  0  0  0  0  0  0  0  0  0  0
    0.7287   -0.5793   -0.4606 C   0  0  0  0  0  0  0  0  0  0  0  0
    1.8558    0.4120   -0.2812 C   0  0  0  0  0  0  0  0  0  0  0  0
    2.0667    0.5448    1.0919 O   0  0  0  0  0  0  0  0  0  0  0  0
   -0.5133   -2.3480    0.9272 H   0  0  0  0  0  0  0  0  0  0  0  0
   -1.7977   -1.3269    1.6046 H   0  0  0  0  0  0  0  0  0  0  0  0
   -1.9540   -2.0709   -0.0679 H   0  0  0  0  0  0  0  0  0  0  0  0
   -2.1493    1.0550    0.4181 H   0  0  0  0  0  0  0  0  0  0  0  0
   -0.9684    0.9775    1.7778 H   0  0  0  0  0  0  0  0  0  0  0  0
   -0.8827    2.4653   -0.6217 H   0  0  0  0  0  0  0  0  0  0  0  0
   -0.3936    0.6673   -1.9250 H   0  0  0  0  0  0  0  0  0  0  0  0
   -0.8294   -1.1305   -1.9915 H   0  0  0  0  0  0  0  0  0  0  0  0
    1.1108   -1.6240   -0.5134 H   0  0  0  0  0  0  0  0  0  0  0  0
    2.8024    0.0404   -0.7188 H   0  0  0  0  0  0  0  0  0  0  0  0
    1.6669    1.3975   -0.6892 H   0  0  0  0  0  0  0  0  0  0  0  0
    3.0110    0.7712    1.2922 H   0  0  0  0  0  0  0  0  0  0  0  0
  1  2  1  0
  2  3  1  0
  3  4  1  0
  2  5  1  0
  5  6  1  0
  6  7  1  0
  7  8  1  0
  6  2  1  0
  1  9  1  0
  1 10  1  0
  1 11  1  0
  3 12  1  0
  3 13  1  0
  4 14  1  0
  5 15  1  0
  5 16  1  0
  6 17  1  0
  7 18  1  0
  7 19  1  0
  8 20  1  0
M  END
