
     RDKit          3D

 19 19  0  0  0  0  0  0  0  0999 V2000
   -1.4141   -0.8715   -0.0085 C   0  0  0  0  0  0  0  0  0  0  0  0
   -0.5193    0.3418   -0.0621 C   0  0  0  0  0  0  0  0  0  0  0  0
   -1.3468    1.5388   -0.0877 C   0  0  0  0  0  0  0  0  0  0  0  0
   -1.9905    1.8074    0.9097 O   0  0  0  0  0  0  0  0  0  0  0  0
    0.3706    0.4220    1.1860 C   0  0  0  0  0  0  0  0  0  0  0  0
    1.1550   -0.6871    1.2398 O   0  0  0  0  0  0  0  0  0  0  0  0
    1.8184   -1.0180    0.0943 C   0  0  0  0  0  0  0  0  0  0  0  0
    1.0071   -1.0968   -1.0319 O   0  0  0  0  0  0  0  0  0  0  0  0
    0.4303    0.1831   -1.1992 C   0  0  0  0  0  0  0  0  0  0  0  0
   -0.9413   -1.7386   -0.5363 H   0  0  0  0  0  0  0  0  0  0  0  0
   -2.3690   -0.6275   -0.5159 H   0  0  0  0  0  0  0  0  0  0  0  0
   -1.6109   -1.1659    1.0439 H   0  0  0  0  0  0  0  0  0  0  0  0
   -1.3929    2.1704   -0.9568 H   0  0  0  0  0  0  0  0  0  0  0  0
   -0.3112    0.4740    2.0383 H   0  0  0  0  0  0  0  0  0  0  0  0
    0.9063    1.3800    1.1049 H   0  0  0  0  0  0  0  0  0  0  0  0
    2.6056   -0.2531   -0.1379 H   0  0  0  0  0  0  0  0  0  0  0  0
    2.2987   -2.0214    0.2629 H   0  0  0  0  0  0  0  0  0  0  0  0
    1.3056    0.8897   -1.1493 H   0  0  0  0  0  0  0  0  0  0  0  0
   -0.0016    0.2728   -2.1943 H   0  0  0  0  0  0  0  0  0  0  0  0
  1  2  1  0
  2  3  1  0
  3  4  2  0
  2  5  1  0
  5  6  1  0
  6  7  1  0
  7  8  1  0
  8  9  1  0
  9  2  1  0
  1 10  1  0
  1 11  1  0
  1 12  1  0
  3 13  1  0
  5 14  1  0
  5 15  1  0
  7 16  1  0
  7 17  1  0
  9 18  1  0
  9 19  1  0
M  END
