
     RDKit          3D

 23 23  0  0  0  0  0  0  0  0999 V2000
    1.5764    0.5126    1.1692 C   0  0  0  0  0  0  0  0  0  0  0  0
    0.8530   -0.0175   -0.0710 C   0  0  0  0  0  0  0  0  0  0  0  0
    1.9031   -0.5511   -1.0548 C   0  0  0  0  0  0  0  0  0  0  0  0
   -0.0062   -1.1682    0.3077 C   0  0  0  0  0  0  0  0  0  0  0  0
   -1.3858   -0.8423    0.7149 C   0  0  0  0  0  0  0  0  0  0  0  0
   -2.1148    0.1564   -0.0734 C   0  0  0  0  0  0  0  0  0  0  0  0
   -1.3540    1.2357   -0.7179 C   0  0  0  0  0  0  0  0  0  0  0  0
    0.1103    1.1285   -0.6406 C   0  0  0  0  0  0  0  0  0  0  0  0
    0.7747    2.0530   -1.0785 O   0  0  0  0  0  0  0  0  0  0  0  0
    2.3593   -0.1979    1.4490 H   0  0  0  0  0  0  0  0  0  0  0  0
    1.9218    1.5461    1.0244 H   0  0  0  0  0  0  0  0  0  0  0  0
    0.8141    0.4852    1.9838 H   0  0  0  0  0  0  0  0  0  0  0  0
    2.5388   -1.2356   -0.4724 H   0  0  0  0  0  0  0  0  0  0  0  0
    1.3306   -1.1843   -1.7774 H   0  0  0  0  0  0  0  0  0  0  0  0
    2.4252    0.2435   -1.5779 H   0  0  0  0  0  0  0  0  0  0  0  0
    0.4997   -1.6870    1.1724 H   0  0  0  0  0  0  0  0  0  0  0  0
   -0.0508   -1.9555   -0.4915 H   0  0  0  0  0  0  0  0  0  0  0  0
   -1.3645   -0.5430    1.8038 H   0  0  0  0  0  0  0  0  0  0  0  0
   -1.9783   -1.8044    0.7193 H   0  0  0  0  0  0  0  0  0  0  0  0
   -2.9128    0.6157    0.5829 H   0  0  0  0  0  0  0  0  0  0  0  0
   -2.7105   -0.3806   -0.8686 H   0  0  0  0  0  0  0  0  0  0  0  0
   -1.6219    2.2471   -0.2891 H   0  0  0  0  0  0  0  0  0  0  0  0
   -1.6073    1.3436   -1.8143 H   0  0  0  0  0  0  0  0  0  0  0  0
  1  2  1  0
  2  3  1  0
  2  4  1  0
  4  5  1  0
  5  6  1  0
  6  7  1  0
  7  8  1  0
  8  9  2  0
  8  2  1  0
  1 10  1  0
  1 11  1  0
  1 12  1  0
  3 13  1  0
  3 14  1  0
  3 15  1  0
  4 16  1  0
  4 17  1  0
  5 18  1  0
  5 19  1  0
  6 20  1  0
  6 21  1  0
  7 22  1  0
  7 23  1  0
M  END
