
     RDKit          3D

 14 14  0  0  0  0  0  0  0  0999 V2000
    1.4582    0.0630   -0.3044 C   0  0  0  0  0  0  0  0  0  0  0  0
    0.1552   -0.3454    0.3434 C   0  0  0  0  0  0  0  0  0  0  0  0
    0.2935   -0.9124    1.5953 O   0  0  0  0  0  0  0  0  0  0  0  0
   -0.8732   -0.8615   -0.6220 C   0  0  0  0  0  0  0  0  0  0  0  0
   -1.0912    0.4079    0.0967 C   0  0  0  0  0  0  0  0  0  0  0  0
   -0.9675    1.6280   -0.5440 O   0  0  0  0  0  0  0  0  0  0  0  0
    1.3345    1.0816   -0.7247 H   0  0  0  0  0  0  0  0  0  0  0  0
    2.3078   -0.0340    0.3837 H   0  0  0  0  0  0  0  0  0  0  0  0
    1.6381   -0.6755   -1.1274 H   0  0  0  0  0  0  0  0  0  0  0  0
    1.0679   -0.4687    2.0314 H   0  0  0  0  0  0  0  0  0  0  0  0
   -1.4765   -1.7622   -0.3352 H   0  0  0  0  0  0  0  0  0  0  0  0
   -0.6582   -0.8575   -1.7169 H   0  0  0  0  0  0  0  0  0  0  0  0
   -1.8802    0.3843    0.8810 H   0  0  0  0  0  0  0  0  0  0  0  0
   -1.3083    2.3526    0.0431 H   0  0  0  0  0  0  0  0  0  0  0  0
  1  2  1  0
  2  3  1  0
  2  4  1  0
  4  5  1  0
  5  6  1  0
  5  2  1  0
  1  7  1  0
  1  8  1  0
  1  9  1  0
  3 10  1  0
  4 11  1  0
  4 12  1  0
  5 13  1  0
  6 14  1  0
M  END
