
     RDKit          3D

 21 21  0  0  0  0  0  0  0  0999 V2000
   -1.0387    0.9661    0.8498 C   0  0  0  0  0  0  0  0  0  0  0  0
   -0.4971   -0.0280   -0.1488 C   0  0  0  0  0  0  0  0  0  0  0  0
    0.6739    0.5029   -0.9358 C   0  0  0  0  0  0  0  0  0  0  0  0
    1.8411    0.8824   -0.0541 C   0  0  0  0  0  0  0  0  0  0  0  0
    2.3428   -0.2796    0.7248 C   0  0  0  0  0  0  0  0  0  0  0  0
    3.2850   -0.1148    1.4800 O   0  0  0  0  0  0  0  0  0  0  0  0
   -1.6091   -0.4185   -1.1144 C   0  0  0  0  0  0  0  0  0  0  0  0
   -1.4013   -1.7480   -0.4716 C   0  0  0  0  0  0  0  0  0  0  0  0
   -0.3913   -1.3011    0.3389 O   0  0  0  0  0  0  0  0  0  0  0  0
   -1.3745    1.9027    0.3632 H   0  0  0  0  0  0  0  0  0  0  0  0
   -0.2763    1.2463    1.6040 H   0  0  0  0  0  0  0  0  0  0  0  0
   -1.8746    0.5008    1.4072 H   0  0  0  0  0  0  0  0  0  0  0  0
    1.0237   -0.2312   -1.6879 H   0  0  0  0  0  0  0  0  0  0  0  0
    0.3221    1.3947   -1.4933 H   0  0  0  0  0  0  0  0  0  0  0  0
    1.6252    1.7601    0.5785 H   0  0  0  0  0  0  0  0  0  0  0  0
    2.6630    1.1936   -0.7418 H   0  0  0  0  0  0  0  0  0  0  0  0
    1.9226   -1.2764    0.6663 H   0  0  0  0  0  0  0  0  0  0  0  0
   -1.3259   -0.4077   -2.1791 H   0  0  0  0  0  0  0  0  0  0  0  0
   -2.5734    0.0734   -0.9450 H   0  0  0  0  0  0  0  0  0  0  0  0
   -1.0165   -2.5101   -1.1841 H   0  0  0  0  0  0  0  0  0  0  0  0
   -2.3208   -2.1075    0.0428 H   0  0  0  0  0  0  0  0  0  0  0  0
  1  2  1  0
  2  3  1  0
  3  4  1  0
  4  5  1  0
  5  6  2  0
  2  7  1  0
  7  8  1  0
  8  9  1  0
  9  2  1  0
  1 10  1  0
  1 11  1  0
  1 12  1  0
  3 13  1  0
  3 14  1  0
  4 15  1  0
  4 16  1  0
  5 17  1  0
  7 18  1  0
  7 19  1  0
  8 20  1  0
  8 21  1  0
M  END
