
     RDKit          3D

 19 20  0  0  0  0  0  0  0  0999 V2000
   -1.6956   -0.4584   -0.9765 C   0  0  0  0  0  0  0  0  0  0  0  0
   -0.9305    0.0906    0.2098 C   0  0  0  0  0  0  0  0  0  0  0  0
    0.5236   -0.2492    0.2292 C   0  0  0  0  0  0  0  0  0  0  0  0
    1.2229   -0.0400   -1.1051 C   0  0  0  0  0  0  0  0  0  0  0  0
    2.5898   -0.2759   -0.9418 O   0  0  0  0  0  0  0  0  0  0  0  0
    1.2932   -0.5368    1.3723 C   0  0  0  0  0  0  0  0  0  0  0  0
    0.7249   -1.6395    0.7125 O   0  0  0  0  0  0  0  0  0  0  0  0
   -1.4169    1.2982    0.8591 C   0  0  0  0  0  0  0  0  0  0  0  0
   -1.6667    0.0465    1.3975 O   0  0  0  0  0  0  0  0  0  0  0  0
   -2.6893    0.0590   -1.0178 H   0  0  0  0  0  0  0  0  0  0  0  0
   -1.1319   -0.3577   -1.9086 H   0  0  0  0  0  0  0  0  0  0  0  0
   -1.9165   -1.5357   -0.7183 H   0  0  0  0  0  0  0  0  0  0  0  0
    0.8581   -0.7980   -1.8198 H   0  0  0  0  0  0  0  0  0  0  0  0
    1.0283    0.9964   -1.4032 H   0  0  0  0  0  0  0  0  0  0  0  0
    2.9868    0.5005   -0.4367 H   0  0  0  0  0  0  0  0  0  0  0  0
    2.4005   -0.5053    1.3138 H   0  0  0  0  0  0  0  0  0  0  0  0
    0.8981   -0.3904    2.4118 H   0  0  0  0  0  0  0  0  0  0  0  0
   -0.8160    1.9623    1.4773 H   0  0  0  0  0  0  0  0  0  0  0  0
   -2.2629    1.8336    0.3446 H   0  0  0  0  0  0  0  0  0  0  0  0
  1  2  1  0
  2  3  1  0
  3  4  1  0
  4  5  1  0
  3  6  1  0
  6  7  1  0
  2  8  1  0
  8  9  1  0
  9  2  1  0
  7  3  1  0
  1 10  1  0
  1 11  1  0
  1 12  1  0
  4 13  1  0
  4 14  1  0
  5 15  1  0
  6 16  1  0
  6 17  1  0
  8 18  1  0
  8 19  1  0
M  END
