
     RDKit          3D

 23 23  0  0  0  0  0  0  0  0999 V2000
   -1.6690    1.1711   -0.6813 C   0  0  0  0  0  0  0  0  0  0  0  0
   -0.7316    0.0048   -0.3273 C   0  0  0  0  0  0  0  0  0  0  0  0
   -1.4900   -1.1972    0.1325 C   0  0  0  0  0  0  0  0  0  0  0  0
   -0.7407   -2.2881    0.4706 O   0  0  0  0  0  0  0  0  0  0  0  0
    0.3948   -0.1104   -1.3115 C   0  0  0  0  0  0  0  0  0  0  0  0
    0.6123    0.3551    0.1350 C   0  0  0  0  0  0  0  0  0  0  0  0
    0.8757    1.8273    0.3673 C   0  0  0  0  0  0  0  0  0  0  0  0
    1.5044   -0.5569    0.9016 C   0  0  0  0  0  0  0  0  0  0  0  0
    1.8159   -1.7426    0.2100 O   0  0  0  0  0  0  0  0  0  0  0  0
   -2.0322    0.9360   -1.7251 H   0  0  0  0  0  0  0  0  0  0  0  0
   -1.0871    2.1028   -0.7811 H   0  0  0  0  0  0  0  0  0  0  0  0
   -2.5177    1.2356   -0.0030 H   0  0  0  0  0  0  0  0  0  0  0  0
   -2.2655   -1.4225   -0.6262 H   0  0  0  0  0  0  0  0  0  0  0  0
   -2.0567   -0.8877    1.0588 H   0  0  0  0  0  0  0  0  0  0  0  0
   -1.0926   -2.7500    1.2630 H   0  0  0  0  0  0  0  0  0  0  0  0
    0.6583   -1.1392   -1.5821 H   0  0  0  0  0  0  0  0  0  0  0  0
    0.6017    0.6711   -2.0422 H   0  0  0  0  0  0  0  0  0  0  0  0
    1.0607    2.3296   -0.5891 H   0  0  0  0  0  0  0  0  0  0  0  0
    1.7712    1.9936    1.0244 H   0  0  0  0  0  0  0  0  0  0  0  0
    0.0186    2.2664    0.9407 H   0  0  0  0  0  0  0  0  0  0  0  0
    1.1272   -0.8106    1.9135 H   0  0  0  0  0  0  0  0  0  0  0  0
    2.4779   -0.0466    1.0554 H   0  0  0  0  0  0  0  0  0  0  0  0
    2.7642   -1.9416    0.1959 H   0  0  0  0  0  0  0  0  0  0  0  0
  1  2  1  0
  2  3  1  0
  3  4  1  0
  2  5  1  0
  5  6  1  0
  6  7  1  0
  6  8  1  0
  8  9  1  0
  6  2  1  0
  1 10  1  0
  1 11  1  0
  1 12  1  0
  3 13  1  0
  3 14  1  0
  4 15  1  0
  5 16  1  0
  5 17  1  0
  7 18  1  0
  7 19  1  0
  7 20  1  0
  8 21  1  0
  8 22  1  0
  9 23  1  0
M  END
