
     RDKit          3D

 19 20  0  0  0  0  0  0  0  0999 V2000
    0.5976    1.5803    0.0579 C   0  0  0  0  0  0  0  0  0  0  0  0
    0.4429    0.0784    0.2428 C   0  0  0  0  0  0  0  0  0  0  0  0
   -0.9530   -0.2551    0.6312 C   0  0  0  0  0  0  0  0  0  0  0  0
   -2.0011    0.1737   -0.4036 C   0  0  0  0  0  0  0  0  0  0  0  0
   -1.7888   -1.2382   -0.0536 C   0  0  0  0  0  0  0  0  0  0  0  0
    1.5506   -0.4829    1.0538 C   0  0  0  0  0  0  0  0  0  0  0  0
    2.2196   -0.6597   -0.2705 C   0  0  0  0  0  0  0  0  0  0  0  0
    3.4158   -0.7410   -0.6048 O   0  0  0  0  0  0  0  0  0  0  0  0
    0.9649   -0.6808   -0.8412 O   0  0  0  0  0  0  0  0  0  0  0  0
   -0.3262    2.1238    0.3379 H   0  0  0  0  0  0  0  0  0  0  0  0
    1.4038    1.9928    0.7002 H   0  0  0  0  0  0  0  0  0  0  0  0
    0.7547    1.7624   -1.0189 H   0  0  0  0  0  0  0  0  0  0  0  0
   -1.2506    0.0037    1.6754 H   0  0  0  0  0  0  0  0  0  0  0  0
   -2.8650    0.7662   -0.0576 H   0  0  0  0  0  0  0  0  0  0  0  0
   -1.6426    0.4859   -1.4063 H   0  0  0  0  0  0  0  0  0  0  0  0
   -2.5774   -1.7737    0.5488 H   0  0  0  0  0  0  0  0  0  0  0  0
   -1.3886   -1.9270   -0.8494 H   0  0  0  0  0  0  0  0  0  0  0  0
    1.4026   -1.4834    1.5064 H   0  0  0  0  0  0  0  0  0  0  0  0
    2.0407    0.2744    1.6865 H   0  0  0  0  0  0  0  0  0  0  0  0
  1  2  1  0
  2  3  1  0
  3  4  1  0
  4  5  1  0
  2  6  1  0
  6  7  1  0
  7  8  2  0
  7  9  1  0
  9  2  1  0
  5  3  1  0
  1 10  1  0
  1 11  1  0
  1 12  1  0
  3 13  1  0
  4 14  1  0
  4 15  1  0
  5 16  1  0
  5 17  1  0
  6 18  1  0
  6 19  1  0
M  END
