
     RDKit          3D

 21 22  0  0  0  0  0  0  0  0999 V2000
   -2.1057   -1.3486   -0.1487 C   0  0  0  0  0  0  0  0  0  0  0  0
   -1.1487   -0.1978   -0.1154 C   0  0  0  0  0  0  0  0  0  0  0  0
   -1.8452    1.0720    0.2877 C   0  0  0  0  0  0  0  0  0  0  0  0
   -0.4290   -0.0683   -1.3006 O   0  0  0  0  0  0  0  0  0  0  0  0
    0.7475   -0.3379   -0.5937 C   0  0  0  0  0  0  0  0  0  0  0  0
    1.2041    0.4918    0.4993 C   0  0  0  0  0  0  0  0  0  0  0  0
    2.4910    0.9430    0.0805 C   0  0  0  0  0  0  0  0  0  0  0  0
    3.3741   -0.1454   -0.1473 O   0  0  0  0  0  0  0  0  0  0  0  0
    0.1618   -0.4604    0.6083 C   0  0  0  0  0  0  0  0  0  0  0  0
   -2.6486   -1.2981   -1.1374 H   0  0  0  0  0  0  0  0  0  0  0  0
   -1.6239   -2.3369   -0.0026 H   0  0  0  0  0  0  0  0  0  0  0  0
   -2.9142   -1.1986    0.6181 H   0  0  0  0  0  0  0  0  0  0  0  0
   -2.6000    0.8334    1.0670 H   0  0  0  0  0  0  0  0  0  0  0  0
   -2.4446    1.4360   -0.5944 H   0  0  0  0  0  0  0  0  0  0  0  0
   -1.1649    1.8493    0.6767 H   0  0  0  0  0  0  0  0  0  0  0  0
    1.3352   -1.1537   -1.0609 H   0  0  0  0  0  0  0  0  0  0  0  0
    0.8300    1.1910    1.2289 H   0  0  0  0  0  0  0  0  0  0  0  0
    3.0263    1.5755    0.8187 H   0  0  0  0  0  0  0  0  0  0  0  0
    2.5767    1.5558   -0.8637 H   0  0  0  0  0  0  0  0  0  0  0  0
    3.0333   -0.9751    0.2448 H   0  0  0  0  0  0  0  0  0  0  0  0
    0.1448   -1.4270    1.1708 H   0  0  0  0  0  0  0  0  0  0  0  0
  1  2  1  0
  2  3  1  0
  2  4  1  0
  4  5  1  0
  5  6  1  0
  6  7  1  0
  7  8  1  0
  6  9  1  0
  9  2  1  0
  9  5  1  0
  1 10  1  0
  1 11  1  0
  1 12  1  0
  3 13  1  0
  3 14  1  0
  3 15  1  0
  5 16  1  0
  6 17  1  0
  7 18  1  0
  7 19  1  0
  8 20  1  0
  9 21  1  0
M  END
