
     RDKit          3D

 21 21  0  0  0  0  0  0  0  0999 V2000
    1.4148   -1.2510   -0.4841 C   0  0  0  0  0  0  0  0  0  0  0  0
    0.7932   -0.0446    0.1725 C   0  0  0  0  0  0  0  0  0  0  0  0
    1.4776    1.2298   -0.2660 C   0  0  0  0  0  0  0  0  0  0  0  0
    0.9240   -0.1620    1.5971 O   0  0  0  0  0  0  0  0  0  0  0  0
   -0.3920    0.2517    1.6828 C   0  0  0  0  0  0  0  0  0  0  0  0
   -1.0601    0.6879    2.6660 O   0  0  0  0  0  0  0  0  0  0  0  0
   -0.6850   -0.0050    0.2523 C   0  0  0  0  0  0  0  0  0  0  0  0
   -1.3541    1.1554   -0.4719 C   0  0  0  0  0  0  0  0  0  0  0  0
   -1.4284   -1.2821   -0.0025 C   0  0  0  0  0  0  0  0  0  0  0  0
    1.0797   -1.4184   -1.5124 H   0  0  0  0  0  0  0  0  0  0  0  0
    2.5205   -1.0917   -0.4914 H   0  0  0  0  0  0  0  0  0  0  0  0
    1.2511   -2.1518    0.1478 H   0  0  0  0  0  0  0  0  0  0  0  0
    1.5951    1.9543    0.5790 H   0  0  0  0  0  0  0  0  0  0  0  0
    2.5139    0.9766   -0.6163 H   0  0  0  0  0  0  0  0  0  0  0  0
    0.9639    1.7578   -1.0682 H   0  0  0  0  0  0  0  0  0  0  0  0
   -0.9475    1.1760   -1.4870 H   0  0  0  0  0  0  0  0  0  0  0  0
   -1.2467    2.0882    0.0881 H   0  0  0  0  0  0  0  0  0  0  0  0
   -2.4432    0.9474   -0.5641 H   0  0  0  0  0  0  0  0  0  0  0  0
   -2.3318   -1.1265   -0.6627 H   0  0  0  0  0  0  0  0  0  0  0  0
   -1.8455   -1.6615    0.9575 H   0  0  0  0  0  0  0  0  0  0  0  0
   -0.7997   -2.0306   -0.5167 H   0  0  0  0  0  0  0  0  0  0  0  0
  1  2  1  0
  2  3  1  0
  2  4  1  0
  4  5  1  0
  5  6  2  0
  5  7  1  0
  7  8  1  0
  7  9  1  0
  7  2  1  0
  1 10  1  0
  1 11  1  0
  1 12  1  0
  3 13  1  0
  3 14  1  0
  3 15  1  0
  8 16  1  0
  8 17  1  0
  8 18  1  0
  9 19  1  0
  9 20  1  0
  9 21  1  0
M  END
