
     RDKit          3D

 19 20  0  0  0  0  0  0  0  0999 V2000
   -0.9609   -1.4843   -0.0601 C   0  0  0  0  0  0  0  0  0  0  0  0
   -0.5498   -0.0758    0.2936 C   0  0  0  0  0  0  0  0  0  0  0  0
   -0.9169    0.3222    1.5952 O   0  0  0  0  0  0  0  0  0  0  0  0
   -0.8101    0.9524   -0.7716 C   0  0  0  0  0  0  0  0  0  0  0  0
   -1.6357    1.9536   -0.3197 O   0  0  0  0  0  0  0  0  0  0  0  0
    0.6814    1.3058   -0.7903 C   0  0  0  0  0  0  0  0  0  0  0  0
    0.9261    0.1638    0.1107 C   0  0  0  0  0  0  0  0  0  0  0  0
    1.8654   -0.8198    0.1149 C   0  0  0  0  0  0  0  0  0  0  0  0
    1.7658    0.2127    1.1880 O   0  0  0  0  0  0  0  0  0  0  0  0
   -0.1138   -2.0610   -0.5175 H   0  0  0  0  0  0  0  0  0  0  0  0
   -1.7379   -1.4137   -0.8508 H   0  0  0  0  0  0  0  0  0  0  0  0
   -1.3077   -2.0132    0.8468 H   0  0  0  0  0  0  0  0  0  0  0  0
   -0.8308   -0.5216    2.1430 H   0  0  0  0  0  0  0  0  0  0  0  0
   -1.1272    0.5392   -1.7476 H   0  0  0  0  0  0  0  0  0  0  0  0
   -1.7655    1.9524    0.6741 H   0  0  0  0  0  0  0  0  0  0  0  0
    1.1298    1.2770   -1.8068 H   0  0  0  0  0  0  0  0  0  0  0  0
    0.8208    2.3076   -0.2873 H   0  0  0  0  0  0  0  0  0  0  0  0
    1.6903   -1.8302    0.5549 H   0  0  0  0  0  0  0  0  0  0  0  0
    2.8764   -0.7673   -0.3696 H   0  0  0  0  0  0  0  0  0  0  0  0
  1  2  1  0
  2  3  1  0
  2  4  1  0
  4  5  1  0
  4  6  1  0
  6  7  1  0
  7  8  1  0
  8  9  1  0
  7  2  1  0
  9  7  1  0
  1 10  1  0
  1 11  1  0
  1 12  1  0
  3 13  1  0
  4 14  1  0
  5 15  1  0
  6 16  1  0
  6 17  1  0
  8 18  1  0
  8 19  1  0
M  END
