
     RDKit          3D

 21 21  0  0  0  0  0  0  0  0999 V2000
   -0.8071   -0.0960    1.6940 C   0  0  0  0  0  0  0  0  0  0  0  0
   -0.7130   -0.0081    0.1808 C   0  0  0  0  0  0  0  0  0  0  0  0
   -1.7630   -0.8943   -0.4906 C   0  0  0  0  0  0  0  0  0  0  0  0
   -0.3081    1.2651   -0.4051 C   0  0  0  0  0  0  0  0  0  0  0  0
   -0.7855    1.7259   -1.6249 O   0  0  0  0  0  0  0  0  0  0  0  0
    0.5935    0.0353   -0.5022 C   0  0  0  0  0  0  0  0  0  0  0  0
    0.7094   -0.5857   -1.7486 O   0  0  0  0  0  0  0  0  0  0  0  0
    1.8891    0.1479    0.2436 C   0  0  0  0  0  0  0  0  0  0  0  0
    2.4402   -1.1021    0.4829 O   0  0  0  0  0  0  0  0  0  0  0  0
   -1.7098    0.4752    2.0038 H   0  0  0  0  0  0  0  0  0  0  0  0
    0.0936    0.3028    2.1456 H   0  0  0  0  0  0  0  0  0  0  0  0
   -0.9720   -1.1761    1.9652 H   0  0  0  0  0  0  0  0  0  0  0  0
   -2.7861   -0.6233   -0.1541 H   0  0  0  0  0  0  0  0  0  0  0  0
   -1.6467   -0.7504   -1.5710 H   0  0  0  0  0  0  0  0  0  0  0  0
   -1.4849   -1.9354   -0.1604 H   0  0  0  0  0  0  0  0  0  0  0  0
    0.0027    2.0820    0.2898 H   0  0  0  0  0  0  0  0  0  0  0  0
   -1.5557    2.3394   -1.5206 H   0  0  0  0  0  0  0  0  0  0  0  0
    1.0542   -1.4927   -1.6316 H   0  0  0  0  0  0  0  0  0  0  0  0
    2.5975    0.7083   -0.4332 H   0  0  0  0  0  0  0  0  0  0  0  0
    1.8163    0.7718    1.1573 H   0  0  0  0  0  0  0  0  0  0  0  0
    3.3353   -1.1895    0.0793 H   0  0  0  0  0  0  0  0  0  0  0  0
  1  2  1  0
  2  3  1  0
  2  4  1  0
  4  5  1  0
  4  6  1  0
  6  7  1  0
  6  8  1  0
  8  9  1  0
  6  2  1  0
  1 10  1  0
  1 11  1  0
  1 12  1  0
  3 13  1  0
  3 14  1  0
  3 15  1  0
  4 16  1  0
  5 17  1  0
  7 18  1  0
  8 19  1  0
  8 20  1  0
  9 21  1  0
M  END
