
     RDKit          3D

 21 22  0  0  0  0  0  0  0  0999 V2000
   -1.1301   -0.2560    1.3219 C   0  0  0  0  0  0  0  0  0  0  0  0
   -0.6854    0.1158   -0.0487 C   0  0  0  0  0  0  0  0  0  0  0  0
   -1.6102    1.1232   -0.6903 C   0  0  0  0  0  0  0  0  0  0  0  0
   -0.5837   -1.1088   -0.9408 C   0  0  0  0  0  0  0  0  0  0  0  0
    0.8312   -1.5560   -0.7820 C   0  0  0  0  0  0  0  0  0  0  0  0
    1.5899   -0.5831   -0.2942 C   0  0  0  0  0  0  0  0  0  0  0  0
    2.5466    0.4447    0.2550 C   0  0  0  0  0  0  0  0  0  0  0  0
    1.4193    0.8734    1.0160 O   0  0  0  0  0  0  0  0  0  0  0  0
    0.7081    0.6441   -0.1382 C   0  0  0  0  0  0  0  0  0  0  0  0
   -0.6921   -1.2483    1.6019 H   0  0  0  0  0  0  0  0  0  0  0  0
   -0.9462    0.5228    2.0644 H   0  0  0  0  0  0  0  0  0  0  0  0
   -2.2419   -0.4078    1.2835 H   0  0  0  0  0  0  0  0  0  0  0  0
   -1.6825    2.0498   -0.1306 H   0  0  0  0  0  0  0  0  0  0  0  0
   -1.1422    1.3813   -1.6810 H   0  0  0  0  0  0  0  0  0  0  0  0
   -2.5792    0.6514   -0.9447 H   0  0  0  0  0  0  0  0  0  0  0  0
   -0.8249   -0.8097   -1.9765 H   0  0  0  0  0  0  0  0  0  0  0  0
   -1.2982   -1.9029   -0.6551 H   0  0  0  0  0  0  0  0  0  0  0  0
    1.2588   -2.5290   -1.0121 H   0  0  0  0  0  0  0  0  0  0  0  0
    2.7768    1.1948   -0.5266 H   0  0  0  0  0  0  0  0  0  0  0  0
    3.3679    0.0526    0.8442 H   0  0  0  0  0  0  0  0  0  0  0  0
    0.9182    1.3475   -0.9564 H   0  0  0  0  0  0  0  0  0  0  0  0
  1  2  1  0
  2  3  1  0
  2  4  1  0
  4  5  1  0
  5  6  2  0
  6  7  1  0
  7  8  1  0
  8  9  1  0
  9  2  1  0
  9  6  1  0
  1 10  1  0
  1 11  1  0
  1 12  1  0
  3 13  1  0
  3 14  1  0
  3 15  1  0
  4 16  1  0
  4 17  1  0
  5 18  1  0
  7 19  1  0
  7 20  1  0
  9 21  1  0
M  END
