
     RDKit          3D

 21 22  0  0  0  0  0  0  0  0999 V2000
    1.8486   -1.3711   -0.4488 C   0  0  0  0  0  0  0  0  0  0  0  0
    0.8098   -0.3705   -0.0010 C   0  0  0  0  0  0  0  0  0  0  0  0
    1.1679    0.4425    1.2030 C   0  0  0  0  0  0  0  0  0  0  0  0
    0.2078    0.4965   -1.1423 C   0  0  0  0  0  0  0  0  0  0  0  0
   -0.2848    1.7207   -0.8090 O   0  0  0  0  0  0  0  0  0  0  0  0
   -1.4806    1.5886   -0.1600 C   0  0  0  0  0  0  0  0  0  0  0  0
   -1.7409    0.1445    0.1053 C   0  0  0  0  0  0  0  0  0  0  0  0
   -0.5571   -0.5693   -0.4688 C   0  0  0  0  0  0  0  0  0  0  0  0
   -0.8298   -1.7857   -1.1108 O   0  0  0  0  0  0  0  0  0  0  0  0
    1.4536   -2.0239   -1.2675 H   0  0  0  0  0  0  0  0  0  0  0  0
    2.0658   -2.0466    0.3949 H   0  0  0  0  0  0  0  0  0  0  0  0
    2.7532   -0.8169   -0.7907 H   0  0  0  0  0  0  0  0  0  0  0  0
    2.2893    0.5726    1.1812 H   0  0  0  0  0  0  0  0  0  0  0  0
    0.7358    1.4712    1.1860 H   0  0  0  0  0  0  0  0  0  0  0  0
    0.9478   -0.0425    2.1632 H   0  0  0  0  0  0  0  0  0  0  0  0
    0.6629    0.3762   -2.1275 H   0  0  0  0  0  0  0  0  0  0  0  0
   -1.5476    2.2115    0.7807 H   0  0  0  0  0  0  0  0  0  0  0  0
   -2.2703    2.0434   -0.8282 H   0  0  0  0  0  0  0  0  0  0  0  0
   -1.9182   -0.0995    1.1526 H   0  0  0  0  0  0  0  0  0  0  0  0
   -2.6347   -0.1582   -0.5096 H   0  0  0  0  0  0  0  0  0  0  0  0
   -1.6783   -1.7833   -1.5973 H   0  0  0  0  0  0  0  0  0  0  0  0
  1  2  1  0
  2  3  1  0
  2  4  1  0
  4  5  1  0
  5  6  1  0
  6  7  1  0
  7  8  1  0
  8  9  1  0
  8  2  1  0
  8  4  1  0
  1 10  1  0
  1 11  1  0
  1 12  1  0
  3 13  1  0
  3 14  1  0
  3 15  1  0
  4 16  1  0
  6 17  1  0
  6 18  1  0
  7 19  1  0
  7 20  1  0
  9 21  1  0
M  END
