
     RDKit          3D

 23 23  0  0  0  0  0  0  0  0999 V2000
    2.0118    0.8490   -0.6663 C   0  0  0  0  0  0  0  0  0  0  0  0
    1.0506   -0.0994   -0.0032 C   0  0  0  0  0  0  0  0  0  0  0  0
    1.8222   -1.2609    0.6063 C   0  0  0  0  0  0  0  0  0  0  0  0
   -0.1003   -0.5553   -0.8586 C   0  0  0  0  0  0  0  0  0  0  0  0
   -1.0405    0.1285    0.0838 C   0  0  0  0  0  0  0  0  0  0  0  0
   -2.0062   -0.7985    0.8120 C   0  0  0  0  0  0  0  0  0  0  0  0
   -1.7886    1.2339   -0.5980 C   0  0  0  0  0  0  0  0  0  0  0  0
    0.1008    0.5546    0.9411 C   0  0  0  0  0  0  0  0  0  0  0  0
    0.1222    1.1872    1.9837 O   0  0  0  0  0  0  0  0  0  0  0  0
    3.0436    0.4313   -0.7295 H   0  0  0  0  0  0  0  0  0  0  0  0
    2.1017    1.7359    0.0271 H   0  0  0  0  0  0  0  0  0  0  0  0
    1.7003    1.1516   -1.6802 H   0  0  0  0  0  0  0  0  0  0  0  0
    1.1880   -1.9083    1.2327 H   0  0  0  0  0  0  0  0  0  0  0  0
    2.6267   -0.7814    1.2339 H   0  0  0  0  0  0  0  0  0  0  0  0
    2.3197   -1.7774   -0.2223 H   0  0  0  0  0  0  0  0  0  0  0  0
   -0.0426   -0.1111   -1.8782 H   0  0  0  0  0  0  0  0  0  0  0  0
   -0.2530   -1.6525   -0.8545 H   0  0  0  0  0  0  0  0  0  0  0  0
   -1.4782   -1.6429    1.2741 H   0  0  0  0  0  0  0  0  0  0  0  0
   -2.7581   -1.1075    0.0644 H   0  0  0  0  0  0  0  0  0  0  0  0
   -2.5444   -0.1542    1.5432 H   0  0  0  0  0  0  0  0  0  0  0  0
   -2.8421    1.2956   -0.2159 H   0  0  0  0  0  0  0  0  0  0  0  0
   -1.8862    1.0498   -1.6993 H   0  0  0  0  0  0  0  0  0  0  0  0
   -1.3475    2.2320   -0.3962 H   0  0  0  0  0  0  0  0  0  0  0  0
  1  2  1  0
  2  3  1  0
  2  4  1  0
  4  5  1  0
  5  6  1  0
  5  7  1  0
  5  8  1  0
  8  9  2  0
  8  2  1  0
  1 10  1  0
  1 11  1  0
  1 12  1  0
  3 13  1  0
  3 14  1  0
  3 15  1  0
  4 16  1  0
  4 17  1  0
  6 18  1  0
  6 19  1  0
  6 20  1  0
  7 21  1  0
  7 22  1  0
  7 23  1  0
M  END
