
     RDKit          3D

 19 20  0  0  0  0  0  0  0  0999 V2000
   -1.4944   -0.9444    0.9483 C   0  0  0  0  0  0  0  0  0  0  0  0
   -0.9617   -0.3013   -0.2910 C   0  0  0  0  0  0  0  0  0  0  0  0
   -1.8963    0.3175   -1.1356 O   0  0  0  0  0  0  0  0  0  0  0  0
    0.2889   -0.7194   -0.9415 C   0  0  0  0  0  0  0  0  0  0  0  0
    1.1481   -1.6496   -0.3842 O   0  0  0  0  0  0  0  0  0  0  0  0
    1.9810   -0.9076    0.4606 C   0  0  0  0  0  0  0  0  0  0  0  0
    1.1170    0.0387    1.0110 O   0  0  0  0  0  0  0  0  0  0  0  0
    0.3547    0.4446   -0.0568 C   0  0  0  0  0  0  0  0  0  0  0  0
    0.3527    1.8556   -0.5327 C   0  0  0  0  0  0  0  0  0  0  0  0
   -1.1314   -0.4042    1.8718 H   0  0  0  0  0  0  0  0  0  0  0  0
   -2.6084   -0.8141    0.9821 H   0  0  0  0  0  0  0  0  0  0  0  0
   -1.2914   -2.0265    0.9996 H   0  0  0  0  0  0  0  0  0  0  0  0
   -2.4727    0.9516   -0.6802 H   0  0  0  0  0  0  0  0  0  0  0  0
    0.3862   -0.6442   -2.0536 H   0  0  0  0  0  0  0  0  0  0  0  0
    2.7084   -0.3424   -0.1726 H   0  0  0  0  0  0  0  0  0  0  0  0
    2.4780   -1.5367    1.2033 H   0  0  0  0  0  0  0  0  0  0  0  0
   -0.5717    2.1108   -1.0781 H   0  0  0  0  0  0  0  0  0  0  0  0
    0.4162    2.5452    0.3274 H   0  0  0  0  0  0  0  0  0  0  0  0
    1.1967    2.0264   -1.2178 H   0  0  0  0  0  0  0  0  0  0  0  0
  1  2  1  0
  2  3  1  0
  2  4  1  0
  4  5  1  0
  5  6  1  0
  6  7  1  0
  7  8  1  0
  8  9  1  0
  8  2  1  0
  8  4  1  0
  1 10  1  0
  1 11  1  0
  1 12  1  0
  3 13  1  0
  4 14  1  0
  6 15  1  0
  6 16  1  0
  9 17  1  0
  9 18  1  0
  9 19  1  0
M  END
