
     RDKit          3D

 19 20  0  0  0  0  0  0  0  0999 V2000
   -1.9565   -0.8167    0.0134 C   0  0  0  0  0  0  0  0  0  0  0  0
   -0.6227   -0.2229    0.3721 C   0  0  0  0  0  0  0  0  0  0  0  0
   -0.2874   -0.5852    1.6491 O   0  0  0  0  0  0  0  0  0  0  0  0
   -0.7475    1.3144    0.2233 C   0  0  0  0  0  0  0  0  0  0  0  0
    0.7245    1.6317    0.1267 C   0  0  0  0  0  0  0  0  0  0  0  0
    1.4418    0.5979   -0.2433 C   0  0  0  0  0  0  0  0  0  0  0  0
    2.4631   -0.4587   -0.6559 C   0  0  0  0  0  0  0  0  0  0  0  0
    1.4699   -1.4211   -0.2411 O   0  0  0  0  0  0  0  0  0  0  0  0
    0.4777   -0.5387   -0.5709 C   0  0  0  0  0  0  0  0  0  0  0  0
   -1.9638   -1.9036    0.0270 H   0  0  0  0  0  0  0  0  0  0  0  0
   -2.6947   -0.4386    0.7381 H   0  0  0  0  0  0  0  0  0  0  0  0
   -2.2806   -0.4379   -0.9924 H   0  0  0  0  0  0  0  0  0  0  0  0
   -0.9824   -1.1181    2.1106 H   0  0  0  0  0  0  0  0  0  0  0  0
   -1.2805    1.5786   -0.6845 H   0  0  0  0  0  0  0  0  0  0  0  0
   -1.1464    1.6886    1.1660 H   0  0  0  0  0  0  0  0  0  0  0  0
    1.1882    2.6111    0.3353 H   0  0  0  0  0  0  0  0  0  0  0  0
    2.6750   -0.4817   -1.7302 H   0  0  0  0  0  0  0  0  0  0  0  0
    3.3528   -0.4810   -0.0059 H   0  0  0  0  0  0  0  0  0  0  0  0
    0.1693   -0.5182   -1.6374 H   0  0  0  0  0  0  0  0  0  0  0  0
  1  2  1  0
  2  3  1  0
  2  4  1  0
  4  5  1  0
  5  6  2  0
  6  7  1  0
  7  8  1  0
  8  9  1  0
  9  2  1  0
  9  6  1  0
  1 10  1  0
  1 11  1  0
  1 12  1  0
  3 13  1  0
  4 14  1  0
  4 15  1  0
  5 16  1  0
  7 17  1  0
  7 18  1  0
  9 19  1  0
M  END
