
     RDKit          3D

 21 21  0  0  0  0  0  0  0  0999 V2000
   -1.2381   -1.0016   -0.7772 C   0  0  0  0  0  0  0  0  0  0  0  0
   -1.0792    0.0663    0.2617 C   0  0  0  0  0  0  0  0  0  0  0  0
   -2.4133    0.4539    0.8826 C   0  0  0  0  0  0  0  0  0  0  0  0
    0.0074   -0.2617    1.2409 C   0  0  0  0  0  0  0  0  0  0  0  0
    0.7591    0.8744    0.6408 C   0  0  0  0  0  0  0  0  0  0  0  0
    1.8637    0.5432   -0.3030 C   0  0  0  0  0  0  0  0  0  0  0  0
    2.9380   -0.2774    0.3007 C   0  0  0  0  0  0  0  0  0  0  0  0
    2.9545   -0.6616    1.4441 O   0  0  0  0  0  0  0  0  0  0  0  0
   -0.3938    1.2007   -0.1121 O   0  0  0  0  0  0  0  0  0  0  0  0
   -0.4758   -1.8204   -0.6249 H   0  0  0  0  0  0  0  0  0  0  0  0
   -1.1946   -0.6253   -1.8066 H   0  0  0  0  0  0  0  0  0  0  0  0
   -2.2265   -1.5187   -0.6180 H   0  0  0  0  0  0  0  0  0  0  0  0
   -3.0855   -0.3996    0.7988 H   0  0  0  0  0  0  0  0  0  0  0  0
   -2.2933    0.8752    1.8806 H   0  0  0  0  0  0  0  0  0  0  0  0
   -2.8319    1.2626    0.2178 H   0  0  0  0  0  0  0  0  0  0  0  0
   -0.2963   -0.1320    2.3204 H   0  0  0  0  0  0  0  0  0  0  0  0
    0.4667   -1.2793    1.1239 H   0  0  0  0  0  0  0  0  0  0  0  0
    0.9912    1.7277    1.3008 H   0  0  0  0  0  0  0  0  0  0  0  0
    2.2891    1.5110   -0.6731 H   0  0  0  0  0  0  0  0  0  0  0  0
    1.4895    0.0113   -1.2054 H   0  0  0  0  0  0  0  0  0  0  0  0
    3.7691   -0.5488   -0.3413 H   0  0  0  0  0  0  0  0  0  0  0  0
  1  2  1  0
  2  3  1  0
  2  4  1  0
  4  5  1  0
  5  6  1  0
  6  7  1  0
  7  8  2  0
  5  9  1  0
  9  2  1  0
  1 10  1  0
  1 11  1  0
  1 12  1  0
  3 13  1  0
  3 14  1  0
  3 15  1  0
  4 16  1  0
  4 17  1  0
  5 18  1  0
  6 19  1  0
  6 20  1  0
  7 21  1  0
M  END
