
     RDKit          3D

 16 16  0  0  0  0  0  0  0  0999 V2000
   -1.4736    0.7427   -0.5695 C   0  0  0  0  0  0  0  0  0  0  0  0
   -0.8487   -0.2865    0.3739 C   0  0  0  0  0  0  0  0  0  0  0  0
   -1.3426   -0.2966    1.6555 O   0  0  0  0  0  0  0  0  0  0  0  0
   -0.3540   -1.5056   -0.3019 C   0  0  0  0  0  0  0  0  0  0  0  0
    0.6293   -0.5734    0.2344 C   0  0  0  0  0  0  0  0  0  0  0  0
    1.3145    0.3719   -0.5318 O   0  0  0  0  0  0  0  0  0  0  0  0
    2.5376    0.9154   -0.2481 C   0  0  0  0  0  0  0  0  0  0  0  0
    3.1038    0.5167    0.8220 O   0  0  0  0  0  0  0  0  0  0  0  0
   -0.7338    1.1257   -1.2784 H   0  0  0  0  0  0  0  0  0  0  0  0
   -2.2464    0.1909   -1.1548 H   0  0  0  0  0  0  0  0  0  0  0  0
   -2.0049    1.5281   -0.0012 H   0  0  0  0  0  0  0  0  0  0  0  0
   -1.7258    0.5965    1.8556 H   0  0  0  0  0  0  0  0  0  0  0  0
   -0.5266   -1.6396   -1.4033 H   0  0  0  0  0  0  0  0  0  0  0  0
   -0.5416   -2.4474    0.2531 H   0  0  0  0  0  0  0  0  0  0  0  0
    1.1694   -0.8839    1.1543 H   0  0  0  0  0  0  0  0  0  0  0  0
    3.0433    1.6450   -0.8597 H   0  0  0  0  0  0  0  0  0  0  0  0
  1  2  1  0
  2  3  1  0
  2  4  1  0
  4  5  1  0
  5  6  1  0
  6  7  1  0
  7  8  2  0
  5  2  1  0
  1  9  1  0
  1 10  1  0
  1 11  1  0
  3 12  1  0
  4 13  1  0
  4 14  1  0
  5 15  1  0
  7 16  1  0
M  END
