
     RDKit          3D

 21 22  0  0  0  0  0  0  0  0999 V2000
   -1.1676    1.4742    0.2898 C   0  0  0  0  0  0  0  0  0  0  0  0
   -0.6693    0.1249   -0.0774 C   0  0  0  0  0  0  0  0  0  0  0  0
   -1.7205   -0.6833   -0.7783 C   0  0  0  0  0  0  0  0  0  0  0  0
    0.0246   -0.5561    1.0760 C   0  0  0  0  0  0  0  0  0  0  0  0
   -0.3338   -1.9212    1.0832 O   0  0  0  0  0  0  0  0  0  0  0  0
    1.3754   -0.3213    0.4956 C   0  0  0  0  0  0  0  0  0  0  0  0
    1.7535    0.8606   -0.2774 C   0  0  0  0  0  0  0  0  0  0  0  0
    2.9550    0.7560   -0.9990 O   0  0  0  0  0  0  0  0  0  0  0  0
    0.6396    0.0536   -0.8151 C   0  0  0  0  0  0  0  0  0  0  0  0
   -1.9357    1.8717   -0.4318 H   0  0  0  0  0  0  0  0  0  0  0  0
   -1.7372    1.3852    1.2617 H   0  0  0  0  0  0  0  0  0  0  0  0
   -0.3882    2.2293    0.4814 H   0  0  0  0  0  0  0  0  0  0  0  0
   -1.2925   -1.3807   -1.5434 H   0  0  0  0  0  0  0  0  0  0  0  0
   -2.3047   -1.2768   -0.0655 H   0  0  0  0  0  0  0  0  0  0  0  0
   -2.3705    0.0152   -1.3424 H   0  0  0  0  0  0  0  0  0  0  0  0
   -0.2209   -0.0925    2.0295 H   0  0  0  0  0  0  0  0  0  0  0  0
   -0.0956   -2.3472    1.9541 H   0  0  0  0  0  0  0  0  0  0  0  0
    2.0289   -1.2119    0.4677 H   0  0  0  0  0  0  0  0  0  0  0  0
    1.5804    1.9010    0.0599 H   0  0  0  0  0  0  0  0  0  0  0  0
    3.1231   -0.1939   -1.2657 H   0  0  0  0  0  0  0  0  0  0  0  0
    0.7560   -0.6871   -1.6028 H   0  0  0  0  0  0  0  0  0  0  0  0
  1  2  1  0
  2  3  1  0
  2  4  1  0
  4  5  1  0
  4  6  1  0
  6  7  1  0
  7  8  1  0
  7  9  1  0
  9  2  1  0
  9  6  1  0
  1 10  1  0
  1 11  1  0
  1 12  1  0
  3 13  1  0
  3 14  1  0
  3 15  1  0
  4 16  1  0
  5 17  1  0
  6 18  1  0
  7 19  1  0
  8 20  1  0
  9 21  1  0
M  END
