
     RDKit          3D

 23 24  0  0  0  0  0  0  0  0999 V2000
   -1.4242   -0.0434   -1.6780 C   0  0  0  0  0  0  0  0  0  0  0  0
   -1.0359   -0.0133   -0.2348 C   0  0  0  0  0  0  0  0  0  0  0  0
   -2.1305   -0.5172    0.6916 C   0  0  0  0  0  0  0  0  0  0  0  0
   -0.6268    1.3973    0.2686 C   0  0  0  0  0  0  0  0  0  0  0  0
    0.8116    1.0576   -0.0182 C   0  0  0  0  0  0  0  0  0  0  0  0
    2.1041    1.0449   -0.2742 C   0  0  0  0  0  0  0  0  0  0  0  0
    2.5867   -0.3863   -0.3812 C   0  0  0  0  0  0  0  0  0  0  0  0
    1.2592   -1.0218   -0.8691 C   0  0  0  0  0  0  0  0  0  0  0  0
    0.3481   -0.3919    0.1164 C   0  0  0  0  0  0  0  0  0  0  0  0
   -0.8555   -0.7801   -2.2629 H   0  0  0  0  0  0  0  0  0  0  0  0
   -2.5089   -0.3382   -1.7949 H   0  0  0  0  0  0  0  0  0  0  0  0
   -1.3603    0.9867   -2.1310 H   0  0  0  0  0  0  0  0  0  0  0  0
   -3.0229    0.1367    0.5308 H   0  0  0  0  0  0  0  0  0  0  0  0
   -1.8268   -0.3494    1.7493 H   0  0  0  0  0  0  0  0  0  0  0  0
   -2.4000   -1.5646    0.5004 H   0  0  0  0  0  0  0  0  0  0  0  0
   -0.7534    1.5393    1.3404 H   0  0  0  0  0  0  0  0  0  0  0  0
   -1.0783    2.1414   -0.3748 H   0  0  0  0  0  0  0  0  0  0  0  0
    2.7299    1.9219   -0.3912 H   0  0  0  0  0  0  0  0  0  0  0  0
    2.8495   -0.7996    0.5956 H   0  0  0  0  0  0  0  0  0  0  0  0
    3.3588   -0.4441   -1.1500 H   0  0  0  0  0  0  0  0  0  0  0  0
    1.1479   -0.6566   -1.9011 H   0  0  0  0  0  0  0  0  0  0  0  0
    1.3201   -2.1176   -0.8179 H   0  0  0  0  0  0  0  0  0  0  0  0
    0.5077   -0.8019    1.1271 H   0  0  0  0  0  0  0  0  0  0  0  0
  1  2  1  0
  2  3  1  0
  2  4  1  0
  4  5  1  0
  5  6  2  0
  6  7  1  0
  7  8  1  0
  8  9  1  0
  9  2  1  0
  9  5  1  0
  1 10  1  0
  1 11  1  0
  1 12  1  0
  3 13  1  0
  3 14  1  0
  3 15  1  0
  4 16  1  0
  4 17  1  0
  6 18  1  0
  7 19  1  0
  7 20  1  0
  8 21  1  0
  8 22  1  0
  9 23  1  0
M  END
