
     RDKit          3D

 23 25  0  0  0  0  0  0  0  0999 V2000
    1.8372    1.0523   -0.6741 C   0  0  0  0  0  0  0  0  0  0  0  0
    1.0545   -0.0360   -0.0038 C   0  0  0  0  0  0  0  0  0  0  0  0
    1.9364   -0.9992    0.6997 C   0  0  0  0  0  0  0  0  0  0  0  0
   -0.1214   -0.5789   -0.7478 C   0  0  0  0  0  0  0  0  0  0  0  0
   -0.7226    0.7946   -0.5776 C   0  0  0  0  0  0  0  0  0  0  0  0
   -2.2014    0.6314   -0.4129 C   0  0  0  0  0  0  0  0  0  0  0  0
   -2.2227   -0.6914    0.3732 C   0  0  0  0  0  0  0  0  0  0  0  0
   -0.7413   -0.8661    0.5836 C   0  0  0  0  0  0  0  0  0  0  0  0
   -0.1345    0.4889    0.7628 C   0  0  0  0  0  0  0  0  0  0  0  0
    1.4861    2.0826   -0.3733 H   0  0  0  0  0  0  0  0  0  0  0  0
    2.9123    1.0345   -0.3258 H   0  0  0  0  0  0  0  0  0  0  0  0
    1.8971    0.9462   -1.7764 H   0  0  0  0  0  0  0  0  0  0  0  0
    2.2168   -0.5544    1.6860 H   0  0  0  0  0  0  0  0  0  0  0  0
    2.9106   -1.0402    0.1297 H   0  0  0  0  0  0  0  0  0  0  0  0
    1.5796   -2.0238    0.7624 H   0  0  0  0  0  0  0  0  0  0  0  0
   -0.1349   -1.1418   -1.5738 H   0  0  0  0  0  0  0  0  0  0  0  0
   -0.3352    1.6029   -1.1590 H   0  0  0  0  0  0  0  0  0  0  0  0
   -2.7665    0.5655   -1.3389 H   0  0  0  0  0  0  0  0  0  0  0  0
   -2.5761    1.4491    0.2370 H   0  0  0  0  0  0  0  0  0  0  0  0
   -2.8016   -0.6042    1.2948 H   0  0  0  0  0  0  0  0  0  0  0  0
   -2.5623   -1.4832   -0.3144 H   0  0  0  0  0  0  0  0  0  0  0  0
   -0.3913   -1.6898    1.1678 H   0  0  0  0  0  0  0  0  0  0  0  0
   -0.1187    1.0610    1.5808 H   0  0  0  0  0  0  0  0  0  0  0  0
  1  2  1  0
  2  3  1  0
  2  4  1  0
  4  5  1  0
  5  6  1  0
  6  7  1  0
  7  8  1  0
  8  9  1  0
  9  2  1  0
  8  4  1  0
  9  5  1  0
  1 10  1  0
  1 11  1  0
  1 12  1  0
  3 13  1  0
  3 14  1  0
  3 15  1  0
  4 16  1  0
  5 17  1  0
  6 18  1  0
  6 19  1  0
  7 20  1  0
  7 21  1  0
  8 22  1  0
  9 23  1  0
M  END
