
     RDKit          3D

 19 19  0  0  0  0  0  0  0  0999 V2000
   -1.5534   -0.6327   -0.2849 C   0  0  0  0  0  0  0  0  0  0  0  0
   -0.5724    0.3330    0.2761 C   0  0  0  0  0  0  0  0  0  0  0  0
   -0.6079    1.7051   -0.2189 C   0  0  0  0  0  0  0  0  0  0  0  0
    0.3511    2.4518   -0.1566 O   0  0  0  0  0  0  0  0  0  0  0  0
   -0.3652    0.1512    1.7602 C   0  0  0  0  0  0  0  0  0  0  0  0
    0.4807   -0.9348    1.4201 O   0  0  0  0  0  0  0  0  0  0  0  0
    0.8609   -0.1802    0.3178 C   0  0  0  0  0  0  0  0  0  0  0  0
    1.2896   -0.9470   -0.8932 C   0  0  0  0  0  0  0  0  0  0  0  0
    1.6288   -0.0208   -1.8817 O   0  0  0  0  0  0  0  0  0  0  0  0
   -1.5784   -0.6757   -1.3789 H   0  0  0  0  0  0  0  0  0  0  0  0
   -1.2818   -1.6528    0.0982 H   0  0  0  0  0  0  0  0  0  0  0  0
   -2.5825   -0.4447    0.0629 H   0  0  0  0  0  0  0  0  0  0  0  0
   -1.5143    2.0942   -0.6630 H   0  0  0  0  0  0  0  0  0  0  0  0
   -1.2513   -0.1427    2.3385 H   0  0  0  0  0  0  0  0  0  0  0  0
    0.2696    0.9491    2.1858 H   0  0  0  0  0  0  0  0  0  0  0  0
    1.5598    0.6126    0.6268 H   0  0  0  0  0  0  0  0  0  0  0  0
    0.3786   -1.4750   -1.2985 H   0  0  0  0  0  0  0  0  0  0  0  0
    2.0596   -1.6945   -0.7102 H   0  0  0  0  0  0  0  0  0  0  0  0
    2.4285    0.5040   -1.6004 H   0  0  0  0  0  0  0  0  0  0  0  0
  1  2  1  0
  2  3  1  0
  3  4  2  0
  2  5  1  0
  5  6  1  0
  6  7  1  0
  7  8  1  0
  8  9  1  0
  7  2  1  0
  1 10  1  0
  1 11  1  0
  1 12  1  0
  3 13  1  0
  5 14  1  0
  5 15  1  0
  7 16  1  0
  8 17  1  0
  8 18  1  0
  9 19  1  0
M  END
