
     RDKit          3D

 21 22  0  0  0  0  0  0  0  0999 V2000
   -1.6920    0.9935    0.1694 C   0  0  0  0  0  0  0  0  0  0  0  0
   -1.0932   -0.4193    0.1313 C   0  0  0  0  0  0  0  0  0  0  0  0
   -2.1005   -1.3672    0.0807 O   0  0  0  0  0  0  0  0  0  0  0  0
   -0.2825   -0.5208    1.4273 C   0  0  0  0  0  0  0  0  0  0  0  0
    0.5491    0.6247    1.3995 O   0  0  0  0  0  0  0  0  0  0  0  0
    1.6217    0.2884    0.5913 C   0  0  0  0  0  0  0  0  0  0  0  0
    1.9100    0.9474   -0.6808 C   0  0  0  0  0  0  0  0  0  0  0  0
    1.2968   -0.4172   -0.6438 C   0  0  0  0  0  0  0  0  0  0  0  0
   -0.1303   -0.5535   -1.0006 C   0  0  0  0  0  0  0  0  0  0  0  0
   -2.1392    1.1894    1.1736 H   0  0  0  0  0  0  0  0  0  0  0  0
   -2.4042    1.1368   -0.6439 H   0  0  0  0  0  0  0  0  0  0  0  0
   -0.8637    1.7148    0.0614 H   0  0  0  0  0  0  0  0  0  0  0  0
   -2.0932   -1.8935   -0.7718 H   0  0  0  0  0  0  0  0  0  0  0  0
    0.3002   -1.4486    1.3608 H   0  0  0  0  0  0  0  0  0  0  0  0
   -0.9970   -0.4782    2.2582 H   0  0  0  0  0  0  0  0  0  0  0  0
    2.5222   -0.0259    1.1894 H   0  0  0  0  0  0  0  0  0  0  0  0
    2.9767    1.0381   -1.0123 H   0  0  0  0  0  0  0  0  0  0  0  0
    1.3202    1.8393   -0.9330 H   0  0  0  0  0  0  0  0  0  0  0  0
    1.9986   -1.2532   -0.9301 H   0  0  0  0  0  0  0  0  0  0  0  0
   -0.2926   -1.5759   -1.4489 H   0  0  0  0  0  0  0  0  0  0  0  0
   -0.4071    0.1809   -1.7776 H   0  0  0  0  0  0  0  0  0  0  0  0
  1  2  1  0
  2  3  1  0
  2  4  1  0
  4  5  1  0
  5  6  1  0
  6  7  1  0
  7  8  1  0
  8  9  1  0
  9  2  1  0
  8  6  1  0
  1 10  1  0
  1 11  1  0
  1 12  1  0
  3 13  1  0
  4 14  1  0
  4 15  1  0
  6 16  1  0
  7 17  1  0
  7 18  1  0
  8 19  1  0
  9 20  1  0
  9 21  1  0
M  END
