
     RDKit          3D

 21 22  0  0  0  0  0  0  0  0999 V2000
   -0.9880   -0.8122   -1.5419 C   0  0  0  0  0  0  0  0  0  0  0  0
   -0.7603   -0.0065   -0.2976 C   0  0  0  0  0  0  0  0  0  0  0  0
   -2.0201    0.2389    0.5432 C   0  0  0  0  0  0  0  0  0  0  0  0
    0.2315    1.0843   -0.2333 C   0  0  0  0  0  0  0  0  0  0  0  0
    1.1325    1.2729   -1.2663 O   0  0  0  0  0  0  0  0  0  0  0  0
    2.1912    0.4353   -0.8653 C   0  0  0  0  0  0  0  0  0  0  0  0
    1.5549   -0.7309   -0.3955 O   0  0  0  0  0  0  0  0  0  0  0  0
    0.5420   -0.2187    0.3809 C   0  0  0  0  0  0  0  0  0  0  0  0
    0.6168   -0.4402    1.8471 C   0  0  0  0  0  0  0  0  0  0  0  0
   -0.1283   -1.5112   -1.7618 H   0  0  0  0  0  0  0  0  0  0  0  0
   -1.0914   -0.1957   -2.4566 H   0  0  0  0  0  0  0  0  0  0  0  0
   -1.8584   -1.4846   -1.3778 H   0  0  0  0  0  0  0  0  0  0  0  0
   -1.7824    0.8095    1.4547 H   0  0  0  0  0  0  0  0  0  0  0  0
   -2.4843   -0.7326    0.7202 H   0  0  0  0  0  0  0  0  0  0  0  0
   -2.7427    0.8257   -0.0852 H   0  0  0  0  0  0  0  0  0  0  0  0
    0.0466    1.9833    0.3699 H   0  0  0  0  0  0  0  0  0  0  0  0
    2.7692    0.8596   -0.0326 H   0  0  0  0  0  0  0  0  0  0  0  0
    2.7981    0.2478   -1.7622 H   0  0  0  0  0  0  0  0  0  0  0  0
    1.4303    0.1375    2.3483 H   0  0  0  0  0  0  0  0  0  0  0  0
    0.8452   -1.5294    2.0163 H   0  0  0  0  0  0  0  0  0  0  0  0
   -0.3023   -0.2328    2.3956 H   0  0  0  0  0  0  0  0  0  0  0  0
  1  2  1  0
  2  3  1  0
  2  4  1  0
  4  5  1  0
  5  6  1  0
  6  7  1  0
  7  8  1  0
  8  9  1  0
  8  2  1  0
  8  4  1  0
  1 10  1  0
  1 11  1  0
  1 12  1  0
  3 13  1  0
  3 14  1  0
  3 15  1  0
  4 16  1  0
  6 17  1  0
  6 18  1  0
  9 19  1  0
  9 20  1  0
  9 21  1  0
M  END
