
     RDKit          3D

 17 18  0  0  0  0  0  0  0  0999 V2000
    1.9719   -0.1966   -0.6516 C   0  0  0  0  0  0  0  0  0  0  0  0
    0.7230    0.4816   -0.1206 C   0  0  0  0  0  0  0  0  0  0  0  0
    0.9379    1.8174    0.2291 O   0  0  0  0  0  0  0  0  0  0  0  0
   -0.5423    0.0694   -0.7620 C   0  0  0  0  0  0  0  0  0  0  0  0
   -1.8701    0.5271   -0.2052 C   0  0  0  0  0  0  0  0  0  0  0  0
   -1.4812    0.0883    1.1531 C   0  0  0  0  0  0  0  0  0  0  0  0
   -2.0537    0.1258    2.2267 O   0  0  0  0  0  0  0  0  0  0  0  0
   -0.1837   -0.3800    0.6560 C   0  0  0  0  0  0  0  0  0  0  0  0
    0.1137   -1.7264    0.8525 O   0  0  0  0  0  0  0  0  0  0  0  0
    2.6328   -0.4249    0.2020 H   0  0  0  0  0  0  0  0  0  0  0  0
    1.6778   -1.1979   -1.0773 H   0  0  0  0  0  0  0  0  0  0  0  0
    2.4768    0.3992   -1.4224 H   0  0  0  0  0  0  0  0  0  0  0  0
    1.2980    1.8590    1.1368 H   0  0  0  0  0  0  0  0  0  0  0  0
   -0.5328   -0.6725   -1.5717 H   0  0  0  0  0  0  0  0  0  0  0  0
   -2.0696    1.6004   -0.2317 H   0  0  0  0  0  0  0  0  0  0  0  0
   -2.7023   -0.0521   -0.6585 H   0  0  0  0  0  0  0  0  0  0  0  0
   -0.3964   -2.3177    0.2449 H   0  0  0  0  0  0  0  0  0  0  0  0
  1  2  1  0
  2  3  1  0
  2  4  1  0
  4  5  1  0
  5  6  1  0
  6  7  2  0
  6  8  1  0
  8  9  1  0
  8  2  1  0
  8  4  1  0
  1 10  1  0
  1 11  1  0
  1 12  1  0
  3 13  1  0
  4 14  1  0
  5 15  1  0
  5 16  1  0
  9 17  1  0
M  END
