
     RDKit          3D

 19 19  0  0  0  0  0  0  0  0999 V2000
    1.7225    0.9452   -0.7685 C   0  0  0  0  0  0  0  0  0  0  0  0
    0.7599   -0.0382   -0.1270 C   0  0  0  0  0  0  0  0  0  0  0  0
    1.4345   -0.8608    0.8994 C   0  0  0  0  0  0  0  0  0  0  0  0
    1.9660   -0.2821    1.8351 O   0  0  0  0  0  0  0  0  0  0  0  0
   -0.4018    0.7414    0.4534 C   0  0  0  0  0  0  0  0  0  0  0  0
   -1.5798    0.0658   -0.2184 C   0  0  0  0  0  0  0  0  0  0  0  0
   -2.7010    0.0109    0.5678 O   0  0  0  0  0  0  0  0  0  0  0  0
   -0.9657   -1.3090   -0.4703 C   0  0  0  0  0  0  0  0  0  0  0  0
    0.2314   -0.8925   -1.0861 O   0  0  0  0  0  0  0  0  0  0  0  0
    1.0884    1.6162   -1.4046 H   0  0  0  0  0  0  0  0  0  0  0  0
    2.3800    0.3740   -1.4445 H   0  0  0  0  0  0  0  0  0  0  0  0
    2.2703    1.4709    0.0081 H   0  0  0  0  0  0  0  0  0  0  0  0
    1.4372   -1.9368    0.7927 H   0  0  0  0  0  0  0  0  0  0  0  0
   -0.3642    1.8036    0.2079 H   0  0  0  0  0  0  0  0  0  0  0  0
   -0.5021    0.5654    1.5635 H   0  0  0  0  0  0  0  0  0  0  0  0
   -1.7180    0.5270   -1.2035 H   0  0  0  0  0  0  0  0  0  0  0  0
   -2.8099    0.8902    1.0129 H   0  0  0  0  0  0  0  0  0  0  0  0
   -1.5731   -1.9394   -1.1116 H   0  0  0  0  0  0  0  0  0  0  0  0
   -0.6747   -1.7518    0.4934 H   0  0  0  0  0  0  0  0  0  0  0  0
  1  2  1  0
  2  3  1  0
  3  4  2  0
  2  5  1  0
  5  6  1  0
  6  7  1  0
  6  8  1  0
  8  9  1  0
  9  2  1  0
  1 10  1  0
  1 11  1  0
  1 12  1  0
  3 13  1  0
  5 14  1  0
  5 15  1  0
  6 16  1  0
  7 17  1  0
  8 18  1  0
  8 19  1  0
M  END
