
     RDKit          3D

 20 21  0  0  0  0  0  0  0  0999 V2000
   -1.4399    0.5627    1.1147 C   0  0  0  0  0  0  0  0  0  0  0  0
   -0.5638   -0.0488    0.0466 C   0  0  0  0  0  0  0  0  0  0  0  0
   -1.3963   -1.1225   -0.6528 C   0  0  0  0  0  0  0  0  0  0  0  0
   -0.2534    0.9778   -0.9571 C   0  0  0  0  0  0  0  0  0  0  0  0
    1.0152    0.9301   -1.2617 C   0  0  0  0  0  0  0  0  0  0  0  0
    1.7002   -0.1214   -0.5083 C   0  0  0  0  0  0  0  0  0  0  0  0
    1.8638    0.1132    0.9869 C   0  0  0  0  0  0  0  0  0  0  0  0
    0.6946   -0.6334    0.5433 C   0  0  0  0  0  0  0  0  0  0  0  0
   -1.8032   -0.2239    1.7868 H   0  0  0  0  0  0  0  0  0  0  0  0
   -0.9268    1.3548    1.6849 H   0  0  0  0  0  0  0  0  0  0  0  0
   -2.2950    1.0522    0.6010 H   0  0  0  0  0  0  0  0  0  0  0  0
   -1.8263   -1.8184    0.1046 H   0  0  0  0  0  0  0  0  0  0  0  0
   -2.2073   -0.6328   -1.2233 H   0  0  0  0  0  0  0  0  0  0  0  0
   -0.6877   -1.6889   -1.2974 H   0  0  0  0  0  0  0  0  0  0  0  0
   -0.9824    1.6609   -1.3689 H   0  0  0  0  0  0  0  0  0  0  0  0
    1.5480    1.5721   -1.9814 H   0  0  0  0  0  0  0  0  0  0  0  0
    2.3024   -0.9004   -1.0022 H   0  0  0  0  0  0  0  0  0  0  0  0
    2.6996   -0.4646    1.4150 H   0  0  0  0  0  0  0  0  0  0  0  0
    1.8719    1.1708    1.2582 H   0  0  0  0  0  0  0  0  0  0  0  0
    0.6866   -1.7395    0.7112 H   0  0  0  0  0  0  0  0  0  0  0  0
  1  2  1  0
  2  3  1  0
  2  4  1  0
  4  5  2  0
  5  6  1  0
  6  7  1  0
  7  8  1  0
  8  2  1  0
  8  6  1  0
  1  9  1  0
  1 10  1  0
  1 11  1  0
  3 12  1  0
  3 13  1  0
  3 14  1  0
  4 15  1  0
  5 16  1  0
  6 17  1  0
  7 18  1  0
  7 19  1  0
  8 20  1  0
M  END
