
     RDKit          3D

 25 26  0  0  0  0  0  0  0  0999 V2000
   -2.2040   -0.0597    0.6386 C   0  0  0  0  0  0  0  0  0  0  0  0
   -0.9204    0.0388   -0.1777 C   0  0  0  0  0  0  0  0  0  0  0  0
   -1.2038    0.9171   -1.3544 C   0  0  0  0  0  0  0  0  0  0  0  0
   -0.5417   -1.3505   -0.6492 C   0  0  0  0  0  0  0  0  0  0  0  0
    0.9552   -1.4110   -0.5048 C   0  0  0  0  0  0  0  0  0  0  0  0
    1.2265   -0.6278    0.7337 C   0  0  0  0  0  0  0  0  0  0  0  0
    2.3425    0.3940    0.5651 C   0  0  0  0  0  0  0  0  0  0  0  0
    1.2461    1.3633    0.1059 C   0  0  0  0  0  0  0  0  0  0  0  0
    0.2004    0.4699    0.6792 C   0  0  0  0  0  0  0  0  0  0  0  0
   -2.5590   -1.1229    0.6879 H   0  0  0  0  0  0  0  0  0  0  0  0
   -3.0366    0.5040    0.1713 H   0  0  0  0  0  0  0  0  0  0  0  0
   -2.0638    0.3804    1.6473 H   0  0  0  0  0  0  0  0  0  0  0  0
   -1.6328    1.8725   -0.9603 H   0  0  0  0  0  0  0  0  0  0  0  0
   -0.3858    1.0484   -2.0522 H   0  0  0  0  0  0  0  0  0  0  0  0
   -2.0603    0.4382   -1.9131 H   0  0  0  0  0  0  0  0  0  0  0  0
   -0.9974   -2.0868    0.0599 H   0  0  0  0  0  0  0  0  0  0  0  0
   -0.8890   -1.5550   -1.6854 H   0  0  0  0  0  0  0  0  0  0  0  0
    1.3462   -2.4329   -0.3638 H   0  0  0  0  0  0  0  0  0  0  0  0
    1.4469   -0.9267   -1.3850 H   0  0  0  0  0  0  0  0  0  0  0  0
    1.3502   -1.1583    1.6715 H   0  0  0  0  0  0  0  0  0  0  0  0
    3.0463    0.0947   -0.2221 H   0  0  0  0  0  0  0  0  0  0  0  0
    2.8674    0.6838    1.4721 H   0  0  0  0  0  0  0  0  0  0  0  0
    1.2897    2.3194    0.6849 H   0  0  0  0  0  0  0  0  0  0  0  0
    1.2965    1.4641   -0.9748 H   0  0  0  0  0  0  0  0  0  0  0  0
   -0.1195    0.7431    1.7092 H   0  0  0  0  0  0  0  0  0  0  0  0
  1  2  1  0
  2  3  1  0
  2  4  1  0
  4  5  1  0
  5  6  1  0
  6  7  1  0
  7  8  1  0
  8  9  1  0
  9  2  1  0
  9  6  1  0
  1 10  1  0
  1 11  1  0
  1 12  1  0
  3 13  1  0
  3 14  1  0
  3 15  1  0
  4 16  1  0
  4 17  1  0
  5 18  1  0
  5 19  1  0
  6 20  1  0
  7 21  1  0
  7 22  1  0
  8 23  1  0
  8 24  1  0
  9 25  1  0
M  END
