
     RDKit          3D

 19 19  0  0  0  0  0  0  0  0999 V2000
    2.0890    0.6859    0.1146 C   0  0  0  0  0  0  0  0  0  0  0  0
    0.9249   -0.2285   -0.1409 C   0  0  0  0  0  0  0  0  0  0  0  0
    1.2272   -1.3045   -0.9425 O   0  0  0  0  0  0  0  0  0  0  0  0
   -0.2385    0.5639   -0.7043 C   0  0  0  0  0  0  0  0  0  0  0  0
   -1.1093    0.1643    0.4641 C   0  0  0  0  0  0  0  0  0  0  0  0
   -1.5831    1.2078    1.2101 O   0  0  0  0  0  0  0  0  0  0  0  0
   -2.1266   -0.8714    0.1472 C   0  0  0  0  0  0  0  0  0  0  0  0
   -3.2549   -0.7120    0.5621 O   0  0  0  0  0  0  0  0  0  0  0  0
    0.1062   -0.4920    1.0795 C   0  0  0  0  0  0  0  0  0  0  0  0
    2.9457    0.1675    0.5904 H   0  0  0  0  0  0  0  0  0  0  0  0
    2.4460    1.2091   -0.8000 H   0  0  0  0  0  0  0  0  0  0  0  0
    1.7208    1.4882    0.8020 H   0  0  0  0  0  0  0  0  0  0  0  0
    1.3985   -2.1414   -0.4817 H   0  0  0  0  0  0  0  0  0  0  0  0
   -0.6029    0.1932   -1.6949 H   0  0  0  0  0  0  0  0  0  0  0  0
   -0.1061    1.6530   -0.7217 H   0  0  0  0  0  0  0  0  0  0  0  0
   -2.3703    1.6407    0.8460 H   0  0  0  0  0  0  0  0  0  0  0  0
   -1.9118   -1.7519   -0.4299 H   0  0  0  0  0  0  0  0  0  0  0  0
    0.4753    0.0761    1.9594 H   0  0  0  0  0  0  0  0  0  0  0  0
   -0.0301   -1.5481    1.3722 H   0  0  0  0  0  0  0  0  0  0  0  0
  1  2  1  0
  2  3  1  0
  2  4  1  0
  4  5  1  0
  5  6  1  0
  5  7  1  0
  7  8  2  0
  5  9  1  0
  9  2  1  0
  1 10  1  0
  1 11  1  0
  1 12  1  0
  3 13  1  0
  4 14  1  0
  4 15  1  0
  6 16  1  0
  7 17  1  0
  9 18  1  0
  9 19  1  0
M  END
