
     RDKit          3D

 17 19  0  0  0  0  0  0  0  0999 V2000
    1.0697   -0.7020    0.9801 C   0  0  0  0  0  0  0  0  0  0  0  0
    0.7955    0.1356   -0.2216 C   0  0  0  0  0  0  0  0  0  0  0  0
    1.9214    0.6442   -0.8326 O   0  0  0  0  0  0  0  0  0  0  0  0
   -0.2057   -0.3944   -1.2049 C   0  0  0  0  0  0  0  0  0  0  0  0
   -0.4976    0.9541   -1.4967 O   0  0  0  0  0  0  0  0  0  0  0  0
   -0.2758    1.1683   -0.1132 C   0  0  0  0  0  0  0  0  0  0  0  0
   -1.4936    0.4838    0.4741 C   0  0  0  0  0  0  0  0  0  0  0  0
   -2.5176    0.1015   -0.3727 O   0  0  0  0  0  0  0  0  0  0  0  0
   -1.4263   -0.7823   -0.4056 C   0  0  0  0  0  0  0  0  0  0  0  0
    2.1795   -0.9068    1.0046 H   0  0  0  0  0  0  0  0  0  0  0  0
    0.7920   -0.2611    1.9369 H   0  0  0  0  0  0  0  0  0  0  0  0
    0.6132   -1.7251    0.8750 H   0  0  0  0  0  0  0  0  0  0  0  0
    2.0602    1.5625   -0.4392 H   0  0  0  0  0  0  0  0  0  0  0  0
    0.1134   -1.0188   -2.0090 H   0  0  0  0  0  0  0  0  0  0  0  0
   -0.0457    2.1636    0.1941 H   0  0  0  0  0  0  0  0  0  0  0  0
   -1.5767    0.3292    1.5534 H   0  0  0  0  0  0  0  0  0  0  0  0
   -1.5059   -1.7524    0.0770 H   0  0  0  0  0  0  0  0  0  0  0  0
  1  2  1  0
  2  3  1  0
  2  4  1  0
  4  5  1  0
  5  6  1  0
  6  7  1  0
  7  8  1  0
  8  9  1  0
  6  2  1  0
  9  7  1  0
  9  4  1  0
  1 10  1  0
  1 11  1  0
  1 12  1  0
  3 13  1  0
  4 14  1  0
  6 15  1  0
  7 16  1  0
  9 17  1  0
M  END
