
     RDKit          3D

 15 16  0  0  0  0  0  0  0  0999 V2000
   -1.1517   -0.9437   -0.2502 C   0  0  0  0  0  0  0  0  0  0  0  0
   -0.2377    0.1851    0.1052 C   0  0  0  0  0  0  0  0  0  0  0  0
   -0.8781    1.4154    0.6058 C   0  0  0  0  0  0  0  0  0  0  0  0
   -1.9116    1.8662    0.1594 O   0  0  0  0  0  0  0  0  0  0  0  0
    0.8993    0.4511   -0.8446 C   0  0  0  0  0  0  0  0  0  0  0  0
    1.5350    1.0211    0.2543 O   0  0  0  0  0  0  0  0  0  0  0  0
    1.0319   -0.1491    0.8009 C   0  0  0  0  0  0  0  0  0  0  0  0
    1.4748   -0.7949   -0.4361 C   0  0  0  0  0  0  0  0  0  0  0  0
    2.0078   -1.8094   -0.7481 O   0  0  0  0  0  0  0  0  0  0  0  0
   -0.8009   -1.5347   -1.1065 H   0  0  0  0  0  0  0  0  0  0  0  0
   -1.4022   -1.5670    0.6392 H   0  0  0  0  0  0  0  0  0  0  0  0
   -2.1338   -0.4937   -0.5660 H   0  0  0  0  0  0  0  0  0  0  0  0
   -0.4068    1.9529    1.4166 H   0  0  0  0  0  0  0  0  0  0  0  0
    0.8147    0.8740   -1.7568 H   0  0  0  0  0  0  0  0  0  0  0  0
    1.1593   -0.4734    1.7451 H   0  0  0  0  0  0  0  0  0  0  0  0
  1  2  1  0
  2  3  1  0
  3  4  2  0
  2  5  1  0
  5  6  1  0
  6  7  1  0
  7  8  1  0
  8  9  2  0
  7  2  1  0
  8  5  1  0
  1 10  1  0
  1 11  1  0
  1 12  1  0
  3 13  1  0
  5 14  1  0
  7 15  1  0
M  END
