
     RDKit          3D

 23 23  0  0  0  0  0  0  0  0999 V2000
   -1.5581    1.2713    0.9258 C   0  0  0  0  0  0  0  0  0  0  0  0
   -0.9446    0.2347    0.0154 C   0  0  0  0  0  0  0  0  0  0  0  0
   -1.9639   -0.3723   -0.8920 C   0  0  0  0  0  0  0  0  0  0  0  0
    0.3242    0.6768   -0.6756 C   0  0  0  0  0  0  0  0  0  0  0  0
    1.0703    0.1249    0.5230 C   0  0  0  0  0  0  0  0  0  0  0  0
    2.3532   -0.5268    0.0833 C   0  0  0  0  0  0  0  0  0  0  0  0
    3.1162    0.4538   -0.5509 O   0  0  0  0  0  0  0  0  0  0  0  0
   -0.0931   -0.8063    0.7488 C   0  0  0  0  0  0  0  0  0  0  0  0
   -0.0568   -2.0002    0.0777 O   0  0  0  0  0  0  0  0  0  0  0  0
   -2.3341    1.7998    0.3254 H   0  0  0  0  0  0  0  0  0  0  0  0
   -0.8180    2.0110    1.2945 H   0  0  0  0  0  0  0  0  0  0  0  0
   -2.0410    0.7928    1.7873 H   0  0  0  0  0  0  0  0  0  0  0  0
   -1.6964   -1.4111   -1.1613 H   0  0  0  0  0  0  0  0  0  0  0  0
   -2.1386    0.2176   -1.8178 H   0  0  0  0  0  0  0  0  0  0  0  0
   -2.9413   -0.4080   -0.3426 H   0  0  0  0  0  0  0  0  0  0  0  0
    0.5188    0.0648   -1.5883 H   0  0  0  0  0  0  0  0  0  0  0  0
    0.4540    1.7606   -0.8030 H   0  0  0  0  0  0  0  0  0  0  0  0
    1.1688    0.8397    1.3441 H   0  0  0  0  0  0  0  0  0  0  0  0
    2.1555   -1.3351   -0.6481 H   0  0  0  0  0  0  0  0  0  0  0  0
    2.9370   -0.9320    0.9312 H   0  0  0  0  0  0  0  0  0  0  0  0
    2.4843    1.0857   -0.9912 H   0  0  0  0  0  0  0  0  0  0  0  0
   -0.4483   -0.8865    1.7823 H   0  0  0  0  0  0  0  0  0  0  0  0
    0.4520   -2.6552    0.6246 H   0  0  0  0  0  0  0  0  0  0  0  0
  1  2  1  0
  2  3  1  0
  2  4  1  0
  4  5  1  0
  5  6  1  0
  6  7  1  0
  5  8  1  0
  8  9  1  0
  8  2  1  0
  1 10  1  0
  1 11  1  0
  1 12  1  0
  3 13  1  0
  3 14  1  0
  3 15  1  0
  4 16  1  0
  4 17  1  0
  5 18  1  0
  6 19  1  0
  6 20  1  0
  7 21  1  0
  8 22  1  0
  9 23  1  0
M  END
