
     RDKit          3D

 19 20  0  0  0  0  0  0  0  0999 V2000
   -0.0071    1.3843    0.8064 C   0  0  0  0  0  0  0  0  0  0  0  0
    0.2221    0.0595    0.2125 C   0  0  0  0  0  0  0  0  0  0  0  0
    1.4484   -0.6359    0.7723 C   0  0  0  0  0  0  0  0  0  0  0  0
    2.5783    0.1536    0.5162 O   0  0  0  0  0  0  0  0  0  0  0  0
    0.2954   -0.0266   -1.3003 C   0  0  0  0  0  0  0  0  0  0  0  0
    1.0961   -0.2046   -2.1669 O   0  0  0  0  0  0  0  0  0  0  0  0
   -1.1569    0.2264   -1.1597 C   0  0  0  0  0  0  0  0  0  0  0  0
   -2.1965   -0.6070   -0.6514 C   0  0  0  0  0  0  0  0  0  0  0  0
   -0.9423   -0.8574   -0.0216 C   0  0  0  0  0  0  0  0  0  0  0  0
   -1.0426    1.5437    1.2275 H   0  0  0  0  0  0  0  0  0  0  0  0
    0.2984    2.2363    0.1484 H   0  0  0  0  0  0  0  0  0  0  0  0
    0.6537    1.5019    1.7168 H   0  0  0  0  0  0  0  0  0  0  0  0
    1.3272   -0.6201    1.8926 H   0  0  0  0  0  0  0  0  0  0  0  0
    1.5747   -1.6460    0.3732 H   0  0  0  0  0  0  0  0  0  0  0  0
    3.2960   -0.4552    0.2107 H   0  0  0  0  0  0  0  0  0  0  0  0
   -1.2473    1.2922   -0.7808 H   0  0  0  0  0  0  0  0  0  0  0  0
   -3.0158   -0.2189    0.0269 H   0  0  0  0  0  0  0  0  0  0  0  0
   -2.6842   -1.2935   -1.4103 H   0  0  0  0  0  0  0  0  0  0  0  0
   -0.4976   -1.8329   -0.4125 H   0  0  0  0  0  0  0  0  0  0  0  0
  1  2  1  0
  2  3  1  0
  3  4  1  0
  2  5  1  0
  5  6  2  0
  5  7  1  0
  7  8  1  0
  8  9  1  0
  9  2  1  0
  9  7  1  0
  1 10  1  0
  1 11  1  0
  1 12  1  0
  3 13  1  0
  3 14  1  0
  4 15  1  0
  7 16  1  0
  8 17  1  0
  8 18  1  0
  9 19  1  0
M  END
