
     RDKit          3D

 21 22  0  0  0  0  0  0  0  0999 V2000
    2.1395   -0.7853   -0.9397 C   0  0  0  0  0  0  0  0  0  0  0  0
    1.2020    0.0402   -0.1354 C   0  0  0  0  0  0  0  0  0  0  0  0
    1.6643    1.2952    0.1921 O   0  0  0  0  0  0  0  0  0  0  0  0
    0.7133   -0.6484    1.1249 C   0  0  0  0  0  0  0  0  0  0  0  0
   -0.3440    0.2122    1.4811 O   0  0  0  0  0  0  0  0  0  0  0  0
   -1.0716    0.2817    0.3206 C   0  0  0  0  0  0  0  0  0  0  0  0
   -2.2402    1.1858    0.1813 C   0  0  0  0  0  0  0  0  0  0  0  0
   -2.4281   -0.2657    0.3437 C   0  0  0  0  0  0  0  0  0  0  0  0
   -0.1509    0.2103   -0.8443 C   0  0  0  0  0  0  0  0  0  0  0  0
    2.4033   -1.7062   -0.4122 H   0  0  0  0  0  0  0  0  0  0  0  0
    1.7148   -1.0002   -1.9403 H   0  0  0  0  0  0  0  0  0  0  0  0
    3.0806   -0.2200   -1.1245 H   0  0  0  0  0  0  0  0  0  0  0  0
    2.3801    1.1723    0.8787 H   0  0  0  0  0  0  0  0  0  0  0  0
    1.4427   -0.6644    1.9285 H   0  0  0  0  0  0  0  0  0  0  0  0
    0.2729   -1.6254    0.8696 H   0  0  0  0  0  0  0  0  0  0  0  0
   -2.3792    1.9163    0.9852 H   0  0  0  0  0  0  0  0  0  0  0  0
   -2.4694    1.5930   -0.8356 H   0  0  0  0  0  0  0  0  0  0  0  0
   -2.7594   -0.8796   -0.4945 H   0  0  0  0  0  0  0  0  0  0  0  0
   -2.8382   -0.5908    1.3228 H   0  0  0  0  0  0  0  0  0  0  0  0
   -0.2684   -0.6723   -1.4836 H   0  0  0  0  0  0  0  0  0  0  0  0
   -0.0641    1.1513   -1.4184 H   0  0  0  0  0  0  0  0  0  0  0  0
  1  2  1  0
  2  3  1  0
  2  4  1  0
  4  5  1  0
  5  6  1  0
  6  7  1  0
  7  8  1  0
  6  9  1  0
  9  2  1  0
  8  6  1  0
  1 10  1  0
  1 11  1  0
  1 12  1  0
  3 13  1  0
  4 14  1  0
  4 15  1  0
  7 16  1  0
  7 17  1  0
  8 18  1  0
  8 19  1  0
  9 20  1  0
  9 21  1  0
M  END
