
     RDKit          3D

 19 20  0  0  0  0  0  0  0  0999 V2000
   -2.0387    0.6053    0.2639 C   0  0  0  0  0  0  0  0  0  0  0  0
   -0.6011    0.4183   -0.0984 C   0  0  0  0  0  0  0  0  0  0  0  0
   -0.0488    1.5121   -0.7676 O   0  0  0  0  0  0  0  0  0  0  0  0
   -0.2300   -0.9055   -0.7067 C   0  0  0  0  0  0  0  0  0  0  0  0
   -0.0080   -0.8874   -2.0750 O   0  0  0  0  0  0  0  0  0  0  0  0
    0.9609   -1.0633    0.1666 C   0  0  0  0  0  0  0  0  0  0  0  0
    1.7304    0.0476    0.7394 C   0  0  0  0  0  0  0  0  0  0  0  0
    2.1340    1.1116   -0.0899 O   0  0  0  0  0  0  0  0  0  0  0  0
    0.2989    0.0113    1.0664 C   0  0  0  0  0  0  0  0  0  0  0  0
   -2.6460    0.6328   -0.6510 H   0  0  0  0  0  0  0  0  0  0  0  0
   -2.3543   -0.1826    0.9784 H   0  0  0  0  0  0  0  0  0  0  0  0
   -2.1337    1.6002    0.7454 H   0  0  0  0  0  0  0  0  0  0  0  0
   -0.3044    2.3285   -0.3077 H   0  0  0  0  0  0  0  0  0  0  0  0
   -1.0280   -1.6549   -0.4271 H   0  0  0  0  0  0  0  0  0  0  0  0
   -0.1339   -1.8263   -2.4129 H   0  0  0  0  0  0  0  0  0  0  0  0
    1.1173   -2.0613    0.6064 H   0  0  0  0  0  0  0  0  0  0  0  0
    2.4356   -0.1707    1.5363 H   0  0  0  0  0  0  0  0  0  0  0  0
    2.9787    0.8825   -0.5387 H   0  0  0  0  0  0  0  0  0  0  0  0
   -0.1293   -0.3981    1.9722 H   0  0  0  0  0  0  0  0  0  0  0  0
  1  2  1  0
  2  3  1  0
  2  4  1  0
  4  5  1  0
  4  6  1  0
  6  7  1  0
  7  8  1  0
  7  9  1  0
  9  2  1  0
  9  6  1  0
  1 10  1  0
  1 11  1  0
  1 12  1  0
  3 13  1  0
  4 14  1  0
  5 15  1  0
  6 16  1  0
  7 17  1  0
  8 18  1  0
  9 19  1  0
M  END
