
     RDKit          3D

 16 16  0  0  0  0  0  0  0  0999 V2000
   -0.8158   -1.2220   -0.3568 C   0  0  0  0  0  0  0  0  0  0  0  0
   -0.7774    0.1677    0.2352 C   0  0  0  0  0  0  0  0  0  0  0  0
    0.5365    0.7962    0.4931 C   0  0  0  0  0  0  0  0  0  0  0  0
    0.5445    1.9193    0.9720 O   0  0  0  0  0  0  0  0  0  0  0  0
    1.8430    0.1688    0.2154 C   0  0  0  0  0  0  0  0  0  0  0  0
    1.7697   -1.0870   -0.3194 O   0  0  0  0  0  0  0  0  0  0  0  0
   -1.9080    1.1109   -0.0520 C   0  0  0  0  0  0  0  0  0  0  0  0
   -1.7867    0.4083    1.1565 O   0  0  0  0  0  0  0  0  0  0  0  0
   -0.3145   -1.9097    0.3448 H   0  0  0  0  0  0  0  0  0  0  0  0
   -0.3264   -1.3032   -1.3300 H   0  0  0  0  0  0  0  0  0  0  0  0
   -1.8893   -1.4888   -0.5120 H   0  0  0  0  0  0  0  0  0  0  0  0
    2.3842    0.8165   -0.5352 H   0  0  0  0  0  0  0  0  0  0  0  0
    2.4357    0.2055    1.1642 H   0  0  0  0  0  0  0  0  0  0  0  0
    2.6338   -1.5456   -0.1782 H   0  0  0  0  0  0  0  0  0  0  0  0
   -2.6233    0.7663   -0.8111 H   0  0  0  0  0  0  0  0  0  0  0  0
   -1.7059    2.1966    0.0587 H   0  0  0  0  0  0  0  0  0  0  0  0
  1  2  1  0
  2  3  1  0
  3  4  2  0
  3  5  1  0
  5  6  1  0
  2  7  1  0
  7  8  1  0
  8  2  1  0
  1  9  1  0
  1 10  1  0
  1 11  1  0
  5 12  1  0
  5 13  1  0
  6 14  1  0
  7 15  1  0
  7 16  1  0
M  END
