
     RDKit          3D

 23 23  0  0  0  0  0  0  0  0999 V2000
    1.7127    0.4360   -1.2887 C   0  0  0  0  0  0  0  0  0  0  0  0
    0.8368    0.0775   -0.0899 C   0  0  0  0  0  0  0  0  0  0  0  0
    1.8063   -0.3564    1.0096 C   0  0  0  0  0  0  0  0  0  0  0  0
   -0.0061   -1.0778   -0.4662 C   0  0  0  0  0  0  0  0  0  0  0  0
   -1.2206   -1.2926    0.3619 C   0  0  0  0  0  0  0  0  0  0  0  0
   -1.4420   -0.3204    1.3227 O   0  0  0  0  0  0  0  0  0  0  0  0
   -2.0807    0.7870    0.7482 C   0  0  0  0  0  0  0  0  0  0  0  0
   -1.0525    1.4135   -0.1934 C   0  0  0  0  0  0  0  0  0  0  0  0
    0.1980    1.1961    0.3293 O   0  0  0  0  0  0  0  0  0  0  0  0
    2.5280    1.0839   -0.9412 H   0  0  0  0  0  0  0  0  0  0  0  0
    2.1364   -0.5313   -1.6436 H   0  0  0  0  0  0  0  0  0  0  0  0
    1.1162    0.8861   -2.1047 H   0  0  0  0  0  0  0  0  0  0  0  0
    1.2835   -0.3741    1.9949 H   0  0  0  0  0  0  0  0  0  0  0  0
    2.2806   -1.3184    0.7746 H   0  0  0  0  0  0  0  0  0  0  0  0
    2.5493    0.4767    1.0857 H   0  0  0  0  0  0  0  0  0  0  0  0
    0.6390   -2.0039   -0.4094 H   0  0  0  0  0  0  0  0  0  0  0  0
   -0.2853   -0.9595   -1.5525 H   0  0  0  0  0  0  0  0  0  0  0  0
   -2.1092   -1.4280   -0.3112 H   0  0  0  0  0  0  0  0  0  0  0  0
   -1.1589   -2.2699    0.9250 H   0  0  0  0  0  0  0  0  0  0  0  0
   -2.2921    1.4900    1.5942 H   0  0  0  0  0  0  0  0  0  0  0  0
   -3.0004    0.4924    0.2088 H   0  0  0  0  0  0  0  0  0  0  0  0
   -1.1949    1.0727   -1.2249 H   0  0  0  0  0  0  0  0  0  0  0  0
   -1.2442    2.5203   -0.1292 H   0  0  0  0  0  0  0  0  0  0  0  0
  1  2  1  0
  2  3  1  0
  2  4  1  0
  4  5  1  0
  5  6  1  0
  6  7  1  0
  7  8  1  0
  8  9  1  0
  9  2  1  0
  1 10  1  0
  1 11  1  0
  1 12  1  0
  3 13  1  0
  3 14  1  0
  3 15  1  0
  4 16  1  0
  4 17  1  0
  5 18  1  0
  5 19  1  0
  7 20  1  0
  7 21  1  0
  8 22  1  0
  8 23  1  0
M  END
