
     RDKit          3D

 20 20  0  0  0  0  0  0  0  0999 V2000
   -2.2239   -0.9405   -0.1366 C   0  0  0  0  0  0  0  0  0  0  0  0
   -1.0370   -0.1118    0.1608 C   0  0  0  0  0  0  0  0  0  0  0  0
   -0.0622   -0.9261    0.4173 O   0  0  0  0  0  0  0  0  0  0  0  0
    1.2066   -0.7386    0.6905 C   0  0  0  0  0  0  0  0  0  0  0  0
    2.1366   -0.1429   -0.3075 C   0  0  0  0  0  0  0  0  0  0  0  0
    3.4417   -0.0634    0.2547 O   0  0  0  0  0  0  0  0  0  0  0  0
   -1.7629    1.0810    0.6209 C   0  0  0  0  0  0  0  0  0  0  0  0
   -0.4415    1.1448    0.2535 C   0  0  0  0  0  0  0  0  0  0  0  0
   -2.9383   -0.4986   -0.8981 H   0  0  0  0  0  0  0  0  0  0  0  0
   -2.8736   -1.2098    0.7232 H   0  0  0  0  0  0  0  0  0  0  0  0
   -1.9954   -1.9234   -0.6025 H   0  0  0  0  0  0  0  0  0  0  0  0
    1.2791   -0.1822    1.6887 H   0  0  0  0  0  0  0  0  0  0  0  0
    1.6760   -1.7523    0.9729 H   0  0  0  0  0  0  0  0  0  0  0  0
    1.8588    0.8883   -0.5400 H   0  0  0  0  0  0  0  0  0  0  0  0
    2.2688   -0.7487   -1.2172 H   0  0  0  0  0  0  0  0  0  0  0  0
    4.0259    0.1609   -0.5158 H   0  0  0  0  0  0  0  0  0  0  0  0
   -2.5357    1.6275    0.0420 H   0  0  0  0  0  0  0  0  0  0  0  0
   -2.0759    1.0274    1.7005 H   0  0  0  0  0  0  0  0  0  0  0  0
   -0.2093    1.8794   -0.5987 H   0  0  0  0  0  0  0  0  0  0  0  0
    0.2622    1.4287    1.0911 H   0  0  0  0  0  0  0  0  0  0  0  0
  1  2  1  0
  2  3  1  0
  3  4  1  0
  4  5  1  0
  5  6  1  0
  2  7  1  0
  7  8  1  0
  8  2  1  0
  1  9  1  0
  1 10  1  0
  1 11  1  0
  4 12  1  0
  4 13  1  0
  5 14  1  0
  5 15  1  0
  6 16  1  0
  7 17  1  0
  7 18  1  0
  8 19  1  0
  8 20  1  0
M  END
