
     RDKit          3D

 23 23  0  0  0  0  0  0  0  0999 V2000
   -1.5665   -0.5445    1.2949 C   0  0  0  0  0  0  0  0  0  0  0  0
   -0.6451   -0.1595    0.1912 C   0  0  0  0  0  0  0  0  0  0  0  0
   -0.9261   -0.9501   -1.0586 C   0  0  0  0  0  0  0  0  0  0  0  0
   -0.7213    1.3618   -0.0279 C   0  0  0  0  0  0  0  0  0  0  0  0
   -1.6093    1.7603   -0.9793 O   0  0  0  0  0  0  0  0  0  0  0  0
    0.7279    1.2385   -0.4543 C   0  0  0  0  0  0  0  0  0  0  0  0
    0.7880    0.0530    0.5223 C   0  0  0  0  0  0  0  0  0  0  0  0
    1.7684   -0.9600    0.0454 C   0  0  0  0  0  0  0  0  0  0  0  0
    3.0465   -0.5613    0.4677 O   0  0  0  0  0  0  0  0  0  0  0  0
   -1.7689    0.3243    1.9867 H   0  0  0  0  0  0  0  0  0  0  0  0
   -2.5727   -0.7408    0.8204 H   0  0  0  0  0  0  0  0  0  0  0  0
   -1.2820   -1.4452    1.8516 H   0  0  0  0  0  0  0  0  0  0  0  0
   -0.3736   -1.9255   -0.9413 H   0  0  0  0  0  0  0  0  0  0  0  0
   -1.9917   -1.2174   -1.1054 H   0  0  0  0  0  0  0  0  0  0  0  0
   -0.5338   -0.4848   -1.9740 H   0  0  0  0  0  0  0  0  0  0  0  0
   -0.7674    1.8396    0.9663 H   0  0  0  0  0  0  0  0  0  0  0  0
   -1.2597    1.7850   -1.8851 H   0  0  0  0  0  0  0  0  0  0  0  0
    0.8867    0.8980   -1.4798 H   0  0  0  0  0  0  0  0  0  0  0  0
    1.3984    2.0378   -0.1006 H   0  0  0  0  0  0  0  0  0  0  0  0
    0.9667    0.3418    1.5671 H   0  0  0  0  0  0  0  0  0  0  0  0
    1.6046   -1.9695    0.4903 H   0  0  0  0  0  0  0  0  0  0  0  0
    1.8053   -1.0424   -1.0637 H   0  0  0  0  0  0  0  0  0  0  0  0
    3.0255    0.3610    0.8661 H   0  0  0  0  0  0  0  0  0  0  0  0
  1  2  1  0
  2  3  1  0
  2  4  1  0
  4  5  1  0
  4  6  1  0
  6  7  1  0
  7  8  1  0
  8  9  1  0
  7  2  1  0
  1 10  1  0
  1 11  1  0
  1 12  1  0
  3 13  1  0
  3 14  1  0
  3 15  1  0
  4 16  1  0
  5 17  1  0
  6 18  1  0
  6 19  1  0
  7 20  1  0
  8 21  1  0
  8 22  1  0
  9 23  1  0
M  END
