
     RDKit          3D

 21 22  0  0  0  0  0  0  0  0999 V2000
   -1.5855    1.3968    0.0762 C   0  0  0  0  0  0  0  0  0  0  0  0
   -0.7696    0.1291    0.1573 C   0  0  0  0  0  0  0  0  0  0  0  0
   -1.6545   -0.9829    0.6341 C   0  0  0  0  0  0  0  0  0  0  0  0
   -0.0950   -0.1588   -1.0156 O   0  0  0  0  0  0  0  0  0  0  0  0
    0.9951   -0.9381   -0.7098 C   0  0  0  0  0  0  0  0  0  0  0  0
    2.3123   -0.3786   -0.3881 C   0  0  0  0  0  0  0  0  0  0  0  0
    1.3523   -0.6922    0.7258 C   0  0  0  0  0  0  0  0  0  0  0  0
    0.3862    0.4033    1.1131 C   0  0  0  0  0  0  0  0  0  0  0  0
    0.9395    1.6254    0.7012 O   0  0  0  0  0  0  0  0  0  0  0  0
   -2.3978    1.3613    0.8475 H   0  0  0  0  0  0  0  0  0  0  0  0
   -2.0459    1.4076   -0.9439 H   0  0  0  0  0  0  0  0  0  0  0  0
   -1.0052    2.3074    0.2939 H   0  0  0  0  0  0  0  0  0  0  0  0
   -2.6435   -0.8691    0.1257 H   0  0  0  0  0  0  0  0  0  0  0  0
   -1.8178   -0.8201    1.7311 H   0  0  0  0  0  0  0  0  0  0  0  0
   -1.2221   -1.9866    0.5257 H   0  0  0  0  0  0  0  0  0  0  0  0
    0.9520   -1.9630   -1.1182 H   0  0  0  0  0  0  0  0  0  0  0  0
    2.5971    0.6680   -0.5402 H   0  0  0  0  0  0  0  0  0  0  0  0
    3.1823   -1.0766   -0.4683 H   0  0  0  0  0  0  0  0  0  0  0  0
    1.5865   -1.5060    1.4122 H   0  0  0  0  0  0  0  0  0  0  0  0
    0.0909    0.3906    2.1596 H   0  0  0  0  0  0  0  0  0  0  0  0
    0.8429    1.6824   -0.3020 H   0  0  0  0  0  0  0  0  0  0  0  0
  1  2  1  0
  2  3  1  0
  2  4  1  0
  4  5  1  0
  5  6  1  0
  6  7  1  0
  7  8  1  0
  8  9  1  0
  8  2  1  0
  7  5  1  0
  1 10  1  0
  1 11  1  0
  1 12  1  0
  3 13  1  0
  3 14  1  0
  3 15  1  0
  5 16  1  0
  6 17  1  0
  6 18  1  0
  7 19  1  0
  8 20  1  0
  9 21  1  0
M  END
