
     RDKit          3D

 21 22  0  0  0  0  0  0  0  0999 V2000
   -1.5231   -1.2593    0.5814 C   0  0  0  0  0  0  0  0  0  0  0  0
   -0.4414   -0.3171    0.1820 C   0  0  0  0  0  0  0  0  0  0  0  0
   -1.0661    0.9285   -0.4039 C   0  0  0  0  0  0  0  0  0  0  0  0
   -0.0930    1.8601   -0.8015 O   0  0  0  0  0  0  0  0  0  0  0  0
    0.5170    0.0228    1.2945 C   0  0  0  0  0  0  0  0  0  0  0  0
    1.6828    0.6258    0.5486 C   0  0  0  0  0  0  0  0  0  0  0  0
    2.6941   -0.2320    0.1324 O   0  0  0  0  0  0  0  0  0  0  0  0
    1.6739   -0.0088   -0.7849 C   0  0  0  0  0  0  0  0  0  0  0  0
    0.4955   -0.9299   -0.8481 C   0  0  0  0  0  0  0  0  0  0  0  0
   -2.4458   -0.6839    0.7979 H   0  0  0  0  0  0  0  0  0  0  0  0
   -1.7589   -1.8954   -0.3201 H   0  0  0  0  0  0  0  0  0  0  0  0
   -1.3001   -1.8723    1.4678 H   0  0  0  0  0  0  0  0  0  0  0  0
   -1.7540    1.4047    0.2927 H   0  0  0  0  0  0  0  0  0  0  0  0
   -1.6026    0.6454   -1.3423 H   0  0  0  0  0  0  0  0  0  0  0  0
   -0.6100    2.6531   -1.1176 H   0  0  0  0  0  0  0  0  0  0  0  0
    0.8746   -0.9653    1.7058 H   0  0  0  0  0  0  0  0  0  0  0  0
    0.1007    0.6690    2.0645 H   0  0  0  0  0  0  0  0  0  0  0  0
    1.8913    1.6997    0.6080 H   0  0  0  0  0  0  0  0  0  0  0  0
    1.9421    0.5271   -1.7070 H   0  0  0  0  0  0  0  0  0  0  0  0
    0.0024   -0.9093   -1.8182 H   0  0  0  0  0  0  0  0  0  0  0  0
    0.7206   -1.9629   -0.5321 H   0  0  0  0  0  0  0  0  0  0  0  0
  1  2  1  0
  2  3  1  0
  3  4  1  0
  2  5  1  0
  5  6  1  0
  6  7  1  0
  7  8  1  0
  8  9  1  0
  9  2  1  0
  8  6  1  0
  1 10  1  0
  1 11  1  0
  1 12  1  0
  3 13  1  0
  3 14  1  0
  4 15  1  0
  5 16  1  0
  5 17  1  0
  6 18  1  0
  8 19  1  0
  9 20  1  0
  9 21  1  0
M  END
