
     RDKit          3D

 21 22  0  0  0  0  0  0  0  0999 V2000
   -1.6323   -0.9211   -0.8513 C   0  0  0  0  0  0  0  0  0  0  0  0
   -0.6417   -0.2131    0.0225 C   0  0  0  0  0  0  0  0  0  0  0  0
   -1.1303    0.1164    1.3817 C   0  0  0  0  0  0  0  0  0  0  0  0
    0.0537    0.9805   -0.6307 C   0  0  0  0  0  0  0  0  0  0  0  0
    0.9820   -0.0083   -1.2870 C   0  0  0  0  0  0  0  0  0  0  0  0
    0.7050   -0.9053   -0.0715 C   0  0  0  0  0  0  0  0  0  0  0  0
    1.4692   -0.4960    0.9807 O   0  0  0  0  0  0  0  0  0  0  0  0
    1.7397    0.8494    0.9287 C   0  0  0  0  0  0  0  0  0  0  0  0
    0.7577    1.6234    0.3728 O   0  0  0  0  0  0  0  0  0  0  0  0
   -2.6711   -0.5864   -0.7022 H   0  0  0  0  0  0  0  0  0  0  0  0
   -1.3893   -0.8840   -1.9262 H   0  0  0  0  0  0  0  0  0  0  0  0
   -1.5975   -2.0101   -0.5523 H   0  0  0  0  0  0  0  0  0  0  0  0
   -0.3685    0.2622    2.1476 H   0  0  0  0  0  0  0  0  0  0  0  0
   -1.6943    1.0932    1.3103 H   0  0  0  0  0  0  0  0  0  0  0  0
   -1.9088   -0.6267    1.6906 H   0  0  0  0  0  0  0  0  0  0  0  0
   -0.5580    1.6006   -1.2675 H   0  0  0  0  0  0  0  0  0  0  0  0
    2.0186    0.2877   -1.4159 H   0  0  0  0  0  0  0  0  0  0  0  0
    0.5677   -0.3942   -2.2332 H   0  0  0  0  0  0  0  0  0  0  0  0
    0.6967   -1.9512   -0.3559 H   0  0  0  0  0  0  0  0  0  0  0  0
    1.8600    1.1934    1.9987 H   0  0  0  0  0  0  0  0  0  0  0  0
    2.7415    0.9896    0.4600 H   0  0  0  0  0  0  0  0  0  0  0  0
  1  2  1  0
  2  3  1  0
  2  4  1  0
  4  5  1  0
  5  6  1  0
  6  7  1  0
  7  8  1  0
  8  9  1  0
  6  2  1  0
  9  4  1  0
  1 10  1  0
  1 11  1  0
  1 12  1  0
  3 13  1  0
  3 14  1  0
  3 15  1  0
  4 16  1  0
  5 17  1  0
  5 18  1  0
  6 19  1  0
  8 20  1  0
  8 21  1  0
M  END
