
     RDKit          3D

 21 21  0  0  0  0  0  0  0  0999 V2000
   -0.9494    1.6484    0.3795 C   0  0  0  0  0  0  0  0  0  0  0  0
   -0.4660    0.2792   -0.0543 C   0  0  0  0  0  0  0  0  0  0  0  0
   -1.6865   -0.5133   -0.5201 C   0  0  0  0  0  0  0  0  0  0  0  0
   -1.2785   -1.7775   -0.9260 O   0  0  0  0  0  0  0  0  0  0  0  0
    0.1540   -0.3419    1.1558 C   0  0  0  0  0  0  0  0  0  0  0  0
    1.4160   -0.6671    1.2309 C   0  0  0  0  0  0  0  0  0  0  0  0
    2.2890   -0.4133    0.0650 C   0  0  0  0  0  0  0  0  0  0  0  0
    1.8010    0.6853   -0.6304 O   0  0  0  0  0  0  0  0  0  0  0  0
    0.5282    0.4746   -1.1575 C   0  0  0  0  0  0  0  0  0  0  0  0
   -0.1559    2.1920    0.9484 H   0  0  0  0  0  0  0  0  0  0  0  0
   -1.8446    1.4524    1.0322 H   0  0  0  0  0  0  0  0  0  0  0  0
   -1.2568    2.1821   -0.5333 H   0  0  0  0  0  0  0  0  0  0  0  0
   -2.4161   -0.6009    0.3055 H   0  0  0  0  0  0  0  0  0  0  0  0
   -2.1609    0.0601   -1.3274 H   0  0  0  0  0  0  0  0  0  0  0  0
   -1.7174   -2.4694   -0.3582 H   0  0  0  0  0  0  0  0  0  0  0  0
   -0.4982   -0.5184    1.9933 H   0  0  0  0  0  0  0  0  0  0  0  0
    1.7975   -1.1105    2.1313 H   0  0  0  0  0  0  0  0  0  0  0  0
    2.2943   -1.3312   -0.5560 H   0  0  0  0  0  0  0  0  0  0  0  0
    3.3007   -0.1862    0.3972 H   0  0  0  0  0  0  0  0  0  0  0  0
    0.2670    1.3684   -1.7461 H   0  0  0  0  0  0  0  0  0  0  0  0
    0.5825   -0.4127   -1.8298 H   0  0  0  0  0  0  0  0  0  0  0  0
  1  2  1  0
  2  3  1  0
  3  4  1  0
  2  5  1  0
  5  6  2  0
  6  7  1  0
  7  8  1  0
  8  9  1  0
  9  2  1  0
  1 10  1  0
  1 11  1  0
  1 12  1  0
  3 13  1  0
  3 14  1  0
  4 15  1  0
  5 16  1  0
  6 17  1  0
  7 18  1  0
  7 19  1  0
  9 20  1  0
  9 21  1  0
M  END
