
     RDKit          3D

 19 20  0  0  0  0  0  0  0  0999 V2000
   -1.4291   -1.0403    0.7149 C   0  0  0  0  0  0  0  0  0  0  0  0
   -0.4377   -0.0506    0.1224 C   0  0  0  0  0  0  0  0  0  0  0  0
   -1.2489    1.0802   -0.4678 C   0  0  0  0  0  0  0  0  0  0  0  0
    0.4288   -0.7303   -0.9008 C   0  0  0  0  0  0  0  0  0  0  0  0
    1.7733   -0.0950   -0.7888 C   0  0  0  0  0  0  0  0  0  0  0  0
    1.7953    1.2747   -0.8437 O   0  0  0  0  0  0  0  0  0  0  0  0
    1.7983    0.7527    0.4449 C   0  0  0  0  0  0  0  0  0  0  0  0
    0.5452    0.4171    1.1193 C   0  0  0  0  0  0  0  0  0  0  0  0
    0.3480    0.5097    2.3109 O   0  0  0  0  0  0  0  0  0  0  0  0
   -1.6460   -1.8558   -0.0208 H   0  0  0  0  0  0  0  0  0  0  0  0
   -1.0810   -1.4418    1.6920 H   0  0  0  0  0  0  0  0  0  0  0  0
   -2.4244   -0.5445    0.8949 H   0  0  0  0  0  0  0  0  0  0  0  0
   -0.6463    1.7329   -1.1265 H   0  0  0  0  0  0  0  0  0  0  0  0
   -2.0697    0.6253   -1.0429 H   0  0  0  0  0  0  0  0  0  0  0  0
   -1.6412    1.6714    0.3887 H   0  0  0  0  0  0  0  0  0  0  0  0
    0.5093   -1.8214   -0.6214 H   0  0  0  0  0  0  0  0  0  0  0  0
    0.0010   -0.7197   -1.9128 H   0  0  0  0  0  0  0  0  0  0  0  0
    2.6943   -0.6857   -0.9550 H   0  0  0  0  0  0  0  0  0  0  0  0
    2.7305    0.9210    0.9924 H   0  0  0  0  0  0  0  0  0  0  0  0
  1  2  1  0
  2  3  1  0
  2  4  1  0
  4  5  1  0
  5  6  1  0
  6  7  1  0
  7  8  1  0
  8  9  2  0
  8  2  1  0
  7  5  1  0
  1 10  1  0
  1 11  1  0
  1 12  1  0
  3 13  1  0
  3 14  1  0
  3 15  1  0
  4 16  1  0
  4 17  1  0
  5 18  1  0
  7 19  1  0
M  END
