
     RDKit          3D

 25 25  0  0  0  0  0  0  0  0999 V2000
   -0.4251    0.6246    1.6892 C   0  0  0  0  0  0  0  0  0  0  0  0
    0.0837    0.0184    0.3790 C   0  0  0  0  0  0  0  0  0  0  0  0
    1.4605   -0.4438    0.6075 C   0  0  0  0  0  0  0  0  0  0  0  0
    2.1613   -1.0752   -0.5440 C   0  0  0  0  0  0  0  0  0  0  0  0
    2.2753   -0.2085   -1.6295 O   0  0  0  0  0  0  0  0  0  0  0  0
   -0.8902   -1.0618    0.0047 C   0  0  0  0  0  0  0  0  0  0  0  0
   -2.1294   -0.2383   -0.3551 C   0  0  0  0  0  0  0  0  0  0  0  0
   -1.6573    1.1502   -0.6585 C   0  0  0  0  0  0  0  0  0  0  0  0
   -0.1224    1.0343   -0.6829 C   0  0  0  0  0  0  0  0  0  0  0  0
   -1.5041    0.7942    1.6802 H   0  0  0  0  0  0  0  0  0  0  0  0
   -0.2409   -0.1786    2.4596 H   0  0  0  0  0  0  0  0  0  0  0  0
    0.1758    1.5271    1.8935 H   0  0  0  0  0  0  0  0  0  0  0  0
    1.4733   -1.1007    1.5022 H   0  0  0  0  0  0  0  0  0  0  0  0
    2.0773    0.4527    0.9102 H   0  0  0  0  0  0  0  0  0  0  0  0
    3.2023   -1.3059   -0.2228 H   0  0  0  0  0  0  0  0  0  0  0  0
    1.7224   -2.0301   -0.8746 H   0  0  0  0  0  0  0  0  0  0  0  0
    3.0323    0.4139   -1.5432 H   0  0  0  0  0  0  0  0  0  0  0  0
   -1.0954   -1.7844    0.7974 H   0  0  0  0  0  0  0  0  0  0  0  0
   -0.5673   -1.5998   -0.9252 H   0  0  0  0  0  0  0  0  0  0  0  0
   -2.6511   -0.6996   -1.2121 H   0  0  0  0  0  0  0  0  0  0  0  0
   -2.8028   -0.3035    0.5087 H   0  0  0  0  0  0  0  0  0  0  0  0
   -1.9952    1.9154    0.0484 H   0  0  0  0  0  0  0  0  0  0  0  0
   -2.0367    1.4404   -1.6589 H   0  0  0  0  0  0  0  0  0  0  0  0
    0.1064    0.6436   -1.6955 H   0  0  0  0  0  0  0  0  0  0  0  0
    0.3473    2.0156   -0.4784 H   0  0  0  0  0  0  0  0  0  0  0  0
  1  2  1  0
  2  3  1  0
  3  4  1  0
  4  5  1  0
  2  6  1  0
  6  7  1  0
  7  8  1  0
  8  9  1  0
  9  2  1  0
  1 10  1  0
  1 11  1  0
  1 12  1  0
  3 13  1  0
  3 14  1  0
  4 15  1  0
  4 16  1  0
  5 17  1  0
  6 18  1  0
  6 19  1  0
  7 20  1  0
  7 21  1  0
  8 22  1  0
  8 23  1  0
  9 24  1  0
  9 25  1  0
M  END
