
     RDKit          3D

 19 20  0  0  0  0  0  0  0  0999 V2000
   -1.3883    1.2084   -0.2711 C   0  0  0  0  0  0  0  0  0  0  0  0
   -0.5436   -0.0230   -0.2648 C   0  0  0  0  0  0  0  0  0  0  0  0
   -1.3452   -1.2644   -0.4230 C   0  0  0  0  0  0  0  0  0  0  0  0
    0.4230    0.1231   -1.2934 O   0  0  0  0  0  0  0  0  0  0  0  0
    1.5856    0.2858   -0.5799 C   0  0  0  0  0  0  0  0  0  0  0  0
    1.4996   -0.8994    0.4002 C   0  0  0  0  0  0  0  0  0  0  0  0
    0.3618   -0.0439    0.9309 C   0  0  0  0  0  0  0  0  0  0  0  0
    1.2515    1.1181    0.6105 C   0  0  0  0  0  0  0  0  0  0  0  0
    1.4699    2.1520    1.1633 O   0  0  0  0  0  0  0  0  0  0  0  0
   -1.7327    1.3879    0.7857 H   0  0  0  0  0  0  0  0  0  0  0  0
   -0.7138    2.0681   -0.5523 H   0  0  0  0  0  0  0  0  0  0  0  0
   -2.2280    1.1494   -0.9722 H   0  0  0  0  0  0  0  0  0  0  0  0
   -1.8474   -1.4799    0.5414 H   0  0  0  0  0  0  0  0  0  0  0  0
   -0.7370   -2.1453   -0.6685 H   0  0  0  0  0  0  0  0  0  0  0  0
   -2.1527   -1.0970   -1.1611 H   0  0  0  0  0  0  0  0  0  0  0  0
    2.5143    0.4369   -1.0686 H   0  0  0  0  0  0  0  0  0  0  0  0
    1.2012   -1.8161   -0.1243 H   0  0  0  0  0  0  0  0  0  0  0  0
    2.3778   -0.9804    1.0409 H   0  0  0  0  0  0  0  0  0  0  0  0
    0.0042   -0.1804    1.9062 H   0  0  0  0  0  0  0  0  0  0  0  0
  1  2  1  0
  2  3  1  0
  2  4  1  0
  4  5  1  0
  5  6  1  0
  6  7  1  0
  7  8  1  0
  8  9  2  0
  7  2  1  0
  8  5  1  0
  1 10  1  0
  1 11  1  0
  1 12  1  0
  3 13  1  0
  3 14  1  0
  3 15  1  0
  5 16  1  0
  6 17  1  0
  6 18  1  0
  7 19  1  0
M  END
