
     RDKit          3D

 19 20  0  0  0  0  0  0  0  0999 V2000
   -1.4142    0.8167   -0.8729 C   0  0  0  0  0  0  0  0  0  0  0  0
   -0.6946    0.0950    0.2144 C   0  0  0  0  0  0  0  0  0  0  0  0
   -1.3517    0.2483    1.4404 O   0  0  0  0  0  0  0  0  0  0  0  0
   -0.5524   -1.3773   -0.1405 C   0  0  0  0  0  0  0  0  0  0  0  0
    0.5951   -1.7747    0.5031 O   0  0  0  0  0  0  0  0  0  0  0  0
    1.4907   -0.7163    0.4766 C   0  0  0  0  0  0  0  0  0  0  0  0
    1.7127    0.0910   -0.7304 C   0  0  0  0  0  0  0  0  0  0  0  0
    0.7342    0.5335    0.3306 C   0  0  0  0  0  0  0  0  0  0  0  0
    1.0630    1.7058    0.9644 O   0  0  0  0  0  0  0  0  0  0  0  0
   -1.8872    0.0681   -1.5570 H   0  0  0  0  0  0  0  0  0  0  0  0
   -2.2711    1.3870   -0.4356 H   0  0  0  0  0  0  0  0  0  0  0  0
   -0.7538    1.4799   -1.4794 H   0  0  0  0  0  0  0  0  0  0  0  0
   -1.8763   -0.5450    1.6801 H   0  0  0  0  0  0  0  0  0  0  0  0
   -0.3849   -1.4686   -1.2402 H   0  0  0  0  0  0  0  0  0  0  0  0
   -1.4161   -1.9721    0.2074 H   0  0  0  0  0  0  0  0  0  0  0  0
    2.2603   -0.7536    1.2490 H   0  0  0  0  0  0  0  0  0  0  0  0
    1.2445   -0.1201   -1.7042 H   0  0  0  0  0  0  0  0  0  0  0  0
    2.6688    0.6326   -0.8118 H   0  0  0  0  0  0  0  0  0  0  0  0
    0.8331    1.6697    1.9062 H   0  0  0  0  0  0  0  0  0  0  0  0
  1  2  1  0
  2  3  1  0
  2  4  1  0
  4  5  1  0
  5  6  1  0
  6  7  1  0
  7  8  1  0
  8  9  1  0
  8  2  1  0
  8  6  1  0
  1 10  1  0
  1 11  1  0
  1 12  1  0
  3 13  1  0
  4 14  1  0
  4 15  1  0
  6 16  1  0
  7 17  1  0
  7 18  1  0
  9 19  1  0
M  END
