
     RDKit          3D

 19 19  0  0  0  0  0  0  0  0999 V2000
   -1.5667   -1.0390   -0.0484 C   0  0  0  0  0  0  0  0  0  0  0  0
   -0.4289   -0.1246   -0.3284 C   0  0  0  0  0  0  0  0  0  0  0  0
   -0.0389   -0.1718   -1.6519 O   0  0  0  0  0  0  0  0  0  0  0  0
   -0.8444    1.2905    0.0178 C   0  0  0  0  0  0  0  0  0  0  0  0
    0.4750    1.9654    0.0740 C   0  0  0  0  0  0  0  0  0  0  0  0
    1.3896    1.0736    0.4303 C   0  0  0  0  0  0  0  0  0  0  0  0
    0.7252   -0.2687    0.6355 C   0  0  0  0  0  0  0  0  0  0  0  0
    1.6384   -1.3583    0.3097 C   0  0  0  0  0  0  0  0  0  0  0  0
    1.7031   -1.8226   -0.8087 O   0  0  0  0  0  0  0  0  0  0  0  0
   -1.8057   -1.0909    1.0169 H   0  0  0  0  0  0  0  0  0  0  0  0
   -1.4255   -2.0500   -0.4935 H   0  0  0  0  0  0  0  0  0  0  0  0
   -2.4749   -0.6116   -0.5579 H   0  0  0  0  0  0  0  0  0  0  0  0
   -0.1786   -1.0472   -2.0800 H   0  0  0  0  0  0  0  0  0  0  0  0
   -1.2982    1.2370    1.0333 H   0  0  0  0  0  0  0  0  0  0  0  0
   -1.5293    1.7269   -0.7279 H   0  0  0  0  0  0  0  0  0  0  0  0
    0.6411    3.0344   -0.1486 H   0  0  0  0  0  0  0  0  0  0  0  0
    2.4440    1.2755    0.5543 H   0  0  0  0  0  0  0  0  0  0  0  0
    0.3119   -0.2806    1.6515 H   0  0  0  0  0  0  0  0  0  0  0  0
    2.2629   -1.7379    1.1219 H   0  0  0  0  0  0  0  0  0  0  0  0
  1  2  1  0
  2  3  1  0
  2  4  1  0
  4  5  1  0
  5  6  2  0
  6  7  1  0
  7  8  1  0
  8  9  2  0
  7  2  1  0
  1 10  1  0
  1 11  1  0
  1 12  1  0
  3 13  1  0
  4 14  1  0
  4 15  1  0
  5 16  1  0
  6 17  1  0
  7 18  1  0
  8 19  1  0
M  END
