
     RDKit          3D

 17 18  0  0  0  0  0  0  0  0999 V2000
   -1.3943   -1.0249   -0.2100 C   0  0  0  0  0  0  0  0  0  0  0  0
   -0.5080    0.0263    0.4271 C   0  0  0  0  0  0  0  0  0  0  0  0
   -0.7115    0.2163    1.7713 O   0  0  0  0  0  0  0  0  0  0  0  0
   -0.5753    1.3059   -0.4145 C   0  0  0  0  0  0  0  0  0  0  0  0
    0.5328    0.7287   -1.2138 C   0  0  0  0  0  0  0  0  0  0  0  0
    0.9252    0.8560   -2.3485 O   0  0  0  0  0  0  0  0  0  0  0  0
    0.9094   -0.0293   -0.0420 C   0  0  0  0  0  0  0  0  0  0  0  0
    1.9211   -0.8698    0.2730 C   0  0  0  0  0  0  0  0  0  0  0  0
    1.8565    0.5116    0.8200 O   0  0  0  0  0  0  0  0  0  0  0  0
   -0.9624   -2.0289   -0.0515 H   0  0  0  0  0  0  0  0  0  0  0  0
   -1.4435   -0.8675   -1.3078 H   0  0  0  0  0  0  0  0  0  0  0  0
   -2.4109   -0.9809    0.2305 H   0  0  0  0  0  0  0  0  0  0  0  0
   -1.0267    1.1039    2.0249 H   0  0  0  0  0  0  0  0  0  0  0  0
   -1.5268    1.4516   -0.9414 H   0  0  0  0  0  0  0  0  0  0  0  0
   -0.2424    2.2091    0.1353 H   0  0  0  0  0  0  0  0  0  0  0  0
    2.8149   -1.0513   -0.3157 H   0  0  0  0  0  0  0  0  0  0  0  0
    1.8420   -1.5567    1.1632 H   0  0  0  0  0  0  0  0  0  0  0  0
  1  2  1  0
  2  3  1  0
  2  4  1  0
  4  5  1  0
  5  6  2  0
  5  7  1  0
  7  8  1  0
  8  9  1  0
  7  2  1  0
  9  7  1  0
  1 10  1  0
  1 11  1  0
  1 12  1  0
  3 13  1  0
  4 14  1  0
  4 15  1  0
  8 16  1  0
  8 17  1  0
M  END
