
     RDKit          3D

 17 17  0  0  0  0  0  0  0  0999 V2000
   -1.7656   -0.3900    0.3289 C   0  0  0  0  0  0  0  0  0  0  0  0
   -0.4717   -0.0080   -0.3675 C   0  0  0  0  0  0  0  0  0  0  0  0
   -0.7434    0.8233   -1.4232 O   0  0  0  0  0  0  0  0  0  0  0  0
    0.2882   -1.1855   -0.8305 C   0  0  0  0  0  0  0  0  0  0  0  0
   -0.2281   -2.1281   -1.4879 O   0  0  0  0  0  0  0  0  0  0  0  0
    1.6811   -1.0312   -0.3892 C   0  0  0  0  0  0  0  0  0  0  0  0
    1.7698   -0.0181    0.4532 C   0  0  0  0  0  0  0  0  0  0  0  0
    0.4570    0.5991    0.6561 C   0  0  0  0  0  0  0  0  0  0  0  0
    0.4708    1.9818    0.5280 O   0  0  0  0  0  0  0  0  0  0  0  0
   -2.0168   -1.4195    0.0128 H   0  0  0  0  0  0  0  0  0  0  0  0
   -2.5491    0.3528    0.0869 H   0  0  0  0  0  0  0  0  0  0  0  0
   -1.6260   -0.3752    1.4310 H   0  0  0  0  0  0  0  0  0  0  0  0
   -0.0454    1.4962   -1.6166 H   0  0  0  0  0  0  0  0  0  0  0  0
    2.4633   -1.6888   -0.7454 H   0  0  0  0  0  0  0  0  0  0  0  0
    2.6862    0.2992    0.9184 H   0  0  0  0  0  0  0  0  0  0  0  0
    0.0709    0.3941    1.6952 H   0  0  0  0  0  0  0  0  0  0  0  0
   -0.4414    2.2980    0.7497 H   0  0  0  0  0  0  0  0  0  0  0  0
  1  2  1  0
  2  3  1  0
  2  4  1  0
  4  5  2  0
  4  6  1  0
  6  7  2  0
  7  8  1  0
  8  9  1  0
  8  2  1  0
  1 10  1  0
  1 11  1  0
  1 12  1  0
  3 13  1  0
  6 14  1  0
  7 15  1  0
  8 16  1  0
  9 17  1  0
M  END
