
     RDKit          3D

 23 24  0  0  0  0  0  0  0  0999 V2000
   -1.4829    0.2114   -1.2626 C   0  0  0  0  0  0  0  0  0  0  0  0
   -1.1186    0.1922    0.1789 C   0  0  0  0  0  0  0  0  0  0  0  0
   -2.1988    0.7636    1.0980 C   0  0  0  0  0  0  0  0  0  0  0  0
   -0.1641   -0.7069    0.7931 C   0  0  0  0  0  0  0  0  0  0  0  0
    0.7073   -1.6639    0.0494 C   0  0  0  0  0  0  0  0  0  0  0  0
    1.9872   -0.8327   -0.1284 C   0  0  0  0  0  0  0  0  0  0  0  0
    1.3391    0.4786   -0.5998 C   0  0  0  0  0  0  0  0  0  0  0  0
    2.2542    1.4920   -0.7287 O   0  0  0  0  0  0  0  0  0  0  0  0
    0.3068    0.6940    0.4568 C   0  0  0  0  0  0  0  0  0  0  0  0
   -2.5746    0.4514   -1.4229 H   0  0  0  0  0  0  0  0  0  0  0  0
   -1.2051   -0.6996   -1.8205 H   0  0  0  0  0  0  0  0  0  0  0  0
   -0.9481    1.0633   -1.7746 H   0  0  0  0  0  0  0  0  0  0  0  0
   -2.5859    1.6597    0.6042 H   0  0  0  0  0  0  0  0  0  0  0  0
   -1.7235    0.9412    2.0758 H   0  0  0  0  0  0  0  0  0  0  0  0
   -3.0039    0.0013    1.2575 H   0  0  0  0  0  0  0  0  0  0  0  0
   -0.2445   -0.9103    1.8781 H   0  0  0  0  0  0  0  0  0  0  0  0
    0.3363   -1.9145   -0.9593 H   0  0  0  0  0  0  0  0  0  0  0  0
    0.9874   -2.5513    0.6420 H   0  0  0  0  0  0  0  0  0  0  0  0
    2.6567   -1.2557   -0.8731 H   0  0  0  0  0  0  0  0  0  0  0  0
    2.4447   -0.6008    0.8459 H   0  0  0  0  0  0  0  0  0  0  0  0
    0.9078    0.2330   -1.6023 H   0  0  0  0  0  0  0  0  0  0  0  0
    2.8815    1.5220    0.0435 H   0  0  0  0  0  0  0  0  0  0  0  0
    0.4412    1.4322    1.2489 H   0  0  0  0  0  0  0  0  0  0  0  0
  1  2  1  0
  2  3  1  0
  2  4  1  0
  4  5  1  0
  5  6  1  0
  6  7  1  0
  7  8  1  0
  7  9  1  0
  9  2  1  0
  9  4  1  0
  1 10  1  0
  1 11  1  0
  1 12  1  0
  3 13  1  0
  3 14  1  0
  3 15  1  0
  4 16  1  0
  5 17  1  0
  5 18  1  0
  6 19  1  0
  6 20  1  0
  7 21  1  0
  8 22  1  0
  9 23  1  0
M  END
