
     RDKit          3D

 21 22  0  0  0  0  0  0  0  0999 V2000
    1.3941    0.8606   -0.9822 C   0  0  0  0  0  0  0  0  0  0  0  0
    0.7074    0.1032    0.0987 C   0  0  0  0  0  0  0  0  0  0  0  0
    1.6228   -0.9082    0.6983 C   0  0  0  0  0  0  0  0  0  0  0  0
    0.2480    1.0453    1.0478 O   0  0  0  0  0  0  0  0  0  0  0  0
   -1.1141    0.9441    0.9365 C   0  0  0  0  0  0  0  0  0  0  0  0
   -1.3256   -0.5728    1.0399 C   0  0  0  0  0  0  0  0  0  0  0  0
   -0.5886   -0.5242   -0.3088 C   0  0  0  0  0  0  0  0  0  0  0  0
   -0.6538   -1.5558   -1.1143 O   0  0  0  0  0  0  0  0  0  0  0  0
   -1.4094    0.7260   -0.5574 C   0  0  0  0  0  0  0  0  0  0  0  0
    2.4833    0.9414   -0.6972 H   0  0  0  0  0  0  0  0  0  0  0  0
    1.0539    1.9357   -1.0313 H   0  0  0  0  0  0  0  0  0  0  0  0
    1.3681    0.3830   -1.9616 H   0  0  0  0  0  0  0  0  0  0  0  0
    1.8407   -1.6580   -0.0906 H   0  0  0  0  0  0  0  0  0  0  0  0
    1.1890   -1.4623    1.5446 H   0  0  0  0  0  0  0  0  0  0  0  0
    2.6011   -0.4686    0.9792 H   0  0  0  0  0  0  0  0  0  0  0  0
   -1.7717    1.5707    1.4781 H   0  0  0  0  0  0  0  0  0  0  0  0
   -2.4019   -0.7884    0.9554 H   0  0  0  0  0  0  0  0  0  0  0  0
   -0.7875   -1.0636    1.8443 H   0  0  0  0  0  0  0  0  0  0  0  0
   -1.0654   -1.4937   -1.9874 H   0  0  0  0  0  0  0  0  0  0  0  0
   -0.9261    1.4660   -1.1968 H   0  0  0  0  0  0  0  0  0  0  0  0
   -2.4641    0.5195   -0.6953 H   0  0  0  0  0  0  0  0  0  0  0  0
  1  2  1  0
  2  3  1  0
  2  4  1  0
  4  5  1  0
  5  6  1  0
  6  7  1  0
  7  8  1  0
  7  9  1  0
  7  2  1  0
  9  5  1  0
  1 10  1  0
  1 11  1  0
  1 12  1  0
  3 13  1  0
  3 14  1  0
  3 15  1  0
  5 16  1  0
  6 17  1  0
  6 18  1  0
  8 19  1  0
  9 20  1  0
  9 21  1  0
M  END
