
     RDKit          3D

 20 20  0  0  0  0  0  0  0  0999 V2000
   -0.7927   -1.6219    0.4200 C   0  0  0  0  0  0  0  0  0  0  0  0
   -0.0062   -0.3692    0.1171 C   0  0  0  0  0  0  0  0  0  0  0  0
    1.3772   -0.6365   -0.4307 C   0  0  0  0  0  0  0  0  0  0  0  0
    2.1110    0.6146   -0.7025 C   0  0  0  0  0  0  0  0  0  0  0  0
    2.9581    0.9656    0.1145 O   0  0  0  0  0  0  0  0  0  0  0  0
   -0.1751    0.7364    1.0923 C   0  0  0  0  0  0  0  0  0  0  0  0
   -1.4373    1.1454    0.3243 C   0  0  0  0  0  0  0  0  0  0  0  0
   -0.8160    0.4678   -0.8758 C   0  0  0  0  0  0  0  0  0  0  0  0
   -0.2505   -2.1601    1.2256 H   0  0  0  0  0  0  0  0  0  0  0  0
   -0.8822   -2.1919   -0.5177 H   0  0  0  0  0  0  0  0  0  0  0  0
   -1.8129   -1.3605    0.7267 H   0  0  0  0  0  0  0  0  0  0  0  0
    1.9114   -1.2668    0.3062 H   0  0  0  0  0  0  0  0  0  0  0  0
    1.2833   -1.2553   -1.3658 H   0  0  0  0  0  0  0  0  0  0  0  0
    1.9140    1.1917   -1.5663 H   0  0  0  0  0  0  0  0  0  0  0  0
    0.6021    1.5332    1.1095 H   0  0  0  0  0  0  0  0  0  0  0  0
   -0.4188    0.3649    2.1235 H   0  0  0  0  0  0  0  0  0  0  0  0
   -2.3266    0.6170    0.7007 H   0  0  0  0  0  0  0  0  0  0  0  0
   -1.5339    2.2252    0.1346 H   0  0  0  0  0  0  0  0  0  0  0  0
   -0.1553    1.1211   -1.4821 H   0  0  0  0  0  0  0  0  0  0  0  0
   -1.5497   -0.1207   -1.4541 H   0  0  0  0  0  0  0  0  0  0  0  0
  1  2  1  0
  2  3  1  0
  3  4  1  0
  4  5  2  0
  2  6  1  0
  6  7  1  0
  7  8  1  0
  8  2  1  0
  1  9  1  0
  1 10  1  0
  1 11  1  0
  3 12  1  0
  3 13  1  0
  4 14  1  0
  6 15  1  0
  6 16  1  0
  7 17  1  0
  7 18  1  0
  8 19  1  0
  8 20  1  0
M  END
