
     RDKit          3D

 23 23  0  0  0  0  0  0  0  0999 V2000
    1.4788    0.4419    0.9232 C   0  0  0  0  0  0  0  0  0  0  0  0
    0.6508    0.1104   -0.2757 C   0  0  0  0  0  0  0  0  0  0  0  0
    1.5269   -0.4228   -1.3867 C   0  0  0  0  0  0  0  0  0  0  0  0
   -0.0922    1.3644   -0.6782 C   0  0  0  0  0  0  0  0  0  0  0  0
   -0.8867    1.7223    0.4166 O   0  0  0  0  0  0  0  0  0  0  0  0
   -1.9644    0.8614    0.5432 C   0  0  0  0  0  0  0  0  0  0  0  0
   -1.4290   -0.4872    0.9552 C   0  0  0  0  0  0  0  0  0  0  0  0
   -0.3883   -0.9564   -0.0121 C   0  0  0  0  0  0  0  0  0  0  0  0
    0.1591   -2.1586    0.3907 O   0  0  0  0  0  0  0  0  0  0  0  0
    1.2888   -0.1938    1.7903 H   0  0  0  0  0  0  0  0  0  0  0  0
    2.5647    0.3920    0.6516 H   0  0  0  0  0  0  0  0  0  0  0  0
    1.3332    1.5021    1.2786 H   0  0  0  0  0  0  0  0  0  0  0  0
    2.3234   -1.0373   -0.8718 H   0  0  0  0  0  0  0  0  0  0  0  0
    1.9687    0.4098   -1.9348 H   0  0  0  0  0  0  0  0  0  0  0  0
    0.9687   -1.1454   -2.0416 H   0  0  0  0  0  0  0  0  0  0  0  0
   -0.6814    1.1816   -1.5793 H   0  0  0  0  0  0  0  0  0  0  0  0
    0.6666    2.1668   -0.7778 H   0  0  0  0  0  0  0  0  0  0  0  0
   -2.6813    1.2357    1.2764 H   0  0  0  0  0  0  0  0  0  0  0  0
   -2.4561    0.7524   -0.4345 H   0  0  0  0  0  0  0  0  0  0  0  0
   -2.2928   -1.1994    0.9204 H   0  0  0  0  0  0  0  0  0  0  0  0
   -0.9558   -0.4561    1.9628 H   0  0  0  0  0  0  0  0  0  0  0  0
   -0.8936   -1.1470   -0.9927 H   0  0  0  0  0  0  0  0  0  0  0  0
   -0.2081   -2.9369   -0.1236 H   0  0  0  0  0  0  0  0  0  0  0  0
  1  2  1  0
  2  3  1  0
  2  4  1  0
  4  5  1  0
  5  6  1  0
  6  7  1  0
  7  8  1  0
  8  9  1  0
  8  2  1  0
  1 10  1  0
  1 11  1  0
  1 12  1  0
  3 13  1  0
  3 14  1  0
  3 15  1  0
  4 16  1  0
  4 17  1  0
  6 18  1  0
  6 19  1  0
  7 20  1  0
  7 21  1  0
  8 22  1  0
  9 23  1  0
M  END
