
     RDKit          3D

 21 21  0  0  0  0  0  0  0  0999 V2000
   -2.1278    0.0071    0.0668 C   0  0  0  0  0  0  0  0  0  0  0  0
   -0.6557    0.0630    0.4604 C   0  0  0  0  0  0  0  0  0  0  0  0
   -0.6420    0.4156    1.8234 O   0  0  0  0  0  0  0  0  0  0  0  0
   -0.1113   -1.3211    0.3019 C   0  0  0  0  0  0  0  0  0  0  0  0
    0.9009   -1.3087   -0.8213 C   0  0  0  0  0  0  0  0  0  0  0  0
    1.9436   -0.3372   -0.4192 C   0  0  0  0  0  0  0  0  0  0  0  0
    1.5455    0.8953   -0.1524 C   0  0  0  0  0  0  0  0  0  0  0  0
    0.0766    1.1272   -0.2997 C   0  0  0  0  0  0  0  0  0  0  0  0
   -0.1991    2.4004    0.1630 O   0  0  0  0  0  0  0  0  0  0  0  0
   -2.7305    0.7480    0.6168 H   0  0  0  0  0  0  0  0  0  0  0  0
   -2.2587    0.1487   -1.0370 H   0  0  0  0  0  0  0  0  0  0  0  0
   -2.5089   -0.9961    0.3394 H   0  0  0  0  0  0  0  0  0  0  0  0
    0.1056   -0.0529    2.2608 H   0  0  0  0  0  0  0  0  0  0  0  0
    0.4535   -1.6084    1.2239 H   0  0  0  0  0  0  0  0  0  0  0  0
   -0.9018   -2.0784    0.1205 H   0  0  0  0  0  0  0  0  0  0  0  0
    0.3963   -0.9883   -1.7771 H   0  0  0  0  0  0  0  0  0  0  0  0
    1.3098   -2.3186   -1.0214 H   0  0  0  0  0  0  0  0  0  0  0  0
    2.9648   -0.6425   -0.3548 H   0  0  0  0  0  0  0  0  0  0  0  0
    2.2177    1.6898    0.1510 H   0  0  0  0  0  0  0  0  0  0  0  0
   -0.2111    1.1285   -1.3912 H   0  0  0  0  0  0  0  0  0  0  0  0
    0.4326    3.0285   -0.2539 H   0  0  0  0  0  0  0  0  0  0  0  0
  1  2  1  0
  2  3  1  0
  2  4  1  0
  4  5  1  0
  5  6  1  0
  6  7  2  0
  7  8  1  0
  8  9  1  0
  8  2  1  0
  1 10  1  0
  1 11  1  0
  1 12  1  0
  3 13  1  0
  4 14  1  0
  4 15  1  0
  5 16  1  0
  5 17  1  0
  6 18  1  0
  7 19  1  0
  8 20  1  0
  9 21  1  0
M  END
