
     RDKit          3D

 17 17  0  0  0  0  0  0  0  0999 V2000
    0.8940    1.3379    0.3735 C   0  0  0  0  0  0  0  0  0  0  0  0
    0.5201   -0.0031   -0.2009 C   0  0  0  0  0  0  0  0  0  0  0  0
    1.6821   -0.6713   -0.8105 C   0  0  0  0  0  0  0  0  0  0  0  0
    1.6838   -0.9300   -1.9999 O   0  0  0  0  0  0  0  0  0  0  0  0
   -0.1297   -0.9078    0.8143 C   0  0  0  0  0  0  0  0  0  0  0  0
   -1.5713   -0.8014    0.4348 C   0  0  0  0  0  0  0  0  0  0  0  0
   -2.5025   -1.4646    0.8329 O   0  0  0  0  0  0  0  0  0  0  0  0
   -1.6573    0.2928   -0.5438 C   0  0  0  0  0  0  0  0  0  0  0  0
   -0.4283    0.2190   -1.1938 O   0  0  0  0  0  0  0  0  0  0  0  0
    1.2357    1.9655   -0.4925 H   0  0  0  0  0  0  0  0  0  0  0  0
    0.0119    1.8270    0.7862 H   0  0  0  0  0  0  0  0  0  0  0  0
    1.7163    1.2838    1.0974 H   0  0  0  0  0  0  0  0  0  0  0  0
    2.5679   -0.9598   -0.2566 H   0  0  0  0  0  0  0  0  0  0  0  0
    0.1669   -1.9660    0.5999 H   0  0  0  0  0  0  0  0  0  0  0  0
    0.0561   -0.6125    1.8535 H   0  0  0  0  0  0  0  0  0  0  0  0
   -1.7930    1.2409    0.0126 H   0  0  0  0  0  0  0  0  0  0  0  0
   -2.4528    0.1497   -1.3070 H   0  0  0  0  0  0  0  0  0  0  0  0
  1  2  1  0
  2  3  1  0
  3  4  2  0
  2  5  1  0
  5  6  1  0
  6  7  2  0
  6  8  1  0
  8  9  1  0
  9  2  1  0
  1 10  1  0
  1 11  1  0
  1 12  1  0
  3 13  1  0
  5 14  1  0
  5 15  1  0
  8 16  1  0
  8 17  1  0
M  END
