
     RDKit          3D

 19 20  0  0  0  0  0  0  0  0999 V2000
   -1.9913   -0.6492   -0.1468 C   0  0  0  0  0  0  0  0  0  0  0  0
   -0.7314    0.1414   -0.3147 C   0  0  0  0  0  0  0  0  0  0  0  0
   -0.8281    1.1967   -1.1803 O   0  0  0  0  0  0  0  0  0  0  0  0
   -0.1349    0.5744    1.0056 C   0  0  0  0  0  0  0  0  0  0  0  0
    1.2201   -0.1070    0.9493 C   0  0  0  0  0  0  0  0  0  0  0  0
    2.0537    0.4276   -0.1775 C   0  0  0  0  0  0  0  0  0  0  0  0
    1.3712   -0.0533   -1.3199 O   0  0  0  0  0  0  0  0  0  0  0  0
    0.3390   -0.8167   -0.8376 C   0  0  0  0  0  0  0  0  0  0  0  0
    0.8286   -1.3454    0.3822 O   0  0  0  0  0  0  0  0  0  0  0  0
   -2.2785   -1.0343   -1.1494 H   0  0  0  0  0  0  0  0  0  0  0  0
   -1.7291   -1.5641    0.4501 H   0  0  0  0  0  0  0  0  0  0  0  0
   -2.8308   -0.0861    0.2769 H   0  0  0  0  0  0  0  0  0  0  0  0
   -1.4891    1.8643   -0.9312 H   0  0  0  0  0  0  0  0  0  0  0  0
    0.0100    1.6665    1.0772 H   0  0  0  0  0  0  0  0  0  0  0  0
   -0.6722    0.1935    1.8785 H   0  0  0  0  0  0  0  0  0  0  0  0
    1.7141   -0.2072    1.8983 H   0  0  0  0  0  0  0  0  0  0  0  0
    3.0177   -0.1356   -0.1679 H   0  0  0  0  0  0  0  0  0  0  0  0
    2.1776    1.5069   -0.1897 H   0  0  0  0  0  0  0  0  0  0  0  0
   -0.0465   -1.5725   -1.5032 H   0  0  0  0  0  0  0  0  0  0  0  0
  1  2  1  0
  2  3  1  0
  2  4  1  0
  4  5  1  0
  5  6  1  0
  6  7  1  0
  7  8  1  0
  8  9  1  0
  8  2  1  0
  9  5  1  0
  1 10  1  0
  1 11  1  0
  1 12  1  0
  3 13  1  0
  4 14  1  0
  4 15  1  0
  5 16  1  0
  6 17  1  0
  6 18  1  0
  8 19  1  0
M  END
