
     RDKit          3D

 21 22  0  0  0  0  0  0  0  0999 V2000
    2.3302    0.1431    0.7816 C   0  0  0  0  0  0  0  0  0  0  0  0
    1.0907   -0.2996    0.1753 C   0  0  0  0  0  0  0  0  0  0  0  0
    1.2334   -1.5866   -0.3604 O   0  0  0  0  0  0  0  0  0  0  0  0
    0.2874    0.6401   -0.6775 C   0  0  0  0  0  0  0  0  0  0  0  0
   -0.1307    1.3155    0.5919 C   0  0  0  0  0  0  0  0  0  0  0  0
   -0.2064   -0.1398    0.9209 C   0  0  0  0  0  0  0  0  0  0  0  0
   -0.8184   -0.3304   -0.4312 C   0  0  0  0  0  0  0  0  0  0  0  0
   -2.1995    0.0414   -0.6755 C   0  0  0  0  0  0  0  0  0  0  0  0
   -3.0222   -1.0632   -0.3595 O   0  0  0  0  0  0  0  0  0  0  0  0
    2.3690   -0.2003    1.8572 H   0  0  0  0  0  0  0  0  0  0  0  0
    2.5659    1.2118    0.7966 H   0  0  0  0  0  0  0  0  0  0  0  0
    3.1931   -0.3588    0.2969 H   0  0  0  0  0  0  0  0  0  0  0  0
    1.8128   -1.5553   -1.1534 H   0  0  0  0  0  0  0  0  0  0  0  0
    0.5642    1.0641   -1.5399 H   0  0  0  0  0  0  0  0  0  0  0  0
    0.6728    1.9008    1.0718 H   0  0  0  0  0  0  0  0  0  0  0  0
   -1.0484    1.9018    0.5897 H   0  0  0  0  0  0  0  0  0  0  0  0
   -0.4658   -0.5737    1.7860 H   0  0  0  0  0  0  0  0  0  0  0  0
   -0.6207   -1.3831   -0.7968 H   0  0  0  0  0  0  0  0  0  0  0  0
   -2.3413    0.1944   -1.7868 H   0  0  0  0  0  0  0  0  0  0  0  0
   -2.6323    0.8981   -0.1880 H   0  0  0  0  0  0  0  0  0  0  0  0
   -2.6339   -1.8204   -0.8990 H   0  0  0  0  0  0  0  0  0  0  0  0
  1  2  1  0
  2  3  1  0
  2  4  1  0
  4  5  1  0
  5  6  1  0
  6  7  1  0
  7  8  1  0
  8  9  1  0
  6  2  1  0
  7  4  1  0
  1 10  1  0
  1 11  1  0
  1 12  1  0
  3 13  1  0
  4 14  1  0
  5 15  1  0
  5 16  1  0
  6 17  1  0
  7 18  1  0
  8 19  1  0
  8 20  1  0
  9 21  1  0
M  END
