
     RDKit          3D

 17 18  0  0  0  0  0  0  0  0999 V2000
   -0.0726    1.4519    0.7091 C   0  0  0  0  0  0  0  0  0  0  0  0
    0.0389    0.2004   -0.0998 C   0  0  0  0  0  0  0  0  0  0  0  0
    1.3283    0.0192   -0.8579 C   0  0  0  0  0  0  0  0  0  0  0  0
    2.3864   -0.0022    0.0272 O   0  0  0  0  0  0  0  0  0  0  0  0
   -1.1973   -0.0225   -0.8986 C   0  0  0  0  0  0  0  0  0  0  0  0
   -1.6700    0.4171   -1.9497 O   0  0  0  0  0  0  0  0  0  0  0  0
   -1.7151   -1.0238    0.0568 C   0  0  0  0  0  0  0  0  0  0  0  0
   -1.5242   -0.8774    1.4121 O   0  0  0  0  0  0  0  0  0  0  0  0
   -0.3403   -1.0045    0.7249 C   0  0  0  0  0  0  0  0  0  0  0  0
   -0.7804    2.1931    0.2653 H   0  0  0  0  0  0  0  0  0  0  0  0
    0.8774    1.9865    0.8580 H   0  0  0  0  0  0  0  0  0  0  0  0
   -0.4803    1.2547    1.7392 H   0  0  0  0  0  0  0  0  0  0  0  0
    1.2599   -0.8449   -1.5165 H   0  0  0  0  0  0  0  0  0  0  0  0
    1.4732    0.9271   -1.5043 H   0  0  0  0  0  0  0  0  0  0  0  0
    2.3224   -0.7613    0.6653 H   0  0  0  0  0  0  0  0  0  0  0  0
   -2.1231   -1.9809   -0.2968 H   0  0  0  0  0  0  0  0  0  0  0  0
    0.2167   -1.9328    0.6656 H   0  0  0  0  0  0  0  0  0  0  0  0
  1  2  1  0
  2  3  1  0
  3  4  1  0
  2  5  1  0
  5  6  2  0
  5  7  1  0
  7  8  1  0
  8  9  1  0
  9  2  1  0
  9  7  1  0
  1 10  1  0
  1 11  1  0
  1 12  1  0
  3 13  1  0
  3 14  1  0
  4 15  1  0
  7 16  1  0
  9 17  1  0
M  END
