
     RDKit          3D

 25 26  0  0  0  0  0  0  0  0999 V2000
   -0.6675   -0.8115   -1.5025 C   0  0  0  0  0  0  0  0  0  0  0  0
   -0.7463   -0.2277   -0.1350 C   0  0  0  0  0  0  0  0  0  0  0  0
    0.5267   -0.1641    0.6493 C   0  0  0  0  0  0  0  0  0  0  0  0
    1.5964    0.6454    0.0048 C   0  0  0  0  0  0  0  0  0  0  0  0
    2.9391    0.7851    0.7051 C   0  0  0  0  0  0  0  0  0  0  0  0
    2.8282   -0.1394   -0.4438 C   0  0  0  0  0  0  0  0  0  0  0  0
   -1.8352   -0.9195    0.6828 C   0  0  0  0  0  0  0  0  0  0  0  0
   -2.7816    0.1650    0.2049 C   0  0  0  0  0  0  0  0  0  0  0  0
   -1.5691    1.0345   -0.1179 C   0  0  0  0  0  0  0  0  0  0  0  0
   -0.2191   -1.8289   -1.4790 H   0  0  0  0  0  0  0  0  0  0  0  0
   -1.7259   -0.9470   -1.8659 H   0  0  0  0  0  0  0  0  0  0  0  0
   -0.1873   -0.1475   -2.2535 H   0  0  0  0  0  0  0  0  0  0  0  0
    0.9166   -1.1819    0.8430 H   0  0  0  0  0  0  0  0  0  0  0  0
    0.3077    0.2840    1.6599 H   0  0  0  0  0  0  0  0  0  0  0  0
    1.2686    1.4818   -0.6538 H   0  0  0  0  0  0  0  0  0  0  0  0
    3.0480    0.4360    1.7411 H   0  0  0  0  0  0  0  0  0  0  0  0
    3.5217    1.7189    0.5037 H   0  0  0  0  0  0  0  0  0  0  0  0
    2.8845   -1.2143   -0.2374 H   0  0  0  0  0  0  0  0  0  0  0  0
    3.2775    0.1512   -1.4110 H   0  0  0  0  0  0  0  0  0  0  0  0
   -1.6231   -0.8766    1.7727 H   0  0  0  0  0  0  0  0  0  0  0  0
   -2.0556   -1.9263    0.3152 H   0  0  0  0  0  0  0  0  0  0  0  0
   -3.3855    0.5215    1.0622 H   0  0  0  0  0  0  0  0  0  0  0  0
   -3.3665   -0.0935   -0.6906 H   0  0  0  0  0  0  0  0  0  0  0  0
   -1.3185    1.6609    0.7630 H   0  0  0  0  0  0  0  0  0  0  0  0
   -1.6338    1.5941   -1.0558 H   0  0  0  0  0  0  0  0  0  0  0  0
  1  2  1  0
  2  3  1  0
  3  4  1  0
  4  5  1  0
  5  6  1  0
  2  7  1  0
  7  8  1  0
  8  9  1  0
  9  2  1  0
  6  4  1  0
  1 10  1  0
  1 11  1  0
  1 12  1  0
  3 13  1  0
  3 14  1  0
  4 15  1  0
  5 16  1  0
  5 17  1  0
  6 18  1  0
  6 19  1  0
  7 20  1  0
  7 21  1  0
  8 22  1  0
  8 23  1  0
  9 24  1  0
  9 25  1  0
M  END
