
     RDKit          3D

 21 21  0  0  0  0  0  0  0  0999 V2000
   -2.5237    0.7568    1.2052 C   0  0  0  0  0  0  0  0  0  0  0  0
   -1.5923    0.5768    0.0227 C   0  0  0  0  0  0  0  0  0  0  0  0
   -1.5042    1.6701   -0.8331 O   0  0  0  0  0  0  0  0  0  0  0  0
   -1.6422   -0.7608   -0.7075 C   0  0  0  0  0  0  0  0  0  0  0  0
   -0.4583   -0.3846    0.1508 C   0  0  0  0  0  0  0  0  0  0  0  0
    0.7595   -0.1233   -0.4605 O   0  0  0  0  0  0  0  0  0  0  0  0
    1.7672   -0.6489    0.3270 C   0  0  0  0  0  0  0  0  0  0  0  0
    3.1416   -0.4287   -0.2327 C   0  0  0  0  0  0  0  0  0  0  0  0
    3.4459    0.9217   -0.3825 O   0  0  0  0  0  0  0  0  0  0  0  0
   -1.9002    0.6334    2.1229 H   0  0  0  0  0  0  0  0  0  0  0  0
   -2.9555    1.7639    1.2207 H   0  0  0  0  0  0  0  0  0  0  0  0
   -3.2986   -0.0448    1.1509 H   0  0  0  0  0  0  0  0  0  0  0  0
   -2.2098    1.6456   -1.5408 H   0  0  0  0  0  0  0  0  0  0  0  0
   -2.3872   -1.4803   -0.3339 H   0  0  0  0  0  0  0  0  0  0  0  0
   -1.5239   -0.7703   -1.8068 H   0  0  0  0  0  0  0  0  0  0  0  0
   -0.4423   -0.9431    1.1223 H   0  0  0  0  0  0  0  0  0  0  0  0
    1.6039   -1.7469    0.3762 H   0  0  0  0  0  0  0  0  0  0  0  0
    1.7566   -0.1990    1.3491 H   0  0  0  0  0  0  0  0  0  0  0  0
    3.8660   -0.8301    0.5107 H   0  0  0  0  0  0  0  0  0  0  0  0
    3.2717   -0.9046   -1.2242 H   0  0  0  0  0  0  0  0  0  0  0  0
    2.8259    1.2969   -1.0473 H   0  0  0  0  0  0  0  0  0  0  0  0
  1  2  1  0
  2  3  1  0
  2  4  1  0
  4  5  1  0
  5  6  1  0
  6  7  1  0
  7  8  1  0
  8  9  1  0
  5  2  1  0
  1 10  1  0
  1 11  1  0
  1 12  1  0
  3 13  1  0
  4 14  1  0
  4 15  1  0
  5 16  1  0
  7 17  1  0
  7 18  1  0
  8 19  1  0
  8 20  1  0
  9 21  1  0
M  END
