
     RDKit          3D

 23 24  0  0  0  0  0  0  0  0999 V2000
    1.7254   -0.7059    0.7838 C   0  0  0  0  0  0  0  0  0  0  0  0
    0.6553   -0.0128   -0.0535 C   0  0  0  0  0  0  0  0  0  0  0  0
    1.3499    0.9711   -0.9378 C   0  0  0  0  0  0  0  0  0  0  0  0
   -0.0117   -1.0448   -0.9394 C   0  0  0  0  0  0  0  0  0  0  0  0
   -1.4057   -1.2327   -0.4245 C   0  0  0  0  0  0  0  0  0  0  0  0
   -1.6319   -0.2540    0.6840 C   0  0  0  0  0  0  0  0  0  0  0  0
   -2.3373    0.8491    0.2460 O   0  0  0  0  0  0  0  0  0  0  0  0
   -1.2046    1.6743    0.3941 C   0  0  0  0  0  0  0  0  0  0  0  0
   -0.3605    0.5440    0.8551 C   0  0  0  0  0  0  0  0  0  0  0  0
    1.6647   -1.8141    0.6368 H   0  0  0  0  0  0  0  0  0  0  0  0
    2.7396   -0.3816    0.5274 H   0  0  0  0  0  0  0  0  0  0  0  0
    1.5711   -0.5274    1.8690 H   0  0  0  0  0  0  0  0  0  0  0  0
    0.6892    1.5004   -1.6428 H   0  0  0  0  0  0  0  0  0  0  0  0
    2.0361    1.6607   -0.3878 H   0  0  0  0  0  0  0  0  0  0  0  0
    2.0443    0.3604   -1.5911 H   0  0  0  0  0  0  0  0  0  0  0  0
    0.0156   -0.7731   -2.0069 H   0  0  0  0  0  0  0  0  0  0  0  0
    0.5228   -2.0206   -0.8535 H   0  0  0  0  0  0  0  0  0  0  0  0
   -2.1048   -1.0736   -1.2848 H   0  0  0  0  0  0  0  0  0  0  0  0
   -1.5866   -2.2915   -0.1051 H   0  0  0  0  0  0  0  0  0  0  0  0
   -1.9561   -0.7161    1.6261 H   0  0  0  0  0  0  0  0  0  0  0  0
   -1.4609    2.4367    1.1823 H   0  0  0  0  0  0  0  0  0  0  0  0
   -0.8940    2.2045   -0.5149 H   0  0  0  0  0  0  0  0  0  0  0  0
   -0.0599    0.6468    1.9375 H   0  0  0  0  0  0  0  0  0  0  0  0
  1  2  1  0
  2  3  1  0
  2  4  1  0
  4  5  1  0
  5  6  1  0
  6  7  1  0
  7  8  1  0
  8  9  1  0
  9  2  1  0
  9  6  1  0
  1 10  1  0
  1 11  1  0
  1 12  1  0
  3 13  1  0
  3 14  1  0
  3 15  1  0
  4 16  1  0
  4 17  1  0
  5 18  1  0
  5 19  1  0
  6 20  1  0
  8 21  1  0
  8 22  1  0
  9 23  1  0
M  END
